[H]c1c([H])c([H])c(Oc2c([H])c([H])c(C3(N4C([H])([H])C([H])([H])N(c5c([H])c([H])c(Cl)c(Cl)c5[H])C([H])([H])C4([H])[H])C(=O)N([H])C(=O)N([H])C3=O)c([H])c2[H])c([H])c1[H]


 38 42  0  0  0  0  0  0  0  0999 V2000
  -18.4742   12.5031  -18.9046 C   0  0  0  0  0  0  0  0  0  0  0  0
  -19.3493   12.4061  -20.1162 C   0  0  0  0  0  0  0  0  0  0  0  0
  -20.5884   12.3715  -19.9077 O   0  0  0  0  0  0  0  0  0  0  0  0
  -18.8888   12.3528  -21.4357 N   0  0  0  0  0  0  0  0  0  0  0  0
  -17.5230   12.1628  -21.6825 C   0  0  0  0  0  0  0  0  0  0  0  0
  -17.1314   12.1180  -22.8769 O   0  0  0  0  0  0  0  0  0  0  0  0
  -16.6317   12.0279  -20.5727 N   0  0  0  0  0  0  0  0  0  0  0  0
  -17.0796   12.0793  -19.2317 C   0  0  0  0  0  0  0  0  0  0  0  0
  -16.2751   11.7600  -18.3294 O   0  0  0  0  0  0  0  0  0  0  0  0
  -19.5517   12.4531  -22.2590 H   0  0  0  0  0  0  0  0  0  0  0  0
  -15.6239   11.8886  -20.8055 H   0  0  0  0  0  0  0  0  0  0  0  0
  -19.3800   16.2031  -17.0899 N   0  0  0  0  0  0  0  0  0  0  0  0
  -18.1781   15.5032  -16.6826 C   0  0  0  0  0  0  0  0  0  0  0  0
  -18.3751   14.0013  -16.9834 C   0  0  0  0  0  0  0  0  0  0  0  0
  -18.5479   13.7984  -18.3701 N   0  0  0  0  0  0  0  0  0  0  0  0
  -19.3259   14.7834  -18.9998 C   0  0  0  0  0  0  0  0  0  0  0  0
  -20.2430   15.5338  -18.0215 C   0  0  0  0  0  0  0  0  0  0  0  0
  -20.6291   21.1751  -17.9429 Cl  0  0  0  0  0  0  0  0  0  0  0  0
  -20.2851   19.8225  -16.8825 C   0  0  0  0  0  0  0  0  0  0  0  0
  -19.9740   18.5612  -17.4055 C   0  0  0  0  0  0  0  0  0  0  0  0
  -19.7004   17.4837  -16.6042 C   0  0  0  0  0  0  0  0  0  0  0  0
  -19.7538   17.7312  -15.2261 C   0  0  0  0  0  0  0  0  0  0  0  0
  -20.0540   18.9486  -14.7025 C   0  0  0  0  0  0  0  0  0  0  0  0
  -20.3233   20.0090  -15.5368 C   0  0  0  0  0  0  0  0  0  0  0  0
  -20.7100   21.5783  -14.8153 Cl  0  0  0  0  0  0  0  0  0  0  0  0
  -18.9654   11.5018  -17.9372 C   0  0  0  0  0  0  0  0  0  0  0  0
  -20.0114   11.9058  -17.1094 C   0  0  0  0  0  0  0  0  0  0  0  0
  -20.5939   11.0717  -16.1780 C   0  0  0  0  0  0  0  0  0  0  0  0
  -20.1385    9.7888  -16.0469 C   0  0  0  0  0  0  0  0  0  0  0  0
  -19.1122    9.3798  -16.8537 C   0  0  0  0  0  0  0  0  0  0  0  0
  -18.5252   10.2250  -17.7945 C   0  0  0  0  0  0  0  0  0  0  0  0
  -20.7044    8.9466  -15.1278 O   0  0  0  0  0  0  0  0  0  0  0  0
  -21.1510    7.6745  -15.4437 C   0  0  0  0  0  0  0  0  0  0  0  0
  -21.8137    6.8938  -14.5053 C   0  0  0  0  0  0  0  0  0  0  0  0
  -22.2423    5.6334  -14.8584 C   0  0  0  0  0  0  0  0  0  0  0  0
  -22.0158    5.1501  -16.1316 C   0  0  0  0  0  0  0  0  0  0  0  0
  -21.3620    5.9160  -17.0628 C   0  0  0  0  0  0  0  0  0  0  0  0
  -20.9367    7.1697  -16.7087 C   0  0  0  0  0  0  0  0  0  0  0  0
 18 19  1  0  0  0
 19 20  2  0  0  0
 20 21  1  0  0  0
 21 22  2  0  0  0
 22 23  1  0  0  0
 23 24  2  0  0  0
 24 25  1  0  0  0
 21 12  1  0  0  0
 12 13  1  0  0  0
 13 14  1  0  0  0
 14 15  1  0  0  0
 15 16  1  0  0  0
 16 17  1  0  0  0
 15  1  1  0  0  0
  1  2  1  0  0  0
  2  3  2  0  0  0
  2  4  1  0  0  0
  4  5  1  0  0  0
  5  6  2  0  0  0
  5  7  1  0  0  0
  7  8  1  0  0  0
  8  9  2  0  0  0
  1 26  1  0  0  0
 26 27  2  0  0  0
 27 28  1  0  0  0
 28 29  2  0  0  0
 29 32  1  0  0  0
 32 33  1  0  0  0
 33 34  2  0  0  0
 34 35  1  0  0  0
 35 36  2  0  0  0
 36 37  1  0  0  0
 37 38  2  0  0  0
 29 30  1  0  0  0
 30 31  2  0  0  0
 24 19  1  0  0  0
 17 12  1  0  0  0
  8  1  1  0  0  0
 31 26  1  0  0  0
 38 33  1  0  0  0
  4 10  1  0  0  0
  7 11  1  0  0  0
M  END
> <minimizedAffinity>
-5.08039

> <CNNscore>
0.3901046813

> <CNNaffinity>
6.7050542831

> <CNN_VS>
2.6156730652

> <CNNaffinity_variance>
0.8205046654

$$$$
[H]c1c([H])c([H])c(Oc2c([H])c([H])c(C3(N4C([H])([H])C([H])([H])N(c5c([H])c([H])c(Cl)c(Cl)c5[H])C([H])([H])C4([H])[H])C(=O)N([H])C(=O)N([H])C3=O)c([H])c2[H])c([H])c1[H]


 38 42  0  0  0  0  0  0  0  0999 V2000
  -17.6135   11.8569  -19.3289 C   0  0  0  0  0  0  0  0  0  0  0  0
  -18.0164   11.1909  -20.6084 C   0  0  0  0  0  0  0  0  0  0  0  0
  -19.2399   11.2261  -20.8941 O   0  0  0  0  0  0  0  0  0  0  0  0
  -17.1401   10.5464  -21.4875 N   0  0  0  0  0  0  0  0  0  0  0  0
  -15.8208   10.2974  -21.0873 C   0  0  0  0  0  0  0  0  0  0  0  0
  -15.0504    9.7165  -21.8941 O   0  0  0  0  0  0  0  0  0  0  0  0
  -15.4036   10.7112  -19.7838 N   0  0  0  0  0  0  0  0  0  0  0  0
  -16.2760   11.3642  -18.8816 C   0  0  0  0  0  0  0  0  0  0  0  0
  -15.8955   11.5166  -17.7004 O   0  0  0  0  0  0  0  0  0  0  0  0
  -17.4511   10.2397  -22.4552 H   0  0  0  0  0  0  0  0  0  0  0  0
  -14.4124   10.5049  -19.5303 H   0  0  0  0  0  0  0  0  0  0  0  0
  -18.3777   15.9140  -20.2003 N   0  0  0  0  0  0  0  0  0  0  0  0
  -18.2252   15.5158  -18.8153 C   0  0  0  0  0  0  0  0  0  0  0  0
  -18.5678   14.0136  -18.7099 C   0  0  0  0  0  0  0  0  0  0  0  0
  -17.6663   13.2505  -19.4837 N   0  0  0  0  0  0  0  0  0  0  0  0
  -17.3213   13.8425  -20.7095 C   0  0  0  0  0  0  0  0  0  0  0  0
  -18.3581   14.8714  -21.1869 C   0  0  0  0  0  0  0  0  0  0  0  0
  -19.2853   20.8777  -18.9566 Cl  0  0  0  0  0  0  0  0  0  0  0  0
  -18.9536   19.6050  -20.1153 C   0  0  0  0  0  0  0  0  0  0  0  0
  -18.7972   18.2773  -19.6983 C   0  0  0  0  0  0  0  0  0  0  0  0
  -18.5372   17.2594  -20.5783 C   0  0  0  0  0  0  0  0  0  0  0  0
  -18.4385   17.6390  -21.9234 C   0  0  0  0  0  0  0  0  0  0  0  0
  -18.5876   18.9223  -22.3446 C   0  0  0  0  0  0  0  0  0  0  0  0
  -18.8482   19.9196  -21.4332 C   0  0  0  0  0  0  0  0  0  0  0  0
  -19.0357   21.5782  -22.0222 Cl  0  0  0  0  0  0  0  0  0  0  0  0
  -18.5595   11.4028  -18.2905 C   0  0  0  0  0  0  0  0  0  0  0  0
  -18.4547   10.0684  -17.9021 C   0  0  0  0  0  0  0  0  0  0  0  0
  -19.2492    9.5090  -16.9231 C   0  0  0  0  0  0  0  0  0  0  0  0
  -20.1864   10.2821  -16.2952 C   0  0  0  0  0  0  0  0  0  0  0  0
  -20.2994   11.5938  -16.6671 C   0  0  0  0  0  0  0  0  0  0  0  0
  -19.4948   12.1568  -17.6570 C   0  0  0  0  0  0  0  0  0  0  0  0
  -20.9841    9.7441  -15.3212 O   0  0  0  0  0  0  0  0  0  0  0  0
  -20.5464    9.5155  -14.0275 C   0  0  0  0  0  0  0  0  0  0  0  0
  -20.0008   10.5394  -13.2639 C   0  0  0  0  0  0  0  0  0  0  0  0
  -19.5769   10.2715  -11.9811 C   0  0  0  0  0  0  0  0  0  0  0  0
  -19.6926    8.9988  -11.4590 C   0  0  0  0  0  0  0  0  0  0  0  0
  -20.2303    7.9834  -12.2080 C   0  0  0  0  0  0  0  0  0  0  0  0
  -20.6514    8.2527  -13.4840 C   0  0  0  0  0  0  0  0  0  0  0  0
 18 19  1  0  0  0
 19 20  2  0  0  0
 20 21  1  0  0  0
 21 22  2  0  0  0
 22 23  1  0  0  0
 23 24  2  0  0  0
 24 25  1  0  0  0
 21 12  1  0  0  0
 12 13  1  0  0  0
 13 14  1  0  0  0
 14 15  1  0  0  0
 15 16  1  0  0  0
 16 17  1  0  0  0
 15  1  1  0  0  0
  1  2  1  0  0  0
  2  3  2  0  0  0
  2  4  1  0  0  0
  4  5  1  0  0  0
  5  6  2  0  0  0
  5  7  1  0  0  0
  7  8  1  0  0  0
  8  9  2  0  0  0
  1 26  1  0  0  0
 26 27  2  0  0  0
 27 28  1  0  0  0
 28 29  2  0  0  0
 29 32  1  0  0  0
 32 33  1  0  0  0
 33 34  2  0  0  0
 34 35  1  0  0  0
 35 36  2  0  0  0
 36 37  1  0  0  0
 37 38  2  0  0  0
 29 30  1  0  0  0
 30 31  2  0  0  0
 24 19  1  0  0  0
 17 12  1  0  0  0
  8  1  1  0  0  0
 31 26  1  0  0  0
 38 33  1  0  0  0
  4 10  1  0  0  0
  7 11  1  0  0  0
M  END
> <minimizedAffinity>
-5.75801

> <CNNscore>
0.3867341876

> <CNNaffinity>
6.9396314621

> <CNN_VS>
2.6837928295

> <CNNaffinity_variance>
0.4958924353

$$$$
[H]c1c([H])c([H])c(Oc2c([H])c([H])c(C3(N4C([H])([H])C([H])([H])N(c5c([H])c([H])c(Cl)c(Cl)c5[H])C([H])([H])C4([H])[H])C(=O)N([H])C(=O)N([H])C3=O)c([H])c2[H])c([H])c1[H]


 38 42  0  0  0  0  0  0  0  0999 V2000
  -17.6509   11.5781  -18.8896 C   0  0  0  0  0  0  0  0  0  0  0  0
  -18.0874   11.2095  -20.2741 C   0  0  0  0  0  0  0  0  0  0  0  0
  -19.3197   11.2875  -20.5094 O   0  0  0  0  0  0  0  0  0  0  0  0
  -17.2329   10.7935  -21.3002 N   0  0  0  0  0  0  0  0  0  0  0  0
  -15.8993   10.4832  -21.0040 C   0  0  0  0  0  0  0  0  0  0  0  0
  -15.1491   10.1112  -21.9424 O   0  0  0  0  0  0  0  0  0  0  0  0
  -15.4452   10.6009  -19.6534 N   0  0  0  0  0  0  0  0  0  0  0  0
  -16.2952   11.0200  -18.6029 C   0  0  0  0  0  0  0  0  0  0  0  0
  -15.8791   10.9098  -17.4290 O   0  0  0  0  0  0  0  0  0  0  0  0
  -17.5714   10.7066  -22.3028 H   0  0  0  0  0  0  0  0  0  0  0  0
  -14.4446   10.3595  -19.4811 H   0  0  0  0  0  0  0  0  0  0  0  0
  -18.5668   15.6884  -18.6249 N   0  0  0  0  0  0  0  0  0  0  0  0
  -18.0169   15.0210  -17.4620 C   0  0  0  0  0  0  0  0  0  0  0  0
  -18.3396   13.5152  -17.5787 C   0  0  0  0  0  0  0  0  0  0  0  0
  -17.7224   12.9698  -18.7256 N   0  0  0  0  0  0  0  0  0  0  0  0
  -17.7465   13.8166  -19.8456 C   0  0  0  0  0  0  0  0  0  0  0  0
  -18.8597   14.8732  -19.7696 C   0  0  0  0  0  0  0  0  0  0  0  0
  -18.6209   20.2219  -21.1653 Cl  0  0  0  0  0  0  0  0  0  0  0  0
  -18.8696   19.2444  -19.7317 C   0  0  0  0  0  0  0  0  0  0  0  0
  -18.6226   17.8661  -19.7508 C   0  0  0  0  0  0  0  0  0  0  0  0
  -18.8072   17.0741  -18.6477 C   0  0  0  0  0  0  0  0  0  0  0  0
  -19.2602   17.7385  -17.5003 C   0  0  0  0  0  0  0  0  0  0  0  0
  -19.5046   19.0747  -17.4651 C   0  0  0  0  0  0  0  0  0  0  0  0
  -19.3083   19.8400  -18.5915 C   0  0  0  0  0  0  0  0  0  0  0  0
  -19.6381   21.5768  -18.5044 Cl  0  0  0  0  0  0  0  0  0  0  0  0
  -18.5591   10.8868  -17.9532 C   0  0  0  0  0  0  0  0  0  0  0  0
  -18.2513    9.5587  -17.6632 C   0  0  0  0  0  0  0  0  0  0  0  0
  -18.9896    8.7939  -16.7843 C   0  0  0  0  0  0  0  0  0  0  0  0
  -20.0746    9.3458  -16.1609 C   0  0  0  0  0  0  0  0  0  0  0  0
  -20.3874   10.6486  -16.4369 C   0  0  0  0  0  0  0  0  0  0  0  0
  -19.6393   11.4197  -17.3257 C   0  0  0  0  0  0  0  0  0  0  0  0
  -20.8193    8.6019  -15.2855 O   0  0  0  0  0  0  0  0  0  0  0  0
  -20.9976    7.2350  -15.4176 C   0  0  0  0  0  0  0  0  0  0  0  0
  -21.8653    6.7140  -16.3688 C   0  0  0  0  0  0  0  0  0  0  0  0
  -22.0152    5.3485  -16.4687 C   0  0  0  0  0  0  0  0  0  0  0  0
  -21.3107    4.5057  -15.6325 C   0  0  0  0  0  0  0  0  0  0  0  0
  -20.4524    5.0140  -14.6912 C   0  0  0  0  0  0  0  0  0  0  0  0
  -20.3052    6.3730  -14.5939 C   0  0  0  0  0  0  0  0  0  0  0  0
 18 19  1  0  0  0
 19 20  2  0  0  0
 20 21  1  0  0  0
 21 22  2  0  0  0
 22 23  1  0  0  0
 23 24  2  0  0  0
 24 25  1  0  0  0
 21 12  1  0  0  0
 12 13  1  0  0  0
 13 14  1  0  0  0
 14 15  1  0  0  0
 15 16  1  0  0  0
 16 17  1  0  0  0
 15  1  1  0  0  0
  1  2  1  0  0  0
  2  3  2  0  0  0
  2  4  1  0  0  0
  4  5  1  0  0  0
  5  6  2  0  0  0
  5  7  1  0  0  0
  7  8  1  0  0  0
  8  9  2  0  0  0
  1 26  1  0  0  0
 26 27  2  0  0  0
 27 28  1  0  0  0
 28 29  2  0  0  0
 29 32  1  0  0  0
 32 33  1  0  0  0
 33 34  2  0  0  0
 34 35  1  0  0  0
 35 36  2  0  0  0
 36 37  1  0  0  0
 37 38  2  0  0  0
 29 30  1  0  0  0
 30 31  2  0  0  0
 24 19  1  0  0  0
 17 12  1  0  0  0
  8  1  1  0  0  0
 31 26  1  0  0  0
 38 33  1  0  0  0
  4 10  1  0  0  0
  7 11  1  0  0  0
M  END
> <minimizedAffinity>
-6.13393

> <CNNscore>
0.3659342527

> <CNNaffinity>
6.8434972763

> <CNN_VS>
2.5042700768

> <CNNaffinity_variance>
0.3821895421

$$$$
[H]c1c([H])c([H])c(Oc2c([H])c([H])c(C3(N4C([H])([H])C([H])([H])N(c5c([H])c([H])c(Cl)c(Cl)c5[H])C([H])([H])C4([H])[H])C(=O)N([H])C(=O)N([H])C3=O)c([H])c2[H])c([H])c1[H]


 38 42  0  0  0  0  0  0  0  0999 V2000
  -18.4158   12.6271  -18.9957 C   0  0  0  0  0  0  0  0  0  0  0  0
  -19.1967   12.5787  -20.2729 C   0  0  0  0  0  0  0  0  0  0  0  0
  -20.4484   12.5601  -20.1607 O   0  0  0  0  0  0  0  0  0  0  0  0
  -18.6370   12.5536  -21.5544 N   0  0  0  0  0  0  0  0  0  0  0  0
  -17.2594   12.3466  -21.7015 C   0  0  0  0  0  0  0  0  0  0  0  0
  -16.7779   12.3278  -22.8633 O   0  0  0  0  0  0  0  0  0  0  0  0
  -16.4581   12.1657  -20.5312 N   0  0  0  0  0  0  0  0  0  0  0  0
  -17.0069   12.1880  -19.2274 C   0  0  0  0  0  0  0  0  0  0  0  0
  -16.2791   11.8301  -18.2758 O   0  0  0  0  0  0  0  0  0  0  0  0
  -19.2331   12.6881  -22.4227 H   0  0  0  0  0  0  0  0  0  0  0  0
  -15.4377   12.0152  -20.6902 H   0  0  0  0  0  0  0  0  0  0  0  0
  -19.3892   16.2770  -17.1157 N   0  0  0  0  0  0  0  0  0  0  0  0
  -18.1960   15.5718  -16.6922 C   0  0  0  0  0  0  0  0  0  0  0  0
  -18.3775   14.0771  -17.0358 C   0  0  0  0  0  0  0  0  0  0  0  0
  -18.5105   13.9083  -18.4314 N   0  0  0  0  0  0  0  0  0  0  0  0
  -19.2751   14.9057  -19.0580 C   0  0  0  0  0  0  0  0  0  0  0  0
  -20.2228   15.6277  -18.0875 C   0  0  0  0  0  0  0  0  0  0  0  0
  -20.1183   21.3754  -17.8107 Cl  0  0  0  0  0  0  0  0  0  0  0  0
  -20.0959   19.9337  -16.8140 C   0  0  0  0  0  0  0  0  0  0  0  0
  -19.7559   18.6893  -17.3590 C   0  0  0  0  0  0  0  0  0  0  0  0
  -19.7291   17.5437  -16.6074 C   0  0  0  0  0  0  0  0  0  0  0  0
  -20.0656   17.7036  -15.2567 C   0  0  0  0  0  0  0  0  0  0  0  0
  -20.3978   18.9034  -14.7123 C   0  0  0  0  0  0  0  0  0  0  0  0
  -20.4143   20.0338  -15.4966 C   0  0  0  0  0  0  0  0  0  0  0  0
  -20.8524   21.5775  -14.7494 Cl  0  0  0  0  0  0  0  0  0  0  0  0
  -18.9952   11.6084  -18.0978 C   0  0  0  0  0  0  0  0  0  0  0  0
  -18.4323   10.3352  -18.1655 C   0  0  0  0  0  0  0  0  0  0  0  0
  -18.8477    9.2896  -17.3676 C   0  0  0  0  0  0  0  0  0  0  0  0
  -19.8548    9.4923  -16.4648 C   0  0  0  0  0  0  0  0  0  0  0  0
  -20.4158   10.7376  -16.3883 C   0  0  0  0  0  0  0  0  0  0  0  0
  -19.9938   11.7930  -17.1960 C   0  0  0  0  0  0  0  0  0  0  0  0
  -20.2804    8.4663  -15.6644 O   0  0  0  0  0  0  0  0  0  0  0  0
  -20.2227    8.5132  -14.2817 C   0  0  0  0  0  0  0  0  0  0  0  0
  -19.0571    8.8865  -13.6252 C   0  0  0  0  0  0  0  0  0  0  0  0
  -19.0399    8.9207  -12.2484 C   0  0  0  0  0  0  0  0  0  0  0  0
  -20.1692    8.5874  -11.5276 C   0  0  0  0  0  0  0  0  0  0  0  0
  -21.3233    8.2179  -12.1699 C   0  0  0  0  0  0  0  0  0  0  0  0
  -21.3375    8.1848  -13.5398 C   0  0  0  0  0  0  0  0  0  0  0  0
 18 19  1  0  0  0
 19 20  2  0  0  0
 20 21  1  0  0  0
 21 22  2  0  0  0
 22 23  1  0  0  0
 23 24  2  0  0  0
 24 25  1  0  0  0
 21 12  1  0  0  0
 12 13  1  0  0  0
 13 14  1  0  0  0
 14 15  1  0  0  0
 15 16  1  0  0  0
 16 17  1  0  0  0
 15  1  1  0  0  0
  1  2  1  0  0  0
  2  3  2  0  0  0
  2  4  1  0  0  0
  4  5  1  0  0  0
  5  6  2  0  0  0
  5  7  1  0  0  0
  7  8  1  0  0  0
  8  9  2  0  0  0
  1 26  1  0  0  0
 26 27  2  0  0  0
 27 28  1  0  0  0
 28 29  2  0  0  0
 29 32  1  0  0  0
 32 33  1  0  0  0
 33 34  2  0  0  0
 34 35  1  0  0  0
 35 36  2  0  0  0
 36 37  1  0  0  0
 37 38  2  0  0  0
 29 30  1  0  0  0
 30 31  2  0  0  0
 24 19  1  0  0  0
 17 12  1  0  0  0
  8  1  1  0  0  0
 31 26  1  0  0  0
 38 33  1  0  0  0
  4 10  1  0  0  0
  7 11  1  0  0  0
M  END
> <minimizedAffinity>
-6.46134

> <CNNscore>
0.3365564644

> <CNNaffinity>
6.6293764114

> <CNN_VS>
2.2311594486

> <CNNaffinity_variance>
0.4051326811

$$$$
[H]c1c([H])c([H])c(Oc2c([H])c([H])c(C3(N4C([H])([H])C([H])([H])N(c5c([H])c([H])c(Cl)c(Cl)c5[H])C([H])([H])C4([H])[H])C(=O)N([H])C(=O)N([H])C3=O)c([H])c2[H])c([H])c1[H]


 38 42  0  0  0  0  0  0  0  0999 V2000
  -17.6791   11.7765  -19.2021 C   0  0  0  0  0  0  0  0  0  0  0  0
  -18.0942   11.1532  -20.4992 C   0  0  0  0  0  0  0  0  0  0  0  0
  -19.3203   11.1987  -20.7724 O   0  0  0  0  0  0  0  0  0  0  0  0
  -17.2265   10.5375  -21.4069 N   0  0  0  0  0  0  0  0  0  0  0  0
  -15.9039   10.2747  -21.0271 C   0  0  0  0  0  0  0  0  0  0  0  0
  -15.1414    9.7201  -21.8596 O   0  0  0  0  0  0  0  0  0  0  0  0
  -15.4745   10.6450  -19.7146 N   0  0  0  0  0  0  0  0  0  0  0  0
  -16.3381   11.2685  -18.7835 C   0  0  0  0  0  0  0  0  0  0  0  0
  -15.9467   11.3817  -17.6014 O   0  0  0  0  0  0  0  0  0  0  0  0
  -17.5466   10.2630  -22.3813 H   0  0  0  0  0  0  0  0  0  0  0  0
  -14.4813   10.4298  -19.4770 H   0  0  0  0  0  0  0  0  0  0  0  0
  -18.4186   15.8586  -19.9723 N   0  0  0  0  0  0  0  0  0  0  0  0
  -18.3429   15.4121  -18.5957 C   0  0  0  0  0  0  0  0  0  0  0  0
  -18.6811   13.9056  -18.5632 C   0  0  0  0  0  0  0  0  0  0  0  0
  -17.7320   13.1745  -19.3105 N   0  0  0  0  0  0  0  0  0  0  0  0
  -17.3214   13.8113  -20.4929 C   0  0  0  0  0  0  0  0  0  0  0  0
  -18.3359   14.8518  -20.9923 C   0  0  0  0  0  0  0  0  0  0  0  0
  -19.0705   20.8195  -18.5676 Cl  0  0  0  0  0  0  0  0  0  0  0  0
  -18.8703   19.5624  -19.7727 C   0  0  0  0  0  0  0  0  0  0  0  0
  -18.7234   18.2221  -19.3943 C   0  0  0  0  0  0  0  0  0  0  0  0
  -18.5649   17.2159  -20.3111 C   0  0  0  0  0  0  0  0  0  0  0  0
  -18.5598   17.6209  -21.6524 C   0  0  0  0  0  0  0  0  0  0  0  0
  -18.7011   18.9167  -22.0363 C   0  0  0  0  0  0  0  0  0  0  0  0
  -18.8584   19.9017  -21.0886 C   0  0  0  0  0  0  0  0  0  0  0  0
  -19.0393   21.5773  -21.6297 Cl  0  0  0  0  0  0  0  0  0  0  0  0
  -18.6161   11.2891  -18.1706 C   0  0  0  0  0  0  0  0  0  0  0  0
  -18.4743    9.9559  -17.7895 C   0  0  0  0  0  0  0  0  0  0  0  0
  -19.2566    9.3680  -16.8175 C   0  0  0  0  0  0  0  0  0  0  0  0
  -20.2185   10.1099  -16.1893 C   0  0  0  0  0  0  0  0  0  0  0  0
  -20.3678   11.4200  -16.5540 C   0  0  0  0  0  0  0  0  0  0  0  0
  -19.5755   12.0119  -17.5369 C   0  0  0  0  0  0  0  0  0  0  0  0
  -21.0045    9.5433  -15.2221 O   0  0  0  0  0  0  0  0  0  0  0  0
  -22.3212    9.9137  -15.0062 C   0  0  0  0  0  0  0  0  0  0  0  0
  -23.3556    9.3418  -15.7356 C   0  0  0  0  0  0  0  0  0  0  0  0
  -24.6521    9.7373  -15.4913 C   0  0  0  0  0  0  0  0  0  0  0  0
  -24.9217   10.6922  -14.5315 C   0  0  0  0  0  0  0  0  0  0  0  0
  -23.9047   11.2609  -13.8079 C   0  0  0  0  0  0  0  0  0  0  0  0
  -22.6157   10.8655  -14.0531 C   0  0  0  0  0  0  0  0  0  0  0  0
 18 19  1  0  0  0
 19 20  2  0  0  0
 20 21  1  0  0  0
 21 22  2  0  0  0
 22 23  1  0  0  0
 23 24  2  0  0  0
 24 25  1  0  0  0
 21 12  1  0  0  0
 12 13  1  0  0  0
 13 14  1  0  0  0
 14 15  1  0  0  0
 15 16  1  0  0  0
 16 17  1  0  0  0
 15  1  1  0  0  0
  1  2  1  0  0  0
  2  3  2  0  0  0
  2  4  1  0  0  0
  4  5  1  0  0  0
  5  6  2  0  0  0
  5  7  1  0  0  0
  7  8  1  0  0  0
  8  9  2  0  0  0
  1 26  1  0  0  0
 26 27  2  0  0  0
 27 28  1  0  0  0
 28 29  2  0  0  0
 29 32  1  0  0  0
 32 33  1  0  0  0
 33 34  2  0  0  0
 34 35  1  0  0  0
 35 36  2  0  0  0
 36 37  1  0  0  0
 37 38  2  0  0  0
 29 30  1  0  0  0
 30 31  2  0  0  0
 24 19  1  0  0  0
 17 12  1  0  0  0
  8  1  1  0  0  0
 31 26  1  0  0  0
 38 33  1  0  0  0
  4 10  1  0  0  0
  7 11  1  0  0  0
M  END
> <minimizedAffinity>
-5.69088

> <CNNscore>
0.3343352973

> <CNNaffinity>
6.8025307655

> <CNN_VS>
2.2743260860

> <CNNaffinity_variance>
0.4446837306

$$$$
[H]c1c([H])c([H])c(Oc2c([H])c([H])c(C3(N4C([H])([H])C([H])([H])N(c5c([H])c([H])c(Cl)c(Cl)c5[H])C([H])([H])C4([H])[H])C(=O)N([H])C(=O)N([H])C3=O)c([H])c2[H])c([H])c1[H]


 38 42  0  0  0  0  0  0  0  0999 V2000
  -17.6637   11.8714  -19.0924 C   0  0  0  0  0  0  0  0  0  0  0  0
  -18.2568   11.6835  -20.4549 C   0  0  0  0  0  0  0  0  0  0  0  0
  -19.5119   11.6904  -20.5224 O   0  0  0  0  0  0  0  0  0  0  0  0
  -17.5221   11.5051  -21.6315 N   0  0  0  0  0  0  0  0  0  0  0  0
  -16.1434   11.2690  -21.5548 C   0  0  0  0  0  0  0  0  0  0  0  0
  -15.5029   11.1113  -22.6257 O   0  0  0  0  0  0  0  0  0  0  0  0
  -15.5211   11.2165  -20.2686 N   0  0  0  0  0  0  0  0  0  0  0  0
  -16.2482   11.3946  -19.0681 C   0  0  0  0  0  0  0  0  0  0  0  0
  -15.6722   11.1418  -17.9875 O   0  0  0  0  0  0  0  0  0  0  0  0
  -17.9854   11.5443  -22.5860 H   0  0  0  0  0  0  0  0  0  0  0  0
  -14.4927   11.0385  -20.2612 H   0  0  0  0  0  0  0  0  0  0  0  0
  -18.8028   15.7990  -18.0534 N   0  0  0  0  0  0  0  0  0  0  0  0
  -18.0646   15.0095  -17.0881 C   0  0  0  0  0  0  0  0  0  0  0  0
  -18.3010   13.5178  -17.4106 C   0  0  0  0  0  0  0  0  0  0  0  0
  -17.8037   13.2100  -18.6958 N   0  0  0  0  0  0  0  0  0  0  0  0
  -18.0279   14.2142  -19.6516 C   0  0  0  0  0  0  0  0  0  0  0  0
  -19.1881   15.1481  -19.2734 C   0  0  0  0  0  0  0  0  0  0  0  0
  -20.6457   19.5234  -14.9322 Cl  0  0  0  0  0  0  0  0  0  0  0  0
  -19.9777   18.9648  -16.4535 C   0  0  0  0  0  0  0  0  0  0  0  0
  -19.6573   17.6150  -16.6443 C   0  0  0  0  0  0  0  0  0  0  0  0
  -19.1337   17.1462  -17.8209 C   0  0  0  0  0  0  0  0  0  0  0  0
  -18.9411   18.1106  -18.8189 C   0  0  0  0  0  0  0  0  0  0  0  0
  -19.2466   19.4238  -18.6500 C   0  0  0  0  0  0  0  0  0  0  0  0
  -19.7712   19.8599  -17.4550 C   0  0  0  0  0  0  0  0  0  0  0  0
  -20.1557   21.5782  -17.2750 Cl  0  0  0  0  0  0  0  0  0  0  0  0
  -18.3910   10.9689  -18.1780 C   0  0  0  0  0  0  0  0  0  0  0  0
  -19.4878   11.5164  -17.5147 C   0  0  0  0  0  0  0  0  0  0  0  0
  -20.2814   10.7884  -16.6529 C   0  0  0  0  0  0  0  0  0  0  0  0
  -19.9949    9.4703  -16.4270 C   0  0  0  0  0  0  0  0  0  0  0  0
  -18.9209    8.9207  -17.0721 C   0  0  0  0  0  0  0  0  0  0  0  0
  -18.1204    9.6589  -17.9429 C   0  0  0  0  0  0  0  0  0  0  0  0
  -20.7714    8.7319  -15.5748 O   0  0  0  0  0  0  0  0  0  0  0  0
  -20.2660    8.0920  -14.4557 C   0  0  0  0  0  0  0  0  0  0  0  0
  -20.4819    6.7359  -14.2467 C   0  0  0  0  0  0  0  0  0  0  0  0
  -19.9626    6.1361  -13.1208 C   0  0  0  0  0  0  0  0  0  0  0  0
  -19.2350    6.8743  -12.2089 C   0  0  0  0  0  0  0  0  0  0  0  0
  -19.0184    8.2137  -12.4095 C   0  0  0  0  0  0  0  0  0  0  0  0
  -19.5362    8.8079  -13.5305 C   0  0  0  0  0  0  0  0  0  0  0  0
 18 19  1  0  0  0
 19 20  2  0  0  0
 20 21  1  0  0  0
 21 22  2  0  0  0
 22 23  1  0  0  0
 23 24  2  0  0  0
 24 25  1  0  0  0
 21 12  1  0  0  0
 12 13  1  0  0  0
 13 14  1  0  0  0
 14 15  1  0  0  0
 15 16  1  0  0  0
 16 17  1  0  0  0
 15  1  1  0  0  0
  1  2  1  0  0  0
  2  3  2  0  0  0
  2  4  1  0  0  0
  4  5  1  0  0  0
  5  6  2  0  0  0
  5  7  1  0  0  0
  7  8  1  0  0  0
  8  9  2  0  0  0
  1 26  1  0  0  0
 26 27  2  0  0  0
 27 28  1  0  0  0
 28 29  2  0  0  0
 29 32  1  0  0  0
 32 33  1  0  0  0
 33 34  2  0  0  0
 34 35  1  0  0  0
 35 36  2  0  0  0
 36 37  1  0  0  0
 37 38  2  0  0  0
 29 30  1  0  0  0
 30 31  2  0  0  0
 24 19  1  0  0  0
 17 12  1  0  0  0
  8  1  1  0  0  0
 31 26  1  0  0  0
 38 33  1  0  0  0
  4 10  1  0  0  0
  7 11  1  0  0  0
M  END
> <minimizedAffinity>
-6.64670

> <CNNscore>
0.2252843380

> <CNNaffinity>
6.6681137085

> <CNN_VS>
1.5022215843

> <CNNaffinity_variance>
0.1966839731

$$$$
[H]c1c([H])c([H])c(Oc2c([H])c([H])c(C3(N4C([H])([H])C([H])([H])N(c5c([H])c([H])c(Cl)c(Cl)c5[H])C([H])([H])C4([H])[H])C(=O)N([H])C(=O)N([H])C3=O)c([H])c2[H])c([H])c1[H]


 38 42  0  0  0  0  0  0  0  0999 V2000
  -16.5663   14.8446  -24.0529 C   0  0  0  0  0  0  0  0  0  0  0  0
  -17.3481   14.4307  -25.2616 C   0  0  0  0  0  0  0  0  0  0  0  0
  -18.4368   13.8407  -25.0462 O   0  0  0  0  0  0  0  0  0  0  0  0
  -16.9552   14.6528  -26.5854 N   0  0  0  0  0  0  0  0  0  0  0  0
  -15.6549   15.0999  -26.8532 C   0  0  0  0  0  0  0  0  0  0  0  0
  -15.3234   15.2928  -28.0511 O   0  0  0  0  0  0  0  0  0  0  0  0
  -14.7595   15.3184  -25.7601 N   0  0  0  0  0  0  0  0  0  0  0  0
  -15.1395   15.0991  -24.4151 C   0  0  0  0  0  0  0  0  0  0  0  0
  -14.2475   15.1245  -23.5394 O   0  0  0  0  0  0  0  0  0  0  0  0
  -17.6210   14.4902  -27.3963 H   0  0  0  0  0  0  0  0  0  0  0  0
  -13.8021   15.6516  -26.0083 H   0  0  0  0  0  0  0  0  0  0  0  0
  -18.7733   17.6455  -21.7972 N   0  0  0  0  0  0  0  0  0  0  0  0
  -17.3342   17.7959  -21.8790 C   0  0  0  0  0  0  0  0  0  0  0  0
  -16.7264   16.4109  -22.1911 C   0  0  0  0  0  0  0  0  0  0  0  0
  -17.1868   15.9449  -23.4419 N   0  0  0  0  0  0  0  0  0  0  0  0
  -18.5382   16.2299  -23.6965 C   0  0  0  0  0  0  0  0  0  0  0  0
  -19.3457   16.4822  -22.4137 C   0  0  0  0  0  0  0  0  0  0  0  0
  -19.3488   21.5418  -18.4067 Cl  0  0  0  0  0  0  0  0  0  0  0  0
  -19.9753   20.4103  -19.5898 C   0  0  0  0  0  0  0  0  0  0  0  0
  -19.1301   19.4874  -20.2183 C   0  0  0  0  0  0  0  0  0  0  0  0
  -19.5881   18.5900  -21.1473 C   0  0  0  0  0  0  0  0  0  0  0  0
  -20.9597   18.6601  -21.4248 C   0  0  0  0  0  0  0  0  0  0  0  0
  -21.7932   19.5493  -20.8240 C   0  0  0  0  0  0  0  0  0  0  0  0
  -21.2993   20.4363  -19.8954 C   0  0  0  0  0  0  0  0  0  0  0  0
  -22.4178   21.5785  -19.1356 Cl  0  0  0  0  0  0  0  0  0  0  0  0
  -16.5326   13.6825  -23.1431 C   0  0  0  0  0  0  0  0  0  0  0  0
  -17.4217   13.7135  -22.0702 C   0  0  0  0  0  0  0  0  0  0  0  0
  -17.5260   12.6873  -21.1545 C   0  0  0  0  0  0  0  0  0  0  0  0
  -16.7304   11.5832  -21.2890 C   0  0  0  0  0  0  0  0  0  0  0  0
  -15.8533   11.5402  -22.3381 C   0  0  0  0  0  0  0  0  0  0  0  0
  -15.7500   12.5789  -23.2625 C   0  0  0  0  0  0  0  0  0  0  0  0
  -16.8199   10.5548  -20.3897 O   0  0  0  0  0  0  0  0  0  0  0  0
  -17.6636   10.5828  -19.2920 C   0  0  0  0  0  0  0  0  0  0  0  0
  -18.3601   11.7355  -18.9525 C   0  0  0  0  0  0  0  0  0  0  0  0
  -19.1895   11.7230  -17.8530 C   0  0  0  0  0  0  0  0  0  0  0  0
  -19.3277   10.5771  -17.0956 C   0  0  0  0  0  0  0  0  0  0  0  0
  -18.6426    9.4357  -17.4255 C   0  0  0  0  0  0  0  0  0  0  0  0
  -17.8181    9.4509  -18.5200 C   0  0  0  0  0  0  0  0  0  0  0  0
 18 19  1  0  0  0
 19 20  2  0  0  0
 20 21  1  0  0  0
 21 22  2  0  0  0
 22 23  1  0  0  0
 23 24  2  0  0  0
 24 25  1  0  0  0
 21 12  1  0  0  0
 12 13  1  0  0  0
 13 14  1  0  0  0
 14 15  1  0  0  0
 15 16  1  0  0  0
 16 17  1  0  0  0
 15  1  1  0  0  0
  1  2  1  0  0  0
  2  3  2  0  0  0
  2  4  1  0  0  0
  4  5  1  0  0  0
  5  6  2  0  0  0
  5  7  1  0  0  0
  7  8  1  0  0  0
  8  9  2  0  0  0
  1 26  1  0  0  0
 26 27  2  0  0  0
 27 28  1  0  0  0
 28 29  2  0  0  0
 29 32  1  0  0  0
 32 33  1  0  0  0
 33 34  2  0  0  0
 34 35  1  0  0  0
 35 36  2  0  0  0
 36 37  1  0  0  0
 37 38  2  0  0  0
 29 30  1  0  0  0
 30 31  2  0  0  0
 24 19  1  0  0  0
 17 12  1  0  0  0
  8  1  1  0  0  0
 31 26  1  0  0  0
 38 33  1  0  0  0
  4 10  1  0  0  0
  7 11  1  0  0  0
M  END
> <minimizedAffinity>
-9.20494

> <CNNscore>
0.1640410125

> <CNNaffinity>
7.1487059593

> <CNN_VS>
1.1726809740

> <CNNaffinity_variance>
0.0996495709

$$$$
[H]c1c([H])c([H])c(Oc2c([H])c([H])c(C3(N4C([H])([H])C([H])([H])N(c5c([H])c([H])c(Cl)c(Cl)c5[H])C([H])([H])C4([H])[H])C(=O)N([H])C(=O)N([H])C3=O)c([H])c2[H])c([H])c1[H]


 38 42  0  0  0  0  0  0  0  0999 V2000
  -17.6398   11.8268  -19.0457 C   0  0  0  0  0  0  0  0  0  0  0  0
  -18.1614   11.6088  -20.4326 C   0  0  0  0  0  0  0  0  0  0  0  0
  -19.4108   11.6301  -20.5681 O   0  0  0  0  0  0  0  0  0  0  0  0
  -17.3673   11.3881  -21.5626 N   0  0  0  0  0  0  0  0  0  0  0  0
  -15.9982   11.1363  -21.4049 C   0  0  0  0  0  0  0  0  0  0  0  0
  -15.3035   10.9406  -22.4350 O   0  0  0  0  0  0  0  0  0  0  0  0
  -15.4467   11.1115  -20.0860 N   0  0  0  0  0  0  0  0  0  0  0  0
  -16.2347   11.3325  -18.9319 C   0  0  0  0  0  0  0  0  0  0  0  0
  -15.7213   11.1023  -17.8153 O   0  0  0  0  0  0  0  0  0  0  0  0
  -17.7780   11.4068  -22.5414 H   0  0  0  0  0  0  0  0  0  0  0  0
  -14.4230   10.9205  -20.0183 H   0  0  0  0  0  0  0  0  0  0  0  0
  -18.7593   15.8137  -18.2364 N   0  0  0  0  0  0  0  0  0  0  0  0
  -18.1908   15.0189  -17.1662 C   0  0  0  0  0  0  0  0  0  0  0  0
  -18.4377   13.5301  -17.4942 C   0  0  0  0  0  0  0  0  0  0  0  0
  -17.7814   13.1777  -18.6937 N   0  0  0  0  0  0  0  0  0  0  0  0
  -17.8342   14.1688  -19.6872 C   0  0  0  0  0  0  0  0  0  0  0  0
  -18.9987   15.1512  -19.4873 C   0  0  0  0  0  0  0  0  0  0  0  0
  -19.3347   20.5829  -20.2194 Cl  0  0  0  0  0  0  0  0  0  0  0  0
  -19.3631   19.4431  -18.8880 C   0  0  0  0  0  0  0  0  0  0  0  0
  -19.0540   18.0926  -19.0924 C   0  0  0  0  0  0  0  0  0  0  0  0
  -19.0672   17.1764  -18.0733 C   0  0  0  0  0  0  0  0  0  0  0  0
  -19.4113   17.6842  -16.8136 C   0  0  0  0  0  0  0  0  0  0  0  0
  -19.7138   18.9913  -16.5984 C   0  0  0  0  0  0  0  0  0  0  0  0
  -19.6905   19.8842  -17.6450 C   0  0  0  0  0  0  0  0  0  0  0  0
  -20.0908   21.5781  -17.3230 Cl  0  0  0  0  0  0  0  0  0  0  0  0
  -18.4282   10.9597  -18.1478 C   0  0  0  0  0  0  0  0  0  0  0  0
  -19.5591   11.5353  -17.5714 C   0  0  0  0  0  0  0  0  0  0  0  0
  -20.4091   10.8411  -16.7359 C   0  0  0  0  0  0  0  0  0  0  0  0
  -20.1469    9.5299  -16.4491 C   0  0  0  0  0  0  0  0  0  0  0  0
  -19.0398    8.9529  -17.0087 C   0  0  0  0  0  0  0  0  0  0  0  0
  -18.1822    9.6569  -17.8531 C   0  0  0  0  0  0  0  0  0  0  0  0
  -20.9793    8.8249  -15.6218 O   0  0  0  0  0  0  0  0  0  0  0  0
  -22.1024    9.3785  -15.0305 C   0  0  0  0  0  0  0  0  0  0  0  0
  -22.0133   10.0680  -13.8281 C   0  0  0  0  0  0  0  0  0  0  0  0
  -23.1537   10.6039  -13.2720 C   0  0  0  0  0  0  0  0  0  0  0  0
  -24.3731   10.4577  -13.9023 C   0  0  0  0  0  0  0  0  0  0  0  0
  -24.4678    9.7778  -15.0898 C   0  0  0  0  0  0  0  0  0  0  0  0
  -23.3316    9.2457  -15.6409 C   0  0  0  0  0  0  0  0  0  0  0  0
 18 19  1  0  0  0
 19 20  2  0  0  0
 20 21  1  0  0  0
 21 22  2  0  0  0
 22 23  1  0  0  0
 23 24  2  0  0  0
 24 25  1  0  0  0
 21 12  1  0  0  0
 12 13  1  0  0  0
 13 14  1  0  0  0
 14 15  1  0  0  0
 15 16  1  0  0  0
 16 17  1  0  0  0
 15  1  1  0  0  0
  1  2  1  0  0  0
  2  3  2  0  0  0
  2  4  1  0  0  0
  4  5  1  0  0  0
  5  6  2  0  0  0
  5  7  1  0  0  0
  7  8  1  0  0  0
  8  9  2  0  0  0
  1 26  1  0  0  0
 26 27  2  0  0  0
 27 28  1  0  0  0
 28 29  2  0  0  0
 29 32  1  0  0  0
 32 33  1  0  0  0
 33 34  2  0  0  0
 34 35  1  0  0  0
 35 36  2  0  0  0
 36 37  1  0  0  0
 37 38  2  0  0  0
 29 30  1  0  0  0
 30 31  2  0  0  0
 24 19  1  0  0  0
 17 12  1  0  0  0
  8  1  1  0  0  0
 31 26  1  0  0  0
 38 33  1  0  0  0
  4 10  1  0  0  0
  7 11  1  0  0  0
M  END
> <minimizedAffinity>
-6.59006

> <CNNscore>
0.1620312780

> <CNNaffinity>
6.5034894943

> <CNN_VS>
1.0537687540

> <CNNaffinity_variance>
0.1057180986

$$$$
[H]c1c([H])c([H])c(Oc2c([H])c([H])c(C3(N4C([H])([H])C([H])([H])N(c5c([H])c([H])c(Cl)c(Cl)c5[H])C([H])([H])C4([H])[H])C(=O)N([H])C(=O)N([H])C3=O)c([H])c2[H])c([H])c1[H]


 38 42  0  0  0  0  0  0  0  0999 V2000
  -19.4363   14.4034  -18.3508 C   0  0  0  0  0  0  0  0  0  0  0  0
  -18.8835   15.2205  -17.2238 C   0  0  0  0  0  0  0  0  0  0  0  0
  -17.8512   14.7721  -16.6641 O   0  0  0  0  0  0  0  0  0  0  0  0
  -19.4281   16.4235  -16.7632 N   0  0  0  0  0  0  0  0  0  0  0  0
  -20.6924   16.8254  -17.2134 C   0  0  0  0  0  0  0  0  0  0  0  0
  -21.1625   17.9108  -16.7857 O   0  0  0  0  0  0  0  0  0  0  0  0
  -21.3956   15.9904  -18.1367 N   0  0  0  0  0  0  0  0  0  0  0  0
  -20.8604   14.7706  -18.6132 C   0  0  0  0  0  0  0  0  0  0  0  0
  -21.6131   14.0098  -19.2597 O   0  0  0  0  0  0  0  0  0  0  0  0
  -18.9049   17.0427  -16.0776 H   0  0  0  0  0  0  0  0  0  0  0  0
  -22.3331   16.3309  -18.4440 H   0  0  0  0  0  0  0  0  0  0  0  0
  -17.5554   15.1160  -22.0599 N   0  0  0  0  0  0  0  0  0  0  0  0
  -16.9228   15.6076  -20.8523 C   0  0  0  0  0  0  0  0  0  0  0  0
  -18.0174   15.7812  -19.7767 C   0  0  0  0  0  0  0  0  0  0  0  0
  -18.6136   14.5362  -19.4796 N   0  0  0  0  0  0  0  0  0  0  0  0
  -18.8072   13.7126  -20.6005 C   0  0  0  0  0  0  0  0  0  0  0  0
  -18.8446   14.5005  -21.9193 C   0  0  0  0  0  0  0  0  0  0  0  0
  -17.0353   13.5294  -26.9814 Cl  0  0  0  0  0  0  0  0  0  0  0  0
  -16.6159   14.5705  -25.6351 C   0  0  0  0  0  0  0  0  0  0  0  0
  -17.2498   14.4301  -24.3943 C   0  0  0  0  0  0  0  0  0  0  0  0
  -16.9452   15.2277  -23.3223 C   0  0  0  0  0  0  0  0  0  0  0  0
  -15.9563   16.1930  -23.5537 C   0  0  0  0  0  0  0  0  0  0  0  0
  -15.3317   16.3423  -24.7512 C   0  0  0  0  0  0  0  0  0  0  0  0
  -15.6624   15.5237  -25.8065 C   0  0  0  0  0  0  0  0  0  0  0  0
  -14.8256   15.7505  -27.3497 Cl  0  0  0  0  0  0  0  0  0  0  0  0
  -19.4778   13.0024  -17.8871 C   0  0  0  0  0  0  0  0  0  0  0  0
  -20.4583   12.6933  -16.9460 C   0  0  0  0  0  0  0  0  0  0  0  0
  -20.6385   11.4218  -16.4426 C   0  0  0  0  0  0  0  0  0  0  0  0
  -19.8291   10.4074  -16.8740 C   0  0  0  0  0  0  0  0  0  0  0  0
  -18.8626   10.6975  -17.7978 C   0  0  0  0  0  0  0  0  0  0  0  0
  -18.6827   11.9838  -18.3051 C   0  0  0  0  0  0  0  0  0  0  0  0
  -19.9930    9.1390  -16.3855 O   0  0  0  0  0  0  0  0  0  0  0  0
  -20.1736    8.8654  -15.0401 C   0  0  0  0  0  0  0  0  0  0  0  0
  -21.3908    8.3989  -14.5606 C   0  0  0  0  0  0  0  0  0  0  0  0
  -21.5306    8.1386  -13.2153 C   0  0  0  0  0  0  0  0  0  0  0  0
  -20.4723    8.3390  -12.3517 C   0  0  0  0  0  0  0  0  0  0  0  0
  -19.2678    8.7995  -12.8190 C   0  0  0  0  0  0  0  0  0  0  0  0
  -19.1316    9.0577  -14.1579 C   0  0  0  0  0  0  0  0  0  0  0  0
 18 19  1  0  0  0
 19 20  2  0  0  0
 20 21  1  0  0  0
 21 22  2  0  0  0
 22 23  1  0  0  0
 23 24  2  0  0  0
 24 25  1  0  0  0
 21 12  1  0  0  0
 12 13  1  0  0  0
 13 14  1  0  0  0
 14 15  1  0  0  0
 15 16  1  0  0  0
 16 17  1  0  0  0
 15  1  1  0  0  0
  1  2  1  0  0  0
  2  3  2  0  0  0
  2  4  1  0  0  0
  4  5  1  0  0  0
  5  6  2  0  0  0
  5  7  1  0  0  0
  7  8  1  0  0  0
  8  9  2  0  0  0
  1 26  1  0  0  0
 26 27  2  0  0  0
 27 28  1  0  0  0
 28 29  2  0  0  0
 29 32  1  0  0  0
 32 33  1  0  0  0
 33 34  2  0  0  0
 34 35  1  0  0  0
 35 36  2  0  0  0
 36 37  1  0  0  0
 37 38  2  0  0  0
 29 30  1  0  0  0
 30 31  2  0  0  0
 24 19  1  0  0  0
 17 12  1  0  0  0
  8  1  1  0  0  0
 31 26  1  0  0  0
 38 33  1  0  0  0
  4 10  1  0  0  0
  7 11  1  0  0  0
M  END
> <minimizedAffinity>
-9.08437

> <CNNscore>
0.1515021473

> <CNNaffinity>
6.6199722290

> <CNN_VS>
1.0029400587

> <CNNaffinity_variance>
0.1221762747

$$$$
[H]OC(=O)C(Oc1c([H])c2c([H])c([H])c([H])c([H])c2c2c1c(C(=O)C(=O)N([H])[H])c(C([H])([H])C([H])([H])[H])n2C([H])([H])c1c([H])c([H])c([H])c([H])c1[H])(C([H])([H])[H])C([H])([H])[H]


 37 40  0  0  0  0  0  0  0  0999 V2000
  -16.9725   15.8856  -22.2000 C   0  0  0  0  0  0  0  0  0  0  0  0
  -17.8145   16.0812  -21.1257 C   0  0  0  0  0  0  0  0  0  0  0  0
  -17.9153   14.8961  -20.4534 C   0  0  0  0  0  0  0  0  0  0  0  0
  -18.6637   14.5005  -19.3384 C   0  0  0  0  0  0  0  0  0  0  0  0
  -18.6097   13.2069  -18.9471 C   0  0  0  0  0  0  0  0  0  0  0  0
  -17.8165   12.3086  -19.6498 C   0  0  0  0  0  0  0  0  0  0  0  0
  -17.7775   10.9837  -19.2370 C   0  0  0  0  0  0  0  0  0  0  0  0
  -17.0197   10.0415  -19.8880 C   0  0  0  0  0  0  0  0  0  0  0  0
  -16.2914   10.4356  -20.9679 C   0  0  0  0  0  0  0  0  0  0  0  0
  -16.2941   11.7745  -21.4324 C   0  0  0  0  0  0  0  0  0  0  0  0
  -17.0594   12.6777  -20.7581 C   0  0  0  0  0  0  0  0  0  0  0  0
  -17.1095   13.9978  -21.1686 C   0  0  0  0  0  0  0  0  0  0  0  0
  -16.5332   14.5957  -22.2274 N   0  0  0  0  0  0  0  0  0  0  0  0
  -17.7630   17.1370  -24.2333 C   0  0  0  0  0  0  0  0  0  0  0  0
  -16.7280   17.0174  -23.1444 C   0  0  0  0  0  0  0  0  0  0  0  0
  -18.5170   17.3368  -20.8748 C   0  0  0  0  0  0  0  0  0  0  0  0
  -19.6013   17.5835  -21.3982 O   0  0  0  0  0  0  0  0  0  0  0  0
  -17.8748   18.2890  -19.9737 C   0  0  0  0  0  0  0  0  0  0  0  0
  -16.4557   18.4329  -19.9970 N   0  0  0  0  0  0  0  0  0  0  0  0
  -18.5083   18.9919  -19.1744 O   0  0  0  0  0  0  0  0  0  0  0  0
  -15.9507   18.9740  -20.7335 H   0  0  0  0  0  0  0  0  0  0  0  0
  -15.9189   17.9721  -19.2394 H   0  0  0  0  0  0  0  0  0  0  0  0
  -19.4125   15.4768  -18.6878 O   0  0  0  0  0  0  0  0  0  0  0  0
  -20.7806   15.6141  -18.6285 C   0  0  0  0  0  0  0  0  0  0  0  0
  -21.2418   14.7749  -17.3866 C   0  0  0  0  0  0  0  0  0  0  0  0
  -21.6416   15.3214  -19.7657 C   0  0  0  0  0  0  0  0  0  0  0  0
  -21.1414   17.0063  -18.0679 C   0  0  0  0  0  0  0  0  0  0  0  0
  -21.2567   18.0511  -18.9302 O   0  0  0  0  0  0  0  0  0  0  0  0
  -21.3097   17.1334  -16.8248 O   0  0  0  0  0  0  0  0  0  0  0  0
  -20.5283   18.3060  -19.6164 H   0  0  0  0  0  0  0  0  0  0  0  0
  -15.6379   14.1817  -23.2530 C   0  0  0  0  0  0  0  0  0  0  0  0
  -16.2322   13.8739  -24.5735 C   0  0  0  0  0  0  0  0  0  0  0  0
  -17.1547   12.8537  -24.6838 C   0  0  0  0  0  0  0  0  0  0  0  0
  -17.7100   12.5213  -25.9257 C   0  0  0  0  0  0  0  0  0  0  0  0
  -17.3250   13.2268  -27.0467 C   0  0  0  0  0  0  0  0  0  0  0  0
  -16.4033   14.2508  -26.9587 C   0  0  0  0  0  0  0  0  0  0  0  0
  -15.8845   14.5376  -25.7002 C   0  0  0  0  0  0  0  0  0  0  0  0
 14 15  1  0  0  0
 15  1  1  0  0  0
  1  2  2  0  0  0
  2 16  1  0  0  0
 16 17  2  0  0  0
 16 18  1  0  0  0
 18 19  1  0  0  0
 18 20  2  0  0  0
  2  3  1  0  0  0
  3  4  2  0  0  0
  4 23  1  0  0  0
 23 24  1  0  0  0
 24 25  1  0  0  0
 24 26  1  0  0  0
 24 27  1  0  0  0
 27 28  1  0  0  0
 27 29  2  0  0  0
  4  5  1  0  0  0
  5  6  2  0  0  0
  6  7  1  0  0  0
  7  8  2  0  0  0
  8  9  1  0  0  0
  9 10  2  0  0  0
 10 11  1  0  0  0
 11 12  2  0  0  0
 12 13  1  0  0  0
 13 31  1  0  0  0
 31 32  1  0  0  0
 32 33  2  0  0  0
 33 34  1  0  0  0
 34 35  2  0  0  0
 35 36  1  0  0  0
 36 37  2  0  0  0
 13  1  1  0  0  0
 37 32  1  0  0  0
 12  3  1  0  0  0
 11  6  1  0  0  0
 19 21  1  0  0  0
 19 22  1  0  0  0
 28 30  1  0  0  0
M  END
> <minimizedAffinity>
-8.69989

> <CNNscore>
0.3409675062

> <CNNaffinity>
6.4998064041

> <CNN_VS>
2.2162227631

> <CNNaffinity_variance>
0.4250209928

$$$$
[H]OC(=O)C(Oc1c([H])c2c([H])c([H])c([H])c([H])c2c2c1c(C(=O)C(=O)N([H])[H])c(C([H])([H])C([H])([H])[H])n2C([H])([H])c1c([H])c([H])c([H])c([H])c1[H])(C([H])([H])[H])C([H])([H])[H]


 37 40  0  0  0  0  0  0  0  0999 V2000
  -18.7010   15.5267  -18.6333 C   0  0  0  0  0  0  0  0  0  0  0  0
  -18.5885   15.8029  -19.9796 C   0  0  0  0  0  0  0  0  0  0  0  0
  -18.1228   14.6777  -20.5989 C   0  0  0  0  0  0  0  0  0  0  0  0
  -17.7730   14.4032  -21.9264 C   0  0  0  0  0  0  0  0  0  0  0  0
  -17.2567   13.1888  -22.2229 C   0  0  0  0  0  0  0  0  0  0  0  0
  -17.0909   12.2473  -21.2149 C   0  0  0  0  0  0  0  0  0  0  0  0
  -16.5545   11.0080  -21.5369 C   0  0  0  0  0  0  0  0  0  0  0  0
  -16.3582   10.0328  -20.5902 C   0  0  0  0  0  0  0  0  0  0  0  0
  -16.7054   10.3061  -19.3031 C   0  0  0  0  0  0  0  0  0  0  0  0
  -17.2569   11.5538  -18.9188 C   0  0  0  0  0  0  0  0  0  0  0  0
  -17.4353   12.4937  -19.8889 C   0  0  0  0  0  0  0  0  0  0  0  0
  -17.9617   13.7336  -19.5739 C   0  0  0  0  0  0  0  0  0  0  0  0
  -18.3148   14.2444  -18.3802 N   0  0  0  0  0  0  0  0  0  0  0  0
  -20.6374   16.7202  -17.5605 C   0  0  0  0  0  0  0  0  0  0  0  0
  -19.1413   16.6119  -17.7053 C   0  0  0  0  0  0  0  0  0  0  0  0
  -18.8447   17.1217  -20.5524 C   0  0  0  0  0  0  0  0  0  0  0  0
  -19.9375   17.4135  -21.0332 O   0  0  0  0  0  0  0  0  0  0  0  0
  -17.7447   18.0812  -20.5296 C   0  0  0  0  0  0  0  0  0  0  0  0
  -18.0302   19.4783  -20.4904 N   0  0  0  0  0  0  0  0  0  0  0  0
  -16.5539   17.7404  -20.5430 O   0  0  0  0  0  0  0  0  0  0  0  0
  -18.3219   19.9753  -19.6196 H   0  0  0  0  0  0  0  0  0  0  0  0
  -17.9379   20.0072  -21.3772 H   0  0  0  0  0  0  0  0  0  0  0  0
  -17.9946   15.4028  -22.8691 O   0  0  0  0  0  0  0  0  0  0  0  0
  -17.1040   15.9584  -23.7591 C   0  0  0  0  0  0  0  0  0  0  0  0
  -17.2944   15.1723  -25.1026 C   0  0  0  0  0  0  0  0  0  0  0  0
  -15.6842   16.0850  -23.4618 C   0  0  0  0  0  0  0  0  0  0  0  0
  -17.6394   17.3196  -24.2520 C   0  0  0  0  0  0  0  0  0  0  0  0
  -16.8111   18.1333  -24.9592 O   0  0  0  0  0  0  0  0  0  0  0  0
  -18.8275   17.6389  -23.9755 O   0  0  0  0  0  0  0  0  0  0  0  0
  -15.8688   18.4059  -24.6364 H   0  0  0  0  0  0  0  0  0  0  0  0
  -18.3664   13.7467  -17.0481 C   0  0  0  0  0  0  0  0  0  0  0  0
  -19.5250   12.8940  -16.6986 C   0  0  0  0  0  0  0  0  0  0  0  0
  -20.6450   13.4664  -16.1311 C   0  0  0  0  0  0  0  0  0  0  0  0
  -21.7431   12.6791  -15.7628 C   0  0  0  0  0  0  0  0  0  0  0  0
  -21.6966   11.3168  -15.9732 C   0  0  0  0  0  0  0  0  0  0  0  0
  -20.5859   10.7238  -16.5392 C   0  0  0  0  0  0  0  0  0  0  0  0
  -19.5245   11.5539  -16.8853 C   0  0  0  0  0  0  0  0  0  0  0  0
 14 15  1  0  0  0
 15  1  1  0  0  0
  1  2  2  0  0  0
  2 16  1  0  0  0
 16 17  2  0  0  0
 16 18  1  0  0  0
 18 19  1  0  0  0
 18 20  2  0  0  0
  2  3  1  0  0  0
  3  4  2  0  0  0
  4 23  1  0  0  0
 23 24  1  0  0  0
 24 25  1  0  0  0
 24 26  1  0  0  0
 24 27  1  0  0  0
 27 28  1  0  0  0
 27 29  2  0  0  0
  4  5  1  0  0  0
  5  6  2  0  0  0
  6  7  1  0  0  0
  7  8  2  0  0  0
  8  9  1  0  0  0
  9 10  2  0  0  0
 10 11  1  0  0  0
 11 12  2  0  0  0
 12 13  1  0  0  0
 13 31  1  0  0  0
 31 32  1  0  0  0
 32 33  2  0  0  0
 33 34  1  0  0  0
 34 35  2  0  0  0
 35 36  1  0  0  0
 36 37  2  0  0  0
 13  1  1  0  0  0
 37 32  1  0  0  0
 12  3  1  0  0  0
 11  6  1  0  0  0
 19 21  1  0  0  0
 19 22  1  0  0  0
 28 30  1  0  0  0
M  END
> <minimizedAffinity>
-8.80145

> <CNNscore>
0.3308666945

> <CNNaffinity>
6.3444366455

> <CNN_VS>
2.0991628170

> <CNNaffinity_variance>
0.3897050321

$$$$
[H]OC(=O)C(Oc1c([H])c2c([H])c([H])c([H])c([H])c2c2c1c(C(=O)C(=O)N([H])[H])c(C([H])([H])C([H])([H])[H])n2C([H])([H])c1c([H])c([H])c([H])c([H])c1[H])(C([H])([H])[H])C([H])([H])[H]


 37 40  0  0  0  0  0  0  0  0999 V2000
  -18.0999   16.2309  -19.5274 C   0  0  0  0  0  0  0  0  0  0  0  0
  -18.2385   14.8707  -19.3483 C   0  0  0  0  0  0  0  0  0  0  0  0
  -17.6334   14.2472  -20.4027 C   0  0  0  0  0  0  0  0  0  0  0  0
  -17.5159   12.9003  -20.7659 C   0  0  0  0  0  0  0  0  0  0  0  0
  -16.9111   12.5949  -21.9365 C   0  0  0  0  0  0  0  0  0  0  0  0
  -16.4196   13.6139  -22.7429 C   0  0  0  0  0  0  0  0  0  0  0  0
  -15.8066   13.2819  -23.9434 C   0  0  0  0  0  0  0  0  0  0  0  0
  -15.3033   14.2378  -24.7912 C   0  0  0  0  0  0  0  0  0  0  0  0
  -15.4174   15.5443  -24.4282 C   0  0  0  0  0  0  0  0  0  0  0  0
  -16.0335   15.9396  -23.2146 C   0  0  0  0  0  0  0  0  0  0  0  0
  -16.5195   14.9598  -22.4022 C   0  0  0  0  0  0  0  0  0  0  0  0
  -17.1388   15.2836  -21.2083 C   0  0  0  0  0  0  0  0  0  0  0  0
  -17.4172   16.4888  -20.6785 N   0  0  0  0  0  0  0  0  0  0  0  0
  -20.0985   17.6363  -18.9310 C   0  0  0  0  0  0  0  0  0  0  0  0
  -18.7242   17.1595  -18.5371 C   0  0  0  0  0  0  0  0  0  0  0  0
  -18.9997   14.2792  -18.2512 C   0  0  0  0  0  0  0  0  0  0  0  0
  -18.4806   14.0390  -17.1634 O   0  0  0  0  0  0  0  0  0  0  0  0
  -20.4073   13.9845  -18.5022 C   0  0  0  0  0  0  0  0  0  0  0  0
  -21.2030   13.4148  -17.4643 N   0  0  0  0  0  0  0  0  0  0  0  0
  -20.9581   14.2066  -19.5893 O   0  0  0  0  0  0  0  0  0  0  0  0
  -21.5866   13.9733  -16.6698 H   0  0  0  0  0  0  0  0  0  0  0  0
  -21.3987   12.3983  -17.5192 H   0  0  0  0  0  0  0  0  0  0  0  0
  -18.0214   11.9503  -19.8833 O   0  0  0  0  0  0  0  0  0  0  0  0
  -17.3852   10.8588  -19.3375 C   0  0  0  0  0  0  0  0  0  0  0  0
  -16.2144   11.4359  -18.4683 C   0  0  0  0  0  0  0  0  0  0  0  0
  -16.8940    9.7569  -20.1528 C   0  0  0  0  0  0  0  0  0  0  0  0
  -18.2283   10.2902  -18.1762 C   0  0  0  0  0  0  0  0  0  0  0  0
  -17.8020    9.1634  -17.5463 O   0  0  0  0  0  0  0  0  0  0  0  0
  -19.2924   10.8845  -17.8531 O   0  0  0  0  0  0  0  0  0  0  0  0
  -17.5524    8.2932  -18.0432 H   0  0  0  0  0  0  0  0  0  0  0  0
  -17.1508   17.8367  -21.0485 C   0  0  0  0  0  0  0  0  0  0  0  0
  -18.2024   18.5373  -21.8200 C   0  0  0  0  0  0  0  0  0  0  0  0
  -18.3937   19.8914  -21.6358 C   0  0  0  0  0  0  0  0  0  0  0  0
  -19.4009   20.5733  -22.3299 C   0  0  0  0  0  0  0  0  0  0  0  0
  -20.2066   19.8761  -23.2057 C   0  0  0  0  0  0  0  0  0  0  0  0
  -20.0325   18.5211  -23.4046 C   0  0  0  0  0  0  0  0  0  0  0  0
  -19.0170   17.8952  -22.6887 C   0  0  0  0  0  0  0  0  0  0  0  0
 14 15  1  0  0  0
 15  1  1  0  0  0
  1  2  2  0  0  0
  2 16  1  0  0  0
 16 17  2  0  0  0
 16 18  1  0  0  0
 18 19  1  0  0  0
 18 20  2  0  0  0
  2  3  1  0  0  0
  3  4  2  0  0  0
  4 23  1  0  0  0
 23 24  1  0  0  0
 24 25  1  0  0  0
 24 26  1  0  0  0
 24 27  1  0  0  0
 27 28  1  0  0  0
 27 29  2  0  0  0
  4  5  1  0  0  0
  5  6  2  0  0  0
  6  7  1  0  0  0
  7  8  2  0  0  0
  8  9  1  0  0  0
  9 10  2  0  0  0
 10 11  1  0  0  0
 11 12  2  0  0  0
 12 13  1  0  0  0
 13 31  1  0  0  0
 31 32  1  0  0  0
 32 33  2  0  0  0
 33 34  1  0  0  0
 34 35  2  0  0  0
 35 36  1  0  0  0
 36 37  2  0  0  0
 13  1  1  0  0  0
 37 32  1  0  0  0
 12  3  1  0  0  0
 11  6  1  0  0  0
 19 21  1  0  0  0
 19 22  1  0  0  0
 28 30  1  0  0  0
M  END
> <minimizedAffinity>
-8.54094

> <CNNscore>
0.3239849508

> <CNNaffinity>
6.4496107101

> <CNN_VS>
2.0895767212

> <CNNaffinity_variance>
0.2317413390

$$$$
[H]OC(=O)C(Oc1c([H])c2c([H])c([H])c([H])c([H])c2c2c1c(C(=O)C(=O)N([H])[H])c(C([H])([H])C([H])([H])[H])n2C([H])([H])c1c([H])c([H])c([H])c([H])c1[H])(C([H])([H])[H])C([H])([H])[H]


 37 40  0  0  0  0  0  0  0  0999 V2000
  -18.4005   15.9894  -22.6512 C   0  0  0  0  0  0  0  0  0  0  0  0
  -18.6265   16.4286  -21.3638 C   0  0  0  0  0  0  0  0  0  0  0  0
  -18.3694   15.3880  -20.5168 C   0  0  0  0  0  0  0  0  0  0  0  0
  -18.4826   15.2467  -19.1286 C   0  0  0  0  0  0  0  0  0  0  0  0
  -18.2226   14.0397  -18.5764 C   0  0  0  0  0  0  0  0  0  0  0  0
  -17.8475   12.9779  -19.3899 C   0  0  0  0  0  0  0  0  0  0  0  0
  -17.5897   11.7449  -18.8063 C   0  0  0  0  0  0  0  0  0  0  0  0
  -17.2199   10.6516  -19.5504 C   0  0  0  0  0  0  0  0  0  0  0  0
  -17.1075   10.7989  -20.8986 C   0  0  0  0  0  0  0  0  0  0  0  0
  -17.3586   12.0341  -21.5465 C   0  0  0  0  0  0  0  0  0  0  0  0
  -17.7230   13.0937  -20.7715 C   0  0  0  0  0  0  0  0  0  0  0  0
  -17.9893   14.3232  -21.3471 C   0  0  0  0  0  0  0  0  0  0  0  0
  -18.0039   14.6855  -22.6429 N   0  0  0  0  0  0  0  0  0  0  0  0
  -17.4789   17.7788  -24.1592 C   0  0  0  0  0  0  0  0  0  0  0  0
  -18.6613   16.9202  -23.7907 C   0  0  0  0  0  0  0  0  0  0  0  0
  -19.1460   17.7567  -21.0486 C   0  0  0  0  0  0  0  0  0  0  0  0
  -20.3532   17.9852  -21.0179 O   0  0  0  0  0  0  0  0  0  0  0  0
  -18.1677   18.8041  -20.7710 C   0  0  0  0  0  0  0  0  0  0  0  0
  -17.2208   18.6220  -19.7198 N   0  0  0  0  0  0  0  0  0  0  0  0
  -18.1152   19.8630  -21.4116 O   0  0  0  0  0  0  0  0  0  0  0  0
  -16.3714   18.0223  -19.8166 H   0  0  0  0  0  0  0  0  0  0  0  0
  -17.4015   19.1161  -18.8266 H   0  0  0  0  0  0  0  0  0  0  0  0
  -18.8453   16.3728  -18.3955 O   0  0  0  0  0  0  0  0  0  0  0  0
  -20.0361   16.6376  -17.7585 C   0  0  0  0  0  0  0  0  0  0  0  0
  -19.8255   16.2139  -16.2634 C   0  0  0  0  0  0  0  0  0  0  0  0
  -21.3082   16.1189  -18.2410 C   0  0  0  0  0  0  0  0  0  0  0  0
  -20.1706   18.1558  -17.5139 C   0  0  0  0  0  0  0  0  0  0  0  0
  -19.0479   18.8836  -17.2726 O   0  0  0  0  0  0  0  0  0  0  0  0
  -21.3203   18.6731  -17.5368 O   0  0  0  0  0  0  0  0  0  0  0  0
  -18.3534   18.6359  -16.5496 H   0  0  0  0  0  0  0  0  0  0  0  0
  -17.7036   14.0362  -23.8729 C   0  0  0  0  0  0  0  0  0  0  0  0
  -16.4338   14.4131  -24.5341 C   0  0  0  0  0  0  0  0  0  0  0  0
  -15.2594   14.4006  -23.8098 C   0  0  0  0  0  0  0  0  0  0  0  0
  -14.0488   14.7816  -24.4019 C   0  0  0  0  0  0  0  0  0  0  0  0
  -14.0389   15.1725  -25.7246 C   0  0  0  0  0  0  0  0  0  0  0  0
  -15.2025   15.1926  -26.4672 C   0  0  0  0  0  0  0  0  0  0  0  0
  -16.3755   14.8044  -25.8280 C   0  0  0  0  0  0  0  0  0  0  0  0
 14 15  1  0  0  0
 15  1  1  0  0  0
  1  2  2  0  0  0
  2 16  1  0  0  0
 16 17  2  0  0  0
 16 18  1  0  0  0
 18 19  1  0  0  0
 18 20  2  0  0  0
  2  3  1  0  0  0
  3  4  2  0  0  0
  4 23  1  0  0  0
 23 24  1  0  0  0
 24 25  1  0  0  0
 24 26  1  0  0  0
 24 27  1  0  0  0
 27 28  1  0  0  0
 27 29  2  0  0  0
  4  5  1  0  0  0
  5  6  2  0  0  0
  6  7  1  0  0  0
  7  8  2  0  0  0
  8  9  1  0  0  0
  9 10  2  0  0  0
 10 11  1  0  0  0
 11 12  2  0  0  0
 12 13  1  0  0  0
 13 31  1  0  0  0
 31 32  1  0  0  0
 32 33  2  0  0  0
 33 34  1  0  0  0
 34 35  2  0  0  0
 35 36  1  0  0  0
 36 37  2  0  0  0
 13  1  1  0  0  0
 37 32  1  0  0  0
 12  3  1  0  0  0
 11  6  1  0  0  0
 19 21  1  0  0  0
 19 22  1  0  0  0
 28 30  1  0  0  0
M  END
> <minimizedAffinity>
-9.15151

> <CNNscore>
0.3099785745

> <CNNaffinity>
6.1464195251

> <CNN_VS>
1.9052584171

> <CNNaffinity_variance>
0.7762135267

$$$$
[H]OC(=O)C(Oc1c([H])c2c([H])c([H])c([H])c([H])c2c2c1c(C(=O)C(=O)N([H])[H])c(C([H])([H])C([H])([H])[H])n2C([H])([H])c1c([H])c([H])c([H])c([H])c1[H])(C([H])([H])[H])C([H])([H])[H]


 37 40  0  0  0  0  0  0  0  0999 V2000
  -17.9928   16.3707  -19.7891 C   0  0  0  0  0  0  0  0  0  0  0  0
  -17.7165   16.1770  -21.1261 C   0  0  0  0  0  0  0  0  0  0  0  0
  -17.5599   14.8352  -21.3297 C   0  0  0  0  0  0  0  0  0  0  0  0
  -17.2192   14.0822  -22.4597 C   0  0  0  0  0  0  0  0  0  0  0  0
  -17.0614   12.7457  -22.3247 C   0  0  0  0  0  0  0  0  0  0  0  0
  -17.2441   12.1539  -21.0812 C   0  0  0  0  0  0  0  0  0  0  0  0
  -17.0727   10.7816  -20.9604 C   0  0  0  0  0  0  0  0  0  0  0  0
  -17.2320   10.1319  -19.7610 C   0  0  0  0  0  0  0  0  0  0  0  0
  -17.5679   10.8707  -18.6687 C   0  0  0  0  0  0  0  0  0  0  0  0
  -17.7553   12.2740  -18.7349 C   0  0  0  0  0  0  0  0  0  0  0  0
  -17.5877   12.8793  -19.9439 C   0  0  0  0  0  0  0  0  0  0  0  0
  -17.7488   14.2475  -20.0701 C   0  0  0  0  0  0  0  0  0  0  0  0
  -18.0150   15.1761  -19.1333 N   0  0  0  0  0  0  0  0  0  0  0  0
  -19.5817   18.2562  -19.2940 C   0  0  0  0  0  0  0  0  0  0  0  0
  -18.1571   17.7650  -19.2776 C   0  0  0  0  0  0  0  0  0  0  0  0
  -17.5387   17.2724  -22.0756 C   0  0  0  0  0  0  0  0  0  0  0  0
  -16.4436   17.8029  -22.2487 O   0  0  0  0  0  0  0  0  0  0  0  0
  -18.7200   17.7117  -22.8121 C   0  0  0  0  0  0  0  0  0  0  0  0
  -19.3241   16.8347  -23.7612 N   0  0  0  0  0  0  0  0  0  0  0  0
  -19.2355   18.8269  -22.6542 O   0  0  0  0  0  0  0  0  0  0  0  0
  -19.9402   16.0373  -23.4875 H   0  0  0  0  0  0  0  0  0  0  0  0
  -19.1308   17.0136  -24.7638 H   0  0  0  0  0  0  0  0  0  0  0  0
  -17.0771   14.7619  -23.6659 O   0  0  0  0  0  0  0  0  0  0  0  0
  -16.0069   14.7640  -24.5310 C   0  0  0  0  0  0  0  0  0  0  0  0
  -16.4692   13.9451  -25.7861 C   0  0  0  0  0  0  0  0  0  0  0  0
  -14.6776   14.3304  -24.1248 C   0  0  0  0  0  0  0  0  0  0  0  0
  -15.8990   16.1390  -25.2242 C   0  0  0  0  0  0  0  0  0  0  0  0
  -14.6656   16.6605  -25.4588 O   0  0  0  0  0  0  0  0  0  0  0  0
  -16.9599   16.7406  -25.5441 O   0  0  0  0  0  0  0  0  0  0  0  0
  -13.9408   16.7583  -24.7297 H   0  0  0  0  0  0  0  0  0  0  0  0
  -18.2968   15.1470  -17.7389 C   0  0  0  0  0  0  0  0  0  0  0  0
  -19.6962   15.4122  -17.3350 C   0  0  0  0  0  0  0  0  0  0  0  0
  -19.9510   16.2761  -16.2897 C   0  0  0  0  0  0  0  0  0  0  0  0
  -21.2633   16.5217  -15.8672 C   0  0  0  0  0  0  0  0  0  0  0  0
  -22.3076   15.8888  -16.5086 C   0  0  0  0  0  0  0  0  0  0  0  0
  -22.0749   15.0205  -17.5563 C   0  0  0  0  0  0  0  0  0  0  0  0
  -20.7519   14.8139  -17.9336 C   0  0  0  0  0  0  0  0  0  0  0  0
 14 15  1  0  0  0
 15  1  1  0  0  0
  1  2  2  0  0  0
  2 16  1  0  0  0
 16 17  2  0  0  0
 16 18  1  0  0  0
 18 19  1  0  0  0
 18 20  2  0  0  0
  2  3  1  0  0  0
  3  4  2  0  0  0
  4 23  1  0  0  0
 23 24  1  0  0  0
 24 25  1  0  0  0
 24 26  1  0  0  0
 24 27  1  0  0  0
 27 28  1  0  0  0
 27 29  2  0  0  0
  4  5  1  0  0  0
  5  6  2  0  0  0
  6  7  1  0  0  0
  7  8  2  0  0  0
  8  9  1  0  0  0
  9 10  2  0  0  0
 10 11  1  0  0  0
 11 12  2  0  0  0
 12 13  1  0  0  0
 13 31  1  0  0  0
 31 32  1  0  0  0
 32 33  2  0  0  0
 33 34  1  0  0  0
 34 35  2  0  0  0
 35 36  1  0  0  0
 36 37  2  0  0  0
 13  1  1  0  0  0
 37 32  1  0  0  0
 12  3  1  0  0  0
 11  6  1  0  0  0
 19 21  1  0  0  0
 19 22  1  0  0  0
 28 30  1  0  0  0
M  END
> <minimizedAffinity>
-8.41694

> <CNNscore>
0.3039741218

> <CNNaffinity>
6.5296654701

> <CNN_VS>
1.9848493338

> <CNNaffinity_variance>
0.2108893394

$$$$
[H]OC(=O)C(Oc1c([H])c2c([H])c([H])c([H])c([H])c2c2c1c(C(=O)C(=O)N([H])[H])c(C([H])([H])C([H])([H])[H])n2C([H])([H])c1c([H])c([H])c([H])c([H])c1[H])(C([H])([H])[H])C([H])([H])[H]


 37 40  0  0  0  0  0  0  0  0999 V2000
  -17.8833   12.2540  -21.4506 C   0  0  0  0  0  0  0  0  0  0  0  0
  -18.3043   12.7376  -20.2298 C   0  0  0  0  0  0  0  0  0  0  0  0
  -18.4933   14.0847  -20.3574 C   0  0  0  0  0  0  0  0  0  0  0  0
  -18.8569   15.0807  -19.4433 C   0  0  0  0  0  0  0  0  0  0  0  0
  -18.8851   16.3663  -19.8625 C   0  0  0  0  0  0  0  0  0  0  0  0
  -18.5610   16.6674  -21.1795 C   0  0  0  0  0  0  0  0  0  0  0  0
  -18.5903   17.9930  -21.5907 C   0  0  0  0  0  0  0  0  0  0  0  0
  -18.2766   18.3627  -22.8755 C   0  0  0  0  0  0  0  0  0  0  0  0
  -17.9289   17.3877  -23.7589 C   0  0  0  0  0  0  0  0  0  0  0  0
  -17.8827   16.0192  -23.3932 C   0  0  0  0  0  0  0  0  0  0  0  0
  -18.2013   15.6954  -22.1087 C   0  0  0  0  0  0  0  0  0  0  0  0
  -18.1664   14.3774  -21.6898 C   0  0  0  0  0  0  0  0  0  0  0  0
  -17.7989   13.2682  -22.3571 N   0  0  0  0  0  0  0  0  0  0  0  0
  -16.0675   10.5195  -21.5904 C   0  0  0  0  0  0  0  0  0  0  0  0
  -17.5475   10.8036  -21.5787 C   0  0  0  0  0  0  0  0  0  0  0  0
  -18.4086   11.9096  -19.0313 C   0  0  0  0  0  0  0  0  0  0  0  0
  -19.4768   11.7621  -18.4417 O   0  0  0  0  0  0  0  0  0  0  0  0
  -17.1868   11.2630  -18.5621 C   0  0  0  0  0  0  0  0  0  0  0  0
  -17.2141    9.8825  -18.2038 N   0  0  0  0  0  0  0  0  0  0  0  0
  -16.1070   11.8606  -18.4560 O   0  0  0  0  0  0  0  0  0  0  0  0
  -17.2076    9.1116  -18.9082 H   0  0  0  0  0  0  0  0  0  0  0  0
  -17.2413    9.6543  -17.1930 H   0  0  0  0  0  0  0  0  0  0  0  0
  -19.1836   14.6791  -18.1515 O   0  0  0  0  0  0  0  0  0  0  0  0
  -20.2712   15.0378  -17.3884 C   0  0  0  0  0  0  0  0  0  0  0  0
  -21.5312   14.7501  -18.2765 C   0  0  0  0  0  0  0  0  0  0  0  0
  -20.3920   16.3538  -16.7768 C   0  0  0  0  0  0  0  0  0  0  0  0
  -20.5365   13.9579  -16.3178 C   0  0  0  0  0  0  0  0  0  0  0  0
  -19.5022   13.1816  -15.8985 O   0  0  0  0  0  0  0  0  0  0  0  0
  -21.7079   13.8234  -15.8710 O   0  0  0  0  0  0  0  0  0  0  0  0
  -18.8826   12.6628  -16.5415 H   0  0  0  0  0  0  0  0  0  0  0  0
  -17.3938   12.9841  -23.6912 C   0  0  0  0  0  0  0  0  0  0  0  0
  -16.2064   13.7093  -24.1970 C   0  0  0  0  0  0  0  0  0  0  0  0
  -16.2230   14.2370  -25.4719 C   0  0  0  0  0  0  0  0  0  0  0  0
  -15.1028   14.9013  -25.9867 C   0  0  0  0  0  0  0  0  0  0  0  0
  -13.9739   15.0252  -25.2039 C   0  0  0  0  0  0  0  0  0  0  0  0
  -13.9359   14.5043  -23.9260 C   0  0  0  0  0  0  0  0  0  0  0  0
  -15.0770   13.8546  -23.4663 C   0  0  0  0  0  0  0  0  0  0  0  0
 14 15  1  0  0  0
 15  1  1  0  0  0
  1  2  2  0  0  0
  2 16  1  0  0  0
 16 17  2  0  0  0
 16 18  1  0  0  0
 18 19  1  0  0  0
 18 20  2  0  0  0
  2  3  1  0  0  0
  3  4  2  0  0  0
  4 23  1  0  0  0
 23 24  1  0  0  0
 24 25  1  0  0  0
 24 26  1  0  0  0
 24 27  1  0  0  0
 27 28  1  0  0  0
 27 29  2  0  0  0
  4  5  1  0  0  0
  5  6  2  0  0  0
  6  7  1  0  0  0
  7  8  2  0  0  0
  8  9  1  0  0  0
  9 10  2  0  0  0
 10 11  1  0  0  0
 11 12  2  0  0  0
 12 13  1  0  0  0
 13 31  1  0  0  0
 31 32  1  0  0  0
 32 33  2  0  0  0
 33 34  1  0  0  0
 34 35  2  0  0  0
 35 36  1  0  0  0
 36 37  2  0  0  0
 13  1  1  0  0  0
 37 32  1  0  0  0
 12  3  1  0  0  0
 11  6  1  0  0  0
 19 21  1  0  0  0
 19 22  1  0  0  0
 28 30  1  0  0  0
M  END
> <minimizedAffinity>
-7.84023

> <CNNscore>
0.3016999662

> <CNNaffinity>
6.5680060387

> <CNN_VS>
1.9815671444

> <CNNaffinity_variance>
0.1830684692

$$$$
[H]OC(=O)C(Oc1c([H])c2c([H])c([H])c([H])c([H])c2c2c1c(C(=O)C(=O)N([H])[H])c(C([H])([H])C([H])([H])[H])n2C([H])([H])c1c([H])c([H])c([H])c([H])c1[H])(C([H])([H])[H])C([H])([H])[H]


 37 40  0  0  0  0  0  0  0  0999 V2000
  -17.9010   15.5312  -21.8390 C   0  0  0  0  0  0  0  0  0  0  0  0
  -18.7740   15.2882  -20.7996 C   0  0  0  0  0  0  0  0  0  0  0  0
  -18.5146   14.0351  -20.3212 C   0  0  0  0  0  0  0  0  0  0  0  0
  -19.1180   13.2579  -19.3254 C   0  0  0  0  0  0  0  0  0  0  0  0
  -18.6750   11.9948  -19.1313 C   0  0  0  0  0  0  0  0  0  0  0  0
  -17.6374   11.5024  -19.9129 C   0  0  0  0  0  0  0  0  0  0  0  0
  -17.1993   10.2018  -19.7032 C   0  0  0  0  0  0  0  0  0  0  0  0
  -16.1826    9.6492  -20.4425 C   0  0  0  0  0  0  0  0  0  0  0  0
  -15.5982   10.4132  -21.4052 C   0  0  0  0  0  0  0  0  0  0  0  0
  -16.0055   11.7463  -21.6616 C   0  0  0  0  0  0  0  0  0  0  0  0
  -17.0177   12.2562  -20.9056 C   0  0  0  0  0  0  0  0  0  0  0  0
  -17.4649   13.5485  -21.1144 C   0  0  0  0  0  0  0  0  0  0  0  0
  -17.0878   14.4551  -22.0345 N   0  0  0  0  0  0  0  0  0  0  0  0
  -18.9088   16.7583  -23.7893 C   0  0  0  0  0  0  0  0  0  0  0  0
  -18.0044   16.8215  -22.5855 C   0  0  0  0  0  0  0  0  0  0  0  0
  -19.8296   16.2169  -20.4045 C   0  0  0  0  0  0  0  0  0  0  0  0
  -20.9544   16.1601  -20.8966 O   0  0  0  0  0  0  0  0  0  0  0  0
  -19.4912   17.2182  -19.3977 C   0  0  0  0  0  0  0  0  0  0  0  0
  -20.5119   18.0714  -18.8826 N   0  0  0  0  0  0  0  0  0  0  0  0
  -18.3429   17.3698  -18.9584 O   0  0  0  0  0  0  0  0  0  0  0  0
  -21.2051   17.7609  -18.1661 H   0  0  0  0  0  0  0  0  0  0  0  0
  -20.5507   19.0405  -19.2487 H   0  0  0  0  0  0  0  0  0  0  0  0
  -20.1366   13.8453  -18.5807 O   0  0  0  0  0  0  0  0  0  0  0  0
  -20.2355   13.9802  -17.2148 C   0  0  0  0  0  0  0  0  0  0  0  0
  -18.8813   14.6190  -16.7483 C   0  0  0  0  0  0  0  0  0  0  0  0
  -20.5758   12.8626  -16.3456 C   0  0  0  0  0  0  0  0  0  0  0  0
  -21.1449   15.1797  -16.8733 C   0  0  0  0  0  0  0  0  0  0  0  0
  -20.9506   15.8372  -15.6993 O   0  0  0  0  0  0  0  0  0  0  0  0
  -22.0469   15.5077  -17.6911 O   0  0  0  0  0  0  0  0  0  0  0  0
  -20.9082   15.3643  -14.7822 H   0  0  0  0  0  0  0  0  0  0  0  0
  -16.0978   14.5009  -23.0555 C   0  0  0  0  0  0  0  0  0  0  0  0
  -16.5149   14.0709  -24.4094 C   0  0  0  0  0  0  0  0  0  0  0  0
  -16.1610   14.8320  -25.5045 C   0  0  0  0  0  0  0  0  0  0  0  0
  -16.5677   14.4650  -26.7934 C   0  0  0  0  0  0  0  0  0  0  0  0
  -17.3307   13.3283  -26.9613 C   0  0  0  0  0  0  0  0  0  0  0  0
  -17.6962   12.5528  -25.8793 C   0  0  0  0  0  0  0  0  0  0  0  0
  -17.2644   12.9648  -24.6226 C   0  0  0  0  0  0  0  0  0  0  0  0
 14 15  1  0  0  0
 15  1  1  0  0  0
  1  2  2  0  0  0
  2 16  1  0  0  0
 16 17  2  0  0  0
 16 18  1  0  0  0
 18 19  1  0  0  0
 18 20  2  0  0  0
  2  3  1  0  0  0
  3  4  2  0  0  0
  4 23  1  0  0  0
 23 24  1  0  0  0
 24 25  1  0  0  0
 24 26  1  0  0  0
 24 27  1  0  0  0
 27 28  1  0  0  0
 27 29  2  0  0  0
  4  5  1  0  0  0
  5  6  2  0  0  0
  6  7  1  0  0  0
  7  8  2  0  0  0
  8  9  1  0  0  0
  9 10  2  0  0  0
 10 11  1  0  0  0
 11 12  2  0  0  0
 12 13  1  0  0  0
 13 31  1  0  0  0
 31 32  1  0  0  0
 32 33  2  0  0  0
 33 34  1  0  0  0
 34 35  2  0  0  0
 35 36  1  0  0  0
 36 37  2  0  0  0
 13  1  1  0  0  0
 37 32  1  0  0  0
 12  3  1  0  0  0
 11  6  1  0  0  0
 19 21  1  0  0  0
 19 22  1  0  0  0
 28 30  1  0  0  0
M  END
> <minimizedAffinity>
-8.72636

> <CNNscore>
0.2592904866

> <CNNaffinity>
6.3741612434

> <CNN_VS>
1.6527593136

> <CNNaffinity_variance>
0.2693884969

$$$$
[H]OC(=O)C(Oc1c([H])c2c([H])c([H])c([H])c([H])c2c2c1c(C(=O)C(=O)N([H])[H])c(C([H])([H])C([H])([H])[H])n2C([H])([H])c1c([H])c([H])c([H])c([H])c1[H])(C([H])([H])[H])C([H])([H])[H]


 37 40  0  0  0  0  0  0  0  0999 V2000
  -17.6229   13.4247  -20.4481 C   0  0  0  0  0  0  0  0  0  0  0  0
  -18.7250   13.8040  -19.7112 C   0  0  0  0  0  0  0  0  0  0  0  0
  -19.1706   14.9953  -20.2101 C   0  0  0  0  0  0  0  0  0  0  0  0
  -20.2035   15.8572  -19.8228 C   0  0  0  0  0  0  0  0  0  0  0  0
  -20.3513   17.0292  -20.4815 C   0  0  0  0  0  0  0  0  0  0  0  0
  -19.4868   17.3470  -21.5216 C   0  0  0  0  0  0  0  0  0  0  0  0
  -19.6502   18.5566  -22.1830 C   0  0  0  0  0  0  0  0  0  0  0  0
  -18.8290   18.9371  -23.2158 C   0  0  0  0  0  0  0  0  0  0  0  0
  -17.8306   18.0912  -23.5891 C   0  0  0  0  0  0  0  0  0  0  0  0
  -17.6185   16.8446  -22.9491 C   0  0  0  0  0  0  0  0  0  0  0  0
  -18.4556   16.5055  -21.9291 C   0  0  0  0  0  0  0  0  0  0  0  0
  -18.2937   15.3054  -21.2602 C   0  0  0  0  0  0  0  0  0  0  0  0
  -17.3552   14.3528  -21.4096 N   0  0  0  0  0  0  0  0  0  0  0  0
  -17.2606   10.9824  -20.9266 C   0  0  0  0  0  0  0  0  0  0  0  0
  -16.8982   12.1722  -20.0756 C   0  0  0  0  0  0  0  0  0  0  0  0
  -19.2093   13.0605  -18.5513 C   0  0  0  0  0  0  0  0  0  0  0  0
  -19.9221   12.0669  -18.6752 O   0  0  0  0  0  0  0  0  0  0  0  0
  -18.8100   13.5489  -17.2348 C   0  0  0  0  0  0  0  0  0  0  0  0
  -19.4687   13.0530  -16.0707 N   0  0  0  0  0  0  0  0  0  0  0  0
  -17.9128   14.3872  -17.0715 O   0  0  0  0  0  0  0  0  0  0  0  0
  -19.2605   12.1186  -15.6536 H   0  0  0  0  0  0  0  0  0  0  0  0
  -20.1834   13.6630  -15.6330 H   0  0  0  0  0  0  0  0  0  0  0  0
  -21.0304   15.4427  -18.7828 O   0  0  0  0  0  0  0  0  0  0  0  0
  -21.6802   16.2094  -17.8428 C   0  0  0  0  0  0  0  0  0  0  0  0
  -22.2875   15.1974  -16.8102 C   0  0  0  0  0  0  0  0  0  0  0  0
  -22.6830   17.2008  -18.2061 C   0  0  0  0  0  0  0  0  0  0  0  0
  -20.6488   16.8590  -16.8957 C   0  0  0  0  0  0  0  0  0  0  0  0
  -20.1410   16.1210  -15.8731 O   0  0  0  0  0  0  0  0  0  0  0  0
  -20.3153   18.0586  -17.0950 O   0  0  0  0  0  0  0  0  0  0  0  0
  -20.7274   15.6106  -15.1934 H   0  0  0  0  0  0  0  0  0  0  0  0
  -16.2605   14.1487  -22.2955 C   0  0  0  0  0  0  0  0  0  0  0  0
  -16.5912   13.8405  -23.7053 C   0  0  0  0  0  0  0  0  0  0  0  0
  -15.9358   14.5078  -24.7197 C   0  0  0  0  0  0  0  0  0  0  0  0
  -16.2502   14.2579  -26.0613 C   0  0  0  0  0  0  0  0  0  0  0  0
  -17.2274   13.3326  -26.3636 C   0  0  0  0  0  0  0  0  0  0  0  0
  -17.8956   12.6541  -25.3641 C   0  0  0  0  0  0  0  0  0  0  0  0
  -17.5426   12.9422  -24.0496 C   0  0  0  0  0  0  0  0  0  0  0  0
 14 15  1  0  0  0
 15  1  1  0  0  0
  1  2  2  0  0  0
  2 16  1  0  0  0
 16 17  2  0  0  0
 16 18  1  0  0  0
 18 19  1  0  0  0
 18 20  2  0  0  0
  2  3  1  0  0  0
  3  4  2  0  0  0
  4 23  1  0  0  0
 23 24  1  0  0  0
 24 25  1  0  0  0
 24 26  1  0  0  0
 24 27  1  0  0  0
 27 28  1  0  0  0
 27 29  2  0  0  0
  4  5  1  0  0  0
  5  6  2  0  0  0
  6  7  1  0  0  0
  7  8  2  0  0  0
  8  9  1  0  0  0
  9 10  2  0  0  0
 10 11  1  0  0  0
 11 12  2  0  0  0
 12 13  1  0  0  0
 13 31  1  0  0  0
 31 32  1  0  0  0
 32 33  2  0  0  0
 33 34  1  0  0  0
 34 35  2  0  0  0
 35 36  1  0  0  0
 36 37  2  0  0  0
 13  1  1  0  0  0
 37 32  1  0  0  0
 12  3  1  0  0  0
 11  6  1  0  0  0
 19 21  1  0  0  0
 19 22  1  0  0  0
 28 30  1  0  0  0
M  END
> <minimizedAffinity>
-7.65060

> <CNNscore>
0.2326650023

> <CNNaffinity>
6.2702150345

> <CNN_VS>
1.4588595629

> <CNNaffinity_variance>
0.2369654179

$$$$
[H]OC(=O)C(Oc1c([H])c2c([H])c([H])c([H])c([H])c2c2c1c(C(=O)C(=O)N([H])[H])c(C([H])([H])C([H])([H])[H])n2C([H])([H])c1c([H])c([H])c([H])c([H])c1[H])(C([H])([H])[H])C([H])([H])[H]


 37 40  0  0  0  0  0  0  0  0999 V2000
  -18.4673   15.6066  -22.6960 C   0  0  0  0  0  0  0  0  0  0  0  0
  -18.8138   16.0330  -21.4312 C   0  0  0  0  0  0  0  0  0  0  0  0
  -18.5247   15.0237  -20.5569 C   0  0  0  0  0  0  0  0  0  0  0  0
  -18.7160   14.8821  -19.1773 C   0  0  0  0  0  0  0  0  0  0  0  0
  -18.3906   13.7054  -18.5951 C   0  0  0  0  0  0  0  0  0  0  0  0
  -17.8737   12.6747  -19.3700 C   0  0  0  0  0  0  0  0  0  0  0  0
  -17.5503   11.4722  -18.7562 C   0  0  0  0  0  0  0  0  0  0  0  0
  -17.0406   10.4100  -19.4617 C   0  0  0  0  0  0  0  0  0  0  0  0
  -16.8532   10.5578  -20.8014 C   0  0  0  0  0  0  0  0  0  0  0  0
  -17.1658   11.7627  -21.4790 C   0  0  0  0  0  0  0  0  0  0  0  0
  -17.6694   12.7920  -20.7419 C   0  0  0  0  0  0  0  0  0  0  0  0
  -18.0015   13.9903  -21.3481 C   0  0  0  0  0  0  0  0  0  0  0  0
  -17.9621   14.3418  -22.6464 N   0  0  0  0  0  0  0  0  0  0  0  0
  -17.6845   17.5700  -24.0589 C   0  0  0  0  0  0  0  0  0  0  0  0
  -18.7315   16.5043  -23.8610 C   0  0  0  0  0  0  0  0  0  0  0  0
  -19.4643   17.3134  -21.1662 C   0  0  0  0  0  0  0  0  0  0  0  0
  -18.8363   18.2771  -20.7330 O   0  0  0  0  0  0  0  0  0  0  0  0
  -20.8959   17.4003  -21.4382 C   0  0  0  0  0  0  0  0  0  0  0  0
  -21.3918   18.4470  -22.2709 N   0  0  0  0  0  0  0  0  0  0  0  0
  -21.7189   16.5986  -20.9754 O   0  0  0  0  0  0  0  0  0  0  0  0
  -21.3178   18.4291  -23.3124 H   0  0  0  0  0  0  0  0  0  0  0  0
  -21.8431   19.2539  -21.8020 H   0  0  0  0  0  0  0  0  0  0  0  0
  -19.2208   15.9774  -18.4828 O   0  0  0  0  0  0  0  0  0  0  0  0
  -20.1520   15.9988  -17.4697 C   0  0  0  0  0  0  0  0  0  0  0  0
  -21.0803   17.2272  -17.7671 C   0  0  0  0  0  0  0  0  0  0  0  0
  -19.7721   15.9998  -16.0640 C   0  0  0  0  0  0  0  0  0  0  0  0
  -21.2060   14.8961  -17.7064 C   0  0  0  0  0  0  0  0  0  0  0  0
  -21.9145   14.9039  -18.8667 O   0  0  0  0  0  0  0  0  0  0  0  0
  -21.3835   14.0261  -16.8111 O   0  0  0  0  0  0  0  0  0  0  0  0
  -22.4235   15.7311  -19.2174 H   0  0  0  0  0  0  0  0  0  0  0  0
  -17.5276   13.7129  -23.8466 C   0  0  0  0  0  0  0  0  0  0  0  0
  -16.2886   14.2374  -24.4642 C   0  0  0  0  0  0  0  0  0  0  0  0
  -16.3048   14.6451  -25.7823 C   0  0  0  0  0  0  0  0  0  0  0  0
  -15.1401   15.1168  -26.4005 C   0  0  0  0  0  0  0  0  0  0  0  0
  -13.9674   15.1714  -25.6764 C   0  0  0  0  0  0  0  0  0  0  0  0
  -13.9290   14.7681  -24.3566 C   0  0  0  0  0  0  0  0  0  0  0  0
  -15.1153   14.3083  -23.7939 C   0  0  0  0  0  0  0  0  0  0  0  0
 14 15  1  0  0  0
 15  1  1  0  0  0
  1  2  2  0  0  0
  2 16  1  0  0  0
 16 17  2  0  0  0
 16 18  1  0  0  0
 18 19  1  0  0  0
 18 20  2  0  0  0
  2  3  1  0  0  0
  3  4  2  0  0  0
  4 23  1  0  0  0
 23 24  1  0  0  0
 24 25  1  0  0  0
 24 26  1  0  0  0
 24 27  1  0  0  0
 27 28  1  0  0  0
 27 29  2  0  0  0
  4  5  1  0  0  0
  5  6  2  0  0  0
  6  7  1  0  0  0
  7  8  2  0  0  0
  8  9  1  0  0  0
  9 10  2  0  0  0
 10 11  1  0  0  0
 11 12  2  0  0  0
 12 13  1  0  0  0
 13 31  1  0  0  0
 31 32  1  0  0  0
 32 33  2  0  0  0
 33 34  1  0  0  0
 34 35  2  0  0  0
 35 36  1  0  0  0
 36 37  2  0  0  0
 13  1  1  0  0  0
 37 32  1  0  0  0
 12  3  1  0  0  0
 11  6  1  0  0  0
 19 21  1  0  0  0
 19 22  1  0  0  0
 28 30  1  0  0  0
M  END
> <minimizedAffinity>
-8.67892

> <CNNscore>
0.2185046375

> <CNNaffinity>
5.9649262428

> <CNN_VS>
1.3033640385

> <CNNaffinity_variance>
0.6743039489

$$$$
[H]OC(=O)C([H])([H])C([H])([H])C1([H])C([H])([H])C([H])([H])N(c2c([H])c([H])c(-c3sc(C(=O)N4C([H])([H])C([H])([H])OC([H])([H])C4([H])[H])nc3[H])c([H])c2[H])C([H])([H])C1([H])[H]


 31 34  0  0  0  0  0  0  0  0999 V2000
  -19.5334   10.1455  -16.4787 C   0  0  0  0  0  0  0  0  0  0  0  0
  -18.5706    9.5523  -17.2876 C   0  0  0  0  0  0  0  0  0  0  0  0
  -18.0531   10.2044  -18.3942 C   0  0  0  0  0  0  0  0  0  0  0  0
  -18.4893   11.4679  -18.7159 C   0  0  0  0  0  0  0  0  0  0  0  0
  -19.4278   12.0705  -17.9454 C   0  0  0  0  0  0  0  0  0  0  0  0
  -19.9476   11.4067  -16.8274 C   0  0  0  0  0  0  0  0  0  0  0  0
  -21.8000    7.6184  -14.0327 C   0  0  0  0  0  0  0  0  0  0  0  0
  -22.1696    8.9961  -14.3984 C   0  0  0  0  0  0  0  0  0  0  0  0
  -20.9894    9.9529  -14.4093 C   0  0  0  0  0  0  0  0  0  0  0  0
  -20.0270    9.4358  -15.3604 N   0  0  0  0  0  0  0  0  0  0  0  0
  -19.5644    8.0808  -15.1091 C   0  0  0  0  0  0  0  0  0  0  0  0
  -20.2912    7.3974  -14.0023 C   0  0  0  0  0  0  0  0  0  0  0  0
  -22.4387    7.0459  -12.8436 C   0  0  0  0  0  0  0  0  0  0  0  0
  -23.4016    7.8063  -12.0421 C   0  0  0  0  0  0  0  0  0  0  0  0
  -25.4100    6.2807  -12.0027 O   0  0  0  0  0  0  0  0  0  0  0  0
  -24.8308    7.5536  -12.1792 C   0  0  0  0  0  0  0  0  0  0  0  0
  -25.6832    8.4532  -12.4732 O   0  0  0  0  0  0  0  0  0  0  0  0
  -26.0827    6.1364  -11.2627 H   0  0  0  0  0  0  0  0  0  0  0  0
  -17.9545   12.1916  -19.8729 C   0  0  0  0  0  0  0  0  0  0  0  0
  -17.7617   13.5384  -20.0286 C   0  0  0  0  0  0  0  0  0  0  0  0
  -17.2686   13.9517  -21.1499 N   0  0  0  0  0  0  0  0  0  0  0  0
  -16.9638   13.1139  -22.1047 C   0  0  0  0  0  0  0  0  0  0  0  0
  -17.3991   11.5979  -21.3899 S   0  0  0  0  0  0  0  0  0  0  0  0
  -16.4056   13.3760  -23.4233 C   0  0  0  0  0  0  0  0  0  0  0  0
  -15.5135   12.5255  -23.8417 O   0  0  0  0  0  0  0  0  0  0  0  0
  -16.6939   14.4099  -24.2996 N   0  0  0  0  0  0  0  0  0  0  0  0
  -17.6321   15.4690  -24.0713 C   0  0  0  0  0  0  0  0  0  0  0  0
  -16.9657   16.7817  -24.4944 C   0  0  0  0  0  0  0  0  0  0  0  0
  -16.7166   16.7210  -25.8405 O   0  0  0  0  0  0  0  0  0  0  0  0
  -15.6275   15.8460  -26.0100 C   0  0  0  0  0  0  0  0  0  0  0  0
  -15.9983   14.4446  -25.5973 C   0  0  0  0  0  0  0  0  0  0  0  0
 15 16  1  0  0  0
 16 17  2  0  0  0
 16 14  1  0  0  0
 14 13  1  0  0  0
 13  7  1  0  0  0
  7  8  1  0  0  0
  8  9  1  0  0  0
  9 10  1  0  0  0
 10 11  1  0  0  0
 11 12  1  0  0  0
 10  1  1  0  0  0
  1  2  2  0  0  0
  2  3  1  0  0  0
  3  4  2  0  0  0
  4  5  1  0  0  0
  5  6  2  0  0  0
  4 19  1  0  0  0
 19 20  2  0  0  0
 20 21  1  0  0  0
 21 22  2  0  0  0
 22 23  1  0  0  0
 22 24  1  0  0  0
 24 25  2  0  0  0
 24 26  1  0  0  0
 26 27  1  0  0  0
 27 28  1  0  0  0
 28 29  1  0  0  0
 29 30  1  0  0  0
 30 31  1  0  0  0
 12  7  1  0  0  0
  6  1  1  0  0  0
 23 19  1  0  0  0
 31 26  1  0  0  0
 15 18  1  0  0  0
M  END
> <minimizedAffinity>
-7.28056

> <CNNscore>
0.5074411035

> <CNNaffinity>
6.2270216942

> <CNN_VS>
3.1598467827

> <CNNaffinity_variance>
0.1381685436

$$$$
[H]OC(=O)C([H])([H])C([H])([H])C1([H])C([H])([H])C([H])([H])N(c2c([H])c([H])c(-c3sc(C(=O)N4C([H])([H])C([H])([H])OC([H])([H])C4([H])[H])nc3[H])c([H])c2[H])C([H])([H])C1([H])[H]


 31 34  0  0  0  0  0  0  0  0999 V2000
  -19.4013    9.8643  -16.4371 C   0  0  0  0  0  0  0  0  0  0  0  0
  -19.8547   11.1585  -16.6667 C   0  0  0  0  0  0  0  0  0  0  0  0
  -19.3975   11.9063  -17.7386 C   0  0  0  0  0  0  0  0  0  0  0  0
  -18.4739   11.3735  -18.6066 C   0  0  0  0  0  0  0  0  0  0  0  0
  -18.0136   10.1141  -18.4070 C   0  0  0  0  0  0  0  0  0  0  0  0
  -18.4795    9.3622  -17.3215 C   0  0  0  0  0  0  0  0  0  0  0  0
  -19.7985    7.1185  -13.3052 C   0  0  0  0  0  0  0  0  0  0  0  0
  -20.1240    6.8459  -14.7151 C   0  0  0  0  0  0  0  0  0  0  0  0
  -20.8021    8.0130  -15.4126 C   0  0  0  0  0  0  0  0  0  0  0  0
  -19.9018    9.1446  -15.3284 N   0  0  0  0  0  0  0  0  0  0  0  0
  -19.5071    9.5320  -13.9840 C   0  0  0  0  0  0  0  0  0  0  0  0
  -19.9712    8.5866  -12.9298 C   0  0  0  0  0  0  0  0  0  0  0  0
  -20.4034    6.2437  -12.2960 C   0  0  0  0  0  0  0  0  0  0  0  0
  -21.7849    6.4272  -11.8426 C   0  0  0  0  0  0  0  0  0  0  0  0
  -23.6789    7.3263  -13.2449 O   0  0  0  0  0  0  0  0  0  0  0  0
  -22.8915    6.2554  -12.7759 C   0  0  0  0  0  0  0  0  0  0  0  0
  -23.2500    5.1281  -13.2484 O   0  0  0  0  0  0  0  0  0  0  0  0
  -23.6904    7.5430  -14.2318 H   0  0  0  0  0  0  0  0  0  0  0  0
  -17.9775   12.1325  -19.7580 C   0  0  0  0  0  0  0  0  0  0  0  0
  -17.9015   13.4897  -19.9231 C   0  0  0  0  0  0  0  0  0  0  0  0
  -17.4198   13.9362  -21.0366 N   0  0  0  0  0  0  0  0  0  0  0  0
  -17.0184   13.1212  -21.9752 C   0  0  0  0  0  0  0  0  0  0  0  0
  -17.3345   11.5783  -21.2553 S   0  0  0  0  0  0  0  0  0  0  0  0
  -16.4536   13.4212  -23.2828 C   0  0  0  0  0  0  0  0  0  0  0  0
  -15.5388   12.5990  -23.7087 O   0  0  0  0  0  0  0  0  0  0  0  0
  -16.7566   14.4653  -24.1419 N   0  0  0  0  0  0  0  0  0  0  0  0
  -17.7203   15.4988  -23.9026 C   0  0  0  0  0  0  0  0  0  0  0  0
  -17.0794   16.8339  -24.2936 C   0  0  0  0  0  0  0  0  0  0  0  0
  -16.8161   16.8050  -25.6381 O   0  0  0  0  0  0  0  0  0  0  0  0
  -15.7063   15.9577  -25.8135 C   0  0  0  0  0  0  0  0  0  0  0  0
  -16.0496   14.5407  -25.4316 C   0  0  0  0  0  0  0  0  0  0  0  0
 15 16  1  0  0  0
 16 17  2  0  0  0
 16 14  1  0  0  0
 14 13  1  0  0  0
 13  7  1  0  0  0
  7  8  1  0  0  0
  8  9  1  0  0  0
  9 10  1  0  0  0
 10 11  1  0  0  0
 11 12  1  0  0  0
 10  1  1  0  0  0
  1  2  2  0  0  0
  2  3  1  0  0  0
  3  4  2  0  0  0
  4  5  1  0  0  0
  5  6  2  0  0  0
  4 19  1  0  0  0
 19 20  2  0  0  0
 20 21  1  0  0  0
 21 22  2  0  0  0
 22 23  1  0  0  0
 22 24  1  0  0  0
 24 25  2  0  0  0
 24 26  1  0  0  0
 26 27  1  0  0  0
 27 28  1  0  0  0
 28 29  1  0  0  0
 29 30  1  0  0  0
 30 31  1  0  0  0
 12  7  1  0  0  0
  6  1  1  0  0  0
 23 19  1  0  0  0
 31 26  1  0  0  0
 15 18  1  0  0  0
M  END
> <minimizedAffinity>
-7.68631

> <CNNscore>
0.4888707697

> <CNNaffinity>
6.3155350685

> <CNN_VS>
3.0874805450

> <CNNaffinity_variance>
0.0706899613

$$$$
[H]OC(=O)C([H])([H])C([H])([H])C1([H])C([H])([H])C([H])([H])N(c2c([H])c([H])c(-c3sc(C(=O)N4C([H])([H])C([H])([H])OC([H])([H])C4([H])[H])nc3[H])c([H])c2[H])C([H])([H])C1([H])[H]


 31 34  0  0  0  0  0  0  0  0999 V2000
  -19.8827   10.9824  -16.5503 C   0  0  0  0  0  0  0  0  0  0  0  0
  -19.0327   10.0386  -17.1159 C   0  0  0  0  0  0  0  0  0  0  0  0
  -18.3298   10.3023  -18.2794 C   0  0  0  0  0  0  0  0  0  0  0  0
  -18.4627   11.5200  -18.9038 C   0  0  0  0  0  0  0  0  0  0  0  0
  -19.2850   12.4592  -18.3752 C   0  0  0  0  0  0  0  0  0  0  0  0
  -19.9933   12.1874  -17.1983 C   0  0  0  0  0  0  0  0  0  0  0  0
  -22.9229   10.1934  -13.7861 C   0  0  0  0  0  0  0  0  0  0  0  0
  -22.4466   11.5359  -14.1590 C   0  0  0  0  0  0  0  0  0  0  0  0
  -20.9390   11.6132  -14.3309 C   0  0  0  0  0  0  0  0  0  0  0  0
  -20.5756   10.6617  -15.3608 N   0  0  0  0  0  0  0  0  0  0  0  0
  -20.9764    9.2866  -15.1124 C   0  0  0  0  0  0  0  0  0  0  0  0
  -21.8418    9.1249  -13.9102 C   0  0  0  0  0  0  0  0  0  0  0  0
  -23.6436   10.0664  -12.5156 C   0  0  0  0  0  0  0  0  0  0  0  0
  -23.8516   11.2133  -11.6274 C   0  0  0  0  0  0  0  0  0  0  0  0
  -25.7624   12.3741  -12.7953 O   0  0  0  0  0  0  0  0  0  0  0  0
  -25.1298   11.9142  -11.6225 C   0  0  0  0  0  0  0  0  0  0  0  0
  -25.7880   12.1781  -10.5644 O   0  0  0  0  0  0  0  0  0  0  0  0
  -26.6672   12.0048  -13.0522 H   0  0  0  0  0  0  0  0  0  0  0  0
  -17.7248   11.8370  -20.1299 C   0  0  0  0  0  0  0  0  0  0  0  0
  -16.9481   11.0142  -20.9011 C   0  0  0  0  0  0  0  0  0  0  0  0
  -16.3906   11.5208  -21.9518 N   0  0  0  0  0  0  0  0  0  0  0  0
  -16.5611   12.7765  -22.2692 C   0  0  0  0  0  0  0  0  0  0  0  0
  -17.5957   13.3212  -20.9918 S   0  0  0  0  0  0  0  0  0  0  0  0
  -16.0271   13.5274  -23.3960 C   0  0  0  0  0  0  0  0  0  0  0  0
  -14.8852   13.1137  -23.8642 O   0  0  0  0  0  0  0  0  0  0  0  0
  -16.5686   14.6264  -24.0433 N   0  0  0  0  0  0  0  0  0  0  0  0
  -17.8074   15.2688  -23.7168 C   0  0  0  0  0  0  0  0  0  0  0  0
  -17.5648   16.7812  -23.7245 C   0  0  0  0  0  0  0  0  0  0  0  0
  -17.2189   17.1528  -24.9973 O   0  0  0  0  0  0  0  0  0  0  0  0
  -15.8997   16.7079  -25.2029 C   0  0  0  0  0  0  0  0  0  0  0  0
  -15.8339   15.2023  -25.1824 C   0  0  0  0  0  0  0  0  0  0  0  0
 15 16  1  0  0  0
 16 17  2  0  0  0
 16 14  1  0  0  0
 14 13  1  0  0  0
 13  7  1  0  0  0
  7  8  1  0  0  0
  8  9  1  0  0  0
  9 10  1  0  0  0
 10 11  1  0  0  0
 11 12  1  0  0  0
 10  1  1  0  0  0
  1  2  2  0  0  0
  2  3  1  0  0  0
  3  4  2  0  0  0
  4  5  1  0  0  0
  5  6  2  0  0  0
  4 19  1  0  0  0
 19 20  2  0  0  0
 20 21  1  0  0  0
 21 22  2  0  0  0
 22 23  1  0  0  0
 22 24  1  0  0  0
 24 25  2  0  0  0
 24 26  1  0  0  0
 26 27  1  0  0  0
 27 28  1  0  0  0
 28 29  1  0  0  0
 29 30  1  0  0  0
 30 31  1  0  0  0
 12  7  1  0  0  0
  6  1  1  0  0  0
 23 19  1  0  0  0
 31 26  1  0  0  0
 15 18  1  0  0  0
M  END
> <minimizedAffinity>
-6.71932

> <CNNscore>
0.4188800454

> <CNNaffinity>
6.2506823540

> <CNN_VS>
2.6182861328

> <CNNaffinity_variance>
0.3684659302

$$$$
[H]OC(=O)C([H])([H])C([H])([H])C1([H])C([H])([H])C([H])([H])N(c2c([H])c([H])c(-c3sc(C(=O)N4C([H])([H])C([H])([H])OC([H])([H])C4([H])[H])nc3[H])c([H])c2[H])C([H])([H])C1([H])[H]


 31 34  0  0  0  0  0  0  0  0999 V2000
  -17.6033   12.1668  -20.5170 C   0  0  0  0  0  0  0  0  0  0  0  0
  -18.6054   12.6551  -19.6860 C   0  0  0  0  0  0  0  0  0  0  0  0
  -19.0462   11.9393  -18.5857 C   0  0  0  0  0  0  0  0  0  0  0  0
  -18.4919   10.7158  -18.2923 C   0  0  0  0  0  0  0  0  0  0  0  0
  -17.5134   10.2146  -19.0855 C   0  0  0  0  0  0  0  0  0  0  0  0
  -17.0713   10.9427  -20.1968 C   0  0  0  0  0  0  0  0  0  0  0  0
  -15.3647   14.6038  -23.0774 C   0  0  0  0  0  0  0  0  0  0  0  0
  -16.2023   15.0879  -21.9672 C   0  0  0  0  0  0  0  0  0  0  0  0
  -17.5153   14.3354  -21.8318 C   0  0  0  0  0  0  0  0  0  0  0  0
  -17.1900   12.9389  -21.6264 N   0  0  0  0  0  0  0  0  0  0  0  0
  -16.3727   12.3276  -22.6616 C   0  0  0  0  0  0  0  0  0  0  0  0
  -15.8721   13.2965  -23.6770 C   0  0  0  0  0  0  0  0  0  0  0  0
  -15.0236   15.5666  -24.1292 C   0  0  0  0  0  0  0  0  0  0  0  0
  -15.9923   15.9678  -25.1531 C   0  0  0  0  0  0  0  0  0  0  0  0
  -16.7845   18.3626  -25.1514 O   0  0  0  0  0  0  0  0  0  0  0  0
  -16.9825   16.9973  -24.8619 C   0  0  0  0  0  0  0  0  0  0  0  0
  -18.1101   16.7609  -24.3186 O   0  0  0  0  0  0  0  0  0  0  0  0
  -17.3979   18.8284  -25.8054 H   0  0  0  0  0  0  0  0  0  0  0  0
  -18.9261    9.9370  -17.1291 C   0  0  0  0  0  0  0  0  0  0  0  0
  -18.5273    8.6876  -16.7352 C   0  0  0  0  0  0  0  0  0  0  0  0
  -19.0522    8.1974  -15.6603 N   0  0  0  0  0  0  0  0  0  0  0  0
  -19.9348    8.8700  -14.9709 C   0  0  0  0  0  0  0  0  0  0  0  0
  -20.0585   10.3299  -15.8939 S   0  0  0  0  0  0  0  0  0  0  0  0
  -20.6341    8.4987  -13.7495 C   0  0  0  0  0  0  0  0  0  0  0  0
  -21.7735    7.8903  -13.9098 O   0  0  0  0  0  0  0  0  0  0  0  0
  -20.2530    8.7033  -12.4331 N   0  0  0  0  0  0  0  0  0  0  0  0
  -19.0505    9.3493  -11.9962 C   0  0  0  0  0  0  0  0  0  0  0  0
  -19.4246   10.3204  -10.8723 C   0  0  0  0  0  0  0  0  0  0  0  0
  -19.9174    9.5907   -9.8224 O   0  0  0  0  0  0  0  0  0  0  0  0
  -21.2057    9.1656  -10.1963 C   0  0  0  0  0  0  0  0  0  0  0  0
  -21.1371    8.2129  -11.3621 C   0  0  0  0  0  0  0  0  0  0  0  0
 15 16  1  0  0  0
 16 17  2  0  0  0
 16 14  1  0  0  0
 14 13  1  0  0  0
 13  7  1  0  0  0
  7  8  1  0  0  0
  8  9  1  0  0  0
  9 10  1  0  0  0
 10 11  1  0  0  0
 11 12  1  0  0  0
 10  1  1  0  0  0
  1  2  2  0  0  0
  2  3  1  0  0  0
  3  4  2  0  0  0
  4  5  1  0  0  0
  5  6  2  0  0  0
  4 19  1  0  0  0
 19 20  2  0  0  0
 20 21  1  0  0  0
 21 22  2  0  0  0
 22 23  1  0  0  0
 22 24  1  0  0  0
 24 25  2  0  0  0
 24 26  1  0  0  0
 26 27  1  0  0  0
 27 28  1  0  0  0
 28 29  1  0  0  0
 29 30  1  0  0  0
 30 31  1  0  0  0
 12  7  1  0  0  0
  6  1  1  0  0  0
 23 19  1  0  0  0
 31 26  1  0  0  0
 15 18  1  0  0  0
M  END
> <minimizedAffinity>
-8.33834

> <CNNscore>
0.3820686638

> <CNNaffinity>
6.1070537567

> <CNN_VS>
2.3333139420

> <CNNaffinity_variance>
0.0468503609

$$$$
[H]OC(=O)C([H])([H])C([H])([H])C1([H])C([H])([H])C([H])([H])N(c2c([H])c([H])c(-c3sc(C(=O)N4C([H])([H])C([H])([H])OC([H])([H])C4([H])[H])nc3[H])c([H])c2[H])C([H])([H])C1([H])[H]


 31 34  0  0  0  0  0  0  0  0999 V2000
  -19.4146   10.4245  -16.6525 C   0  0  0  0  0  0  0  0  0  0  0  0
  -18.4858    9.6226  -17.3062 C   0  0  0  0  0  0  0  0  0  0  0  0
  -17.8832   10.0267  -18.4856 C   0  0  0  0  0  0  0  0  0  0  0  0
  -18.1981   11.2458  -19.0379 C   0  0  0  0  0  0  0  0  0  0  0  0
  -19.1009   12.0483  -18.4226 C   0  0  0  0  0  0  0  0  0  0  0  0
  -19.7071   11.6349  -17.2301 C   0  0  0  0  0  0  0  0  0  0  0  0
  -20.6495   10.1331  -12.6655 C   0  0  0  0  0  0  0  0  0  0  0  0
  -19.3211    9.7466  -13.1697 C   0  0  0  0  0  0  0  0  0  0  0  0
  -19.3689    9.0507  -14.5194 C   0  0  0  0  0  0  0  0  0  0  0  0
  -19.9988    9.9640  -15.4507 N   0  0  0  0  0  0  0  0  0  0  0  0
  -21.3290   10.4180  -15.0795 C   0  0  0  0  0  0  0  0  0  0  0  0
  -21.7469    9.9896  -13.7149 C   0  0  0  0  0  0  0  0  0  0  0  0
  -21.0718    9.5628  -11.3825 C   0  0  0  0  0  0  0  0  0  0  0  0
  -21.6904   10.3840  -10.3382 C   0  0  0  0  0  0  0  0  0  0  0  0
  -21.6988   12.8898  -10.6273 O   0  0  0  0  0  0  0  0  0  0  0  0
  -21.1727   11.7161  -10.0506 C   0  0  0  0  0  0  0  0  0  0  0  0
  -20.2004   11.9415   -9.2592 O   0  0  0  0  0  0  0  0  0  0  0  0
  -22.1125   13.5955  -10.0342 H   0  0  0  0  0  0  0  0  0  0  0  0
  -17.5707   11.7099  -20.2785 C   0  0  0  0  0  0  0  0  0  0  0  0
  -16.6674   11.0620  -21.0781 C   0  0  0  0  0  0  0  0  0  0  0  0
  -16.2497   11.6752  -22.1368 N   0  0  0  0  0  0  0  0  0  0  0  0
  -16.6739   12.8740  -22.4358 C   0  0  0  0  0  0  0  0  0  0  0  0
  -17.7612   13.1953  -21.1269 S   0  0  0  0  0  0  0  0  0  0  0  0
  -16.3296   13.7225  -23.5674 C   0  0  0  0  0  0  0  0  0  0  0  0
  -15.3461   13.3057  -24.3113 O   0  0  0  0  0  0  0  0  0  0  0  0
  -16.9066   14.9178  -23.9650 N   0  0  0  0  0  0  0  0  0  0  0  0
  -17.9962   15.5834  -23.3140 C   0  0  0  0  0  0  0  0  0  0  0  0
  -17.6433   17.0708  -23.2171 C   0  0  0  0  0  0  0  0  0  0  0  0
  -17.5424   17.5706  -24.4890 O   0  0  0  0  0  0  0  0  0  0  0  0
  -16.3338   17.0823  -25.0195 C   0  0  0  0  0  0  0  0  0  0  0  0
  -16.3828   15.5834  -25.1699 C   0  0  0  0  0  0  0  0  0  0  0  0
 15 16  1  0  0  0
 16 17  2  0  0  0
 16 14  1  0  0  0
 14 13  1  0  0  0
 13  7  1  0  0  0
  7  8  1  0  0  0
  8  9  1  0  0  0
  9 10  1  0  0  0
 10 11  1  0  0  0
 11 12  1  0  0  0
 10  1  1  0  0  0
  1  2  2  0  0  0
  2  3  1  0  0  0
  3  4  2  0  0  0
  4  5  1  0  0  0
  5  6  2  0  0  0
  4 19  1  0  0  0
 19 20  2  0  0  0
 20 21  1  0  0  0
 21 22  2  0  0  0
 22 23  1  0  0  0
 22 24  1  0  0  0
 24 25  2  0  0  0
 24 26  1  0  0  0
 26 27  1  0  0  0
 27 28  1  0  0  0
 28 29  1  0  0  0
 29 30  1  0  0  0
 30 31  1  0  0  0
 12  7  1  0  0  0
  6  1  1  0  0  0
 23 19  1  0  0  0
 31 26  1  0  0  0
 15 18  1  0  0  0
M  END
> <minimizedAffinity>
-7.74076

> <CNNscore>
0.3573676646

> <CNNaffinity>
6.1884517670

> <CNN_VS>
2.2115526199

> <CNNaffinity_variance>
0.0386094451

$$$$
[H]OC(=O)C([H])([H])C([H])([H])C1([H])C([H])([H])C([H])([H])N(c2c([H])c([H])c(-c3sc(C(=O)N4C([H])([H])C([H])([H])OC([H])([H])C4([H])[H])nc3[H])c([H])c2[H])C([H])([H])C1([H])[H]


 31 34  0  0  0  0  0  0  0  0999 V2000
  -19.3115   10.2768  -16.5321 C   0  0  0  0  0  0  0  0  0  0  0  0
  -18.4512    9.4492  -17.2450 C   0  0  0  0  0  0  0  0  0  0  0  0
  -17.9072    9.8419  -18.4563 C   0  0  0  0  0  0  0  0  0  0  0  0
  -18.2133   11.0749  -18.9819 C   0  0  0  0  0  0  0  0  0  0  0  0
  -19.0499   11.9025  -18.3089 C   0  0  0  0  0  0  0  0  0  0  0  0
  -19.5971   11.5006  -17.0843 C   0  0  0  0  0  0  0  0  0  0  0  0
  -19.6538    8.7195  -12.6638 C   0  0  0  0  0  0  0  0  0  0  0  0
  -19.5586    7.9154  -13.8937 C   0  0  0  0  0  0  0  0  0  0  0  0
  -20.3501    8.4947  -15.0540 C   0  0  0  0  0  0  0  0  0  0  0  0
  -19.8378    9.8271  -15.2998 N   0  0  0  0  0  0  0  0  0  0  0  0
  -19.8845   10.7350  -14.1654 C   0  0  0  0  0  0  0  0  0  0  0  0
  -20.3026   10.0805  -12.8937 C   0  0  0  0  0  0  0  0  0  0  0  0
  -20.2122    8.0653  -11.4764 C   0  0  0  0  0  0  0  0  0  0  0  0
  -19.3554    7.5205  -10.4196 C   0  0  0  0  0  0  0  0  0  0  0  0
  -17.2683    6.4497  -11.3470 O   0  0  0  0  0  0  0  0  0  0  0  0
  -17.9106    7.4615  -10.6050 C   0  0  0  0  0  0  0  0  0  0  0  0
  -17.0991    8.3114  -10.1136 O   0  0  0  0  0  0  0  0  0  0  0  0
  -16.7441    6.6944  -12.1755 H   0  0  0  0  0  0  0  0  0  0  0  0
  -17.6461   11.5272  -20.2554 C   0  0  0  0  0  0  0  0  0  0  0  0
  -16.5634   11.0365  -20.9353 C   0  0  0  0  0  0  0  0  0  0  0  0
  -16.2471   11.6010  -22.0545 N   0  0  0  0  0  0  0  0  0  0  0  0
  -16.9361   12.6068  -22.5234 C   0  0  0  0  0  0  0  0  0  0  0  0
  -18.1468   12.7999  -21.3004 S   0  0  0  0  0  0  0  0  0  0  0  0
  -16.7446   13.3694  -23.7484 C   0  0  0  0  0  0  0  0  0  0  0  0
  -16.4867   12.6723  -24.8170 O   0  0  0  0  0  0  0  0  0  0  0  0
  -16.7997   14.7412  -23.9361 N   0  0  0  0  0  0  0  0  0  0  0  0
  -17.0625   15.7191  -22.9218 C   0  0  0  0  0  0  0  0  0  0  0  0
  -16.0503   16.8554  -23.0961 C   0  0  0  0  0  0  0  0  0  0  0  0
  -16.2703   17.4416  -24.3150 O   0  0  0  0  0  0  0  0  0  0  0  0
  -15.7814   16.5481  -25.2862 C   0  0  0  0  0  0  0  0  0  0  0  0
  -16.5850   15.2731  -25.2926 C   0  0  0  0  0  0  0  0  0  0  0  0
 15 16  1  0  0  0
 16 17  2  0  0  0
 16 14  1  0  0  0
 14 13  1  0  0  0
 13  7  1  0  0  0
  7  8  1  0  0  0
  8  9  1  0  0  0
  9 10  1  0  0  0
 10 11  1  0  0  0
 11 12  1  0  0  0
 10  1  1  0  0  0
  1  2  2  0  0  0
  2  3  1  0  0  0
  3  4  2  0  0  0
  4  5  1  0  0  0
  5  6  2  0  0  0
  4 19  1  0  0  0
 19 20  2  0  0  0
 20 21  1  0  0  0
 21 22  2  0  0  0
 22 23  1  0  0  0
 22 24  1  0  0  0
 24 25  2  0  0  0
 24 26  1  0  0  0
 26 27  1  0  0  0
 27 28  1  0  0  0
 28 29  1  0  0  0
 29 30  1  0  0  0
 30 31  1  0  0  0
 12  7  1  0  0  0
  6  1  1  0  0  0
 23 19  1  0  0  0
 31 26  1  0  0  0
 15 18  1  0  0  0
M  END
> <minimizedAffinity>
-7.68421

> <CNNscore>
0.3352752328

> <CNNaffinity>
6.2605676651

> <CNN_VS>
2.0990133286

> <CNNaffinity_variance>
0.1070039272

$$$$
[H]OC(=O)C([H])([H])C([H])([H])C1([H])C([H])([H])C([H])([H])N(c2c([H])c([H])c(-c3sc(C(=O)N4C([H])([H])C([H])([H])OC([H])([H])C4([H])[H])nc3[H])c([H])c2[H])C([H])([H])C1([H])[H]


 31 34  0  0  0  0  0  0  0  0999 V2000
  -17.5371   12.3908  -20.8680 C   0  0  0  0  0  0  0  0  0  0  0  0
  -16.8889   11.2298  -20.4616 C   0  0  0  0  0  0  0  0  0  0  0  0
  -17.3122   10.5141  -19.3544 C   0  0  0  0  0  0  0  0  0  0  0  0
  -18.3967   10.9460  -18.6279 C   0  0  0  0  0  0  0  0  0  0  0  0
  -19.0477   12.0751  -19.0006 C   0  0  0  0  0  0  0  0  0  0  0  0
  -18.6156   12.7950  -20.1212 C   0  0  0  0  0  0  0  0  0  0  0  0
  -15.2585   14.8021  -23.4175 C   0  0  0  0  0  0  0  0  0  0  0  0
  -16.2946   15.2917  -22.4928 C   0  0  0  0  0  0  0  0  0  0  0  0
  -17.5172   14.3920  -22.4283 C   0  0  0  0  0  0  0  0  0  0  0  0
  -17.0642   13.0824  -22.0063 N   0  0  0  0  0  0  0  0  0  0  0  0
  -16.0439   12.4731  -22.8436 C   0  0  0  0  0  0  0  0  0  0  0  0
  -15.5212   13.3806  -23.9036 C   0  0  0  0  0  0  0  0  0  0  0  0
  -14.8868   15.6783  -24.5327 C   0  0  0  0  0  0  0  0  0  0  0  0
  -14.6555   15.1554  -25.8821 C   0  0  0  0  0  0  0  0  0  0  0  0
  -15.5920   16.1457  -28.0046 O   0  0  0  0  0  0  0  0  0  0  0  0
  -15.6909   15.2738  -26.9015 C   0  0  0  0  0  0  0  0  0  0  0  0
  -16.7763   14.6073  -26.8881 O   0  0  0  0  0  0  0  0  0  0  0  0
  -15.5791   15.7667  -28.9411 H   0  0  0  0  0  0  0  0  0  0  0  0
  -18.8788   10.2065  -17.4579 C   0  0  0  0  0  0  0  0  0  0  0  0
  -18.4589    8.9958  -16.9749 C   0  0  0  0  0  0  0  0  0  0  0  0
  -19.0368    8.5361  -15.9138 N   0  0  0  0  0  0  0  0  0  0  0  0
  -19.9906    9.2028  -15.3202 C   0  0  0  0  0  0  0  0  0  0  0  0
  -20.1081   10.6098  -16.3228 S   0  0  0  0  0  0  0  0  0  0  0  0
  -20.7570    8.8614  -14.1307 C   0  0  0  0  0  0  0  0  0  0  0  0
  -21.9709    8.4402  -14.3386 O   0  0  0  0  0  0  0  0  0  0  0  0
  -20.3717    8.9222  -12.8011 N   0  0  0  0  0  0  0  0  0  0  0  0
  -19.0944    9.3533  -12.3143 C   0  0  0  0  0  0  0  0  0  0  0  0
  -19.3397   10.2947  -11.1312 C   0  0  0  0  0  0  0  0  0  0  0  0
  -19.9519    9.5800  -10.1352 O   0  0  0  0  0  0  0  0  0  0  0  0
  -21.2826    9.3755  -10.5451 C   0  0  0  0  0  0  0  0  0  0  0  0
  -21.3360    8.5003  -11.7709 C   0  0  0  0  0  0  0  0  0  0  0  0
 15 16  1  0  0  0
 16 17  2  0  0  0
 16 14  1  0  0  0
 14 13  1  0  0  0
 13  7  1  0  0  0
  7  8  1  0  0  0
  8  9  1  0  0  0
  9 10  1  0  0  0
 10 11  1  0  0  0
 11 12  1  0  0  0
 10  1  1  0  0  0
  1  2  2  0  0  0
  2  3  1  0  0  0
  3  4  2  0  0  0
  4  5  1  0  0  0
  5  6  2  0  0  0
  4 19  1  0  0  0
 19 20  2  0  0  0
 20 21  1  0  0  0
 21 22  2  0  0  0
 22 23  1  0  0  0
 22 24  1  0  0  0
 24 25  2  0  0  0
 24 26  1  0  0  0
 26 27  1  0  0  0
 27 28  1  0  0  0
 28 29  1  0  0  0
 29 30  1  0  0  0
 30 31  1  0  0  0
 12  7  1  0  0  0
  6  1  1  0  0  0
 23 19  1  0  0  0
 31 26  1  0  0  0
 15 18  1  0  0  0
M  END
> <minimizedAffinity>
-8.52637

> <CNNscore>
0.3149019182

> <CNNaffinity>
5.9141469002

> <CNN_VS>
1.8623762131

> <CNNaffinity_variance>
0.1832221001

$$$$
[H]OC(=O)C([H])([H])C([H])([H])C1([H])C([H])([H])C([H])([H])N(c2c([H])c([H])c(-c3sc(C(=O)N4C([H])([H])C([H])([H])OC([H])([H])C4([H])[H])nc3[H])c([H])c2[H])C([H])([H])C1([H])[H]


 31 34  0  0  0  0  0  0  0  0999 V2000
  -19.3787   11.0198  -16.8959 C   0  0  0  0  0  0  0  0  0  0  0  0
  -19.8106   12.2524  -17.3729 C   0  0  0  0  0  0  0  0  0  0  0  0
  -19.3867   12.7444  -18.5958 C   0  0  0  0  0  0  0  0  0  0  0  0
  -18.5190   12.0112  -19.3703 C   0  0  0  0  0  0  0  0  0  0  0  0
  -18.0808   10.8062  -18.9302 C   0  0  0  0  0  0  0  0  0  0  0  0
  -18.5127   10.3133  -17.6928 C   0  0  0  0  0  0  0  0  0  0  0  0
  -19.5414    9.8194  -12.8911 C   0  0  0  0  0  0  0  0  0  0  0  0
  -19.1452    8.9570  -14.0169 C   0  0  0  0  0  0  0  0  0  0  0  0
  -19.9848    9.1729  -15.2647 C   0  0  0  0  0  0  0  0  0  0  0  0
  -19.8434   10.5644  -15.6412 N   0  0  0  0  0  0  0  0  0  0  0  0
  -20.2153   11.5302  -14.6202 C   0  0  0  0  0  0  0  0  0  0  0  0
  -20.5226   10.9136  -13.2988 C   0  0  0  0  0  0  0  0  0  0  0  0
  -19.9777    9.1554  -11.6589 C   0  0  0  0  0  0  0  0  0  0  0  0
  -21.3790    8.7917  -11.4317 C   0  0  0  0  0  0  0  0  0  0  0  0
  -23.2626    7.1869  -11.9210 O   0  0  0  0  0  0  0  0  0  0  0  0
  -21.8915    7.5137  -11.9108 C   0  0  0  0  0  0  0  0  0  0  0  0
  -21.1521    6.5780  -12.3583 O   0  0  0  0  0  0  0  0  0  0  0  0
  -23.7249    7.0002  -12.7999 H   0  0  0  0  0  0  0  0  0  0  0  0
  -18.0595   12.4962  -20.6748 C   0  0  0  0  0  0  0  0  0  0  0  0
  -17.1788   11.9124  -21.5459 C   0  0  0  0  0  0  0  0  0  0  0  0
  -16.9240   12.5316  -22.6519 N   0  0  0  0  0  0  0  0  0  0  0  0
  -17.4868   13.6768  -22.9313 C   0  0  0  0  0  0  0  0  0  0  0  0
  -18.4702   13.9328  -21.5291 S   0  0  0  0  0  0  0  0  0  0  0  0
  -17.3339   14.5212  -24.1071 C   0  0  0  0  0  0  0  0  0  0  0  0
  -18.4222   14.7605  -24.7799 O   0  0  0  0  0  0  0  0  0  0  0  0
  -16.1852   15.1091  -24.6118 N   0  0  0  0  0  0  0  0  0  0  0  0
  -14.8686   14.9950  -24.0573 C   0  0  0  0  0  0  0  0  0  0  0  0
  -13.8987   14.7217  -25.2109 C   0  0  0  0  0  0  0  0  0  0  0  0
  -13.9120   15.8068  -26.0477 O   0  0  0  0  0  0  0  0  0  0  0  0
  -15.1282   15.7565  -26.7539 C   0  0  0  0  0  0  0  0  0  0  0  0
  -16.2967   15.9433  -25.8204 C   0  0  0  0  0  0  0  0  0  0  0  0
 15 16  1  0  0  0
 16 17  2  0  0  0
 16 14  1  0  0  0
 14 13  1  0  0  0
 13  7  1  0  0  0
  7  8  1  0  0  0
  8  9  1  0  0  0
  9 10  1  0  0  0
 10 11  1  0  0  0
 11 12  1  0  0  0
 10  1  1  0  0  0
  1  2  2  0  0  0
  2  3  1  0  0  0
  3  4  2  0  0  0
  4  5  1  0  0  0
  5  6  2  0  0  0
  4 19  1  0  0  0
 19 20  2  0  0  0
 20 21  1  0  0  0
 21 22  2  0  0  0
 22 23  1  0  0  0
 22 24  1  0  0  0
 24 25  2  0  0  0
 24 26  1  0  0  0
 26 27  1  0  0  0
 27 28  1  0  0  0
 28 29  1  0  0  0
 29 30  1  0  0  0
 30 31  1  0  0  0
 12  7  1  0  0  0
  6  1  1  0  0  0
 23 19  1  0  0  0
 31 26  1  0  0  0
 15 18  1  0  0  0
M  END
> <minimizedAffinity>
-7.39421

> <CNNscore>
0.2629956007

> <CNNaffinity>
6.0610947609

> <CNN_VS>
1.5940412283

> <CNNaffinity_variance>
0.0282326285

$$$$
[H]OC(=O)C([H])([H])C([H])([H])C1([H])C([H])([H])C([H])([H])N(c2c([H])c([H])c(-c3sc(C(=O)N4C([H])([H])C([H])([H])OC([H])([H])C4([H])[H])nc3[H])c([H])c2[H])C([H])([H])C1([H])[H]


 31 34  0  0  0  0  0  0  0  0999 V2000
  -17.2993   12.3708  -21.1665 C   0  0  0  0  0  0  0  0  0  0  0  0
  -16.7086   11.2089  -20.6824 C   0  0  0  0  0  0  0  0  0  0  0  0
  -17.1890   10.5692  -19.5522 C   0  0  0  0  0  0  0  0  0  0  0  0
  -18.2742   11.0800  -18.8801 C   0  0  0  0  0  0  0  0  0  0  0  0
  -18.8699   12.2119  -19.3289 C   0  0  0  0  0  0  0  0  0  0  0  0
  -18.3802   12.8547  -20.4725 C   0  0  0  0  0  0  0  0  0  0  0  0
  -14.9805   14.7152  -23.7418 C   0  0  0  0  0  0  0  0  0  0  0  0
  -16.1484   15.1942  -22.9837 C   0  0  0  0  0  0  0  0  0  0  0  0
  -17.2875   14.1899  -22.9357 C   0  0  0  0  0  0  0  0  0  0  0  0
  -16.7695   12.9828  -22.3251 N   0  0  0  0  0  0  0  0  0  0  0  0
  -15.6161   12.3930  -22.9846 C   0  0  0  0  0  0  0  0  0  0  0  0
  -15.0642   13.2317  -24.0857 C   0  0  0  0  0  0  0  0  0  0  0  0
  -14.5695   15.5024  -24.9085 C   0  0  0  0  0  0  0  0  0  0  0  0
  -15.5479   16.0849  -25.8311 C   0  0  0  0  0  0  0  0  0  0  0  0
  -15.6711   15.6799  -28.3177 O   0  0  0  0  0  0  0  0  0  0  0  0
  -16.0003   15.3292  -26.9928 C   0  0  0  0  0  0  0  0  0  0  0  0
  -16.7336   14.2903  -26.9192 O   0  0  0  0  0  0  0  0  0  0  0  0
  -15.1309   15.0407  -28.8840 H   0  0  0  0  0  0  0  0  0  0  0  0
  -18.8160   10.4221  -17.6876 C   0  0  0  0  0  0  0  0  0  0  0  0
  -18.5112    9.1898  -17.1741 C   0  0  0  0  0  0  0  0  0  0  0  0
  -19.1221    8.8168  -16.0975 N   0  0  0  0  0  0  0  0  0  0  0  0
  -20.0019    9.5884  -15.5169 C   0  0  0  0  0  0  0  0  0  0  0  0
  -19.9910   10.9729  -16.5570 S   0  0  0  0  0  0  0  0  0  0  0  0
  -20.7879    9.3547  -14.3142 C   0  0  0  0  0  0  0  0  0  0  0  0
  -20.5630   10.1667  -13.3221 O   0  0  0  0  0  0  0  0  0  0  0  0
  -21.7477    8.3837  -14.0779 N   0  0  0  0  0  0  0  0  0  0  0  0
  -22.1704    7.3757  -15.0049 C   0  0  0  0  0  0  0  0  0  0  0  0
  -22.2384    6.0454  -14.2485 C   0  0  0  0  0  0  0  0  0  0  0  0
  -23.1979    6.1543  -13.2763 O   0  0  0  0  0  0  0  0  0  0  0  0
  -22.6553    6.9666  -12.2633 C   0  0  0  0  0  0  0  0  0  0  0  0
  -22.4218    8.3672  -12.7686 C   0  0  0  0  0  0  0  0  0  0  0  0
 15 16  1  0  0  0
 16 17  2  0  0  0
 16 14  1  0  0  0
 14 13  1  0  0  0
 13  7  1  0  0  0
  7  8  1  0  0  0
  8  9  1  0  0  0
  9 10  1  0  0  0
 10 11  1  0  0  0
 11 12  1  0  0  0
 10  1  1  0  0  0
  1  2  2  0  0  0
  2  3  1  0  0  0
  3  4  2  0  0  0
  4  5  1  0  0  0
  5  6  2  0  0  0
  4 19  1  0  0  0
 19 20  2  0  0  0
 20 21  1  0  0  0
 21 22  2  0  0  0
 22 23  1  0  0  0
 22 24  1  0  0  0
 24 25  2  0  0  0
 24 26  1  0  0  0
 26 27  1  0  0  0
 27 28  1  0  0  0
 28 29  1  0  0  0
 29 30  1  0  0  0
 30 31  1  0  0  0
 12  7  1  0  0  0
  6  1  1  0  0  0
 23 19  1  0  0  0
 31 26  1  0  0  0
 15 18  1  0  0  0
M  END
> <minimizedAffinity>
-8.45034

> <CNNscore>
0.2440804094

> <CNNaffinity>
5.8534369469

> <CNN_VS>
1.4287092686

> <CNNaffinity_variance>
0.2119251788

$$$$
[H]C1=C2C([H])([H])C([H])([H])[C@@]3([H])[C@]4([H])C([H])([H])[C@]([H])(C([H])([H])[H])C([H])([H])C([H])([H])[C@@]4([H])[C@@]3([H])[C@]2(C([H])([H])[H])C([H])([H])C([H])([H])C1=O


 19 22  0  0  0  0  0  0  0  0999 V2000
  -23.1921   18.8701  -27.2068 C   0  0  0  0  0  0  0  0  0  0  0  0
  -23.5394   19.7391  -26.0189 C   0  0  0  0  0  0  0  0  0  0  0  0
  -22.4335   20.5802  -25.5144 C   0  0  0  0  0  0  0  0  0  0  0  0
  -21.4513   19.9184  -24.5535 C   0  0  0  0  0  0  0  0  0  0  0  0
  -22.0808   18.6821  -24.0874 C   0  0  0  0  0  0  0  0  0  0  0  0
  -21.9963   18.0301  -22.8006 C   0  0  0  0  0  0  0  0  0  0  0  0
  -23.4464   18.2710  -22.5710 C   0  0  0  0  0  0  0  0  0  0  0  0
  -23.8520   18.9791  -21.3190 C   0  0  0  0  0  0  0  0  0  0  0  0
  -22.8387   20.0123  -20.8535 C   0  0  0  0  0  0  0  0  0  0  0  0
  -21.5536   19.2700  -20.6934 C   0  0  0  0  0  0  0  0  0  0  0  0
  -20.8788   19.4165  -19.5754 C   0  0  0  0  0  0  0  0  0  0  0  0
  -19.5989   18.7063  -19.3529 C   0  0  0  0  0  0  0  0  0  0  0  0
  -18.7231   19.2582  -18.6980 O   0  0  0  0  0  0  0  0  0  0  0  0
  -19.5277   17.3529  -19.9769 C   0  0  0  0  0  0  0  0  0  0  0  0
  -20.6266   17.1004  -20.9681 C   0  0  0  0  0  0  0  0  0  0  0  0
  -21.0320   18.3787  -21.7347 C   0  0  0  0  0  0  0  0  0  0  0  0
  -19.7331   18.8367  -22.3630 C   0  0  0  0  0  0  0  0  0  0  0  0
  -23.4986   19.1696  -23.7155 C   0  0  0  0  0  0  0  0  0  0  0  0
  -24.2941   18.9535  -24.9359 C   0  0  0  0  0  0  0  0  0  0  0  0
  1  2  1  0  0  0
  2  3  1  0  0  0
  3  4  1  0  0  0
  4  5  1  0  0  0
  5  6  1  0  0  0
  6  7  1  0  0  0
  7  8  1  0  0  0
  8  9  1  0  0  0
  9 10  1  0  0  0
 10 11  2  0  0  0
 11 12  1  0  0  0
 12 13  2  0  0  0
 12 14  1  0  0  0
 14 15  1  0  0  0
 15 16  1  0  0  0
 16 17  1  0  0  0
  7 18  1  0  0  0
 18 19  1  0  0  0
 19  2  1  0  0  0
 18  5  1  0  0  0
 16  6  1  0  0  0
 16 10  1  0  0  0
M  END
> <minimizedAffinity>
-5.39881

> <CNNscore>
0.5483419299

> <CNNaffinity>
5.5141525269

> <CNN_VS>
3.0236411095

> <CNNaffinity_variance>
0.4535413682

$$$$
[H]C1=C2C([H])([H])C([H])([H])[C@@]3([H])[C@]4([H])C([H])([H])[C@]([H])(C([H])([H])[H])C([H])([H])C([H])([H])[C@@]4([H])[C@@]3([H])[C@]2(C([H])([H])[H])C([H])([H])C([H])([H])C1=O


 19 22  0  0  0  0  0  0  0  0999 V2000
  -15.3457   15.2143  -27.3243 C   0  0  0  0  0  0  0  0  0  0  0  0
  -15.5200   15.9051  -25.9904 C   0  0  0  0  0  0  0  0  0  0  0  0
  -14.5622   15.4931  -24.9426 C   0  0  0  0  0  0  0  0  0  0  0  0
  -14.9012   14.2273  -24.1623 C   0  0  0  0  0  0  0  0  0  0  0  0
  -16.3115   13.9337  -24.4211 C   0  0  0  0  0  0  0  0  0  0  0  0
  -17.3093   13.3535  -23.5518 C   0  0  0  0  0  0  0  0  0  0  0  0
  -18.0821   14.6247  -23.5722 C   0  0  0  0  0  0  0  0  0  0  0  0
  -18.4281   15.2583  -22.2636 C   0  0  0  0  0  0  0  0  0  0  0  0
  -17.3755   15.0394  -21.1889 C   0  0  0  0  0  0  0  0  0  0  0  0
  -17.2180   13.5594  -21.0773 C   0  0  0  0  0  0  0  0  0  0  0  0
  -17.2626   13.0112  -19.8838 C   0  0  0  0  0  0  0  0  0  0  0  0
  -17.1159   11.5489  -19.7050 C   0  0  0  0  0  0  0  0  0  0  0  0
  -16.5548   11.1299  -18.6999 O   0  0  0  0  0  0  0  0  0  0  0  0
  -17.6910   10.7311  -20.8126 C   0  0  0  0  0  0  0  0  0  0  0  0
  -18.0191   11.5386  -22.0349 C   0  0  0  0  0  0  0  0  0  0  0  0
  -17.0285   12.7036  -22.2532 C   0  0  0  0  0  0  0  0  0  0  0  0
  -15.6836   12.0118  -22.3184 C   0  0  0  0  0  0  0  0  0  0  0  0
  -16.9672   15.3155  -24.2045 C   0  0  0  0  0  0  0  0  0  0  0  0
  -16.9897   15.9263  -25.5443 C   0  0  0  0  0  0  0  0  0  0  0  0
  1  2  1  0  0  0
  2  3  1  0  0  0
  3  4  1  0  0  0
  4  5  1  0  0  0
  5  6  1  0  0  0
  6  7  1  0  0  0
  7  8  1  0  0  0
  8  9  1  0  0  0
  9 10  1  0  0  0
 10 11  2  0  0  0
 11 12  1  0  0  0
 12 13  2  0  0  0
 12 14  1  0  0  0
 14 15  1  0  0  0
 15 16  1  0  0  0
 16 17  1  0  0  0
  7 18  1  0  0  0
 18 19  1  0  0  0
 19  2  1  0  0  0
 18  5  1  0  0  0
 16  6  1  0  0  0
 16 10  1  0  0  0
M  END
> <minimizedAffinity>
-7.71687

> <CNNscore>
0.4536816180

> <CNNaffinity>
6.1159486771

> <CNN_VS>
2.7746934891

> <CNNaffinity_variance>
0.2099930048

$$$$
[H]C1=C2C([H])([H])C([H])([H])[C@@]3([H])[C@]4([H])C([H])([H])[C@]([H])(C([H])([H])[H])C([H])([H])C([H])([H])[C@@]4([H])[C@@]3([H])[C@]2(C([H])([H])[H])C([H])([H])C([H])([H])C1=O


 19 22  0  0  0  0  0  0  0  0999 V2000
  -18.3335   16.7033  -18.6479 C   0  0  0  0  0  0  0  0  0  0  0  0
  -19.6369   16.0837  -19.0998 C   0  0  0  0  0  0  0  0  0  0  0  0
  -19.6358   15.5632  -20.4832 C   0  0  0  0  0  0  0  0  0  0  0  0
  -19.9024   16.5716  -21.5960 C   0  0  0  0  0  0  0  0  0  0  0  0
  -20.4589   17.7672  -20.9614 C   0  0  0  0  0  0  0  0  0  0  0  0
  -21.4471   18.6996  -21.4534 C   0  0  0  0  0  0  0  0  0  0  0  0
  -22.3849   18.2931  -20.3722 C   0  0  0  0  0  0  0  0  0  0  0  0
  -23.7521   17.8336  -20.7633 C   0  0  0  0  0  0  0  0  0  0  0  0
  -23.7866   17.1051  -22.0970 C   0  0  0  0  0  0  0  0  0  0  0  0
  -23.2037   18.0562  -23.0888 C   0  0  0  0  0  0  0  0  0  0  0  0
  -23.8566   18.2753  -24.2079 C   0  0  0  0  0  0  0  0  0  0  0  0
  -23.3340   19.2089  -25.2311 C   0  0  0  0  0  0  0  0  0  0  0  0
  -23.5394   18.9645  -26.4138 O   0  0  0  0  0  0  0  0  0  0  0  0
  -22.5923   20.3790  -24.6774 C   0  0  0  0  0  0  0  0  0  0  0  0
  -22.2430   20.2243  -23.2255 C   0  0  0  0  0  0  0  0  0  0  0  0
  -21.9387   18.7579  -22.8471 C   0  0  0  0  0  0  0  0  0  0  0  0
  -20.8178   18.3783  -23.7910 C   0  0  0  0  0  0  0  0  0  0  0  0
  -21.5344   17.1611  -20.0329 C   0  0  0  0  0  0  0  0  0  0  0  0
  -20.8433   16.9668  -18.7470 C   0  0  0  0  0  0  0  0  0  0  0  0
  1  2  1  0  0  0
  2  3  1  0  0  0
  3  4  1  0  0  0
  4  5  1  0  0  0
  5  6  1  0  0  0
  6  7  1  0  0  0
  7  8  1  0  0  0
  8  9  1  0  0  0
  9 10  1  0  0  0
 10 11  2  0  0  0
 11 12  1  0  0  0
 12 13  2  0  0  0
 12 14  1  0  0  0
 14 15  1  0  0  0
 15 16  1  0  0  0
 16 17  1  0  0  0
  7 18  1  0  0  0
 18 19  1  0  0  0
 19  2  1  0  0  0
 18  5  1  0  0  0
 16  6  1  0  0  0
 16 10  1  0  0  0
M  END
> <minimizedAffinity>
-5.54665

> <CNNscore>
0.3136110902

> <CNNaffinity>
5.2274293900

> <CNN_VS>
1.6393798590

> <CNNaffinity_variance>
0.1978104264

$$$$
[H]C1=C2C([H])([H])C([H])([H])[C@@]3([H])[C@]4([H])C([H])([H])[C@]([H])(C([H])([H])[H])C([H])([H])C([H])([H])[C@@]4([H])[C@@]3([H])[C@]2(C([H])([H])[H])C([H])([H])C([H])([H])C1=O


 19 22  0  0  0  0  0  0  0  0999 V2000
  -17.1878   12.9626  -26.1100 C   0  0  0  0  0  0  0  0  0  0  0  0
  -16.4386   13.9671  -25.2634 C   0  0  0  0  0  0  0  0  0  0  0  0
  -15.7717   13.4056  -24.0697 C   0  0  0  0  0  0  0  0  0  0  0  0
  -16.6332   13.2230  -22.8245 C   0  0  0  0  0  0  0  0  0  0  0  0
  -17.8518   14.0065  -23.0325 C   0  0  0  0  0  0  0  0  0  0  0  0
  -18.6583   14.7320  -22.0779 C   0  0  0  0  0  0  0  0  0  0  0  0
  -18.3114   16.0161  -22.7443 C   0  0  0  0  0  0  0  0  0  0  0  0
  -17.7234   17.1061  -21.9078 C   0  0  0  0  0  0  0  0  0  0  0  0
  -16.8533   16.5935  -20.7715 C   0  0  0  0  0  0  0  0  0  0  0  0
  -17.7269   15.6794  -19.9782 C   0  0  0  0  0  0  0  0  0  0  0  0
  -17.7795   15.8354  -18.6745 C   0  0  0  0  0  0  0  0  0  0  0  0
  -18.6283   14.9638  -17.8310 C   0  0  0  0  0  0  0  0  0  0  0  0
  -18.2437   14.6764  -16.7040 O   0  0  0  0  0  0  0  0  0  0  0  0
  -19.8979   14.5242  -18.4799 C   0  0  0  0  0  0  0  0  0  0  0  0
  -19.9254   14.7804  -19.9589 C   0  0  0  0  0  0  0  0  0  0  0  0
  -18.5321   14.6277  -20.6080 C   0  0  0  0  0  0  0  0  0  0  0  0
  -18.1262   13.2172  -20.2377 C   0  0  0  0  0  0  0  0  0  0  0  0
  -17.2813   15.3527  -23.5308 C   0  0  0  0  0  0  0  0  0  0  0  0
  -17.2738   15.2287  -24.9983 C   0  0  0  0  0  0  0  0  0  0  0  0
  1  2  1  0  0  0
  2  3  1  0  0  0
  3  4  1  0  0  0
  4  5  1  0  0  0
  5  6  1  0  0  0
  6  7  1  0  0  0
  7  8  1  0  0  0
  8  9  1  0  0  0
  9 10  1  0  0  0
 10 11  2  0  0  0
 11 12  1  0  0  0
 12 13  2  0  0  0
 12 14  1  0  0  0
 14 15  1  0  0  0
 15 16  1  0  0  0
 16 17  1  0  0  0
  7 18  1  0  0  0
 18 19  1  0  0  0
 19  2  1  0  0  0
 18  5  1  0  0  0
 16  6  1  0  0  0
 16 10  1  0  0  0
M  END
> <minimizedAffinity>
-7.85061

> <CNNscore>
0.3066776097

> <CNNaffinity>
5.9689540863

> <CNN_VS>
1.8305445910

> <CNNaffinity_variance>
0.2495487183

$$$$
[H]C1=C2C([H])([H])C([H])([H])[C@@]3([H])[C@]4([H])C([H])([H])[C@]([H])(C([H])([H])[H])C([H])([H])C([H])([H])[C@@]4([H])[C@@]3([H])[C@]2(C([H])([H])[H])C([H])([H])C([H])([H])C1=O


 19 22  0  0  0  0  0  0  0  0999 V2000
  -21.9695   17.4842  -18.5243 C   0  0  0  0  0  0  0  0  0  0  0  0
  -21.3193   17.1507  -19.8483 C   0  0  0  0  0  0  0  0  0  0  0  0
  -21.7241   15.8561  -20.4356 C   0  0  0  0  0  0  0  0  0  0  0  0
  -20.9918   14.6159  -19.9338 C   0  0  0  0  0  0  0  0  0  0  0  0
  -19.7939   15.0836  -19.2351 C   0  0  0  0  0  0  0  0  0  0  0  0
  -18.4831   14.4824  -19.1443 C   0  0  0  0  0  0  0  0  0  0  0  0
  -17.8939   15.6284  -19.8881 C   0  0  0  0  0  0  0  0  0  0  0  0
  -17.0936   15.3333  -21.1153 C   0  0  0  0  0  0  0  0  0  0  0  0
  -17.5893   14.1183  -21.8827 C   0  0  0  0  0  0  0  0  0  0  0  0
  -17.5652   12.9898  -20.9060 C   0  0  0  0  0  0  0  0  0  0  0  0
  -16.9890   11.8636  -21.2615 C   0  0  0  0  0  0  0  0  0  0  0  0
  -16.9290   10.7075  -20.3386 C   0  0  0  0  0  0  0  0  0  0  0  0
  -16.9907    9.5761  -20.8041 O   0  0  0  0  0  0  0  0  0  0  0  0
  -16.7954   11.0740  -18.8985 C   0  0  0  0  0  0  0  0  0  0  0  0
  -17.0663   12.5261  -18.6304 C   0  0  0  0  0  0  0  0  0  0  0  0
  -18.1507   13.1044  -19.5662 C   0  0  0  0  0  0  0  0  0  0  0  0
  -19.3419   12.2030  -19.3204 C   0  0  0  0  0  0  0  0  0  0  0  0
  -19.2227   16.1097  -20.2386 C   0  0  0  0  0  0  0  0  0  0  0  0
  -19.8033   17.3966  -19.8197 C   0  0  0  0  0  0  0  0  0  0  0  0
  1  2  1  0  0  0
  2  3  1  0  0  0
  3  4  1  0  0  0
  4  5  1  0  0  0
  5  6  1  0  0  0
  6  7  1  0  0  0
  7  8  1  0  0  0
  8  9  1  0  0  0
  9 10  1  0  0  0
 10 11  2  0  0  0
 11 12  1  0  0  0
 12 13  2  0  0  0
 12 14  1  0  0  0
 14 15  1  0  0  0
 15 16  1  0  0  0
 16 17  1  0  0  0
  7 18  1  0  0  0
 18 19  1  0  0  0
 19  2  1  0  0  0
 18  5  1  0  0  0
 16  6  1  0  0  0
 16 10  1  0  0  0
M  END
> <minimizedAffinity>
-6.82877

> <CNNscore>
0.3031939864

> <CNNaffinity>
5.6133279800

> <CNN_VS>
1.7019273043

> <CNNaffinity_variance>
0.3239905238

$$$$
[H]C1=C2C([H])([H])C([H])([H])[C@@]3([H])[C@]4([H])C([H])([H])[C@]([H])(C([H])([H])[H])C([H])([H])C([H])([H])[C@@]4([H])[C@@]3([H])[C@]2(C([H])([H])[H])C([H])([H])C([H])([H])C1=O


 19 22  0  0  0  0  0  0  0  0999 V2000
  -23.9335   19.5683  -24.2228 C   0  0  0  0  0  0  0  0  0  0  0  0
  -23.2218   18.2488  -24.0245 C   0  0  0  0  0  0  0  0  0  0  0  0
  -23.6888   17.4535  -22.8694 C   0  0  0  0  0  0  0  0  0  0  0  0
  -23.0966   17.8065  -21.5089 C   0  0  0  0  0  0  0  0  0  0  0  0
  -21.9162   18.6341  -21.7612 C   0  0  0  0  0  0  0  0  0  0  0  0
  -20.6682   18.7093  -21.0368 C   0  0  0  0  0  0  0  0  0  0  0  0
  -19.9373   18.1788  -22.2192 C   0  0  0  0  0  0  0  0  0  0  0  0
  -19.0801   16.9691  -22.0314 C   0  0  0  0  0  0  0  0  0  0  0  0
  -19.6183   16.0027  -20.9886 C   0  0  0  0  0  0  0  0  0  0  0  0
  -19.7543   16.8006  -19.7345 C   0  0  0  0  0  0  0  0  0  0  0  0
  -19.2483   16.3152  -18.6232 C   0  0  0  0  0  0  0  0  0  0  0  0
  -19.3470   17.0580  -17.3464 C   0  0  0  0  0  0  0  0  0  0  0  0
  -19.4680   16.4269  -16.3035 O   0  0  0  0  0  0  0  0  0  0  0  0
  -19.2848   18.5419  -17.4894 C   0  0  0  0  0  0  0  0  0  0  0  0
  -19.4546   19.0068  -18.9068 C   0  0  0  0  0  0  0  0  0  0  0  0
  -20.4205   18.1070  -19.7089 C   0  0  0  0  0  0  0  0  0  0  0  0
  -21.6953   18.1477  -18.8935 C   0  0  0  0  0  0  0  0  0  0  0  0
  -21.1948   17.8285  -22.8642 C   0  0  0  0  0  0  0  0  0  0  0  0
  -21.6965   18.4001  -24.1253 C   0  0  0  0  0  0  0  0  0  0  0  0
  1  2  1  0  0  0
  2  3  1  0  0  0
  3  4  1  0  0  0
  4  5  1  0  0  0
  5  6  1  0  0  0
  6  7  1  0  0  0
  7  8  1  0  0  0
  8  9  1  0  0  0
  9 10  1  0  0  0
 10 11  2  0  0  0
 11 12  1  0  0  0
 12 13  2  0  0  0
 12 14  1  0  0  0
 14 15  1  0  0  0
 15 16  1  0  0  0
 16 17  1  0  0  0
  7 18  1  0  0  0
 18 19  1  0  0  0
 19  2  1  0  0  0
 18  5  1  0  0  0
 16  6  1  0  0  0
 16 10  1  0  0  0
M  END
> <minimizedAffinity>
-5.11176

> <CNNscore>
0.2943980694

> <CNNaffinity>
5.2526488304

> <CNN_VS>
1.5463696718

> <CNNaffinity_variance>
0.2938016653

$$$$
[H]C1=C2C([H])([H])C([H])([H])[C@@]3([H])[C@]4([H])C([H])([H])[C@]([H])(C([H])([H])[H])C([H])([H])C([H])([H])[C@@]4([H])[C@@]3([H])[C@]2(C([H])([H])[H])C([H])([H])C([H])([H])C1=O


 19 22  0  0  0  0  0  0  0  0999 V2000
  -13.8389   15.1894  -25.6477 C   0  0  0  0  0  0  0  0  0  0  0  0
  -15.0614   14.5149  -25.0667 C   0  0  0  0  0  0  0  0  0  0  0  0
  -16.3553   15.0395  -25.5518 C   0  0  0  0  0  0  0  0  0  0  0  0
  -16.8956   16.2842  -24.8553 C   0  0  0  0  0  0  0  0  0  0  0  0
  -16.1407   16.4359  -23.6107 C   0  0  0  0  0  0  0  0  0  0  0  0
  -16.5694   16.9373  -22.3251 C   0  0  0  0  0  0  0  0  0  0  0  0
  -16.3474   15.5980  -21.7164 C   0  0  0  0  0  0  0  0  0  0  0  0
  -17.4825   14.9633  -20.9801 C   0  0  0  0  0  0  0  0  0  0  0  0
  -18.8456   15.3055  -21.5595 C   0  0  0  0  0  0  0  0  0  0  0  0
  -18.9246   16.7960  -21.5459 C   0  0  0  0  0  0  0  0  0  0  0  0
  -19.9937   17.3638  -21.0348 C   0  0  0  0  0  0  0  0  0  0  0  0
  -20.1326   18.8370  -20.9887 C   0  0  0  0  0  0  0  0  0  0  0  0
  -21.2465   19.3298  -21.1191 O   0  0  0  0  0  0  0  0  0  0  0  0
  -18.8505   19.5714  -20.7811 C   0  0  0  0  0  0  0  0  0  0  0  0
  -17.6371   18.7092  -20.9765 C   0  0  0  0  0  0  0  0  0  0  0  0
  -17.8460   17.6397  -22.0712 C   0  0  0  0  0  0  0  0  0  0  0  0
  -18.2213   18.4551  -23.2901 C   0  0  0  0  0  0  0  0  0  0  0  0
  -16.1874   15.0030  -23.0356 C   0  0  0  0  0  0  0  0  0  0  0  0
  -14.9612   14.3632  -23.5414 C   0  0  0  0  0  0  0  0  0  0  0  0
  1  2  1  0  0  0
  2  3  1  0  0  0
  3  4  1  0  0  0
  4  5  1  0  0  0
  5  6  1  0  0  0
  6  7  1  0  0  0
  7  8  1  0  0  0
  8  9  1  0  0  0
  9 10  1  0  0  0
 10 11  2  0  0  0
 11 12  1  0  0  0
 12 13  2  0  0  0
 12 14  1  0  0  0
 14 15  1  0  0  0
 15 16  1  0  0  0
 16 17  1  0  0  0
  7 18  1  0  0  0
 18 19  1  0  0  0
 19  2  1  0  0  0
 18  5  1  0  0  0
 16  6  1  0  0  0
 16 10  1  0  0  0
M  END
> <minimizedAffinity>
-7.50224

> <CNNscore>
0.2879696786

> <CNNaffinity>
5.6380114555

> <CNN_VS>
1.6235764027

> <CNNaffinity_variance>
0.0825220868

$$$$
[H]C1=C2C([H])([H])C([H])([H])[C@@]3([H])[C@]4([H])C([H])([H])[C@]([H])(C([H])([H])[H])C([H])([H])C([H])([H])[C@@]4([H])[C@@]3([H])[C@]2(C([H])([H])[H])C([H])([H])C([H])([H])C1=O


 19 22  0  0  0  0  0  0  0  0999 V2000
  -22.1145   18.6826  -24.2520 C   0  0  0  0  0  0  0  0  0  0  0  0
  -21.1689   19.2232  -23.2029 C   0  0  0  0  0  0  0  0  0  0  0  0
  -19.8908   18.4917  -23.0762 C   0  0  0  0  0  0  0  0  0  0  0  0
  -19.9005   17.2386  -22.2069 C   0  0  0  0  0  0  0  0  0  0  0  0
  -21.1281   17.2832  -21.4113 C   0  0  0  0  0  0  0  0  0  0  0  0
  -21.3733   16.8226  -20.0638 C   0  0  0  0  0  0  0  0  0  0  0  0
  -21.6228   18.2204  -19.6196 C   0  0  0  0  0  0  0  0  0  0  0  0
  -20.8276   18.7449  -18.4681 C   0  0  0  0  0  0  0  0  0  0  0  0
  -19.4192   18.1773  -18.3976 C   0  0  0  0  0  0  0  0  0  0  0  0
  -19.5863   16.6951  -18.3420 C   0  0  0  0  0  0  0  0  0  0  0  0
  -18.9406   16.0244  -17.4147 C   0  0  0  0  0  0  0  0  0  0  0  0
  -19.0656   14.5534  -17.3039 C   0  0  0  0  0  0  0  0  0  0  0  0
  -18.0944   13.9040  -16.9358 O   0  0  0  0  0  0  0  0  0  0  0  0
  -20.4104   14.0194  -17.6678 C   0  0  0  0  0  0  0  0  0  0  0  0
  -21.2738   15.0236  -18.3749 C   0  0  0  0  0  0  0  0  0  0  0  0
  -20.4538   15.9717  -19.2776 C   0  0  0  0  0  0  0  0  0  0  0  0
  -19.7256   15.0258  -20.2085 C   0  0  0  0  0  0  0  0  0  0  0  0
  -21.1093   18.7341  -20.8815 C   0  0  0  0  0  0  0  0  0  0  0  0
  -21.8861   19.4978  -21.8726 C   0  0  0  0  0  0  0  0  0  0  0  0
  1  2  1  0  0  0
  2  3  1  0  0  0
  3  4  1  0  0  0
  4  5  1  0  0  0
  5  6  1  0  0  0
  6  7  1  0  0  0
  7  8  1  0  0  0
  8  9  1  0  0  0
  9 10  1  0  0  0
 10 11  2  0  0  0
 11 12  1  0  0  0
 12 13  2  0  0  0
 12 14  1  0  0  0
 14 15  1  0  0  0
 15 16  1  0  0  0
 16 17  1  0  0  0
  7 18  1  0  0  0
 18 19  1  0  0  0
 19  2  1  0  0  0
 18  5  1  0  0  0
 16  6  1  0  0  0
 16 10  1  0  0  0
M  END
> <minimizedAffinity>
-5.24893

> <CNNscore>
0.2463215739

> <CNNaffinity>
5.2928204536

> <CNN_VS>
1.3037358522

> <CNNaffinity_variance>
0.3203164637

$$$$
[H]C1=C2C([H])([H])C([H])([H])[C@@]3([H])[C@]4([H])C([H])([H])[C@]([H])(C([H])([H])[H])C([H])([H])C([H])([H])[C@@]4([H])[C@@]3([H])[C@]2(C([H])([H])[H])C([H])([H])C([H])([H])C1=O


 19 22  0  0  0  0  0  0  0  0999 V2000
  -16.7254   11.4497  -18.9790 C   0  0  0  0  0  0  0  0  0  0  0  0
  -17.7970   12.1585  -19.7766 C   0  0  0  0  0  0  0  0  0  0  0  0
  -17.9347   11.7083  -21.1778 C   0  0  0  0  0  0  0  0  0  0  0  0
  -16.9799   12.3261  -22.1940 C   0  0  0  0  0  0  0  0  0  0  0  0
  -16.3897   13.5057  -21.5599 C   0  0  0  0  0  0  0  0  0  0  0  0
  -15.9921   14.7668  -22.1427 C   0  0  0  0  0  0  0  0  0  0  0  0
  -17.0339   15.4741  -21.3503 C   0  0  0  0  0  0  0  0  0  0  0  0
  -18.0160   16.3288  -22.0842 C   0  0  0  0  0  0  0  0  0  0  0  0
  -18.3568   15.8046  -23.4698 C   0  0  0  0  0  0  0  0  0  0  0  0
  -17.0534   15.6946  -24.1888 C   0  0  0  0  0  0  0  0  0  0  0  0
  -16.9526   16.2179  -25.3900 C   0  0  0  0  0  0  0  0  0  0  0  0
  -15.6872   16.1453  -26.1549 C   0  0  0  0  0  0  0  0  0  0  0  0
  -15.7391   16.0398  -27.3743 O   0  0  0  0  0  0  0  0  0  0  0  0
  -14.4547   16.2120  -25.3166 C   0  0  0  0  0  0  0  0  0  0  0  0
  -14.7246   16.0193  -23.8524 C   0  0  0  0  0  0  0  0  0  0  0  0
  -15.8866   15.0351  -23.5934 C   0  0  0  0  0  0  0  0  0  0  0  0
  -15.4436   13.7752  -24.3060 C   0  0  0  0  0  0  0  0  0  0  0  0
  -17.6348   14.2037  -20.9693 C   0  0  0  0  0  0  0  0  0  0  0  0
  -17.7319   13.6824  -19.5953 C   0  0  0  0  0  0  0  0  0  0  0  0
  1  2  1  0  0  0
  2  3  1  0  0  0
  3  4  1  0  0  0
  4  5  1  0  0  0
  5  6  1  0  0  0
  6  7  1  0  0  0
  7  8  1  0  0  0
  8  9  1  0  0  0
  9 10  1  0  0  0
 10 11  2  0  0  0
 11 12  1  0  0  0
 12 13  2  0  0  0
 12 14  1  0  0  0
 14 15  1  0  0  0
 15 16  1  0  0  0
 16 17  1  0  0  0
  7 18  1  0  0  0
 18 19  1  0  0  0
 19  2  1  0  0  0
 18  5  1  0  0  0
 16  6  1  0  0  0
 16 10  1  0  0  0
M  END
> <minimizedAffinity>
-6.47855

> <CNNscore>
0.2380926609

> <CNNaffinity>
5.8269147873

> <CNN_VS>
1.3873456717

> <CNNaffinity_variance>
0.1193306223

$$$$
[H]OC(=O)[C@@]([H])(N([H])C(=O)[C@]([H])(N([H])[H])C([H])([H])[H])C([H])([H])c1c([H])c([H])c(O[H])c([H])c1[H]


 23 23  0  0  0  0  0  0  0  0999 V2000
  -17.2841   16.2436  -23.4175 C   0  0  0  0  0  0  0  0  0  0  0  0
  -16.2866   15.3038  -25.5421 C   0  0  0  0  0  0  0  0  0  0  0  0
  -17.1736   14.4202  -25.6482 O   0  0  0  0  0  0  0  0  0  0  0  0
  -16.2605   16.2394  -24.4833 N   0  0  0  0  0  0  0  0  0  0  0  0
  -15.5045   16.9449  -24.4482 H   0  0  0  0  0  0  0  0  0  0  0  0
  -15.8103   15.5481  -27.9634 C   0  0  0  0  0  0  0  0  0  0  0  0
  -15.2293   15.3569  -26.5762 C   0  0  0  0  0  0  0  0  0  0  0  0
  -14.3002   16.4578  -26.2978 N   0  0  0  0  0  0  0  0  0  0  0  0
  -13.8632   16.7399  -27.1945 H   0  0  0  0  0  0  0  0  0  0  0  0
  -13.5522   16.1585  -25.6358 H   0  0  0  0  0  0  0  0  0  0  0  0
  -17.9437   17.5457  -23.3981 C   0  0  0  0  0  0  0  0  0  0  0  0
  -18.7964   17.7969  -22.5006 O   0  0  0  0  0  0  0  0  0  0  0  0
  -17.6915   18.5652  -24.3274 O   0  0  0  0  0  0  0  0  0  0  0  0
  -16.7208   18.8469  -24.5250 H   0  0  0  0  0  0  0  0  0  0  0  0
  -16.5915   15.8171  -22.1774 C   0  0  0  0  0  0  0  0  0  0  0  0
  -17.2345   14.7821  -21.3704 C   0  0  0  0  0  0  0  0  0  0  0  0
  -17.3009   13.4542  -21.7676 C   0  0  0  0  0  0  0  0  0  0  0  0
  -17.9093   12.5539  -20.9398 C   0  0  0  0  0  0  0  0  0  0  0  0
  -18.4611   12.8962  -19.7294 C   0  0  0  0  0  0  0  0  0  0  0  0
  -19.0825   11.9747  -18.8847 O   0  0  0  0  0  0  0  0  0  0  0  0
  -18.3910   14.2156  -19.3429 C   0  0  0  0  0  0  0  0  0  0  0  0
  -17.7867   15.1397  -20.1533 C   0  0  0  0  0  0  0  0  0  0  0  0
  -19.1667   11.0057  -19.1050 H   0  0  0  0  0  0  0  0  0  0  0  0
  6  7  1  0  0  0
  7  8  1  0  0  0
  7  2  1  0  0  0
  2  3  2  0  0  0
  2  4  1  0  0  0
  4  1  1  0  0  0
  1 15  1  0  0  0
 15 16  1  0  0  0
 16 17  2  0  0  0
 17 18  1  0  0  0
 18 19  2  0  0  0
 19 20  1  0  0  0
 19 21  1  0  0  0
 21 22  2  0  0  0
  1 11  1  0  0  0
 11 12  2  0  0  0
 11 13  1  0  0  0
 22 16  1  0  0  0
  8  9  1  0  0  0
  8 10  1  0  0  0
  4  5  1  0  0  0
 20 23  1  0  0  0
 13 14  1  0  0  0
M  END
> <minimizedAffinity>
-6.36017

> <CNNscore>
0.6298028827

> <CNNaffinity>
5.1855688095

> <CNN_VS>
3.2658860683

> <CNNaffinity_variance>
0.0360855795

$$$$
[H]OC(=O)[C@@]([H])(N([H])C(=O)[C@]([H])(N([H])[H])C([H])([H])[H])C([H])([H])c1c([H])c([H])c(O[H])c([H])c1[H]


 23 23  0  0  0  0  0  0  0  0999 V2000
  -16.9017   12.9618  -24.7999 C   0  0  0  0  0  0  0  0  0  0  0  0
  -14.9923   14.5103  -25.3900 C   0  0  0  0  0  0  0  0  0  0  0  0
  -14.1545   13.8351  -24.7412 O   0  0  0  0  0  0  0  0  0  0  0  0
  -16.3584   14.1589  -25.4747 N   0  0  0  0  0  0  0  0  0  0  0  0
  -17.0022   14.7539  -26.0243 H   0  0  0  0  0  0  0  0  0  0  0  0
  -15.0241   15.7825  -27.5183 C   0  0  0  0  0  0  0  0  0  0  0  0
  -14.5160   15.7234  -26.0911 C   0  0  0  0  0  0  0  0  0  0  0  0
  -14.9601   16.9284  -25.3817 N   0  0  0  0  0  0  0  0  0  0  0  0
  -14.9990   17.7051  -26.0672 H   0  0  0  0  0  0  0  0  0  0  0  0
  -14.2943   17.1817  -24.6202 H   0  0  0  0  0  0  0  0  0  0  0  0
  -17.7733   12.2481  -25.7282 C   0  0  0  0  0  0  0  0  0  0  0  0
  -18.9614   11.9862  -25.3885 O   0  0  0  0  0  0  0  0  0  0  0  0
  -17.3769   11.8223  -27.0043 O   0  0  0  0  0  0  0  0  0  0  0  0
  -16.9203   12.4867  -27.6450 H   0  0  0  0  0  0  0  0  0  0  0  0
  -17.5082   13.4402  -23.5339 C   0  0  0  0  0  0  0  0  0  0  0  0
  -17.2679   12.6457  -22.3311 C   0  0  0  0  0  0  0  0  0  0  0  0
  -18.0322   12.7765  -21.1804 C   0  0  0  0  0  0  0  0  0  0  0  0
  -17.7428   11.9796  -20.1094 C   0  0  0  0  0  0  0  0  0  0  0  0
  -16.7301   11.0517  -20.1122 C   0  0  0  0  0  0  0  0  0  0  0  0
  -16.4357   10.2381  -19.0165 O   0  0  0  0  0  0  0  0  0  0  0  0
  -15.9766   10.9283  -21.2577 C   0  0  0  0  0  0  0  0  0  0  0  0
  -16.2448   11.7145  -22.3466 C   0  0  0  0  0  0  0  0  0  0  0  0
  -16.9423   10.2774  -18.1584 H   0  0  0  0  0  0  0  0  0  0  0  0
  6  7  1  0  0  0
  7  8  1  0  0  0
  7  2  1  0  0  0
  2  3  2  0  0  0
  2  4  1  0  0  0
  4  1  1  0  0  0
  1 15  1  0  0  0
 15 16  1  0  0  0
 16 17  2  0  0  0
 17 18  1  0  0  0
 18 19  2  0  0  0
 19 20  1  0  0  0
 19 21  1  0  0  0
 21 22  2  0  0  0
  1 11  1  0  0  0
 11 12  2  0  0  0
 11 13  1  0  0  0
 22 16  1  0  0  0
  8  9  1  0  0  0
  8 10  1  0  0  0
  4  5  1  0  0  0
 20 23  1  0  0  0
 13 14  1  0  0  0
M  END
> <minimizedAffinity>
-7.11699

> <CNNscore>
0.4835022688

> <CNNaffinity>
5.2372584343

> <CNN_VS>
2.5322263241

> <CNNaffinity_variance>
0.0881160498

$$$$
[H]OC(=O)[C@@]([H])(N([H])C(=O)[C@]([H])(N([H])[H])C([H])([H])[H])C([H])([H])c1c([H])c([H])c(O[H])c([H])c1[H]


 23 23  0  0  0  0  0  0  0  0999 V2000
  -19.6317   14.7329  -18.6340 C   0  0  0  0  0  0  0  0  0  0  0  0
  -18.1146   16.5159  -19.5886 C   0  0  0  0  0  0  0  0  0  0  0  0
  -19.0501   17.3469  -19.7026 O   0  0  0  0  0  0  0  0  0  0  0  0
  -18.3058   15.2130  -19.0759 N   0  0  0  0  0  0  0  0  0  0  0  0
  -17.4970   14.5716  -19.0054 H   0  0  0  0  0  0  0  0  0  0  0  0
  -16.4168   16.4034  -21.3925 C   0  0  0  0  0  0  0  0  0  0  0  0
  -16.7589   16.9309  -20.0129 C   0  0  0  0  0  0  0  0  0  0  0  0
  -16.6564   18.3944  -20.0284 N   0  0  0  0  0  0  0  0  0  0  0  0
  -15.9100   18.6541  -20.6993 H   0  0  0  0  0  0  0  0  0  0  0  0
  -16.4072   18.7626  -19.0852 H   0  0  0  0  0  0  0  0  0  0  0  0
  -19.6070   14.5346  -17.1880 C   0  0  0  0  0  0  0  0  0  0  0  0
  -20.6946   14.5051  -16.5462 O   0  0  0  0  0  0  0  0  0  0  0  0
  -18.4321   14.3686  -16.4404 O   0  0  0  0  0  0  0  0  0  0  0  0
  -17.7307   13.6763  -16.7391 H   0  0  0  0  0  0  0  0  0  0  0  0
  -19.9447   13.5514  -19.4740 C   0  0  0  0  0  0  0  0  0  0  0  0
  -18.8827   12.5671  -19.6720 C   0  0  0  0  0  0  0  0  0  0  0  0
  -18.1366   12.4930  -20.8396 C   0  0  0  0  0  0  0  0  0  0  0  0
  -17.1534   11.5488  -20.9282 C   0  0  0  0  0  0  0  0  0  0  0  0
  -16.8638   10.6651  -19.9174 C   0  0  0  0  0  0  0  0  0  0  0  0
  -15.8586    9.7007  -20.0098 O   0  0  0  0  0  0  0  0  0  0  0  0
  -17.6087   10.7453  -18.7625 C   0  0  0  0  0  0  0  0  0  0  0  0
  -18.6007   11.6824  -18.6463 C   0  0  0  0  0  0  0  0  0  0  0  0
  -15.2838    9.5900  -20.8173 H   0  0  0  0  0  0  0  0  0  0  0  0
  6  7  1  0  0  0
  7  8  1  0  0  0
  7  2  1  0  0  0
  2  3  2  0  0  0
  2  4  1  0  0  0
  4  1  1  0  0  0
  1 15  1  0  0  0
 15 16  1  0  0  0
 16 17  2  0  0  0
 17 18  1  0  0  0
 18 19  2  0  0  0
 19 20  1  0  0  0
 19 21  1  0  0  0
 21 22  2  0  0  0
  1 11  1  0  0  0
 11 12  2  0  0  0
 11 13  1  0  0  0
 22 16  1  0  0  0
  8  9  1  0  0  0
  8 10  1  0  0  0
  4  5  1  0  0  0
 20 23  1  0  0  0
 13 14  1  0  0  0
M  END
> <minimizedAffinity>
-6.73032

> <CNNscore>
0.4562316835

> <CNNaffinity>
4.5932168961

> <CNN_VS>
2.0955710411

> <CNNaffinity_variance>
0.0375603698

$$$$
[H]OC(=O)[C@@]([H])(N([H])C(=O)[C@]([H])(N([H])[H])C([H])([H])[H])C([H])([H])c1c([H])c([H])c(O[H])c([H])c1[H]


 23 23  0  0  0  0  0  0  0  0999 V2000
  -19.4071   14.9183  -19.2305 C   0  0  0  0  0  0  0  0  0  0  0  0
  -20.9846   14.7972  -17.2585 C   0  0  0  0  0  0  0  0  0  0  0  0
  -20.2161   14.0502  -16.6028 O   0  0  0  0  0  0  0  0  0  0  0  0
  -20.6717   15.2714  -18.5525 N   0  0  0  0  0  0  0  0  0  0  0  0
  -21.3443   15.8845  -19.0446 H   0  0  0  0  0  0  0  0  0  0  0  0
  -22.0993   15.5546  -15.1769 C   0  0  0  0  0  0  0  0  0  0  0  0
  -22.2696   15.1905  -16.6387 C   0  0  0  0  0  0  0  0  0  0  0  0
  -22.8457   16.3389  -17.3471 N   0  0  0  0  0  0  0  0  0  0  0  0
  -23.4657   16.8423  -16.6861 H   0  0  0  0  0  0  0  0  0  0  0  0
  -23.4074   16.0289  -18.1691 H   0  0  0  0  0  0  0  0  0  0  0  0
  -18.9188   16.0838  -19.9612 C   0  0  0  0  0  0  0  0  0  0  0  0
  -17.9706   16.7662  -19.4806 O   0  0  0  0  0  0  0  0  0  0  0  0
  -19.4390   16.5111  -21.1915 O   0  0  0  0  0  0  0  0  0  0  0  0
  -19.5481   15.8361  -21.9615 H   0  0  0  0  0  0  0  0  0  0  0  0
  -19.6885   13.6941  -20.0190 C   0  0  0  0  0  0  0  0  0  0  0  0
  -18.7029   12.6166  -19.9621 C   0  0  0  0  0  0  0  0  0  0  0  0
  -18.4733   11.8695  -18.8156 C   0  0  0  0  0  0  0  0  0  0  0  0
  -17.5419   10.8714  -18.8614 C   0  0  0  0  0  0  0  0  0  0  0  0
  -16.8176   10.5675  -19.9882 C   0  0  0  0  0  0  0  0  0  0  0  0
  -15.8659    9.5470  -20.0331 O   0  0  0  0  0  0  0  0  0  0  0  0
  -17.0514   11.3135  -21.1213 C   0  0  0  0  0  0  0  0  0  0  0  0
  -17.9797   12.3203  -21.1038 C   0  0  0  0  0  0  0  0  0  0  0  0
  -15.6492    8.9707  -19.2485 H   0  0  0  0  0  0  0  0  0  0  0  0
  6  7  1  0  0  0
  7  8  1  0  0  0
  7  2  1  0  0  0
  2  3  2  0  0  0
  2  4  1  0  0  0
  4  1  1  0  0  0
  1 15  1  0  0  0
 15 16  1  0  0  0
 16 17  2  0  0  0
 17 18  1  0  0  0
 18 19  2  0  0  0
 19 20  1  0  0  0
 19 21  1  0  0  0
 21 22  2  0  0  0
  1 11  1  0  0  0
 11 12  2  0  0  0
 11 13  1  0  0  0
 22 16  1  0  0  0
  8  9  1  0  0  0
  8 10  1  0  0  0
  4  5  1  0  0  0
 20 23  1  0  0  0
 13 14  1  0  0  0
M  END
> <minimizedAffinity>
-5.47473

> <CNNscore>
0.4537669718

> <CNNaffinity>
4.2299690247

> <CNN_VS>
1.9194202423

> <CNNaffinity_variance>
0.0524692759

$$$$
[H]OC(=O)[C@@]([H])(N([H])C(=O)[C@]([H])(N([H])[H])C([H])([H])[H])C([H])([H])c1c([H])c([H])c(O[H])c([H])c1[H]


 23 23  0  0  0  0  0  0  0  0999 V2000
  -17.9348   10.8933  -19.0374 C   0  0  0  0  0  0  0  0  0  0  0  0
  -18.9806    9.7234  -17.0551 C   0  0  0  0  0  0  0  0  0  0  0  0
  -20.0363   10.4010  -17.1258 O   0  0  0  0  0  0  0  0  0  0  0  0
  -17.8990    9.8954  -17.9482 N   0  0  0  0  0  0  0  0  0  0  0  0
  -17.0541    9.3078  -17.8412 H   0  0  0  0  0  0  0  0  0  0  0  0
  -19.2314    9.2781  -14.6286 C   0  0  0  0  0  0  0  0  0  0  0  0
  -18.8770    8.7047  -15.9866 C   0  0  0  0  0  0  0  0  0  0  0  0
  -19.7714    7.5768  -16.2706 N   0  0  0  0  0  0  0  0  0  0  0  0
  -20.0034    7.1199  -15.3695 H   0  0  0  0  0  0  0  0  0  0  0  0
  -19.3097    6.8804  -16.8945 H   0  0  0  0  0  0  0  0  0  0  0  0
  -16.9389   10.5349  -20.0427 C   0  0  0  0  0  0  0  0  0  0  0  0
  -16.9501   11.1170  -21.1637 O   0  0  0  0  0  0  0  0  0  0  0  0
  -15.9435    9.5664  -19.8481 O   0  0  0  0  0  0  0  0  0  0  0  0
  -15.3563    9.6008  -19.0028 H   0  0  0  0  0  0  0  0  0  0  0  0
  -17.7943   12.2193  -18.3882 C   0  0  0  0  0  0  0  0  0  0  0  0
  -18.6529   13.2987  -18.8713 C   0  0  0  0  0  0  0  0  0  0  0  0
  -19.7684   13.0721  -19.6649 C   0  0  0  0  0  0  0  0  0  0  0  0
  -20.5205   14.1429  -20.0566 C   0  0  0  0  0  0  0  0  0  0  0  0
  -20.2287   15.4381  -19.7043 C   0  0  0  0  0  0  0  0  0  0  0  0
  -20.9986   16.5313  -20.1057 O   0  0  0  0  0  0  0  0  0  0  0  0
  -19.1204   15.6543  -18.9170 C   0  0  0  0  0  0  0  0  0  0  0  0
  -18.3483   14.5989  -18.5096 C   0  0  0  0  0  0  0  0  0  0  0  0
  -21.8123   16.4435  -20.6755 H   0  0  0  0  0  0  0  0  0  0  0  0
  6  7  1  0  0  0
  7  8  1  0  0  0
  7  2  1  0  0  0
  2  3  2  0  0  0
  2  4  1  0  0  0
  4  1  1  0  0  0
  1 15  1  0  0  0
 15 16  1  0  0  0
 16 17  2  0  0  0
 17 18  1  0  0  0
 18 19  2  0  0  0
 19 20  1  0  0  0
 19 21  1  0  0  0
 21 22  2  0  0  0
  1 11  1  0  0  0
 11 12  2  0  0  0
 11 13  1  0  0  0
 22 16  1  0  0  0
  8  9  1  0  0  0
  8 10  1  0  0  0
  4  5  1  0  0  0
 20 23  1  0  0  0
 13 14  1  0  0  0
M  END
> <minimizedAffinity>
-5.75532

> <CNNscore>
0.4051977098

> <CNNaffinity>
4.1216273308

> <CNN_VS>
1.6700739861

> <CNNaffinity_variance>
0.0641441196

$$$$
[H]OC(=O)[C@@]([H])(N([H])C(=O)[C@]([H])(N([H])[H])C([H])([H])[H])C([H])([H])c1c([H])c([H])c(O[H])c([H])c1[H]


 23 23  0  0  0  0  0  0  0  0999 V2000
  -18.7184   15.7004  -21.4101 C   0  0  0  0  0  0  0  0  0  0  0  0
  -17.1549   16.1103  -23.3541 C   0  0  0  0  0  0  0  0  0  0  0  0
  -17.4485   15.0214  -23.9079 O   0  0  0  0  0  0  0  0  0  0  0  0
  -17.7265   16.5256  -22.1302 N   0  0  0  0  0  0  0  0  0  0  0  0
  -17.4458   17.4337  -21.7214 H   0  0  0  0  0  0  0  0  0  0  0  0
  -15.1891   16.1910  -24.8635 C   0  0  0  0  0  0  0  0  0  0  0  0
  -16.1669   16.9869  -24.0216 C   0  0  0  0  0  0  0  0  0  0  0  0
  -16.8493   17.9589  -24.8831 N   0  0  0  0  0  0  0  0  0  0  0  0
  -16.1855   18.2477  -25.6251 H   0  0  0  0  0  0  0  0  0  0  0  0
  -17.1392   18.8014  -24.3413 H   0  0  0  0  0  0  0  0  0  0  0  0
  -19.9743   16.4389  -21.3195 C   0  0  0  0  0  0  0  0  0  0  0  0
  -20.1061   17.5211  -21.9575 O   0  0  0  0  0  0  0  0  0  0  0  0
  -21.0744   16.0220  -20.5563 O   0  0  0  0  0  0  0  0  0  0  0  0
  -21.4268   15.0592  -20.6525 H   0  0  0  0  0  0  0  0  0  0  0  0
  -18.0754   15.2996  -20.1351 C   0  0  0  0  0  0  0  0  0  0  0  0
  -17.8398   13.8733  -19.9203 C   0  0  0  0  0  0  0  0  0  0  0  0
  -18.0542   13.2533  -18.6977 C   0  0  0  0  0  0  0  0  0  0  0  0
  -17.8208   11.9113  -18.5955 C   0  0  0  0  0  0  0  0  0  0  0  0
  -17.3830   11.1404  -19.6447 C   0  0  0  0  0  0  0  0  0  0  0  0
  -17.1449    9.7689  -19.5383 O   0  0  0  0  0  0  0  0  0  0  0  0
  -17.1728   11.7633  -20.8541 C   0  0  0  0  0  0  0  0  0  0  0  0
  -17.3988   13.1078  -20.9851 C   0  0  0  0  0  0  0  0  0  0  0  0
  -17.2773    9.2580  -18.6921 H   0  0  0  0  0  0  0  0  0  0  0  0
  6  7  1  0  0  0
  7  8  1  0  0  0
  7  2  1  0  0  0
  2  3  2  0  0  0
  2  4  1  0  0  0
  4  1  1  0  0  0
  1 15  1  0  0  0
 15 16  1  0  0  0
 16 17  2  0  0  0
 17 18  1  0  0  0
 18 19  2  0  0  0
 19 20  1  0  0  0
 19 21  1  0  0  0
 21 22  2  0  0  0
  1 11  1  0  0  0
 11 12  2  0  0  0
 11 13  1  0  0  0
 22 16  1  0  0  0
  8  9  1  0  0  0
  8 10  1  0  0  0
  4  5  1  0  0  0
 20 23  1  0  0  0
 13 14  1  0  0  0
M  END
> <minimizedAffinity>
-5.67886

> <CNNscore>
0.3470438421

> <CNNaffinity>
4.6403961182

> <CNN_VS>
1.6104209423

> <CNNaffinity_variance>
0.0639177337

$$$$
[H]OC(=O)[C@@]([H])(N([H])C(=O)[C@]([H])(N([H])[H])C([H])([H])[H])C([H])([H])c1c([H])c([H])c(O[H])c([H])c1[H]


 23 23  0  0  0  0  0  0  0  0999 V2000
  -16.7986   13.7011  -22.5010 C   0  0  0  0  0  0  0  0  0  0  0  0
  -18.2832   15.1365  -21.0424 C   0  0  0  0  0  0  0  0  0  0  0  0
  -18.9189   15.5958  -22.0240 O   0  0  0  0  0  0  0  0  0  0  0  0
  -17.2297   14.2047  -21.1804 N   0  0  0  0  0  0  0  0  0  0  0  0
  -16.7420   13.8613  -20.3349 H   0  0  0  0  0  0  0  0  0  0  0  0
  -20.0819   16.1315  -19.6555 C   0  0  0  0  0  0  0  0  0  0  0  0
  -18.6630   15.5986  -19.6888 C   0  0  0  0  0  0  0  0  0  0  0  0
  -18.5493   14.4983  -18.7249 N   0  0  0  0  0  0  0  0  0  0  0  0
  -19.1913   14.6986  -17.9361 H   0  0  0  0  0  0  0  0  0  0  0  0
  -17.5762   14.4202  -18.3584 H   0  0  0  0  0  0  0  0  0  0  0  0
  -16.3624   12.3151  -22.3613 C   0  0  0  0  0  0  0  0  0  0  0  0
  -16.9863   11.5431  -21.5800 O   0  0  0  0  0  0  0  0  0  0  0  0
  -15.2730   11.7638  -23.0512 O   0  0  0  0  0  0  0  0  0  0  0  0
  -15.2016   11.8835  -24.0715 H   0  0  0  0  0  0  0  0  0  0  0  0
  -15.8035   14.6757  -23.0105 C   0  0  0  0  0  0  0  0  0  0  0  0
  -15.7586   14.8980  -24.4542 C   0  0  0  0  0  0  0  0  0  0  0  0
  -16.7916   14.5268  -25.3030 C   0  0  0  0  0  0  0  0  0  0  0  0
  -16.6671   14.7888  -26.6378 C   0  0  0  0  0  0  0  0  0  0  0  0
  -15.5676   15.4032  -27.1859 C   0  0  0  0  0  0  0  0  0  0  0  0
  -15.4420   15.6700  -28.5505 O   0  0  0  0  0  0  0  0  0  0  0  0
  -14.5472   15.7682  -26.3370 C   0  0  0  0  0  0  0  0  0  0  0  0
  -14.6456   15.5177  -24.9941 C   0  0  0  0  0  0  0  0  0  0  0  0
  -16.1436   15.4317  -29.2180 H   0  0  0  0  0  0  0  0  0  0  0  0
  6  7  1  0  0  0
  7  8  1  0  0  0
  7  2  1  0  0  0
  2  3  2  0  0  0
  2  4  1  0  0  0
  4  1  1  0  0  0
  1 15  1  0  0  0
 15 16  1  0  0  0
 16 17  2  0  0  0
 17 18  1  0  0  0
 18 19  2  0  0  0
 19 20  1  0  0  0
 19 21  1  0  0  0
 21 22  2  0  0  0
  1 11  1  0  0  0
 11 12  2  0  0  0
 11 13  1  0  0  0
 22 16  1  0  0  0
  8  9  1  0  0  0
  8 10  1  0  0  0
  4  5  1  0  0  0
 20 23  1  0  0  0
 13 14  1  0  0  0
M  END
> <minimizedAffinity>
-5.83528

> <CNNscore>
0.3461035192

> <CNNaffinity>
4.7735791206

> <CNN_VS>
1.6521525383

> <CNNaffinity_variance>
0.0656938404

$$$$
[H]OC(=O)[C@@]([H])(N([H])C(=O)[C@]([H])(N([H])[H])C([H])([H])[H])C([H])([H])c1c([H])c([H])c(O[H])c([H])c1[H]


 23 23  0  0  0  0  0  0  0  0999 V2000
  -16.9722   11.8118  -20.7411 C   0  0  0  0  0  0  0  0  0  0  0  0
  -16.7974   13.1236  -22.8953 C   0  0  0  0  0  0  0  0  0  0  0  0
  -16.5939   14.2095  -22.2970 O   0  0  0  0  0  0  0  0  0  0  0  0
  -16.9934   11.8999  -22.2160 N   0  0  0  0  0  0  0  0  0  0  0  0
  -17.1569   11.0367  -22.7625 H   0  0  0  0  0  0  0  0  0  0  0  0
  -17.8935   14.0841  -24.9015 C   0  0  0  0  0  0  0  0  0  0  0  0
  -16.8314   13.1393  -24.3747 C   0  0  0  0  0  0  0  0  0  0  0  0
  -15.5280   13.5493  -24.9092 N   0  0  0  0  0  0  0  0  0  0  0  0
  -15.6832   13.9547  -25.8505 H   0  0  0  0  0  0  0  0  0  0  0  0
  -14.8842   12.7333  -24.9938 H   0  0  0  0  0  0  0  0  0  0  0  0
  -16.3641   10.5436  -20.3500 C   0  0  0  0  0  0  0  0  0  0  0  0
  -15.3949   10.0868  -21.0191 O   0  0  0  0  0  0  0  0  0  0  0  0
  -16.7884    9.7765  -19.2554 O   0  0  0  0  0  0  0  0  0  0  0  0
  -16.9064   10.2225  -18.3347 H   0  0  0  0  0  0  0  0  0  0  0  0
  -18.3633   12.0623  -20.2919 C   0  0  0  0  0  0  0  0  0  0  0  0
  -18.5501   12.9519  -19.1475 C   0  0  0  0  0  0  0  0  0  0  0  0
  -18.9164   12.4911  -17.8909 C   0  0  0  0  0  0  0  0  0  0  0  0
  -19.0530   13.3962  -16.8770 C   0  0  0  0  0  0  0  0  0  0  0  0
  -18.8456   14.7445  -17.0373 C   0  0  0  0  0  0  0  0  0  0  0  0
  -18.9857   15.6681  -15.9998 O   0  0  0  0  0  0  0  0  0  0  0  0
  -18.4825   15.1934  -18.2870 C   0  0  0  0  0  0  0  0  0  0  0  0
  -18.3383   14.3080  -19.3219 C   0  0  0  0  0  0  0  0  0  0  0  0
  -19.2460   15.4090  -15.0725 H   0  0  0  0  0  0  0  0  0  0  0  0
  6  7  1  0  0  0
  7  8  1  0  0  0
  7  2  1  0  0  0
  2  3  2  0  0  0
  2  4  1  0  0  0
  4  1  1  0  0  0
  1 15  1  0  0  0
 15 16  1  0  0  0
 16 17  2  0  0  0
 17 18  1  0  0  0
 18 19  2  0  0  0
 19 20  1  0  0  0
 19 21  1  0  0  0
 21 22  2  0  0  0
  1 11  1  0  0  0
 11 12  2  0  0  0
 11 13  1  0  0  0
 22 16  1  0  0  0
  8  9  1  0  0  0
  8 10  1  0  0  0
  4  5  1  0  0  0
 20 23  1  0  0  0
 13 14  1  0  0  0
M  END
> <minimizedAffinity>
-6.49457

> <CNNscore>
0.3438809812

> <CNNaffinity>
4.8645620346

> <CNN_VS>
1.6728303432

> <CNNaffinity_variance>
0.0161123425

$$$$
[H]OC(=O)[C@@]([H])(N([H])C(=O)[C@]([H])(N([H])[H])C([H])([H])[H])C([H])([H])c1c([H])c([H])c(O[H])c([H])c1[H]


 23 23  0  0  0  0  0  0  0  0999 V2000
  -16.7848   16.9167  -22.7800 C   0  0  0  0  0  0  0  0  0  0  0  0
  -17.8406   17.2249  -20.5036 C   0  0  0  0  0  0  0  0  0  0  0  0
  -17.5873   18.4552  -20.4774 O   0  0  0  0  0  0  0  0  0  0  0  0
  -17.4853   16.3927  -21.5892 N   0  0  0  0  0  0  0  0  0  0  0  0
  -17.7203   15.3857  -21.5547 H   0  0  0  0  0  0  0  0  0  0  0  0
  -19.0632   15.2436  -19.6499 C   0  0  0  0  0  0  0  0  0  0  0  0
  -18.5413   16.6332  -19.3421 C   0  0  0  0  0  0  0  0  0  0  0  0
  -17.6373   16.5533  -18.1893 N   0  0  0  0  0  0  0  0  0  0  0  0
  -17.9754   15.7923  -17.5718 H   0  0  0  0  0  0  0  0  0  0  0  0
  -17.6333   17.4478  -17.6534 H   0  0  0  0  0  0  0  0  0  0  0  0
  -17.7750   17.3616  -23.7559 C   0  0  0  0  0  0  0  0  0  0  0  0
  -17.4628   18.2510  -24.5968 O   0  0  0  0  0  0  0  0  0  0  0  0
  -19.0820   16.8585  -23.8302 O   0  0  0  0  0  0  0  0  0  0  0  0
  -19.2364   15.8405  -23.8533 H   0  0  0  0  0  0  0  0  0  0  0  0
  -15.8436   15.8532  -23.2074 C   0  0  0  0  0  0  0  0  0  0  0  0
  -16.3121   14.9074  -24.2183 C   0  0  0  0  0  0  0  0  0  0  0  0
  -16.1763   15.1363  -25.5801 C   0  0  0  0  0  0  0  0  0  0  0  0
  -16.6312   14.1873  -26.4510 C   0  0  0  0  0  0  0  0  0  0  0  0
  -17.2186   13.0133  -26.0470 C   0  0  0  0  0  0  0  0  0  0  0  0
  -17.6831   12.0446  -26.9386 O   0  0  0  0  0  0  0  0  0  0  0  0
  -17.3496   12.7941  -24.6942 C   0  0  0  0  0  0  0  0  0  0  0  0
  -16.9022   13.7286  -23.7985 C   0  0  0  0  0  0  0  0  0  0  0  0
  -17.6186   12.1416  -27.9290 H   0  0  0  0  0  0  0  0  0  0  0  0
  6  7  1  0  0  0
  7  8  1  0  0  0
  7  2  1  0  0  0
  2  3  2  0  0  0
  2  4  1  0  0  0
  4  1  1  0  0  0
  1 15  1  0  0  0
 15 16  1  0  0  0
 16 17  2  0  0  0
 17 18  1  0  0  0
 18 19  2  0  0  0
 19 20  1  0  0  0
 19 21  1  0  0  0
 21 22  2  0  0  0
  1 11  1  0  0  0
 11 12  2  0  0  0
 11 13  1  0  0  0
 22 16  1  0  0  0
  8  9  1  0  0  0
  8 10  1  0  0  0
  4  5  1  0  0  0
 20 23  1  0  0  0
 13 14  1  0  0  0
M  END
> <minimizedAffinity>
-6.12689

> <CNNscore>
0.3337105215

> <CNNaffinity>
4.7368760109

> <CNN_VS>
1.5807453394

> <CNNaffinity_variance>
0.2184290886

$$$$
[H]c1nc(C(=O)N([H])c2c([H])c([H])c([H])c([H])c2C([H])([H])N([H])[H])c([H])c(-c2c([H])c([H])nc(N([H])C(=O)C([H])([H])c3c([H])c([H])c(N4C([H])([H])C([H])([H])C([H])([H])C([H])([H])C4([H])[H])c([H])c3[H])c2[H])c1[H]


 43 47  0  0  0  0  0  0  0  0999 V2000
  -17.4671   14.4367  -22.2989 C   0  0  0  0  0  0  0  0  0  0  0  0
  -16.6613   14.8667  -23.3609 C   0  0  0  0  0  0  0  0  0  0  0  0
  -15.7379   14.0099  -23.9250 C   0  0  0  0  0  0  0  0  0  0  0  0
  -15.6176   12.7599  -23.4480 N   0  0  0  0  0  0  0  0  0  0  0  0
  -16.3434   12.2724  -22.4423 C   0  0  0  0  0  0  0  0  0  0  0  0
  -17.2727   13.1402  -21.8770 C   0  0  0  0  0  0  0  0  0  0  0  0
  -19.9861   17.1197  -21.8710 C   0  0  0  0  0  0  0  0  0  0  0  0
  -19.0473   16.2883  -22.4731 C   0  0  0  0  0  0  0  0  0  0  0  0
  -18.4529   15.3126  -21.7110 C   0  0  0  0  0  0  0  0  0  0  0  0
  -18.8069   15.1971  -20.3923 C   0  0  0  0  0  0  0  0  0  0  0  0
  -19.7587   16.0550  -19.8193 C   0  0  0  0  0  0  0  0  0  0  0  0
  -20.3222   16.9965  -20.5828 N   0  0  0  0  0  0  0  0  0  0  0  0
  -22.0326   18.2426  -22.7207 N   0  0  0  0  0  0  0  0  0  0  0  0
  -20.6312   18.1699  -22.7273 C   0  0  0  0  0  0  0  0  0  0  0  0
  -19.9178   18.9257  -23.4012 O   0  0  0  0  0  0  0  0  0  0  0  0
  -22.5161   17.5244  -22.0833 H   0  0  0  0  0  0  0  0  0  0  0  0
  -23.4801   18.6687  -24.6219 C   0  0  0  0  0  0  0  0  0  0  0  0
  -24.2984   19.5014  -25.3122 C   0  0  0  0  0  0  0  0  0  0  0  0
  -24.5812   20.7832  -24.8734 C   0  0  0  0  0  0  0  0  0  0  0  0
  -24.0003   21.1905  -23.7039 C   0  0  0  0  0  0  0  0  0  0  0  0
  -23.1517   20.3674  -22.9608 C   0  0  0  0  0  0  0  0  0  0  0  0
  -22.8930   19.1096  -23.4204 C   0  0  0  0  0  0  0  0  0  0  0  0
  -23.8877   17.0533  -26.3378 N   0  0  0  0  0  0  0  0  0  0  0  0
  -23.1892   17.2949  -25.1016 C   0  0  0  0  0  0  0  0  0  0  0  0
  -23.3582   17.5084  -27.1064 H   0  0  0  0  0  0  0  0  0  0  0  0
  -24.0368   16.0332  -26.4883 H   0  0  0  0  0  0  0  0  0  0  0  0
  -16.2068   10.9336  -21.9695 N   0  0  0  0  0  0  0  0  0  0  0  0
  -16.2392   10.5449  -20.6263 C   0  0  0  0  0  0  0  0  0  0  0  0
  -16.0977    9.3033  -20.3668 O   0  0  0  0  0  0  0  0  0  0  0  0
  -16.0661   10.1751  -22.7142 H   0  0  0  0  0  0  0  0  0  0  0  0
  -16.4258   11.4901  -19.5015 C   0  0  0  0  0  0  0  0  0  0  0  0
  -17.5240   11.0155  -18.6147 C   0  0  0  0  0  0  0  0  0  0  0  0
  -18.4372   11.9470  -18.1650 C   0  0  0  0  0  0  0  0  0  0  0  0
  -19.4492   11.5104  -17.3513 C   0  0  0  0  0  0  0  0  0  0  0  0
  -19.6091   10.1816  -16.9519 C   0  0  0  0  0  0  0  0  0  0  0  0
  -18.6652    9.2872  -17.4318 C   0  0  0  0  0  0  0  0  0  0  0  0
  -17.6311    9.6963  -18.2550 C   0  0  0  0  0  0  0  0  0  0  0  0
  -20.6760    9.7848  -16.1098 N   0  0  0  0  0  0  0  0  0  0  0  0
  -21.7828   10.6750  -15.9292 C   0  0  0  0  0  0  0  0  0  0  0  0
  -23.0107   10.0462  -15.3343 C   0  0  0  0  0  0  0  0  0  0  0  0
  -22.5426    9.3334  -14.0706 C   0  0  0  0  0  0  0  0  0  0  0  0
  -21.7007    8.1830  -14.5178 C   0  0  0  0  0  0  0  0  0  0  0  0
  -20.6053    8.5077  -15.4669 C   0  0  0  0  0  0  0  0  0  0  0  0
 23 24  1  0  0  0
 24 17  1  0  0  0
 17 18  2  0  0  0
 18 19  1  0  0  0
 19 20  2  0  0  0
 20 21  1  0  0  0
 21 22  2  0  0  0
 22 13  1  0  0  0
 13 14  1  0  0  0
 14 15  2  0  0  0
 14  7  1  0  0  0
  7  8  2  0  0  0
  8  9  1  0  0  0
  9 10  2  0  0  0
 10 11  1  0  0  0
 11 12  2  0  0  0
  9  1  1  0  0  0
  1  2  2  0  0  0
  2  3  1  0  0  0
  3  4  2  0  0  0
  4  5  1  0  0  0
  5 27  1  0  0  0
 27 28  1  0  0  0
 28 29  2  0  0  0
 28 31  1  0  0  0
 31 32  1  0  0  0
 32 33  2  0  0  0
 33 34  1  0  0  0
 34 35  2  0  0  0
 35 36  1  0  0  0
 36 37  2  0  0  0
 35 38  1  0  0  0
 38 39  1  0  0  0
 39 40  1  0  0  0
 40 41  1  0  0  0
 41 42  1  0  0  0
 42 43  1  0  0  0
  5  6  2  0  0  0
 22 17  1  0  0  0
 12  7  1  0  0  0
  6  1  1  0  0  0
 37 32  1  0  0  0
 43 38  1  0  0  0
 23 25  1  0  0  0
 23 26  1  0  0  0
 13 16  1  0  0  0
 27 30  1  0  0  0
M  END
> <minimizedAffinity>
-9.99005

> <CNNscore>
0.4620241225

> <CNNaffinity>
7.3218307495

> <CNN_VS>
3.3828623295

> <CNNaffinity_variance>
0.1501498520

$$$$
[H]c1nc(C(=O)N([H])c2c([H])c([H])c([H])c([H])c2C([H])([H])N([H])[H])c([H])c(-c2c([H])c([H])nc(N([H])C(=O)C([H])([H])c3c([H])c([H])c(N4C([H])([H])C([H])([H])C([H])([H])C([H])([H])C4([H])[H])c([H])c3[H])c2[H])c1[H]


 43 47  0  0  0  0  0  0  0  0999 V2000
  -18.3832   12.0400  -18.3875 C   0  0  0  0  0  0  0  0  0  0  0  0
  -19.0433   10.9985  -17.7230 C   0  0  0  0  0  0  0  0  0  0  0  0
  -19.8048   11.2603  -16.6020 C   0  0  0  0  0  0  0  0  0  0  0  0
  -19.9084   12.5220  -16.1527 N   0  0  0  0  0  0  0  0  0  0  0  0
  -19.3136   13.5685  -16.7245 C   0  0  0  0  0  0  0  0  0  0  0  0
  -18.5470   13.2991  -17.8541 C   0  0  0  0  0  0  0  0  0  0  0  0
  -16.8708   12.3958  -21.7509 C   0  0  0  0  0  0  0  0  0  0  0  0
  -17.6312   12.6760  -20.6204 C   0  0  0  0  0  0  0  0  0  0  0  0
  -17.5999   11.7873  -19.5737 C   0  0  0  0  0  0  0  0  0  0  0  0
  -16.8235   10.6637  -19.6842 C   0  0  0  0  0  0  0  0  0  0  0  0
  -16.0694   10.4144  -20.8415 C   0  0  0  0  0  0  0  0  0  0  0  0
  -16.1176   11.2951  -21.8460 N   0  0  0  0  0  0  0  0  0  0  0  0
  -15.9794   13.2319  -23.9137 N   0  0  0  0  0  0  0  0  0  0  0  0
  -16.9114   13.3880  -22.8761 C   0  0  0  0  0  0  0  0  0  0  0  0
  -17.7517   14.2977  -22.8530 O   0  0  0  0  0  0  0  0  0  0  0  0
  -15.3164   12.3934  -23.7988 H   0  0  0  0  0  0  0  0  0  0  0  0
  -16.6391   13.8118  -26.1764 C   0  0  0  0  0  0  0  0  0  0  0  0
  -16.4510   14.5404  -27.3048 C   0  0  0  0  0  0  0  0  0  0  0  0
  -15.4388   15.4781  -27.4131 C   0  0  0  0  0  0  0  0  0  0  0  0
  -14.6213   15.6496  -26.3300 C   0  0  0  0  0  0  0  0  0  0  0  0
  -14.7778   14.9218  -25.1487 C   0  0  0  0  0  0  0  0  0  0  0  0
  -15.7849   14.0051  -25.0738 C   0  0  0  0  0  0  0  0  0  0  0  0
  -17.4538   11.6962  -26.9385 N   0  0  0  0  0  0  0  0  0  0  0  0
  -17.7315   12.8128  -26.0722 C   0  0  0  0  0  0  0  0  0  0  0  0
  -16.7566   11.0853  -26.4705 H   0  0  0  0  0  0  0  0  0  0  0  0
  -18.3312   11.1972  -27.1961 H   0  0  0  0  0  0  0  0  0  0  0  0
  -19.4576   14.9007  -16.2356 N   0  0  0  0  0  0  0  0  0  0  0  0
  -20.6032   15.6913  -16.3730 C   0  0  0  0  0  0  0  0  0  0  0  0
  -20.5713   16.8687  -15.8815 O   0  0  0  0  0  0  0  0  0  0  0  0
  -18.6112   15.3177  -15.7263 H   0  0  0  0  0  0  0  0  0  0  0  0
  -21.8379   15.2378  -17.0537 C   0  0  0  0  0  0  0  0  0  0  0  0
  -22.0168   15.9808  -18.3318 C   0  0  0  0  0  0  0  0  0  0  0  0
  -21.1911   15.6544  -19.3880 C   0  0  0  0  0  0  0  0  0  0  0  0
  -21.3570   16.3358  -20.5648 C   0  0  0  0  0  0  0  0  0  0  0  0
  -22.3104   17.3384  -20.7565 C   0  0  0  0  0  0  0  0  0  0  0  0
  -23.1137   17.6270  -19.6644 C   0  0  0  0  0  0  0  0  0  0  0  0
  -22.9712   16.9572  -18.4621 C   0  0  0  0  0  0  0  0  0  0  0  0
  -22.4397   18.0100  -21.9963 N   0  0  0  0  0  0  0  0  0  0  0  0
  -23.5637   17.7109  -22.8312 C   0  0  0  0  0  0  0  0  0  0  0  0
  -23.8204   18.7052  -23.9278 C   0  0  0  0  0  0  0  0  0  0  0  0
  -22.4946   18.8656  -24.6629 C   0  0  0  0  0  0  0  0  0  0  0  0
  -21.5675   19.5633  -23.7216 C   0  0  0  0  0  0  0  0  0  0  0  0
  -21.4376   18.9616  -22.3699 C   0  0  0  0  0  0  0  0  0  0  0  0
 23 24  1  0  0  0
 24 17  1  0  0  0
 17 18  2  0  0  0
 18 19  1  0  0  0
 19 20  2  0  0  0
 20 21  1  0  0  0
 21 22  2  0  0  0
 22 13  1  0  0  0
 13 14  1  0  0  0
 14 15  2  0  0  0
 14  7  1  0  0  0
  7  8  2  0  0  0
  8  9  1  0  0  0
  9 10  2  0  0  0
 10 11  1  0  0  0
 11 12  2  0  0  0
  9  1  1  0  0  0
  1  2  2  0  0  0
  2  3  1  0  0  0
  3  4  2  0  0  0
  4  5  1  0  0  0
  5 27  1  0  0  0
 27 28  1  0  0  0
 28 29  2  0  0  0
 28 31  1  0  0  0
 31 32  1  0  0  0
 32 33  2  0  0  0
 33 34  1  0  0  0
 34 35  2  0  0  0
 35 36  1  0  0  0
 36 37  2  0  0  0
 35 38  1  0  0  0
 38 39  1  0  0  0
 39 40  1  0  0  0
 40 41  1  0  0  0
 41 42  1  0  0  0
 42 43  1  0  0  0
  5  6  2  0  0  0
 22 17  1  0  0  0
 12  7  1  0  0  0
  6  1  1  0  0  0
 37 32  1  0  0  0
 43 38  1  0  0  0
 23 25  1  0  0  0
 23 26  1  0  0  0
 13 16  1  0  0  0
 27 30  1  0  0  0
M  END
> <minimizedAffinity>
-10.78189

> <CNNscore>
0.4520225525

> <CNNaffinity>
7.6113672256

> <CNN_VS>
3.4405095577

> <CNNaffinity_variance>
0.0775325671

$$$$
[H]c1nc(C(=O)N([H])c2c([H])c([H])c([H])c([H])c2C([H])([H])N([H])[H])c([H])c(-c2c([H])c([H])nc(N([H])C(=O)C([H])([H])c3c([H])c([H])c(N4C([H])([H])C([H])([H])C([H])([H])C([H])([H])C4([H])[H])c([H])c3[H])c2[H])c1[H]


 43 47  0  0  0  0  0  0  0  0999 V2000
  -17.8014   11.8442  -20.0481 C   0  0  0  0  0  0  0  0  0  0  0  0
  -16.9238   10.9086  -19.4855 C   0  0  0  0  0  0  0  0  0  0  0  0
  -15.8746   10.4047  -20.2272 C   0  0  0  0  0  0  0  0  0  0  0  0
  -15.7010   10.8184  -21.4934 N   0  0  0  0  0  0  0  0  0  0  0  0
  -16.4887   11.7034  -22.1035 C   0  0  0  0  0  0  0  0  0  0  0  0
  -17.5450   12.2081  -21.3514 C   0  0  0  0  0  0  0  0  0  0  0  0
  -20.2834   12.4055  -17.3553 C   0  0  0  0  0  0  0  0  0  0  0  0
  -19.2218   11.8522  -18.0637 C   0  0  0  0  0  0  0  0  0  0  0  0
  -18.8915   12.3977  -19.2800 C   0  0  0  0  0  0  0  0  0  0  0  0
  -19.6182   13.4617  -19.7460 C   0  0  0  0  0  0  0  0  0  0  0  0
  -20.6836   13.9933  -19.0027 C   0  0  0  0  0  0  0  0  0  0  0  0
  -20.9848   13.4438  -17.8218 N   0  0  0  0  0  0  0  0  0  0  0  0
  -19.5993   11.1054  -15.3520 N   0  0  0  0  0  0  0  0  0  0  0  0
  -20.6171   11.8005  -16.0232 C   0  0  0  0  0  0  0  0  0  0  0  0
  -21.7612   11.9315  -15.5667 O   0  0  0  0  0  0  0  0  0  0  0  0
  -18.6573   11.0795  -15.8695 H   0  0  0  0  0  0  0  0  0  0  0  0
  -19.4740    9.0422  -14.0798 C   0  0  0  0  0  0  0  0  0  0  0  0
  -19.5162    8.3905  -12.8911 C   0  0  0  0  0  0  0  0  0  0  0  0
  -19.7076    9.0582  -11.6940 C   0  0  0  0  0  0  0  0  0  0  0  0
  -19.8554   10.4170  -11.7480 C   0  0  0  0  0  0  0  0  0  0  0  0
  -19.8190   11.1289  -12.9487 C   0  0  0  0  0  0  0  0  0  0  0  0
  -19.6288   10.4414  -14.1112 C   0  0  0  0  0  0  0  0  0  0  0  0
  -19.2762    6.8944  -15.1132 N   0  0  0  0  0  0  0  0  0  0  0  0
  -19.2633    8.3141  -15.3556 C   0  0  0  0  0  0  0  0  0  0  0  0
  -20.2639    6.5878  -15.0209 H   0  0  0  0  0  0  0  0  0  0  0  0
  -18.7547    6.3846  -15.8572 H   0  0  0  0  0  0  0  0  0  0  0  0
  -16.2680   12.1385  -23.4439 N   0  0  0  0  0  0  0  0  0  0  0  0
  -15.8649   13.4242  -23.8189 C   0  0  0  0  0  0  0  0  0  0  0  0
  -15.7144   13.6567  -25.0648 O   0  0  0  0  0  0  0  0  0  0  0  0
  -16.4305   11.4122  -24.2157 H   0  0  0  0  0  0  0  0  0  0  0  0
  -15.6075   14.5187  -22.8548 C   0  0  0  0  0  0  0  0  0  0  0  0
  -16.6251   15.5932  -23.0211 C   0  0  0  0  0  0  0  0  0  0  0  0
  -17.9080   15.3395  -22.5811 C   0  0  0  0  0  0  0  0  0  0  0  0
  -18.8438   16.3287  -22.7315 C   0  0  0  0  0  0  0  0  0  0  0  0
  -18.5751   17.5747  -23.3026 C   0  0  0  0  0  0  0  0  0  0  0  0
  -17.2715   17.7777  -23.7275 C   0  0  0  0  0  0  0  0  0  0  0  0
  -16.3032   16.7990  -23.5901 C   0  0  0  0  0  0  0  0  0  0  0  0
  -19.5814   18.5624  -23.4320 N   0  0  0  0  0  0  0  0  0  0  0  0
  -20.9495   18.1491  -23.5183 C   0  0  0  0  0  0  0  0  0  0  0  0
  -21.9563   19.2400  -23.2868 C   0  0  0  0  0  0  0  0  0  0  0  0
  -21.5641   20.3745  -24.2264 C   0  0  0  0  0  0  0  0  0  0  0  0
  -20.2747   20.9270  -23.7120 C   0  0  0  0  0  0  0  0  0  0  0  0
  -19.1911   19.9391  -23.4756 C   0  0  0  0  0  0  0  0  0  0  0  0
 23 24  1  0  0  0
 24 17  1  0  0  0
 17 18  2  0  0  0
 18 19  1  0  0  0
 19 20  2  0  0  0
 20 21  1  0  0  0
 21 22  2  0  0  0
 22 13  1  0  0  0
 13 14  1  0  0  0
 14 15  2  0  0  0
 14  7  1  0  0  0
  7  8  2  0  0  0
  8  9  1  0  0  0
  9 10  2  0  0  0
 10 11  1  0  0  0
 11 12  2  0  0  0
  9  1  1  0  0  0
  1  2  2  0  0  0
  2  3  1  0  0  0
  3  4  2  0  0  0
  4  5  1  0  0  0
  5 27  1  0  0  0
 27 28  1  0  0  0
 28 29  2  0  0  0
 28 31  1  0  0  0
 31 32  1  0  0  0
 32 33  2  0  0  0
 33 34  1  0  0  0
 34 35  2  0  0  0
 35 36  1  0  0  0
 36 37  2  0  0  0
 35 38  1  0  0  0
 38 39  1  0  0  0
 39 40  1  0  0  0
 40 41  1  0  0  0
 41 42  1  0  0  0
 42 43  1  0  0  0
  5  6  2  0  0  0
 22 17  1  0  0  0
 12  7  1  0  0  0
  6  1  1  0  0  0
 37 32  1  0  0  0
 43 38  1  0  0  0
 23 25  1  0  0  0
 23 26  1  0  0  0
 13 16  1  0  0  0
 27 30  1  0  0  0
M  END
> <minimizedAffinity>
-9.38915

> <CNNscore>
0.4110473096

> <CNNaffinity>
7.2856798172

> <CNN_VS>
2.9947590828

> <CNNaffinity_variance>
0.0326419063

$$$$
[H]c1nc(C(=O)N([H])c2c([H])c([H])c([H])c([H])c2C([H])([H])N([H])[H])c([H])c(-c2c([H])c([H])nc(N([H])C(=O)C([H])([H])c3c([H])c([H])c(N4C([H])([H])C([H])([H])C([H])([H])C([H])([H])C4([H])[H])c([H])c3[H])c2[H])c1[H]


 43 47  0  0  0  0  0  0  0  0999 V2000
  -18.9715   12.2606  -17.3697 C   0  0  0  0  0  0  0  0  0  0  0  0
  -19.7395   11.1925  -16.8889 C   0  0  0  0  0  0  0  0  0  0  0  0
  -19.3626    9.8909  -17.1509 C   0  0  0  0  0  0  0  0  0  0  0  0
  -18.2531    9.6558  -17.8709 N   0  0  0  0  0  0  0  0  0  0  0  0
  -17.4679   10.6125  -18.3649 C   0  0  0  0  0  0  0  0  0  0  0  0
  -17.8525   11.9229  -18.0980 C   0  0  0  0  0  0  0  0  0  0  0  0
  -20.8699   15.2357  -16.2421 C   0  0  0  0  0  0  0  0  0  0  0  0
  -20.5450   13.9064  -16.4914 C   0  0  0  0  0  0  0  0  0  0  0  0
  -19.3393   13.6279  -17.0871 C   0  0  0  0  0  0  0  0  0  0  0  0
  -18.5070   14.6671  -17.4112 C   0  0  0  0  0  0  0  0  0  0  0  0
  -18.8693   15.9966  -17.1443 C   0  0  0  0  0  0  0  0  0  0  0  0
  -20.0486   16.2406  -16.5640 N   0  0  0  0  0  0  0  0  0  0  0  0
  -22.1850   15.7178  -14.1904 N   0  0  0  0  0  0  0  0  0  0  0  0
  -22.1870   15.5140  -15.5789 C   0  0  0  0  0  0  0  0  0  0  0  0
  -23.2164   15.5538  -16.2668 O   0  0  0  0  0  0  0  0  0  0  0  0
  -21.2154   15.6578  -13.7297 H   0  0  0  0  0  0  0  0  0  0  0  0
  -23.4280   17.2949  -12.8271 C   0  0  0  0  0  0  0  0  0  0  0  0
  -24.4477   17.5614  -11.9734 C   0  0  0  0  0  0  0  0  0  0  0  0
  -25.3361   16.5829  -11.5625 C   0  0  0  0  0  0  0  0  0  0  0  0
  -25.1506   15.3191  -12.0516 C   0  0  0  0  0  0  0  0  0  0  0  0
  -24.1149   14.9993  -12.9319 C   0  0  0  0  0  0  0  0  0  0  0  0
  -23.2563   15.9863  -13.3176 C   0  0  0  0  0  0  0  0  0  0  0  0
  -21.2061   18.1580  -12.6317 N   0  0  0  0  0  0  0  0  0  0  0  0
  -22.4855   18.3549  -13.2632 C   0  0  0  0  0  0  0  0  0  0  0  0
  -20.7034   17.4051  -13.1400 H   0  0  0  0  0  0  0  0  0  0  0  0
  -20.6719   19.0513  -12.5856 H   0  0  0  0  0  0  0  0  0  0  0  0
  -16.2845   10.3320  -19.1101 N   0  0  0  0  0  0  0  0  0  0  0  0
  -16.1984   10.2990  -20.5057 C   0  0  0  0  0  0  0  0  0  0  0  0
  -15.0631   10.0277  -21.0217 O   0  0  0  0  0  0  0  0  0  0  0  0
  -15.3980   10.1296  -18.5420 H   0  0  0  0  0  0  0  0  0  0  0  0
  -17.3453   10.5587  -21.4061 C   0  0  0  0  0  0  0  0  0  0  0  0
  -17.4192   12.0102  -21.7306 C   0  0  0  0  0  0  0  0  0  0  0  0
  -18.3433   12.7764  -21.0503 C   0  0  0  0  0  0  0  0  0  0  0  0
  -18.4099   14.1123  -21.3466 C   0  0  0  0  0  0  0  0  0  0  0  0
  -17.5993   14.7411  -22.2944 C   0  0  0  0  0  0  0  0  0  0  0  0
  -16.6884   13.9264  -22.9485 C   0  0  0  0  0  0  0  0  0  0  0  0
  -16.5964   12.5737  -22.6723 C   0  0  0  0  0  0  0  0  0  0  0  0
  -17.7095   16.1276  -22.5600 N   0  0  0  0  0  0  0  0  0  0  0  0
  -18.3132   16.9746  -21.5761 C   0  0  0  0  0  0  0  0  0  0  0  0
  -18.0651   18.4440  -21.7674 C   0  0  0  0  0  0  0  0  0  0  0  0
  -18.4566   18.7480  -23.2090 C   0  0  0  0  0  0  0  0  0  0  0  0
  -17.4452   18.0720  -24.0765 C   0  0  0  0  0  0  0  0  0  0  0  0
  -17.2155   16.6297  -23.8063 C   0  0  0  0  0  0  0  0  0  0  0  0
 23 24  1  0  0  0
 24 17  1  0  0  0
 17 18  2  0  0  0
 18 19  1  0  0  0
 19 20  2  0  0  0
 20 21  1  0  0  0
 21 22  2  0  0  0
 22 13  1  0  0  0
 13 14  1  0  0  0
 14 15  2  0  0  0
 14  7  1  0  0  0
  7  8  2  0  0  0
  8  9  1  0  0  0
  9 10  2  0  0  0
 10 11  1  0  0  0
 11 12  2  0  0  0
  9  1  1  0  0  0
  1  2  2  0  0  0
  2  3  1  0  0  0
  3  4  2  0  0  0
  4  5  1  0  0  0
  5 27  1  0  0  0
 27 28  1  0  0  0
 28 29  2  0  0  0
 28 31  1  0  0  0
 31 32  1  0  0  0
 32 33  2  0  0  0
 33 34  1  0  0  0
 34 35  2  0  0  0
 35 36  1  0  0  0
 36 37  2  0  0  0
 35 38  1  0  0  0
 38 39  1  0  0  0
 39 40  1  0  0  0
 40 41  1  0  0  0
 41 42  1  0  0  0
 42 43  1  0  0  0
  5  6  2  0  0  0
 22 17  1  0  0  0
 12  7  1  0  0  0
  6  1  1  0  0  0
 37 32  1  0  0  0
 43 38  1  0  0  0
 23 25  1  0  0  0
 23 26  1  0  0  0
 13 16  1  0  0  0
 27 30  1  0  0  0
M  END
> <minimizedAffinity>
-8.55039

> <CNNscore>
0.3499059677

> <CNNaffinity>
7.0836133957

> <CNN_VS>
2.4785985947

> <CNNaffinity_variance>
0.0637387857

$$$$
[H]c1nc(C(=O)N([H])c2c([H])c([H])c([H])c([H])c2C([H])([H])N([H])[H])c([H])c(-c2c([H])c([H])nc(N([H])C(=O)C([H])([H])c3c([H])c([H])c(N4C([H])([H])C([H])([H])C([H])([H])C([H])([H])C4([H])[H])c([H])c3[H])c2[H])c1[H]


 43 47  0  0  0  0  0  0  0  0999 V2000
  -18.3051   11.2384  -18.3920 C   0  0  0  0  0  0  0  0  0  0  0  0
  -18.8417   10.0831  -17.8095 C   0  0  0  0  0  0  0  0  0  0  0  0
  -19.6618   10.1779  -16.7034 C   0  0  0  0  0  0  0  0  0  0  0  0
  -19.9420   11.3870  -16.1895 N   0  0  0  0  0  0  0  0  0  0  0  0
  -19.4734   12.5334  -16.6816 C   0  0  0  0  0  0  0  0  0  0  0  0
  -18.6470   12.4322  -17.7964 C   0  0  0  0  0  0  0  0  0  0  0  0
  -16.7103   12.0227  -21.6429 C   0  0  0  0  0  0  0  0  0  0  0  0
  -17.5303   12.1361  -20.5250 C   0  0  0  0  0  0  0  0  0  0  0  0
  -17.4627   11.1593  -19.5619 C   0  0  0  0  0  0  0  0  0  0  0  0
  -16.5932   10.1154  -19.7398 C   0  0  0  0  0  0  0  0  0  0  0  0
  -15.7811   10.0346  -20.8818 C   0  0  0  0  0  0  0  0  0  0  0  0
  -15.8664   10.9982  -21.8044 N   0  0  0  0  0  0  0  0  0  0  0  0
  -15.8905   13.0546  -23.7487 N   0  0  0  0  0  0  0  0  0  0  0  0
  -16.7929   13.1087  -22.6753 C   0  0  0  0  0  0  0  0  0  0  0  0
  -17.6404   14.0032  -22.5486 O   0  0  0  0  0  0  0  0  0  0  0  0
  -15.2168   12.2170  -23.7266 H   0  0  0  0  0  0  0  0  0  0  0  0
  -16.5993   13.7991  -25.9474 C   0  0  0  0  0  0  0  0  0  0  0  0
  -16.4505   14.6256  -27.0125 C   0  0  0  0  0  0  0  0  0  0  0  0
  -15.4712   15.6027  -27.0524 C   0  0  0  0  0  0  0  0  0  0  0  0
  -14.6451   15.7105  -25.9675 C   0  0  0  0  0  0  0  0  0  0  0  0
  -14.7617   14.8815  -24.8500 C   0  0  0  0  0  0  0  0  0  0  0  0
  -15.7371   13.9283  -24.8417 C   0  0  0  0  0  0  0  0  0  0  0  0
  -17.4504   11.8225  -26.9909 N   0  0  0  0  0  0  0  0  0  0  0  0
  -17.6569   12.7586  -25.9158 C   0  0  0  0  0  0  0  0  0  0  0  0
  -16.6976   11.1645  -26.7108 H   0  0  0  0  0  0  0  0  0  0  0  0
  -18.3408   11.3452  -27.2454 H   0  0  0  0  0  0  0  0  0  0  0  0
  -19.8040   13.8048  -16.1257 N   0  0  0  0  0  0  0  0  0  0  0  0
  -20.7472   14.6943  -16.6504 C   0  0  0  0  0  0  0  0  0  0  0  0
  -20.9250   15.7981  -16.0349 O   0  0  0  0  0  0  0  0  0  0  0  0
  -19.2777   14.0895  -15.2360 H   0  0  0  0  0  0  0  0  0  0  0  0
  -21.5410   14.4246  -17.8713 C   0  0  0  0  0  0  0  0  0  0  0  0
  -21.1402   15.3624  -18.9565 C   0  0  0  0  0  0  0  0  0  0  0  0
  -22.0141   16.3782  -19.2858 C   0  0  0  0  0  0  0  0  0  0  0  0
  -21.6447   17.2427  -20.2822 C   0  0  0  0  0  0  0  0  0  0  0  0
  -20.4388   17.1555  -20.9816 C   0  0  0  0  0  0  0  0  0  0  0  0
  -19.5977   16.1177  -20.6115 C   0  0  0  0  0  0  0  0  0  0  0  0
  -19.9416   15.2277  -19.6095 C   0  0  0  0  0  0  0  0  0  0  0  0
  -20.1066   18.0783  -22.0028 N   0  0  0  0  0  0  0  0  0  0  0  0
  -18.7270   18.3742  -22.2458 C   0  0  0  0  0  0  0  0  0  0  0  0
  -18.4471   19.0598  -23.5531 C   0  0  0  0  0  0  0  0  0  0  0  0
  -19.3835   20.2617  -23.6015 C   0  0  0  0  0  0  0  0  0  0  0  0
  -20.7678   19.7175  -23.7423 C   0  0  0  0  0  0  0  0  0  0  0  0
  -21.1652   18.6842  -22.7522 C   0  0  0  0  0  0  0  0  0  0  0  0
 23 24  1  0  0  0
 24 17  1  0  0  0
 17 18  2  0  0  0
 18 19  1  0  0  0
 19 20  2  0  0  0
 20 21  1  0  0  0
 21 22  2  0  0  0
 22 13  1  0  0  0
 13 14  1  0  0  0
 14 15  2  0  0  0
 14  7  1  0  0  0
  7  8  2  0  0  0
  8  9  1  0  0  0
  9 10  2  0  0  0
 10 11  1  0  0  0
 11 12  2  0  0  0
  9  1  1  0  0  0
  1  2  2  0  0  0
  2  3  1  0  0  0
  3  4  2  0  0  0
  4  5  1  0  0  0
  5 27  1  0  0  0
 27 28  1  0  0  0
 28 29  2  0  0  0
 28 31  1  0  0  0
 31 32  1  0  0  0
 32 33  2  0  0  0
 33 34  1  0  0  0
 34 35  2  0  0  0
 35 36  1  0  0  0
 36 37  2  0  0  0
 35 38  1  0  0  0
 38 39  1  0  0  0
 39 40  1  0  0  0
 40 41  1  0  0  0
 41 42  1  0  0  0
 42 43  1  0  0  0
  5  6  2  0  0  0
 22 17  1  0  0  0
 12  7  1  0  0  0
  6  1  1  0  0  0
 37 32  1  0  0  0
 43 38  1  0  0  0
 23 25  1  0  0  0
 23 26  1  0  0  0
 13 16  1  0  0  0
 27 30  1  0  0  0
M  END
> <minimizedAffinity>
-10.97503

> <CNNscore>
0.3313714564

> <CNNaffinity>
7.6499695778

> <CNN_VS>
2.5349814892

> <CNNaffinity_variance>
0.1794138253

$$$$
[H]c1nc(C(=O)N([H])c2c([H])c([H])c([H])c([H])c2C([H])([H])N([H])[H])c([H])c(-c2c([H])c([H])nc(N([H])C(=O)C([H])([H])c3c([H])c([H])c(N4C([H])([H])C([H])([H])C([H])([H])C([H])([H])C4([H])[H])c([H])c3[H])c2[H])c1[H]


 43 47  0  0  0  0  0  0  0  0999 V2000
  -18.3798   14.6278  -21.6197 C   0  0  0  0  0  0  0  0  0  0  0  0
  -17.5215   15.3375  -22.4692 C   0  0  0  0  0  0  0  0  0  0  0  0
  -16.4495   14.7031  -23.0635 C   0  0  0  0  0  0  0  0  0  0  0  0
  -16.2351   13.3993  -22.8212 N   0  0  0  0  0  0  0  0  0  0  0  0
  -17.0017   12.6524  -22.0272 C   0  0  0  0  0  0  0  0  0  0  0  0
  -18.0809   13.2968  -21.4304 C   0  0  0  0  0  0  0  0  0  0  0  0
  -20.9447   17.1492  -20.7306 C   0  0  0  0  0  0  0  0  0  0  0  0
  -19.8469   16.5590  -21.3481 C   0  0  0  0  0  0  0  0  0  0  0  0
  -19.5182   15.2701  -21.0064 C   0  0  0  0  0  0  0  0  0  0  0  0
  -20.2822   14.6187  -20.0739 C   0  0  0  0  0  0  0  0  0  0  0  0
  -21.3833   15.2472  -19.4716 C   0  0  0  0  0  0  0  0  0  0  0  0
  -21.6817   16.5023  -19.8217 N   0  0  0  0  0  0  0  0  0  0  0  0
  -22.5808   18.7862  -21.6333 N   0  0  0  0  0  0  0  0  0  0  0  0
  -21.2917   18.5536  -21.1298 C   0  0  0  0  0  0  0  0  0  0  0  0
  -20.4431   19.4473  -21.0044 O   0  0  0  0  0  0  0  0  0  0  0  0
  -23.2085   17.9145  -21.6792 H   0  0  0  0  0  0  0  0  0  0  0  0
  -23.9984   20.7102  -21.2094 C   0  0  0  0  0  0  0  0  0  0  0  0
  -24.5830   21.8562  -21.6389 C   0  0  0  0  0  0  0  0  0  0  0  0
  -24.3920   22.3423  -22.9205 C   0  0  0  0  0  0  0  0  0  0  0  0
  -23.5828   21.6197  -23.7536 C   0  0  0  0  0  0  0  0  0  0  0  0
  -22.9609   20.4350  -23.3543 C   0  0  0  0  0  0  0  0  0  0  0  0
  -23.1694   19.9826  -22.0846 C   0  0  0  0  0  0  0  0  0  0  0  0
  -25.6186   20.1304  -19.5484 N   0  0  0  0  0  0  0  0  0  0  0  0
  -24.2081   20.2028  -19.8307 C   0  0  0  0  0  0  0  0  0  0  0  0
  -25.9976   19.2734  -19.9958 H   0  0  0  0  0  0  0  0  0  0  0  0
  -25.7959   20.1720  -18.5227 H   0  0  0  0  0  0  0  0  0  0  0  0
  -16.7603   11.2644  -21.8039 N   0  0  0  0  0  0  0  0  0  0  0  0
  -16.5232   10.6770  -20.5569 C   0  0  0  0  0  0  0  0  0  0  0  0
  -16.3202    9.4174  -20.5259 O   0  0  0  0  0  0  0  0  0  0  0  0
  -16.7610   10.6331  -22.6705 H   0  0  0  0  0  0  0  0  0  0  0  0
  -16.4946   11.4338  -19.2841 C   0  0  0  0  0  0  0  0  0  0  0  0
  -17.6551   11.0461  -18.4352 C   0  0  0  0  0  0  0  0  0  0  0  0
  -17.7514    9.7282  -18.0382 C   0  0  0  0  0  0  0  0  0  0  0  0
  -18.8174    9.3716  -17.2550 C   0  0  0  0  0  0  0  0  0  0  0  0
  -19.8090   10.2620  -16.8370 C   0  0  0  0  0  0  0  0  0  0  0  0
  -19.6645   11.5730  -17.2633 C   0  0  0  0  0  0  0  0  0  0  0  0
  -18.5996   11.9650  -18.0549 C   0  0  0  0  0  0  0  0  0  0  0  0
  -20.8896    9.8392  -16.0256 N   0  0  0  0  0  0  0  0  0  0  0  0
  -20.8777    8.5092  -15.4955 C   0  0  0  0  0  0  0  0  0  0  0  0
  -21.8471    8.2659  -14.3738 C   0  0  0  0  0  0  0  0  0  0  0  0
  -23.2015    8.7461  -14.8827 C   0  0  0  0  0  0  0  0  0  0  0  0
  -23.1110   10.2331  -14.9959 C   0  0  0  0  0  0  0  0  0  0  0  0
  -21.9566   10.7584  -15.7688 C   0  0  0  0  0  0  0  0  0  0  0  0
 23 24  1  0  0  0
 24 17  1  0  0  0
 17 18  2  0  0  0
 18 19  1  0  0  0
 19 20  2  0  0  0
 20 21  1  0  0  0
 21 22  2  0  0  0
 22 13  1  0  0  0
 13 14  1  0  0  0
 14 15  2  0  0  0
 14  7  1  0  0  0
  7  8  2  0  0  0
  8  9  1  0  0  0
  9 10  2  0  0  0
 10 11  1  0  0  0
 11 12  2  0  0  0
  9  1  1  0  0  0
  1  2  2  0  0  0
  2  3  1  0  0  0
  3  4  2  0  0  0
  4  5  1  0  0  0
  5 27  1  0  0  0
 27 28  1  0  0  0
 28 29  2  0  0  0
 28 31  1  0  0  0
 31 32  1  0  0  0
 32 33  2  0  0  0
 33 34  1  0  0  0
 34 35  2  0  0  0
 35 36  1  0  0  0
 36 37  2  0  0  0
 35 38  1  0  0  0
 38 39  1  0  0  0
 39 40  1  0  0  0
 40 41  1  0  0  0
 41 42  1  0  0  0
 42 43  1  0  0  0
  5  6  2  0  0  0
 22 17  1  0  0  0
 12  7  1  0  0  0
  6  1  1  0  0  0
 37 32  1  0  0  0
 43 38  1  0  0  0
 23 25  1  0  0  0
 23 26  1  0  0  0
 13 16  1  0  0  0
 27 30  1  0  0  0
M  END
> <minimizedAffinity>
-8.69991

> <CNNscore>
0.3127151132

> <CNNaffinity>
7.0156450272

> <CNN_VS>
2.1938982010

> <CNNaffinity_variance>
0.1452396661

$$$$
[H]c1nc(C(=O)N([H])c2c([H])c([H])c([H])c([H])c2C([H])([H])N([H])[H])c([H])c(-c2c([H])c([H])nc(N([H])C(=O)C([H])([H])c3c([H])c([H])c(N4C([H])([H])C([H])([H])C([H])([H])C([H])([H])C4([H])[H])c([H])c3[H])c2[H])c1[H]


 43 47  0  0  0  0  0  0  0  0999 V2000
  -19.7774   11.5197  -17.1909 C   0  0  0  0  0  0  0  0  0  0  0  0
  -20.2288   10.3321  -16.6010 C   0  0  0  0  0  0  0  0  0  0  0  0
  -19.4881    9.1732  -16.7148 C   0  0  0  0  0  0  0  0  0  0  0  0
  -18.3302    9.1924  -17.3958 N   0  0  0  0  0  0  0  0  0  0  0  0
  -17.8302   10.2774  -17.9863 C   0  0  0  0  0  0  0  0  0  0  0  0
  -18.5810   11.4430  -17.8687 C   0  0  0  0  0  0  0  0  0  0  0  0
  -21.3039   14.8093  -17.9494 C   0  0  0  0  0  0  0  0  0  0  0  0
  -20.5776   13.6339  -18.1105 C   0  0  0  0  0  0  0  0  0  0  0  0
  -20.5288   12.7460  -17.0638 C   0  0  0  0  0  0  0  0  0  0  0  0
  -21.1951   13.0522  -15.9063 C   0  0  0  0  0  0  0  0  0  0  0  0
  -21.9179   14.2488  -15.7805 C   0  0  0  0  0  0  0  0  0  0  0  0
  -21.9493   15.0961  -16.8141 N   0  0  0  0  0  0  0  0  0  0  0  0
  -21.2272   17.1282  -18.8370 N   0  0  0  0  0  0  0  0  0  0  0  0
  -21.3530   15.7577  -19.1114 C   0  0  0  0  0  0  0  0  0  0  0  0
  -21.5008   15.3078  -20.2560 O   0  0  0  0  0  0  0  0  0  0  0  0
  -21.0999   17.3676  -17.7966 H   0  0  0  0  0  0  0  0  0  0  0  0
  -20.1592   19.1262  -19.7079 C   0  0  0  0  0  0  0  0  0  0  0  0
  -20.1718   20.1979  -20.5392 C   0  0  0  0  0  0  0  0  0  0  0  0
  -21.2234   20.4434  -21.4048 C   0  0  0  0  0  0  0  0  0  0  0  0
  -22.2660   19.5580  -21.3955 C   0  0  0  0  0  0  0  0  0  0  0  0
  -22.2954   18.4418  -20.5569 C   0  0  0  0  0  0  0  0  0  0  0  0
  -21.2436   18.2281  -19.7154 C   0  0  0  0  0  0  0  0  0  0  0  0
  -17.7811   18.9632  -19.5124 N   0  0  0  0  0  0  0  0  0  0  0  0
  -19.0227   18.8724  -18.7881 C   0  0  0  0  0  0  0  0  0  0  0  0
  -17.5475   19.9675  -19.6354 H   0  0  0  0  0  0  0  0  0  0  0  0
  -17.0304   18.4215  -19.0345 H   0  0  0  0  0  0  0  0  0  0  0  0
  -16.5877   10.2720  -18.6867 N   0  0  0  0  0  0  0  0  0  0  0  0
  -16.4437   10.3579  -20.0753 C   0  0  0  0  0  0  0  0  0  0  0  0
  -15.2588   10.3358  -20.5491 O   0  0  0  0  0  0  0  0  0  0  0  0
  -15.7015   10.1926  -18.0885 H   0  0  0  0  0  0  0  0  0  0  0  0
  -17.5834   10.4706  -21.0143 C   0  0  0  0  0  0  0  0  0  0  0  0
  -17.6758   11.8615  -21.5380 C   0  0  0  0  0  0  0  0  0  0  0  0
  -18.4188   12.7736  -20.8170 C   0  0  0  0  0  0  0  0  0  0  0  0
  -18.5019   14.0540  -21.2970 C   0  0  0  0  0  0  0  0  0  0  0  0
  -17.8803   14.4879  -22.4701 C   0  0  0  0  0  0  0  0  0  0  0  0
  -17.1466   13.5324  -23.1557 C   0  0  0  0  0  0  0  0  0  0  0  0
  -17.0432   12.2310  -22.6976 C   0  0  0  0  0  0  0  0  0  0  0  0
  -17.9984   15.8253  -22.9198 N   0  0  0  0  0  0  0  0  0  0  0  0
  -16.8341   16.4927  -23.4188 C   0  0  0  0  0  0  0  0  0  0  0  0
  -17.1088   17.7468  -24.1992 C   0  0  0  0  0  0  0  0  0  0  0  0
  -18.0117   18.5985  -23.3140 C   0  0  0  0  0  0  0  0  0  0  0  0
  -19.3273   17.8938  -23.2446 C   0  0  0  0  0  0  0  0  0  0  0  0
  -19.2792   16.4615  -22.8545 C   0  0  0  0  0  0  0  0  0  0  0  0
 23 24  1  0  0  0
 24 17  1  0  0  0
 17 18  2  0  0  0
 18 19  1  0  0  0
 19 20  2  0  0  0
 20 21  1  0  0  0
 21 22  2  0  0  0
 22 13  1  0  0  0
 13 14  1  0  0  0
 14 15  2  0  0  0
 14  7  1  0  0  0
  7  8  2  0  0  0
  8  9  1  0  0  0
  9 10  2  0  0  0
 10 11  1  0  0  0
 11 12  2  0  0  0
  9  1  1  0  0  0
  1  2  2  0  0  0
  2  3  1  0  0  0
  3  4  2  0  0  0
  4  5  1  0  0  0
  5 27  1  0  0  0
 27 28  1  0  0  0
 28 29  2  0  0  0
 28 31  1  0  0  0
 31 32  1  0  0  0
 32 33  2  0  0  0
 33 34  1  0  0  0
 34 35  2  0  0  0
 35 36  1  0  0  0
 36 37  2  0  0  0
 35 38  1  0  0  0
 38 39  1  0  0  0
 39 40  1  0  0  0
 40 41  1  0  0  0
 41 42  1  0  0  0
 42 43  1  0  0  0
  5  6  2  0  0  0
 22 17  1  0  0  0
 12  7  1  0  0  0
  6  1  1  0  0  0
 37 32  1  0  0  0
 43 38  1  0  0  0
 23 25  1  0  0  0
 23 26  1  0  0  0
 13 16  1  0  0  0
 27 30  1  0  0  0
M  END
> <minimizedAffinity>
-9.13245

> <CNNscore>
0.2998293042

> <CNNaffinity>
7.2405066490

> <CNN_VS>
2.1709160805

> <CNNaffinity_variance>
0.1650465429

$$$$
[H]c1nc(C(=O)N([H])c2c([H])c([H])c([H])c([H])c2C([H])([H])N([H])[H])c([H])c(-c2c([H])c([H])nc(N([H])C(=O)C([H])([H])c3c([H])c([H])c(N4C([H])([H])C([H])([H])C([H])([H])C([H])([H])C4([H])[H])c([H])c3[H])c2[H])c1[H]


 43 47  0  0  0  0  0  0  0  0999 V2000
  -19.0106   12.3657  -17.3694 C   0  0  0  0  0  0  0  0  0  0  0  0
  -19.7969   11.3286  -16.8515 C   0  0  0  0  0  0  0  0  0  0  0  0
  -19.4481   10.0122  -17.0761 C   0  0  0  0  0  0  0  0  0  0  0  0
  -18.3485    9.7327  -17.7953 N   0  0  0  0  0  0  0  0  0  0  0  0
  -17.5474   10.6577  -18.3230 C   0  0  0  0  0  0  0  0  0  0  0  0
  -17.9036   11.9832  -18.0939 C   0  0  0  0  0  0  0  0  0  0  0  0
  -20.8457   15.4126  -16.3321 C   0  0  0  0  0  0  0  0  0  0  0  0
  -20.5497   14.0699  -16.5430 C   0  0  0  0  0  0  0  0  0  0  0  0
  -19.3487   13.7482  -17.1263 C   0  0  0  0  0  0  0  0  0  0  0  0
  -18.4925   14.7592  -17.4763 C   0  0  0  0  0  0  0  0  0  0  0  0
  -18.8260   16.1034  -17.2479 C   0  0  0  0  0  0  0  0  0  0  0  0
  -20.0013   16.3895  -16.6789 N   0  0  0  0  0  0  0  0  0  0  0  0
  -23.2351   14.8710  -15.9214 N   0  0  0  0  0  0  0  0  0  0  0  0
  -22.1582   15.7384  -15.6816 C   0  0  0  0  0  0  0  0  0  0  0  0
  -22.2476   16.7457  -14.9664 O   0  0  0  0  0  0  0  0  0  0  0  0
  -23.0053   14.0361  -16.5588 H   0  0  0  0  0  0  0  0  0  0  0  0
  -24.9511   14.1005  -14.3876 C   0  0  0  0  0  0  0  0  0  0  0  0
  -26.2310   14.1397  -13.9407 C   0  0  0  0  0  0  0  0  0  0  0  0
  -27.1794   14.9769  -14.5020 C   0  0  0  0  0  0  0  0  0  0  0  0
  -26.7794   15.7758  -15.5378 C   0  0  0  0  0  0  0  0  0  0  0  0
  -25.4728   15.7684  -16.0302 C   0  0  0  0  0  0  0  0  0  0  0  0
  -24.5620   14.9318  -15.4553 C   0  0  0  0  0  0  0  0  0  0  0  0
  -23.5517   12.1897  -14.7210 N   0  0  0  0  0  0  0  0  0  0  0  0
  -23.9431   13.2012  -13.7732 C   0  0  0  0  0  0  0  0  0  0  0  0
  -22.8736   12.6099  -15.3856 H   0  0  0  0  0  0  0  0  0  0  0  0
  -23.1823   11.3460  -14.2343 H   0  0  0  0  0  0  0  0  0  0  0  0
  -16.3749   10.3306  -19.0665 N   0  0  0  0  0  0  0  0  0  0  0  0
  -16.2953   10.2677  -20.4615 C   0  0  0  0  0  0  0  0  0  0  0  0
  -15.1698    9.9556  -20.9758 O   0  0  0  0  0  0  0  0  0  0  0  0
  -15.4920   10.1155  -18.4975 H   0  0  0  0  0  0  0  0  0  0  0  0
  -17.4383   10.5406  -21.3630 C   0  0  0  0  0  0  0  0  0  0  0  0
  -17.4799   11.9886  -21.7082 C   0  0  0  0  0  0  0  0  0  0  0  0
  -18.4108   12.7780  -21.0646 C   0  0  0  0  0  0  0  0  0  0  0  0
  -18.4477   14.1107  -21.3799 C   0  0  0  0  0  0  0  0  0  0  0  0
  -17.6006   14.7142  -22.3120 C   0  0  0  0  0  0  0  0  0  0  0  0
  -16.6845   13.8768  -22.9292 C   0  0  0  0  0  0  0  0  0  0  0  0
  -16.6219   12.5267  -22.6331 C   0  0  0  0  0  0  0  0  0  0  0  0
  -17.6812   16.0985  -22.5986 N   0  0  0  0  0  0  0  0  0  0  0  0
  -18.3161   16.9651  -21.6521 C   0  0  0  0  0  0  0  0  0  0  0  0
  -18.0409   18.4288  -21.8497 C   0  0  0  0  0  0  0  0  0  0  0  0
  -18.3655   18.7198  -23.3105 C   0  0  0  0  0  0  0  0  0  0  0  0
  -17.3262   18.0205  -24.1250 C   0  0  0  0  0  0  0  0  0  0  0  0
  -17.1271   16.5790  -23.8280 C   0  0  0  0  0  0  0  0  0  0  0  0
 23 24  1  0  0  0
 24 17  1  0  0  0
 17 18  2  0  0  0
 18 19  1  0  0  0
 19 20  2  0  0  0
 20 21  1  0  0  0
 21 22  2  0  0  0
 22 13  1  0  0  0
 13 14  1  0  0  0
 14 15  2  0  0  0
 14  7  1  0  0  0
  7  8  2  0  0  0
  8  9  1  0  0  0
  9 10  2  0  0  0
 10 11  1  0  0  0
 11 12  2  0  0  0
  9  1  1  0  0  0
  1  2  2  0  0  0
  2  3  1  0  0  0
  3  4  2  0  0  0
  4  5  1  0  0  0
  5 27  1  0  0  0
 27 28  1  0  0  0
 28 29  2  0  0  0
 28 31  1  0  0  0
 31 32  1  0  0  0
 32 33  2  0  0  0
 33 34  1  0  0  0
 34 35  2  0  0  0
 35 36  1  0  0  0
 36 37  2  0  0  0
 35 38  1  0  0  0
 38 39  1  0  0  0
 39 40  1  0  0  0
 40 41  1  0  0  0
 41 42  1  0  0  0
 42 43  1  0  0  0
  5  6  2  0  0  0
 22 17  1  0  0  0
 12  7  1  0  0  0
  6  1  1  0  0  0
 37 32  1  0  0  0
 43 38  1  0  0  0
 23 25  1  0  0  0
 23 26  1  0  0  0
 13 16  1  0  0  0
 27 30  1  0  0  0
M  END
> <minimizedAffinity>
-8.44584

> <CNNscore>
0.2661888301

> <CNNaffinity>
7.0745978355

> <CNN_VS>
1.8831789494

> <CNNaffinity_variance>
0.0557356179

$$$$
[H]c1nc(C(=O)N([H])c2c([H])c([H])c([H])c([H])c2C([H])([H])N([H])[H])c([H])c(-c2c([H])c([H])nc(N([H])C(=O)C([H])([H])c3c([H])c([H])c(N4C([H])([H])C([H])([H])C([H])([H])C([H])([H])C4([H])[H])c([H])c3[H])c2[H])c1[H]


 43 47  0  0  0  0  0  0  0  0999 V2000
  -20.4099   10.8269  -16.2853 C   0  0  0  0  0  0  0  0  0  0  0  0
  -20.8459    9.6095  -15.7470 C   0  0  0  0  0  0  0  0  0  0  0  0
  -20.1686    8.4408  -16.0305 C   0  0  0  0  0  0  0  0  0  0  0  0
  -19.0875    8.4794  -16.8269 N   0  0  0  0  0  0  0  0  0  0  0  0
  -18.6074    9.5931  -17.3793 C   0  0  0  0  0  0  0  0  0  0  0  0
  -19.2940   10.7685  -17.0904 C   0  0  0  0  0  0  0  0  0  0  0  0
  -21.5700   14.3417  -16.4483 C   0  0  0  0  0  0  0  0  0  0  0  0
  -20.9018   13.1665  -16.7755 C   0  0  0  0  0  0  0  0  0  0  0  0
  -21.0937   12.0619  -15.9822 C   0  0  0  0  0  0  0  0  0  0  0  0
  -21.9329   12.1610  -14.9036 C   0  0  0  0  0  0  0  0  0  0  0  0
  -22.5901   13.3646  -14.6044 C   0  0  0  0  0  0  0  0  0  0  0  0
  -22.3860   14.4251  -15.3923 N   0  0  0  0  0  0  0  0  0  0  0  0
  -20.6628   15.3260  -18.5410 N   0  0  0  0  0  0  0  0  0  0  0  0
  -21.3543   15.5314  -17.3372 C   0  0  0  0  0  0  0  0  0  0  0  0
  -21.7859   16.6380  -16.9855 O   0  0  0  0  0  0  0  0  0  0  0  0
  -20.3535   14.3107  -18.7130 H   0  0  0  0  0  0  0  0  0  0  0  0
  -19.0785   16.9124  -19.4707 C   0  0  0  0  0  0  0  0  0  0  0  0
  -18.7410   17.8117  -20.4283 C   0  0  0  0  0  0  0  0  0  0  0  0
  -19.5780   18.1005  -21.4921 C   0  0  0  0  0  0  0  0  0  0  0  0
  -20.7749   17.4407  -21.5483 C   0  0  0  0  0  0  0  0  0  0  0  0
  -21.1635   16.5075  -20.5850 C   0  0  0  0  0  0  0  0  0  0  0  0
  -20.3161   16.2453  -19.5491 C   0  0  0  0  0  0  0  0  0  0  0  0
  -18.5429   17.3946  -17.1902 N   0  0  0  0  0  0  0  0  0  0  0  0
  -18.1693   16.6087  -18.3380 C   0  0  0  0  0  0  0  0  0  0  0  0
  -19.3649   16.9465  -16.7412 H   0  0  0  0  0  0  0  0  0  0  0  0
  -17.7356   17.5162  -16.5431 H   0  0  0  0  0  0  0  0  0  0  0  0
  -17.4451    9.6061  -18.2059 N   0  0  0  0  0  0  0  0  0  0  0  0
  -17.1318   10.5968  -19.1423 C   0  0  0  0  0  0  0  0  0  0  0  0
  -16.0519   10.4600  -19.8085 O   0  0  0  0  0  0  0  0  0  0  0  0
  -16.7674    8.7832  -18.0917 H   0  0  0  0  0  0  0  0  0  0  0  0
  -17.9806   11.7831  -19.3987 C   0  0  0  0  0  0  0  0  0  0  0  0
  -17.5340   12.4692  -20.6427 C   0  0  0  0  0  0  0  0  0  0  0  0
  -17.5751   13.8482  -20.6683 C   0  0  0  0  0  0  0  0  0  0  0  0
  -17.1619   14.4798  -21.8116 C   0  0  0  0  0  0  0  0  0  0  0  0
  -16.7033   13.8109  -22.9487 C   0  0  0  0  0  0  0  0  0  0  0  0
  -16.6820   12.4272  -22.8700 C   0  0  0  0  0  0  0  0  0  0  0  0
  -17.0928   11.7592  -21.7301 C   0  0  0  0  0  0  0  0  0  0  0  0
  -16.2863   14.5150  -24.1043 N   0  0  0  0  0  0  0  0  0  0  0  0
  -16.5716   13.9601  -25.3930 C   0  0  0  0  0  0  0  0  0  0  0  0
  -16.4299   14.9191  -26.5408 C   0  0  0  0  0  0  0  0  0  0  0  0
  -15.0445   15.5386  -26.3969 C   0  0  0  0  0  0  0  0  0  0  0  0
  -15.0888   16.4023  -25.1785 C   0  0  0  0  0  0  0  0  0  0  0  0
  -15.5907   15.7552  -23.9394 C   0  0  0  0  0  0  0  0  0  0  0  0
 23 24  1  0  0  0
 24 17  1  0  0  0
 17 18  2  0  0  0
 18 19  1  0  0  0
 19 20  2  0  0  0
 20 21  1  0  0  0
 21 22  2  0  0  0
 22 13  1  0  0  0
 13 14  1  0  0  0
 14 15  2  0  0  0
 14  7  1  0  0  0
  7  8  2  0  0  0
  8  9  1  0  0  0
  9 10  2  0  0  0
 10 11  1  0  0  0
 11 12  2  0  0  0
  9  1  1  0  0  0
  1  2  2  0  0  0
  2  3  1  0  0  0
  3  4  2  0  0  0
  4  5  1  0  0  0
  5 27  1  0  0  0
 27 28  1  0  0  0
 28 29  2  0  0  0
 28 31  1  0  0  0
 31 32  1  0  0  0
 32 33  2  0  0  0
 33 34  1  0  0  0
 34 35  2  0  0  0
 35 36  1  0  0  0
 36 37  2  0  0  0
 35 38  1  0  0  0
 38 39  1  0  0  0
 39 40  1  0  0  0
 40 41  1  0  0  0
 41 42  1  0  0  0
 42 43  1  0  0  0
  5  6  2  0  0  0
 22 17  1  0  0  0
 12  7  1  0  0  0
  6  1  1  0  0  0
 37 32  1  0  0  0
 43 38  1  0  0  0
 23 25  1  0  0  0
 23 26  1  0  0  0
 13 16  1  0  0  0
 27 30  1  0  0  0
M  END
> <minimizedAffinity>
-9.92612

> <CNNscore>
0.2633788586

> <CNNaffinity>
7.4362764359

> <CNN_VS>
1.9585579634

> <CNNaffinity_variance>
0.1054052934

$$$$
[H]ON([H])C(=O)[C@@]([H])(O[H])[C@]([H])(C(=O)N([H])[C@]([H])(C(=O)N([H])C([H])([H])[H])C([H])([H])c1c([H])n([H])c2c([H])c([H])c([H])c([H])c12)C([H])([H])C([H])(C([H])([H])[H])C([H])([H])[H]


 35 36  0  0  0  0  0  0  0  0999 V2000
  -19.0423   14.4531  -21.3398 N   0  0  0  0  0  0  0  0  0  0  0  0
  -18.3247   15.6546  -21.1749 C   0  0  0  0  0  0  0  0  0  0  0  0
  -17.9643   15.9851  -19.9931 O   0  0  0  0  0  0  0  0  0  0  0  0
  -19.3560   14.1603  -22.2843 H   0  0  0  0  0  0  0  0  0  0  0  0
  -19.3804   13.5655  -20.2080 C   0  0  0  0  0  0  0  0  0  0  0  0
  -21.3101   15.5215  -17.4303 C   0  0  0  0  0  0  0  0  0  0  0  0
  -20.1882   14.9117  -18.1661 N   0  0  0  0  0  0  0  0  0  0  0  0
  -20.4056   14.2242  -19.3575 C   0  0  0  0  0  0  0  0  0  0  0  0
  -21.6138   14.1441  -19.7691 O   0  0  0  0  0  0  0  0  0  0  0  0
  -19.2616   15.0467  -17.6861 H   0  0  0  0  0  0  0  0  0  0  0  0
  -18.0979   13.2676  -19.5026 C   0  0  0  0  0  0  0  0  0  0  0  0
  -17.9012   11.8806  -19.0564 C   0  0  0  0  0  0  0  0  0  0  0  0
  -16.9502   10.9863  -19.5414 C   0  0  0  0  0  0  0  0  0  0  0  0
  -17.1111    9.7981  -18.8869 N   0  0  0  0  0  0  0  0  0  0  0  0
  -18.1056    9.8829  -18.0163 C   0  0  0  0  0  0  0  0  0  0  0  0
  -18.6284    8.9561  -17.1432 C   0  0  0  0  0  0  0  0  0  0  0  0
  -19.6839    9.2985  -16.3269 C   0  0  0  0  0  0  0  0  0  0  0  0
  -20.1962   10.5726  -16.4044 C   0  0  0  0  0  0  0  0  0  0  0  0
  -19.6748   11.5064  -17.2791 C   0  0  0  0  0  0  0  0  0  0  0  0
  -18.6104   11.1753  -18.1084 C   0  0  0  0  0  0  0  0  0  0  0  0
  -16.5342    8.9287  -19.0412 H   0  0  0  0  0  0  0  0  0  0  0  0
  -17.9452   16.5658  -22.2652 C   0  0  0  0  0  0  0  0  0  0  0  0
  -18.7752   17.8500  -21.9565 C   0  0  0  0  0  0  0  0  0  0  0  0
  -19.9366   17.3542  -21.2624 O   0  0  0  0  0  0  0  0  0  0  0  0
  -20.1001   16.4150  -21.5245 H   0  0  0  0  0  0  0  0  0  0  0  0
  -19.1879   18.5858  -23.1368 C   0  0  0  0  0  0  0  0  0  0  0  0
  -20.0340   18.0818  -23.9300 O   0  0  0  0  0  0  0  0  0  0  0  0
  -18.6856   19.8636  -23.4452 N   0  0  0  0  0  0  0  0  0  0  0  0
  -19.0685   20.5571  -24.5463 O   0  0  0  0  0  0  0  0  0  0  0  0
  -17.9975   20.3320  -22.8249 H   0  0  0  0  0  0  0  0  0  0  0  0
  -18.5155   20.2942  -25.3007 H   0  0  0  0  0  0  0  0  0  0  0  0
  -16.5118   16.8990  -22.3229 C   0  0  0  0  0  0  0  0  0  0  0  0
  -15.7578   16.6837  -23.5872 C   0  0  0  0  0  0  0  0  0  0  0  0
  -16.4304   16.9759  -24.8798 C   0  0  0  0  0  0  0  0  0  0  0  0
  -15.3353   15.1969  -23.6629 C   0  0  0  0  0  0  0  0  0  0  0  0
  6  7  1  0  0  0
  7  8  1  0  0  0
  8  9  2  0  0  0
  8  5  1  0  0  0
  5 11  1  0  0  0
 11 12  1  0  0  0
 12 13  2  0  0  0
 13 14  1  0  0  0
 14 15  1  0  0  0
 15 16  2  0  0  0
 16 17  1  0  0  0
 17 18  2  0  0  0
 18 19  1  0  0  0
 19 20  2  0  0  0
  5  1  1  0  0  0
  1  2  1  0  0  0
  2  3  2  0  0  0
  2 22  1  0  0  0
 22 32  1  0  0  0
 32 33  1  0  0  0
 33 34  1  0  0  0
 33 35  1  0  0  0
 22 23  1  0  0  0
 23 24  1  0  0  0
 23 26  1  0  0  0
 26 27  2  0  0  0
 26 28  1  0  0  0
 28 29  1  0  0  0
 20 12  1  0  0  0
 20 15  1  0  0  0
  7 10  1  0  0  0
 14 21  1  0  0  0
  1  4  1  0  0  0
 24 25  1  0  0  0
 28 30  1  0  0  0
 29 31  1  0  0  0
M  END
> <minimizedAffinity>
-7.50163

> <CNNscore>
0.3980137110

> <CNNaffinity>
6.1242294312

> <CNN_VS>
2.4375271797

> <CNNaffinity_variance>
0.2566937208

$$$$
[H]ON([H])C(=O)[C@@]([H])(O[H])[C@]([H])(C(=O)N([H])[C@]([H])(C(=O)N([H])C([H])([H])[H])C([H])([H])c1c([H])n([H])c2c([H])c([H])c([H])c([H])c12)C([H])([H])C([H])(C([H])([H])[H])C([H])([H])[H]


 35 36  0  0  0  0  0  0  0  0999 V2000
  -17.2836   13.8380  -20.7609 N   0  0  0  0  0  0  0  0  0  0  0  0
  -18.2958   14.7716  -20.4613 C   0  0  0  0  0  0  0  0  0  0  0  0
  -19.4908   14.5056  -20.8310 O   0  0  0  0  0  0  0  0  0  0  0  0
  -16.3025   14.0273  -20.4817 H   0  0  0  0  0  0  0  0  0  0  0  0
  -17.5536   12.5707  -21.4708 C   0  0  0  0  0  0  0  0  0  0  0  0
  -17.7901   10.2380  -18.3453 C   0  0  0  0  0  0  0  0  0  0  0  0
  -17.9255   11.4408  -19.1862 N   0  0  0  0  0  0  0  0  0  0  0  0
  -17.4805   11.4430  -20.5058 C   0  0  0  0  0  0  0  0  0  0  0  0
  -16.9484   10.3643  -20.9404 O   0  0  0  0  0  0  0  0  0  0  0  0
  -18.3630   12.2504  -18.6760 H   0  0  0  0  0  0  0  0  0  0  0  0
  -16.5636   12.4881  -22.5863 C   0  0  0  0  0  0  0  0  0  0  0  0
  -16.7871   13.3851  -23.7296 C   0  0  0  0  0  0  0  0  0  0  0  0
  -18.0160   13.6886  -24.3105 C   0  0  0  0  0  0  0  0  0  0  0  0
  -17.7931   14.5363  -25.3582 N   0  0  0  0  0  0  0  0  0  0  0  0
  -16.4987   14.7897  -25.4784 C   0  0  0  0  0  0  0  0  0  0  0  0
  -15.8073   15.5751  -26.3726 C   0  0  0  0  0  0  0  0  0  0  0  0
  -14.4362   15.6747  -26.2842 C   0  0  0  0  0  0  0  0  0  0  0  0
  -13.7831   14.9794  -25.2933 C   0  0  0  0  0  0  0  0  0  0  0  0
  -14.4728   14.1897  -24.3934 C   0  0  0  0  0  0  0  0  0  0  0  0
  -15.8556   14.0797  -24.4704 C   0  0  0  0  0  0  0  0  0  0  0  0
  -18.5347   14.9400  -25.9903 H   0  0  0  0  0  0  0  0  0  0  0  0
  -18.0882   16.0378  -19.7425 C   0  0  0  0  0  0  0  0  0  0  0  0
  -18.0378   15.5911  -18.2487 C   0  0  0  0  0  0  0  0  0  0  0  0
  -18.6613   14.2920  -18.2537 O   0  0  0  0  0  0  0  0  0  0  0  0
  -19.2787   14.2266  -19.0233 H   0  0  0  0  0  0  0  0  0  0  0  0
  -18.7509   16.4724  -17.3432 C   0  0  0  0  0  0  0  0  0  0  0  0
  -19.1445   17.6048  -17.7453 O   0  0  0  0  0  0  0  0  0  0  0  0
  -19.0370   16.1176  -16.0119 N   0  0  0  0  0  0  0  0  0  0  0  0
  -19.7044   16.9364  -15.1610 O   0  0  0  0  0  0  0  0  0  0  0  0
  -18.7487   15.1964  -15.6299 H   0  0  0  0  0  0  0  0  0  0  0  0
  -19.0738   17.5396  -14.7337 H   0  0  0  0  0  0  0  0  0  0  0  0
  -16.8489   16.7523  -20.0924 C   0  0  0  0  0  0  0  0  0  0  0  0
  -16.8590   17.7387  -21.2061 C   0  0  0  0  0  0  0  0  0  0  0  0
  -18.1513   18.3556  -21.6035 C   0  0  0  0  0  0  0  0  0  0  0  0
  -16.3156   17.0497  -22.4808 C   0  0  0  0  0  0  0  0  0  0  0  0
  6  7  1  0  0  0
  7  8  1  0  0  0
  8  9  2  0  0  0
  8  5  1  0  0  0
  5 11  1  0  0  0
 11 12  1  0  0  0
 12 13  2  0  0  0
 13 14  1  0  0  0
 14 15  1  0  0  0
 15 16  2  0  0  0
 16 17  1  0  0  0
 17 18  2  0  0  0
 18 19  1  0  0  0
 19 20  2  0  0  0
  5  1  1  0  0  0
  1  2  1  0  0  0
  2  3  2  0  0  0
  2 22  1  0  0  0
 22 32  1  0  0  0
 32 33  1  0  0  0
 33 34  1  0  0  0
 33 35  1  0  0  0
 22 23  1  0  0  0
 23 24  1  0  0  0
 23 26  1  0  0  0
 26 27  2  0  0  0
 26 28  1  0  0  0
 28 29  1  0  0  0
 20 12  1  0  0  0
 20 15  1  0  0  0
  7 10  1  0  0  0
 14 21  1  0  0  0
  1  4  1  0  0  0
 24 25  1  0  0  0
 28 30  1  0  0  0
 29 31  1  0  0  0
M  END
> <minimizedAffinity>
-7.93402

> <CNNscore>
0.3793976009

> <CNNaffinity>
6.4243788719

> <CNN_VS>
2.4373939037

> <CNNaffinity_variance>
0.0753664598

$$$$
[H]ON([H])C(=O)[C@@]([H])(O[H])[C@]([H])(C(=O)N([H])[C@]([H])(C(=O)N([H])C([H])([H])[H])C([H])([H])c1c([H])n([H])c2c([H])c([H])c([H])c([H])c12)C([H])([H])C([H])(C([H])([H])[H])C([H])([H])[H]


 35 36  0  0  0  0  0  0  0  0999 V2000
  -18.7292   14.0212  -21.7904 N   0  0  0  0  0  0  0  0  0  0  0  0
  -17.5776   14.7783  -22.0843 C   0  0  0  0  0  0  0  0  0  0  0  0
  -16.9081   15.2624  -21.1081 O   0  0  0  0  0  0  0  0  0  0  0  0
  -19.2987   13.6211  -22.5596 H   0  0  0  0  0  0  0  0  0  0  0  0
  -19.1799   13.7610  -20.4075 C   0  0  0  0  0  0  0  0  0  0  0  0
  -20.2772   17.1825  -18.8728 C   0  0  0  0  0  0  0  0  0  0  0  0
  -19.4007   16.0846  -19.3181 N   0  0  0  0  0  0  0  0  0  0  0  0
  -19.9329   14.9404  -19.9071 C   0  0  0  0  0  0  0  0  0  0  0  0
  -21.2047   14.8899  -20.0318 O   0  0  0  0  0  0  0  0  0  0  0  0
  -18.3828   16.2689  -19.1256 H   0  0  0  0  0  0  0  0  0  0  0  0
  -17.9565   13.4336  -19.6155 C   0  0  0  0  0  0  0  0  0  0  0  0
  -17.8070   12.0351  -19.1871 C   0  0  0  0  0  0  0  0  0  0  0  0
  -16.8997   11.1098  -19.6974 C   0  0  0  0  0  0  0  0  0  0  0  0
  -17.0963    9.9217  -19.0526 N   0  0  0  0  0  0  0  0  0  0  0  0
  -18.0722   10.0355  -18.1647 C   0  0  0  0  0  0  0  0  0  0  0  0
  -18.6165    9.1201  -17.2926 C   0  0  0  0  0  0  0  0  0  0  0  0
  -19.6443    9.4943  -16.4551 C   0  0  0  0  0  0  0  0  0  0  0  0
  -20.1075   10.7882  -16.5106 C   0  0  0  0  0  0  0  0  0  0  0  0
  -19.5644   11.7106  -17.3843 C   0  0  0  0  0  0  0  0  0  0  0  0
  -18.5275   11.3475  -18.2347 C   0  0  0  0  0  0  0  0  0  0  0  0
  -16.5565    9.0322  -19.2258 H   0  0  0  0  0  0  0  0  0  0  0  0
  -17.0728   15.0531  -23.4381 C   0  0  0  0  0  0  0  0  0  0  0  0
  -15.7452   15.8269  -23.1691 C   0  0  0  0  0  0  0  0  0  0  0  0
  -16.1772   17.1762  -22.9061 O   0  0  0  0  0  0  0  0  0  0  0  0
  -17.0474   17.3348  -23.3478 H   0  0  0  0  0  0  0  0  0  0  0  0
  -14.8189   15.8187  -24.2857 C   0  0  0  0  0  0  0  0  0  0  0  0
  -13.8926   14.9591  -24.3299 O   0  0  0  0  0  0  0  0  0  0  0  0
  -14.9070   16.7375  -25.3478 N   0  0  0  0  0  0  0  0  0  0  0  0
  -14.0450   16.7341  -26.3951 O   0  0  0  0  0  0  0  0  0  0  0  0
  -15.6536   17.4584  -25.3711 H   0  0  0  0  0  0  0  0  0  0  0  0
  -13.2609   17.2613  -26.1684 H   0  0  0  0  0  0  0  0  0  0  0  0
  -16.7976   13.8563  -24.2510 C   0  0  0  0  0  0  0  0  0  0  0  0
  -17.5813   13.6152  -25.4924 C   0  0  0  0  0  0  0  0  0  0  0  0
  -17.8800   12.2145  -25.8891 C   0  0  0  0  0  0  0  0  0  0  0  0
  -16.8163   14.2337  -26.6870 C   0  0  0  0  0  0  0  0  0  0  0  0
  6  7  1  0  0  0
  7  8  1  0  0  0
  8  9  2  0  0  0
  8  5  1  0  0  0
  5 11  1  0  0  0
 11 12  1  0  0  0
 12 13  2  0  0  0
 13 14  1  0  0  0
 14 15  1  0  0  0
 15 16  2  0  0  0
 16 17  1  0  0  0
 17 18  2  0  0  0
 18 19  1  0  0  0
 19 20  2  0  0  0
  5  1  1  0  0  0
  1  2  1  0  0  0
  2  3  2  0  0  0
  2 22  1  0  0  0
 22 32  1  0  0  0
 32 33  1  0  0  0
 33 34  1  0  0  0
 33 35  1  0  0  0
 22 23  1  0  0  0
 23 24  1  0  0  0
 23 26  1  0  0  0
 26 27  2  0  0  0
 26 28  1  0  0  0
 28 29  1  0  0  0
 20 12  1  0  0  0
 20 15  1  0  0  0
  7 10  1  0  0  0
 14 21  1  0  0  0
  1  4  1  0  0  0
 24 25  1  0  0  0
 28 30  1  0  0  0
 29 31  1  0  0  0
M  END
> <minimizedAffinity>
-8.71482

> <CNNscore>
0.3531514406

> <CNNaffinity>
6.3066811562

> <CNN_VS>
2.2272136211

> <CNNaffinity_variance>
0.0694939047

$$$$
[H]ON([H])C(=O)[C@@]([H])(O[H])[C@]([H])(C(=O)N([H])[C@]([H])(C(=O)N([H])C([H])([H])[H])C([H])([H])c1c([H])n([H])c2c([H])c([H])c([H])c([H])c12)C([H])([H])C([H])(C([H])([H])[H])C([H])([H])[H]


 35 36  0  0  0  0  0  0  0  0999 V2000
  -17.3746   14.9130  -22.6121 N   0  0  0  0  0  0  0  0  0  0  0  0
  -17.2285   15.9387  -21.6569 C   0  0  0  0  0  0  0  0  0  0  0  0
  -16.1967   15.9176  -20.9016 O   0  0  0  0  0  0  0  0  0  0  0  0
  -18.2041   14.8969  -23.2349 H   0  0  0  0  0  0  0  0  0  0  0  0
  -16.3824   13.8308  -22.7769 C   0  0  0  0  0  0  0  0  0  0  0  0
  -13.9765   15.1117  -25.5763 C   0  0  0  0  0  0  0  0  0  0  0  0
  -14.6525   15.0192  -24.2700 N   0  0  0  0  0  0  0  0  0  0  0  0
  -15.6234   14.0488  -24.0358 C   0  0  0  0  0  0  0  0  0  0  0  0
  -15.8994   13.2589  -25.0029 O   0  0  0  0  0  0  0  0  0  0  0  0
  -14.3298   15.7533  -23.5887 H   0  0  0  0  0  0  0  0  0  0  0  0
  -17.1428   12.5458  -22.7342 C   0  0  0  0  0  0  0  0  0  0  0  0
  -17.0917   11.7948  -21.4711 C   0  0  0  0  0  0  0  0  0  0  0  0
  -16.2234   10.7487  -21.1694 C   0  0  0  0  0  0  0  0  0  0  0  0
  -16.5128   10.3058  -19.9100 N   0  0  0  0  0  0  0  0  0  0  0  0
  -17.5113   11.0061  -19.3937 C   0  0  0  0  0  0  0  0  0  0  0  0
  -18.1395   10.9249  -18.1716 C   0  0  0  0  0  0  0  0  0  0  0  0
  -19.1725   11.7850  -17.8704 C   0  0  0  0  0  0  0  0  0  0  0  0
  -19.5559   12.7153  -18.8082 C   0  0  0  0  0  0  0  0  0  0  0  0
  -18.9284   12.8007  -20.0362 C   0  0  0  0  0  0  0  0  0  0  0  0
  -17.8852   11.9398  -20.3538 C   0  0  0  0  0  0  0  0  0  0  0  0
  -16.0208    9.5200  -19.4070 H   0  0  0  0  0  0  0  0  0  0  0  0
  -18.1731   17.0489  -21.4615 C   0  0  0  0  0  0  0  0  0  0  0  0
  -18.0485   17.3538  -19.9367 C   0  0  0  0  0  0  0  0  0  0  0  0
  -18.6410   16.2032  -19.3032 O   0  0  0  0  0  0  0  0  0  0  0  0
  -19.2890   15.7847  -19.9217 H   0  0  0  0  0  0  0  0  0  0  0  0
  -18.7426   18.5560  -19.5150 C   0  0  0  0  0  0  0  0  0  0  0  0
  -20.0013   18.6246  -19.6138 O   0  0  0  0  0  0  0  0  0  0  0  0
  -18.0685   19.6714  -18.9843 N   0  0  0  0  0  0  0  0  0  0  0  0
  -18.7118   20.7975  -18.5870 O   0  0  0  0  0  0  0  0  0  0  0  0
  -17.0368   19.6680  -18.8690 H   0  0  0  0  0  0  0  0  0  0  0  0
  -18.8287   21.3877  -19.3500 H   0  0  0  0  0  0  0  0  0  0  0  0
  -17.8719   18.2623  -22.2400 C   0  0  0  0  0  0  0  0  0  0  0  0
  -18.7922   18.6827  -23.3307 C   0  0  0  0  0  0  0  0  0  0  0  0
  -19.2459   20.0971  -23.3783 C   0  0  0  0  0  0  0  0  0  0  0  0
  -20.0825   17.8329  -23.2429 C   0  0  0  0  0  0  0  0  0  0  0  0
  6  7  1  0  0  0
  7  8  1  0  0  0
  8  9  2  0  0  0
  8  5  1  0  0  0
  5 11  1  0  0  0
 11 12  1  0  0  0
 12 13  2  0  0  0
 13 14  1  0  0  0
 14 15  1  0  0  0
 15 16  2  0  0  0
 16 17  1  0  0  0
 17 18  2  0  0  0
 18 19  1  0  0  0
 19 20  2  0  0  0
  5  1  1  0  0  0
  1  2  1  0  0  0
  2  3  2  0  0  0
  2 22  1  0  0  0
 22 32  1  0  0  0
 32 33  1  0  0  0
 33 34  1  0  0  0
 33 35  1  0  0  0
 22 23  1  0  0  0
 23 24  1  0  0  0
 23 26  1  0  0  0
 26 27  2  0  0  0
 26 28  1  0  0  0
 28 29  1  0  0  0
 20 12  1  0  0  0
 20 15  1  0  0  0
  7 10  1  0  0  0
 14 21  1  0  0  0
  1  4  1  0  0  0
 24 25  1  0  0  0
 28 30  1  0  0  0
 29 31  1  0  0  0
M  END
> <minimizedAffinity>
-7.79963

> <CNNscore>
0.3511743844

> <CNNaffinity>
6.0917372704

> <CNN_VS>
2.1392621994

> <CNNaffinity_variance>
0.1518972218

$$$$
[H]ON([H])C(=O)[C@@]([H])(O[H])[C@]([H])(C(=O)N([H])[C@]([H])(C(=O)N([H])C([H])([H])[H])C([H])([H])c1c([H])n([H])c2c([H])c([H])c([H])c([H])c12)C([H])([H])C([H])(C([H])([H])[H])C([H])([H])[H]


 35 36  0  0  0  0  0  0  0  0999 V2000
  -17.3186   14.7782  -22.5481 N   0  0  0  0  0  0  0  0  0  0  0  0
  -17.2572   15.8593  -21.6462 C   0  0  0  0  0  0  0  0  0  0  0  0
  -16.2273   15.9608  -20.8949 O   0  0  0  0  0  0  0  0  0  0  0  0
  -18.1438   14.6629  -23.1661 H   0  0  0  0  0  0  0  0  0  0  0  0
  -16.2409   13.7739  -22.6622 C   0  0  0  0  0  0  0  0  0  0  0  0
  -14.4026   15.4406  -25.6803 C   0  0  0  0  0  0  0  0  0  0  0  0
  -15.2518   15.3031  -24.4837 N   0  0  0  0  0  0  0  0  0  0  0  0
  -15.4250   14.0653  -23.8696 C   0  0  0  0  0  0  0  0  0  0  0  0
  -14.8235   13.0671  -24.3962 O   0  0  0  0  0  0  0  0  0  0  0  0
  -15.6932   16.2113  -24.1878 H   0  0  0  0  0  0  0  0  0  0  0  0
  -16.9055   12.4363  -22.6796 C   0  0  0  0  0  0  0  0  0  0  0  0
  -16.8902   11.6796  -21.4190 C   0  0  0  0  0  0  0  0  0  0  0  0
  -16.0289   10.6338  -21.0965 C   0  0  0  0  0  0  0  0  0  0  0  0
  -16.3544   10.1846  -19.8483 N   0  0  0  0  0  0  0  0  0  0  0  0
  -17.3691   10.8805  -19.3585 C   0  0  0  0  0  0  0  0  0  0  0  0
  -18.0330   10.7924  -18.1558 C   0  0  0  0  0  0  0  0  0  0  0  0
  -19.0763   11.6491  -17.8813 C   0  0  0  0  0  0  0  0  0  0  0  0
  -19.4338   12.5829  -18.8258 C   0  0  0  0  0  0  0  0  0  0  0  0
  -18.7705   12.6752  -20.0343 C   0  0  0  0  0  0  0  0  0  0  0  0
  -17.7166   11.8179  -20.3250 C   0  0  0  0  0  0  0  0  0  0  0  0
  -15.8758    9.3975  -19.3346 H   0  0  0  0  0  0  0  0  0  0  0  0
  -18.2897   16.8969  -21.5031 C   0  0  0  0  0  0  0  0  0  0  0  0
  -18.1795   17.6909  -22.8414 C   0  0  0  0  0  0  0  0  0  0  0  0
  -16.8237   17.4598  -23.2714 O   0  0  0  0  0  0  0  0  0  0  0  0
  -16.2597   17.2563  -22.4853 H   0  0  0  0  0  0  0  0  0  0  0  0
  -18.4130   19.1163  -22.7046 C   0  0  0  0  0  0  0  0  0  0  0  0
  -18.9334   19.7641  -23.6577 O   0  0  0  0  0  0  0  0  0  0  0  0
  -18.0866   19.8270  -21.5348 N   0  0  0  0  0  0  0  0  0  0  0  0
  -18.3037   21.1592  -21.4002 O   0  0  0  0  0  0  0  0  0  0  0  0
  -17.6677   19.3459  -20.7158 H   0  0  0  0  0  0  0  0  0  0  0  0
  -17.5440   21.6470  -21.7594 H   0  0  0  0  0  0  0  0  0  0  0  0
  -19.6611   16.3866  -21.3364 C   0  0  0  0  0  0  0  0  0  0  0  0
  -20.3381   16.5167  -20.0180 C   0  0  0  0  0  0  0  0  0  0  0  0
  -19.5341   16.3413  -18.7806 C   0  0  0  0  0  0  0  0  0  0  0  0
  -21.4665   15.4609  -19.9362 C   0  0  0  0  0  0  0  0  0  0  0  0
  6  7  1  0  0  0
  7  8  1  0  0  0
  8  9  2  0  0  0
  8  5  1  0  0  0
  5 11  1  0  0  0
 11 12  1  0  0  0
 12 13  2  0  0  0
 13 14  1  0  0  0
 14 15  1  0  0  0
 15 16  2  0  0  0
 16 17  1  0  0  0
 17 18  2  0  0  0
 18 19  1  0  0  0
 19 20  2  0  0  0
  5  1  1  0  0  0
  1  2  1  0  0  0
  2  3  2  0  0  0
  2 22  1  0  0  0
 22 32  1  0  0  0
 32 33  1  0  0  0
 33 34  1  0  0  0
 33 35  1  0  0  0
 22 23  1  0  0  0
 23 24  1  0  0  0
 23 26  1  0  0  0
 26 27  2  0  0  0
 26 28  1  0  0  0
 28 29  1  0  0  0
 20 12  1  0  0  0
 20 15  1  0  0  0
  7 10  1  0  0  0
 14 21  1  0  0  0
  1  4  1  0  0  0
 24 25  1  0  0  0
 28 30  1  0  0  0
 29 31  1  0  0  0
M  END
> <minimizedAffinity>
-7.80309

> <CNNscore>
0.3423887193

> <CNNaffinity>
6.3295197487

> <CNN_VS>
2.1671562195

> <CNNaffinity_variance>
0.1261554062

$$$$
[H]ON([H])C(=O)[C@@]([H])(O[H])[C@]([H])(C(=O)N([H])[C@]([H])(C(=O)N([H])C([H])([H])[H])C([H])([H])c1c([H])n([H])c2c([H])c([H])c([H])c([H])c12)C([H])([H])C([H])(C([H])([H])[H])C([H])([H])[H]


 35 36  0  0  0  0  0  0  0  0999 V2000
  -18.5296   17.1849  -23.1999 N   0  0  0  0  0  0  0  0  0  0  0  0
  -19.4853   18.1992  -23.4091 C   0  0  0  0  0  0  0  0  0  0  0  0
  -19.0741   19.3435  -23.8053 O   0  0  0  0  0  0  0  0  0  0  0  0
  -18.8295   16.2478  -22.8712 H   0  0  0  0  0  0  0  0  0  0  0  0
  -17.0849   17.3920  -23.4299 C   0  0  0  0  0  0  0  0  0  0  0  0
  -15.1368   15.7610  -26.3981 C   0  0  0  0  0  0  0  0  0  0  0  0
  -15.4289   16.6454  -25.2560 N   0  0  0  0  0  0  0  0  0  0  0  0
  -16.6514   16.5747  -24.5928 C   0  0  0  0  0  0  0  0  0  0  0  0
  -17.4980   15.7198  -25.0262 O   0  0  0  0  0  0  0  0  0  0  0  0
  -14.6400   17.3064  -25.0371 H   0  0  0  0  0  0  0  0  0  0  0  0
  -16.3965   17.0497  -22.1492 C   0  0  0  0  0  0  0  0  0  0  0  0
  -17.0875   16.0982  -21.2667 C   0  0  0  0  0  0  0  0  0  0  0  0
  -17.7309   16.4028  -20.0697 C   0  0  0  0  0  0  0  0  0  0  0  0
  -18.2225   15.2419  -19.5439 N   0  0  0  0  0  0  0  0  0  0  0  0
  -17.9310   14.2191  -20.3331 C   0  0  0  0  0  0  0  0  0  0  0  0
  -18.2134   12.8767  -20.2199 C   0  0  0  0  0  0  0  0  0  0  0  0
  -17.7908   12.0000  -21.1949 C   0  0  0  0  0  0  0  0  0  0  0  0
  -17.0890   12.4922  -22.2705 C   0  0  0  0  0  0  0  0  0  0  0  0
  -16.8032   13.8388  -22.3886 C   0  0  0  0  0  0  0  0  0  0  0  0
  -17.2229   14.7346  -21.4131 C   0  0  0  0  0  0  0  0  0  0  0  0
  -18.7594   15.1559  -18.6401 H   0  0  0  0  0  0  0  0  0  0  0  0
  -20.9348   18.0442  -23.2143 C   0  0  0  0  0  0  0  0  0  0  0  0
  -21.1429   18.5002  -21.7371 C   0  0  0  0  0  0  0  0  0  0  0  0
  -19.8082   18.7709  -21.2662 O   0  0  0  0  0  0  0  0  0  0  0  0
  -19.1604   18.2384  -21.7900 H   0  0  0  0  0  0  0  0  0  0  0  0
  -21.7664   17.4998  -20.8912 C   0  0  0  0  0  0  0  0  0  0  0  0
  -22.8046   16.8970  -21.2884 O   0  0  0  0  0  0  0  0  0  0  0  0
  -21.2571   17.1563  -19.6252 N   0  0  0  0  0  0  0  0  0  0  0  0
  -21.8346   16.2210  -18.8305 O   0  0  0  0  0  0  0  0  0  0  0  0
  -20.4011   17.6097  -19.2519 H   0  0  0  0  0  0  0  0  0  0  0  0
  -22.5332   16.6374  -18.2987 H   0  0  0  0  0  0  0  0  0  0  0  0
  -21.7707   18.8599  -24.1115 C   0  0  0  0  0  0  0  0  0  0  0  0
  -23.1331   18.3876  -24.4775 C   0  0  0  0  0  0  0  0  0  0  0  0
  -23.2650   17.2201  -25.3875 C   0  0  0  0  0  0  0  0  0  0  0  0
  -23.8872   19.5464  -25.1727 C   0  0  0  0  0  0  0  0  0  0  0  0
  6  7  1  0  0  0
  7  8  1  0  0  0
  8  9  2  0  0  0
  8  5  1  0  0  0
  5 11  1  0  0  0
 11 12  1  0  0  0
 12 13  2  0  0  0
 13 14  1  0  0  0
 14 15  1  0  0  0
 15 16  2  0  0  0
 16 17  1  0  0  0
 17 18  2  0  0  0
 18 19  1  0  0  0
 19 20  2  0  0  0
  5  1  1  0  0  0
  1  2  1  0  0  0
  2  3  2  0  0  0
  2 22  1  0  0  0
 22 32  1  0  0  0
 32 33  1  0  0  0
 33 34  1  0  0  0
 33 35  1  0  0  0
 22 23  1  0  0  0
 23 24  1  0  0  0
 23 26  1  0  0  0
 26 27  2  0  0  0
 26 28  1  0  0  0
 28 29  1  0  0  0
 20 12  1  0  0  0
 20 15  1  0  0  0
  7 10  1  0  0  0
 14 21  1  0  0  0
  1  4  1  0  0  0
 24 25  1  0  0  0
 28 30  1  0  0  0
 29 31  1  0  0  0
M  END
> <minimizedAffinity>
-7.16789

> <CNNscore>
0.2661374807

> <CNNaffinity>
5.7463011742

> <CNN_VS>
1.5293061733

> <CNNaffinity_variance>
0.1190909892

$$$$
[H]ON([H])C(=O)[C@@]([H])(O[H])[C@]([H])(C(=O)N([H])[C@]([H])(C(=O)N([H])C([H])([H])[H])C([H])([H])c1c([H])n([H])c2c([H])c([H])c([H])c([H])c12)C([H])([H])C([H])(C([H])([H])[H])C([H])([H])[H]


 35 36  0  0  0  0  0  0  0  0999 V2000
  -18.8310   15.7149  -19.3686 N   0  0  0  0  0  0  0  0  0  0  0  0
  -19.2218   14.9865  -20.5100 C   0  0  0  0  0  0  0  0  0  0  0  0
  -20.2891   14.2853  -20.4424 O   0  0  0  0  0  0  0  0  0  0  0  0
  -17.9662   16.2874  -19.3881 H   0  0  0  0  0  0  0  0  0  0  0  0
  -19.6091   15.7051  -18.1126 C   0  0  0  0  0  0  0  0  0  0  0  0
  -19.4100   19.5519  -17.4577 C   0  0  0  0  0  0  0  0  0  0  0  0
  -19.0571   18.2172  -17.9735 N   0  0  0  0  0  0  0  0  0  0  0  0
  -19.8349   17.1040  -17.6648 C   0  0  0  0  0  0  0  0  0  0  0  0
  -20.8521   17.2970  -16.9142 O   0  0  0  0  0  0  0  0  0  0  0  0
  -18.1816   18.2216  -18.5571 H   0  0  0  0  0  0  0  0  0  0  0  0
  -18.8418   14.8673  -17.1429 C   0  0  0  0  0  0  0  0  0  0  0  0
  -19.2000   13.4427  -17.0796 C   0  0  0  0  0  0  0  0  0  0  0  0
  -20.2481   12.8886  -16.3488 C   0  0  0  0  0  0  0  0  0  0  0  0
  -20.2283   11.5356  -16.5363 N   0  0  0  0  0  0  0  0  0  0  0  0
  -19.2325   11.1966  -17.3408 C   0  0  0  0  0  0  0  0  0  0  0  0
  -18.8232    9.9691  -17.8103 C   0  0  0  0  0  0  0  0  0  0  0  0
  -17.7365    9.8818  -18.6523 C   0  0  0  0  0  0  0  0  0  0  0  0
  -17.0787   11.0362  -19.0082 C   0  0  0  0  0  0  0  0  0  0  0  0
  -17.4857   12.2706  -18.5396 C   0  0  0  0  0  0  0  0  0  0  0  0
  -18.5799   12.3739  -17.6898 C   0  0  0  0  0  0  0  0  0  0  0  0
  -20.9025   10.8464  -16.1087 H   0  0  0  0  0  0  0  0  0  0  0  0
  -18.4976   14.9737  -21.7900 C   0  0  0  0  0  0  0  0  0  0  0  0
  -18.3956   16.4876  -22.1526 C   0  0  0  0  0  0  0  0  0  0  0  0
  -19.7205   16.9949  -21.9003 O   0  0  0  0  0  0  0  0  0  0  0  0
  -20.3755   16.2588  -21.9822 H   0  0  0  0  0  0  0  0  0  0  0  0
  -18.0291   16.7420  -23.5331 C   0  0  0  0  0  0  0  0  0  0  0  0
  -18.5269   16.0373  -24.4576 O   0  0  0  0  0  0  0  0  0  0  0  0
  -17.1314   17.7611  -23.9015 N   0  0  0  0  0  0  0  0  0  0  0  0
  -16.7860   18.0048  -25.1904 O   0  0  0  0  0  0  0  0  0  0  0  0
  -16.7003   18.3785  -23.1869 H   0  0  0  0  0  0  0  0  0  0  0  0
  -16.0420   17.4311  -25.4382 H   0  0  0  0  0  0  0  0  0  0  0  0
  -17.1503   14.3817  -21.7331 C   0  0  0  0  0  0  0  0  0  0  0  0
  -16.7222   13.4267  -22.7905 C   0  0  0  0  0  0  0  0  0  0  0  0
  -16.3485   12.0434  -22.3963 C   0  0  0  0  0  0  0  0  0  0  0  0
  -15.4792   14.0074  -23.5063 C   0  0  0  0  0  0  0  0  0  0  0  0
  6  7  1  0  0  0
  7  8  1  0  0  0
  8  9  2  0  0  0
  8  5  1  0  0  0
  5 11  1  0  0  0
 11 12  1  0  0  0
 12 13  2  0  0  0
 13 14  1  0  0  0
 14 15  1  0  0  0
 15 16  2  0  0  0
 16 17  1  0  0  0
 17 18  2  0  0  0
 18 19  1  0  0  0
 19 20  2  0  0  0
  5  1  1  0  0  0
  1  2  1  0  0  0
  2  3  2  0  0  0
  2 22  1  0  0  0
 22 32  1  0  0  0
 32 33  1  0  0  0
 33 34  1  0  0  0
 33 35  1  0  0  0
 22 23  1  0  0  0
 23 24  1  0  0  0
 23 26  1  0  0  0
 26 27  2  0  0  0
 26 28  1  0  0  0
 28 29  1  0  0  0
 20 12  1  0  0  0
 20 15  1  0  0  0
  7 10  1  0  0  0
 14 21  1  0  0  0
  1  4  1  0  0  0
 24 25  1  0  0  0
 28 30  1  0  0  0
 29 31  1  0  0  0
M  END
> <minimizedAffinity>
-7.03531

> <CNNscore>
0.2222144008

> <CNNaffinity>
5.6681394577

> <CNN_VS>
1.2595422268

> <CNNaffinity_variance>
0.1878293753

$$$$
[H]ON([H])C(=O)[C@@]([H])(O[H])[C@]([H])(C(=O)N([H])[C@]([H])(C(=O)N([H])C([H])([H])[H])C([H])([H])c1c([H])n([H])c2c([H])c([H])c([H])c([H])c12)C([H])([H])C([H])(C([H])([H])[H])C([H])([H])[H]


 35 36  0  0  0  0  0  0  0  0999 V2000
  -18.8369   13.7387  -19.6400 N   0  0  0  0  0  0  0  0  0  0  0  0
  -18.7852   13.7510  -18.2318 C   0  0  0  0  0  0  0  0  0  0  0  0
  -18.1303   14.6888  -17.6600 O   0  0  0  0  0  0  0  0  0  0  0  0
  -19.3533   12.9873  -20.1348 H   0  0  0  0  0  0  0  0  0  0  0  0
  -18.1763   14.7670  -20.4703 C   0  0  0  0  0  0  0  0  0  0  0  0
  -18.7053   18.4491  -19.2752 C   0  0  0  0  0  0  0  0  0  0  0  0
  -18.0265   17.1730  -19.5630 N   0  0  0  0  0  0  0  0  0  0  0  0
  -18.7229   16.1042  -20.1216 C   0  0  0  0  0  0  0  0  0  0  0  0
  -19.9664   16.2832  -20.3604 O   0  0  0  0  0  0  0  0  0  0  0  0
  -17.0106   17.1784  -19.2893 H   0  0  0  0  0  0  0  0  0  0  0  0
  -18.3924   14.3685  -21.8936 C   0  0  0  0  0  0  0  0  0  0  0  0
  -17.2137   13.8806  -22.6245 C   0  0  0  0  0  0  0  0  0  0  0  0
  -16.7008   12.5862  -22.5901 C   0  0  0  0  0  0  0  0  0  0  0  0
  -15.5897   12.5481  -23.3838 N   0  0  0  0  0  0  0  0  0  0  0  0
  -15.3656   13.7382  -23.9199 C   0  0  0  0  0  0  0  0  0  0  0  0
  -14.3790   14.1774  -24.7734 C   0  0  0  0  0  0  0  0  0  0  0  0
  -14.3668   15.4891  -25.1940 C   0  0  0  0  0  0  0  0  0  0  0  0
  -15.3517   16.3384  -24.7464 C   0  0  0  0  0  0  0  0  0  0  0  0
  -16.3441   15.9022  -23.8897 C   0  0  0  0  0  0  0  0  0  0  0  0
  -16.3691   14.5822  -23.4571 C   0  0  0  0  0  0  0  0  0  0  0  0
  -14.9862   11.7002  -23.5554 H   0  0  0  0  0  0  0  0  0  0  0  0
  -19.4378   12.7658  -17.3562 C   0  0  0  0  0  0  0  0  0  0  0  0
  -20.8944   13.3112  -17.2358 C   0  0  0  0  0  0  0  0  0  0  0  0
  -20.8378   14.5977  -17.8825 O   0  0  0  0  0  0  0  0  0  0  0  0
  -19.9134   14.9461  -17.8410 H   0  0  0  0  0  0  0  0  0  0  0  0
  -21.3556   13.4704  -15.8695 C   0  0  0  0  0  0  0  0  0  0  0  0
  -21.4649   12.4584  -15.1192 O   0  0  0  0  0  0  0  0  0  0  0  0
  -21.6887   14.7246  -15.3253 N   0  0  0  0  0  0  0  0  0  0  0  0
  -22.1190   14.8800  -14.0484 O   0  0  0  0  0  0  0  0  0  0  0  0
  -21.6076   15.5916  -15.8904 H   0  0  0  0  0  0  0  0  0  0  0  0
  -23.0812   14.7490  -14.0147 H   0  0  0  0  0  0  0  0  0  0  0  0
  -19.4611   11.3902  -17.8816 C   0  0  0  0  0  0  0  0  0  0  0  0
  -18.2233   10.5660  -17.8379 C   0  0  0  0  0  0  0  0  0  0  0  0
  -17.4326   10.3963  -19.0847 C   0  0  0  0  0  0  0  0  0  0  0  0
  -18.5987    9.1352  -17.3833 C   0  0  0  0  0  0  0  0  0  0  0  0
  6  7  1  0  0  0
  7  8  1  0  0  0
  8  9  2  0  0  0
  8  5  1  0  0  0
  5 11  1  0  0  0
 11 12  1  0  0  0
 12 13  2  0  0  0
 13 14  1  0  0  0
 14 15  1  0  0  0
 15 16  2  0  0  0
 16 17  1  0  0  0
 17 18  2  0  0  0
 18 19  1  0  0  0
 19 20  2  0  0  0
  5  1  1  0  0  0
  1  2  1  0  0  0
  2  3  2  0  0  0
  2 22  1  0  0  0
 22 32  1  0  0  0
 32 33  1  0  0  0
 33 34  1  0  0  0
 33 35  1  0  0  0
 22 23  1  0  0  0
 23 24  1  0  0  0
 23 26  1  0  0  0
 26 27  2  0  0  0
 26 28  1  0  0  0
 28 29  1  0  0  0
 20 12  1  0  0  0
 20 15  1  0  0  0
  7 10  1  0  0  0
 14 21  1  0  0  0
  1  4  1  0  0  0
 24 25  1  0  0  0
 28 30  1  0  0  0
 29 31  1  0  0  0
M  END
> <minimizedAffinity>
-7.39191

> <CNNscore>
0.2180679590

> <CNNaffinity>
5.8633604050

> <CNN_VS>
1.2786110640

> <CNNaffinity_variance>
0.1388984025

$$$$
[H]ON([H])C(=O)[C@@]([H])(O[H])[C@]([H])(C(=O)N([H])[C@]([H])(C(=O)N([H])C([H])([H])[H])C([H])([H])c1c([H])n([H])c2c([H])c([H])c([H])c([H])c12)C([H])([H])C([H])(C([H])([H])[H])C([H])([H])[H]


 35 36  0  0  0  0  0  0  0  0999 V2000
  -18.0815   15.9306  -20.1834 N   0  0  0  0  0  0  0  0  0  0  0  0
  -18.4026   15.1279  -19.0705 C   0  0  0  0  0  0  0  0  0  0  0  0
  -18.0628   15.5422  -17.9093 O   0  0  0  0  0  0  0  0  0  0  0  0
  -18.3362   15.6195  -21.1397 H   0  0  0  0  0  0  0  0  0  0  0  0
  -17.3823   17.2260  -20.0559 C   0  0  0  0  0  0  0  0  0  0  0  0
  -19.1908   20.3809  -18.6270 C   0  0  0  0  0  0  0  0  0  0  0  0
  -18.1133   19.4192  -18.9201 N   0  0  0  0  0  0  0  0  0  0  0  0
  -18.3623   18.2768  -19.6767 C   0  0  0  0  0  0  0  0  0  0  0  0
  -19.5600   18.1047  -20.0906 O   0  0  0  0  0  0  0  0  0  0  0  0
  -17.1923   19.6922  -18.4907 H   0  0  0  0  0  0  0  0  0  0  0  0
  -16.6961   17.4696  -21.3601 C   0  0  0  0  0  0  0  0  0  0  0  0
  -17.2659   16.7972  -22.5370 C   0  0  0  0  0  0  0  0  0  0  0  0
  -18.5274   17.0208  -23.0831 C   0  0  0  0  0  0  0  0  0  0  0  0
  -18.6835   16.1821  -24.1499 N   0  0  0  0  0  0  0  0  0  0  0  0
  -17.5991   15.4399  -24.3148 C   0  0  0  0  0  0  0  0  0  0  0  0
  -17.2969   14.4689  -25.2425 C   0  0  0  0  0  0  0  0  0  0  0  0
  -16.0762   13.8320  -25.1992 C   0  0  0  0  0  0  0  0  0  0  0  0
  -15.1780   14.1853  -24.2192 C   0  0  0  0  0  0  0  0  0  0  0  0
  -15.4768   15.1593  -23.2859 C   0  0  0  0  0  0  0  0  0  0  0  0
  -16.7039   15.8101  -23.3173 C   0  0  0  0  0  0  0  0  0  0  0  0
  -19.5388   16.1222  -24.7642 H   0  0  0  0  0  0  0  0  0  0  0  0
  -19.1122   13.8414  -19.1363 C   0  0  0  0  0  0  0  0  0  0  0  0
  -20.5937   14.2411  -18.8554 C   0  0  0  0  0  0  0  0  0  0  0  0
  -20.5817   15.6808  -18.9132 O   0  0  0  0  0  0  0  0  0  0  0  0
  -19.6747   16.0108  -18.6985 H   0  0  0  0  0  0  0  0  0  0  0  0
  -21.0885   13.8075  -17.5623 C   0  0  0  0  0  0  0  0  0  0  0  0
  -20.5739   12.8010  -16.9956 O   0  0  0  0  0  0  0  0  0  0  0  0
  -22.1322   14.4710  -16.8909 N   0  0  0  0  0  0  0  0  0  0  0  0
  -22.5981   14.0715  -15.6814 O   0  0  0  0  0  0  0  0  0  0  0  0
  -22.5849   15.3098  -17.3023 H   0  0  0  0  0  0  0  0  0  0  0  0
  -23.2796   13.3905  -15.8078 H   0  0  0  0  0  0  0  0  0  0  0  0
  -19.0188   13.1485  -20.4325 C   0  0  0  0  0  0  0  0  0  0  0  0
  -18.0738   12.0104  -20.5907 C   0  0  0  0  0  0  0  0  0  0  0  0
  -17.1734   11.6657  -19.4598 C   0  0  0  0  0  0  0  0  0  0  0  0
  -17.1427   12.3049  -21.7912 C   0  0  0  0  0  0  0  0  0  0  0  0
  6  7  1  0  0  0
  7  8  1  0  0  0
  8  9  2  0  0  0
  8  5  1  0  0  0
  5 11  1  0  0  0
 11 12  1  0  0  0
 12 13  2  0  0  0
 13 14  1  0  0  0
 14 15  1  0  0  0
 15 16  2  0  0  0
 16 17  1  0  0  0
 17 18  2  0  0  0
 18 19  1  0  0  0
 19 20  2  0  0  0
  5  1  1  0  0  0
  1  2  1  0  0  0
  2  3  2  0  0  0
  2 22  1  0  0  0
 22 32  1  0  0  0
 32 33  1  0  0  0
 33 34  1  0  0  0
 33 35  1  0  0  0
 22 23  1  0  0  0
 23 24  1  0  0  0
 23 26  1  0  0  0
 26 27  2  0  0  0
 26 28  1  0  0  0
 28 29  1  0  0  0
 20 12  1  0  0  0
 20 15  1  0  0  0
  7 10  1  0  0  0
 14 21  1  0  0  0
  1  4  1  0  0  0
 24 25  1  0  0  0
 28 30  1  0  0  0
 29 31  1  0  0  0
M  END
> <minimizedAffinity>
-7.23773

> <CNNscore>
0.2076974660

> <CNNaffinity>
5.6111016273

> <CNN_VS>
1.1654115915

> <CNNaffinity_variance>
0.3623599112

$$$$
[H]N=C(N([H])[H])N([H])C([H])([H])C([H])([H])C([H])([H])[C@@]([H])(C(=O)N([H])[C@]([H])(C(=O)O[H])C([H])([H])c1c([H])n([H])c2c([H])c([H])c([H])c([H])c12)N([H])C(=O)[C@@]([H])(N([H])C(=O)[C@@]([H])(N([H])C(=O)[C@@]([H])(N([H])[H])C([H])([H])c1c([H])c([H])c(O[H])c([H])c1[H])[C@@]([H])(C([H])([H])[H])C([H])([H])C([H])([H])[H])C([H])([H])c1c([H])c([H])c([H])c([H])c1[H]


 70 73  0  0  0  0  0  0  0  0999 V2000
  -20.4514   17.5211  -21.2692 C   0  0  0  0  0  0  0  0  0  0  0  0
  -20.4840   16.2962  -21.0356 O   0  0  0  0  0  0  0  0  0  0  0  0
  -19.3440   18.2845  -20.8524 N   0  0  0  0  0  0  0  0  0  0  0  0
  -19.2577   19.2999  -21.0347 H   0  0  0  0  0  0  0  0  0  0  0  0
  -21.5651   18.1639  -21.9788 C   0  0  0  0  0  0  0  0  0  0  0  0
  -23.6936   19.0962  -21.1381 C   0  0  0  0  0  0  0  0  0  0  0  0
  -24.2718   18.1704  -21.7585 O   0  0  0  0  0  0  0  0  0  0  0  0
  -22.2842   19.1560  -21.2128 N   0  0  0  0  0  0  0  0  0  0  0  0
  -21.7672   19.8970  -20.7295 H   0  0  0  0  0  0  0  0  0  0  0  0
  -24.5177   20.0758  -20.3619 C   0  0  0  0  0  0  0  0  0  0  0  0
  -24.4094   19.9193  -18.9664 N   0  0  0  0  0  0  0  0  0  0  0  0
  -24.8146   18.8875  -18.1191 C   0  0  0  0  0  0  0  0  0  0  0  0
  -25.3747   17.8637  -18.5589 O   0  0  0  0  0  0  0  0  0  0  0  0
  -23.9236   20.7346  -18.4442 H   0  0  0  0  0  0  0  0  0  0  0  0
  -24.6099   18.9314  -16.6243 C   0  0  0  0  0  0  0  0  0  0  0  0
  -25.3110   17.8187  -16.0048 N   0  0  0  0  0  0  0  0  0  0  0  0
  -26.0566   17.4160  -16.6213 H   0  0  0  0  0  0  0  0  0  0  0  0
  -25.8058   18.1205  -15.1307 H   0  0  0  0  0  0  0  0  0  0  0  0
  -23.1276   18.6837  -16.4329 C   0  0  0  0  0  0  0  0  0  0  0  0
  -22.3800   19.8603  -15.9655 C   0  0  0  0  0  0  0  0  0  0  0  0
  -21.4986   20.4391  -16.8800 C   0  0  0  0  0  0  0  0  0  0  0  0
  -20.7358   21.5472  -16.5877 C   0  0  0  0  0  0  0  0  0  0  0  0
  -20.8619   22.0969  -15.3274 C   0  0  0  0  0  0  0  0  0  0  0  0
  -20.0828   23.2304  -15.0238 O   0  0  0  0  0  0  0  0  0  0  0  0
  -21.7238   21.5477  -14.4035 C   0  0  0  0  0  0  0  0  0  0  0  0
  -22.4843   20.4206  -14.7356 C   0  0  0  0  0  0  0  0  0  0  0  0
  -19.1728   23.0575  -14.6272 H   0  0  0  0  0  0  0  0  0  0  0  0
  -24.3997   21.4551  -20.8861 C   0  0  0  0  0  0  0  0  0  0  0  0
  -23.4336   22.3063  -20.0522 C   0  0  0  0  0  0  0  0  0  0  0  0
  -24.9709   22.5427  -23.0158 C   0  0  0  0  0  0  0  0  0  0  0  0
  -24.0167   21.5547  -22.3246 C   0  0  0  0  0  0  0  0  0  0  0  0
  -21.0204   18.8733  -23.2524 C   0  0  0  0  0  0  0  0  0  0  0  0
  -21.9980   18.6899  -24.3567 C   0  0  0  0  0  0  0  0  0  0  0  0
  -22.3689   19.8263  -25.0648 C   0  0  0  0  0  0  0  0  0  0  0  0
  -23.2635   19.7517  -26.1068 C   0  0  0  0  0  0  0  0  0  0  0  0
  -23.7866   18.5272  -26.4369 C   0  0  0  0  0  0  0  0  0  0  0  0
  -23.4376   17.4042  -25.7577 C   0  0  0  0  0  0  0  0  0  0  0  0
  -22.5360   17.4867  -24.7091 C   0  0  0  0  0  0  0  0  0  0  0  0
  -18.1978   17.6814  -20.1094 C   0  0  0  0  0  0  0  0  0  0  0  0
  -17.3919   16.9817  -21.1117 C   0  0  0  0  0  0  0  0  0  0  0  0
  -16.3299   16.3459  -20.7044 O   0  0  0  0  0  0  0  0  0  0  0  0
  -17.6073   16.9135  -22.4784 N   0  0  0  0  0  0  0  0  0  0  0  0
  -18.3658   17.3956  -22.9700 H   0  0  0  0  0  0  0  0  0  0  0  0
  -16.6942   16.1617  -23.3746 C   0  0  0  0  0  0  0  0  0  0  0  0
  -16.4157   17.0501  -24.5159 C   0  0  0  0  0  0  0  0  0  0  0  0
  -15.4230   16.7502  -25.4370 O   0  0  0  0  0  0  0  0  0  0  0  0
  -17.0603   18.1300  -24.7190 O   0  0  0  0  0  0  0  0  0  0  0  0
  -14.6937   17.4353  -25.5839 H   0  0  0  0  0  0  0  0  0  0  0  0
  -17.4050   14.9146  -23.8225 C   0  0  0  0  0  0  0  0  0  0  0  0
  -16.8455   13.6883  -23.2382 C   0  0  0  0  0  0  0  0  0  0  0  0
  -15.8115   12.9456  -23.7548 C   0  0  0  0  0  0  0  0  0  0  0  0
  -15.6106   11.9013  -22.9371 N   0  0  0  0  0  0  0  0  0  0  0  0
  -16.4967   11.9577  -21.9022 C   0  0  0  0  0  0  0  0  0  0  0  0
  -16.6756   11.1149  -20.8154 C   0  0  0  0  0  0  0  0  0  0  0  0
  -17.6583   11.4107  -19.8992 C   0  0  0  0  0  0  0  0  0  0  0  0
  -18.4319   12.5280  -20.0861 C   0  0  0  0  0  0  0  0  0  0  0  0
  -18.2630   13.3651  -21.1547 C   0  0  0  0  0  0  0  0  0  0  0  0
  -17.2729   13.0741  -22.0847 C   0  0  0  0  0  0  0  0  0  0  0  0
  -14.8945   11.1448  -23.0471 H   0  0  0  0  0  0  0  0  0  0  0  0
  -18.6511   16.9214  -18.9410 C   0  0  0  0  0  0  0  0  0  0  0  0
  -19.1662   17.7620  -17.8285 C   0  0  0  0  0  0  0  0  0  0  0  0
  -19.9092   16.8960  -16.7999 C   0  0  0  0  0  0  0  0  0  0  0  0
  -19.2568   17.1129  -15.5265 N   0  0  0  0  0  0  0  0  0  0  0  0
  -18.2681   16.7995  -15.4259 H   0  0  0  0  0  0  0  0  0  0  0  0
  -19.8631   17.7178  -14.4125 C   0  0  0  0  0  0  0  0  0  0  0  0
  -21.0827   17.2140  -13.8757 N   0  0  0  0  0  0  0  0  0  0  0  0
  -19.3203   18.7379  -13.8625 N   0  0  0  0  0  0  0  0  0  0  0  0
  -21.4891   16.2997  -14.1834 H   0  0  0  0  0  0  0  0  0  0  0  0
  -21.6165   17.7507  -13.1473 H   0  0  0  0  0  0  0  0  0  0  0  0
  -18.4371   19.1125  -14.2408 H   0  0  0  0  0  0  0  0  0  0  0  0
 30 31  1  0  0  0
 31 28  1  0  0  0
 28 29  1  0  0  0
 28 10  1  0  0  0
 10 11  1  0  0  0
 11 12  1  0  0  0
 12 13  2  0  0  0
 12 15  1  0  0  0
 15 16  1  0  0  0
 15 19  1  0  0  0
 19 20  1  0  0  0
 20 21  2  0  0  0
 21 22  1  0  0  0
 22 23  2  0  0  0
 23 24  1  0  0  0
 23 25  1  0  0  0
 25 26  2  0  0  0
 10  6  1  0  0  0
  6  7  2  0  0  0
  6  8  1  0  0  0
  8  5  1  0  0  0
  5 32  1  0  0  0
 32 33  1  0  0  0
 33 34  2  0  0  0
 34 35  1  0  0  0
 35 36  2  0  0  0
 36 37  1  0  0  0
 37 38  2  0  0  0
  5  1  1  0  0  0
  1  2  2  0  0  0
  1  3  1  0  0  0
  3 39  1  0  0  0
 39 60  1  0  0  0
 60 61  1  0  0  0
 61 62  1  0  0  0
 62 63  1  0  0  0
 63 65  1  0  0  0
 65 66  1  0  0  0
 65 67  2  0  0  0
 39 40  1  0  0  0
 40 41  2  0  0  0
 40 42  1  0  0  0
 42 44  1  0  0  0
 44 49  1  0  0  0
 49 50  1  0  0  0
 50 51  2  0  0  0
 51 52  1  0  0  0
 52 53  1  0  0  0
 53 54  2  0  0  0
 54 55  1  0  0  0
 55 56  2  0  0  0
 56 57  1  0  0  0
 57 58  2  0  0  0
 44 45  1  0  0  0
 45 46  1  0  0  0
 45 47  2  0  0  0
 26 20  1  0  0  0
 38 33  1  0  0  0
 58 50  1  0  0  0
 58 53  1  0  0  0
 11 14  1  0  0  0
 16 17  1  0  0  0
 16 18  1  0  0  0
 24 27  1  0  0  0
  8  9  1  0  0  0
  3  4  1  0  0  0
 63 64  1  0  0  0
 66 68  1  0  0  0
 66 69  1  0  0  0
 67 70  1  0  0  0
 42 43  1  0  0  0
 52 59  1  0  0  0
 46 48  1  0  0  0
M  END
> <minimizedAffinity>
-8.00012

> <CNNscore>
0.2995577753

> <CNNaffinity>
6.6793632507

> <CNN_VS>
2.0008552074

> <CNNaffinity_variance>
1.9369609356

$$$$
[H]N=C(N([H])[H])N([H])C([H])([H])C([H])([H])C([H])([H])[C@@]([H])(C(=O)N([H])[C@]([H])(C(=O)O[H])C([H])([H])c1c([H])n([H])c2c([H])c([H])c([H])c([H])c12)N([H])C(=O)[C@@]([H])(N([H])C(=O)[C@@]([H])(N([H])C(=O)[C@@]([H])(N([H])[H])C([H])([H])c1c([H])c([H])c(O[H])c([H])c1[H])[C@@]([H])(C([H])([H])[H])C([H])([H])C([H])([H])[H])C([H])([H])c1c([H])c([H])c([H])c([H])c1[H]


 70 73  0  0  0  0  0  0  0  0999 V2000
  -20.8744   18.0754  -22.4227 C   0  0  0  0  0  0  0  0  0  0  0  0
  -20.4518   17.4427  -23.4112 O   0  0  0  0  0  0  0  0  0  0  0  0
  -20.2177   19.2507  -22.0101 N   0  0  0  0  0  0  0  0  0  0  0  0
  -20.5354   19.8229  -21.2080 H   0  0  0  0  0  0  0  0  0  0  0  0
  -22.0551   17.5954  -21.6929 C   0  0  0  0  0  0  0  0  0  0  0  0
  -21.8996   16.2559  -19.6221 C   0  0  0  0  0  0  0  0  0  0  0  0
  -22.0533   15.2393  -20.3425 O   0  0  0  0  0  0  0  0  0  0  0  0
  -21.8949   17.5169  -20.2589 N   0  0  0  0  0  0  0  0  0  0  0  0
  -21.7798   18.3765  -19.7131 H   0  0  0  0  0  0  0  0  0  0  0  0
  -21.7320   16.0808  -18.1448 C   0  0  0  0  0  0  0  0  0  0  0  0
  -20.7818   15.0999  -17.8000 N   0  0  0  0  0  0  0  0  0  0  0  0
  -19.4374   14.9557  -18.1443 C   0  0  0  0  0  0  0  0  0  0  0  0
  -18.8581   15.7846  -18.8740 O   0  0  0  0  0  0  0  0  0  0  0  0
  -21.1424   14.3131  -17.1485 H   0  0  0  0  0  0  0  0  0  0  0  0
  -18.5925   13.7996  -17.6672 C   0  0  0  0  0  0  0  0  0  0  0  0
  -18.8643   13.5463  -16.2618 N   0  0  0  0  0  0  0  0  0  0  0  0
  -19.3076   14.3650  -15.7809 H   0  0  0  0  0  0  0  0  0  0  0  0
  -17.9793   13.3580  -15.7314 H   0  0  0  0  0  0  0  0  0  0  0  0
  -19.1072   12.6033  -18.4413 C   0  0  0  0  0  0  0  0  0  0  0  0
  -18.1082   11.9906  -19.3293 C   0  0  0  0  0  0  0  0  0  0  0  0
  -17.2014   11.1139  -18.7317 C   0  0  0  0  0  0  0  0  0  0  0  0
  -16.2143   10.4616  -19.4355 C   0  0  0  0  0  0  0  0  0  0  0  0
  -16.1334   10.6983  -20.7934 C   0  0  0  0  0  0  0  0  0  0  0  0
  -15.1244   10.0335  -21.5174 O   0  0  0  0  0  0  0  0  0  0  0  0
  -17.0145   11.5584  -21.4112 C   0  0  0  0  0  0  0  0  0  0  0  0
  -18.0061   12.2044  -20.6639 C   0  0  0  0  0  0  0  0  0  0  0  0
  -14.2394   10.5087  -21.5953 H   0  0  0  0  0  0  0  0  0  0  0  0
  -21.6417   17.3729  -17.4284 C   0  0  0  0  0  0  0  0  0  0  0  0
  -23.0224   18.0012  -17.1998 C   0  0  0  0  0  0  0  0  0  0  0  0
  -19.6504   18.2026  -16.2489 C   0  0  0  0  0  0  0  0  0  0  0  0
  -20.9085   17.3265  -16.1298 C   0  0  0  0  0  0  0  0  0  0  0  0
  -23.2522   18.5505  -21.9695 C   0  0  0  0  0  0  0  0  0  0  0  0
  -23.4428   18.6648  -23.4391 C   0  0  0  0  0  0  0  0  0  0  0  0
  -23.4974   17.4791  -24.1611 C   0  0  0  0  0  0  0  0  0  0  0  0
  -23.6770   17.4872  -25.5248 C   0  0  0  0  0  0  0  0  0  0  0  0
  -23.8022   18.6949  -26.1636 C   0  0  0  0  0  0  0  0  0  0  0  0
  -23.7515   19.8653  -25.4766 C   0  0  0  0  0  0  0  0  0  0  0  0
  -23.5703   19.8497  -24.1033 C   0  0  0  0  0  0  0  0  0  0  0  0
  -19.0016   19.7671  -22.7058 C   0  0  0  0  0  0  0  0  0  0  0  0
  -19.4712   20.8188  -23.6098 C   0  0  0  0  0  0  0  0  0  0  0  0
  -20.2407   20.4710  -24.6022 O   0  0  0  0  0  0  0  0  0  0  0  0
  -19.1882   22.1739  -23.5564 N   0  0  0  0  0  0  0  0  0  0  0  0
  -18.5619   22.6083  -22.8720 H   0  0  0  0  0  0  0  0  0  0  0  0
  -19.7399   23.1249  -24.5530 C   0  0  0  0  0  0  0  0  0  0  0  0
  -18.7099   23.2702  -25.5959 C   0  0  0  0  0  0  0  0  0  0  0  0
  -18.3361   22.1989  -26.3936 O   0  0  0  0  0  0  0  0  0  0  0  0
  -18.1111   24.3719  -25.8211 O   0  0  0  0  0  0  0  0  0  0  0  0
  -17.3591   21.9375  -26.4044 H   0  0  0  0  0  0  0  0  0  0  0  0
  -19.9913   24.4339  -23.8570 C   0  0  0  0  0  0  0  0  0  0  0  0
  -20.7761   24.2916  -22.6232 C   0  0  0  0  0  0  0  0  0  0  0  0
  -20.3204   24.5099  -21.3456 C   0  0  0  0  0  0  0  0  0  0  0  0
  -21.3338   24.2616  -20.5026 N   0  0  0  0  0  0  0  0  0  0  0  0
  -22.4351   23.8873  -21.2141 C   0  0  0  0  0  0  0  0  0  0  0  0
  -23.7097   23.5375  -20.7940 C   0  0  0  0  0  0  0  0  0  0  0  0
  -24.6517   23.1994  -21.7379 C   0  0  0  0  0  0  0  0  0  0  0  0
  -24.3045   23.2174  -23.0649 C   0  0  0  0  0  0  0  0  0  0  0  0
  -23.0502   23.5609  -23.4889 C   0  0  0  0  0  0  0  0  0  0  0  0
  -22.0927   23.9039  -22.5426 C   0  0  0  0  0  0  0  0  0  0  0  0
  -21.3154   24.3347  -19.4578 H   0  0  0  0  0  0  0  0  0  0  0  0
  -18.2019   18.6791  -23.2757 C   0  0  0  0  0  0  0  0  0  0  0  0
  -17.3346   17.9792  -22.2920 C   0  0  0  0  0  0  0  0  0  0  0  0
  -16.8341   16.6464  -22.8692 C   0  0  0  0  0  0  0  0  0  0  0  0
  -15.9658   16.9751  -23.9792 N   0  0  0  0  0  0  0  0  0  0  0  0
  -16.0010   17.9466  -24.3544 H   0  0  0  0  0  0  0  0  0  0  0  0
  -15.0755   16.0751  -24.5891 C   0  0  0  0  0  0  0  0  0  0  0  0
  -14.4930   16.3630  -25.8568 N   0  0  0  0  0  0  0  0  0  0  0  0
  -14.7750   14.9763  -24.0060 N   0  0  0  0  0  0  0  0  0  0  0  0
  -14.5791   17.3043  -26.3067 H   0  0  0  0  0  0  0  0  0  0  0  0
  -13.9539   15.6315  -26.3840 H   0  0  0  0  0  0  0  0  0  0  0  0
  -15.1892   14.7557  -23.0876 H   0  0  0  0  0  0  0  0  0  0  0  0
 30 31  1  0  0  0
 31 28  1  0  0  0
 28 29  1  0  0  0
 28 10  1  0  0  0
 10 11  1  0  0  0
 11 12  1  0  0  0
 12 13  2  0  0  0
 12 15  1  0  0  0
 15 16  1  0  0  0
 15 19  1  0  0  0
 19 20  1  0  0  0
 20 21  2  0  0  0
 21 22  1  0  0  0
 22 23  2  0  0  0
 23 24  1  0  0  0
 23 25  1  0  0  0
 25 26  2  0  0  0
 10  6  1  0  0  0
  6  7  2  0  0  0
  6  8  1  0  0  0
  8  5  1  0  0  0
  5 32  1  0  0  0
 32 33  1  0  0  0
 33 34  2  0  0  0
 34 35  1  0  0  0
 35 36  2  0  0  0
 36 37  1  0  0  0
 37 38  2  0  0  0
  5  1  1  0  0  0
  1  2  2  0  0  0
  1  3  1  0  0  0
  3 39  1  0  0  0
 39 60  1  0  0  0
 60 61  1  0  0  0
 61 62  1  0  0  0
 62 63  1  0  0  0
 63 65  1  0  0  0
 65 66  1  0  0  0
 65 67  2  0  0  0
 39 40  1  0  0  0
 40 41  2  0  0  0
 40 42  1  0  0  0
 42 44  1  0  0  0
 44 49  1  0  0  0
 49 50  1  0  0  0
 50 51  2  0  0  0
 51 52  1  0  0  0
 52 53  1  0  0  0
 53 54  2  0  0  0
 54 55  1  0  0  0
 55 56  2  0  0  0
 56 57  1  0  0  0
 57 58  2  0  0  0
 44 45  1  0  0  0
 45 46  1  0  0  0
 45 47  2  0  0  0
 26 20  1  0  0  0
 38 33  1  0  0  0
 58 50  1  0  0  0
 58 53  1  0  0  0
 11 14  1  0  0  0
 16 17  1  0  0  0
 16 18  1  0  0  0
 24 27  1  0  0  0
  8  9  1  0  0  0
  3  4  1  0  0  0
 63 64  1  0  0  0
 66 68  1  0  0  0
 66 69  1  0  0  0
 67 70  1  0  0  0
 42 43  1  0  0  0
 52 59  1  0  0  0
 46 48  1  0  0  0
M  END
> <minimizedAffinity>
-8.63792

> <CNNscore>
0.2194974422

> <CNNaffinity>
7.1726202965

> <CNN_VS>
1.5743718147

> <CNNaffinity_variance>
0.8447891474

$$$$
[H]N=C(N([H])[H])N([H])C([H])([H])C([H])([H])C([H])([H])[C@@]([H])(C(=O)N([H])[C@]([H])(C(=O)O[H])C([H])([H])c1c([H])n([H])c2c([H])c([H])c([H])c([H])c12)N([H])C(=O)[C@@]([H])(N([H])C(=O)[C@@]([H])(N([H])C(=O)[C@@]([H])(N([H])[H])C([H])([H])c1c([H])c([H])c(O[H])c([H])c1[H])[C@@]([H])(C([H])([H])[H])C([H])([H])C([H])([H])[H])C([H])([H])c1c([H])c([H])c([H])c([H])c1[H]


 70 73  0  0  0  0  0  0  0  0999 V2000
  -19.3756   19.5990  -23.2016 C   0  0  0  0  0  0  0  0  0  0  0  0
  -20.1488   19.4143  -24.1628 O   0  0  0  0  0  0  0  0  0  0  0  0
  -19.0684   20.9106  -22.7916 N   0  0  0  0  0  0  0  0  0  0  0  0
  -18.4469   21.1206  -21.9907 H   0  0  0  0  0  0  0  0  0  0  0  0
  -18.7890   18.4503  -22.4991 C   0  0  0  0  0  0  0  0  0  0  0  0
  -18.5518   17.9362  -20.0937 C   0  0  0  0  0  0  0  0  0  0  0  0
  -17.3100   18.0051  -20.2653 O   0  0  0  0  0  0  0  0  0  0  0  0
  -19.3825   18.1530  -21.2154 N   0  0  0  0  0  0  0  0  0  0  0  0
  -20.4021   18.1005  -21.1276 H   0  0  0  0  0  0  0  0  0  0  0  0
  -19.0802   17.6314  -18.7265 C   0  0  0  0  0  0  0  0  0  0  0  0
  -18.6200   16.4058  -18.2070 N   0  0  0  0  0  0  0  0  0  0  0  0
  -19.0973   15.1031  -18.3548 C   0  0  0  0  0  0  0  0  0  0  0  0
  -20.0973   14.8501  -19.0557 O   0  0  0  0  0  0  0  0  0  0  0  0
  -17.7366   16.4685  -17.5832 H   0  0  0  0  0  0  0  0  0  0  0  0
  -18.4491   13.9158  -17.6855 C   0  0  0  0  0  0  0  0  0  0  0  0
  -18.9202   13.8137  -16.3140 N   0  0  0  0  0  0  0  0  0  0  0  0
  -19.3287   14.7108  -15.9582 H   0  0  0  0  0  0  0  0  0  0  0  0
  -18.1342   13.5865  -15.6580 H   0  0  0  0  0  0  0  0  0  0  0  0
  -18.9898   12.7129  -18.4311 C   0  0  0  0  0  0  0  0  0  0  0  0
  -18.0132   12.0756  -19.3265 C   0  0  0  0  0  0  0  0  0  0  0  0
  -17.1336   11.1653  -18.7384 C   0  0  0  0  0  0  0  0  0  0  0  0
  -16.1697   10.4874  -19.4500 C   0  0  0  0  0  0  0  0  0  0  0  0
  -16.0843   10.7323  -20.8061 C   0  0  0  0  0  0  0  0  0  0  0  0
  -15.0990   10.0414  -21.5381 O   0  0  0  0  0  0  0  0  0  0  0  0
  -16.9388   11.6254  -21.4148 C   0  0  0  0  0  0  0  0  0  0  0  0
  -17.9073   12.2968  -20.6597 C   0  0  0  0  0  0  0  0  0  0  0  0
  -14.1993   10.4885  -21.6145 H   0  0  0  0  0  0  0  0  0  0  0  0
  -19.0170   18.8012  -17.8216 C   0  0  0  0  0  0  0  0  0  0  0  0
  -19.1077   20.1267  -18.5885 C   0  0  0  0  0  0  0  0  0  0  0  0
  -19.3172   18.4388  -15.4085 C   0  0  0  0  0  0  0  0  0  0  0  0
  -20.0261   18.8062  -16.7226 C   0  0  0  0  0  0  0  0  0  0  0  0
  -18.9413   17.1774  -23.3812 C   0  0  0  0  0  0  0  0  0  0  0  0
  -17.6035   16.5539  -23.5558 C   0  0  0  0  0  0  0  0  0  0  0  0
  -16.7513   17.1408  -24.4830 C   0  0  0  0  0  0  0  0  0  0  0  0
  -15.4918   16.6357  -24.7072 C   0  0  0  0  0  0  0  0  0  0  0  0
  -15.0891   15.5348  -23.9944 C   0  0  0  0  0  0  0  0  0  0  0  0
  -15.9065   14.9460  -23.0836 C   0  0  0  0  0  0  0  0  0  0  0  0
  -17.1739   15.4600  -22.8629 C   0  0  0  0  0  0  0  0  0  0  0  0
  -19.6222   22.1104  -23.4868 C   0  0  0  0  0  0  0  0  0  0  0  0
  -20.8478   22.4625  -22.7672 C   0  0  0  0  0  0  0  0  0  0  0  0
  -21.3367   23.6574  -22.9442 O   0  0  0  0  0  0  0  0  0  0  0  0
  -21.5724   21.6754  -21.8873 N   0  0  0  0  0  0  0  0  0  0  0  0
  -21.3022   20.7304  -21.5983 H   0  0  0  0  0  0  0  0  0  0  0  0
  -22.8038   22.1754  -21.2274 C   0  0  0  0  0  0  0  0  0  0  0  0
  -22.5722   22.0515  -19.7780 C   0  0  0  0  0  0  0  0  0  0  0  0
  -23.4982   21.4339  -18.9506 O   0  0  0  0  0  0  0  0  0  0  0  0
  -21.5238   22.4991  -19.2093 O   0  0  0  0  0  0  0  0  0  0  0  0
  -23.8624   21.9655  -18.1711 H   0  0  0  0  0  0  0  0  0  0  0  0
  -23.9513   21.3086  -21.6664 C   0  0  0  0  0  0  0  0  0  0  0  0
  -23.5254   19.9946  -22.1667 C   0  0  0  0  0  0  0  0  0  0  0  0
  -22.9759   18.9832  -21.4164 C   0  0  0  0  0  0  0  0  0  0  0  0
  -22.7143   17.9585  -22.2415 N   0  0  0  0  0  0  0  0  0  0  0  0
  -23.0857   18.2911  -23.5107 C   0  0  0  0  0  0  0  0  0  0  0  0
  -23.0176   17.5698  -24.6933 C   0  0  0  0  0  0  0  0  0  0  0  0
  -23.4732   18.1510  -25.8539 C   0  0  0  0  0  0  0  0  0  0  0  0
  -23.9807   19.4248  -25.8091 C   0  0  0  0  0  0  0  0  0  0  0  0
  -24.0519   20.1439  -24.6477 C   0  0  0  0  0  0  0  0  0  0  0  0
  -23.5942   19.5647  -23.4709 C   0  0  0  0  0  0  0  0  0  0  0  0
  -22.2926   17.0349  -21.9837 H   0  0  0  0  0  0  0  0  0  0  0  0
  -19.7123   21.9024  -24.9348 C   0  0  0  0  0  0  0  0  0  0  0  0
  -19.2559   23.0605  -25.7473 C   0  0  0  0  0  0  0  0  0  0  0  0
  -20.3969   23.5753  -26.6379 C   0  0  0  0  0  0  0  0  0  0  0  0
  -19.9576   23.4172  -28.0076 N   0  0  0  0  0  0  0  0  0  0  0  0
  -19.9251   24.2667  -28.6101 H   0  0  0  0  0  0  0  0  0  0  0  0
  -19.5701   22.1961  -28.5849 C   0  0  0  0  0  0  0  0  0  0  0  0
  -18.1989   21.9062  -28.8403 N   0  0  0  0  0  0  0  0  0  0  0  0
  -20.4539   21.3222  -28.8902 N   0  0  0  0  0  0  0  0  0  0  0  0
  -17.4262   22.5106  -28.4751 H   0  0  0  0  0  0  0  0  0  0  0  0
  -17.9192   21.0684  -29.4089 H   0  0  0  0  0  0  0  0  0  0  0  0
  -21.4501   21.5191  -28.7101 H   0  0  0  0  0  0  0  0  0  0  0  0
 30 31  1  0  0  0
 31 28  1  0  0  0
 28 29  1  0  0  0
 28 10  1  0  0  0
 10 11  1  0  0  0
 11 12  1  0  0  0
 12 13  2  0  0  0
 12 15  1  0  0  0
 15 16  1  0  0  0
 15 19  1  0  0  0
 19 20  1  0  0  0
 20 21  2  0  0  0
 21 22  1  0  0  0
 22 23  2  0  0  0
 23 24  1  0  0  0
 23 25  1  0  0  0
 25 26  2  0  0  0
 10  6  1  0  0  0
  6  7  2  0  0  0
  6  8  1  0  0  0
  8  5  1  0  0  0
  5 32  1  0  0  0
 32 33  1  0  0  0
 33 34  2  0  0  0
 34 35  1  0  0  0
 35 36  2  0  0  0
 36 37  1  0  0  0
 37 38  2  0  0  0
  5  1  1  0  0  0
  1  2  2  0  0  0
  1  3  1  0  0  0
  3 39  1  0  0  0
 39 60  1  0  0  0
 60 61  1  0  0  0
 61 62  1  0  0  0
 62 63  1  0  0  0
 63 65  1  0  0  0
 65 66  1  0  0  0
 65 67  2  0  0  0
 39 40  1  0  0  0
 40 41  2  0  0  0
 40 42  1  0  0  0
 42 44  1  0  0  0
 44 49  1  0  0  0
 49 50  1  0  0  0
 50 51  2  0  0  0
 51 52  1  0  0  0
 52 53  1  0  0  0
 53 54  2  0  0  0
 54 55  1  0  0  0
 55 56  2  0  0  0
 56 57  1  0  0  0
 57 58  2  0  0  0
 44 45  1  0  0  0
 45 46  1  0  0  0
 45 47  2  0  0  0
 26 20  1  0  0  0
 38 33  1  0  0  0
 58 50  1  0  0  0
 58 53  1  0  0  0
 11 14  1  0  0  0
 16 17  1  0  0  0
 16 18  1  0  0  0
 24 27  1  0  0  0
  8  9  1  0  0  0
  3  4  1  0  0  0
 63 64  1  0  0  0
 66 68  1  0  0  0
 66 69  1  0  0  0
 67 70  1  0  0  0
 42 43  1  0  0  0
 52 59  1  0  0  0
 46 48  1  0  0  0
M  END
> <minimizedAffinity>
-8.81394

> <CNNscore>
0.1934554875

> <CNNaffinity>
7.2444810867

> <CNN_VS>
1.4014846087

> <CNNaffinity_variance>
0.9508277178

$$$$
[H]N=C(N([H])[H])N([H])C([H])([H])C([H])([H])C([H])([H])[C@@]([H])(C(=O)N([H])[C@]([H])(C(=O)O[H])C([H])([H])c1c([H])n([H])c2c([H])c([H])c([H])c([H])c12)N([H])C(=O)[C@@]([H])(N([H])C(=O)[C@@]([H])(N([H])C(=O)[C@@]([H])(N([H])[H])C([H])([H])c1c([H])c([H])c(O[H])c([H])c1[H])[C@@]([H])(C([H])([H])[H])C([H])([H])C([H])([H])[H])C([H])([H])c1c([H])c([H])c([H])c([H])c1[H]


 70 73  0  0  0  0  0  0  0  0999 V2000
  -17.8143   15.6984  -20.7023 C   0  0  0  0  0  0  0  0  0  0  0  0
  -16.6546   16.1369  -20.5653 O   0  0  0  0  0  0  0  0  0  0  0  0
  -18.5525   16.0186  -21.8579 N   0  0  0  0  0  0  0  0  0  0  0  0
  -19.5113   15.6684  -22.0302 H   0  0  0  0  0  0  0  0  0  0  0  0
  -18.4066   14.8489  -19.6608 C   0  0  0  0  0  0  0  0  0  0  0  0
  -19.1989   15.5116  -17.4159 C   0  0  0  0  0  0  0  0  0  0  0  0
  -18.1883   14.9264  -16.9550 O   0  0  0  0  0  0  0  0  0  0  0  0
  -19.3780   15.5069  -18.8171 N   0  0  0  0  0  0  0  0  0  0  0  0
  -20.1908   15.9649  -19.2407 H   0  0  0  0  0  0  0  0  0  0  0  0
  -20.1492   16.1750  -16.4682 C   0  0  0  0  0  0  0  0  0  0  0  0
  -20.7196   15.2894  -15.5332 N   0  0  0  0  0  0  0  0  0  0  0  0
  -21.9946   14.7288  -15.4514 C   0  0  0  0  0  0  0  0  0  0  0  0
  -22.8702   14.9715  -16.3057 O   0  0  0  0  0  0  0  0  0  0  0  0
  -20.0628   14.9751  -14.7312 H   0  0  0  0  0  0  0  0  0  0  0  0
  -22.4070   13.7987  -14.3366 C   0  0  0  0  0  0  0  0  0  0  0  0
  -23.6701   14.2457  -13.7727 N   0  0  0  0  0  0  0  0  0  0  0  0
  -23.8796   15.2486  -13.9927 H   0  0  0  0  0  0  0  0  0  0  0  0
  -23.6610   14.1867  -12.7256 H   0  0  0  0  0  0  0  0  0  0  0  0
  -22.6710   12.4732  -15.0211 C   0  0  0  0  0  0  0  0  0  0  0  0
  -21.5627   11.5130  -14.9130 C   0  0  0  0  0  0  0  0  0  0  0  0
  -21.2687   10.7729  -16.0593 C   0  0  0  0  0  0  0  0  0  0  0  0
  -20.2565    9.8414  -16.1112 C   0  0  0  0  0  0  0  0  0  0  0  0
  -19.5089    9.6440  -14.9672 C   0  0  0  0  0  0  0  0  0  0  0  0
  -18.4725    8.6914  -15.0155 O   0  0  0  0  0  0  0  0  0  0  0  0
  -19.7756   10.3597  -13.8205 C   0  0  0  0  0  0  0  0  0  0  0  0
  -20.8128   11.2992  -13.8042 C   0  0  0  0  0  0  0  0  0  0  0  0
  -18.7179    7.7468  -14.7647 H   0  0  0  0  0  0  0  0  0  0  0  0
  -19.6197   17.4509  -15.9364 C   0  0  0  0  0  0  0  0  0  0  0  0
  -19.5960   18.5528  -17.0033 C   0  0  0  0  0  0  0  0  0  0  0  0
  -19.3308   18.8485  -13.9344 C   0  0  0  0  0  0  0  0  0  0  0  0
  -20.3146   17.9667  -14.7210 C   0  0  0  0  0  0  0  0  0  0  0  0
  -19.1236   13.6410  -20.3307 C   0  0  0  0  0  0  0  0  0  0  0  0
  -18.3648   12.4018  -20.0186 C   0  0  0  0  0  0  0  0  0  0  0  0
  -17.6052   11.8532  -21.0445 C   0  0  0  0  0  0  0  0  0  0  0  0
  -16.8657   10.7105  -20.8459 C   0  0  0  0  0  0  0  0  0  0  0  0
  -16.8916   10.1182  -19.6087 C   0  0  0  0  0  0  0  0  0  0  0  0
  -17.6275   10.6380  -18.5926 C   0  0  0  0  0  0  0  0  0  0  0  0
  -18.3700   11.7890  -18.7996 C   0  0  0  0  0  0  0  0  0  0  0  0
  -18.0025   16.8954  -22.9341 C   0  0  0  0  0  0  0  0  0  0  0  0
  -18.8452   18.0927  -22.9478 C   0  0  0  0  0  0  0  0  0  0  0  0
  -18.6638   18.9549  -23.9078 O   0  0  0  0  0  0  0  0  0  0  0  0
  -19.8313   18.4480  -22.0420 N   0  0  0  0  0  0  0  0  0  0  0  0
  -20.0684   17.9099  -21.2032 H   0  0  0  0  0  0  0  0  0  0  0  0
  -20.6062   19.7052  -22.1871 C   0  0  0  0  0  0  0  0  0  0  0  0
  -20.0410   20.6510  -21.2096 C   0  0  0  0  0  0  0  0  0  0  0  0
  -20.3270   22.0068  -21.2704 O   0  0  0  0  0  0  0  0  0  0  0  0
  -19.2672   20.2836  -20.2666 O   0  0  0  0  0  0  0  0  0  0  0  0
  -19.5496   22.6499  -21.3401 H   0  0  0  0  0  0  0  0  0  0  0  0
  -22.0457   19.4027  -21.8752 C   0  0  0  0  0  0  0  0  0  0  0  0
  -22.7497   18.7378  -22.9799 C   0  0  0  0  0  0  0  0  0  0  0  0
  -23.4863   17.5815  -22.8896 C   0  0  0  0  0  0  0  0  0  0  0  0
  -23.9533   17.2981  -24.1147 N   0  0  0  0  0  0  0  0  0  0  0  0
  -23.5309   18.2513  -24.9935 C   0  0  0  0  0  0  0  0  0  0  0  0
  -23.7555   18.3922  -26.3548 C   0  0  0  0  0  0  0  0  0  0  0  0
  -23.2056   19.4686  -27.0117 C   0  0  0  0  0  0  0  0  0  0  0  0
  -22.4521   20.3701  -26.3035 C   0  0  0  0  0  0  0  0  0  0  0  0
  -22.2252   20.2396  -24.9609 C   0  0  0  0  0  0  0  0  0  0  0  0
  -22.7767   19.1557  -24.2895 C   0  0  0  0  0  0  0  0  0  0  0  0
  -24.5509   16.4820  -24.3871 H   0  0  0  0  0  0  0  0  0  0  0  0
  -17.8299   16.1634  -24.1921 C   0  0  0  0  0  0  0  0  0  0  0  0
  -18.3587   14.7744  -24.1675 C   0  0  0  0  0  0  0  0  0  0  0  0
  -17.2051   13.7599  -24.1658 C   0  0  0  0  0  0  0  0  0  0  0  0
  -16.4862   13.9474  -25.4077 N   0  0  0  0  0  0  0  0  0  0  0  0
  -15.6149   14.5185  -25.3850 H   0  0  0  0  0  0  0  0  0  0  0  0
  -16.8802   13.4124  -26.6459 C   0  0  0  0  0  0  0  0  0  0  0  0
  -17.3129   12.0598  -26.7577 N   0  0  0  0  0  0  0  0  0  0  0  0
  -16.8546   14.1421  -27.6969 N   0  0  0  0  0  0  0  0  0  0  0  0
  -17.5002   11.4652  -25.9167 H   0  0  0  0  0  0  0  0  0  0  0  0
  -17.4586   11.6136  -27.6976 H   0  0  0  0  0  0  0  0  0  0  0  0
  -16.5439   15.1232  -27.6298 H   0  0  0  0  0  0  0  0  0  0  0  0
 30 31  1  0  0  0
 31 28  1  0  0  0
 28 29  1  0  0  0
 28 10  1  0  0  0
 10 11  1  0  0  0
 11 12  1  0  0  0
 12 13  2  0  0  0
 12 15  1  0  0  0
 15 16  1  0  0  0
 15 19  1  0  0  0
 19 20  1  0  0  0
 20 21  2  0  0  0
 21 22  1  0  0  0
 22 23  2  0  0  0
 23 24  1  0  0  0
 23 25  1  0  0  0
 25 26  2  0  0  0
 10  6  1  0  0  0
  6  7  2  0  0  0
  6  8  1  0  0  0
  8  5  1  0  0  0
  5 32  1  0  0  0
 32 33  1  0  0  0
 33 34  2  0  0  0
 34 35  1  0  0  0
 35 36  2  0  0  0
 36 37  1  0  0  0
 37 38  2  0  0  0
  5  1  1  0  0  0
  1  2  2  0  0  0
  1  3  1  0  0  0
  3 39  1  0  0  0
 39 60  1  0  0  0
 60 61  1  0  0  0
 61 62  1  0  0  0
 62 63  1  0  0  0
 63 65  1  0  0  0
 65 66  1  0  0  0
 65 67  2  0  0  0
 39 40  1  0  0  0
 40 41  2  0  0  0
 40 42  1  0  0  0
 42 44  1  0  0  0
 44 49  1  0  0  0
 49 50  1  0  0  0
 50 51  2  0  0  0
 51 52  1  0  0  0
 52 53  1  0  0  0
 53 54  2  0  0  0
 54 55  1  0  0  0
 55 56  2  0  0  0
 56 57  1  0  0  0
 57 58  2  0  0  0
 44 45  1  0  0  0
 45 46  1  0  0  0
 45 47  2  0  0  0
 26 20  1  0  0  0
 38 33  1  0  0  0
 58 50  1  0  0  0
 58 53  1  0  0  0
 11 14  1  0  0  0
 16 17  1  0  0  0
 16 18  1  0  0  0
 24 27  1  0  0  0
  8  9  1  0  0  0
  3  4  1  0  0  0
 63 64  1  0  0  0
 66 68  1  0  0  0
 66 69  1  0  0  0
 67 70  1  0  0  0
 42 43  1  0  0  0
 52 59  1  0  0  0
 46 48  1  0  0  0
M  END
> <minimizedAffinity>
-9.12744

> <CNNscore>
0.1696970761

> <CNNaffinity>
7.3150582314

> <CNN_VS>
1.2413439751

> <CNNaffinity_variance>
1.0858433247

$$$$
[H]N=C(N([H])[H])N([H])C([H])([H])C([H])([H])C([H])([H])[C@@]([H])(C(=O)N([H])[C@]([H])(C(=O)O[H])C([H])([H])c1c([H])n([H])c2c([H])c([H])c([H])c([H])c12)N([H])C(=O)[C@@]([H])(N([H])C(=O)[C@@]([H])(N([H])C(=O)[C@@]([H])(N([H])[H])C([H])([H])c1c([H])c([H])c(O[H])c([H])c1[H])[C@@]([H])(C([H])([H])[H])C([H])([H])C([H])([H])[H])C([H])([H])c1c([H])c([H])c([H])c([H])c1[H]


 70 73  0  0  0  0  0  0  0  0999 V2000
  -17.3419   16.0111  -20.1955 C   0  0  0  0  0  0  0  0  0  0  0  0
  -16.5941   16.8378  -19.6358 O   0  0  0  0  0  0  0  0  0  0  0  0
  -17.4938   16.0390  -21.5951 N   0  0  0  0  0  0  0  0  0  0  0  0
  -18.0877   15.3666  -22.1119 H   0  0  0  0  0  0  0  0  0  0  0  0
  -18.0604   15.0105  -19.3956 C   0  0  0  0  0  0  0  0  0  0  0  0
  -19.1500   15.2834  -17.1945 C   0  0  0  0  0  0  0  0  0  0  0  0
  -18.2159   14.5941  -16.7165 O   0  0  0  0  0  0  0  0  0  0  0  0
  -19.1347   15.5359  -18.5843 N   0  0  0  0  0  0  0  0  0  0  0  0
  -19.8788   16.0873  -19.0226 H   0  0  0  0  0  0  0  0  0  0  0  0
  -20.2177   15.7948  -16.2781 C   0  0  0  0  0  0  0  0  0  0  0  0
  -20.3428   17.1976  -16.2895 N   0  0  0  0  0  0  0  0  0  0  0  0
  -20.0494   18.1584  -15.3213 C   0  0  0  0  0  0  0  0  0  0  0  0
  -19.5780   17.8430  -14.2107 O   0  0  0  0  0  0  0  0  0  0  0  0
  -20.7302   17.6216  -17.2080 H   0  0  0  0  0  0  0  0  0  0  0  0
  -20.2784   19.6341  -15.5405 C   0  0  0  0  0  0  0  0  0  0  0  0
  -20.4098   19.8995  -16.9638 N   0  0  0  0  0  0  0  0  0  0  0  0
  -20.0110   19.1334  -17.5572 H   0  0  0  0  0  0  0  0  0  0  0  0
  -19.8861   20.7656  -17.2389 H   0  0  0  0  0  0  0  0  0  0  0  0
  -21.6285   19.9103  -14.9112 C   0  0  0  0  0  0  0  0  0  0  0  0
  -21.5601   20.6921  -13.6678 C   0  0  0  0  0  0  0  0  0  0  0  0
  -21.2134   22.0378  -13.7991 C   0  0  0  0  0  0  0  0  0  0  0  0
  -21.1148   22.8947  -12.7262 C   0  0  0  0  0  0  0  0  0  0  0  0
  -21.3744   22.3814  -11.4710 C   0  0  0  0  0  0  0  0  0  0  0  0
  -21.2741   23.2545  -10.3702 O   0  0  0  0  0  0  0  0  0  0  0  0
  -21.7190   21.0572  -11.3100 C   0  0  0  0  0  0  0  0  0  0  0  0
  -21.8098   20.2147  -12.4239 C   0  0  0  0  0  0  0  0  0  0  0  0
  -20.3715   23.3174   -9.9269 H   0  0  0  0  0  0  0  0  0  0  0  0
  -21.4723   15.0159  -16.3807 C   0  0  0  0  0  0  0  0  0  0  0  0
  -21.3352   13.8293  -17.3432 C   0  0  0  0  0  0  0  0  0  0  0  0
  -22.8555   15.6538  -14.4507 C   0  0  0  0  0  0  0  0  0  0  0  0
  -22.0214   14.5270  -15.0824 C   0  0  0  0  0  0  0  0  0  0  0  0
  -18.6808   13.9446  -20.3447 C   0  0  0  0  0  0  0  0  0  0  0  0
  -17.8763   12.6982  -20.2545 C   0  0  0  0  0  0  0  0  0  0  0  0
  -17.8408   12.0593  -19.0212 C   0  0  0  0  0  0  0  0  0  0  0  0
  -17.1268   10.8969  -18.8454 C   0  0  0  0  0  0  0  0  0  0  0  0
  -16.4458   10.3760  -19.9165 C   0  0  0  0  0  0  0  0  0  0  0  0
  -16.4674   10.9847  -21.1303 C   0  0  0  0  0  0  0  0  0  0  0  0
  -17.1885   12.1553  -21.3002 C   0  0  0  0  0  0  0  0  0  0  0  0
  -16.8020   17.0496  -22.4492 C   0  0  0  0  0  0  0  0  0  0  0  0
  -17.8223   18.0341  -22.8144 C   0  0  0  0  0  0  0  0  0  0  0  0
  -18.1464   18.1382  -24.0723 O   0  0  0  0  0  0  0  0  0  0  0  0
  -18.5012   18.9046  -21.9776 N   0  0  0  0  0  0  0  0  0  0  0  0
  -18.3335   18.9889  -20.9705 H   0  0  0  0  0  0  0  0  0  0  0  0
  -19.5147   19.8550  -22.4986 C   0  0  0  0  0  0  0  0  0  0  0  0
  -19.0317   21.2022  -22.1500 C   0  0  0  0  0  0  0  0  0  0  0  0
  -18.0777   21.3922  -21.1615 O   0  0  0  0  0  0  0  0  0  0  0  0
  -19.4573   22.2551  -22.7274 O   0  0  0  0  0  0  0  0  0  0  0  0
  -18.3124   22.0042  -20.3912 H   0  0  0  0  0  0  0  0  0  0  0  0
  -20.8229   19.5583  -21.8192 C   0  0  0  0  0  0  0  0  0  0  0  0
  -21.9904   19.9982  -22.5949 C   0  0  0  0  0  0  0  0  0  0  0  0
  -22.7434   21.1221  -22.3551 C   0  0  0  0  0  0  0  0  0  0  0  0
  -23.7213   21.1619  -23.2725 N   0  0  0  0  0  0  0  0  0  0  0  0
  -23.6119   20.0835  -24.0999 C   0  0  0  0  0  0  0  0  0  0  0  0
  -24.3785   19.6949  -25.1883 C   0  0  0  0  0  0  0  0  0  0  0  0
  -24.0414   18.5440  -25.8622 C   0  0  0  0  0  0  0  0  0  0  0  0
  -22.9591   17.8146  -25.4396 C   0  0  0  0  0  0  0  0  0  0  0  0
  -22.1971   18.1898  -24.3673 C   0  0  0  0  0  0  0  0  0  0  0  0
  -22.5303   19.3507  -23.6810 C   0  0  0  0  0  0  0  0  0  0  0  0
  -24.4664   21.8920  -23.3666 H   0  0  0  0  0  0  0  0  0  0  0  0
  -16.0427   16.4148  -23.5303 C   0  0  0  0  0  0  0  0  0  0  0  0
  -15.7695   14.9693  -23.3170 C   0  0  0  0  0  0  0  0  0  0  0  0
  -15.6371   14.2428  -24.6641 C   0  0  0  0  0  0  0  0  0  0  0  0
  -14.5005   14.8289  -25.3415 N   0  0  0  0  0  0  0  0  0  0  0  0
  -13.5486   14.5946  -24.9882 H   0  0  0  0  0  0  0  0  0  0  0  0
  -14.5890   15.6942  -26.4451 C   0  0  0  0  0  0  0  0  0  0  0  0
  -13.7590   16.8479  -26.5428 N   0  0  0  0  0  0  0  0  0  0  0  0
  -15.4243   15.4524  -27.3840 N   0  0  0  0  0  0  0  0  0  0  0  0
  -12.9580   17.0128  -25.8893 H   0  0  0  0  0  0  0  0  0  0  0  0
  -13.9276   17.5756  -27.2814 H   0  0  0  0  0  0  0  0  0  0  0  0
  -16.0309   14.6204  -27.3260 H   0  0  0  0  0  0  0  0  0  0  0  0
 30 31  1  0  0  0
 31 28  1  0  0  0
 28 29  1  0  0  0
 28 10  1  0  0  0
 10 11  1  0  0  0
 11 12  1  0  0  0
 12 13  2  0  0  0
 12 15  1  0  0  0
 15 16  1  0  0  0
 15 19  1  0  0  0
 19 20  1  0  0  0
 20 21  2  0  0  0
 21 22  1  0  0  0
 22 23  2  0  0  0
 23 24  1  0  0  0
 23 25  1  0  0  0
 25 26  2  0  0  0
 10  6  1  0  0  0
  6  7  2  0  0  0
  6  8  1  0  0  0
  8  5  1  0  0  0
  5 32  1  0  0  0
 32 33  1  0  0  0
 33 34  2  0  0  0
 34 35  1  0  0  0
 35 36  2  0  0  0
 36 37  1  0  0  0
 37 38  2  0  0  0
  5  1  1  0  0  0
  1  2  2  0  0  0
  1  3  1  0  0  0
  3 39  1  0  0  0
 39 60  1  0  0  0
 60 61  1  0  0  0
 61 62  1  0  0  0
 62 63  1  0  0  0
 63 65  1  0  0  0
 65 66  1  0  0  0
 65 67  2  0  0  0
 39 40  1  0  0  0
 40 41  2  0  0  0
 40 42  1  0  0  0
 42 44  1  0  0  0
 44 49  1  0  0  0
 49 50  1  0  0  0
 50 51  2  0  0  0
 51 52  1  0  0  0
 52 53  1  0  0  0
 53 54  2  0  0  0
 54 55  1  0  0  0
 55 56  2  0  0  0
 56 57  1  0  0  0
 57 58  2  0  0  0
 44 45  1  0  0  0
 45 46  1  0  0  0
 45 47  2  0  0  0
 26 20  1  0  0  0
 38 33  1  0  0  0
 58 50  1  0  0  0
 58 53  1  0  0  0
 11 14  1  0  0  0
 16 17  1  0  0  0
 16 18  1  0  0  0
 24 27  1  0  0  0
  8  9  1  0  0  0
  3  4  1  0  0  0
 63 64  1  0  0  0
 66 68  1  0  0  0
 66 69  1  0  0  0
 67 70  1  0  0  0
 42 43  1  0  0  0
 52 59  1  0  0  0
 46 48  1  0  0  0
M  END
> <minimizedAffinity>
-8.40802

> <CNNscore>
0.1687736660

> <CNNaffinity>
6.9026718140

> <CNN_VS>
1.1649892330

> <CNNaffinity_variance>
1.1008476019

$$$$
[H]N=C(N([H])[H])N([H])C([H])([H])C([H])([H])C([H])([H])[C@@]([H])(C(=O)N([H])[C@]([H])(C(=O)O[H])C([H])([H])c1c([H])n([H])c2c([H])c([H])c([H])c([H])c12)N([H])C(=O)[C@@]([H])(N([H])C(=O)[C@@]([H])(N([H])C(=O)[C@@]([H])(N([H])[H])C([H])([H])c1c([H])c([H])c(O[H])c([H])c1[H])[C@@]([H])(C([H])([H])[H])C([H])([H])C([H])([H])[H])C([H])([H])c1c([H])c([H])c([H])c([H])c1[H]


 70 73  0  0  0  0  0  0  0  0999 V2000
  -18.9657   14.9434  -17.6353 C   0  0  0  0  0  0  0  0  0  0  0  0
  -17.8588   14.8848  -17.0632 O   0  0  0  0  0  0  0  0  0  0  0  0
  -19.4830   13.8027  -18.2787 N   0  0  0  0  0  0  0  0  0  0  0  0
  -20.4029   13.7910  -18.7536 H   0  0  0  0  0  0  0  0  0  0  0  0
  -19.7272   16.1993  -17.6356 C   0  0  0  0  0  0  0  0  0  0  0  0
  -19.4175   16.9016  -19.9844 C   0  0  0  0  0  0  0  0  0  0  0  0
  -19.9088   15.7946  -20.3148 O   0  0  0  0  0  0  0  0  0  0  0  0
  -19.2892   17.1774  -18.6049 N   0  0  0  0  0  0  0  0  0  0  0  0
  -18.8876   18.0643  -18.2853 H   0  0  0  0  0  0  0  0  0  0  0  0
  -18.9982   17.8591  -21.0562 C   0  0  0  0  0  0  0  0  0  0  0  0
  -19.1378   19.2112  -20.6873 N   0  0  0  0  0  0  0  0  0  0  0  0
  -19.1115   20.3823  -21.4452 C   0  0  0  0  0  0  0  0  0  0  0  0
  -18.9530   20.3558  -22.6819 O   0  0  0  0  0  0  0  0  0  0  0  0
  -19.2992   19.3897  -19.6311 H   0  0  0  0  0  0  0  0  0  0  0  0
  -19.2696   21.7533  -20.8342 C   0  0  0  0  0  0  0  0  0  0  0  0
  -18.1322   22.5821  -21.1986 N   0  0  0  0  0  0  0  0  0  0  0  0
  -17.3044   22.0198  -21.5095 H   0  0  0  0  0  0  0  0  0  0  0  0
  -17.7947   23.1452  -20.3808 H   0  0  0  0  0  0  0  0  0  0  0  0
  -20.4853   22.3413  -21.5210 C   0  0  0  0  0  0  0  0  0  0  0  0
  -21.7465   21.6623  -21.1893 C   0  0  0  0  0  0  0  0  0  0  0  0
  -22.1556   21.7294  -19.8565 C   0  0  0  0  0  0  0  0  0  0  0  0
  -23.3158   21.1472  -19.3982 C   0  0  0  0  0  0  0  0  0  0  0  0
  -24.0973   20.4703  -20.3134 C   0  0  0  0  0  0  0  0  0  0  0  0
  -25.2850   19.8725  -19.8487 O   0  0  0  0  0  0  0  0  0  0  0  0
  -23.7194   20.3871  -21.6357 C   0  0  0  0  0  0  0  0  0  0  0  0
  -22.5329   20.9916  -22.0664 C   0  0  0  0  0  0  0  0  0  0  0  0
  -25.2126   18.9214  -19.5239 H   0  0  0  0  0  0  0  0  0  0  0  0
  -17.7176   17.4731  -21.6905 C   0  0  0  0  0  0  0  0  0  0  0  0
  -16.8585   16.6005  -20.7666 C   0  0  0  0  0  0  0  0  0  0  0  0
  -17.1360   17.6605  -24.0720 C   0  0  0  0  0  0  0  0  0  0  0  0
  -17.8457   16.7983  -23.0150 C   0  0  0  0  0  0  0  0  0  0  0  0
  -21.2228   15.8920  -17.9370 C   0  0  0  0  0  0  0  0  0  0  0  0
  -22.0068   16.0594  -16.6855 C   0  0  0  0  0  0  0  0  0  0  0  0
  -21.3634   16.6703  -15.6163 C   0  0  0  0  0  0  0  0  0  0  0  0
  -22.0122   16.8725  -14.4204 C   0  0  0  0  0  0  0  0  0  0  0  0
  -23.3145   16.4578  -14.3013 C   0  0  0  0  0  0  0  0  0  0  0  0
  -23.9616   15.8586  -15.3341 C   0  0  0  0  0  0  0  0  0  0  0  0
  -23.3020   15.6579  -16.5357 C   0  0  0  0  0  0  0  0  0  0  0  0
  -18.7375   12.5098  -18.3244 C   0  0  0  0  0  0  0  0  0  0  0  0
  -18.3038   12.3441  -19.7130 C   0  0  0  0  0  0  0  0  0  0  0  0
  -19.1773   12.5635  -20.6548 O   0  0  0  0  0  0  0  0  0  0  0  0
  -17.0543   11.9619  -20.1731 N   0  0  0  0  0  0  0  0  0  0  0  0
  -16.2683   11.7046  -19.5685 H   0  0  0  0  0  0  0  0  0  0  0  0
  -16.7632   11.8339  -21.6225 C   0  0  0  0  0  0  0  0  0  0  0  0
  -15.6976   10.8237  -21.7396 C   0  0  0  0  0  0  0  0  0  0  0  0
  -14.6813   10.9537  -22.6743 O   0  0  0  0  0  0  0  0  0  0  0  0
  -15.6498    9.7871  -21.0007 O   0  0  0  0  0  0  0  0  0  0  0  0
  -14.5495   10.1997  -23.3354 H   0  0  0  0  0  0  0  0  0  0  0  0
  -16.2951   13.1724  -22.1227 C   0  0  0  0  0  0  0  0  0  0  0  0
  -16.6841   13.4383  -23.5142 C   0  0  0  0  0  0  0  0  0  0  0  0
  -17.8391   13.0145  -24.1257 C   0  0  0  0  0  0  0  0  0  0  0  0
  -17.8132   13.4504  -25.3941 N   0  0  0  0  0  0  0  0  0  0  0  0
  -16.6619   14.1480  -25.6112 C   0  0  0  0  0  0  0  0  0  0  0  0
  -16.1900   14.7866  -26.7483 C   0  0  0  0  0  0  0  0  0  0  0  0
  -14.9761   15.4317  -26.6933 C   0  0  0  0  0  0  0  0  0  0  0  0
  -14.2683   15.4250  -25.5182 C   0  0  0  0  0  0  0  0  0  0  0  0
  -14.7255   14.7980  -24.3917 C   0  0  0  0  0  0  0  0  0  0  0  0
  -15.9503   14.1442  -24.4382 C   0  0  0  0  0  0  0  0  0  0  0  0
  -18.5456   13.2970  -26.1272 H   0  0  0  0  0  0  0  0  0  0  0  0
  -19.5041   11.4219  -17.7105 C   0  0  0  0  0  0  0  0  0  0  0  0
  -19.9954   11.7195  -16.3395 C   0  0  0  0  0  0  0  0  0  0  0  0
  -20.6376   10.4710  -15.7158 C   0  0  0  0  0  0  0  0  0  0  0  0
  -19.9538    9.3271  -16.2798 N   0  0  0  0  0  0  0  0  0  0  0  0
  -20.2878    8.9633  -17.1973 H   0  0  0  0  0  0  0  0  0  0  0  0
  -18.8680    8.6699  -15.6768 C   0  0  0  0  0  0  0  0  0  0  0  0
  -18.8673    8.3796  -14.2821 N   0  0  0  0  0  0  0  0  0  0  0  0
  -17.8581    8.3212  -16.3812 N   0  0  0  0  0  0  0  0  0  0  0  0
  -19.7215    8.5006  -13.6892 H   0  0  0  0  0  0  0  0  0  0  0  0
  -18.0003    8.0317  -13.8016 H   0  0  0  0  0  0  0  0  0  0  0  0
  -17.8460    8.5249  -17.3921 H   0  0  0  0  0  0  0  0  0  0  0  0
 30 31  1  0  0  0
 31 28  1  0  0  0
 28 29  1  0  0  0
 28 10  1  0  0  0
 10 11  1  0  0  0
 11 12  1  0  0  0
 12 13  2  0  0  0
 12 15  1  0  0  0
 15 16  1  0  0  0
 15 19  1  0  0  0
 19 20  1  0  0  0
 20 21  2  0  0  0
 21 22  1  0  0  0
 22 23  2  0  0  0
 23 24  1  0  0  0
 23 25  1  0  0  0
 25 26  2  0  0  0
 10  6  1  0  0  0
  6  7  2  0  0  0
  6  8  1  0  0  0
  8  5  1  0  0  0
  5 32  1  0  0  0
 32 33  1  0  0  0
 33 34  2  0  0  0
 34 35  1  0  0  0
 35 36  2  0  0  0
 36 37  1  0  0  0
 37 38  2  0  0  0
  5  1  1  0  0  0
  1  2  2  0  0  0
  1  3  1  0  0  0
  3 39  1  0  0  0
 39 60  1  0  0  0
 60 61  1  0  0  0
 61 62  1  0  0  0
 62 63  1  0  0  0
 63 65  1  0  0  0
 65 66  1  0  0  0
 65 67  2  0  0  0
 39 40  1  0  0  0
 40 41  2  0  0  0
 40 42  1  0  0  0
 42 44  1  0  0  0
 44 49  1  0  0  0
 49 50  1  0  0  0
 50 51  2  0  0  0
 51 52  1  0  0  0
 52 53  1  0  0  0
 53 54  2  0  0  0
 54 55  1  0  0  0
 55 56  2  0  0  0
 56 57  1  0  0  0
 57 58  2  0  0  0
 44 45  1  0  0  0
 45 46  1  0  0  0
 45 47  2  0  0  0
 26 20  1  0  0  0
 38 33  1  0  0  0
 58 50  1  0  0  0
 58 53  1  0  0  0
 11 14  1  0  0  0
 16 17  1  0  0  0
 16 18  1  0  0  0
 24 27  1  0  0  0
  8  9  1  0  0  0
  3  4  1  0  0  0
 63 64  1  0  0  0
 66 68  1  0  0  0
 66 69  1  0  0  0
 67 70  1  0  0  0
 42 43  1  0  0  0
 52 59  1  0  0  0
 46 48  1  0  0  0
M  END
> <minimizedAffinity>
-8.32870

> <CNNscore>
0.1632285267

> <CNNaffinity>
7.5552101135

> <CNN_VS>
1.2332258224

> <CNNaffinity_variance>
0.7693182826

$$$$
[H]N=C(N([H])[H])N([H])C([H])([H])C([H])([H])C([H])([H])[C@@]([H])(C(=O)N([H])[C@]([H])(C(=O)O[H])C([H])([H])c1c([H])n([H])c2c([H])c([H])c([H])c([H])c12)N([H])C(=O)[C@@]([H])(N([H])C(=O)[C@@]([H])(N([H])C(=O)[C@@]([H])(N([H])[H])C([H])([H])c1c([H])c([H])c(O[H])c([H])c1[H])[C@@]([H])(C([H])([H])[H])C([H])([H])C([H])([H])[H])C([H])([H])c1c([H])c([H])c([H])c([H])c1[H]


 70 73  0  0  0  0  0  0  0  0999 V2000
  -19.6615   17.6054  -21.2834 C   0  0  0  0  0  0  0  0  0  0  0  0
  -18.8070   18.0951  -20.5179 O   0  0  0  0  0  0  0  0  0  0  0  0
  -20.8140   16.9974  -20.7496 N   0  0  0  0  0  0  0  0  0  0  0  0
  -21.5619   16.5906  -21.3386 H   0  0  0  0  0  0  0  0  0  0  0  0
  -19.4656   17.6648  -22.7378 C   0  0  0  0  0  0  0  0  0  0  0  0
  -21.3843   18.9139  -23.6678 C   0  0  0  0  0  0  0  0  0  0  0  0
  -22.0964   17.9274  -23.3583 O   0  0  0  0  0  0  0  0  0  0  0  0
  -20.0036   18.8437  -23.3775 N   0  0  0  0  0  0  0  0  0  0  0  0
  -19.3798   19.6205  -23.6172 H   0  0  0  0  0  0  0  0  0  0  0  0
  -22.0276   20.0979  -24.3202 C   0  0  0  0  0  0  0  0  0  0  0  0
  -21.1282   20.8870  -25.0634 N   0  0  0  0  0  0  0  0  0  0  0  0
  -20.8050   22.2419  -24.9831 C   0  0  0  0  0  0  0  0  0  0  0  0
  -21.3327   22.9896  -24.1360 O   0  0  0  0  0  0  0  0  0  0  0  0
  -20.5790   20.3622  -25.8356 H   0  0  0  0  0  0  0  0  0  0  0  0
  -19.8057   22.8983  -25.9044 C   0  0  0  0  0  0  0  0  0  0  0  0
  -18.7136   21.9770  -26.1726 N   0  0  0  0  0  0  0  0  0  0  0  0
  -18.6470   21.2098  -25.4619 H   0  0  0  0  0  0  0  0  0  0  0  0
  -17.7867   22.4668  -26.1409 H   0  0  0  0  0  0  0  0  0  0  0  0
  -20.5542   23.0905  -27.2074 C   0  0  0  0  0  0  0  0  0  0  0  0
  -19.7569   22.7886  -28.4053 C   0  0  0  0  0  0  0  0  0  0  0  0
  -18.8488   23.7685  -28.8097 C   0  0  0  0  0  0  0  0  0  0  0  0
  -18.0311   23.6254  -29.9078 C   0  0  0  0  0  0  0  0  0  0  0  0
  -18.1280   22.4524  -30.6297 C   0  0  0  0  0  0  0  0  0  0  0  0
  -17.2936   22.3020  -31.7545 O   0  0  0  0  0  0  0  0  0  0  0  0
  -19.0149   21.4671  -30.2549 C   0  0  0  0  0  0  0  0  0  0  0  0
  -19.8310   21.6468  -29.1321 C   0  0  0  0  0  0  0  0  0  0  0  0
  -17.6620   22.6268  -32.6343 H   0  0  0  0  0  0  0  0  0  0  0  0
  -23.3090   19.7552  -24.9771 C   0  0  0  0  0  0  0  0  0  0  0  0
  -24.4229   20.7464  -24.6167 C   0  0  0  0  0  0  0  0  0  0  0  0
  -23.6370   18.1805  -26.8365 C   0  0  0  0  0  0  0  0  0  0  0  0
  -23.2424   19.6185  -26.4613 C   0  0  0  0  0  0  0  0  0  0  0  0
  -17.9419   17.6270  -23.0519 C   0  0  0  0  0  0  0  0  0  0  0  0
  -17.6700   16.4852  -23.9638 C   0  0  0  0  0  0  0  0  0  0  0  0
  -16.4667   16.5064  -24.6580 C   0  0  0  0  0  0  0  0  0  0  0  0
  -16.1276   15.4893  -25.5197 C   0  0  0  0  0  0  0  0  0  0  0  0
  -17.0043   14.4467  -25.6826 C   0  0  0  0  0  0  0  0  0  0  0  0
  -18.1856   14.4068  -25.0137 C   0  0  0  0  0  0  0  0  0  0  0  0
  -18.5208   15.4346  -24.1475 C   0  0  0  0  0  0  0  0  0  0  0  0
  -21.0481   16.8930  -19.2786 C   0  0  0  0  0  0  0  0  0  0  0  0
  -20.8409   15.4845  -18.9369 C   0  0  0  0  0  0  0  0  0  0  0  0
  -21.1778   14.5871  -19.8197 O   0  0  0  0  0  0  0  0  0  0  0  0
  -20.3304   14.9618  -17.7600 N   0  0  0  0  0  0  0  0  0  0  0  0
  -20.0628   15.5225  -16.9454 H   0  0  0  0  0  0  0  0  0  0  0  0
  -20.1810   13.4995  -17.5570 C   0  0  0  0  0  0  0  0  0  0  0  0
  -20.9496   13.1728  -16.3436 C   0  0  0  0  0  0  0  0  0  0  0  0
  -21.2364   14.1386  -15.3905 O   0  0  0  0  0  0  0  0  0  0  0  0
  -21.3876   12.0009  -16.1030 O   0  0  0  0  0  0  0  0  0  0  0  0
  -20.9370   13.9664  -14.4399 H   0  0  0  0  0  0  0  0  0  0  0  0
  -18.7192   13.2036  -17.3657 C   0  0  0  0  0  0  0  0  0  0  0  0
  -18.1864   12.2569  -18.3547 C   0  0  0  0  0  0  0  0  0  0  0  0
  -18.0318   10.9033  -18.1767 C   0  0  0  0  0  0  0  0  0  0  0  0
  -17.5053   10.4007  -19.3034 N   0  0  0  0  0  0  0  0  0  0  0  0
  -17.3179   11.4063  -20.2051 C   0  0  0  0  0  0  0  0  0  0  0  0
  -16.8105   11.3834  -21.4956 C   0  0  0  0  0  0  0  0  0  0  0  0
  -16.7327   12.5622  -22.2006 C   0  0  0  0  0  0  0  0  0  0  0  0
  -17.1581   13.7244  -21.6087 C   0  0  0  0  0  0  0  0  0  0  0  0
  -17.6599   13.7568  -20.3366 C   0  0  0  0  0  0  0  0  0  0  0  0
  -17.7421   12.5712  -19.6174 C   0  0  0  0  0  0  0  0  0  0  0  0
  -17.2649    9.3991  -19.4933 H   0  0  0  0  0  0  0  0  0  0  0  0
  -22.3166   17.5146  -18.8878 C   0  0  0  0  0  0  0  0  0  0  0  0
  -22.2629   18.2529  -17.5988 C   0  0  0  0  0  0  0  0  0  0  0  0
  -21.0468   19.1911  -17.5669 C   0  0  0  0  0  0  0  0  0  0  0  0
  -20.3735   18.9546  -16.3079 N   0  0  0  0  0  0  0  0  0  0  0  0
  -20.5267   19.6390  -15.5373 H   0  0  0  0  0  0  0  0  0  0  0  0
  -19.5254   17.8645  -16.0495 C   0  0  0  0  0  0  0  0  0  0  0  0
  -19.7273   17.0296  -14.9129 N   0  0  0  0  0  0  0  0  0  0  0  0
  -18.5530   17.6070  -16.8406 N   0  0  0  0  0  0  0  0  0  0  0  0
  -20.5880   17.0962  -14.3208 H   0  0  0  0  0  0  0  0  0  0  0  0
  -19.0109   16.3146  -14.6319 H   0  0  0  0  0  0  0  0  0  0  0  0
  -18.3959   18.2032  -17.6673 H   0  0  0  0  0  0  0  0  0  0  0  0
 30 31  1  0  0  0
 31 28  1  0  0  0
 28 29  1  0  0  0
 28 10  1  0  0  0
 10 11  1  0  0  0
 11 12  1  0  0  0
 12 13  2  0  0  0
 12 15  1  0  0  0
 15 16  1  0  0  0
 15 19  1  0  0  0
 19 20  1  0  0  0
 20 21  2  0  0  0
 21 22  1  0  0  0
 22 23  2  0  0  0
 23 24  1  0  0  0
 23 25  1  0  0  0
 25 26  2  0  0  0
 10  6  1  0  0  0
  6  7  2  0  0  0
  6  8  1  0  0  0
  8  5  1  0  0  0
  5 32  1  0  0  0
 32 33  1  0  0  0
 33 34  2  0  0  0
 34 35  1  0  0  0
 35 36  2  0  0  0
 36 37  1  0  0  0
 37 38  2  0  0  0
  5  1  1  0  0  0
  1  2  2  0  0  0
  1  3  1  0  0  0
  3 39  1  0  0  0
 39 60  1  0  0  0
 60 61  1  0  0  0
 61 62  1  0  0  0
 62 63  1  0  0  0
 63 65  1  0  0  0
 65 66  1  0  0  0
 65 67  2  0  0  0
 39 40  1  0  0  0
 40 41  2  0  0  0
 40 42  1  0  0  0
 42 44  1  0  0  0
 44 49  1  0  0  0
 49 50  1  0  0  0
 50 51  2  0  0  0
 51 52  1  0  0  0
 52 53  1  0  0  0
 53 54  2  0  0  0
 54 55  1  0  0  0
 55 56  2  0  0  0
 56 57  1  0  0  0
 57 58  2  0  0  0
 44 45  1  0  0  0
 45 46  1  0  0  0
 45 47  2  0  0  0
 26 20  1  0  0  0
 38 33  1  0  0  0
 58 50  1  0  0  0
 58 53  1  0  0  0
 11 14  1  0  0  0
 16 17  1  0  0  0
 16 18  1  0  0  0
 24 27  1  0  0  0
  8  9  1  0  0  0
  3  4  1  0  0  0
 63 64  1  0  0  0
 66 68  1  0  0  0
 66 69  1  0  0  0
 67 70  1  0  0  0
 42 43  1  0  0  0
 52 59  1  0  0  0
 46 48  1  0  0  0
M  END
> <minimizedAffinity>
-9.37729

> <CNNscore>
0.1465098113

> <CNNaffinity>
7.1927118301

> <CNN_VS>
1.0538028479

> <CNNaffinity_variance>
0.8794760704

$$$$
[H]N=C(N([H])[H])N([H])C([H])([H])C([H])([H])C([H])([H])[C@@]([H])(C(=O)N([H])[C@]([H])(C(=O)O[H])C([H])([H])c1c([H])n([H])c2c([H])c([H])c([H])c([H])c12)N([H])C(=O)[C@@]([H])(N([H])C(=O)[C@@]([H])(N([H])C(=O)[C@@]([H])(N([H])[H])C([H])([H])c1c([H])c([H])c(O[H])c([H])c1[H])[C@@]([H])(C([H])([H])[H])C([H])([H])C([H])([H])[H])C([H])([H])c1c([H])c([H])c([H])c([H])c1[H]


 70 73  0  0  0  0  0  0  0  0999 V2000
  -17.5261   16.1686  -20.1884 C   0  0  0  0  0  0  0  0  0  0  0  0
  -16.4939   16.7327  -19.7733 O   0  0  0  0  0  0  0  0  0  0  0  0
  -17.8564   16.2302  -21.5558 N   0  0  0  0  0  0  0  0  0  0  0  0
  -18.6910   15.7666  -21.9563 H   0  0  0  0  0  0  0  0  0  0  0  0
  -18.3930   15.4410  -19.2524 C   0  0  0  0  0  0  0  0  0  0  0  0
  -20.1358   15.7253  -17.5237 C   0  0  0  0  0  0  0  0  0  0  0  0
  -19.8409   14.5717  -17.1257 O   0  0  0  0  0  0  0  0  0  0  0  0
  -19.4243   16.2396  -18.6304 N   0  0  0  0  0  0  0  0  0  0  0  0
  -19.6333   17.1735  -18.9967 H   0  0  0  0  0  0  0  0  0  0  0  0
  -21.2126   16.4854  -16.8139 C   0  0  0  0  0  0  0  0  0  0  0  0
  -20.7282   17.3174  -15.7858 N   0  0  0  0  0  0  0  0  0  0  0  0
  -21.2608   17.6510  -14.5401 C   0  0  0  0  0  0  0  0  0  0  0  0
  -22.3497   17.1848  -14.1499 O   0  0  0  0  0  0  0  0  0  0  0  0
  -19.7707   17.7854  -15.9798 H   0  0  0  0  0  0  0  0  0  0  0  0
  -20.5696   18.5906  -13.5823 C   0  0  0  0  0  0  0  0  0  0  0  0
  -19.2995   18.0165  -13.1696 N   0  0  0  0  0  0  0  0  0  0  0  0
  -19.2518   16.9818  -13.3288 H   0  0  0  0  0  0  0  0  0  0  0  0
  -19.1393   18.1473  -12.1415 H   0  0  0  0  0  0  0  0  0  0  0  0
  -20.2531   19.8186  -14.4113 C   0  0  0  0  0  0  0  0  0  0  0  0
  -20.7973   21.0686  -13.8606 C   0  0  0  0  0  0  0  0  0  0  0  0
  -20.5592   22.2281  -14.6002 C   0  0  0  0  0  0  0  0  0  0  0  0
  -21.0109   23.4698  -14.2138 C   0  0  0  0  0  0  0  0  0  0  0  0
  -21.7304   23.5519  -13.0381 C   0  0  0  0  0  0  0  0  0  0  0  0
  -22.1940   24.8206  -12.6385 O   0  0  0  0  0  0  0  0  0  0  0  0
  -21.9813   22.4247  -12.2868 C   0  0  0  0  0  0  0  0  0  0  0  0
  -21.5066   21.1781  -12.7106 C   0  0  0  0  0  0  0  0  0  0  0  0
  -21.5775   25.3605  -12.0524 H   0  0  0  0  0  0  0  0  0  0  0  0
  -22.1911   17.0863  -17.7481 C   0  0  0  0  0  0  0  0  0  0  0  0
  -21.8957   18.5675  -18.0157 C   0  0  0  0  0  0  0  0  0  0  0  0
  -22.4433   17.4285  -20.1697 C   0  0  0  0  0  0  0  0  0  0  0  0
  -22.3382   16.3771  -19.0525 C   0  0  0  0  0  0  0  0  0  0  0  0
  -19.1038   14.2809  -20.0080 C   0  0  0  0  0  0  0  0  0  0  0  0
  -18.2270   13.0813  -19.9754 C   0  0  0  0  0  0  0  0  0  0  0  0
  -17.8042   12.5768  -21.1989 C   0  0  0  0  0  0  0  0  0  0  0  0
  -16.9862   11.4731  -21.2660 C   0  0  0  0  0  0  0  0  0  0  0  0
  -16.5924   10.8752  -20.0957 C   0  0  0  0  0  0  0  0  0  0  0  0
  -16.9944   11.3523  -18.8894 C   0  0  0  0  0  0  0  0  0  0  0  0
  -17.8184   12.4643  -18.8292 C   0  0  0  0  0  0  0  0  0  0  0  0
  -17.0191   16.9751  -22.5425 C   0  0  0  0  0  0  0  0  0  0  0  0
  -17.8099   18.1405  -22.9428 C   0  0  0  0  0  0  0  0  0  0  0  0
  -17.8508   18.4436  -24.2095 O   0  0  0  0  0  0  0  0  0  0  0  0
  -18.5325   18.9973  -22.1287 N   0  0  0  0  0  0  0  0  0  0  0  0
  -18.5677   18.9331  -21.1069 H   0  0  0  0  0  0  0  0  0  0  0  0
  -19.2886   20.1470  -22.6839 C   0  0  0  0  0  0  0  0  0  0  0  0
  -19.0113   21.2885  -21.7953 C   0  0  0  0  0  0  0  0  0  0  0  0
  -18.3830   21.1128  -20.5714 O   0  0  0  0  0  0  0  0  0  0  0  0
  -19.3291   22.4852  -22.0951 O   0  0  0  0  0  0  0  0  0  0  0  0
  -18.8617   21.4432  -19.7440 H   0  0  0  0  0  0  0  0  0  0  0  0
  -20.7501   19.7936  -22.6681 C   0  0  0  0  0  0  0  0  0  0  0  0
  -21.4283   20.0798  -23.9394 C   0  0  0  0  0  0  0  0  0  0  0  0
  -21.4262   21.2824  -24.6039 C   0  0  0  0  0  0  0  0  0  0  0  0
  -22.1672   21.1376  -25.7126 N   0  0  0  0  0  0  0  0  0  0  0  0
  -22.6469   19.8627  -25.7751 C   0  0  0  0  0  0  0  0  0  0  0  0
  -23.4475   19.2410  -26.7216 C   0  0  0  0  0  0  0  0  0  0  0  0
  -23.7874   17.9203  -26.5410 C   0  0  0  0  0  0  0  0  0  0  0  0
  -23.3263   17.2570  -25.4322 C   0  0  0  0  0  0  0  0  0  0  0  0
  -22.5364   17.8617  -24.4933 C   0  0  0  0  0  0  0  0  0  0  0  0
  -22.1881   19.1951  -24.6678 C   0  0  0  0  0  0  0  0  0  0  0  0
  -22.3652   21.8680  -26.4369 H   0  0  0  0  0  0  0  0  0  0  0  0
  -16.5145   16.0927  -23.5984 C   0  0  0  0  0  0  0  0  0  0  0  0
  -15.6957   14.9550  -23.1036 C   0  0  0  0  0  0  0  0  0  0  0  0
  -15.3651   13.9907  -24.2528 C   0  0  0  0  0  0  0  0  0  0  0  0
  -16.6234   13.4364  -24.7041 N   0  0  0  0  0  0  0  0  0  0  0  0
  -17.3267   13.1725  -23.9818 H   0  0  0  0  0  0  0  0  0  0  0  0
  -16.9659   13.2280  -26.0509 C   0  0  0  0  0  0  0  0  0  0  0  0
  -16.7171   14.2272  -27.0354 N   0  0  0  0  0  0  0  0  0  0  0  0
  -17.5099   12.1271  -26.4111 N   0  0  0  0  0  0  0  0  0  0  0  0
  -16.1407   15.0767  -26.8312 H   0  0  0  0  0  0  0  0  0  0  0  0
  -17.1090   14.1404  -28.0062 H   0  0  0  0  0  0  0  0  0  0  0  0
  -17.6951   11.3952  -25.7085 H   0  0  0  0  0  0  0  0  0  0  0  0
 30 31  1  0  0  0
 31 28  1  0  0  0
 28 29  1  0  0  0
 28 10  1  0  0  0
 10 11  1  0  0  0
 11 12  1  0  0  0
 12 13  2  0  0  0
 12 15  1  0  0  0
 15 16  1  0  0  0
 15 19  1  0  0  0
 19 20  1  0  0  0
 20 21  2  0  0  0
 21 22  1  0  0  0
 22 23  2  0  0  0
 23 24  1  0  0  0
 23 25  1  0  0  0
 25 26  2  0  0  0
 10  6  1  0  0  0
  6  7  2  0  0  0
  6  8  1  0  0  0
  8  5  1  0  0  0
  5 32  1  0  0  0
 32 33  1  0  0  0
 33 34  2  0  0  0
 34 35  1  0  0  0
 35 36  2  0  0  0
 36 37  1  0  0  0
 37 38  2  0  0  0
  5  1  1  0  0  0
  1  2  2  0  0  0
  1  3  1  0  0  0
  3 39  1  0  0  0
 39 60  1  0  0  0
 60 61  1  0  0  0
 61 62  1  0  0  0
 62 63  1  0  0  0
 63 65  1  0  0  0
 65 66  1  0  0  0
 65 67  2  0  0  0
 39 40  1  0  0  0
 40 41  2  0  0  0
 40 42  1  0  0  0
 42 44  1  0  0  0
 44 49  1  0  0  0
 49 50  1  0  0  0
 50 51  2  0  0  0
 51 52  1  0  0  0
 52 53  1  0  0  0
 53 54  2  0  0  0
 54 55  1  0  0  0
 55 56  2  0  0  0
 56 57  1  0  0  0
 57 58  2  0  0  0
 44 45  1  0  0  0
 45 46  1  0  0  0
 45 47  2  0  0  0
 26 20  1  0  0  0
 38 33  1  0  0  0
 58 50  1  0  0  0
 58 53  1  0  0  0
 11 14  1  0  0  0
 16 17  1  0  0  0
 16 18  1  0  0  0
 24 27  1  0  0  0
  8  9  1  0  0  0
  3  4  1  0  0  0
 63 64  1  0  0  0
 66 68  1  0  0  0
 66 69  1  0  0  0
 67 70  1  0  0  0
 42 43  1  0  0  0
 52 59  1  0  0  0
 46 48  1  0  0  0
M  END
> <minimizedAffinity>
-8.37138

> <CNNscore>
0.1297203600

> <CNNaffinity>
6.5626807213

> <CNN_VS>
0.8513132930

> <CNNaffinity_variance>
1.6959791183

$$$$
[H]N=C(N([H])[H])N([H])C([H])([H])C([H])([H])C([H])([H])[C@@]([H])(C(=O)N([H])[C@]([H])(C(=O)O[H])C([H])([H])c1c([H])n([H])c2c([H])c([H])c([H])c([H])c12)N([H])C(=O)[C@@]([H])(N([H])C(=O)[C@@]([H])(N([H])C(=O)[C@@]([H])(N([H])[H])C([H])([H])c1c([H])c([H])c(O[H])c([H])c1[H])[C@@]([H])(C([H])([H])[H])C([H])([H])C([H])([H])[H])C([H])([H])c1c([H])c([H])c([H])c([H])c1[H]


 70 73  0  0  0  0  0  0  0  0999 V2000
  -20.0110   17.1073  -21.8603 C   0  0  0  0  0  0  0  0  0  0  0  0
  -21.0117   16.5837  -21.3307 O   0  0  0  0  0  0  0  0  0  0  0  0
  -20.0041   18.4890  -22.1313 N   0  0  0  0  0  0  0  0  0  0  0  0
  -19.1947   18.9774  -22.5535 H   0  0  0  0  0  0  0  0  0  0  0  0
  -18.8429   16.2836  -22.1984 C   0  0  0  0  0  0  0  0  0  0  0  0
  -17.9826   14.6238  -20.5824 C   0  0  0  0  0  0  0  0  0  0  0  0
  -17.2119   15.5225  -20.1648 O   0  0  0  0  0  0  0  0  0  0  0  0
  -18.8566   14.9495  -21.6433 N   0  0  0  0  0  0  0  0  0  0  0  0
  -19.4996   14.2481  -22.0236 H   0  0  0  0  0  0  0  0  0  0  0  0
  -17.9353   13.2713  -19.9424 C   0  0  0  0  0  0  0  0  0  0  0  0
  -18.9513   13.0655  -18.9889 N   0  0  0  0  0  0  0  0  0  0  0  0
  -19.0084   13.3514  -17.6245 C   0  0  0  0  0  0  0  0  0  0  0  0
  -18.0557   13.8952  -17.0313 O   0  0  0  0  0  0  0  0  0  0  0  0
  -19.8576   12.6087  -19.3676 H   0  0  0  0  0  0  0  0  0  0  0  0
  -20.2115   13.0274  -16.7726 C   0  0  0  0  0  0  0  0  0  0  0  0
  -21.3434   13.8309  -17.2043 N   0  0  0  0  0  0  0  0  0  0  0  0
  -21.0551   14.6720  -17.7589 H   0  0  0  0  0  0  0  0  0  0  0  0
  -21.8768   14.2081  -16.3839 H   0  0  0  0  0  0  0  0  0  0  0  0
  -20.5387   11.5857  -17.1036 C   0  0  0  0  0  0  0  0  0  0  0  0
  -20.0146   10.6150  -16.1314 C   0  0  0  0  0  0  0  0  0  0  0  0
  -20.0360   11.0054  -14.7915 C   0  0  0  0  0  0  0  0  0  0  0  0
  -19.5843   10.2017  -13.7692 C   0  0  0  0  0  0  0  0  0  0  0  0
  -19.0911    8.9563  -14.1042 C   0  0  0  0  0  0  0  0  0  0  0  0
  -18.6272    8.1308  -13.0614 O   0  0  0  0  0  0  0  0  0  0  0  0
  -19.0573    8.5433  -15.4181 C   0  0  0  0  0  0  0  0  0  0  0  0
  -19.5254    9.3871  -16.4319 C   0  0  0  0  0  0  0  0  0  0  0  0
  -17.6534    8.2182  -12.8180 H   0  0  0  0  0  0  0  0  0  0  0  0
  -17.7194   12.1868  -20.9265 C   0  0  0  0  0  0  0  0  0  0  0  0
  -16.6416   12.5506  -21.9556 C   0  0  0  0  0  0  0  0  0  0  0  0
  -16.0104   10.4215  -20.8383 C   0  0  0  0  0  0  0  0  0  0  0  0
  -17.3989   10.8535  -20.3386 C   0  0  0  0  0  0  0  0  0  0  0  0
  -18.7494   16.1366  -23.7449 C   0  0  0  0  0  0  0  0  0  0  0  0
  -17.4230   15.5625  -24.0911 C   0  0  0  0  0  0  0  0  0  0  0  0
  -17.4128   14.4844  -24.9676 C   0  0  0  0  0  0  0  0  0  0  0  0
  -16.2314   13.8923  -25.3492 C   0  0  0  0  0  0  0  0  0  0  0  0
  -15.0555   14.3884  -24.8458 C   0  0  0  0  0  0  0  0  0  0  0  0
  -15.0434   15.4411  -23.9879 C   0  0  0  0  0  0  0  0  0  0  0  0
  -16.2370   16.0325  -23.6077 C   0  0  0  0  0  0  0  0  0  0  0  0
  -21.1747   19.3642  -21.8260 C   0  0  0  0  0  0  0  0  0  0  0  0
  -21.1952   19.5157  -20.3699 C   0  0  0  0  0  0  0  0  0  0  0  0
  -22.1210   18.8850  -19.7043 O   0  0  0  0  0  0  0  0  0  0  0  0
  -20.3432   20.2726  -19.5823 N   0  0  0  0  0  0  0  0  0  0  0  0
  -19.5931   20.8675  -19.9468 H   0  0  0  0  0  0  0  0  0  0  0  0
  -20.4912   20.3302  -18.1070 C   0  0  0  0  0  0  0  0  0  0  0  0
  -20.4609   21.7580  -17.7466 C   0  0  0  0  0  0  0  0  0  0  0  0
  -21.6306   22.4741  -17.5402 O   0  0  0  0  0  0  0  0  0  0  0  0
  -19.3742   22.4082  -17.6071 O   0  0  0  0  0  0  0  0  0  0  0  0
  -21.7800   23.3041  -18.0984 H   0  0  0  0  0  0  0  0  0  0  0  0
  -19.3318   19.5944  -17.4943 C   0  0  0  0  0  0  0  0  0  0  0  0
  -19.7384   18.4067  -16.7313 C   0  0  0  0  0  0  0  0  0  0  0  0
  -19.1289   17.1758  -16.7659 C   0  0  0  0  0  0  0  0  0  0  0  0
  -19.8054   16.3618  -15.9418 N   0  0  0  0  0  0  0  0  0  0  0  0
  -20.8404   17.0462  -15.3762 C   0  0  0  0  0  0  0  0  0  0  0  0
  -21.8062   16.6401  -14.4675 C   0  0  0  0  0  0  0  0  0  0  0  0
  -22.7503   17.5493  -14.0497 C   0  0  0  0  0  0  0  0  0  0  0  0
  -22.7101   18.8289  -14.5427 C   0  0  0  0  0  0  0  0  0  0  0  0
  -21.7615   19.2386  -15.4391 C   0  0  0  0  0  0  0  0  0  0  0  0
  -20.8042   18.3271  -15.8663 C   0  0  0  0  0  0  0  0  0  0  0  0
  -19.5975   15.3549  -15.7416 H   0  0  0  0  0  0  0  0  0  0  0  0
  -22.3938   18.8849  -22.4833 C   0  0  0  0  0  0  0  0  0  0  0  0
  -22.9107   19.7883  -23.5445 C   0  0  0  0  0  0  0  0  0  0  0  0
  -24.0169   19.0919  -24.3517 C   0  0  0  0  0  0  0  0  0  0  0  0
  -23.6627   19.2325  -25.7477 N   0  0  0  0  0  0  0  0  0  0  0  0
  -23.4243   20.1851  -26.0965 H   0  0  0  0  0  0  0  0  0  0  0  0
  -23.6170   18.1730  -26.6696 C   0  0  0  0  0  0  0  0  0  0  0  0
  -23.4804   16.8240  -26.2326 N   0  0  0  0  0  0  0  0  0  0  0  0
  -23.6990   18.4109  -27.9244 N   0  0  0  0  0  0  0  0  0  0  0  0
  -23.5627   16.5560  -25.2240 H   0  0  0  0  0  0  0  0  0  0  0  0
  -23.2908   16.0496  -26.9166 H   0  0  0  0  0  0  0  0  0  0  0  0
  -23.7987   19.3830  -28.2543 H   0  0  0  0  0  0  0  0  0  0  0  0
 30 31  1  0  0  0
 31 28  1  0  0  0
 28 29  1  0  0  0
 28 10  1  0  0  0
 10 11  1  0  0  0
 11 12  1  0  0  0
 12 13  2  0  0  0
 12 15  1  0  0  0
 15 16  1  0  0  0
 15 19  1  0  0  0
 19 20  1  0  0  0
 20 21  2  0  0  0
 21 22  1  0  0  0
 22 23  2  0  0  0
 23 24  1  0  0  0
 23 25  1  0  0  0
 25 26  2  0  0  0
 10  6  1  0  0  0
  6  7  2  0  0  0
  6  8  1  0  0  0
  8  5  1  0  0  0
  5 32  1  0  0  0
 32 33  1  0  0  0
 33 34  2  0  0  0
 34 35  1  0  0  0
 35 36  2  0  0  0
 36 37  1  0  0  0
 37 38  2  0  0  0
  5  1  1  0  0  0
  1  2  2  0  0  0
  1  3  1  0  0  0
  3 39  1  0  0  0
 39 60  1  0  0  0
 60 61  1  0  0  0
 61 62  1  0  0  0
 62 63  1  0  0  0
 63 65  1  0  0  0
 65 66  1  0  0  0
 65 67  2  0  0  0
 39 40  1  0  0  0
 40 41  2  0  0  0
 40 42  1  0  0  0
 42 44  1  0  0  0
 44 49  1  0  0  0
 49 50  1  0  0  0
 50 51  2  0  0  0
 51 52  1  0  0  0
 52 53  1  0  0  0
 53 54  2  0  0  0
 54 55  1  0  0  0
 55 56  2  0  0  0
 56 57  1  0  0  0
 57 58  2  0  0  0
 44 45  1  0  0  0
 45 46  1  0  0  0
 45 47  2  0  0  0
 26 20  1  0  0  0
 38 33  1  0  0  0
 58 50  1  0  0  0
 58 53  1  0  0  0
 11 14  1  0  0  0
 16 17  1  0  0  0
 16 18  1  0  0  0
 24 27  1  0  0  0
  8  9  1  0  0  0
  3  4  1  0  0  0
 63 64  1  0  0  0
 66 68  1  0  0  0
 66 69  1  0  0  0
 67 70  1  0  0  0
 42 43  1  0  0  0
 52 59  1  0  0  0
 46 48  1  0  0  0
M  END
> <minimizedAffinity>
-8.75186

> <CNNscore>
0.1284896135

> <CNNaffinity>
7.0219688416

> <CNN_VS>
0.9022500515

> <CNNaffinity_variance>
1.1713712215

$$$$
[H]OC(=O)c1c([H])c([H])c(C(=O)N2C(=O)c3c([H])c([H])c([H])c([H])c3C2([H])[H])c([H])c1[H]


 22 24  0  0  0  0  0  0  0  0999 V2000
  -15.8498   11.8235  -22.4050 C   0  0  0  0  0  0  0  0  0  0  0  0
  -15.0061   10.8700  -22.6519 O   0  0  0  0  0  0  0  0  0  0  0  0
  -16.6664   11.6946  -21.2374 N   0  0  0  0  0  0  0  0  0  0  0  0
  -17.6693   12.5259  -20.6626 C   0  0  0  0  0  0  0  0  0  0  0  0
  -18.1867   11.8306  -19.4667 C   0  0  0  0  0  0  0  0  0  0  0  0
  -19.1964   12.2202  -18.5652 C   0  0  0  0  0  0  0  0  0  0  0  0
  -19.5173   11.4189  -17.4992 C   0  0  0  0  0  0  0  0  0  0  0  0
  -18.8512   10.2298  -17.3086 C   0  0  0  0  0  0  0  0  0  0  0  0
  -17.8738    9.8678  -18.1944 C   0  0  0  0  0  0  0  0  0  0  0  0
  -17.5204   10.6604  -19.2930 C   0  0  0  0  0  0  0  0  0  0  0  0
  -16.5671   10.5295  -20.3626 C   0  0  0  0  0  0  0  0  0  0  0  0
  -15.7700    9.5731  -20.5314 O   0  0  0  0  0  0  0  0  0  0  0  0
  -16.0844   14.9563  -25.2217 C   0  0  0  0  0  0  0  0  0  0  0  0
  -17.1197   14.0677  -25.0309 C   0  0  0  0  0  0  0  0  0  0  0  0
  -17.0315   13.0576  -24.1186 C   0  0  0  0  0  0  0  0  0  0  0  0
  -15.8610   12.9011  -23.3414 C   0  0  0  0  0  0  0  0  0  0  0  0
  -14.8591   13.8023  -23.5610 C   0  0  0  0  0  0  0  0  0  0  0  0
  -14.9296   14.8435  -24.4902 C   0  0  0  0  0  0  0  0  0  0  0  0
  -16.6272   17.2722  -25.8299 O   0  0  0  0  0  0  0  0  0  0  0  0
  -16.2203   16.0089  -26.1966 C   0  0  0  0  0  0  0  0  0  0  0  0
  -15.9640   15.7724  -27.4007 O   0  0  0  0  0  0  0  0  0  0  0  0
  -15.9497   17.9405  -25.4449 H   0  0  0  0  0  0  0  0  0  0  0  0
 19 20  1  0  0  0
 20 21  2  0  0  0
 20 13  1  0  0  0
 13 14  2  0  0  0
 14 15  1  0  0  0
 15 16  2  0  0  0
 16 17  1  0  0  0
 17 18  2  0  0  0
 16  1  1  0  0  0
  1  2  2  0  0  0
  1  3  1  0  0  0
  3  4  1  0  0  0
  4  5  1  0  0  0
  5  6  2  0  0  0
  6  7  1  0  0  0
  7  8  2  0  0  0
  8  9  1  0  0  0
  9 10  2  0  0  0
 10 11  1  0  0  0
 11 12  2  0  0  0
 18 13  1  0  0  0
 11  3  1  0  0  0
 10  5  1  0  0  0
 19 22  1  0  0  0
M  END
> <minimizedAffinity>
-9.30119

> <CNNscore>
0.6593595147

> <CNNaffinity>
5.5102567673

> <CNN_VS>
3.6332402229

> <CNNaffinity_variance>
0.1381705552

$$$$
[H]OC(=O)c1c([H])c([H])c(C(=O)N2C(=O)c3c([H])c([H])c([H])c([H])c3C2([H])[H])c([H])c1[H]


 22 24  0  0  0  0  0  0  0  0999 V2000
  -16.8308   12.4947  -21.7219 C   0  0  0  0  0  0  0  0  0  0  0  0
  -15.9640   11.6957  -22.2625 O   0  0  0  0  0  0  0  0  0  0  0  0
  -17.4763   12.0531  -20.5240 N   0  0  0  0  0  0  0  0  0  0  0  0
  -18.4491   12.6508  -19.6733 C   0  0  0  0  0  0  0  0  0  0  0  0
  -18.7564   11.6797  -18.6038 C   0  0  0  0  0  0  0  0  0  0  0  0
  -19.6631   11.7796  -17.5305 C   0  0  0  0  0  0  0  0  0  0  0  0
  -19.7860   10.7504  -16.6321 C   0  0  0  0  0  0  0  0  0  0  0  0
  -19.0213    9.6156  -16.7788 C   0  0  0  0  0  0  0  0  0  0  0  0
  -18.1464    9.5363  -17.8272 C   0  0  0  0  0  0  0  0  0  0  0  0
  -17.9951   10.5668  -18.7628 C   0  0  0  0  0  0  0  0  0  0  0  0
  -17.1839   10.7481  -19.9371 C   0  0  0  0  0  0  0  0  0  0  0  0
  -16.3527    9.9260  -20.3973 O   0  0  0  0  0  0  0  0  0  0  0  0
  -17.3511   16.2605  -23.5527 C   0  0  0  0  0  0  0  0  0  0  0  0
  -16.8102   16.1304  -22.2925 C   0  0  0  0  0  0  0  0  0  0  0  0
  -16.6486   14.9077  -21.7100 C   0  0  0  0  0  0  0  0  0  0  0  0
  -17.0382   13.7353  -22.3972 C   0  0  0  0  0  0  0  0  0  0  0  0
  -17.5695   13.9077  -23.6431 C   0  0  0  0  0  0  0  0  0  0  0  0
  -17.7434   15.1507  -24.2572 C   0  0  0  0  0  0  0  0  0  0  0  0
  -16.6351   18.0320  -25.0943 O   0  0  0  0  0  0  0  0  0  0  0  0
  -17.5037   17.5720  -24.1301 C   0  0  0  0  0  0  0  0  0  0  0  0
  -18.4435   18.3090  -23.7491 O   0  0  0  0  0  0  0  0  0  0  0  0
  -16.7665   17.7643  -26.0766 H   0  0  0  0  0  0  0  0  0  0  0  0
 19 20  1  0  0  0
 20 21  2  0  0  0
 20 13  1  0  0  0
 13 14  2  0  0  0
 14 15  1  0  0  0
 15 16  2  0  0  0
 16 17  1  0  0  0
 17 18  2  0  0  0
 16  1  1  0  0  0
  1  2  2  0  0  0
  1  3  1  0  0  0
  3  4  1  0  0  0
  4  5  1  0  0  0
  5  6  2  0  0  0
  6  7  1  0  0  0
  7  8  2  0  0  0
  8  9  1  0  0  0
  9 10  2  0  0  0
 10 11  1  0  0  0
 11 12  2  0  0  0
 18 13  1  0  0  0
 11  3  1  0  0  0
 10  5  1  0  0  0
 19 22  1  0  0  0
M  END
> <minimizedAffinity>
-8.74419

> <CNNscore>
0.6355547309

> <CNNaffinity>
5.3979582787

> <CNN_VS>
3.4306979179

> <CNNaffinity_variance>
0.1594478637

$$$$
[H]OC(=O)c1c([H])c([H])c(C(=O)N2C(=O)c3c([H])c([H])c([H])c([H])c3C2([H])[H])c([H])c1[H]


 22 24  0  0  0  0  0  0  0  0999 V2000
  -16.7038   11.2308  -20.6643 C   0  0  0  0  0  0  0  0  0  0  0  0
  -15.7051   10.4054  -20.7213 O   0  0  0  0  0  0  0  0  0  0  0  0
  -16.8245   12.1925  -21.7165 N   0  0  0  0  0  0  0  0  0  0  0  0
  -17.7715   13.2222  -21.9812 C   0  0  0  0  0  0  0  0  0  0  0  0
  -17.3374   13.9157  -23.2107 C   0  0  0  0  0  0  0  0  0  0  0  0
  -17.9167   15.0127  -23.8779 C   0  0  0  0  0  0  0  0  0  0  0  0
  -17.3493   15.4998  -25.0277 C   0  0  0  0  0  0  0  0  0  0  0  0
  -16.2099   14.9158  -25.5324 C   0  0  0  0  0  0  0  0  0  0  0  0
  -15.6613   13.8516  -24.8709 C   0  0  0  0  0  0  0  0  0  0  0  0
  -16.2131   13.3285  -23.6953 C   0  0  0  0  0  0  0  0  0  0  0  0
  -15.8549   12.2551  -22.8069 C   0  0  0  0  0  0  0  0  0  0  0  0
  -14.8697   11.4859  -22.9342 O   0  0  0  0  0  0  0  0  0  0  0  0
  -19.1934   10.5809  -17.3201 C   0  0  0  0  0  0  0  0  0  0  0  0
  -18.3459    9.6062  -17.7992 C   0  0  0  0  0  0  0  0  0  0  0  0
  -17.5471    9.8273  -18.8825 C   0  0  0  0  0  0  0  0  0  0  0  0
  -17.5738   11.0770  -19.5429 C   0  0  0  0  0  0  0  0  0  0  0  0
  -18.4269   12.0153  -19.0367 C   0  0  0  0  0  0  0  0  0  0  0  0
  -19.2530   11.8088  -17.9288 C   0  0  0  0  0  0  0  0  0  0  0  0
  -21.3714   10.5682  -16.1871 O   0  0  0  0  0  0  0  0  0  0  0  0
  -20.0201   10.3043  -16.1726 C   0  0  0  0  0  0  0  0  0  0  0  0
  -19.5017    9.8147  -15.1415 O   0  0  0  0  0  0  0  0  0  0  0  0
  -22.0229    9.8983  -16.6122 H   0  0  0  0  0  0  0  0  0  0  0  0
 19 20  1  0  0  0
 20 21  2  0  0  0
 20 13  1  0  0  0
 13 14  2  0  0  0
 14 15  1  0  0  0
 15 16  2  0  0  0
 16 17  1  0  0  0
 17 18  2  0  0  0
 16  1  1  0  0  0
  1  2  2  0  0  0
  1  3  1  0  0  0
  3  4  1  0  0  0
  4  5  1  0  0  0
  5  6  2  0  0  0
  6  7  1  0  0  0
  7  8  2  0  0  0
  8  9  1  0  0  0
  9 10  2  0  0  0
 10 11  1  0  0  0
 11 12  2  0  0  0
 18 13  1  0  0  0
 11  3  1  0  0  0
 10  5  1  0  0  0
 19 22  1  0  0  0
M  END
> <minimizedAffinity>
-8.67420

> <CNNscore>
0.6239705086

> <CNNaffinity>
5.1495962143

> <CNN_VS>
3.2131962776

> <CNNaffinity_variance>
0.0705745891

$$$$
[H]OC(=O)c1c([H])c([H])c(C(=O)N2C(=O)c3c([H])c([H])c([H])c([H])c3C2([H])[H])c([H])c1[H]


 22 24  0  0  0  0  0  0  0  0999 V2000
  -17.7770   10.6680  -19.1965 C   0  0  0  0  0  0  0  0  0  0  0  0
  -16.8634    9.8178  -19.5494 O   0  0  0  0  0  0  0  0  0  0  0  0
  -17.9454   11.8307  -20.0128 N   0  0  0  0  0  0  0  0  0  0  0  0
  -18.8301   12.9438  -19.9390 C   0  0  0  0  0  0  0  0  0  0  0  0
  -18.4931   13.8502  -21.0552 C   0  0  0  0  0  0  0  0  0  0  0  0
  -19.0574   15.0914  -21.4090 C   0  0  0  0  0  0  0  0  0  0  0  0
  -18.5958   15.7723  -22.5065 C   0  0  0  0  0  0  0  0  0  0  0  0
  -17.5777   15.2421  -23.2657 C   0  0  0  0  0  0  0  0  0  0  0  0
  -17.0418   14.0359  -22.9069 C   0  0  0  0  0  0  0  0  0  0  0  0
  -17.4877   13.3137  -21.7936 C   0  0  0  0  0  0  0  0  0  0  0  0
  -17.1134   12.0623  -21.1905 C   0  0  0  0  0  0  0  0  0  0  0  0
  -16.2172   11.2821  -21.5988 O   0  0  0  0  0  0  0  0  0  0  0  0
  -20.0419    9.8805  -15.7246 C   0  0  0  0  0  0  0  0  0  0  0  0
  -20.0567   11.1122  -16.3416 C   0  0  0  0  0  0  0  0  0  0  0  0
  -19.3186   11.3555  -17.4625 C   0  0  0  0  0  0  0  0  0  0  0  0
  -18.5141   10.3354  -18.0199 C   0  0  0  0  0  0  0  0  0  0  0  0
  -18.5278    9.1301  -17.3786 C   0  0  0  0  0  0  0  0  0  0  0  0
  -19.2763    8.8606  -16.2299 C   0  0  0  0  0  0  0  0  0  0  0  0
  -22.1636   10.0341  -14.4989 O   0  0  0  0  0  0  0  0  0  0  0  0
  -20.8372    9.6672  -14.5420 C   0  0  0  0  0  0  0  0  0  0  0  0
  -20.3140    9.1382  -13.5330 O   0  0  0  0  0  0  0  0  0  0  0  0
  -22.8823    9.4167  -14.8939 H   0  0  0  0  0  0  0  0  0  0  0  0
 19 20  1  0  0  0
 20 21  2  0  0  0
 20 13  1  0  0  0
 13 14  2  0  0  0
 14 15  1  0  0  0
 15 16  2  0  0  0
 16 17  1  0  0  0
 17 18  2  0  0  0
 16  1  1  0  0  0
  1  2  2  0  0  0
  1  3  1  0  0  0
  3  4  1  0  0  0
  4  5  1  0  0  0
  5  6  2  0  0  0
  6  7  1  0  0  0
  7  8  2  0  0  0
  8  9  1  0  0  0
  9 10  2  0  0  0
 10 11  1  0  0  0
 11 12  2  0  0  0
 18 13  1  0  0  0
 11  3  1  0  0  0
 10  5  1  0  0  0
 19 22  1  0  0  0
M  END
> <minimizedAffinity>
-7.49339

> <CNNscore>
0.5737661719

> <CNNaffinity>
4.8541517258

> <CNN_VS>
2.7851481438

> <CNNaffinity_variance>
0.0902846828

$$$$
[H]OC(=O)c1c([H])c([H])c(C(=O)N2C(=O)c3c([H])c([H])c([H])c([H])c3C2([H])[H])c([H])c1[H]


 22 24  0  0  0  0  0  0  0  0999 V2000
  -18.4751   12.5981  -19.8251 C   0  0  0  0  0  0  0  0  0  0  0  0
  -17.5435   12.1628  -20.6155 O   0  0  0  0  0  0  0  0  0  0  0  0
  -18.8284   11.7769  -18.7083 N   0  0  0  0  0  0  0  0  0  0  0  0
  -19.7736   11.9321  -17.6549 C   0  0  0  0  0  0  0  0  0  0  0  0
  -19.7042   10.7177  -16.8172 C   0  0  0  0  0  0  0  0  0  0  0  0
  -20.4452   10.3715  -15.6703 C   0  0  0  0  0  0  0  0  0  0  0  0
  -20.2099    9.1820  -15.0291 C   0  0  0  0  0  0  0  0  0  0  0  0
  -19.2468    8.3228  -15.5069 C   0  0  0  0  0  0  0  0  0  0  0  0
  -18.5374    8.6757  -16.6218 C   0  0  0  0  0  0  0  0  0  0  0  0
  -18.7508    9.8809  -17.3014 C   0  0  0  0  0  0  0  0  0  0  0  0
  -18.1777   10.4910  -18.4716 C   0  0  0  0  0  0  0  0  0  0  0  0
  -17.2638   10.0086  -19.1861 O   0  0  0  0  0  0  0  0  0  0  0  0
  -19.9632   16.3894  -20.9277 C   0  0  0  0  0  0  0  0  0  0  0  0
  -18.6444   16.0396  -21.1182 C   0  0  0  0  0  0  0  0  0  0  0  0
  -18.1744   14.8115  -20.7559 C   0  0  0  0  0  0  0  0  0  0  0  0
  -19.0426   13.8618  -20.1704 C   0  0  0  0  0  0  0  0  0  0  0  0
  -20.3411   14.2477  -19.9993 C   0  0  0  0  0  0  0  0  0  0  0  0
  -20.8422   15.5002  -20.3633 C   0  0  0  0  0  0  0  0  0  0  0  0
  -21.1220   18.5022  -20.4580 O   0  0  0  0  0  0  0  0  0  0  0  0
  -20.4172   17.6980  -21.3253 C   0  0  0  0  0  0  0  0  0  0  0  0
  -20.1672   18.1136  -22.4813 O   0  0  0  0  0  0  0  0  0  0  0  0
  -20.6250   19.0672  -19.7597 H   0  0  0  0  0  0  0  0  0  0  0  0
 19 20  1  0  0  0
 20 21  2  0  0  0
 20 13  1  0  0  0
 13 14  2  0  0  0
 14 15  1  0  0  0
 15 16  2  0  0  0
 16 17  1  0  0  0
 17 18  2  0  0  0
 16  1  1  0  0  0
  1  2  2  0  0  0
  1  3  1  0  0  0
  3  4  1  0  0  0
  4  5  1  0  0  0
  5  6  2  0  0  0
  6  7  1  0  0  0
  7  8  2  0  0  0
  8  9  1  0  0  0
  9 10  2  0  0  0
 10 11  1  0  0  0
 11 12  2  0  0  0
 18 13  1  0  0  0
 11  3  1  0  0  0
 10  5  1  0  0  0
 19 22  1  0  0  0
M  END
> <minimizedAffinity>
-6.84295

> <CNNscore>
0.5382554531

> <CNNaffinity>
4.8199548721

> <CNN_VS>
2.5943670273

> <CNNaffinity_variance>
0.1601825207

$$$$
[H]OC(=O)c1c([H])c([H])c(C(=O)N2C(=O)c3c([H])c([H])c([H])c([H])c3C2([H])[H])c([H])c1[H]


 22 24  0  0  0  0  0  0  0  0999 V2000
  -19.9417   16.8085  -18.4796 C   0  0  0  0  0  0  0  0  0  0  0  0
  -19.2532   15.7352  -18.7164 O   0  0  0  0  0  0  0  0  0  0  0  0
  -20.4805   17.5073  -19.6057 N   0  0  0  0  0  0  0  0  0  0  0  0
  -21.2721   18.6848  -19.7244 C   0  0  0  0  0  0  0  0  0  0  0  0
  -21.4815   18.9324  -21.1652 C   0  0  0  0  0  0  0  0  0  0  0  0
  -22.1757   19.9762  -21.8077 C   0  0  0  0  0  0  0  0  0  0  0  0
  -22.2591   20.0102  -23.1764 C   0  0  0  0  0  0  0  0  0  0  0  0
  -21.6629   19.0218  -23.9257 C   0  0  0  0  0  0  0  0  0  0  0  0
  -20.9929   18.0163  -23.2845 C   0  0  0  0  0  0  0  0  0  0  0  0
  -20.8875   17.9499  -21.8901 C   0  0  0  0  0  0  0  0  0  0  0  0
  -20.2546   17.0415  -20.9713 C   0  0  0  0  0  0  0  0  0  0  0  0
  -19.6078   16.0090  -21.2779 O   0  0  0  0  0  0  0  0  0  0  0  0
  -20.1827   17.9978  -14.4385 C   0  0  0  0  0  0  0  0  0  0  0  0
  -19.1788   18.4416  -15.2710 C   0  0  0  0  0  0  0  0  0  0  0  0
  -19.1101   18.0486  -16.5753 C   0  0  0  0  0  0  0  0  0  0  0  0
  -20.0803   17.1671  -17.1047 C   0  0  0  0  0  0  0  0  0  0  0  0
  -21.0579   16.7511  -16.2471 C   0  0  0  0  0  0  0  0  0  0  0  0
  -21.1459   17.1417  -14.9084 C   0  0  0  0  0  0  0  0  0  0  0  0
  -19.3332   17.9407  -12.1357 O   0  0  0  0  0  0  0  0  0  0  0  0
  -20.2170   18.4385  -13.0668 C   0  0  0  0  0  0  0  0  0  0  0  0
  -21.0660   19.2903  -12.7128 O   0  0  0  0  0  0  0  0  0  0  0  0
  -18.3858   18.3295  -12.0648 H   0  0  0  0  0  0  0  0  0  0  0  0
 19 20  1  0  0  0
 20 21  2  0  0  0
 20 13  1  0  0  0
 13 14  2  0  0  0
 14 15  1  0  0  0
 15 16  2  0  0  0
 16 17  1  0  0  0
 17 18  2  0  0  0
 16  1  1  0  0  0
  1  2  2  0  0  0
  1  3  1  0  0  0
  3  4  1  0  0  0
  4  5  1  0  0  0
  5  6  2  0  0  0
  6  7  1  0  0  0
  7  8  2  0  0  0
  8  9  1  0  0  0
  9 10  2  0  0  0
 10 11  1  0  0  0
 11 12  2  0  0  0
 18 13  1  0  0  0
 11  3  1  0  0  0
 10  5  1  0  0  0
 19 22  1  0  0  0
M  END
> <minimizedAffinity>
-5.02381

> <CNNscore>
0.4786581993

> <CNNaffinity>
4.2993450165

> <CNN_VS>
2.0579166412

> <CNNaffinity_variance>
0.4038998187

$$$$
[H]OC(=O)c1c([H])c([H])c(C(=O)N2C(=O)c3c([H])c([H])c([H])c([H])c3C2([H])[H])c([H])c1[H]


 22 24  0  0  0  0  0  0  0  0999 V2000
  -15.8720   11.8862  -22.4743 C   0  0  0  0  0  0  0  0  0  0  0  0
  -15.0471   10.8894  -22.5624 O   0  0  0  0  0  0  0  0  0  0  0  0
  -16.7559   11.9124  -21.3497 N   0  0  0  0  0  0  0  0  0  0  0  0
  -17.7618   12.8293  -20.9319 C   0  0  0  0  0  0  0  0  0  0  0  0
  -18.3668   12.2885  -19.6979 C   0  0  0  0  0  0  0  0  0  0  0  0
  -19.4119   12.8043  -18.9068 C   0  0  0  0  0  0  0  0  0  0  0  0
  -19.8171   12.1384  -17.7781 C   0  0  0  0  0  0  0  0  0  0  0  0
  -19.2011   10.9621  -17.4162 C   0  0  0  0  0  0  0  0  0  0  0  0
  -18.1883   10.4764  -18.1967 C   0  0  0  0  0  0  0  0  0  0  0  0
  -17.7491   11.1290  -19.3548 C   0  0  0  0  0  0  0  0  0  0  0  0
  -16.7427   10.8525  -20.3450 C   0  0  0  0  0  0  0  0  0  0  0  0
  -15.9687    9.8630  -20.3580 O   0  0  0  0  0  0  0  0  0  0  0  0
  -15.4485   14.7761  -25.5194 C   0  0  0  0  0  0  0  0  0  0  0  0
  -14.4505   14.5314  -24.6019 C   0  0  0  0  0  0  0  0  0  0  0  0
  -14.5997   13.5959  -23.6206 C   0  0  0  0  0  0  0  0  0  0  0  0
  -15.7967   12.8498  -23.5250 C   0  0  0  0  0  0  0  0  0  0  0  0
  -16.7602   13.1227  -24.4531 C   0  0  0  0  0  0  0  0  0  0  0  0
  -16.6272   14.0765  -25.4656 C   0  0  0  0  0  0  0  0  0  0  0  0
  -14.2628   16.7279  -26.4207 O   0  0  0  0  0  0  0  0  0  0  0  0
  -15.2484   15.7739  -26.5398 C   0  0  0  0  0  0  0  0  0  0  0  0
  -15.9839   15.7751  -27.5551 O   0  0  0  0  0  0  0  0  0  0  0  0
  -13.2951   16.5047  -26.6806 H   0  0  0  0  0  0  0  0  0  0  0  0
 19 20  1  0  0  0
 20 21  2  0  0  0
 20 13  1  0  0  0
 13 14  2  0  0  0
 14 15  1  0  0  0
 15 16  2  0  0  0
 16 17  1  0  0  0
 17 18  2  0  0  0
 16  1  1  0  0  0
  1  2  2  0  0  0
  1  3  1  0  0  0
  3  4  1  0  0  0
  4  5  1  0  0  0
  5  6  2  0  0  0
  6  7  1  0  0  0
  7  8  2  0  0  0
  8  9  1  0  0  0
  9 10  2  0  0  0
 10 11  1  0  0  0
 11 12  2  0  0  0
 18 13  1  0  0  0
 11  3  1  0  0  0
 10  5  1  0  0  0
 19 22  1  0  0  0
M  END
> <minimizedAffinity>
-9.46491

> <CNNscore>
0.4751807749

> <CNNaffinity>
5.2558755875

> <CNN_VS>
2.4974911213

> <CNNaffinity_variance>
0.1022003442

$$$$
[H]OC(=O)c1c([H])c([H])c(C(=O)N2C(=O)c3c([H])c([H])c([H])c([H])c3C2([H])[H])c([H])c1[H]


 22 24  0  0  0  0  0  0  0  0999 V2000
  -17.3337   12.2977  -21.1444 C   0  0  0  0  0  0  0  0  0  0  0  0
  -16.8786   11.0856  -21.2201 O   0  0  0  0  0  0  0  0  0  0  0  0
  -16.8332   13.2493  -22.0881 N   0  0  0  0  0  0  0  0  0  0  0  0
  -17.1036   14.6303  -22.3044 C   0  0  0  0  0  0  0  0  0  0  0  0
  -16.2383   15.0811  -23.4131 C   0  0  0  0  0  0  0  0  0  0  0  0
  -16.1111   16.3581  -23.9938 C   0  0  0  0  0  0  0  0  0  0  0  0
  -15.2433   16.5591  -25.0369 C   0  0  0  0  0  0  0  0  0  0  0  0
  -14.4938   15.5103  -25.5188 C   0  0  0  0  0  0  0  0  0  0  0  0
  -14.6305   14.2774  -24.9423 C   0  0  0  0  0  0  0  0  0  0  0  0
  -15.5057   14.0361  -23.8766 C   0  0  0  0  0  0  0  0  0  0  0  0
  -15.8379   12.8779  -23.0903 C   0  0  0  0  0  0  0  0  0  0  0  0
  -15.3582   11.7252  -23.2304 O   0  0  0  0  0  0  0  0  0  0  0  0
  -20.0404   12.9023  -17.9646 C   0  0  0  0  0  0  0  0  0  0  0  0
  -18.8926   12.1556  -17.8137 C   0  0  0  0  0  0  0  0  0  0  0  0
  -18.0260   11.9654  -18.8496 C   0  0  0  0  0  0  0  0  0  0  0  0
  -18.2924   12.5383  -20.1143 C   0  0  0  0  0  0  0  0  0  0  0  0
  -19.4397   13.2707  -20.2217 C   0  0  0  0  0  0  0  0  0  0  0  0
  -20.3401   13.4773  -19.1734 C   0  0  0  0  0  0  0  0  0  0  0  0
  -21.6105   12.0117  -16.3004 O   0  0  0  0  0  0  0  0  0  0  0  0
  -20.9283   13.0775  -16.8431 C   0  0  0  0  0  0  0  0  0  0  0  0
  -21.0840   14.2201  -16.3513 O   0  0  0  0  0  0  0  0  0  0  0  0
  -21.1466   11.3924  -15.6258 H   0  0  0  0  0  0  0  0  0  0  0  0
 19 20  1  0  0  0
 20 21  2  0  0  0
 20 13  1  0  0  0
 13 14  2  0  0  0
 14 15  1  0  0  0
 15 16  2  0  0  0
 16 17  1  0  0  0
 17 18  2  0  0  0
 16  1  1  0  0  0
  1  2  2  0  0  0
  1  3  1  0  0  0
  3  4  1  0  0  0
  4  5  1  0  0  0
  5  6  2  0  0  0
  6  7  1  0  0  0
  7  8  2  0  0  0
  8  9  1  0  0  0
  9 10  2  0  0  0
 10 11  1  0  0  0
 11 12  2  0  0  0
 18 13  1  0  0  0
 11  3  1  0  0  0
 10  5  1  0  0  0
 19 22  1  0  0  0
M  END
> <minimizedAffinity>
-8.28294

> <CNNscore>
0.4331885278

> <CNNaffinity>
5.0514302254

> <CNN_VS>
2.1882216930

> <CNNaffinity_variance>
0.1226358861

$$$$
[H]OC(=O)c1c([H])c([H])c(C(=O)N2C(=O)c3c([H])c([H])c([H])c([H])c3C2([H])[H])c([H])c1[H]


 22 24  0  0  0  0  0  0  0  0999 V2000
  -19.1177    9.6080  -16.6916 C   0  0  0  0  0  0  0  0  0  0  0  0
  -18.3641    8.5687  -16.8754 O   0  0  0  0  0  0  0  0  0  0  0  0
  -18.9882   10.6881  -17.6208 N   0  0  0  0  0  0  0  0  0  0  0  0
  -19.6396   11.9491  -17.7342 C   0  0  0  0  0  0  0  0  0  0  0  0
  -19.0428   12.6519  -18.8879 C   0  0  0  0  0  0  0  0  0  0  0  0
  -19.3218   13.9322  -19.4047 C   0  0  0  0  0  0  0  0  0  0  0  0
  -18.6490   14.3935  -20.5074 C   0  0  0  0  0  0  0  0  0  0  0  0
  -17.6978   13.6037  -21.1120 C   0  0  0  0  0  0  0  0  0  0  0  0
  -17.4402   12.3634  -20.5961 C   0  0  0  0  0  0  0  0  0  0  0  0
  -18.1070   11.8606  -19.4724 C   0  0  0  0  0  0  0  0  0  0  0  0
  -18.0356   10.6325  -18.7264 C   0  0  0  0  0  0  0  0  0  0  0  0
  -17.2808    9.6589  -18.9730 O   0  0  0  0  0  0  0  0  0  0  0  0
  -21.5466    9.4391  -13.2455 C   0  0  0  0  0  0  0  0  0  0  0  0
  -20.1714    9.4653  -13.1683 C   0  0  0  0  0  0  0  0  0  0  0  0
  -19.3965    9.5180  -14.2896 C   0  0  0  0  0  0  0  0  0  0  0  0
  -19.9974    9.5470  -15.5689 C   0  0  0  0  0  0  0  0  0  0  0  0
  -21.3621    9.5197  -15.6016 C   0  0  0  0  0  0  0  0  0  0  0  0
  -22.1735    9.4657  -14.4653 C   0  0  0  0  0  0  0  0  0  0  0  0
  -21.7310    9.4832  -10.7978 O   0  0  0  0  0  0  0  0  0  0  0  0
  -22.3266    9.3834  -12.0351 C   0  0  0  0  0  0  0  0  0  0  0  0
  -23.5701    9.2414  -12.1077 O   0  0  0  0  0  0  0  0  0  0  0  0
  -21.4985   10.4051  -10.4104 H   0  0  0  0  0  0  0  0  0  0  0  0
 19 20  1  0  0  0
 20 21  2  0  0  0
 20 13  1  0  0  0
 13 14  2  0  0  0
 14 15  1  0  0  0
 15 16  2  0  0  0
 16 17  1  0  0  0
 17 18  2  0  0  0
 16  1  1  0  0  0
  1  2  2  0  0  0
  1  3  1  0  0  0
  3  4  1  0  0  0
  4  5  1  0  0  0
  5  6  2  0  0  0
  6  7  1  0  0  0
  7  8  2  0  0  0
  8  9  1  0  0  0
  9 10  2  0  0  0
 10 11  1  0  0  0
 11 12  2  0  0  0
 18 13  1  0  0  0
 11  3  1  0  0  0
 10  5  1  0  0  0
 19 22  1  0  0  0
M  END
> <minimizedAffinity>
-6.17845

> <CNNscore>
0.3820228577

> <CNNaffinity>
4.2687573433

> <CNN_VS>
1.6307629347

> <CNNaffinity_variance>
0.1123230308

$$$$
[H]c1c([H])c([H])c2c(c1[H])c1c3c(c4c5c([H])c([H])c([H])c([H])c5n5c4c1n2[C@@]1([H])O[C@]5(C([H])([H])[H])[C@@]([H])(OC([H])([H])[H])[C@]([H])(N([H])C([H])([H])[H])C1([H])[H])C([H])([H])N([H])C3=O


 37 44  0  0  0  0  0  0  0  0999 V2000
  -19.3581   17.8729  -19.6230 C   0  0  0  0  0  0  0  0  0  0  0  0
  -18.4859   17.0704  -20.5225 C   0  0  0  0  0  0  0  0  0  0  0  0
  -19.3135   15.9922  -21.1703 C   0  0  0  0  0  0  0  0  0  0  0  0
  -20.5273   15.7925  -20.6236 O   0  0  0  0  0  0  0  0  0  0  0  0
  -20.6323   15.7832  -19.2318 C   0  0  0  0  0  0  0  0  0  0  0  0
  -22.1520   15.9561  -19.0461 C   0  0  0  0  0  0  0  0  0  0  0  0
  -19.9153   16.8986  -18.5649 C   0  0  0  0  0  0  0  0  0  0  0  0
  -20.1921   14.5061  -18.6903 N   0  0  0  0  0  0  0  0  0  0  0  0
  -20.6175   13.9245  -17.5444 C   0  0  0  0  0  0  0  0  0  0  0  0
  -21.4905   14.3235  -16.5593 C   0  0  0  0  0  0  0  0  0  0  0  0
  -21.7587   13.5421  -15.4615 C   0  0  0  0  0  0  0  0  0  0  0  0
  -21.1383   12.3181  -15.3320 C   0  0  0  0  0  0  0  0  0  0  0  0
  -20.2515   11.8701  -16.2921 C   0  0  0  0  0  0  0  0  0  0  0  0
  -20.0082   12.6785  -17.3763 C   0  0  0  0  0  0  0  0  0  0  0  0
  -19.1836   12.4986  -18.4498 C   0  0  0  0  0  0  0  0  0  0  0  0
  -18.3191   11.4825  -18.8469 C   0  0  0  0  0  0  0  0  0  0  0  0
  -18.0411   10.2093  -18.1613 C   0  0  0  0  0  0  0  0  0  0  0  0
  -17.0837    9.5462  -18.9929 N   0  0  0  0  0  0  0  0  0  0  0  0
  -16.7779   10.3563  -20.1408 C   0  0  0  0  0  0  0  0  0  0  0  0
  -15.9801   10.0042  -21.0102 O   0  0  0  0  0  0  0  0  0  0  0  0
  -17.5668   11.5551  -20.0149 C   0  0  0  0  0  0  0  0  0  0  0  0
  -17.7210   12.7067  -20.7772 C   0  0  0  0  0  0  0  0  0  0  0  0
  -17.1492   13.1240  -21.9461 C   0  0  0  0  0  0  0  0  0  0  0  0
  -16.2374   12.5914  -22.8204 C   0  0  0  0  0  0  0  0  0  0  0  0
  -15.8636   13.3056  -23.9527 C   0  0  0  0  0  0  0  0  0  0  0  0
  -16.4097   14.5446  -24.1920 C   0  0  0  0  0  0  0  0  0  0  0  0
  -17.3243   15.0999  -23.3328 C   0  0  0  0  0  0  0  0  0  0  0  0
  -17.6884   14.3806  -22.2106 C   0  0  0  0  0  0  0  0  0  0  0  0
  -18.5481   14.7353  -21.2694 N   0  0  0  0  0  0  0  0  0  0  0  0
  -18.5824   13.7315  -20.3928 C   0  0  0  0  0  0  0  0  0  0  0  0
  -19.3047   13.6064  -19.2285 C   0  0  0  0  0  0  0  0  0  0  0  0
  -16.6538    8.5979  -18.8003 H   0  0  0  0  0  0  0  0  0  0  0  0
  -19.9806   19.9735  -20.5425 C   0  0  0  0  0  0  0  0  0  0  0  0
  -20.3884   18.6299  -20.2377 N   0  0  0  0  0  0  0  0  0  0  0  0
  -20.9773   18.1672  -20.9262 H   0  0  0  0  0  0  0  0  0  0  0  0
  -18.7716   16.5134  -17.8512 O   0  0  0  0  0  0  0  0  0  0  0  0
  -18.8345   17.1038  -16.5686 C   0  0  0  0  0  0  0  0  0  0  0  0
 33 34  1  0  0  0
 34  1  1  0  0  0
  1  2  1  0  0  0
  2  3  1  0  0  0
  3  4  1  0  0  0
  4  5  1  0  0  0
  5  6  1  0  0  0
  5  7  1  0  0  0
  7 36  1  0  0  0
 36 37  1  0  0  0
  5  8  1  0  0  0
  8  9  1  0  0  0
  9 10  2  0  0  0
 10 11  1  0  0  0
 11 12  2  0  0  0
 12 13  1  0  0  0
 13 14  2  0  0  0
 14 15  1  0  0  0
 15 16  2  0  0  0
 16 17  1  0  0  0
 17 18  1  0  0  0
 18 19  1  0  0  0
 19 20  2  0  0  0
 19 21  1  0  0  0
 21 22  2  0  0  0
 22 23  1  0  0  0
 23 24  2  0  0  0
 24 25  1  0  0  0
 25 26  2  0  0  0
 26 27  1  0  0  0
 27 28  2  0  0  0
 28 29  1  0  0  0
 29 30  1  0  0  0
 30 31  2  0  0  0
  7  1  1  0  0  0
 31  8  1  0  0  0
 29  3  1  0  0  0
 14  9  1  0  0  0
 31 15  1  0  0  0
 21 16  1  0  0  0
 30 22  1  0  0  0
 28 23  1  0  0  0
 34 35  1  0  0  0
 18 32  1  0  0  0
M  END
> <minimizedAffinity>
-10.40780

> <CNNscore>
0.8207662106

> <CNNaffinity>
7.1520705223

> <CNN_VS>
5.8701777458

> <CNNaffinity_variance>
0.0919160619

$$$$
[H]c1c([H])c([H])c2c(c1[H])c1c3c(c4c5c([H])c([H])c([H])c([H])c5n5c4c1n2[C@@]1([H])O[C@]5(C([H])([H])[H])[C@@]([H])(OC([H])([H])[H])[C@]([H])(N([H])C([H])([H])[H])C1([H])[H])C([H])([H])N([H])C3=O


 37 44  0  0  0  0  0  0  0  0999 V2000
  -22.0481   15.8954  -17.6534 C   0  0  0  0  0  0  0  0  0  0  0  0
  -21.5818   14.4882  -17.5270 C   0  0  0  0  0  0  0  0  0  0  0  0
  -20.1285   14.4892  -17.1329 C   0  0  0  0  0  0  0  0  0  0  0  0
  -19.5013   15.6743  -17.2523 O   0  0  0  0  0  0  0  0  0  0  0  0
  -19.7462   16.4400  -18.3933 C   0  0  0  0  0  0  0  0  0  0  0  0
  -19.2131   17.8158  -17.9493 C   0  0  0  0  0  0  0  0  0  0  0  0
  -21.1828   16.5499  -18.7498 C   0  0  0  0  0  0  0  0  0  0  0  0
  -18.9832   15.9362  -19.5256 N   0  0  0  0  0  0  0  0  0  0  0  0
  -18.5344   16.6547  -20.5815 C   0  0  0  0  0  0  0  0  0  0  0  0
  -18.6748   17.9738  -20.9447 C   0  0  0  0  0  0  0  0  0  0  0  0
  -18.1197   18.4767  -22.0964 C   0  0  0  0  0  0  0  0  0  0  0  0
  -17.3980   17.6421  -22.9225 C   0  0  0  0  0  0  0  0  0  0  0  0
  -17.2278   16.3081  -22.6051 C   0  0  0  0  0  0  0  0  0  0  0  0
  -17.7971   15.8408  -21.4452 C   0  0  0  0  0  0  0  0  0  0  0  0
  -17.8014   14.5883  -20.9009 C   0  0  0  0  0  0  0  0  0  0  0  0
  -17.2585   13.3650  -21.2830 C   0  0  0  0  0  0  0  0  0  0  0  0
  -16.4532   13.0644  -22.4786 C   0  0  0  0  0  0  0  0  0  0  0  0
  -16.1609   11.6668  -22.3823 N   0  0  0  0  0  0  0  0  0  0  0  0
  -16.7475   11.1182  -21.1897 C   0  0  0  0  0  0  0  0  0  0  0  0
  -16.6366    9.9319  -20.8786 O   0  0  0  0  0  0  0  0  0  0  0  0
  -17.4233   12.2064  -20.5306 C   0  0  0  0  0  0  0  0  0  0  0  0
  -18.1668   12.3298  -19.3631 C   0  0  0  0  0  0  0  0  0  0  0  0
  -18.5399   11.4285  -18.4061 C   0  0  0  0  0  0  0  0  0  0  0  0
  -18.3280   10.0892  -18.2045 C   0  0  0  0  0  0  0  0  0  0  0  0
  -18.8685    9.4622  -17.0879 C   0  0  0  0  0  0  0  0  0  0  0  0
  -19.6143   10.1877  -16.1892 C   0  0  0  0  0  0  0  0  0  0  0  0
  -19.8409   11.5292  -16.3678 C   0  0  0  0  0  0  0  0  0  0  0  0
  -19.2985   12.1418  -17.4813 C   0  0  0  0  0  0  0  0  0  0  0  0
  -19.3979   13.4142  -17.8302 N   0  0  0  0  0  0  0  0  0  0  0  0
  -18.7159   13.5473  -18.9679 C   0  0  0  0  0  0  0  0  0  0  0  0
  -18.5197   14.6628  -19.7491 C   0  0  0  0  0  0  0  0  0  0  0  0
  -15.5978   11.1065  -23.0823 H   0  0  0  0  0  0  0  0  0  0  0  0
  -22.7494   17.9265  -16.6393 C   0  0  0  0  0  0  0  0  0  0  0  0
  -22.0716   16.6716  -16.4662 N   0  0  0  0  0  0  0  0  0  0  0  0
  -22.2250   16.1912  -15.5826 H   0  0  0  0  0  0  0  0  0  0  0  0
  -21.5519   15.8513  -19.9080 O   0  0  0  0  0  0  0  0  0  0  0  0
  -22.3717   16.6973  -20.6889 C   0  0  0  0  0  0  0  0  0  0  0  0
 33 34  1  0  0  0
 34  1  1  0  0  0
  1  2  1  0  0  0
  2  3  1  0  0  0
  3  4  1  0  0  0
  4  5  1  0  0  0
  5  6  1  0  0  0
  5  7  1  0  0  0
  7 36  1  0  0  0
 36 37  1  0  0  0
  5  8  1  0  0  0
  8  9  1  0  0  0
  9 10  2  0  0  0
 10 11  1  0  0  0
 11 12  2  0  0  0
 12 13  1  0  0  0
 13 14  2  0  0  0
 14 15  1  0  0  0
 15 16  2  0  0  0
 16 17  1  0  0  0
 17 18  1  0  0  0
 18 19  1  0  0  0
 19 20  2  0  0  0
 19 21  1  0  0  0
 21 22  2  0  0  0
 22 23  1  0  0  0
 23 24  2  0  0  0
 24 25  1  0  0  0
 25 26  2  0  0  0
 26 27  1  0  0  0
 27 28  2  0  0  0
 28 29  1  0  0  0
 29 30  1  0  0  0
 30 31  2  0  0  0
  7  1  1  0  0  0
 31  8  1  0  0  0
 29  3  1  0  0  0
 14  9  1  0  0  0
 31 15  1  0  0  0
 21 16  1  0  0  0
 30 22  1  0  0  0
 28 23  1  0  0  0
 34 35  1  0  0  0
 18 32  1  0  0  0
M  END
> <minimizedAffinity>
-10.08538

> <CNNscore>
0.7126927376

> <CNNaffinity>
7.0162873268

> <CNN_VS>
5.0004568100

> <CNNaffinity_variance>
0.0649091154

$$$$
[H]c1c([H])c([H])c2c(c1[H])c1c3c(c4c5c([H])c([H])c([H])c([H])c5n5c4c1n2[C@@]1([H])O[C@]5(C([H])([H])[H])[C@@]([H])(OC([H])([H])[H])[C@]([H])(N([H])C([H])([H])[H])C1([H])[H])C([H])([H])N([H])C3=O


 37 44  0  0  0  0  0  0  0  0999 V2000
  -19.2513   18.0908  -20.0450 C   0  0  0  0  0  0  0  0  0  0  0  0
  -18.2987   17.6415  -21.0961 C   0  0  0  0  0  0  0  0  0  0  0  0
  -18.9753   16.6098  -21.9591 C   0  0  0  0  0  0  0  0  0  0  0  0
  -20.1259   16.1137  -21.4670 O   0  0  0  0  0  0  0  0  0  0  0  0
  -20.1812   15.7943  -20.1094 C   0  0  0  0  0  0  0  0  0  0  0  0
  -21.7025   15.6866  -19.8900 C   0  0  0  0  0  0  0  0  0  0  0  0
  -19.6188   16.8407  -19.2196 C   0  0  0  0  0  0  0  0  0  0  0  0
  -19.5351   14.5154  -19.8541 N   0  0  0  0  0  0  0  0  0  0  0  0
  -19.8289   13.6461  -18.8589 C   0  0  0  0  0  0  0  0  0  0  0  0
  -20.7184   13.6878  -17.8107 C   0  0  0  0  0  0  0  0  0  0  0  0
  -20.8282   12.6602  -16.9054 C   0  0  0  0  0  0  0  0  0  0  0  0
  -20.0261   11.5475  -17.0413 C   0  0  0  0  0  0  0  0  0  0  0  0
  -19.1146   11.4555  -18.0756 C   0  0  0  0  0  0  0  0  0  0  0  0
  -19.0330   12.5024  -18.9618 C   0  0  0  0  0  0  0  0  0  0  0  0
  -18.2274   12.6833  -20.0495 C   0  0  0  0  0  0  0  0  0  0  0  0
  -17.2332   11.9205  -20.6554 C   0  0  0  0  0  0  0  0  0  0  0  0
  -16.7431   10.5898  -20.2584 C   0  0  0  0  0  0  0  0  0  0  0  0
  -15.7251   10.2738  -21.2132 N   0  0  0  0  0  0  0  0  0  0  0  0
  -15.5841   11.3456  -22.1614 C   0  0  0  0  0  0  0  0  0  0  0  0
  -14.7721   11.3131  -23.0865 O   0  0  0  0  0  0  0  0  0  0  0  0
  -16.5404   12.3538  -21.7813 C   0  0  0  0  0  0  0  0  0  0  0  0
  -16.8924   13.6025  -22.2794 C   0  0  0  0  0  0  0  0  0  0  0  0
  -16.4300   14.3408  -23.3322 C   0  0  0  0  0  0  0  0  0  0  0  0
  -15.4783   14.1527  -24.3008 C   0  0  0  0  0  0  0  0  0  0  0  0
  -15.2551   15.1392  -25.2542 C   0  0  0  0  0  0  0  0  0  0  0  0
  -15.9898   16.3009  -25.2224 C   0  0  0  0  0  0  0  0  0  0  0  0
  -16.9482   16.5136  -24.2637 C   0  0  0  0  0  0  0  0  0  0  0  0
  -17.1615   15.5259  -23.3212 C   0  0  0  0  0  0  0  0  0  0  0  0
  -18.0326   15.5362  -22.3254 N   0  0  0  0  0  0  0  0  0  0  0  0
  -17.8853   14.3769  -21.6840 C   0  0  0  0  0  0  0  0  0  0  0  0
  -18.5407   13.8983  -20.5729 C   0  0  0  0  0  0  0  0  0  0  0  0
  -15.1507    9.3846  -21.2283 H   0  0  0  0  0  0  0  0  0  0  0  0
  -21.1369   19.3834  -19.3976 C   0  0  0  0  0  0  0  0  0  0  0  0
  -20.4042   18.7919  -20.4828 N   0  0  0  0  0  0  0  0  0  0  0  0
  -20.3357   19.3409  -21.3366 H   0  0  0  0  0  0  0  0  0  0  0  0
  -18.4066   16.4952  -18.6057 O   0  0  0  0  0  0  0  0  0  0  0  0
  -18.5459   16.6971  -17.2137 C   0  0  0  0  0  0  0  0  0  0  0  0
 33 34  1  0  0  0
 34  1  1  0  0  0
  1  2  1  0  0  0
  2  3  1  0  0  0
  3  4  1  0  0  0
  4  5  1  0  0  0
  5  6  1  0  0  0
  5  7  1  0  0  0
  7 36  1  0  0  0
 36 37  1  0  0  0
  5  8  1  0  0  0
  8  9  1  0  0  0
  9 10  2  0  0  0
 10 11  1  0  0  0
 11 12  2  0  0  0
 12 13  1  0  0  0
 13 14  2  0  0  0
 14 15  1  0  0  0
 15 16  2  0  0  0
 16 17  1  0  0  0
 17 18  1  0  0  0
 18 19  1  0  0  0
 19 20  2  0  0  0
 19 21  1  0  0  0
 21 22  2  0  0  0
 22 23  1  0  0  0
 23 24  2  0  0  0
 24 25  1  0  0  0
 25 26  2  0  0  0
 26 27  1  0  0  0
 27 28  2  0  0  0
 28 29  1  0  0  0
 29 30  1  0  0  0
 30 31  2  0  0  0
  7  1  1  0  0  0
 31  8  1  0  0  0
 29  3  1  0  0  0
 14  9  1  0  0  0
 31 15  1  0  0  0
 21 16  1  0  0  0
 30 22  1  0  0  0
 28 23  1  0  0  0
 34 35  1  0  0  0
 18 32  1  0  0  0
M  END
> <minimizedAffinity>
-10.58774

> <CNNscore>
0.6015620828

> <CNNaffinity>
7.0695738792

> <CNN_VS>
4.2527875900

> <CNNaffinity_variance>
0.1624263078

$$$$
[H]c1c([H])c([H])c2c(c1[H])c1c3c(c4c5c([H])c([H])c([H])c([H])c5n5c4c1n2[C@@]1([H])O[C@]5(C([H])([H])[H])[C@@]([H])(OC([H])([H])[H])[C@]([H])(N([H])C([H])([H])[H])C1([H])[H])C([H])([H])N([H])C3=O


 37 44  0  0  0  0  0  0  0  0999 V2000
  -18.6224   19.3149  -22.0827 C   0  0  0  0  0  0  0  0  0  0  0  0
  -17.7223   18.2412  -22.5835 C   0  0  0  0  0  0  0  0  0  0  0  0
  -18.5596   17.1420  -23.1817 C   0  0  0  0  0  0  0  0  0  0  0  0
  -19.8747   17.2034  -22.9009 O   0  0  0  0  0  0  0  0  0  0  0  0
  -20.2583   17.5176  -21.5961 C   0  0  0  0  0  0  0  0  0  0  0  0
  -21.7385   17.8922  -21.8023 C   0  0  0  0  0  0  0  0  0  0  0  0
  -19.5260   18.6691  -21.0123 C   0  0  0  0  0  0  0  0  0  0  0  0
  -20.1403   16.3541  -20.7299 N   0  0  0  0  0  0  0  0  0  0  0  0
  -20.8732   16.0938  -19.6219 C   0  0  0  0  0  0  0  0  0  0  0  0
  -21.8540   16.7961  -18.9612 C   0  0  0  0  0  0  0  0  0  0  0  0
  -22.4561   16.3145  -17.8240 C   0  0  0  0  0  0  0  0  0  0  0  0
  -22.0726   15.0904  -17.3195 C   0  0  0  0  0  0  0  0  0  0  0  0
  -21.0910   14.3449  -17.9438 C   0  0  0  0  0  0  0  0  0  0  0  0
  -20.5115   14.8584  -19.0789 C   0  0  0  0  0  0  0  0  0  0  0  0
  -19.5255   14.3539  -19.8778 C   0  0  0  0  0  0  0  0  0  0  0  0
  -18.7674   13.1867  -19.8597 C   0  0  0  0  0  0  0  0  0  0  0  0
  -18.8347   12.0769  -18.8942 C   0  0  0  0  0  0  0  0  0  0  0  0
  -17.8443   11.1441  -19.3377 N   0  0  0  0  0  0  0  0  0  0  0  0
  -17.1912   11.6381  -20.5196 C   0  0  0  0  0  0  0  0  0  0  0  0
  -16.2990   11.0155  -21.0964 O   0  0  0  0  0  0  0  0  0  0  0  0
  -17.7931   12.9133  -20.8144 C   0  0  0  0  0  0  0  0  0  0  0  0
  -17.6095   13.8747  -21.8009 C   0  0  0  0  0  0  0  0  0  0  0  0
  -16.7560   13.9547  -22.8651 C   0  0  0  0  0  0  0  0  0  0  0  0
  -15.7808   13.1437  -23.3853 C   0  0  0  0  0  0  0  0  0  0  0  0
  -15.0799   13.5411  -24.5179 C   0  0  0  0  0  0  0  0  0  0  0  0
  -15.3672   14.7469  -25.1129 C   0  0  0  0  0  0  0  0  0  0  0  0
  -16.3386   15.5768  -24.6122 C   0  0  0  0  0  0  0  0  0  0  0  0
  -17.0288   15.1712  -23.4860 C   0  0  0  0  0  0  0  0  0  0  0  0
  -17.9948   15.8192  -22.8554 N   0  0  0  0  0  0  0  0  0  0  0  0
  -18.3608   15.0471  -21.8321 C   0  0  0  0  0  0  0  0  0  0  0  0
  -19.3135   15.2655  -20.8637 C   0  0  0  0  0  0  0  0  0  0  0  0
  -17.6148   10.2220  -18.8706 H   0  0  0  0  0  0  0  0  0  0  0  0
  -19.9985   21.2024  -22.5179 C   0  0  0  0  0  0  0  0  0  0  0  0
  -19.3771   20.0227  -23.0532 N   0  0  0  0  0  0  0  0  0  0  0  0
  -18.9979   20.0968  -23.9943 H   0  0  0  0  0  0  0  0  0  0  0  0
  -18.6238   18.3313  -19.9937 O   0  0  0  0  0  0  0  0  0  0  0  0
  -18.7753   19.2663  -18.9446 C   0  0  0  0  0  0  0  0  0  0  0  0
 33 34  1  0  0  0
 34  1  1  0  0  0
  1  2  1  0  0  0
  2  3  1  0  0  0
  3  4  1  0  0  0
  4  5  1  0  0  0
  5  6  1  0  0  0
  5  7  1  0  0  0
  7 36  1  0  0  0
 36 37  1  0  0  0
  5  8  1  0  0  0
  8  9  1  0  0  0
  9 10  2  0  0  0
 10 11  1  0  0  0
 11 12  2  0  0  0
 12 13  1  0  0  0
 13 14  2  0  0  0
 14 15  1  0  0  0
 15 16  2  0  0  0
 16 17  1  0  0  0
 17 18  1  0  0  0
 18 19  1  0  0  0
 19 20  2  0  0  0
 19 21  1  0  0  0
 21 22  2  0  0  0
 22 23  1  0  0  0
 23 24  2  0  0  0
 24 25  1  0  0  0
 25 26  2  0  0  0
 26 27  1  0  0  0
 27 28  2  0  0  0
 28 29  1  0  0  0
 29 30  1  0  0  0
 30 31  2  0  0  0
  7  1  1  0  0  0
 31  8  1  0  0  0
 29  3  1  0  0  0
 14  9  1  0  0  0
 31 15  1  0  0  0
 21 16  1  0  0  0
 30 22  1  0  0  0
 28 23  1  0  0  0
 34 35  1  0  0  0
 18 32  1  0  0  0
M  END
> <minimizedAffinity>
-9.98308

> <CNNscore>
0.5419715643

> <CNNaffinity>
6.8721680641

> <CNN_VS>
3.7245197296

> <CNNaffinity_variance>
0.2027743757

$$$$
[H]c1c([H])c([H])c2c(c1[H])c1c3c(c4c5c([H])c([H])c([H])c([H])c5n5c4c1n2[C@@]1([H])O[C@]5(C([H])([H])[H])[C@@]([H])(OC([H])([H])[H])[C@]([H])(N([H])C([H])([H])[H])C1([H])[H])C([H])([H])N([H])C3=O


 37 44  0  0  0  0  0  0  0  0999 V2000
  -19.0520   19.3416  -21.8879 C   0  0  0  0  0  0  0  0  0  0  0  0
  -18.0878   18.5499  -22.6987 C   0  0  0  0  0  0  0  0  0  0  0  0
  -18.8316   17.4437  -23.3988 C   0  0  0  0  0  0  0  0  0  0  0  0
  -20.0825   17.2209  -22.9542 O   0  0  0  0  0  0  0  0  0  0  0  0
  -20.3053   17.2261  -21.5763 C   0  0  0  0  0  0  0  0  0  0  0  0
  -21.8390   17.3637  -21.5225 C   0  0  0  0  0  0  0  0  0  0  0  0
  -19.6741   18.3669  -20.8670 C   0  0  0  0  0  0  0  0  0  0  0  0
  -19.8828   15.9669  -20.9812 N   0  0  0  0  0  0  0  0  0  0  0  0
  -20.3904   15.3891  -19.8672 C   0  0  0  0  0  0  0  0  0  0  0  0
  -21.3532   15.7785  -18.9654 C   0  0  0  0  0  0  0  0  0  0  0  0
  -21.6953   15.0043  -17.8833 C   0  0  0  0  0  0  0  0  0  0  0  0
  -21.0596   13.7977  -17.6841 C   0  0  0  0  0  0  0  0  0  0  0  0
  -20.0840   13.3600  -18.5591 C   0  0  0  0  0  0  0  0  0  0  0  0
  -19.7684   14.1608  -19.6302 C   0  0  0  0  0  0  0  0  0  0  0  0
  -18.8514   13.9880  -20.6273 C   0  0  0  0  0  0  0  0  0  0  0  0
  -17.9326   12.9888  -20.9351 C   0  0  0  0  0  0  0  0  0  0  0  0
  -17.6841   11.7314  -20.2102 C   0  0  0  0  0  0  0  0  0  0  0  0
  -16.6441   11.0819  -20.9480 N   0  0  0  0  0  0  0  0  0  0  0  0
  -16.2609   11.8851  -22.0775 C   0  0  0  0  0  0  0  0  0  0  0  0
  -15.3839   11.5422  -22.8709 O   0  0  0  0  0  0  0  0  0  0  0  0
  -17.0856   13.0655  -22.0361 C   0  0  0  0  0  0  0  0  0  0  0  0
  -17.2014   14.2036  -22.8251 C   0  0  0  0  0  0  0  0  0  0  0  0
  -16.5422   14.6205  -23.9472 C   0  0  0  0  0  0  0  0  0  0  0  0
  -15.5471   14.0999  -24.7333 C   0  0  0  0  0  0  0  0  0  0  0  0
  -15.0952   14.8091  -25.8400 C   0  0  0  0  0  0  0  0  0  0  0  0
  -15.6479   16.0312  -26.1424 C   0  0  0  0  0  0  0  0  0  0  0  0
  -16.6452   16.5743  -25.3719 C   0  0  0  0  0  0  0  0  0  0  0  0
  -17.0864   15.8600  -24.2744 C   0  0  0  0  0  0  0  0  0  0  0  0
  -18.0311   16.2049  -23.4146 N   0  0  0  0  0  0  0  0  0  0  0  0
  -18.1163   15.2114  -22.5298 C   0  0  0  0  0  0  0  0  0  0  0  0
  -18.9319   15.0829  -21.4292 C   0  0  0  0  0  0  0  0  0  0  0  0
  -16.2100   10.1470  -20.7062 H   0  0  0  0  0  0  0  0  0  0  0  0
  -19.4897   21.1212  -23.4001 C   0  0  0  0  0  0  0  0  0  0  0  0
  -20.0437   20.0654  -22.5985 N   0  0  0  0  0  0  0  0  0  0  0  0
  -20.8173   19.5449  -23.0055 H   0  0  0  0  0  0  0  0  0  0  0  0
  -18.5865   18.0189  -20.0535 O   0  0  0  0  0  0  0  0  0  0  0  0
  -18.7701   18.6266  -18.7907 C   0  0  0  0  0  0  0  0  0  0  0  0
 33 34  1  0  0  0
 34  1  1  0  0  0
  1  2  1  0  0  0
  2  3  1  0  0  0
  3  4  1  0  0  0
  4  5  1  0  0  0
  5  6  1  0  0  0
  5  7  1  0  0  0
  7 36  1  0  0  0
 36 37  1  0  0  0
  5  8  1  0  0  0
  8  9  1  0  0  0
  9 10  2  0  0  0
 10 11  1  0  0  0
 11 12  2  0  0  0
 12 13  1  0  0  0
 13 14  2  0  0  0
 14 15  1  0  0  0
 15 16  2  0  0  0
 16 17  1  0  0  0
 17 18  1  0  0  0
 18 19  1  0  0  0
 19 20  2  0  0  0
 19 21  1  0  0  0
 21 22  2  0  0  0
 22 23  1  0  0  0
 23 24  2  0  0  0
 24 25  1  0  0  0
 25 26  2  0  0  0
 26 27  1  0  0  0
 27 28  2  0  0  0
 28 29  1  0  0  0
 29 30  1  0  0  0
 30 31  2  0  0  0
  7  1  1  0  0  0
 31  8  1  0  0  0
 29  3  1  0  0  0
 14  9  1  0  0  0
 31 15  1  0  0  0
 21 16  1  0  0  0
 30 22  1  0  0  0
 28 23  1  0  0  0
 34 35  1  0  0  0
 18 32  1  0  0  0
M  END
> <minimizedAffinity>
-10.27273

> <CNNscore>
0.4572357237

> <CNNaffinity>
6.7254934311

> <CNN_VS>
3.0751359463

> <CNNaffinity_variance>
0.1939183474

$$$$
[H]c1c([H])c([H])c2c(c1[H])c1c3c(c4c5c([H])c([H])c([H])c([H])c5n5c4c1n2[C@@]1([H])O[C@]5(C([H])([H])[H])[C@@]([H])(OC([H])([H])[H])[C@]([H])(N([H])C([H])([H])[H])C1([H])[H])C([H])([H])N([H])C3=O


 37 44  0  0  0  0  0  0  0  0999 V2000
  -20.3275   17.8300  -20.3737 C   0  0  0  0  0  0  0  0  0  0  0  0
  -20.5139   16.5912  -19.5710 C   0  0  0  0  0  0  0  0  0  0  0  0
  -19.2385   16.2946  -18.8278 C   0  0  0  0  0  0  0  0  0  0  0  0
  -18.1607   16.9909  -19.2349 O   0  0  0  0  0  0  0  0  0  0  0  0
  -17.9555   17.1498  -20.6063 C   0  0  0  0  0  0  0  0  0  0  0  0
  -16.9322   18.3016  -20.6233 C   0  0  0  0  0  0  0  0  0  0  0  0
  -19.1724   17.5488  -21.3566 C   0  0  0  0  0  0  0  0  0  0  0  0
  -17.3799   15.9446  -21.1844 N   0  0  0  0  0  0  0  0  0  0  0  0
  -16.5768   15.8740  -22.2719 C   0  0  0  0  0  0  0  0  0  0  0  0
  -16.1127   16.8192  -23.1567 C   0  0  0  0  0  0  0  0  0  0  0  0
  -15.2966   16.4922  -24.2125 C   0  0  0  0  0  0  0  0  0  0  0  0
  -14.9254   15.1782  -24.4015 C   0  0  0  0  0  0  0  0  0  0  0  0
  -15.3650   14.1891  -23.5427 C   0  0  0  0  0  0  0  0  0  0  0  0
  -16.1796   14.5538  -22.4980 C   0  0  0  0  0  0  0  0  0  0  0  0
  -16.7621   13.7976  -21.5214 C   0  0  0  0  0  0  0  0  0  0  0  0
  -16.7563   12.4397  -21.2157 C   0  0  0  0  0  0  0  0  0  0  0  0
  -16.0508   11.3552  -21.9190 C   0  0  0  0  0  0  0  0  0  0  0  0
  -16.3874   10.1680  -21.1943 N   0  0  0  0  0  0  0  0  0  0  0  0
  -17.2549   10.4880  -20.0931 C   0  0  0  0  0  0  0  0  0  0  0  0
  -17.6848    9.6357  -19.3153 O   0  0  0  0  0  0  0  0  0  0  0  0
  -17.4624   11.9128  -20.1390 C   0  0  0  0  0  0  0  0  0  0  0  0
  -18.1847   12.8193  -19.3723 C   0  0  0  0  0  0  0  0  0  0  0  0
  -18.9880   12.6688  -18.2772 C   0  0  0  0  0  0  0  0  0  0  0  0
  -19.3818   11.6061  -17.5058 C   0  0  0  0  0  0  0  0  0  0  0  0
  -20.2342   11.8106  -16.4271 C   0  0  0  0  0  0  0  0  0  0  0  0
  -20.6797   13.0787  -16.1373 C   0  0  0  0  0  0  0  0  0  0  0  0
  -20.3003   14.1591  -16.8935 C   0  0  0  0  0  0  0  0  0  0  0  0
  -19.4526   13.9437  -17.9632 C   0  0  0  0  0  0  0  0  0  0  0  0
  -18.9725   14.8440  -18.8056 N   0  0  0  0  0  0  0  0  0  0  0  0
  -18.1998   14.1808  -19.6659 C   0  0  0  0  0  0  0  0  0  0  0  0
  -17.4810   14.6483  -20.7419 C   0  0  0  0  0  0  0  0  0  0  0  0
  -16.0544    9.1903  -21.4268 H   0  0  0  0  0  0  0  0  0  0  0  0
  -20.1697   20.1975  -20.4976 C   0  0  0  0  0  0  0  0  0  0  0  0
  -20.1261   19.0356  -19.6537 N   0  0  0  0  0  0  0  0  0  0  0  0
  -20.5584   19.1241  -18.7370 H   0  0  0  0  0  0  0  0  0  0  0  0
  -19.6976   16.5513  -22.1901 O   0  0  0  0  0  0  0  0  0  0  0  0
  -19.8780   17.1049  -23.4780 C   0  0  0  0  0  0  0  0  0  0  0  0
 33 34  1  0  0  0
 34  1  1  0  0  0
  1  2  1  0  0  0
  2  3  1  0  0  0
  3  4  1  0  0  0
  4  5  1  0  0  0
  5  6  1  0  0  0
  5  7  1  0  0  0
  7 36  1  0  0  0
 36 37  1  0  0  0
  5  8  1  0  0  0
  8  9  1  0  0  0
  9 10  2  0  0  0
 10 11  1  0  0  0
 11 12  2  0  0  0
 12 13  1  0  0  0
 13 14  2  0  0  0
 14 15  1  0  0  0
 15 16  2  0  0  0
 16 17  1  0  0  0
 17 18  1  0  0  0
 18 19  1  0  0  0
 19 20  2  0  0  0
 19 21  1  0  0  0
 21 22  2  0  0  0
 22 23  1  0  0  0
 23 24  2  0  0  0
 24 25  1  0  0  0
 25 26  2  0  0  0
 26 27  1  0  0  0
 27 28  2  0  0  0
 28 29  1  0  0  0
 29 30  1  0  0  0
 30 31  2  0  0  0
  7  1  1  0  0  0
 31  8  1  0  0  0
 29  3  1  0  0  0
 14  9  1  0  0  0
 31 15  1  0  0  0
 21 16  1  0  0  0
 30 22  1  0  0  0
 28 23  1  0  0  0
 34 35  1  0  0  0
 18 32  1  0  0  0
M  END
> <minimizedAffinity>
-9.72101

> <CNNscore>
0.4351637959

> <CNNaffinity>
6.8544974327

> <CNN_VS>
2.9828290939

> <CNNaffinity_variance>
0.1596992612

$$$$
[H]c1c([H])c([H])c2c(c1[H])c1c3c(c4c5c([H])c([H])c([H])c([H])c5n5c4c1n2[C@@]1([H])O[C@]5(C([H])([H])[H])[C@@]([H])(OC([H])([H])[H])[C@]([H])(N([H])C([H])([H])[H])C1([H])[H])C([H])([H])N([H])C3=O


 37 44  0  0  0  0  0  0  0  0999 V2000
  -16.6933   14.8391  -25.9029 C   0  0  0  0  0  0  0  0  0  0  0  0
  -17.7047   15.7148  -25.2517 C   0  0  0  0  0  0  0  0  0  0  0  0
  -17.1338   16.2452  -23.9633 C   0  0  0  0  0  0  0  0  0  0  0  0
  -16.0140   15.6328  -23.5354 O   0  0  0  0  0  0  0  0  0  0  0  0
  -15.9498   14.2408  -23.6155 C   0  0  0  0  0  0  0  0  0  0  0  0
  -14.4367   14.0019  -23.4493 C   0  0  0  0  0  0  0  0  0  0  0  0
  -16.4049   13.6892  -24.9160 C   0  0  0  0  0  0  0  0  0  0  0  0
  -16.6883   13.6271  -22.5218 N   0  0  0  0  0  0  0  0  0  0  0  0
  -16.4391   12.4241  -21.9532 C   0  0  0  0  0  0  0  0  0  0  0  0
  -15.5228   11.4336  -22.2199 C   0  0  0  0  0  0  0  0  0  0  0  0
  -15.4717   10.2710  -21.4897 C   0  0  0  0  0  0  0  0  0  0  0  0
  -16.3625   10.0795  -20.4555 C   0  0  0  0  0  0  0  0  0  0  0  0
  -17.3043   11.0421  -20.1466 C   0  0  0  0  0  0  0  0  0  0  0  0
  -17.3252   12.1921  -20.8983 C   0  0  0  0  0  0  0  0  0  0  0  0
  -18.1413   13.2847  -20.8258 C   0  0  0  0  0  0  0  0  0  0  0  0
  -19.2078   13.6437  -20.0066 C   0  0  0  0  0  0  0  0  0  0  0  0
  -19.7913   12.8796  -18.8912 C   0  0  0  0  0  0  0  0  0  0  0  0
  -20.8550   13.7015  -18.4002 N   0  0  0  0  0  0  0  0  0  0  0  0
  -20.9347   14.9179  -19.1628 C   0  0  0  0  0  0  0  0  0  0  0  0
  -21.7700   15.7933  -18.9338 O   0  0  0  0  0  0  0  0  0  0  0  0
  -19.8925   14.8457  -20.1547 C   0  0  0  0  0  0  0  0  0  0  0  0
  -19.4555   15.6828  -21.1742 C   0  0  0  0  0  0  0  0  0  0  0  0
  -19.8846   16.9029  -21.6152 C   0  0  0  0  0  0  0  0  0  0  0  0
  -20.8724   17.7749  -21.2369 C   0  0  0  0  0  0  0  0  0  0  0  0
  -21.0410   18.9717  -21.9234 C   0  0  0  0  0  0  0  0  0  0  0  0
  -20.2162   19.2768  -22.9803 C   0  0  0  0  0  0  0  0  0  0  0  0
  -19.2199   18.4214  -23.3787 C   0  0  0  0  0  0  0  0  0  0  0  0
  -19.0617   17.2348  -22.6887 C   0  0  0  0  0  0  0  0  0  0  0  0
  -18.1675   16.2854  -22.9119 N   0  0  0  0  0  0  0  0  0  0  0  0
  -18.3897   15.3371  -22.0017 C   0  0  0  0  0  0  0  0  0  0  0  0
  -17.7463   14.1362  -21.8092 C   0  0  0  0  0  0  0  0  0  0  0  0
  -21.4981   13.4591  -17.5949 H   0  0  0  0  0  0  0  0  0  0  0  0
  -15.4332   15.5641  -27.7822 C   0  0  0  0  0  0  0  0  0  0  0  0
  -15.5000   15.4619  -26.3507 N   0  0  0  0  0  0  0  0  0  0  0  0
  -15.1465   16.2560  -25.8221 H   0  0  0  0  0  0  0  0  0  0  0  0
  -17.6247   12.9999  -24.8630 O   0  0  0  0  0  0  0  0  0  0  0  0
  -17.7595   12.2531  -26.0554 C   0  0  0  0  0  0  0  0  0  0  0  0
 33 34  1  0  0  0
 34  1  1  0  0  0
  1  2  1  0  0  0
  2  3  1  0  0  0
  3  4  1  0  0  0
  4  5  1  0  0  0
  5  6  1  0  0  0
  5  7  1  0  0  0
  7 36  1  0  0  0
 36 37  1  0  0  0
  5  8  1  0  0  0
  8  9  1  0  0  0
  9 10  2  0  0  0
 10 11  1  0  0  0
 11 12  2  0  0  0
 12 13  1  0  0  0
 13 14  2  0  0  0
 14 15  1  0  0  0
 15 16  2  0  0  0
 16 17  1  0  0  0
 17 18  1  0  0  0
 18 19  1  0  0  0
 19 20  2  0  0  0
 19 21  1  0  0  0
 21 22  2  0  0  0
 22 23  1  0  0  0
 23 24  2  0  0  0
 24 25  1  0  0  0
 25 26  2  0  0  0
 26 27  1  0  0  0
 27 28  2  0  0  0
 28 29  1  0  0  0
 29 30  1  0  0  0
 30 31  2  0  0  0
  7  1  1  0  0  0
 31  8  1  0  0  0
 29  3  1  0  0  0
 14  9  1  0  0  0
 31 15  1  0  0  0
 21 16  1  0  0  0
 30 22  1  0  0  0
 28 23  1  0  0  0
 34 35  1  0  0  0
 18 32  1  0  0  0
M  END
> <minimizedAffinity>
-11.34642

> <CNNscore>
0.3407776654

> <CNNaffinity>
7.0133910179

> <CNN_VS>
2.3900070190

> <CNNaffinity_variance>
0.3107420802

$$$$
[H]c1c([H])c([H])c2c(c1[H])c1c3c(c4c5c([H])c([H])c([H])c([H])c5n5c4c1n2[C@@]1([H])O[C@]5(C([H])([H])[H])[C@@]([H])(OC([H])([H])[H])[C@]([H])(N([H])C([H])([H])[H])C1([H])[H])C([H])([H])N([H])C3=O


 37 44  0  0  0  0  0  0  0  0999 V2000
  -21.1289   14.7444  -17.3156 C   0  0  0  0  0  0  0  0  0  0  0  0
  -20.3852   13.6243  -17.9529 C   0  0  0  0  0  0  0  0  0  0  0  0
  -18.9082   13.8985  -17.8508 C   0  0  0  0  0  0  0  0  0  0  0  0
  -18.5800   15.1540  -17.4930 O   0  0  0  0  0  0  0  0  0  0  0  0
  -19.2810   16.2118  -18.0740 C   0  0  0  0  0  0  0  0  0  0  0  0
  -18.9176   17.3686  -17.1232 C   0  0  0  0  0  0  0  0  0  0  0  0
  -20.7530   16.0222  -18.0936 C   0  0  0  0  0  0  0  0  0  0  0  0
  -18.7897   16.4795  -19.4175 N   0  0  0  0  0  0  0  0  0  0  0  0
  -18.8058   17.6701  -20.0615 C   0  0  0  0  0  0  0  0  0  0  0  0
  -19.2937   18.9111  -19.7244 C   0  0  0  0  0  0  0  0  0  0  0  0
  -19.1960   19.9885  -20.5713 C   0  0  0  0  0  0  0  0  0  0  0  0
  -18.5929   19.8325  -21.8009 C   0  0  0  0  0  0  0  0  0  0  0  0
  -18.0873   18.6068  -22.1896 C   0  0  0  0  0  0  0  0  0  0  0  0
  -18.2028   17.5523  -21.3163 C   0  0  0  0  0  0  0  0  0  0  0  0
  -17.8122   16.2497  -21.4415 C   0  0  0  0  0  0  0  0  0  0  0  0
  -17.1764   15.5218  -22.4431 C   0  0  0  0  0  0  0  0  0  0  0  0
  -16.7022   16.0030  -23.7516 C   0  0  0  0  0  0  0  0  0  0  0  0
  -16.1325   14.8513  -24.3816 N   0  0  0  0  0  0  0  0  0  0  0  0
  -16.2394   13.7082  -23.5159 C   0  0  0  0  0  0  0  0  0  0  0  0
  -15.8195   12.5941  -23.8301 O   0  0  0  0  0  0  0  0  0  0  0  0
  -16.8954   14.1651  -22.3175 C   0  0  0  0  0  0  0  0  0  0  0  0
  -17.2856   13.5621  -21.1278 C   0  0  0  0  0  0  0  0  0  0  0  0
  -17.1914   12.2784  -20.6687 C   0  0  0  0  0  0  0  0  0  0  0  0
  -16.6784   11.1088  -21.1668 C   0  0  0  0  0  0  0  0  0  0  0  0
  -16.7486    9.9439  -20.4118 C   0  0  0  0  0  0  0  0  0  0  0  0
  -17.3327    9.9687  -19.1673 C   0  0  0  0  0  0  0  0  0  0  0  0
  -17.8534   11.1263  -18.6458 C   0  0  0  0  0  0  0  0  0  0  0  0
  -17.7778   12.2781  -19.4054 C   0  0  0  0  0  0  0  0  0  0  0  0
  -18.2141   13.4854  -19.0850 N   0  0  0  0  0  0  0  0  0  0  0  0
  -17.9223   14.2776  -20.1166 C   0  0  0  0  0  0  0  0  0  0  0  0
  -18.1738   15.6188  -20.2929 C   0  0  0  0  0  0  0  0  0  0  0  0
  -15.6952   14.8308  -25.3456 H   0  0  0  0  0  0  0  0  0  0  0  0
  -21.8904   15.8530  -15.3569 C   0  0  0  0  0  0  0  0  0  0  0  0
  -20.9621   14.9101  -15.9166 N   0  0  0  0  0  0  0  0  0  0  0  0
  -20.7609   14.0846  -15.3570 H   0  0  0  0  0  0  0  0  0  0  0  0
  -21.2951   15.7929  -19.3661 O   0  0  0  0  0  0  0  0  0  0  0  0
  -22.3358   16.7261  -19.5750 C   0  0  0  0  0  0  0  0  0  0  0  0
 33 34  1  0  0  0
 34  1  1  0  0  0
  1  2  1  0  0  0
  2  3  1  0  0  0
  3  4  1  0  0  0
  4  5  1  0  0  0
  5  6  1  0  0  0
  5  7  1  0  0  0
  7 36  1  0  0  0
 36 37  1  0  0  0
  5  8  1  0  0  0
  8  9  1  0  0  0
  9 10  2  0  0  0
 10 11  1  0  0  0
 11 12  2  0  0  0
 12 13  1  0  0  0
 13 14  2  0  0  0
 14 15  1  0  0  0
 15 16  2  0  0  0
 16 17  1  0  0  0
 17 18  1  0  0  0
 18 19  1  0  0  0
 19 20  2  0  0  0
 19 21  1  0  0  0
 21 22  2  0  0  0
 22 23  1  0  0  0
 23 24  2  0  0  0
 24 25  1  0  0  0
 25 26  2  0  0  0
 26 27  1  0  0  0
 27 28  2  0  0  0
 28 29  1  0  0  0
 29 30  1  0  0  0
 30 31  2  0  0  0
  7  1  1  0  0  0
 31  8  1  0  0  0
 29  3  1  0  0  0
 14  9  1  0  0  0
 31 15  1  0  0  0
 21 16  1  0  0  0
 30 22  1  0  0  0
 28 23  1  0  0  0
 34 35  1  0  0  0
 18 32  1  0  0  0
M  END
> <minimizedAffinity>
-10.66616

> <CNNscore>
0.3278391659

> <CNNaffinity>
6.5884947777

> <CNN_VS>
2.1599667072

> <CNNaffinity_variance>
0.2727212608

$$$$
[H]c1c([H])c([H])c2c(c1[H])c1c3c(c4c5c([H])c([H])c([H])c([H])c5n5c4c1n2[C@@]1([H])O[C@]5(C([H])([H])[H])[C@@]([H])(OC([H])([H])[H])[C@]([H])(N([H])C([H])([H])[H])C1([H])[H])C([H])([H])N([H])C3=O


 37 44  0  0  0  0  0  0  0  0999 V2000
  -16.0856   16.4985  -23.0741 C   0  0  0  0  0  0  0  0  0  0  0  0
  -15.8978   15.1415  -22.4937 C   0  0  0  0  0  0  0  0  0  0  0  0
  -17.0842   14.2876  -22.8552 C   0  0  0  0  0  0  0  0  0  0  0  0
  -18.1450   14.9554  -23.3458 O   0  0  0  0  0  0  0  0  0  0  0  0
  -18.5155   16.1520  -22.7302 C   0  0  0  0  0  0  0  0  0  0  0  0
  -19.4335   16.7680  -23.8035 C   0  0  0  0  0  0  0  0  0  0  0  0
  -17.3795   17.0671  -22.4564 C   0  0  0  0  0  0  0  0  0  0  0  0
  -19.2600   15.8932  -21.5068 N   0  0  0  0  0  0  0  0  0  0  0  0
  -20.2026   16.6898  -20.9506 C   0  0  0  0  0  0  0  0  0  0  0  0
  -20.6998   17.9276  -21.2858 C   0  0  0  0  0  0  0  0  0  0  0  0
  -21.6723   18.5497  -20.5410 C   0  0  0  0  0  0  0  0  0  0  0  0
  -22.1725   17.9236  -19.4195 C   0  0  0  0  0  0  0  0  0  0  0  0
  -21.7067   16.6802  -19.0374 C   0  0  0  0  0  0  0  0  0  0  0  0
  -20.7340   16.0886  -19.8068 C   0  0  0  0  0  0  0  0  0  0  0  0
  -20.0921   14.8922  -19.6600 C   0  0  0  0  0  0  0  0  0  0  0  0
  -20.1698   13.8598  -18.7296 C   0  0  0  0  0  0  0  0  0  0  0  0
  -21.0491   13.7647  -17.5523 C   0  0  0  0  0  0  0  0  0  0  0  0
  -20.7190   12.5101  -16.9482 N   0  0  0  0  0  0  0  0  0  0  0  0
  -19.6903   11.8500  -17.7056 C   0  0  0  0  0  0  0  0  0  0  0  0
  -19.2335   10.7508  -17.3903 O   0  0  0  0  0  0  0  0  0  0  0  0
  -19.3737   12.7216  -18.8080 C   0  0  0  0  0  0  0  0  0  0  0  0
  -18.4841   12.6634  -19.8740 C   0  0  0  0  0  0  0  0  0  0  0  0
  -17.5585   11.7330  -20.2548 C   0  0  0  0  0  0  0  0  0  0  0  0
  -17.1555   10.5157  -19.7701 C   0  0  0  0  0  0  0  0  0  0  0  0
  -16.1543    9.8064  -20.4231 C   0  0  0  0  0  0  0  0  0  0  0  0
  -15.5711   10.3285  -21.5535 C   0  0  0  0  0  0  0  0  0  0  0  0
  -15.9565   11.5446  -22.0592 C   0  0  0  0  0  0  0  0  0  0  0  0
  -16.9528   12.2405  -21.4017 C   0  0  0  0  0  0  0  0  0  0  0  0
  -17.4638   13.4169  -21.7268 N   0  0  0  0  0  0  0  0  0  0  0  0
  -18.3955   13.6885  -20.8128 C   0  0  0  0  0  0  0  0  0  0  0  0
  -19.2088   14.7913  -20.6885 C   0  0  0  0  0  0  0  0  0  0  0  0
  -21.1595   12.1155  -16.0699 H   0  0  0  0  0  0  0  0  0  0  0  0
  -14.9335   15.9881  -25.0885 C   0  0  0  0  0  0  0  0  0  0  0  0
  -16.0899   16.5949  -24.4895 N   0  0  0  0  0  0  0  0  0  0  0  0
  -16.9739   16.4647  -24.9758 H   0  0  0  0  0  0  0  0  0  0  0  0
  -17.0532   17.2029  -21.0996 O   0  0  0  0  0  0  0  0  0  0  0  0
  -17.0299   18.5816  -20.7891 C   0  0  0  0  0  0  0  0  0  0  0  0
 33 34  1  0  0  0
 34  1  1  0  0  0
  1  2  1  0  0  0
  2  3  1  0  0  0
  3  4  1  0  0  0
  4  5  1  0  0  0
  5  6  1  0  0  0
  5  7  1  0  0  0
  7 36  1  0  0  0
 36 37  1  0  0  0
  5  8  1  0  0  0
  8  9  1  0  0  0
  9 10  2  0  0  0
 10 11  1  0  0  0
 11 12  2  0  0  0
 12 13  1  0  0  0
 13 14  2  0  0  0
 14 15  1  0  0  0
 15 16  2  0  0  0
 16 17  1  0  0  0
 17 18  1  0  0  0
 18 19  1  0  0  0
 19 20  2  0  0  0
 19 21  1  0  0  0
 21 22  2  0  0  0
 22 23  1  0  0  0
 23 24  2  0  0  0
 24 25  1  0  0  0
 25 26  2  0  0  0
 26 27  1  0  0  0
 27 28  2  0  0  0
 28 29  1  0  0  0
 29 30  1  0  0  0
 30 31  2  0  0  0
  7  1  1  0  0  0
 31  8  1  0  0  0
 29  3  1  0  0  0
 14  9  1  0  0  0
 31 15  1  0  0  0
 21 16  1  0  0  0
 30 22  1  0  0  0
 28 23  1  0  0  0
 34 35  1  0  0  0
 18 32  1  0  0  0
M  END
> <minimizedAffinity>
-10.62219

> <CNNscore>
0.2808926404

> <CNNaffinity>
6.4613151550

> <CNN_VS>
1.8149359226

> <CNNaffinity_variance>
0.5030623078

$$$$
[H]/C(=C(/[H])c1c([H])c([H])c(N2C([H])([H])C([H])([H])N(S(=O)(=O)C([H])([H])[H])C([H])([H])C2([H])[H])c([H])c1[H])c1c([H])c([H])c(F)c([H])c1[H]


 25 27  0  0  0  0  0  0  0  0999 V2000
  -18.6927   11.3372  -18.4275 C   0  0  0  0  0  0  0  0  0  0  0  0
  -17.5896   10.9448  -19.1580 C   0  0  0  0  0  0  0  0  0  0  0  0
  -17.1437   11.6778  -20.2434 C   0  0  0  0  0  0  0  0  0  0  0  0
  -17.7932   12.8338  -20.6324 C   0  0  0  0  0  0  0  0  0  0  0  0
  -18.8758   13.2186  -19.9151 C   0  0  0  0  0  0  0  0  0  0  0  0
  -19.3375   12.4833  -18.8125 C   0  0  0  0  0  0  0  0  0  0  0  0
  -20.1374    9.0646  -15.1580 N   0  0  0  0  0  0  0  0  0  0  0  0
  -19.3755    8.4049  -16.1598 C   0  0  0  0  0  0  0  0  0  0  0  0
  -18.6564    9.2716  -17.1253 C   0  0  0  0  0  0  0  0  0  0  0  0
  -19.1686   10.5951  -17.3141 N   0  0  0  0  0  0  0  0  0  0  0  0
  -20.1212   11.1746  -16.4272 C   0  0  0  0  0  0  0  0  0  0  0  0
  -19.9970   10.4774  -15.0906 C   0  0  0  0  0  0  0  0  0  0  0  0
  -22.1540    8.3545  -13.3163 C   0  0  0  0  0  0  0  0  0  0  0  0
  -21.7260    8.4826  -15.0573 S   0  0  0  0  0  0  0  0  0  0  0  0
  -22.7157    9.3910  -15.6817 O   0  0  0  0  0  0  0  0  0  0  0  0
  -21.7876    7.0883  -15.6237 O   0  0  0  0  0  0  0  0  0  0  0  0
  -17.2850   13.5563  -21.7694 C   0  0  0  0  0  0  0  0  0  0  0  0
  -16.6133   12.9978  -22.7501 C   0  0  0  0  0  0  0  0  0  0  0  0
  -16.0889   13.7251  -23.9170 C   0  0  0  0  0  0  0  0  0  0  0  0
  -14.7851   14.1215  -24.0415 C   0  0  0  0  0  0  0  0  0  0  0  0
  -14.3326   14.8094  -25.1670 C   0  0  0  0  0  0  0  0  0  0  0  0
  -15.2250   15.0940  -26.1756 C   0  0  0  0  0  0  0  0  0  0  0  0
  -14.8015   15.7647  -27.2818 F   0  0  0  0  0  0  0  0  0  0  0  0
  -16.5434   14.7036  -26.0702 C   0  0  0  0  0  0  0  0  0  0  0  0
  -16.9628   14.0207  -24.9377 C   0  0  0  0  0  0  0  0  0  0  0  0
 13 14  1  0  0  0
 14 15  2  0  0  0
 14 16  2  0  0  0
 14  7  1  0  0  0
  7  8  1  0  0  0
  8  9  1  0  0  0
  9 10  1  0  0  0
 10 11  1  0  0  0
 11 12  1  0  0  0
 10  1  1  0  0  0
  1  2  2  0  0  0
  2  3  1  0  0  0
  3  4  2  0  0  0
  4 17  1  0  0  0
 17 18  2  0  0  0
 18 19  1  0  0  0
 19 20  2  0  0  0
 20 21  1  0  0  0
 21 22  2  0  0  0
 22 23  1  0  0  0
 22 24  1  0  0  0
 24 25  2  0  0  0
  4  5  1  0  0  0
  5  6  2  0  0  0
 12  7  1  0  0  0
  6  1  1  0  0  0
 25 19  1  0  0  0
M  END
> <minimizedAffinity>
-8.78853

> <CNNscore>
0.4168660939

> <CNNaffinity>
5.8599262238

> <CNN_VS>
2.4428045750

> <CNNaffinity_variance>
0.0566058531

$$$$
[H]/C(=C(/[H])c1c([H])c([H])c(N2C([H])([H])C([H])([H])N(S(=O)(=O)C([H])([H])[H])C([H])([H])C2([H])[H])c([H])c1[H])c1c([H])c([H])c(F)c([H])c1[H]


 25 27  0  0  0  0  0  0  0  0999 V2000
  -18.7390   11.1767  -18.2775 C   0  0  0  0  0  0  0  0  0  0  0  0
  -17.6815   10.7824  -19.0717 C   0  0  0  0  0  0  0  0  0  0  0  0
  -17.3208   11.4957  -20.2010 C   0  0  0  0  0  0  0  0  0  0  0  0
  -18.0127   12.6330  -20.5714 C   0  0  0  0  0  0  0  0  0  0  0  0
  -19.0505   13.0197  -19.7916 C   0  0  0  0  0  0  0  0  0  0  0  0
  -19.4258   12.3043  -18.6439 C   0  0  0  0  0  0  0  0  0  0  0  0
  -19.9237    8.9613  -14.8673 N   0  0  0  0  0  0  0  0  0  0  0  0
  -19.1901    8.2974  -15.8873 C   0  0  0  0  0  0  0  0  0  0  0  0
  -18.5559    9.1577  -16.9160 C   0  0  0  0  0  0  0  0  0  0  0  0
  -19.1276   10.4546  -17.1180 N   0  0  0  0  0  0  0  0  0  0  0  0
  -20.0542   11.0276  -16.1999 C   0  0  0  0  0  0  0  0  0  0  0  0
  -19.8341   10.3797  -14.8510 C   0  0  0  0  0  0  0  0  0  0  0  0
  -21.5554    7.5637  -13.0378 C   0  0  0  0  0  0  0  0  0  0  0  0
  -21.4814    8.3251  -14.6643 S   0  0  0  0  0  0  0  0  0  0  0  0
  -22.5395    9.3610  -14.7069 O   0  0  0  0  0  0  0  0  0  0  0  0
  -21.7109    7.2268  -15.6690 O   0  0  0  0  0  0  0  0  0  0  0  0
  -17.5931   13.3354  -21.7562 C   0  0  0  0  0  0  0  0  0  0  0  0
  -16.6446   12.9121  -22.5599 C   0  0  0  0  0  0  0  0  0  0  0  0
  -16.2070   13.6206  -23.7732 C   0  0  0  0  0  0  0  0  0  0  0  0
  -17.0471   13.9606  -24.7985 C   0  0  0  0  0  0  0  0  0  0  0  0
  -16.5872   14.6326  -25.9306 C   0  0  0  0  0  0  0  0  0  0  0  0
  -15.2527   14.9599  -26.0132 C   0  0  0  0  0  0  0  0  0  0  0  0
  -14.7856   15.6159  -27.1106 F   0  0  0  0  0  0  0  0  0  0  0  0
  -14.3890   14.6265  -24.9912 C   0  0  0  0  0  0  0  0  0  0  0  0
  -14.8773   13.9579  -23.8779 C   0  0  0  0  0  0  0  0  0  0  0  0
 13 14  1  0  0  0
 14 15  2  0  0  0
 14 16  2  0  0  0
 14  7  1  0  0  0
  7  8  1  0  0  0
  8  9  1  0  0  0
  9 10  1  0  0  0
 10 11  1  0  0  0
 11 12  1  0  0  0
 10  1  1  0  0  0
  1  2  2  0  0  0
  2  3  1  0  0  0
  3  4  2  0  0  0
  4 17  1  0  0  0
 17 18  2  0  0  0
 18 19  1  0  0  0
 19 20  2  0  0  0
 20 21  1  0  0  0
 21 22  2  0  0  0
 22 23  1  0  0  0
 22 24  1  0  0  0
 24 25  2  0  0  0
  4  5  1  0  0  0
  5  6  2  0  0  0
 12  7  1  0  0  0
  6  1  1  0  0  0
 25 19  1  0  0  0
M  END
> <minimizedAffinity>
-8.56379

> <CNNscore>
0.4139252305

> <CNNaffinity>
5.8337297440

> <CNN_VS>
2.4147279263

> <CNNaffinity_variance>
0.0663986728

$$$$
[H]/C(=C(/[H])c1c([H])c([H])c(N2C([H])([H])C([H])([H])N(S(=O)(=O)C([H])([H])[H])C([H])([H])C2([H])[H])c([H])c1[H])c1c([H])c([H])c(F)c([H])c1[H]


 25 27  0  0  0  0  0  0  0  0999 V2000
  -18.7616   10.7717  -18.1331 C   0  0  0  0  0  0  0  0  0  0  0  0
  -17.7079   10.1334  -18.7551 C   0  0  0  0  0  0  0  0  0  0  0  0
  -17.1013   10.6671  -19.8782 C   0  0  0  0  0  0  0  0  0  0  0  0
  -17.5343   11.8641  -20.4159 C   0  0  0  0  0  0  0  0  0  0  0  0
  -18.5685   12.4903  -19.8051 C   0  0  0  0  0  0  0  0  0  0  0  0
  -19.1918   11.9587  -18.6655 C   0  0  0  0  0  0  0  0  0  0  0  0
  -20.6578    9.2489  -14.6652 N   0  0  0  0  0  0  0  0  0  0  0  0
  -21.0449   10.5295  -15.1440 C   0  0  0  0  0  0  0  0  0  0  0  0
  -20.5726   10.9020  -16.5000 C   0  0  0  0  0  0  0  0  0  0  0  0
  -19.4005   10.2369  -16.9831 N   0  0  0  0  0  0  0  0  0  0  0  0
  -18.8736    9.0726  -16.3530 C   0  0  0  0  0  0  0  0  0  0  0  0
  -19.9998    8.4021  -15.5980 C   0  0  0  0  0  0  0  0  0  0  0  0
  -19.3319   10.9759  -12.8703 C   0  0  0  0  0  0  0  0  0  0  0  0
  -19.9642    9.3121  -13.1200 S   0  0  0  0  0  0  0  0  0  0  0  0
  -20.9404    9.0518  -12.0366 O   0  0  0  0  0  0  0  0  0  0  0  0
  -18.7796    8.3838  -13.0622 O   0  0  0  0  0  0  0  0  0  0  0  0
  -16.8657   12.3720  -21.5855 C   0  0  0  0  0  0  0  0  0  0  0  0
  -17.3830   13.2713  -22.3909 C   0  0  0  0  0  0  0  0  0  0  0  0
  -16.7099   13.7981  -23.5888 C   0  0  0  0  0  0  0  0  0  0  0  0
  -17.3476   14.0324  -24.7767 C   0  0  0  0  0  0  0  0  0  0  0  0
  -16.6682   14.5330  -25.8869 C   0  0  0  0  0  0  0  0  0  0  0  0
  -15.3214   14.7964  -25.7791 C   0  0  0  0  0  0  0  0  0  0  0  0
  -14.6416   15.2853  -26.8522 F   0  0  0  0  0  0  0  0  0  0  0  0
  -14.6595   14.5674  -24.5911 C   0  0  0  0  0  0  0  0  0  0  0  0
  -15.3637   14.0688  -23.5046 C   0  0  0  0  0  0  0  0  0  0  0  0
 13 14  1  0  0  0
 14 15  2  0  0  0
 14 16  2  0  0  0
 14  7  1  0  0  0
  7  8  1  0  0  0
  8  9  1  0  0  0
  9 10  1  0  0  0
 10 11  1  0  0  0
 11 12  1  0  0  0
 10  1  1  0  0  0
  1  2  2  0  0  0
  2  3  1  0  0  0
  3  4  2  0  0  0
  4 17  1  0  0  0
 17 18  2  0  0  0
 18 19  1  0  0  0
 19 20  2  0  0  0
 20 21  1  0  0  0
 21 22  2  0  0  0
 22 23  1  0  0  0
 22 24  1  0  0  0
 24 25  2  0  0  0
  4  5  1  0  0  0
  5  6  2  0  0  0
 12  7  1  0  0  0
  6  1  1  0  0  0
 25 19  1  0  0  0
M  END
> <minimizedAffinity>
-8.54767

> <CNNscore>
0.3971515298

> <CNNaffinity>
5.7597799301

> <CNN_VS>
2.2875053883

> <CNNaffinity_variance>
0.0469966009

$$$$
[H]/C(=C(/[H])c1c([H])c([H])c(N2C([H])([H])C([H])([H])N(S(=O)(=O)C([H])([H])[H])C([H])([H])C2([H])[H])c([H])c1[H])c1c([H])c([H])c(F)c([H])c1[H]


 25 27  0  0  0  0  0  0  0  0999 V2000
  -18.4132   14.8412  -21.2718 C   0  0  0  0  0  0  0  0  0  0  0  0
  -18.0942   15.6884  -20.2301 C   0  0  0  0  0  0  0  0  0  0  0  0
  -19.0729   16.3606  -19.5199 C   0  0  0  0  0  0  0  0  0  0  0  0
  -20.4095   16.2037  -19.8334 C   0  0  0  0  0  0  0  0  0  0  0  0
  -20.7222   15.3721  -20.8559 C   0  0  0  0  0  0  0  0  0  0  0  0
  -19.7382   14.6849  -21.5835 C   0  0  0  0  0  0  0  0  0  0  0  0
  -15.4348   12.7325  -23.4221 N   0  0  0  0  0  0  0  0  0  0  0  0
  -16.2540   12.0116  -22.5118 C   0  0  0  0  0  0  0  0  0  0  0  0
  -17.4538   12.7159  -21.9973 C   0  0  0  0  0  0  0  0  0  0  0  0
  -17.4225   14.1471  -22.0158 N   0  0  0  0  0  0  0  0  0  0  0  0
  -16.4440   14.8760  -22.7514 C   0  0  0  0  0  0  0  0  0  0  0  0
  -15.9397   13.9851  -23.8649 C   0  0  0  0  0  0  0  0  0  0  0  0
  -13.6766   11.9600  -21.3545 C   0  0  0  0  0  0  0  0  0  0  0  0
  -13.7989   12.7194  -22.9790 S   0  0  0  0  0  0  0  0  0  0  0  0
  -12.9572   11.9176  -23.8972 O   0  0  0  0  0  0  0  0  0  0  0  0
  -13.3056   14.1352  -22.8351 O   0  0  0  0  0  0  0  0  0  0  0  0
  -21.3847   16.9281  -19.0606 C   0  0  0  0  0  0  0  0  0  0  0  0
  -21.7462   18.1650  -19.3138 C   0  0  0  0  0  0  0  0  0  0  0  0
  -22.7412   18.9159  -18.5317 C   0  0  0  0  0  0  0  0  0  0  0  0
  -22.7873   18.9183  -17.1641 C   0  0  0  0  0  0  0  0  0  0  0  0
  -23.7496   19.6458  -16.4645 C   0  0  0  0  0  0  0  0  0  0  0  0
  -24.6744   20.3786  -17.1734 C   0  0  0  0  0  0  0  0  0  0  0  0
  -25.6212   21.0950  -16.5077 F   0  0  0  0  0  0  0  0  0  0  0  0
  -24.6458   20.3899  -18.5521 C   0  0  0  0  0  0  0  0  0  0  0  0
  -23.6757   19.6556  -19.2190 C   0  0  0  0  0  0  0  0  0  0  0  0
 13 14  1  0  0  0
 14 15  2  0  0  0
 14 16  2  0  0  0
 14  7  1  0  0  0
  7  8  1  0  0  0
  8  9  1  0  0  0
  9 10  1  0  0  0
 10 11  1  0  0  0
 11 12  1  0  0  0
 10  1  1  0  0  0
  1  2  2  0  0  0
  2  3  1  0  0  0
  3  4  2  0  0  0
  4 17  1  0  0  0
 17 18  2  0  0  0
 18 19  1  0  0  0
 19 20  2  0  0  0
 20 21  1  0  0  0
 21 22  2  0  0  0
 22 23  1  0  0  0
 22 24  1  0  0  0
 24 25  2  0  0  0
  4  5  1  0  0  0
  5  6  2  0  0  0
 12  7  1  0  0  0
  6  1  1  0  0  0
 25 19  1  0  0  0
M  END
> <minimizedAffinity>
4.45855

> <CNNscore>
0.3865301907

> <CNNaffinity>
5.3928346634

> <CNN_VS>
2.0844933987

> <CNNaffinity_variance>
1.3713066578

$$$$
[H]/C(=C(/[H])c1c([H])c([H])c(N2C([H])([H])C([H])([H])N(S(=O)(=O)C([H])([H])[H])C([H])([H])C2([H])[H])c([H])c1[H])c1c([H])c([H])c(F)c([H])c1[H]


 25 27  0  0  0  0  0  0  0  0999 V2000
  -19.8216   15.5513  -20.3154 C   0  0  0  0  0  0  0  0  0  0  0  0
  -21.1803   15.7813  -20.3900 C   0  0  0  0  0  0  0  0  0  0  0  0
  -21.7326   16.5199  -21.4213 C   0  0  0  0  0  0  0  0  0  0  0  0
  -20.9356   17.0540  -22.4158 C   0  0  0  0  0  0  0  0  0  0  0  0
  -19.6021   16.8280  -22.3423 C   0  0  0  0  0  0  0  0  0  0  0  0
  -19.0304   16.0805  -21.3010 C   0  0  0  0  0  0  0  0  0  0  0  0
  -18.0349   13.2665  -17.2286 N   0  0  0  0  0  0  0  0  0  0  0  0
  -17.2163   13.7226  -18.2968 C   0  0  0  0  0  0  0  0  0  0  0  0
  -17.8068   14.7432  -19.1968 C   0  0  0  0  0  0  0  0  0  0  0  0
  -19.2358   14.8006  -19.2618 N   0  0  0  0  0  0  0  0  0  0  0  0
  -20.0666   14.1398  -18.3115 C   0  0  0  0  0  0  0  0  0  0  0  0
  -19.2650   13.9538  -17.0423 C   0  0  0  0  0  0  0  0  0  0  0  0
  -16.6290   10.9130  -17.8972 C   0  0  0  0  0  0  0  0  0  0  0  0
  -18.1234   11.5758  -17.1501 S   0  0  0  0  0  0  0  0  0  0  0  0
  -18.1783   11.0631  -15.7614 O   0  0  0  0  0  0  0  0  0  0  0  0
  -19.2787   11.0933  -17.9875 O   0  0  0  0  0  0  0  0  0  0  0  0
  -21.5647   17.8140  -23.4644 C   0  0  0  0  0  0  0  0  0  0  0  0
  -20.9219   18.3021  -24.5004 C   0  0  0  0  0  0  0  0  0  0  0  0
  -21.5534   19.0801  -25.5782 C   0  0  0  0  0  0  0  0  0  0  0  0
  -22.7244   18.7207  -26.1881 C   0  0  0  0  0  0  0  0  0  0  0  0
  -23.2864   19.4900  -27.2065 C   0  0  0  0  0  0  0  0  0  0  0  0
  -22.6420   20.6395  -27.6042 C   0  0  0  0  0  0  0  0  0  0  0  0
  -23.1756   21.4031  -28.5967 F   0  0  0  0  0  0  0  0  0  0  0  0
  -21.4608   21.0198  -27.0028 C   0  0  0  0  0  0  0  0  0  0  0  0
  -20.9271   20.2329  -25.9923 C   0  0  0  0  0  0  0  0  0  0  0  0
 13 14  1  0  0  0
 14 15  2  0  0  0
 14 16  2  0  0  0
 14  7  1  0  0  0
  7  8  1  0  0  0
  8  9  1  0  0  0
  9 10  1  0  0  0
 10 11  1  0  0  0
 11 12  1  0  0  0
 10  1  1  0  0  0
  1  2  2  0  0  0
  2  3  1  0  0  0
  3  4  2  0  0  0
  4 17  1  0  0  0
 17 18  2  0  0  0
 18 19  1  0  0  0
 19 20  2  0  0  0
 20 21  1  0  0  0
 21 22  2  0  0  0
 22 23  1  0  0  0
 22 24  1  0  0  0
 24 25  2  0  0  0
  4  5  1  0  0  0
  5  6  2  0  0  0
 12  7  1  0  0  0
  6  1  1  0  0  0
 25 19  1  0  0  0
M  END
> <minimizedAffinity>
6.00976

> <CNNscore>
0.3737705052

> <CNNaffinity>
5.2049202919

> <CNN_VS>
1.9454456568

> <CNNaffinity_variance>
0.9562698603

$$$$
[H]/C(=C(/[H])c1c([H])c([H])c(N2C([H])([H])C([H])([H])N(S(=O)(=O)C([H])([H])[H])C([H])([H])C2([H])[H])c([H])c1[H])c1c([H])c([H])c(F)c([H])c1[H]


 25 27  0  0  0  0  0  0  0  0999 V2000
  -18.6353   11.1188  -18.4491 C   0  0  0  0  0  0  0  0  0  0  0  0
  -19.0347   12.2582  -19.1176 C   0  0  0  0  0  0  0  0  0  0  0  0
  -18.4056   12.6732  -20.2778 C   0  0  0  0  0  0  0  0  0  0  0  0
  -17.3504   11.9549  -20.8073 C   0  0  0  0  0  0  0  0  0  0  0  0
  -16.9588   10.8367  -20.1508 C   0  0  0  0  0  0  0  0  0  0  0  0
  -17.5891   10.4059  -18.9732 C   0  0  0  0  0  0  0  0  0  0  0  0
  -20.4863    9.8781  -14.8470 N   0  0  0  0  0  0  0  0  0  0  0  0
  -20.6473   11.2271  -15.2637 C   0  0  0  0  0  0  0  0  0  0  0  0
  -20.2311   11.5476  -16.6510 C   0  0  0  0  0  0  0  0  0  0  0  0
  -19.2650   10.6801  -17.2542 N   0  0  0  0  0  0  0  0  0  0  0  0
  -18.9309    9.4117  -16.6979 C   0  0  0  0  0  0  0  0  0  0  0  0
  -20.0982    8.9521  -15.8529 C   0  0  0  0  0  0  0  0  0  0  0  0
  -20.8445    9.2194  -12.1266 C   0  0  0  0  0  0  0  0  0  0  0  0
  -19.6607    9.7446  -13.3729 S   0  0  0  0  0  0  0  0  0  0  0  0
  -18.5832    8.7284  -13.4033 O   0  0  0  0  0  0  0  0  0  0  0  0
  -19.1600   11.1014  -12.9523 O   0  0  0  0  0  0  0  0  0  0  0  0
  -16.7335   12.4337  -22.0168 C   0  0  0  0  0  0  0  0  0  0  0  0
  -16.8500   13.6647  -22.4594 C   0  0  0  0  0  0  0  0  0  0  0  0
  -16.2246   14.1659  -23.6936 C   0  0  0  0  0  0  0  0  0  0  0  0
  -14.8809   14.3871  -23.8281 C   0  0  0  0  0  0  0  0  0  0  0  0
  -14.3321   14.8634  -25.0184 C   0  0  0  0  0  0  0  0  0  0  0  0
  -15.1686   15.1157  -26.0820 C   0  0  0  0  0  0  0  0  0  0  0  0
  -14.6510   15.5810  -27.2518 F   0  0  0  0  0  0  0  0  0  0  0  0
  -16.5258   14.8997  -25.9676 C   0  0  0  0  0  0  0  0  0  0  0  0
  -17.0411   14.4253  -24.7700 C   0  0  0  0  0  0  0  0  0  0  0  0
 13 14  1  0  0  0
 14 15  2  0  0  0
 14 16  2  0  0  0
 14  7  1  0  0  0
  7  8  1  0  0  0
  8  9  1  0  0  0
  9 10  1  0  0  0
 10 11  1  0  0  0
 11 12  1  0  0  0
 10  1  1  0  0  0
  1  2  2  0  0  0
  2  3  1  0  0  0
  3  4  2  0  0  0
  4 17  1  0  0  0
 17 18  2  0  0  0
 18 19  1  0  0  0
 19 20  2  0  0  0
 20 21  1  0  0  0
 21 22  2  0  0  0
 22 23  1  0  0  0
 22 24  1  0  0  0
 24 25  2  0  0  0
  4  5  1  0  0  0
  5  6  2  0  0  0
 12  7  1  0  0  0
  6  1  1  0  0  0
 25 19  1  0  0  0
M  END
> <minimizedAffinity>
-8.79508

> <CNNscore>
0.3514420092

> <CNNaffinity>
5.7218694687

> <CNN_VS>
2.0109052658

> <CNNaffinity_variance>
0.0508456342

$$$$
[H]/C(=C(/[H])c1c([H])c([H])c(N2C([H])([H])C([H])([H])N(S(=O)(=O)C([H])([H])[H])C([H])([H])C2([H])[H])c([H])c1[H])c1c([H])c([H])c(F)c([H])c1[H]


 25 27  0  0  0  0  0  0  0  0999 V2000
  -17.6158   12.4885  -21.3391 C   0  0  0  0  0  0  0  0  0  0  0  0
  -16.9183   11.3310  -21.0593 C   0  0  0  0  0  0  0  0  0  0  0  0
  -17.1475   10.6116  -19.8999 C   0  0  0  0  0  0  0  0  0  0  0  0
  -18.0886   11.0323  -18.9796 C   0  0  0  0  0  0  0  0  0  0  0  0
  -18.7730   12.1684  -19.2547 C   0  0  0  0  0  0  0  0  0  0  0  0
  -18.5492   12.9065  -20.4272 C   0  0  0  0  0  0  0  0  0  0  0  0
  -16.8635   14.7410  -24.8464 N   0  0  0  0  0  0  0  0  0  0  0  0
  -16.0230   13.6321  -24.5580 C   0  0  0  0  0  0  0  0  0  0  0  0
  -16.4833   12.7098  -23.4913 C   0  0  0  0  0  0  0  0  0  0  0  0
  -17.3906   13.2432  -22.5208 N   0  0  0  0  0  0  0  0  0  0  0  0
  -18.0621   14.4854  -22.7107 C   0  0  0  0  0  0  0  0  0  0  0  0
  -18.1279   14.7563  -24.1974 C   0  0  0  0  0  0  0  0  0  0  0  0
  -14.7144   16.0985  -26.0715 C   0  0  0  0  0  0  0  0  0  0  0  0
  -16.0242   16.2135  -24.8460 S   0  0  0  0  0  0  0  0  0  0  0  0
  -16.8752   17.3646  -25.2272 O   0  0  0  0  0  0  0  0  0  0  0  0
  -15.3545   16.4103  -23.5114 O   0  0  0  0  0  0  0  0  0  0  0  0
  -18.2851   10.2442  -17.7908 C   0  0  0  0  0  0  0  0  0  0  0  0
  -19.3967   10.2403  -17.0914 C   0  0  0  0  0  0  0  0  0  0  0  0
  -19.6096    9.4396  -15.8753 C   0  0  0  0  0  0  0  0  0  0  0  0
  -19.7826    8.0821  -15.8807 C   0  0  0  0  0  0  0  0  0  0  0  0
  -19.9816    7.3640  -14.7019 C   0  0  0  0  0  0  0  0  0  0  0  0
  -20.0034    8.0436  -13.5051 C   0  0  0  0  0  0  0  0  0  0  0  0
  -20.1964    7.3595  -12.3442 F   0  0  0  0  0  0  0  0  0  0  0  0
  -19.8312    9.4115  -13.4773 C   0  0  0  0  0  0  0  0  0  0  0  0
  -19.6353   10.0974  -14.6673 C   0  0  0  0  0  0  0  0  0  0  0  0
 13 14  1  0  0  0
 14 15  2  0  0  0
 14 16  2  0  0  0
 14  7  1  0  0  0
  7  8  1  0  0  0
  8  9  1  0  0  0
  9 10  1  0  0  0
 10 11  1  0  0  0
 11 12  1  0  0  0
 10  1  1  0  0  0
  1  2  2  0  0  0
  2  3  1  0  0  0
  3  4  2  0  0  0
  4 17  1  0  0  0
 17 18  2  0  0  0
 18 19  1  0  0  0
 19 20  2  0  0  0
 20 21  1  0  0  0
 21 22  2  0  0  0
 22 23  1  0  0  0
 22 24  1  0  0  0
 24 25  2  0  0  0
  4  5  1  0  0  0
  5  6  2  0  0  0
 12  7  1  0  0  0
  6  1  1  0  0  0
 25 19  1  0  0  0
M  END
> <minimizedAffinity>
-8.30051

> <CNNscore>
0.3145216703

> <CNNaffinity>
5.7891550064

> <CNN_VS>
1.8208147287

> <CNNaffinity_variance>
0.0610291474

$$$$
[H]/C(=C(/[H])c1c([H])c([H])c(N2C([H])([H])C([H])([H])N(S(=O)(=O)C([H])([H])[H])C([H])([H])C2([H])[H])c([H])c1[H])c1c([H])c([H])c(F)c([H])c1[H]


 25 27  0  0  0  0  0  0  0  0999 V2000
  -17.6458   12.2869  -20.2849 C   0  0  0  0  0  0  0  0  0  0  0  0
  -18.7428   12.7606  -19.5944 C   0  0  0  0  0  0  0  0  0  0  0  0
  -19.2335   12.1042  -18.4797 C   0  0  0  0  0  0  0  0  0  0  0  0
  -18.6365   10.9459  -18.0198 C   0  0  0  0  0  0  0  0  0  0  0  0
  -17.5599   10.4814  -18.6978 C   0  0  0  0  0  0  0  0  0  0  0  0
  -17.0531   11.1384  -19.8297 C   0  0  0  0  0  0  0  0  0  0  0  0
  -16.1834   14.2825  -23.7230 N   0  0  0  0  0  0  0  0  0  0  0  0
  -16.9168   15.0314  -22.7634 C   0  0  0  0  0  0  0  0  0  0  0  0
  -17.1638   14.3747  -21.4565 C   0  0  0  0  0  0  0  0  0  0  0  0
  -17.1311   12.9436  -21.4341 N   0  0  0  0  0  0  0  0  0  0  0  0
  -16.6012   12.1789  -22.5132 C   0  0  0  0  0  0  0  0  0  0  0  0
  -15.6280   13.0549  -23.2705 C   0  0  0  0  0  0  0  0  0  0  0  0
  -16.2439   15.5177  -26.2593 C   0  0  0  0  0  0  0  0  0  0  0  0
  -16.9527   14.2243  -25.2320 S   0  0  0  0  0  0  0  0  0  0  0  0
  -16.7394   12.9413  -25.9411 O   0  0  0  0  0  0  0  0  0  0  0  0
  -18.4130   14.5533  -25.0650 O   0  0  0  0  0  0  0  0  0  0  0  0
  -19.1900   10.3052  -16.8552 C   0  0  0  0  0  0  0  0  0  0  0  0
  -19.1092    9.0152  -16.6224 C   0  0  0  0  0  0  0  0  0  0  0  0
  -19.6704    8.3489  -15.4364 C   0  0  0  0  0  0  0  0  0  0  0  0
  -20.6374    7.3824  -15.4950 C   0  0  0  0  0  0  0  0  0  0  0  0
  -21.1401    6.7778  -14.3432 C   0  0  0  0  0  0  0  0  0  0  0  0
  -20.6468    7.1673  -13.1186 C   0  0  0  0  0  0  0  0  0  0  0  0
  -21.1254    6.5884  -11.9834 F   0  0  0  0  0  0  0  0  0  0  0  0
  -19.6722    8.1395  -13.0371 C   0  0  0  0  0  0  0  0  0  0  0  0
  -19.1926    8.7220  -14.2014 C   0  0  0  0  0  0  0  0  0  0  0  0
 13 14  1  0  0  0
 14 15  2  0  0  0
 14 16  2  0  0  0
 14  7  1  0  0  0
  7  8  1  0  0  0
  8  9  1  0  0  0
  9 10  1  0  0  0
 10 11  1  0  0  0
 11 12  1  0  0  0
 10  1  1  0  0  0
  1  2  2  0  0  0
  2  3  1  0  0  0
  3  4  2  0  0  0
  4 17  1  0  0  0
 17 18  2  0  0  0
 18 19  1  0  0  0
 19 20  2  0  0  0
 20 21  1  0  0  0
 21 22  2  0  0  0
 22 23  1  0  0  0
 22 24  1  0  0  0
 24 25  2  0  0  0
  4  5  1  0  0  0
  5  6  2  0  0  0
 12  7  1  0  0  0
  6  1  1  0  0  0
 25 19  1  0  0  0
M  END
> <minimizedAffinity>
-7.82252

> <CNNscore>
0.2690630853

> <CNNaffinity>
5.6262230873

> <CNN_VS>
1.5138089657

> <CNNaffinity_variance>
0.0820068866

$$$$
[H]/C(=C(/[H])c1c([H])c([H])c(N2C([H])([H])C([H])([H])N(S(=O)(=O)C([H])([H])[H])C([H])([H])C2([H])[H])c([H])c1[H])c1c([H])c([H])c(F)c([H])c1[H]


 25 27  0  0  0  0  0  0  0  0999 V2000
  -17.3314   12.2985  -20.5278 C   0  0  0  0  0  0  0  0  0  0  0  0
  -16.8132   11.0198  -20.4965 C   0  0  0  0  0  0  0  0  0  0  0  0
  -17.1916   10.1104  -19.5248 C   0  0  0  0  0  0  0  0  0  0  0  0
  -18.1065   10.4564  -18.5488 C   0  0  0  0  0  0  0  0  0  0  0  0
  -18.6149   11.7115  -18.5799 C   0  0  0  0  0  0  0  0  0  0  0  0
  -18.2387   12.6425  -19.5604 C   0  0  0  0  0  0  0  0  0  0  0  0
  -16.2705   15.1649  -23.4602 N   0  0  0  0  0  0  0  0  0  0  0  0
  -16.8847   15.6157  -22.2607 C   0  0  0  0  0  0  0  0  0  0  0  0
  -16.9809   14.6327  -21.1540 C   0  0  0  0  0  0  0  0  0  0  0  0
  -16.9511   13.2473  -21.5137 N   0  0  0  0  0  0  0  0  0  0  0  0
  -16.5529   12.8072  -22.8089 C   0  0  0  0  0  0  0  0  0  0  0  0
  -15.6709   13.8771  -23.4132 C   0  0  0  0  0  0  0  0  0  0  0  0
  -16.4869   14.5863  -26.2135 C   0  0  0  0  0  0  0  0  0  0  0  0
  -17.2099   15.4839  -24.8343 S   0  0  0  0  0  0  0  0  0  0  0  0
  -18.6095   15.0178  -24.6992 O   0  0  0  0  0  0  0  0  0  0  0  0
  -17.1216   16.9484  -25.1749 O   0  0  0  0  0  0  0  0  0  0  0  0
  -18.4632    9.4697  -17.5628 C   0  0  0  0  0  0  0  0  0  0  0  0
  -19.2329    9.7154  -16.5275 C   0  0  0  0  0  0  0  0  0  0  0  0
  -19.6046    8.7158  -15.5134 C   0  0  0  0  0  0  0  0  0  0  0  0
  -20.3764    7.6171  -15.7775 C   0  0  0  0  0  0  0  0  0  0  0  0
  -20.7036    6.6953  -14.7835 C   0  0  0  0  0  0  0  0  0  0  0  0
  -20.2352    6.9012  -13.5056 C   0  0  0  0  0  0  0  0  0  0  0  0
  -20.5444    6.0121  -12.5224 F   0  0  0  0  0  0  0  0  0  0  0  0
  -19.4560    8.0020  -13.2180 C   0  0  0  0  0  0  0  0  0  0  0  0
  -19.1478    8.9009  -14.2289 C   0  0  0  0  0  0  0  0  0  0  0  0
 13 14  1  0  0  0
 14 15  2  0  0  0
 14 16  2  0  0  0
 14  7  1  0  0  0
  7  8  1  0  0  0
  8  9  1  0  0  0
  9 10  1  0  0  0
 10 11  1  0  0  0
 11 12  1  0  0  0
 10  1  1  0  0  0
  1  2  2  0  0  0
  2  3  1  0  0  0
  3  4  2  0  0  0
  4 17  1  0  0  0
 17 18  2  0  0  0
 18 19  1  0  0  0
 19 20  2  0  0  0
 20 21  1  0  0  0
 21 22  2  0  0  0
 22 23  1  0  0  0
 22 24  1  0  0  0
 24 25  2  0  0  0
  4  5  1  0  0  0
  5  6  2  0  0  0
 12  7  1  0  0  0
  6  1  1  0  0  0
 25 19  1  0  0  0
M  END
> <minimizedAffinity>
-7.84690

> <CNNscore>
0.2510825396

> <CNNaffinity>
5.5286021233

> <CNN_VS>
1.3881354332

> <CNNaffinity_variance>
0.1819294393

$$$$
[H]O[C@@]1([H])C([H])([H])C([H])([H])[C@@]2(C([H])([H])[H])C([H])(C([H])([H])C([H])([H])C3([H])C2([H])C([H])([H])C([H])([H])[C@]2(C([H])([H])[H])[C@@]([H])(O[H])C([H])([H])C([H])([H])[C@@]32[H])C1([H])[H]


 23 26  0  0  0  0  0  0  0  0999 V2000
  -17.9564   10.4109  -21.4477 C   0  0  0  0  0  0  0  0  0  0  0  0
  -16.9755   11.2652  -20.7243 C   0  0  0  0  0  0  0  0  0  0  0  0
  -17.1044   11.2649  -19.2494 C   0  0  0  0  0  0  0  0  0  0  0  0
  -17.5884   12.6169  -18.7261 C   0  0  0  0  0  0  0  0  0  0  0  0
  -18.7602   13.1132  -19.5870 C   0  0  0  0  0  0  0  0  0  0  0  0
  -18.2926   13.3910  -20.9789 C   0  0  0  0  0  0  0  0  0  0  0  0
  -18.1425   14.8458  -21.3021 C   0  0  0  0  0  0  0  0  0  0  0  0
  -17.9197   15.7117  -20.1041 C   0  0  0  0  0  0  0  0  0  0  0  0
  -19.1419   15.5775  -19.2115 C   0  0  0  0  0  0  0  0  0  0  0  0
  -18.8402   16.3962  -17.9787 C   0  0  0  0  0  0  0  0  0  0  0  0
  -19.9171   16.3326  -16.9417 C   0  0  0  0  0  0  0  0  0  0  0  0
  -20.8966   17.2976  -17.1738 O   0  0  0  0  0  0  0  0  0  0  0  0
  -20.4956   14.9532  -16.7562 C   0  0  0  0  0  0  0  0  0  0  0  0
  -19.5085   13.9811  -17.4160 C   0  0  0  0  0  0  0  0  0  0  0  0
  -19.5377   14.1832  -18.9370 C   0  0  0  0  0  0  0  0  0  0  0  0
  -21.0118   14.0033  -19.3279 C   0  0  0  0  0  0  0  0  0  0  0  0
  -16.9832   12.7152  -21.1977 C   0  0  0  0  0  0  0  0  0  0  0  0
  -16.5850   12.5457  -22.6224 C   0  0  0  0  0  0  0  0  0  0  0  0
  -15.3525   11.6453  -22.4748 C   0  0  0  0  0  0  0  0  0  0  0  0
  -15.5774   10.8532  -21.2031 C   0  0  0  0  0  0  0  0  0  0  0  0
  -15.5200    9.4972  -21.4880 O   0  0  0  0  0  0  0  0  0  0  0  0
  -20.4304   18.1505  -17.2928 H   0  0  0  0  0  0  0  0  0  0  0  0
  -15.1255    9.3383  -22.3893 H   0  0  0  0  0  0  0  0  0  0  0  0
  2  1  1  0  0  0
  2  3  1  0  0  0
  3  4  1  0  0  0
  4  5  1  0  0  0
  5  6  1  0  0  0
  6  7  1  0  0  0
  7  8  1  0  0  0
  8  9  1  0  0  0
  9 10  1  0  0  0
 10 11  1  0  0  0
 11 12  1  0  0  0
 11 13  1  0  0  0
 13 14  1  0  0  0
 14 15  1  0  0  0
 15 16  1  0  0  0
  6 17  1  0  0  0
 17 18  1  0  0  0
 18 19  1  0  0  0
 19 20  1  0  0  0
 20 21  1  0  0  0
 17  2  1  0  0  0
 20  2  1  0  0  0
 15  5  1  0  0  0
 15  9  1  0  0  0
 12 22  1  0  0  0
 21 23  1  0  0  0
M  END
> <minimizedAffinity>
-7.02899

> <CNNscore>
0.5161229968

> <CNNaffinity>
5.9377660751

> <CNN_VS>
3.0646176338

> <CNNaffinity_variance>
0.2824768424

$$$$
[H]O[C@@]1([H])C([H])([H])C([H])([H])[C@@]2(C([H])([H])[H])C([H])(C([H])([H])C([H])([H])C3([H])C2([H])C([H])([H])C([H])([H])[C@]2(C([H])([H])[H])[C@@]([H])(O[H])C([H])([H])C([H])([H])[C@@]32[H])C1([H])[H]


 23 26  0  0  0  0  0  0  0  0999 V2000
  -19.5628   12.7002  -20.1535 C   0  0  0  0  0  0  0  0  0  0  0  0
  -18.1725   13.1601  -19.8876 C   0  0  0  0  0  0  0  0  0  0  0  0
  -17.9628   14.6229  -19.9783 C   0  0  0  0  0  0  0  0  0  0  0  0
  -17.0942   14.9939  -21.1798 C   0  0  0  0  0  0  0  0  0  0  0  0
  -17.5711   14.2207  -22.4189 C   0  0  0  0  0  0  0  0  0  0  0  0
  -17.3469   12.7558  -22.2271 C   0  0  0  0  0  0  0  0  0  0  0  0
  -16.1854   12.2023  -22.9942 C   0  0  0  0  0  0  0  0  0  0  0  0
  -15.1447   13.2201  -23.3338 C   0  0  0  0  0  0  0  0  0  0  0  0
  -15.8027   14.2676  -24.2161 C   0  0  0  0  0  0  0  0  0  0  0  0
  -14.7451   15.3168  -24.4641 C   0  0  0  0  0  0  0  0  0  0  0  0
  -15.2335   16.4773  -25.2727 C   0  0  0  0  0  0  0  0  0  0  0  0
  -15.1084   16.2268  -26.6388 O   0  0  0  0  0  0  0  0  0  0  0  0
  -16.6176   16.9375  -24.8928 C   0  0  0  0  0  0  0  0  0  0  0  0
  -16.9172   16.3132  -23.5234 C   0  0  0  0  0  0  0  0  0  0  0  0
  -17.0724   14.7946  -23.6813 C   0  0  0  0  0  0  0  0  0  0  0  0
  -18.1654   14.6212  -24.7460 C   0  0  0  0  0  0  0  0  0  0  0  0
  -17.1379   12.4797  -20.7783 C   0  0  0  0  0  0  0  0  0  0  0  0
  -17.3102   11.0581  -20.3702 C   0  0  0  0  0  0  0  0  0  0  0  0
  -17.2509   11.1846  -18.8431 C   0  0  0  0  0  0  0  0  0  0  0  0
  -17.7556   12.5785  -18.5306 C   0  0  0  0  0  0  0  0  0  0  0  0
  -18.8346   12.4949  -17.6635 O   0  0  0  0  0  0  0  0  0  0  0  0
  -14.1888   15.9245  -26.7875 H   0  0  0  0  0  0  0  0  0  0  0  0
  -18.8992   11.5856  -17.2607 H   0  0  0  0  0  0  0  0  0  0  0  0
  2  1  1  0  0  0
  2  3  1  0  0  0
  3  4  1  0  0  0
  4  5  1  0  0  0
  5  6  1  0  0  0
  6  7  1  0  0  0
  7  8  1  0  0  0
  8  9  1  0  0  0
  9 10  1  0  0  0
 10 11  1  0  0  0
 11 12  1  0  0  0
 11 13  1  0  0  0
 13 14  1  0  0  0
 14 15  1  0  0  0
 15 16  1  0  0  0
  6 17  1  0  0  0
 17 18  1  0  0  0
 18 19  1  0  0  0
 19 20  1  0  0  0
 20 21  1  0  0  0
 17  2  1  0  0  0
 20  2  1  0  0  0
 15  5  1  0  0  0
 15  9  1  0  0  0
 12 22  1  0  0  0
 21 23  1  0  0  0
M  END
> <minimizedAffinity>
-9.86943

> <CNNscore>
0.5060468316

> <CNNaffinity>
6.1675510406

> <CNN_VS>
3.1210696697

> <CNNaffinity_variance>
0.0419868715

$$$$
[H]O[C@@]1([H])C([H])([H])C([H])([H])[C@@]2(C([H])([H])[H])C([H])(C([H])([H])C([H])([H])C3([H])C2([H])C([H])([H])C([H])([H])[C@]2(C([H])([H])[H])[C@@]([H])(O[H])C([H])([H])C([H])([H])[C@@]32[H])C1([H])[H]


 23 26  0  0  0  0  0  0  0  0999 V2000
  -23.5278   17.4526  -22.6486 C   0  0  0  0  0  0  0  0  0  0  0  0
  -22.5889   18.3793  -21.9596 C   0  0  0  0  0  0  0  0  0  0  0  0
  -21.1517   18.1155  -22.1984 C   0  0  0  0  0  0  0  0  0  0  0  0
  -20.4541   17.6119  -20.9353 C   0  0  0  0  0  0  0  0  0  0  0  0
  -21.3188   16.5339  -20.2638 C   0  0  0  0  0  0  0  0  0  0  0  0
  -22.5984   17.1326  -19.7768 C   0  0  0  0  0  0  0  0  0  0  0  0
  -22.6595   17.3400  -18.2946 C   0  0  0  0  0  0  0  0  0  0  0  0
  -21.3188   17.4686  -17.6462 C   0  0  0  0  0  0  0  0  0  0  0  0
  -20.5713   16.1672  -17.8834 C   0  0  0  0  0  0  0  0  0  0  0  0
  -19.1974   16.3703  -17.2900 C   0  0  0  0  0  0  0  0  0  0  0  0
  -18.2837   15.2017  -17.4864 C   0  0  0  0  0  0  0  0  0  0  0  0
  -18.4359   14.2665  -16.4633 O   0  0  0  0  0  0  0  0  0  0  0  0
  -18.3827   14.5819  -18.8568 C   0  0  0  0  0  0  0  0  0  0  0  0
  -19.1071   15.6064  -19.7403 C   0  0  0  0  0  0  0  0  0  0  0  0
  -20.5695   15.7210  -19.2894 C   0  0  0  0  0  0  0  0  0  0  0  0
  -21.1122   14.2857  -19.3517 C   0  0  0  0  0  0  0  0  0  0  0  0
  -22.8120   18.4432  -20.4520 C   0  0  0  0  0  0  0  0  0  0  0  0
  -24.2047   18.9673  -20.3980 C   0  0  0  0  0  0  0  0  0  0  0  0
  -24.1027   20.1633  -21.3522 C   0  0  0  0  0  0  0  0  0  0  0  0
  -23.0059   19.8072  -22.3349 C   0  0  0  0  0  0  0  0  0  0  0  0
  -23.5074   19.8642  -23.6266 O   0  0  0  0  0  0  0  0  0  0  0  0
  -18.3694   14.7582  -15.6190 H   0  0  0  0  0  0  0  0  0  0  0  0
  -24.3846   20.3366  -23.6483 H   0  0  0  0  0  0  0  0  0  0  0  0
  2  1  1  0  0  0
  2  3  1  0  0  0
  3  4  1  0  0  0
  4  5  1  0  0  0
  5  6  1  0  0  0
  6  7  1  0  0  0
  7  8  1  0  0  0
  8  9  1  0  0  0
  9 10  1  0  0  0
 10 11  1  0  0  0
 11 12  1  0  0  0
 11 13  1  0  0  0
 13 14  1  0  0  0
 14 15  1  0  0  0
 15 16  1  0  0  0
  6 17  1  0  0  0
 17 18  1  0  0  0
 18 19  1  0  0  0
 19 20  1  0  0  0
 20 21  1  0  0  0
 17  2  1  0  0  0
 20  2  1  0  0  0
 15  5  1  0  0  0
 15  9  1  0  0  0
 12 22  1  0  0  0
 21 23  1  0  0  0
M  END
> <minimizedAffinity>
-5.98793

> <CNNscore>
0.4978725016

> <CNNaffinity>
5.2228250504

> <CNN_VS>
2.6003010273

> <CNNaffinity_variance>
0.1569939405

$$$$
[H]O[C@@]1([H])C([H])([H])C([H])([H])[C@@]2(C([H])([H])[H])C([H])(C([H])([H])C([H])([H])C3([H])C2([H])C([H])([H])C([H])([H])[C@]2(C([H])([H])[H])[C@@]([H])(O[H])C([H])([H])C([H])([H])[C@@]32[H])C1([H])[H]


 23 26  0  0  0  0  0  0  0  0999 V2000
  -16.1537   11.7417  -18.5800 C   0  0  0  0  0  0  0  0  0  0  0  0
  -17.3413   11.4954  -19.4427 C   0  0  0  0  0  0  0  0  0  0  0  0
  -17.3453   12.2198  -20.7339 C   0  0  0  0  0  0  0  0  0  0  0  0
  -18.4310   13.2947  -20.7733 C   0  0  0  0  0  0  0  0  0  0  0  0
  -18.4150   14.0918  -19.4599 C   0  0  0  0  0  0  0  0  0  0  0  0
  -18.7989   13.2072  -18.3183 C   0  0  0  0  0  0  0  0  0  0  0  0
  -20.1895   13.4263  -17.8067 C   0  0  0  0  0  0  0  0  0  0  0  0
  -21.1177   14.0237  -18.8147 C   0  0  0  0  0  0  0  0  0  0  0  0
  -20.5627   15.3864  -19.1936 C   0  0  0  0  0  0  0  0  0  0  0  0
  -21.4784   15.9159  -20.2717 C   0  0  0  0  0  0  0  0  0  0  0  0
  -21.0489   17.2391  -20.8228 C   0  0  0  0  0  0  0  0  0  0  0  0
  -21.5617   18.2906  -20.0639 O   0  0  0  0  0  0  0  0  0  0  0  0
  -19.5608   17.3501  -21.0351 C   0  0  0  0  0  0  0  0  0  0  0  0
  -19.0121   15.9178  -20.9881 C   0  0  0  0  0  0  0  0  0  0  0  0
  -19.1332   15.3749  -19.5578 C   0  0  0  0  0  0  0  0  0  0  0  0
  -18.3942   16.4003  -18.6857 C   0  0  0  0  0  0  0  0  0  0  0  0
  -18.6622   11.7840  -18.7365 C   0  0  0  0  0  0  0  0  0  0  0  0
  -18.6051   10.7965  -17.6235 C   0  0  0  0  0  0  0  0  0  0  0  0
  -18.2448    9.5170  -18.3881 C   0  0  0  0  0  0  0  0  0  0  0  0
  -17.4728    9.9760  -19.6082 C   0  0  0  0  0  0  0  0  0  0  0  0
  -16.2304    9.3601  -19.6265 O   0  0  0  0  0  0  0  0  0  0  0  0
  -22.5228   18.1283  -19.9694 H   0  0  0  0  0  0  0  0  0  0  0  0
  -16.2005    8.5977  -18.9854 H   0  0  0  0  0  0  0  0  0  0  0  0
  2  1  1  0  0  0
  2  3  1  0  0  0
  3  4  1  0  0  0
  4  5  1  0  0  0
  5  6  1  0  0  0
  6  7  1  0  0  0
  7  8  1  0  0  0
  8  9  1  0  0  0
  9 10  1  0  0  0
 10 11  1  0  0  0
 11 12  1  0  0  0
 11 13  1  0  0  0
 13 14  1  0  0  0
 14 15  1  0  0  0
 15 16  1  0  0  0
  6 17  1  0  0  0
 17 18  1  0  0  0
 18 19  1  0  0  0
 19 20  1  0  0  0
 20 21  1  0  0  0
 17  2  1  0  0  0
 20  2  1  0  0  0
 15  5  1  0  0  0
 15  9  1  0  0  0
 12 22  1  0  0  0
 21 23  1  0  0  0
M  END
> <minimizedAffinity>
-7.15464

> <CNNscore>
0.3687604368

> <CNNaffinity>
5.6374158859

> <CNN_VS>
2.0788559914

> <CNNaffinity_variance>
0.2094492614

$$$$
[H]O[C@@]1([H])C([H])([H])C([H])([H])[C@@]2(C([H])([H])[H])C([H])(C([H])([H])C([H])([H])C3([H])C2([H])C([H])([H])C([H])([H])[C@]2(C([H])([H])[H])[C@@]([H])(O[H])C([H])([H])C([H])([H])[C@@]32[H])C1([H])[H]


 23 26  0  0  0  0  0  0  0  0999 V2000
  -17.9034   14.3665  -24.3548 C   0  0  0  0  0  0  0  0  0  0  0  0
  -16.9138   14.0920  -23.2775 C   0  0  0  0  0  0  0  0  0  0  0  0
  -17.1702   12.8710  -22.4803 C   0  0  0  0  0  0  0  0  0  0  0  0
  -17.5697   13.2093  -21.0445 C   0  0  0  0  0  0  0  0  0  0  0  0
  -18.6107   14.3393  -21.0519 C   0  0  0  0  0  0  0  0  0  0  0  0
  -17.9999   15.5961  -21.5814 C   0  0  0  0  0  0  0  0  0  0  0  0
  -17.6872   16.6206  -20.5343 C   0  0  0  0  0  0  0  0  0  0  0  0
  -17.4898   16.0480  -19.1677 C   0  0  0  0  0  0  0  0  0  0  0  0
  -18.7923   15.3792  -18.7616 C   0  0  0  0  0  0  0  0  0  0  0  0
  -18.5241   14.7425  -17.4186 C   0  0  0  0  0  0  0  0  0  0  0  0
  -19.6884   13.9722  -16.8800 C   0  0  0  0  0  0  0  0  0  0  0  0
  -20.5498   14.7998  -16.1606 O   0  0  0  0  0  0  0  0  0  0  0  0
  -20.4069   13.1561  -17.9239 C   0  0  0  0  0  0  0  0  0  0  0  0
  -19.4611   13.0718  -19.1292 C   0  0  0  0  0  0  0  0  0  0  0  0
  -19.3387   14.4581  -19.7760 C   0  0  0  0  0  0  0  0  0  0  0  0
  -20.7835   14.8724  -20.0907 C   0  0  0  0  0  0  0  0  0  0  0  0
  -16.7451   15.2593  -22.3102 C   0  0  0  0  0  0  0  0  0  0  0  0
  -16.2419   16.3150  -23.2320 C   0  0  0  0  0  0  0  0  0  0  0  0
  -15.1162   15.5612  -23.9505 C   0  0  0  0  0  0  0  0  0  0  0  0
  -15.5239   14.1022  -23.9267 C   0  0  0  0  0  0  0  0  0  0  0  0
  -15.5685   13.6145  -25.2242 O   0  0  0  0  0  0  0  0  0  0  0  0
  -19.9975   15.2946  -15.5209 H   0  0  0  0  0  0  0  0  0  0  0  0
  -15.1136   14.2373  -25.8554 H   0  0  0  0  0  0  0  0  0  0  0  0
  2  1  1  0  0  0
  2  3  1  0  0  0
  3  4  1  0  0  0
  4  5  1  0  0  0
  5  6  1  0  0  0
  6  7  1  0  0  0
  7  8  1  0  0  0
  8  9  1  0  0  0
  9 10  1  0  0  0
 10 11  1  0  0  0
 11 12  1  0  0  0
 11 13  1  0  0  0
 13 14  1  0  0  0
 14 15  1  0  0  0
 15 16  1  0  0  0
  6 17  1  0  0  0
 17 18  1  0  0  0
 18 19  1  0  0  0
 19 20  1  0  0  0
 20 21  1  0  0  0
 17  2  1  0  0  0
 20  2  1  0  0  0
 15  5  1  0  0  0
 15  9  1  0  0  0
 12 22  1  0  0  0
 21 23  1  0  0  0
M  END
> <minimizedAffinity>
-8.64960

> <CNNscore>
0.3640704751

> <CNNaffinity>
5.8256640434

> <CNN_VS>
2.1209523678

> <CNNaffinity_variance>
0.1423970610

$$$$
[H]O[C@@]1([H])C([H])([H])C([H])([H])[C@@]2(C([H])([H])[H])C([H])(C([H])([H])C([H])([H])C3([H])C2([H])C([H])([H])C([H])([H])[C@]2(C([H])([H])[H])[C@@]([H])(O[H])C([H])([H])C([H])([H])[C@@]32[H])C1([H])[H]


 23 26  0  0  0  0  0  0  0  0999 V2000
  -16.7832   14.3004  -25.8456 C   0  0  0  0  0  0  0  0  0  0  0  0
  -16.0318   14.7790  -24.6532 C   0  0  0  0  0  0  0  0  0  0  0  0
  -15.0323   13.8295  -24.1134 C   0  0  0  0  0  0  0  0  0  0  0  0
  -15.4496   13.2896  -22.7459 C   0  0  0  0  0  0  0  0  0  0  0  0
  -16.9320   12.8873  -22.7810 C   0  0  0  0  0  0  0  0  0  0  0  0
  -17.7866   14.0955  -22.9882 C   0  0  0  0  0  0  0  0  0  0  0  0
  -18.4998   14.5668  -21.7583 C   0  0  0  0  0  0  0  0  0  0  0  0
  -17.8377   14.1593  -20.4815 C   0  0  0  0  0  0  0  0  0  0  0  0
  -17.8294   12.6406  -20.4372 C   0  0  0  0  0  0  0  0  0  0  0  0
  -17.0789   12.2719  -19.1796 C   0  0  0  0  0  0  0  0  0  0  0  0
  -16.9106   10.7965  -18.9957 C   0  0  0  0  0  0  0  0  0  0  0  0
  -18.0082   10.2431  -18.3373 O   0  0  0  0  0  0  0  0  0  0  0  0
  -16.5695   10.0648  -20.2686 C   0  0  0  0  0  0  0  0  0  0  0  0
  -16.1135   11.1343  -21.2699 C   0  0  0  0  0  0  0  0  0  0  0  0
  -17.3143   12.0046  -21.6645 C   0  0  0  0  0  0  0  0  0  0  0  0
  -18.3644   11.0113  -22.1829 C   0  0  0  0  0  0  0  0  0  0  0  0
  -16.9419   15.2076  -23.5066 C   0  0  0  0  0  0  0  0  0  0  0  0
  -17.6866   16.3278  -24.1451 C   0  0  0  0  0  0  0  0  0  0  0  0
  -16.5320   17.1423  -24.7411 C   0  0  0  0  0  0  0  0  0  0  0  0
  -15.4280   16.1418  -25.0162 C   0  0  0  0  0  0  0  0  0  0  0  0
  -15.0776   16.1985  -26.3568 O   0  0  0  0  0  0  0  0  0  0  0  0
  -18.1607   10.7861  -17.5367 H   0  0  0  0  0  0  0  0  0  0  0  0
  -15.4480   17.0170  -26.7882 H   0  0  0  0  0  0  0  0  0  0  0  0
  2  1  1  0  0  0
  2  3  1  0  0  0
  3  4  1  0  0  0
  4  5  1  0  0  0
  5  6  1  0  0  0
  6  7  1  0  0  0
  7  8  1  0  0  0
  8  9  1  0  0  0
  9 10  1  0  0  0
 10 11  1  0  0  0
 11 12  1  0  0  0
 11 13  1  0  0  0
 13 14  1  0  0  0
 14 15  1  0  0  0
 15 16  1  0  0  0
  6 17  1  0  0  0
 17 18  1  0  0  0
 18 19  1  0  0  0
 19 20  1  0  0  0
 20 21  1  0  0  0
 17  2  1  0  0  0
 20  2  1  0  0  0
 15  5  1  0  0  0
 15  9  1  0  0  0
 12 22  1  0  0  0
 21 23  1  0  0  0
M  END
> <minimizedAffinity>
-8.52965

> <CNNscore>
0.3039954603

> <CNNaffinity>
6.1155700684

> <CNN_VS>
1.8591055870

> <CNNaffinity_variance>
0.1750525087

$$$$
[H]O[C@@]1([H])C([H])([H])C([H])([H])[C@@]2(C([H])([H])[H])C([H])(C([H])([H])C([H])([H])C3([H])C2([H])C([H])([H])C([H])([H])[C@]2(C([H])([H])[H])[C@@]([H])(O[H])C([H])([H])C([H])([H])[C@@]32[H])C1([H])[H]


 23 26  0  0  0  0  0  0  0  0999 V2000
  -15.3758   11.6229  -20.7187 C   0  0  0  0  0  0  0  0  0  0  0  0
  -16.8350   11.5561  -21.0043 C   0  0  0  0  0  0  0  0  0  0  0  0
  -17.2264   11.9261  -22.3834 C   0  0  0  0  0  0  0  0  0  0  0  0
  -18.0061   13.2402  -22.4143 C   0  0  0  0  0  0  0  0  0  0  0  0
  -17.3038   14.2772  -21.5242 C   0  0  0  0  0  0  0  0  0  0  0  0
  -17.3504   13.8423  -20.0953 C   0  0  0  0  0  0  0  0  0  0  0  0
  -18.3414   14.5868  -19.2544 C   0  0  0  0  0  0  0  0  0  0  0  0
  -19.4669   15.1866  -20.0343 C   0  0  0  0  0  0  0  0  0  0  0  0
  -18.8650   16.1884  -21.0053 C   0  0  0  0  0  0  0  0  0  0  0  0
  -20.0208   16.7053  -21.8288 C   0  0  0  0  0  0  0  0  0  0  0  0
  -19.6088   17.6687  -22.8970 C   0  0  0  0  0  0  0  0  0  0  0  0
  -19.5561   18.9726  -22.4054 O   0  0  0  0  0  0  0  0  0  0  0  0
  -18.3455   17.2692  -23.6154 C   0  0  0  0  0  0  0  0  0  0  0  0
  -18.1106   15.7901  -23.2810 C   0  0  0  0  0  0  0  0  0  0  0  0
  -17.7394   15.6581  -21.7978 C   0  0  0  0  0  0  0  0  0  0  0  0
  -16.5278   16.5834  -21.6133 C   0  0  0  0  0  0  0  0  0  0  0  0
  -17.6713   12.3888  -20.0378 C   0  0  0  0  0  0  0  0  0  0  0  0
  -17.3554   11.7181  -18.7464 C   0  0  0  0  0  0  0  0  0  0  0  0
  -17.5903   10.2487  -19.1167 C   0  0  0  0  0  0  0  0  0  0  0  0
  -17.3107   10.1540  -20.6027 C   0  0  0  0  0  0  0  0  0  0  0  0
  -16.3267    9.2029  -20.8272 O   0  0  0  0  0  0  0  0  0  0  0  0
  -20.4067   19.1370  -21.9489 H   0  0  0  0  0  0  0  0  0  0  0  0
  -16.1845    8.6386  -20.0181 H   0  0  0  0  0  0  0  0  0  0  0  0
  2  1  1  0  0  0
  2  3  1  0  0  0
  3  4  1  0  0  0
  4  5  1  0  0  0
  5  6  1  0  0  0
  6  7  1  0  0  0
  7  8  1  0  0  0
  8  9  1  0  0  0
  9 10  1  0  0  0
 10 11  1  0  0  0
 11 12  1  0  0  0
 11 13  1  0  0  0
 13 14  1  0  0  0
 14 15  1  0  0  0
 15 16  1  0  0  0
  6 17  1  0  0  0
 17 18  1  0  0  0
 18 19  1  0  0  0
 19 20  1  0  0  0
 20 21  1  0  0  0
 17  2  1  0  0  0
 20  2  1  0  0  0
 15  5  1  0  0  0
 15  9  1  0  0  0
 12 22  1  0  0  0
 21 23  1  0  0  0
M  END
> <minimizedAffinity>
-6.17023

> <CNNscore>
0.2991670668

> <CNNaffinity>
5.7619276047

> <CNN_VS>
1.7237789631

> <CNNaffinity_variance>
0.2572433949

$$$$
[H]O[C@@]1([H])C([H])([H])C([H])([H])[C@@]2(C([H])([H])[H])C([H])(C([H])([H])C([H])([H])C3([H])C2([H])C([H])([H])C([H])([H])[C@]2(C([H])([H])[H])[C@@]([H])(O[H])C([H])([H])C([H])([H])[C@@]32[H])C1([H])[H]


 23 26  0  0  0  0  0  0  0  0999 V2000
  -22.5566   19.8064  -21.8379 C   0  0  0  0  0  0  0  0  0  0  0  0
  -22.6963   18.3411  -22.0585 C   0  0  0  0  0  0  0  0  0  0  0  0
  -23.3890   17.6028  -20.9781 C   0  0  0  0  0  0  0  0  0  0  0  0
  -22.4336   16.6762  -20.2269 C   0  0  0  0  0  0  0  0  0  0  0  0
  -21.1288   17.4249  -19.9143 C   0  0  0  0  0  0  0  0  0  0  0  0
  -20.4130   17.7597  -21.1826 C   0  0  0  0  0  0  0  0  0  0  0  0
  -19.2198   16.8994  -21.4650 C   0  0  0  0  0  0  0  0  0  0  0  0
  -19.2703   15.5594  -20.8043 C   0  0  0  0  0  0  0  0  0  0  0  0
  -19.3061   15.7927  -19.3034 C   0  0  0  0  0  0  0  0  0  0  0  0
  -19.4432   14.4240  -18.6797 C   0  0  0  0  0  0  0  0  0  0  0  0
  -19.5605   14.4567  -17.1883 C   0  0  0  0  0  0  0  0  0  0  0  0
  -18.3035   14.4538  -16.5845 O   0  0  0  0  0  0  0  0  0  0  0  0
  -20.4460   15.5640  -16.6768 C   0  0  0  0  0  0  0  0  0  0  0  0
  -21.2597   16.0546  -17.8817 C   0  0  0  0  0  0  0  0  0  0  0  0
  -20.3252   16.7667  -18.8689 C   0  0  0  0  0  0  0  0  0  0  0  0
  -19.6386   17.8610  -18.0386 C   0  0  0  0  0  0  0  0  0  0  0  0
  -21.3639   17.6475  -22.3238 C   0  0  0  0  0  0  0  0  0  0  0  0
  -20.9381   18.3310  -23.5763 C   0  0  0  0  0  0  0  0  0  0  0  0
  -22.2108   18.2067  -24.4226 C   0  0  0  0  0  0  0  0  0  0  0  0
  -23.3549   18.1511  -23.4309 C   0  0  0  0  0  0  0  0  0  0  0  0
  -24.2536   19.1708  -23.7058 O   0  0  0  0  0  0  0  0  0  0  0  0
  -17.7997   13.7154  -16.9844 H   0  0  0  0  0  0  0  0  0  0  0  0
  -24.0834   19.5636  -24.6058 H   0  0  0  0  0  0  0  0  0  0  0  0
  2  1  1  0  0  0
  2  3  1  0  0  0
  3  4  1  0  0  0
  4  5  1  0  0  0
  5  6  1  0  0  0
  6  7  1  0  0  0
  7  8  1  0  0  0
  8  9  1  0  0  0
  9 10  1  0  0  0
 10 11  1  0  0  0
 11 12  1  0  0  0
 11 13  1  0  0  0
 13 14  1  0  0  0
 14 15  1  0  0  0
 15 16  1  0  0  0
  6 17  1  0  0  0
 17 18  1  0  0  0
 18 19  1  0  0  0
 19 20  1  0  0  0
 20 21  1  0  0  0
 17  2  1  0  0  0
 20  2  1  0  0  0
 15  5  1  0  0  0
 15  9  1  0  0  0
 12 22  1  0  0  0
 21 23  1  0  0  0
M  END
> <minimizedAffinity>
-5.93790

> <CNNscore>
0.2814717293

> <CNNaffinity>
5.2111859322

> <CNN_VS>
1.4668015242

> <CNNaffinity_variance>
0.1397203505

$$$$
[H]O[C@@]1([H])C([H])([H])C([H])([H])[C@@]2(C([H])([H])[H])C([H])(C([H])([H])C([H])([H])C3([H])C2([H])C([H])([H])C([H])([H])[C@]2(C([H])([H])[H])[C@@]([H])(O[H])C([H])([H])C([H])([H])[C@@]32[H])C1([H])[H]


 23 26  0  0  0  0  0  0  0  0999 V2000
  -16.1766   11.2158  -18.7544 C   0  0  0  0  0  0  0  0  0  0  0  0
  -17.4768   11.1975  -19.4786 C   0  0  0  0  0  0  0  0  0  0  0  0
  -17.4396   10.5903  -20.8284 C   0  0  0  0  0  0  0  0  0  0  0  0
  -17.6593   11.6348  -21.9222 C   0  0  0  0  0  0  0  0  0  0  0  0
  -16.8034   12.8765  -21.6284 C   0  0  0  0  0  0  0  0  0  0  0  0
  -17.2727   13.5377  -20.3732 C   0  0  0  0  0  0  0  0  0  0  0  0
  -18.0576   14.7946  -20.5924 C   0  0  0  0  0  0  0  0  0  0  0  0
  -18.7158   14.8706  -21.9324 C   0  0  0  0  0  0  0  0  0  0  0  0
  -17.6173   14.8427  -22.9817 C   0  0  0  0  0  0  0  0  0  0  0  0
  -18.3257   14.8342  -24.3156 C   0  0  0  0  0  0  0  0  0  0  0  0
  -17.3960   14.7419  -25.4845 C   0  0  0  0  0  0  0  0  0  0  0  0
  -16.9589   16.0055  -25.8807 O   0  0  0  0  0  0  0  0  0  0  0  0
  -16.2589   13.7748  -25.2763 C   0  0  0  0  0  0  0  0  0  0  0  0
  -16.6526   12.9002  -24.0785 C   0  0  0  0  0  0  0  0  0  0  0  0
  -16.6400   13.7524  -22.8023 C   0  0  0  0  0  0  0  0  0  0  0  0
  -15.2299   14.3582  -22.7498 C   0  0  0  0  0  0  0  0  0  0  0  0
  -18.1116   12.5791  -19.6009 C   0  0  0  0  0  0  0  0  0  0  0  0
  -18.3121   12.9220  -18.1658 C   0  0  0  0  0  0  0  0  0  0  0  0
  -18.9987   11.6492  -17.6558 C   0  0  0  0  0  0  0  0  0  0  0  0
  -18.5018   10.5324  -18.5510 C   0  0  0  0  0  0  0  0  0  0  0  0
  -17.9146    9.5451  -17.7740 O   0  0  0  0  0  0  0  0  0  0  0  0
  -17.7581   16.5630  -25.9788 H   0  0  0  0  0  0  0  0  0  0  0  0
  -18.1440    9.6647  -16.8116 H   0  0  0  0  0  0  0  0  0  0  0  0
  2  1  1  0  0  0
  2  3  1  0  0  0
  3  4  1  0  0  0
  4  5  1  0  0  0
  5  6  1  0  0  0
  6  7  1  0  0  0
  7  8  1  0  0  0
  8  9  1  0  0  0
  9 10  1  0  0  0
 10 11  1  0  0  0
 11 12  1  0  0  0
 11 13  1  0  0  0
 13 14  1  0  0  0
 14 15  1  0  0  0
 15 16  1  0  0  0
  6 17  1  0  0  0
 17 18  1  0  0  0
 18 19  1  0  0  0
 19 20  1  0  0  0
 20 21  1  0  0  0
 17  2  1  0  0  0
 20  2  1  0  0  0
 15  5  1  0  0  0
 15  9  1  0  0  0
 12 22  1  0  0  0
 21 23  1  0  0  0
M  END
> <minimizedAffinity>
-8.53637

> <CNNscore>
0.2804011405

> <CNNaffinity>
5.8243460655

> <CNN_VS>
1.6331533194

> <CNNaffinity_variance>
0.1305529177

$$$$
[H]c1c([H])c([H])c(Oc2c([H])c(N3C([H])([H])C([H])([H])N(C([H])([H])C4=C(c5c([H])c([H])c(Cl)c([H])c5[H])C([H])([H])C(C([H])([H])[H])(C([H])([H])[H])C([H])([H])C4([H])[H])C([H])([H])C3([H])[H])c([H])c([H])c2C(=O)N([H])S(=O)(=O)c2c([H])c([H])c(N([H])C([H])([H])C3([H])C([H])([H])C([H])([H])OC([H])([H])C3([H])[H])c([N+](=O)[O-])c2[H])c([H])c1[H]


 60 66  0  0  0  0  0  0  0  0999 V2000
  -19.1619   17.8370  -20.5192 C   0  0  0  0  0  0  0  0  0  0  0  0
  -20.0145   16.9712  -19.8679 C   0  0  0  0  0  0  0  0  0  0  0  0
  -19.7300   15.6254  -19.8080 C   0  0  0  0  0  0  0  0  0  0  0  0
  -18.5769   15.0755  -20.3974 C   0  0  0  0  0  0  0  0  0  0  0  0
  -17.7492   15.9511  -21.0368 C   0  0  0  0  0  0  0  0  0  0  0  0
  -18.0240   17.3317  -21.1079 C   0  0  0  0  0  0  0  0  0  0  0  0
  -20.1561   22.0267  -20.8542 N   0  0  0  0  0  0  0  0  0  0  0  0
  -20.9837   20.9529  -20.2654 C   0  0  0  0  0  0  0  0  0  0  0  0
  -20.0952   19.9706  -19.5076 C   0  0  0  0  0  0  0  0  0  0  0  0
  -19.4355   19.2081  -20.5782 N   0  0  0  0  0  0  0  0  0  0  0  0
  -19.0732   19.9769  -21.7481 C   0  0  0  0  0  0  0  0  0  0  0  0
  -18.8919   21.4064  -21.3074 C   0  0  0  0  0  0  0  0  0  0  0  0
  -20.8981   22.5123  -21.9736 C   0  0  0  0  0  0  0  0  0  0  0  0
  -21.0185   24.6748  -26.4115 C   0  0  0  0  0  0  0  0  0  0  0  0
  -19.7745   24.2097  -25.6771 C   0  0  0  0  0  0  0  0  0  0  0  0
  -18.5809   24.7108  -26.4894 C   0  0  0  0  0  0  0  0  0  0  0  0
  -19.7831   24.8236  -24.3094 C   0  0  0  0  0  0  0  0  0  0  0  0
  -19.2455   23.8694  -23.2723 C   0  0  0  0  0  0  0  0  0  0  0  0
  -20.2749   22.7102  -23.2523 C   0  0  0  0  0  0  0  0  0  0  0  0
  -20.4751   22.1635  -24.4211 C   0  0  0  0  0  0  0  0  0  0  0  0
  -19.7041   22.7287  -25.6098 C   0  0  0  0  0  0  0  0  0  0  0  0
  -21.2723   20.9944  -24.6681 C   0  0  0  0  0  0  0  0  0  0  0  0
  -22.2033   20.9672  -25.6800 C   0  0  0  0  0  0  0  0  0  0  0  0
  -22.9273   19.8286  -25.9864 C   0  0  0  0  0  0  0  0  0  0  0  0
  -22.7304   18.6643  -25.2688 C   0  0  0  0  0  0  0  0  0  0  0  0
  -23.6375   17.2283  -25.6466 Cl  0  0  0  0  0  0  0  0  0  0  0  0
  -21.8099   18.6660  -24.2576 C   0  0  0  0  0  0  0  0  0  0  0  0
  -21.0877   19.8289  -23.9639 C   0  0  0  0  0  0  0  0  0  0  0  0
  -18.2937   13.6677  -20.3074 C   0  0  0  0  0  0  0  0  0  0  0  0
  -19.1698   12.9125  -20.9094 O   0  0  0  0  0  0  0  0  0  0  0  0
  -17.2514   12.9962  -19.6893 N   0  0  0  0  0  0  0  0  0  0  0  0
  -16.4650   13.4158  -19.1698 H   0  0  0  0  0  0  0  0  0  0  0  0
  -17.1803   11.2370  -19.7456 S   0  0  0  0  0  0  0  0  0  0  0  0
  -15.7734   10.7619  -19.5684 O   0  0  0  0  0  0  0  0  0  0  0  0
  -17.6999   10.7234  -21.0426 O   0  0  0  0  0  0  0  0  0  0  0  0
  -18.1741   10.6959  -18.3849 C   0  0  0  0  0  0  0  0  0  0  0  0
  -18.0317    9.4400  -17.8563 C   0  0  0  0  0  0  0  0  0  0  0  0
  -18.8119    9.0246  -16.7863 C   0  0  0  0  0  0  0  0  0  0  0  0
  -19.7724    9.8503  -16.1977 C   0  0  0  0  0  0  0  0  0  0  0  0
  -19.9107   11.1080  -16.7307 C   0  0  0  0  0  0  0  0  0  0  0  0
  -19.1081   11.5168  -17.8209 C   0  0  0  0  0  0  0  0  0  0  0  0
  -20.8476   12.0512  -16.2470 N   0  0  0  0  0  0  0  0  0  0  0  0
  -20.7037   13.3879  -16.1178 O   0  0  0  0  0  0  0  0  0  0  0  0
  -21.9764   11.5823  -15.8793 O   0  0  0  0  0  0  0  0  0  0  0  0
  -20.5409    9.3899  -15.0973 N   0  0  0  0  0  0  0  0  0  0  0  0
  -21.5909    9.3829  -15.0690 H   0  0  0  0  0  0  0  0  0  0  0  0
  -19.9071    8.8697  -13.8860 C   0  0  0  0  0  0  0  0  0  0  0  0
  -19.5727    9.9744  -12.9340 C   0  0  0  0  0  0  0  0  0  0  0  0
  -19.0158    9.3298  -11.6722 C   0  0  0  0  0  0  0  0  0  0  0  0
  -19.1463   10.2473  -10.4918 C   0  0  0  0  0  0  0  0  0  0  0  0
  -20.5237   10.5203  -10.3244 O   0  0  0  0  0  0  0  0  0  0  0  0
  -20.8867   11.4200  -11.3353 C   0  0  0  0  0  0  0  0  0  0  0  0
  -20.8106   10.7865  -12.6855 C   0  0  0  0  0  0  0  0  0  0  0  0
  -16.5940   15.5075  -21.6463 O   0  0  0  0  0  0  0  0  0  0  0  0
  -16.5022   15.5019  -23.0194 C   0  0  0  0  0  0  0  0  0  0  0  0
  -15.5748   16.2751  -23.6765 C   0  0  0  0  0  0  0  0  0  0  0  0
  -15.4756   16.2742  -25.0695 C   0  0  0  0  0  0  0  0  0  0  0  0
  -16.3177   15.4873  -25.8187 C   0  0  0  0  0  0  0  0  0  0  0  0
  -17.2509   14.7081  -25.1746 C   0  0  0  0  0  0  0  0  0  0  0  0
  -17.3425   14.7145  -23.7997 C   0  0  0  0  0  0  0  0  0  0  0  0
 14 15  1  0  0  0
 15 16  1  0  0  0
 15 17  1  0  0  0
 17 18  1  0  0  0
 18 19  1  0  0  0
 19 13  1  0  0  0
 13  7  1  0  0  0
  7  8  1  0  0  0
  8  9  1  0  0  0
  9 10  1  0  0  0
 10 11  1  0  0  0
 11 12  1  0  0  0
 10  1  1  0  0  0
  1  2  2  0  0  0
  2  3  1  0  0  0
  3  4  2  0  0  0
  4 29  1  0  0  0
 29 30  2  0  0  0
 29 31  1  0  0  0
 31 33  1  0  0  0
 33 34  2  0  0  0
 33 35  2  0  0  0
 33 36  1  0  0  0
 36 37  2  0  0  0
 37 38  1  0  0  0
 38 39  2  0  0  0
 39 45  1  0  0  0
 45 47  1  0  0  0
 47 48  1  0  0  0
 48 49  1  0  0  0
 49 50  1  0  0  0
 50 51  1  0  0  0
 51 52  1  0  0  0
 52 53  1  0  0  0
 39 40  1  0  0  0
 40 41  2  0  0  0
 40 42  1  0  0  0
 42 43  1  0  0  0
 42 44  2  0  0  0
  4  5  1  0  0  0
  5 54  1  0  0  0
 54 55  1  0  0  0
 55 56  2  0  0  0
 56 57  1  0  0  0
 57 58  2  0  0  0
 58 59  1  0  0  0
 59 60  2  0  0  0
  5  6  2  0  0  0
 19 20  2  0  0  0
 20 21  1  0  0  0
 20 22  1  0  0  0
 22 23  2  0  0  0
 23 24  1  0  0  0
 24 25  2  0  0  0
 25 26  1  0  0  0
 25 27  1  0  0  0
 27 28  2  0  0  0
 21 15  1  0  0  0
 28 22  1  0  0  0
 12  7  1  0  0  0
  6  1  1  0  0  0
 41 36  1  0  0  0
 60 55  1  0  0  0
 53 48  1  0  0  0
 31 32  1  0  0  0
 45 46  1  0  0  0
M  CHG 1  42   1
M  CHG 1  43  -1
M  END
> <minimizedAffinity>
-9.97832

> <CNNscore>
0.1609890014

> <CNNaffinity>
7.6416587830

> <CNN_VS>
1.2302230597

> <CNNaffinity_variance>
0.5363029242

$$$$
[H]c1c([H])c([H])c(Oc2c([H])c(N3C([H])([H])C([H])([H])N(C([H])([H])C4=C(c5c([H])c([H])c(Cl)c([H])c5[H])C([H])([H])C(C([H])([H])[H])(C([H])([H])[H])C([H])([H])C4([H])[H])C([H])([H])C3([H])[H])c([H])c([H])c2C(=O)N([H])S(=O)(=O)c2c([H])c([H])c(N([H])C([H])([H])C3([H])C([H])([H])C([H])([H])OC([H])([H])C3([H])[H])c([N+](=O)[O-])c2[H])c([H])c1[H]


 60 66  0  0  0  0  0  0  0  0999 V2000
  -20.0770   11.2772  -16.1994 C   0  0  0  0  0  0  0  0  0  0  0  0
  -21.1094   12.0772  -15.7577 C   0  0  0  0  0  0  0  0  0  0  0  0
  -21.3442   13.3003  -16.3448 C   0  0  0  0  0  0  0  0  0  0  0  0
  -20.5576   13.7870  -17.4049 C   0  0  0  0  0  0  0  0  0  0  0  0
  -19.5420   12.9786  -17.8239 C   0  0  0  0  0  0  0  0  0  0  0  0
  -19.2868   11.7236  -17.2352 C   0  0  0  0  0  0  0  0  0  0  0  0
  -19.5446    7.3990  -14.3747 N   0  0  0  0  0  0  0  0  0  0  0  0
  -20.1132    7.6927  -15.7069 C   0  0  0  0  0  0  0  0  0  0  0  0
  -19.3529    8.8483  -16.3512 C   0  0  0  0  0  0  0  0  0  0  0  0
  -19.8348   10.0280  -15.6171 N   0  0  0  0  0  0  0  0  0  0  0  0
  -20.0616    9.8231  -14.2037 C   0  0  0  0  0  0  0  0  0  0  0  0
  -19.1672    8.6927  -13.7647 C   0  0  0  0  0  0  0  0  0  0  0  0
  -20.6024    6.7917  -13.6319 C   0  0  0  0  0  0  0  0  0  0  0  0
  -17.3848    5.1093  -10.2848 C   0  0  0  0  0  0  0  0  0  0  0  0
  -18.8973    5.0847  -10.1623 C   0  0  0  0  0  0  0  0  0  0  0  0
  -19.2078    4.6189   -8.7402 C   0  0  0  0  0  0  0  0  0  0  0  0
  -19.4067    6.4763  -10.3897 C   0  0  0  0  0  0  0  0  0  0  0  0
  -20.7076    6.4704  -11.1530 C   0  0  0  0  0  0  0  0  0  0  0  0
  -20.3303    5.8959  -12.5427 C   0  0  0  0  0  0  0  0  0  0  0  0
  -19.7430    4.7309  -12.4893 C   0  0  0  0  0  0  0  0  0  0  0  0
  -19.5046    4.1195  -11.1121 C   0  0  0  0  0  0  0  0  0  0  0  0
  -19.4055    3.9156  -13.6226 C   0  0  0  0  0  0  0  0  0  0  0  0
  -20.3807    3.3744  -14.4272 C   0  0  0  0  0  0  0  0  0  0  0  0
  -20.0793    2.6510  -15.5676 C   0  0  0  0  0  0  0  0  0  0  0  0
  -18.7630    2.4485  -15.9358 C   0  0  0  0  0  0  0  0  0  0  0  0
  -18.3751    1.5389  -17.3675 Cl  0  0  0  0  0  0  0  0  0  0  0  0
  -17.7749    2.9767  -15.1520 C   0  0  0  0  0  0  0  0  0  0  0  0
  -18.1015    3.7058  -14.0022 C   0  0  0  0  0  0  0  0  0  0  0  0
  -20.8332   15.0618  -18.0123 C   0  0  0  0  0  0  0  0  0  0  0  0
  -20.2216   16.0625  -17.4422 O   0  0  0  0  0  0  0  0  0  0  0  0
  -21.6359   15.3902  -19.0927 N   0  0  0  0  0  0  0  0  0  0  0  0
  -22.1926   14.7422  -19.6711 H   0  0  0  0  0  0  0  0  0  0  0  0
  -21.7813   17.0696  -19.6039 S   0  0  0  0  0  0  0  0  0  0  0  0
  -21.5702   17.9918  -18.4457 O   0  0  0  0  0  0  0  0  0  0  0  0
  -23.1242   17.3347  -20.1892 O   0  0  0  0  0  0  0  0  0  0  0  0
  -20.4939   17.2971  -20.7968 C   0  0  0  0  0  0  0  0  0  0  0  0
  -20.7801   17.5966  -22.1027 C   0  0  0  0  0  0  0  0  0  0  0  0
  -19.7646   17.7777  -23.0312 C   0  0  0  0  0  0  0  0  0  0  0  0
  -18.4143   17.6657  -22.6922 C   0  0  0  0  0  0  0  0  0  0  0  0
  -18.1329   17.3661  -21.3823 C   0  0  0  0  0  0  0  0  0  0  0  0
  -19.1786   17.1847  -20.4478 C   0  0  0  0  0  0  0  0  0  0  0  0
  -16.8145   17.2112  -20.8933 N   0  0  0  0  0  0  0  0  0  0  0  0
  -16.1488   16.0683  -20.6195 O   0  0  0  0  0  0  0  0  0  0  0  0
  -16.1664   18.2894  -20.6770 O   0  0  0  0  0  0  0  0  0  0  0  0
  -17.4071   17.8703  -23.6705 N   0  0  0  0  0  0  0  0  0  0  0  0
  -16.8387   18.7489  -23.7615 H   0  0  0  0  0  0  0  0  0  0  0  0
  -17.0722   16.8379  -24.6512 C   0  0  0  0  0  0  0  0  0  0  0  0
  -17.0206   15.4847  -24.0151 C   0  0  0  0  0  0  0  0  0  0  0  0
  -15.5567   15.0716  -23.9510 C   0  0  0  0  0  0  0  0  0  0  0  0
  -15.4182   13.5814  -23.8412 C   0  0  0  0  0  0  0  0  0  0  0  0
  -16.0266   13.0192  -24.9872 O   0  0  0  0  0  0  0  0  0  0  0  0
  -17.4121   13.1189  -24.8037 C   0  0  0  0  0  0  0  0  0  0  0  0
  -17.8658   14.5416  -24.8213 C   0  0  0  0  0  0  0  0  0  0  0  0
  -18.7150   13.3685  -18.8569 O   0  0  0  0  0  0  0  0  0  0  0  0
  -17.9328   12.4355  -19.4983 C   0  0  0  0  0  0  0  0  0  0  0  0
  -17.0197   11.6735  -18.8089 C   0  0  0  0  0  0  0  0  0  0  0  0
  -16.2229   10.7246  -19.4531 C   0  0  0  0  0  0  0  0  0  0  0  0
  -16.3404   10.5340  -20.8093 C   0  0  0  0  0  0  0  0  0  0  0  0
  -17.2503   11.2895  -21.5124 C   0  0  0  0  0  0  0  0  0  0  0  0
  -18.0329   12.2238  -20.8695 C   0  0  0  0  0  0  0  0  0  0  0  0
 14 15  1  0  0  0
 15 16  1  0  0  0
 15 17  1  0  0  0
 17 18  1  0  0  0
 18 19  1  0  0  0
 19 13  1  0  0  0
 13  7  1  0  0  0
  7  8  1  0  0  0
  8  9  1  0  0  0
  9 10  1  0  0  0
 10 11  1  0  0  0
 11 12  1  0  0  0
 10  1  1  0  0  0
  1  2  2  0  0  0
  2  3  1  0  0  0
  3  4  2  0  0  0
  4 29  1  0  0  0
 29 30  2  0  0  0
 29 31  1  0  0  0
 31 33  1  0  0  0
 33 34  2  0  0  0
 33 35  2  0  0  0
 33 36  1  0  0  0
 36 37  2  0  0  0
 37 38  1  0  0  0
 38 39  2  0  0  0
 39 45  1  0  0  0
 45 47  1  0  0  0
 47 48  1  0  0  0
 48 49  1  0  0  0
 49 50  1  0  0  0
 50 51  1  0  0  0
 51 52  1  0  0  0
 52 53  1  0  0  0
 39 40  1  0  0  0
 40 41  2  0  0  0
 40 42  1  0  0  0
 42 43  1  0  0  0
 42 44  2  0  0  0
  4  5  1  0  0  0
  5 54  1  0  0  0
 54 55  1  0  0  0
 55 56  2  0  0  0
 56 57  1  0  0  0
 57 58  2  0  0  0
 58 59  1  0  0  0
 59 60  2  0  0  0
  5  6  2  0  0  0
 19 20  2  0  0  0
 20 21  1  0  0  0
 20 22  1  0  0  0
 22 23  2  0  0  0
 23 24  1  0  0  0
 24 25  2  0  0  0
 25 26  1  0  0  0
 25 27  1  0  0  0
 27 28  2  0  0  0
 21 15  1  0  0  0
 28 22  1  0  0  0
 12  7  1  0  0  0
  6  1  1  0  0  0
 41 36  1  0  0  0
 60 55  1  0  0  0
 53 48  1  0  0  0
 31 32  1  0  0  0
 45 46  1  0  0  0
M  CHG 1  42   1
M  CHG 1  43  -1
M  END
> <minimizedAffinity>
-9.56992

> <CNNscore>
0.1123809516

> <CNNaffinity>
7.3434066772

> <CNN_VS>
0.8252590299

> <CNNaffinity_variance>
0.7965865135

$$$$
[H]c1c([H])c([H])c(Oc2c([H])c(N3C([H])([H])C([H])([H])N(C([H])([H])C4=C(c5c([H])c([H])c(Cl)c([H])c5[H])C([H])([H])C(C([H])([H])[H])(C([H])([H])[H])C([H])([H])C4([H])[H])C([H])([H])C3([H])[H])c([H])c([H])c2C(=O)N([H])S(=O)(=O)c2c([H])c([H])c(N([H])C([H])([H])C3([H])C([H])([H])C([H])([H])OC([H])([H])C3([H])[H])c([N+](=O)[O-])c2[H])c([H])c1[H]


 60 66  0  0  0  0  0  0  0  0999 V2000
  -20.3608   10.9483  -15.9779 C   0  0  0  0  0  0  0  0  0  0  0  0
  -21.4406   11.8050  -16.0090 C   0  0  0  0  0  0  0  0  0  0  0  0
  -21.3567   13.0093  -16.6711 C   0  0  0  0  0  0  0  0  0  0  0  0
  -20.1870   13.4194  -17.3369 C   0  0  0  0  0  0  0  0  0  0  0  0
  -19.1321   12.5559  -17.2916 C   0  0  0  0  0  0  0  0  0  0  0  0
  -19.1997   11.3191  -16.6191 C   0  0  0  0  0  0  0  0  0  0  0  0
  -20.6282    7.0538  -14.1300 N   0  0  0  0  0  0  0  0  0  0  0  0
  -19.5297    7.5738  -14.9710 C   0  0  0  0  0  0  0  0  0  0  0  0
  -19.2990    9.0511  -14.6665 C   0  0  0  0  0  0  0  0  0  0  0  0
  -20.4375    9.7175  -15.3165 N   0  0  0  0  0  0  0  0  0  0  0  0
  -21.6932    9.0046  -15.2405 C   0  0  0  0  0  0  0  0  0  0  0  0
  -21.6385    8.1282  -14.0160 C   0  0  0  0  0  0  0  0  0  0  0  0
  -21.1667    5.9424  -14.8471 C   0  0  0  0  0  0  0  0  0  0  0  0
  -20.9071    3.1708  -10.7682 C   0  0  0  0  0  0  0  0  0  0  0  0
  -22.0025    3.1174  -11.8173 C   0  0  0  0  0  0  0  0  0  0  0  0
  -23.0825    2.1868  -11.2666 C   0  0  0  0  0  0  0  0  0  0  0  0
  -22.5392    4.5048  -12.0027 C   0  0  0  0  0  0  0  0  0  0  0  0
  -22.8808    4.7765  -13.4465 C   0  0  0  0  0  0  0  0  0  0  0  0
  -21.5147    4.7204  -14.1774 C   0  0  0  0  0  0  0  0  0  0  0  0
  -20.8620    3.6054  -13.9889 C   0  0  0  0  0  0  0  0  0  0  0  0
  -21.5050    2.5496  -13.0951 C   0  0  0  0  0  0  0  0  0  0  0  0
  -19.6399    3.2344  -14.6462 C   0  0  0  0  0  0  0  0  0  0  0  0
  -18.4153    3.5458  -14.1031 C   0  0  0  0  0  0  0  0  0  0  0  0
  -17.2264    3.1322  -14.6775 C   0  0  0  0  0  0  0  0  0  0  0  0
  -17.2379    2.3798  -15.8364 C   0  0  0  0  0  0  0  0  0  0  0  0
  -15.7474    1.8565  -16.5660 Cl  0  0  0  0  0  0  0  0  0  0  0  0
  -18.4432    2.0571  -16.3958 C   0  0  0  0  0  0  0  0  0  0  0  0
  -19.6347    2.4855  -15.7984 C   0  0  0  0  0  0  0  0  0  0  0  0
  -20.1295   14.6759  -18.0353 C   0  0  0  0  0  0  0  0  0  0  0  0
  -20.8673   14.7182  -19.1096 O   0  0  0  0  0  0  0  0  0  0  0  0
  -19.4224   15.8329  -17.7511 N   0  0  0  0  0  0  0  0  0  0  0  0
  -18.7928   15.9938  -16.9498 H   0  0  0  0  0  0  0  0  0  0  0  0
  -19.5519   17.2290  -18.8175 S   0  0  0  0  0  0  0  0  0  0  0  0
  -19.1417   18.4766  -18.1023 O   0  0  0  0  0  0  0  0  0  0  0  0
  -20.9464   17.3958  -19.3111 O   0  0  0  0  0  0  0  0  0  0  0  0
  -18.4266   16.8975  -20.1427 C   0  0  0  0  0  0  0  0  0  0  0  0
  -17.3758   16.0330  -19.9830 C   0  0  0  0  0  0  0  0  0  0  0  0
  -16.5003   15.7749  -21.0284 C   0  0  0  0  0  0  0  0  0  0  0  0
  -16.6380   16.3736  -22.2827 C   0  0  0  0  0  0  0  0  0  0  0  0
  -17.6929   17.2386  -22.4377 C   0  0  0  0  0  0  0  0  0  0  0  0
  -18.5768   17.4911  -21.3631 C   0  0  0  0  0  0  0  0  0  0  0  0
  -17.9542   17.9265  -23.6460 N   0  0  0  0  0  0  0  0  0  0  0  0
  -17.1442   18.0839  -24.7153 O   0  0  0  0  0  0  0  0  0  0  0  0
  -19.1026   18.4756  -23.7415 O   0  0  0  0  0  0  0  0  0  0  0  0
  -15.7269   16.0728  -23.3281 N   0  0  0  0  0  0  0  0  0  0  0  0
  -15.0757   16.7709  -23.7662 H   0  0  0  0  0  0  0  0  0  0  0  0
  -15.6206   14.7247  -23.8858 C   0  0  0  0  0  0  0  0  0  0  0  0
  -16.7727   14.4220  -24.7910 C   0  0  0  0  0  0  0  0  0  0  0  0
  -17.2050   12.9900  -24.5079 C   0  0  0  0  0  0  0  0  0  0  0  0
  -17.9565   12.4106  -25.6705 C   0  0  0  0  0  0  0  0  0  0  0  0
  -17.0878   12.4388  -26.7860 O   0  0  0  0  0  0  0  0  0  0  0  0
  -17.0211   13.7703  -27.2171 C   0  0  0  0  0  0  0  0  0  0  0  0
  -16.3380   14.6379  -26.2116 C   0  0  0  0  0  0  0  0  0  0  0  0
  -17.9414   12.8692  -17.9139 O   0  0  0  0  0  0  0  0  0  0  0  0
  -17.5106   12.1209  -18.9855 C   0  0  0  0  0  0  0  0  0  0  0  0
  -18.0556   12.2853  -20.2368 C   0  0  0  0  0  0  0  0  0  0  0  0
  -17.6232   11.5299  -21.3288 C   0  0  0  0  0  0  0  0  0  0  0  0
  -16.6292   10.5941  -21.1678 C   0  0  0  0  0  0  0  0  0  0  0  0
  -16.0744   10.4187  -19.9211 C   0  0  0  0  0  0  0  0  0  0  0  0
  -16.5065   11.1680  -18.8485 C   0  0  0  0  0  0  0  0  0  0  0  0
 14 15  1  0  0  0
 15 16  1  0  0  0
 15 17  1  0  0  0
 17 18  1  0  0  0
 18 19  1  0  0  0
 19 13  1  0  0  0
 13  7  1  0  0  0
  7  8  1  0  0  0
  8  9  1  0  0  0
  9 10  1  0  0  0
 10 11  1  0  0  0
 11 12  1  0  0  0
 10  1  1  0  0  0
  1  2  2  0  0  0
  2  3  1  0  0  0
  3  4  2  0  0  0
  4 29  1  0  0  0
 29 30  2  0  0  0
 29 31  1  0  0  0
 31 33  1  0  0  0
 33 34  2  0  0  0
 33 35  2  0  0  0
 33 36  1  0  0  0
 36 37  2  0  0  0
 37 38  1  0  0  0
 38 39  2  0  0  0
 39 45  1  0  0  0
 45 47  1  0  0  0
 47 48  1  0  0  0
 48 49  1  0  0  0
 49 50  1  0  0  0
 50 51  1  0  0  0
 51 52  1  0  0  0
 52 53  1  0  0  0
 39 40  1  0  0  0
 40 41  2  0  0  0
 40 42  1  0  0  0
 42 43  1  0  0  0
 42 44  2  0  0  0
  4  5  1  0  0  0
  5 54  1  0  0  0
 54 55  1  0  0  0
 55 56  2  0  0  0
 56 57  1  0  0  0
 57 58  2  0  0  0
 58 59  1  0  0  0
 59 60  2  0  0  0
  5  6  2  0  0  0
 19 20  2  0  0  0
 20 21  1  0  0  0
 20 22  1  0  0  0
 22 23  2  0  0  0
 23 24  1  0  0  0
 24 25  2  0  0  0
 25 26  1  0  0  0
 25 27  1  0  0  0
 27 28  2  0  0  0
 21 15  1  0  0  0
 28 22  1  0  0  0
 12  7  1  0  0  0
  6  1  1  0  0  0
 41 36  1  0  0  0
 60 55  1  0  0  0
 53 48  1  0  0  0
 31 32  1  0  0  0
 45 46  1  0  0  0
M  CHG 1  42   1
M  CHG 1  43  -1
M  END
> <minimizedAffinity>
-9.68900

> <CNNscore>
0.1082396656

> <CNNaffinity>
7.4602255821

> <CNN_VS>
0.8074923158

> <CNNaffinity_variance>
0.4602367878

$$$$
[H]c1c([H])c([H])c(Oc2c([H])c(N3C([H])([H])C([H])([H])N(C([H])([H])C4=C(c5c([H])c([H])c(Cl)c([H])c5[H])C([H])([H])C(C([H])([H])[H])(C([H])([H])[H])C([H])([H])C4([H])[H])C([H])([H])C3([H])[H])c([H])c([H])c2C(=O)N([H])S(=O)(=O)c2c([H])c([H])c(N([H])C([H])([H])C3([H])C([H])([H])C([H])([H])OC([H])([H])C3([H])[H])c([N+](=O)[O-])c2[H])c([H])c1[H]


 60 66  0  0  0  0  0  0  0  0999 V2000
  -20.1107   11.0350  -15.8442 C   0  0  0  0  0  0  0  0  0  0  0  0
  -21.2574   11.7642  -15.6115 C   0  0  0  0  0  0  0  0  0  0  0  0
  -21.4487   12.9795  -16.2298 C   0  0  0  0  0  0  0  0  0  0  0  0
  -20.5019   13.5288  -17.1136 C   0  0  0  0  0  0  0  0  0  0  0  0
  -19.3754   12.7898  -17.3274 C   0  0  0  0  0  0  0  0  0  0  0  0
  -19.1625   11.5440  -16.7036 C   0  0  0  0  0  0  0  0  0  0  0  0
  -19.6976    7.2111  -13.8793 N   0  0  0  0  0  0  0  0  0  0  0  0
  -20.4641    7.5103  -15.1071 C   0  0  0  0  0  0  0  0  0  0  0  0
  -19.7085    8.5304  -15.9537 C   0  0  0  0  0  0  0  0  0  0  0  0
  -19.9096    9.7942  -15.2291 N   0  0  0  0  0  0  0  0  0  0  0  0
  -19.8947    9.6862  -13.7872 C   0  0  0  0  0  0  0  0  0  0  0  0
  -19.0696    8.4751  -13.4364 C   0  0  0  0  0  0  0  0  0  0  0  0
  -20.6632    6.7761  -12.9212 C   0  0  0  0  0  0  0  0  0  0  0  0
  -17.5406    3.2480  -11.4416 C   0  0  0  0  0  0  0  0  0  0  0  0
  -18.6373    3.8800  -10.6043 C   0  0  0  0  0  0  0  0  0  0  0  0
  -18.4556    3.3488   -9.1829 C   0  0  0  0  0  0  0  0  0  0  0  0
  -18.4561    5.3677  -10.6438 C   0  0  0  0  0  0  0  0  0  0  0  0
  -19.7825    6.0848  -10.6838 C   0  0  0  0  0  0  0  0  0  0  0  0
  -20.3982    5.6695  -12.0448 C   0  0  0  0  0  0  0  0  0  0  0  0
  -20.4901    4.3774  -12.2089 C   0  0  0  0  0  0  0  0  0  0  0  0
  -19.9848    3.4817  -11.0822 C   0  0  0  0  0  0  0  0  0  0  0  0
  -21.1360    3.7219  -13.3117 C   0  0  0  0  0  0  0  0  0  0  0  0
  -20.4169    2.9849  -14.2233 C   0  0  0  0  0  0  0  0  0  0  0  0
  -21.0251    2.2815  -15.2481 C   0  0  0  0  0  0  0  0  0  0  0  0
  -22.3998    2.3016  -15.3859 C   0  0  0  0  0  0  0  0  0  0  0  0
  -23.1726    1.4211  -16.6724 Cl  0  0  0  0  0  0  0  0  0  0  0  0
  -23.1371    3.0273  -14.4917 C   0  0  0  0  0  0  0  0  0  0  0  0
  -22.5020    3.7317  -13.4619 C   0  0  0  0  0  0  0  0  0  0  0  0
  -20.7322   14.7934  -17.7598 C   0  0  0  0  0  0  0  0  0  0  0  0
  -19.9884   15.7630  -17.3049 O   0  0  0  0  0  0  0  0  0  0  0  0
  -21.6089   15.1398  -18.7751 N   0  0  0  0  0  0  0  0  0  0  0  0
  -22.2706   14.5162  -19.2625 H   0  0  0  0  0  0  0  0  0  0  0  0
  -21.6680   16.8005  -19.3598 S   0  0  0  0  0  0  0  0  0  0  0  0
  -21.2194   17.7491  -18.2943 O   0  0  0  0  0  0  0  0  0  0  0  0
  -23.0476   17.1692  -19.7802 O   0  0  0  0  0  0  0  0  0  0  0  0
  -20.5376   16.8461  -20.7208 C   0  0  0  0  0  0  0  0  0  0  0  0
  -19.6051   15.8591  -20.9032 C   0  0  0  0  0  0  0  0  0  0  0  0
  -18.7250   15.8998  -21.9756 C   0  0  0  0  0  0  0  0  0  0  0  0
  -18.7393   16.9339  -22.9143 C   0  0  0  0  0  0  0  0  0  0  0  0
  -19.6760   17.9201  -22.7273 C   0  0  0  0  0  0  0  0  0  0  0  0
  -20.5662   17.8644  -21.6299 C   0  0  0  0  0  0  0  0  0  0  0  0
  -19.8041   19.0346  -23.5891 N   0  0  0  0  0  0  0  0  0  0  0  0
  -20.9119   19.4925  -24.2116 O   0  0  0  0  0  0  0  0  0  0  0  0
  -18.7352   19.6948  -23.8146 O   0  0  0  0  0  0  0  0  0  0  0  0
  -17.8290   16.9308  -24.0028 N   0  0  0  0  0  0  0  0  0  0  0  0
  -18.1132   16.8901  -25.0132 H   0  0  0  0  0  0  0  0  0  0  0  0
  -16.3830   16.9917  -23.7909 C   0  0  0  0  0  0  0  0  0  0  0  0
  -15.6957   15.8172  -24.4125 C   0  0  0  0  0  0  0  0  0  0  0  0
  -16.6141   15.2813  -25.5020 C   0  0  0  0  0  0  0  0  0  0  0  0
  -16.3032   13.8473  -25.8164 C   0  0  0  0  0  0  0  0  0  0  0  0
  -16.4884   13.1082  -24.6252 O   0  0  0  0  0  0  0  0  0  0  0  0
  -15.3929   13.3877  -23.7976 C   0  0  0  0  0  0  0  0  0  0  0  0
  -15.4010   14.8091  -23.3398 C   0  0  0  0  0  0  0  0  0  0  0  0
  -18.3883   13.2447  -18.1769 O   0  0  0  0  0  0  0  0  0  0  0  0
  -17.8328   12.3904  -19.1019 C   0  0  0  0  0  0  0  0  0  0  0  0
  -18.2287   12.4075  -20.4182 C   0  0  0  0  0  0  0  0  0  0  0  0
  -17.6694   11.5439  -21.3624 C   0  0  0  0  0  0  0  0  0  0  0  0
  -16.6978   10.6478  -20.9848 C   0  0  0  0  0  0  0  0  0  0  0  0
  -16.2916   10.6193  -19.6706 C   0  0  0  0  0  0  0  0  0  0  0  0
  -16.8484   11.4748  -18.7449 C   0  0  0  0  0  0  0  0  0  0  0  0
 14 15  1  0  0  0
 15 16  1  0  0  0
 15 17  1  0  0  0
 17 18  1  0  0  0
 18 19  1  0  0  0
 19 13  1  0  0  0
 13  7  1  0  0  0
  7  8  1  0  0  0
  8  9  1  0  0  0
  9 10  1  0  0  0
 10 11  1  0  0  0
 11 12  1  0  0  0
 10  1  1  0  0  0
  1  2  2  0  0  0
  2  3  1  0  0  0
  3  4  2  0  0  0
  4 29  1  0  0  0
 29 30  2  0  0  0
 29 31  1  0  0  0
 31 33  1  0  0  0
 33 34  2  0  0  0
 33 35  2  0  0  0
 33 36  1  0  0  0
 36 37  2  0  0  0
 37 38  1  0  0  0
 38 39  2  0  0  0
 39 45  1  0  0  0
 45 47  1  0  0  0
 47 48  1  0  0  0
 48 49  1  0  0  0
 49 50  1  0  0  0
 50 51  1  0  0  0
 51 52  1  0  0  0
 52 53  1  0  0  0
 39 40  1  0  0  0
 40 41  2  0  0  0
 40 42  1  0  0  0
 42 43  1  0  0  0
 42 44  2  0  0  0
  4  5  1  0  0  0
  5 54  1  0  0  0
 54 55  1  0  0  0
 55 56  2  0  0  0
 56 57  1  0  0  0
 57 58  2  0  0  0
 58 59  1  0  0  0
 59 60  2  0  0  0
  5  6  2  0  0  0
 19 20  2  0  0  0
 20 21  1  0  0  0
 20 22  1  0  0  0
 22 23  2  0  0  0
 23 24  1  0  0  0
 24 25  2  0  0  0
 25 26  1  0  0  0
 25 27  1  0  0  0
 27 28  2  0  0  0
 21 15  1  0  0  0
 28 22  1  0  0  0
 12  7  1  0  0  0
  6  1  1  0  0  0
 41 36  1  0  0  0
 60 55  1  0  0  0
 53 48  1  0  0  0
 31 32  1  0  0  0
 45 46  1  0  0  0
M  CHG 1  42   1
M  CHG 1  43  -1
M  END
> <minimizedAffinity>
-8.98695

> <CNNscore>
0.1015883237

> <CNNaffinity>
7.2649178505

> <CNN_VS>
0.7380308509

> <CNNaffinity_variance>
0.4858355522

$$$$
[H]c1c([H])c([H])c(Oc2c([H])c(N3C([H])([H])C([H])([H])N(C([H])([H])C4=C(c5c([H])c([H])c(Cl)c([H])c5[H])C([H])([H])C(C([H])([H])[H])(C([H])([H])[H])C([H])([H])C4([H])[H])C([H])([H])C3([H])[H])c([H])c([H])c2C(=O)N([H])S(=O)(=O)c2c([H])c([H])c(N([H])C([H])([H])C3([H])C([H])([H])C([H])([H])OC([H])([H])C3([H])[H])c([N+](=O)[O-])c2[H])c([H])c1[H]


 60 66  0  0  0  0  0  0  0  0999 V2000
  -18.6548   10.4890  -17.7058 C   0  0  0  0  0  0  0  0  0  0  0  0
  -17.6525    9.9424  -18.4789 C   0  0  0  0  0  0  0  0  0  0  0  0
  -17.2678   10.5495  -19.6533 C   0  0  0  0  0  0  0  0  0  0  0  0
  -17.8665   11.7358  -20.1156 C   0  0  0  0  0  0  0  0  0  0  0  0
  -18.8559   12.2571  -19.3346 C   0  0  0  0  0  0  0  0  0  0  0  0
  -19.2627   11.6498  -18.1295 C   0  0  0  0  0  0  0  0  0  0  0  0
  -20.0724    8.6293  -14.0745 N   0  0  0  0  0  0  0  0  0  0  0  0
  -19.9791    8.0189  -15.4174 C   0  0  0  0  0  0  0  0  0  0  0  0
  -18.7159    8.5060  -16.1212 C   0  0  0  0  0  0  0  0  0  0  0  0
  -19.0475    9.8863  -16.5054 N   0  0  0  0  0  0  0  0  0  0  0  0
  -19.8389   10.6199  -15.5430 C   0  0  0  0  0  0  0  0  0  0  0  0
  -19.5712   10.0165  -14.1885 C   0  0  0  0  0  0  0  0  0  0  0  0
  -21.4631    8.6309  -13.7500 C   0  0  0  0  0  0  0  0  0  0  0  0
  -23.9729    8.8292   -9.5017 C   0  0  0  0  0  0  0  0  0  0  0  0
  -23.7895    7.6018  -10.3753 C   0  0  0  0  0  0  0  0  0  0  0  0
  -24.6817    6.5122   -9.7817 C   0  0  0  0  0  0  0  0  0  0  0  0
  -24.2275    7.9494  -11.7663 C   0  0  0  0  0  0  0  0  0  0  0  0
  -23.3511    7.2906  -12.8022 C   0  0  0  0  0  0  0  0  0  0  0  0
  -21.9596    7.9411  -12.5922 C   0  0  0  0  0  0  0  0  0  0  0  0
  -21.5074    7.8352  -11.3718 C   0  0  0  0  0  0  0  0  0  0  0  0
  -22.3858    7.1205  -10.3496 C   0  0  0  0  0  0  0  0  0  0  0  0
  -20.1985    8.2301  -10.9314 C   0  0  0  0  0  0  0  0  0  0  0  0
  -19.9706    9.4796  -10.4040 C   0  0  0  0  0  0  0  0  0  0  0  0
  -18.7370    9.8553   -9.9023 C   0  0  0  0  0  0  0  0  0  0  0  0
  -17.6791    8.9666   -9.9183 C   0  0  0  0  0  0  0  0  0  0  0  0
  -16.1242    9.4311   -9.2906 Cl  0  0  0  0  0  0  0  0  0  0  0  0
  -17.8806    7.7177  -10.4376 C   0  0  0  0  0  0  0  0  0  0  0  0
  -19.1368    7.3576  -10.9400 C   0  0  0  0  0  0  0  0  0  0  0  0
  -17.4357   12.3597  -21.3384 C   0  0  0  0  0  0  0  0  0  0  0  0
  -18.3800   12.4862  -22.2287 O   0  0  0  0  0  0  0  0  0  0  0  0
  -16.1921   12.8403  -21.7150 N   0  0  0  0  0  0  0  0  0  0  0  0
  -15.3281   12.8338  -21.1513 H   0  0  0  0  0  0  0  0  0  0  0  0
  -15.9700   13.5559  -23.3093 S   0  0  0  0  0  0  0  0  0  0  0  0
  -16.4629   12.6293  -24.3746 O   0  0  0  0  0  0  0  0  0  0  0  0
  -14.5345   13.8578  -23.5632 O   0  0  0  0  0  0  0  0  0  0  0  0
  -16.9523   15.0279  -23.2903 C   0  0  0  0  0  0  0  0  0  0  0  0
  -17.9511   15.2273  -24.2067 C   0  0  0  0  0  0  0  0  0  0  0  0
  -18.7200   16.3825  -24.1824 C   0  0  0  0  0  0  0  0  0  0  0  0
  -18.5214   17.3918  -23.2377 C   0  0  0  0  0  0  0  0  0  0  0  0
  -17.5198   17.1868  -22.3213 C   0  0  0  0  0  0  0  0  0  0  0  0
  -16.7451   16.0043  -22.3587 C   0  0  0  0  0  0  0  0  0  0  0  0
  -17.1953   18.1233  -21.3119 N   0  0  0  0  0  0  0  0  0  0  0  0
  -17.9426   19.1461  -20.8432 O   0  0  0  0  0  0  0  0  0  0  0  0
  -16.0456   17.9915  -20.7735 O   0  0  0  0  0  0  0  0  0  0  0  0
  -19.3381   18.5522  -23.2413 N   0  0  0  0  0  0  0  0  0  0  0  0
  -18.9712   19.5354  -23.2851 H   0  0  0  0  0  0  0  0  0  0  0  0
  -20.7971   18.4608  -23.1883 C   0  0  0  0  0  0  0  0  0  0  0  0
  -21.2975   18.6127  -21.7865 C   0  0  0  0  0  0  0  0  0  0  0  0
  -21.3817   17.2173  -21.1836 C   0  0  0  0  0  0  0  0  0  0  0  0
  -22.3383   17.1829  -20.0278 C   0  0  0  0  0  0  0  0  0  0  0  0
  -23.6054   17.5704  -20.5219 O   0  0  0  0  0  0  0  0  0  0  0  0
  -23.5593   18.9567  -20.7197 C   0  0  0  0  0  0  0  0  0  0  0  0
  -22.6203   19.3217  -21.8221 C   0  0  0  0  0  0  0  0  0  0  0  0
  -19.5037   13.4176  -19.7040 O   0  0  0  0  0  0  0  0  0  0  0  0
  -19.3909   14.5444  -18.9219 C   0  0  0  0  0  0  0  0  0  0  0  0
  -18.3621   15.4383  -19.1012 C   0  0  0  0  0  0  0  0  0  0  0  0
  -18.2414   16.5838  -18.3116 C   0  0  0  0  0  0  0  0  0  0  0  0
  -19.1645   16.8404  -17.3259 C   0  0  0  0  0  0  0  0  0  0  0  0
  -20.1997   15.9545  -17.1350 C   0  0  0  0  0  0  0  0  0  0  0  0
  -20.3119   14.8264  -17.9183 C   0  0  0  0  0  0  0  0  0  0  0  0
 14 15  1  0  0  0
 15 16  1  0  0  0
 15 17  1  0  0  0
 17 18  1  0  0  0
 18 19  1  0  0  0
 19 13  1  0  0  0
 13  7  1  0  0  0
  7  8  1  0  0  0
  8  9  1  0  0  0
  9 10  1  0  0  0
 10 11  1  0  0  0
 11 12  1  0  0  0
 10  1  1  0  0  0
  1  2  2  0  0  0
  2  3  1  0  0  0
  3  4  2  0  0  0
  4 29  1  0  0  0
 29 30  2  0  0  0
 29 31  1  0  0  0
 31 33  1  0  0  0
 33 34  2  0  0  0
 33 35  2  0  0  0
 33 36  1  0  0  0
 36 37  2  0  0  0
 37 38  1  0  0  0
 38 39  2  0  0  0
 39 45  1  0  0  0
 45 47  1  0  0  0
 47 48  1  0  0  0
 48 49  1  0  0  0
 49 50  1  0  0  0
 50 51  1  0  0  0
 51 52  1  0  0  0
 52 53  1  0  0  0
 39 40  1  0  0  0
 40 41  2  0  0  0
 40 42  1  0  0  0
 42 43  1  0  0  0
 42 44  2  0  0  0
  4  5  1  0  0  0
  5 54  1  0  0  0
 54 55  1  0  0  0
 55 56  2  0  0  0
 56 57  1  0  0  0
 57 58  2  0  0  0
 58 59  1  0  0  0
 59 60  2  0  0  0
  5  6  2  0  0  0
 19 20  2  0  0  0
 20 21  1  0  0  0
 20 22  1  0  0  0
 22 23  2  0  0  0
 23 24  1  0  0  0
 24 25  2  0  0  0
 25 26  1  0  0  0
 25 27  1  0  0  0
 27 28  2  0  0  0
 21 15  1  0  0  0
 28 22  1  0  0  0
 12  7  1  0  0  0
  6  1  1  0  0  0
 41 36  1  0  0  0
 60 55  1  0  0  0
 53 48  1  0  0  0
 31 32  1  0  0  0
 45 46  1  0  0  0
M  CHG 1  42   1
M  CHG 1  43  -1
M  END
> <minimizedAffinity>
-8.65986

> <CNNscore>
0.0988568291

> <CNNaffinity>
7.3348045349

> <CNN_VS>
0.7250955105

> <CNNaffinity_variance>
0.5751568079

$$$$
[H]c1c([H])c([H])c(Oc2c([H])c(N3C([H])([H])C([H])([H])N(C([H])([H])C4=C(c5c([H])c([H])c(Cl)c([H])c5[H])C([H])([H])C(C([H])([H])[H])(C([H])([H])[H])C([H])([H])C4([H])[H])C([H])([H])C3([H])[H])c([H])c([H])c2C(=O)N([H])S(=O)(=O)c2c([H])c([H])c(N([H])C([H])([H])C3([H])C([H])([H])C([H])([H])OC([H])([H])C3([H])[H])c([N+](=O)[O-])c2[H])c([H])c1[H]


 60 66  0  0  0  0  0  0  0  0999 V2000
  -20.4046   11.9024  -16.1567 C   0  0  0  0  0  0  0  0  0  0  0  0
  -21.2333   12.8977  -15.6838 C   0  0  0  0  0  0  0  0  0  0  0  0
  -21.4485   14.0374  -16.4258 C   0  0  0  0  0  0  0  0  0  0  0  0
  -20.8453   14.2406  -17.6805 C   0  0  0  0  0  0  0  0  0  0  0  0
  -20.0291   13.2430  -18.1269 C   0  0  0  0  0  0  0  0  0  0  0  0
  -19.7973   12.0696  -17.3814 C   0  0  0  0  0  0  0  0  0  0  0  0
  -19.9434    8.2954  -13.8264 N   0  0  0  0  0  0  0  0  0  0  0  0
  -20.5892    8.4323  -15.1488 C   0  0  0  0  0  0  0  0  0  0  0  0
  -19.8183    9.4370  -16.0002 C   0  0  0  0  0  0  0  0  0  0  0  0
  -20.1860   10.7355  -15.4159 N   0  0  0  0  0  0  0  0  0  0  0  0
  -20.3223   10.7463  -13.9764 C   0  0  0  0  0  0  0  0  0  0  0  0
  -19.4581    9.6369  -13.4353 C   0  0  0  0  0  0  0  0  0  0  0  0
  -20.9756    7.8644  -12.9387 C   0  0  0  0  0  0  0  0  0  0  0  0
  -18.9060   10.3808   -9.2277 C   0  0  0  0  0  0  0  0  0  0  0  0
  -20.2874    9.7522   -9.2209 C   0  0  0  0  0  0  0  0  0  0  0  0
  -20.9648   10.2125   -7.9305 C   0  0  0  0  0  0  0  0  0  0  0  0
  -21.0335   10.2520  -10.4213 C   0  0  0  0  0  0  0  0  0  0  0  0
  -21.9030    9.1743  -11.0195 C   0  0  0  0  0  0  0  0  0  0  0  0
  -20.8953    8.1105  -11.5260 C   0  0  0  0  0  0  0  0  0  0  0  0
  -20.0769    7.6793  -10.6044 C   0  0  0  0  0  0  0  0  0  0  0  0
  -20.2108    8.2702   -9.2043 C   0  0  0  0  0  0  0  0  0  0  0  0
  -19.1343    6.6072  -10.7630 C   0  0  0  0  0  0  0  0  0  0  0  0
  -19.5524    5.3032  -10.8895 C   0  0  0  0  0  0  0  0  0  0  0  0
  -18.6687    4.2638  -11.1206 C   0  0  0  0  0  0  0  0  0  0  0  0
  -17.3143    4.5135  -11.2324 C   0  0  0  0  0  0  0  0  0  0  0  0
  -16.1960    3.2122  -11.5217 Cl  0  0  0  0  0  0  0  0  0  0  0  0
  -16.8736    5.8022  -11.1104 C   0  0  0  0  0  0  0  0  0  0  0  0
  -17.7846    6.8394  -10.8769 C   0  0  0  0  0  0  0  0  0  0  0  0
  -21.0986   15.4335  -18.4440 C   0  0  0  0  0  0  0  0  0  0  0  0
  -20.6026   16.5164  -17.9134 O   0  0  0  0  0  0  0  0  0  0  0  0
  -21.7783   15.6113  -19.6381 N   0  0  0  0  0  0  0  0  0  0  0  0
  -22.2336   14.8810  -20.2071 H   0  0  0  0  0  0  0  0  0  0  0  0
  -21.9312   17.2226  -20.3334 S   0  0  0  0  0  0  0  0  0  0  0  0
  -21.9141   18.2625  -19.2588 O   0  0  0  0  0  0  0  0  0  0  0  0
  -23.1970   17.3524  -21.1060 O   0  0  0  0  0  0  0  0  0  0  0  0
  -20.5109   17.4082  -21.3729 C   0  0  0  0  0  0  0  0  0  0  0  0
  -20.6386   17.7137  -22.7024 C   0  0  0  0  0  0  0  0  0  0  0  0
  -19.5197   17.8618  -23.5100 C   0  0  0  0  0  0  0  0  0  0  0  0
  -18.2204   17.7090  -23.0210 C   0  0  0  0  0  0  0  0  0  0  0  0
  -18.0979   17.4035  -21.6881 C   0  0  0  0  0  0  0  0  0  0  0  0
  -19.2476   17.2561  -20.8779 C   0  0  0  0  0  0  0  0  0  0  0  0
  -16.8485   17.2092  -21.0537 N   0  0  0  0  0  0  0  0  0  0  0  0
  -16.2791   16.0506  -20.6565 O   0  0  0  0  0  0  0  0  0  0  0  0
  -16.1683   18.2637  -20.8200 O   0  0  0  0  0  0  0  0  0  0  0  0
  -17.1034   17.8807  -23.8790 N   0  0  0  0  0  0  0  0  0  0  0  0
  -16.5384   18.7636  -23.9474 H   0  0  0  0  0  0  0  0  0  0  0  0
  -16.6388   16.8050  -24.7546 C   0  0  0  0  0  0  0  0  0  0  0  0
  -16.7648   15.4722  -24.0867 C   0  0  0  0  0  0  0  0  0  0  0  0
  -15.3573   14.9174  -23.9169 C   0  0  0  0  0  0  0  0  0  0  0  0
  -15.3776   13.4245  -23.7653 C   0  0  0  0  0  0  0  0  0  0  0  0
  -15.9657   12.8931  -24.9363 O   0  0  0  0  0  0  0  0  0  0  0  0
  -17.3429   13.1354  -24.8469 C   0  0  0  0  0  0  0  0  0  0  0  0
  -17.6482   14.5951  -24.9258 C   0  0  0  0  0  0  0  0  0  0  0  0
  -19.3915   13.3502  -19.3455 O   0  0  0  0  0  0  0  0  0  0  0  0
  -18.3684   12.4860  -19.6621 C   0  0  0  0  0  0  0  0  0  0  0  0
  -17.5594   11.9495  -18.6888 C   0  0  0  0  0  0  0  0  0  0  0  0
  -16.5196   11.0718  -19.0026 C   0  0  0  0  0  0  0  0  0  0  0  0
  -16.2840   10.7242  -20.3115 C   0  0  0  0  0  0  0  0  0  0  0  0
  -17.0857   11.2534  -21.2964 C   0  0  0  0  0  0  0  0  0  0  0  0
  -18.1098   12.1188  -20.9787 C   0  0  0  0  0  0  0  0  0  0  0  0
 14 15  1  0  0  0
 15 16  1  0  0  0
 15 17  1  0  0  0
 17 18  1  0  0  0
 18 19  1  0  0  0
 19 13  1  0  0  0
 13  7  1  0  0  0
  7  8  1  0  0  0
  8  9  1  0  0  0
  9 10  1  0  0  0
 10 11  1  0  0  0
 11 12  1  0  0  0
 10  1  1  0  0  0
  1  2  2  0  0  0
  2  3  1  0  0  0
  3  4  2  0  0  0
  4 29  1  0  0  0
 29 30  2  0  0  0
 29 31  1  0  0  0
 31 33  1  0  0  0
 33 34  2  0  0  0
 33 35  2  0  0  0
 33 36  1  0  0  0
 36 37  2  0  0  0
 37 38  1  0  0  0
 38 39  2  0  0  0
 39 45  1  0  0  0
 45 47  1  0  0  0
 47 48  1  0  0  0
 48 49  1  0  0  0
 49 50  1  0  0  0
 50 51  1  0  0  0
 51 52  1  0  0  0
 52 53  1  0  0  0
 39 40  1  0  0  0
 40 41  2  0  0  0
 40 42  1  0  0  0
 42 43  1  0  0  0
 42 44  2  0  0  0
  4  5  1  0  0  0
  5 54  1  0  0  0
 54 55  1  0  0  0
 55 56  2  0  0  0
 56 57  1  0  0  0
 57 58  2  0  0  0
 58 59  1  0  0  0
 59 60  2  0  0  0
  5  6  2  0  0  0
 19 20  2  0  0  0
 20 21  1  0  0  0
 20 22  1  0  0  0
 22 23  2  0  0  0
 23 24  1  0  0  0
 24 25  2  0  0  0
 25 26  1  0  0  0
 25 27  1  0  0  0
 27 28  2  0  0  0
 21 15  1  0  0  0
 28 22  1  0  0  0
 12  7  1  0  0  0
  6  1  1  0  0  0
 41 36  1  0  0  0
 60 55  1  0  0  0
 53 48  1  0  0  0
 31 32  1  0  0  0
 45 46  1  0  0  0
M  CHG 1  42   1
M  CHG 1  43  -1
M  END
> <minimizedAffinity>
-9.75797

> <CNNscore>
0.0978494734

> <CNNaffinity>
7.2209968567

> <CNN_VS>
0.7065707445

> <CNNaffinity_variance>
0.7751780748

$$$$
[H]c1c([H])c([H])c(Oc2c([H])c(N3C([H])([H])C([H])([H])N(C([H])([H])C4=C(c5c([H])c([H])c(Cl)c([H])c5[H])C([H])([H])C(C([H])([H])[H])(C([H])([H])[H])C([H])([H])C4([H])[H])C([H])([H])C3([H])[H])c([H])c([H])c2C(=O)N([H])S(=O)(=O)c2c([H])c([H])c(N([H])C([H])([H])C3([H])C([H])([H])C([H])([H])OC([H])([H])C3([H])[H])c([N+](=O)[O-])c2[H])c([H])c1[H]


 60 66  0  0  0  0  0  0  0  0999 V2000
  -20.1250   11.3117  -16.0212 C   0  0  0  0  0  0  0  0  0  0  0  0
  -21.2296   12.0634  -15.6809 C   0  0  0  0  0  0  0  0  0  0  0  0
  -21.4550   13.2826  -16.2797 C   0  0  0  0  0  0  0  0  0  0  0  0
  -20.5862   13.8135  -17.2507 C   0  0  0  0  0  0  0  0  0  0  0  0
  -19.5002   13.0524  -17.5702 C   0  0  0  0  0  0  0  0  0  0  0  0
  -19.2534   11.8022  -16.9679 C   0  0  0  0  0  0  0  0  0  0  0  0
  -19.6151    7.4564  -14.1421 N   0  0  0  0  0  0  0  0  0  0  0  0
  -20.2684    7.7438  -15.4364 C   0  0  0  0  0  0  0  0  0  0  0  0
  -19.5121    8.8519  -16.1636 C   0  0  0  0  0  0  0  0  0  0  0  0
  -19.8907   10.0668  -15.4265 N   0  0  0  0  0  0  0  0  0  0  0  0
  -20.0205    9.9033  -13.9956 C   0  0  0  0  0  0  0  0  0  0  0  0
  -19.1422    8.7466  -13.5944 C   0  0  0  0  0  0  0  0  0  0  0  0
  -20.6387    6.9108  -13.3091 C   0  0  0  0  0  0  0  0  0  0  0  0
  -22.2339    3.5782  -10.0324 C   0  0  0  0  0  0  0  0  0  0  0  0
  -21.5668    3.2767  -11.3619 C   0  0  0  0  0  0  0  0  0  0  0  0
  -21.6623    1.7643  -11.5596 C   0  0  0  0  0  0  0  0  0  0  0  0
  -22.3188    4.0026  -12.4367 C   0  0  0  0  0  0  0  0  0  0  0  0
  -21.3891    4.5318  -13.5001 C   0  0  0  0  0  0  0  0  0  0  0  0
  -20.5279    5.5879  -12.7608 C   0  0  0  0  0  0  0  0  0  0  0  0
  -19.9148    5.1228  -11.7060 C   0  0  0  0  0  0  0  0  0  0  0  0
  -20.1319    3.6556  -11.3490 C   0  0  0  0  0  0  0  0  0  0  0  0
  -18.9562    5.8425  -10.9148 C   0  0  0  0  0  0  0  0  0  0  0  0
  -17.6068    5.7352  -11.1578 C   0  0  0  0  0  0  0  0  0  0  0  0
  -16.6698    6.4772  -10.4607 C   0  0  0  0  0  0  0  0  0  0  0  0
  -17.0732    7.3641   -9.4809 C   0  0  0  0  0  0  0  0  0  0  0  0
  -15.9017    8.3002   -8.5985 Cl  0  0  0  0  0  0  0  0  0  0  0  0
  -18.4099    7.4889   -9.2206 C   0  0  0  0  0  0  0  0  0  0  0  0
  -19.3415    6.7288   -9.9378 C   0  0  0  0  0  0  0  0  0  0  0  0
  -20.8521   15.0829  -17.8736 C   0  0  0  0  0  0  0  0  0  0  0  0
  -20.2663   16.0912  -17.2902 O   0  0  0  0  0  0  0  0  0  0  0  0
  -21.6231   15.3993  -18.9803 N   0  0  0  0  0  0  0  0  0  0  0  0
  -22.1565   14.7440  -19.5722 H   0  0  0  0  0  0  0  0  0  0  0  0
  -21.7651   17.0748  -19.5052 S   0  0  0  0  0  0  0  0  0  0  0  0
  -21.5404   18.0062  -18.3570 O   0  0  0  0  0  0  0  0  0  0  0  0
  -23.1114   17.3409  -20.0820 O   0  0  0  0  0  0  0  0  0  0  0  0
  -20.4862   17.2859  -20.7103 C   0  0  0  0  0  0  0  0  0  0  0  0
  -20.7812   17.5868  -22.0139 C   0  0  0  0  0  0  0  0  0  0  0  0
  -19.7724   17.7550  -22.9521 C   0  0  0  0  0  0  0  0  0  0  0  0
  -18.4204   17.6280  -22.6256 C   0  0  0  0  0  0  0  0  0  0  0  0
  -18.1302   17.3270  -21.3178 C   0  0  0  0  0  0  0  0  0  0  0  0
  -19.1692   17.1589  -20.3734 C   0  0  0  0  0  0  0  0  0  0  0  0
  -16.8091   17.1577  -20.8409 N   0  0  0  0  0  0  0  0  0  0  0  0
  -16.1556   16.0078  -20.5671 O   0  0  0  0  0  0  0  0  0  0  0  0
  -16.1451   18.2286  -20.6371 O   0  0  0  0  0  0  0  0  0  0  0  0
  -17.4200   17.8197  -23.6135 N   0  0  0  0  0  0  0  0  0  0  0  0
  -16.8201   18.6784  -23.6909 H   0  0  0  0  0  0  0  0  0  0  0  0
  -17.1383   16.8009  -24.6246 C   0  0  0  0  0  0  0  0  0  0  0  0
  -17.0960   15.4341  -24.0175 C   0  0  0  0  0  0  0  0  0  0  0  0
  -15.6305   15.0427  -23.8881 C   0  0  0  0  0  0  0  0  0  0  0  0
  -15.4726   13.5527  -23.8052 C   0  0  0  0  0  0  0  0  0  0  0  0
  -16.0124   13.0080  -24.9933 O   0  0  0  0  0  0  0  0  0  0  0  0
  -17.4070   13.0816  -24.8785 C   0  0  0  0  0  0  0  0  0  0  0  0
  -17.8832   14.4970  -24.8870 C   0  0  0  0  0  0  0  0  0  0  0  0
  -18.5900   13.4881  -18.5108 O   0  0  0  0  0  0  0  0  0  0  0  0
  -17.9532   12.5767  -19.3219 C   0  0  0  0  0  0  0  0  0  0  0  0
  -16.9938   11.7265  -18.8256 C   0  0  0  0  0  0  0  0  0  0  0  0
  -16.3438   10.7991  -19.6426 C   0  0  0  0  0  0  0  0  0  0  0  0
  -16.6578   10.7200  -20.9786 C   0  0  0  0  0  0  0  0  0  0  0  0
  -17.6161   11.5647  -21.4894 C   0  0  0  0  0  0  0  0  0  0  0  0
  -18.2531   12.4771  -20.6766 C   0  0  0  0  0  0  0  0  0  0  0  0
 14 15  1  0  0  0
 15 16  1  0  0  0
 15 17  1  0  0  0
 17 18  1  0  0  0
 18 19  1  0  0  0
 19 13  1  0  0  0
 13  7  1  0  0  0
  7  8  1  0  0  0
  8  9  1  0  0  0
  9 10  1  0  0  0
 10 11  1  0  0  0
 11 12  1  0  0  0
 10  1  1  0  0  0
  1  2  2  0  0  0
  2  3  1  0  0  0
  3  4  2  0  0  0
  4 29  1  0  0  0
 29 30  2  0  0  0
 29 31  1  0  0  0
 31 33  1  0  0  0
 33 34  2  0  0  0
 33 35  2  0  0  0
 33 36  1  0  0  0
 36 37  2  0  0  0
 37 38  1  0  0  0
 38 39  2  0  0  0
 39 45  1  0  0  0
 45 47  1  0  0  0
 47 48  1  0  0  0
 48 49  1  0  0  0
 49 50  1  0  0  0
 50 51  1  0  0  0
 51 52  1  0  0  0
 52 53  1  0  0  0
 39 40  1  0  0  0
 40 41  2  0  0  0
 40 42  1  0  0  0
 42 43  1  0  0  0
 42 44  2  0  0  0
  4  5  1  0  0  0
  5 54  1  0  0  0
 54 55  1  0  0  0
 55 56  2  0  0  0
 56 57  1  0  0  0
 57 58  2  0  0  0
 58 59  1  0  0  0
 59 60  2  0  0  0
  5  6  2  0  0  0
 19 20  2  0  0  0
 20 21  1  0  0  0
 20 22  1  0  0  0
 22 23  2  0  0  0
 23 24  1  0  0  0
 24 25  2  0  0  0
 25 26  1  0  0  0
 25 27  1  0  0  0
 27 28  2  0  0  0
 21 15  1  0  0  0
 28 22  1  0  0  0
 12  7  1  0  0  0
  6  1  1  0  0  0
 41 36  1  0  0  0
 60 55  1  0  0  0
 53 48  1  0  0  0
 31 32  1  0  0  0
 45 46  1  0  0  0
M  CHG 1  42   1
M  CHG 1  43  -1
M  END
> <minimizedAffinity>
-9.59746

> <CNNscore>
0.0939003527

> <CNNaffinity>
7.0833396912

> <CNN_VS>
0.6651281118

> <CNNaffinity_variance>
0.8365136385

$$$$
[H]c1c([H])c([H])c(Oc2c([H])c(N3C([H])([H])C([H])([H])N(C([H])([H])C4=C(c5c([H])c([H])c(Cl)c([H])c5[H])C([H])([H])C(C([H])([H])[H])(C([H])([H])[H])C([H])([H])C4([H])[H])C([H])([H])C3([H])[H])c([H])c([H])c2C(=O)N([H])S(=O)(=O)c2c([H])c([H])c(N([H])C([H])([H])C3([H])C([H])([H])C([H])([H])OC([H])([H])C3([H])[H])c([N+](=O)[O-])c2[H])c([H])c1[H]


 60 66  0  0  0  0  0  0  0  0999 V2000
  -19.6014   17.7152  -19.9497 C   0  0  0  0  0  0  0  0  0  0  0  0
  -20.4005   16.7889  -19.3139 C   0  0  0  0  0  0  0  0  0  0  0  0
  -20.0427   15.4596  -19.2881 C   0  0  0  0  0  0  0  0  0  0  0  0
  -18.8659   14.9876  -19.8978 C   0  0  0  0  0  0  0  0  0  0  0  0
  -18.0921   15.9220  -20.5213 C   0  0  0  0  0  0  0  0  0  0  0  0
  -18.4422   17.2868  -20.5576 C   0  0  0  0  0  0  0  0  0  0  0  0
  -20.7869   21.8601  -20.2092 N   0  0  0  0  0  0  0  0  0  0  0  0
  -21.6452   20.7003  -19.8890 C   0  0  0  0  0  0  0  0  0  0  0  0
  -20.8735   19.7080  -19.0240 C   0  0  0  0  0  0  0  0  0  0  0  0
  -19.9497   19.0703  -19.9741 N   0  0  0  0  0  0  0  0  0  0  0  0
  -19.3999   19.9492  -20.9821 C   0  0  0  0  0  0  0  0  0  0  0  0
  -19.4156   21.3458  -20.4169 C   0  0  0  0  0  0  0  0  0  0  0  0
  -21.3045   22.3951  -21.4279 C   0  0  0  0  0  0  0  0  0  0  0  0
  -20.6221   24.4940  -25.8456 C   0  0  0  0  0  0  0  0  0  0  0  0
  -19.5313   24.0185  -24.9035 C   0  0  0  0  0  0  0  0  0  0  0  0
  -18.2069   24.4872  -25.5051 C   0  0  0  0  0  0  0  0  0  0  0  0
  -19.7619   24.6525  -23.5647 C   0  0  0  0  0  0  0  0  0  0  0  0
  -19.4282   23.7045  -22.4399 C   0  0  0  0  0  0  0  0  0  0  0  0
  -20.4680   22.5636  -22.5832 C   0  0  0  0  0  0  0  0  0  0  0  0
  -20.4759   22.0032  -23.7626 C   0  0  0  0  0  0  0  0  0  0  0  0
  -19.5021   22.5377  -24.8082 C   0  0  0  0  0  0  0  0  0  0  0  0
  -21.2415   20.8445  -24.1291 C   0  0  0  0  0  0  0  0  0  0  0  0
  -22.2102   20.9089  -25.1032 C   0  0  0  0  0  0  0  0  0  0  0  0
  -22.9062   19.7907  -25.5272 C   0  0  0  0  0  0  0  0  0  0  0  0
  -22.6412   18.5537  -24.9714 C   0  0  0  0  0  0  0  0  0  0  0  0
  -23.5126   17.1426  -25.4978 Cl  0  0  0  0  0  0  0  0  0  0  0  0
  -21.6822   18.4636  -24.0009 C   0  0  0  0  0  0  0  0  0  0  0  0
  -20.9893   19.6075  -23.5864 C   0  0  0  0  0  0  0  0  0  0  0  0
  -18.5058   13.5957  -19.8434 C   0  0  0  0  0  0  0  0  0  0  0  0
  -19.2975   12.8175  -20.5275 O   0  0  0  0  0  0  0  0  0  0  0  0
  -17.4649   12.9595  -19.1867 N   0  0  0  0  0  0  0  0  0  0  0  0
  -16.7378   13.4012  -18.6031 H   0  0  0  0  0  0  0  0  0  0  0  0
  -17.2864   11.2110  -19.3048 S   0  0  0  0  0  0  0  0  0  0  0  0
  -15.8739   10.8069  -19.0259 O   0  0  0  0  0  0  0  0  0  0  0  0
  -17.6649   10.7265  -20.6606 O   0  0  0  0  0  0  0  0  0  0  0  0
  -18.3571   10.5571  -18.0564 C   0  0  0  0  0  0  0  0  0  0  0  0
  -18.2304    9.2656  -17.6171 C   0  0  0  0  0  0  0  0  0  0  0  0
  -19.0712    8.7616  -16.6346 C   0  0  0  0  0  0  0  0  0  0  0  0
  -20.0790    9.5303  -16.0481 C   0  0  0  0  0  0  0  0  0  0  0  0
  -20.2013   10.8239  -16.4914 C   0  0  0  0  0  0  0  0  0  0  0  0
  -19.3368   11.3232  -17.4930 C   0  0  0  0  0  0  0  0  0  0  0  0
  -21.1806   11.7180  -15.9987 N   0  0  0  0  0  0  0  0  0  0  0  0
  -22.2534   11.4457  -15.2246 O   0  0  0  0  0  0  0  0  0  0  0  0
  -21.0390   12.9427  -16.3296 O   0  0  0  0  0  0  0  0  0  0  0  0
  -20.9094    8.9791  -15.0381 N   0  0  0  0  0  0  0  0  0  0  0  0
  -20.8557    9.2358  -14.0209 H   0  0  0  0  0  0  0  0  0  0  0  0
  -21.9370    7.9861  -15.3502 C   0  0  0  0  0  0  0  0  0  0  0  0
  -21.5116    6.6162  -14.9252 C   0  0  0  0  0  0  0  0  0  0  0  0
  -21.8310    5.6679  -16.0726 C   0  0  0  0  0  0  0  0  0  0  0  0
  -21.9512    4.2525  -15.5887 C   0  0  0  0  0  0  0  0  0  0  0  0
  -22.9958    4.2233  -14.6360 O   0  0  0  0  0  0  0  0  0  0  0  0
  -22.4957    4.8076  -13.4648 C   0  0  0  0  0  0  0  0  0  0  0  0
  -22.2248    6.2642  -13.6520 C   0  0  0  0  0  0  0  0  0  0  0  0
  -16.9192   15.5566  -21.1487 O   0  0  0  0  0  0  0  0  0  0  0  0
  -16.8207   15.6378  -22.5190 C   0  0  0  0  0  0  0  0  0  0  0  0
  -15.9637   16.5274  -23.1221 C   0  0  0  0  0  0  0  0  0  0  0  0
  -15.8583   16.6151  -24.5118 C   0  0  0  0  0  0  0  0  0  0  0  0
  -16.6223   15.7998  -25.3126 C   0  0  0  0  0  0  0  0  0  0  0  0
  -17.4845   14.9045  -24.7228 C   0  0  0  0  0  0  0  0  0  0  0  0
  -17.5828   14.8240  -23.3508 C   0  0  0  0  0  0  0  0  0  0  0  0
 14 15  1  0  0  0
 15 16  1  0  0  0
 15 17  1  0  0  0
 17 18  1  0  0  0
 18 19  1  0  0  0
 19 13  1  0  0  0
 13  7  1  0  0  0
  7  8  1  0  0  0
  8  9  1  0  0  0
  9 10  1  0  0  0
 10 11  1  0  0  0
 11 12  1  0  0  0
 10  1  1  0  0  0
  1  2  2  0  0  0
  2  3  1  0  0  0
  3  4  2  0  0  0
  4 29  1  0  0  0
 29 30  2  0  0  0
 29 31  1  0  0  0
 31 33  1  0  0  0
 33 34  2  0  0  0
 33 35  2  0  0  0
 33 36  1  0  0  0
 36 37  2  0  0  0
 37 38  1  0  0  0
 38 39  2  0  0  0
 39 45  1  0  0  0
 45 47  1  0  0  0
 47 48  1  0  0  0
 48 49  1  0  0  0
 49 50  1  0  0  0
 50 51  1  0  0  0
 51 52  1  0  0  0
 52 53  1  0  0  0
 39 40  1  0  0  0
 40 41  2  0  0  0
 40 42  1  0  0  0
 42 43  1  0  0  0
 42 44  2  0  0  0
  4  5  1  0  0  0
  5 54  1  0  0  0
 54 55  1  0  0  0
 55 56  2  0  0  0
 56 57  1  0  0  0
 57 58  2  0  0  0
 58 59  1  0  0  0
 59 60  2  0  0  0
  5  6  2  0  0  0
 19 20  2  0  0  0
 20 21  1  0  0  0
 20 22  1  0  0  0
 22 23  2  0  0  0
 23 24  1  0  0  0
 24 25  2  0  0  0
 25 26  1  0  0  0
 25 27  1  0  0  0
 27 28  2  0  0  0
 21 15  1  0  0  0
 28 22  1  0  0  0
 12  7  1  0  0  0
  6  1  1  0  0  0
 41 36  1  0  0  0
 60 55  1  0  0  0
 53 48  1  0  0  0
 31 32  1  0  0  0
 45 46  1  0  0  0
M  CHG 1  42   1
M  CHG 1  43  -1
M  END
> <minimizedAffinity>
-9.96475

> <CNNscore>
0.0892547071

> <CNNaffinity>
7.3732423782

> <CNN_VS>
0.6580966115

> <CNNaffinity_variance>
0.6803804636

$$$$
[H]c1c([H])c([H])c(Oc2c([H])c(N3C([H])([H])C([H])([H])N(C([H])([H])C4=C(c5c([H])c([H])c(Cl)c([H])c5[H])C([H])([H])C(C([H])([H])[H])(C([H])([H])[H])C([H])([H])C4([H])[H])C([H])([H])C3([H])[H])c([H])c([H])c2C(=O)N([H])S(=O)(=O)c2c([H])c([H])c(N([H])C([H])([H])C3([H])C([H])([H])C([H])([H])OC([H])([H])C3([H])[H])c([N+](=O)[O-])c2[H])c([H])c1[H]


 60 66  0  0  0  0  0  0  0  0999 V2000
  -19.4645   12.3072  -17.0971 C   0  0  0  0  0  0  0  0  0  0  0  0
  -19.2300   13.6224  -16.7564 C   0  0  0  0  0  0  0  0  0  0  0  0
  -18.8124   14.5258  -17.7079 C   0  0  0  0  0  0  0  0  0  0  0  0
  -18.6076   14.1598  -19.0509 C   0  0  0  0  0  0  0  0  0  0  0  0
  -18.8451   12.8535  -19.3638 C   0  0  0  0  0  0  0  0  0  0  0  0
  -19.2730   11.9150  -18.4033 C   0  0  0  0  0  0  0  0  0  0  0  0
  -20.9860    9.5703  -14.1225 N   0  0  0  0  0  0  0  0  0  0  0  0
  -21.4755    9.7552  -15.5048 C   0  0  0  0  0  0  0  0  0  0  0  0
  -20.2972    9.9995  -16.4432 C   0  0  0  0  0  0  0  0  0  0  0  0
  -19.8984   11.3823  -16.1408 N   0  0  0  0  0  0  0  0  0  0  0  0
  -19.9863   11.7575  -14.7471 C   0  0  0  0  0  0  0  0  0  0  0  0
  -19.8485   10.4969  -13.9333 C   0  0  0  0  0  0  0  0  0  0  0  0
  -22.0746    9.9443  -13.2772 C   0  0  0  0  0  0  0  0  0  0  0  0
  -24.1327    9.5428   -8.8062 C   0  0  0  0  0  0  0  0  0  0  0  0
  -24.1454    8.4851   -9.8946 C   0  0  0  0  0  0  0  0  0  0  0  0
  -25.0697    7.3715   -9.4036 C   0  0  0  0  0  0  0  0  0  0  0  0
  -24.6834    9.1102  -11.1466 C   0  0  0  0  0  0  0  0  0  0  0  0
  -23.9740    8.5907  -12.3722 C   0  0  0  0  0  0  0  0  0  0  0  0
  -22.5161    9.0922  -12.2088 C   0  0  0  0  0  0  0  0  0  0  0  0
  -21.9590    8.7341  -11.0834 C   0  0  0  0  0  0  0  0  0  0  0  0
  -22.7945    7.9091  -10.1095 C   0  0  0  0  0  0  0  0  0  0  0  0
  -20.5835    8.9486  -10.7297 C   0  0  0  0  0  0  0  0  0  0  0  0
  -20.2017   10.0359   -9.9791 C   0  0  0  0  0  0  0  0  0  0  0  0
  -18.8959   10.2224   -9.5610 C   0  0  0  0  0  0  0  0  0  0  0  0
  -17.9204    9.3021   -9.8937 C   0  0  0  0  0  0  0  0  0  0  0  0
  -16.2757    9.5295   -9.3732 Cl  0  0  0  0  0  0  0  0  0  0  0  0
  -18.2751    8.2123  -10.6395 C   0  0  0  0  0  0  0  0  0  0  0  0
  -19.6021    8.0424  -11.0522 C   0  0  0  0  0  0  0  0  0  0  0  0
  -18.1862   15.1261  -20.0300 C   0  0  0  0  0  0  0  0  0  0  0  0
  -18.6544   14.9051  -21.2268 O   0  0  0  0  0  0  0  0  0  0  0  0
  -17.3714   16.2395  -19.9041 N   0  0  0  0  0  0  0  0  0  0  0  0
  -16.9133   16.5786  -19.0442 H   0  0  0  0  0  0  0  0  0  0  0  0
  -17.0259   17.2420  -21.3109 S   0  0  0  0  0  0  0  0  0  0  0  0
  -16.7452   16.3899  -22.5073 O   0  0  0  0  0  0  0  0  0  0  0  0
  -15.8514   18.1223  -21.0630 O   0  0  0  0  0  0  0  0  0  0  0  0
  -18.5016   18.1827  -21.5749 C   0  0  0  0  0  0  0  0  0  0  0  0
  -19.6788   17.8450  -20.9607 C   0  0  0  0  0  0  0  0  0  0  0  0
  -20.8307   18.5904  -21.1695 C   0  0  0  0  0  0  0  0  0  0  0  0
  -20.8549   19.7090  -22.0056 C   0  0  0  0  0  0  0  0  0  0  0  0
  -19.6725   20.0435  -22.6181 C   0  0  0  0  0  0  0  0  0  0  0  0
  -18.5070   19.2743  -22.3951 C   0  0  0  0  0  0  0  0  0  0  0  0
  -19.5451   21.1431  -23.4989 N   0  0  0  0  0  0  0  0  0  0  0  0
  -19.7136   22.4566  -23.2329 O   0  0  0  0  0  0  0  0  0  0  0  0
  -19.2345   20.8626  -24.7047 O   0  0  0  0  0  0  0  0  0  0  0  0
  -22.0519   20.4502  -22.1822 N   0  0  0  0  0  0  0  0  0  0  0  0
  -22.2244   21.4035  -21.7762 H   0  0  0  0  0  0  0  0  0  0  0  0
  -23.1662   19.9267  -22.9720 C   0  0  0  0  0  0  0  0  0  0  0  0
  -22.6832   19.3159  -24.2495 C   0  0  0  0  0  0  0  0  0  0  0  0
  -23.0963   20.2481  -25.3801 C   0  0  0  0  0  0  0  0  0  0  0  0
  -23.1502   19.5197  -26.6911 C   0  0  0  0  0  0  0  0  0  0  0  0
  -24.0995   18.4807  -26.5536 O   0  0  0  0  0  0  0  0  0  0  0  0
  -23.4992   17.4801  -25.7779 C   0  0  0  0  0  0  0  0  0  0  0  0
  -23.2678   17.9390  -24.3758 C   0  0  0  0  0  0  0  0  0  0  0  0
  -18.6716   12.3983  -20.6544 O   0  0  0  0  0  0  0  0  0  0  0  0
  -17.4971   11.7750  -21.0094 C   0  0  0  0  0  0  0  0  0  0  0  0
  -16.7448   12.2197  -22.0705 C   0  0  0  0  0  0  0  0  0  0  0  0
  -15.5519   11.5926  -22.4362 C   0  0  0  0  0  0  0  0  0  0  0  0
  -15.1030   10.5023  -21.7296 C   0  0  0  0  0  0  0  0  0  0  0  0
  -15.8456   10.0460  -20.6650 C   0  0  0  0  0  0  0  0  0  0  0  0
  -17.0217   10.6703  -20.3103 C   0  0  0  0  0  0  0  0  0  0  0  0
 14 15  1  0  0  0
 15 16  1  0  0  0
 15 17  1  0  0  0
 17 18  1  0  0  0
 18 19  1  0  0  0
 19 13  1  0  0  0
 13  7  1  0  0  0
  7  8  1  0  0  0
  8  9  1  0  0  0
  9 10  1  0  0  0
 10 11  1  0  0  0
 11 12  1  0  0  0
 10  1  1  0  0  0
  1  2  2  0  0  0
  2  3  1  0  0  0
  3  4  2  0  0  0
  4 29  1  0  0  0
 29 30  2  0  0  0
 29 31  1  0  0  0
 31 33  1  0  0  0
 33 34  2  0  0  0
 33 35  2  0  0  0
 33 36  1  0  0  0
 36 37  2  0  0  0
 37 38  1  0  0  0
 38 39  2  0  0  0
 39 45  1  0  0  0
 45 47  1  0  0  0
 47 48  1  0  0  0
 48 49  1  0  0  0
 49 50  1  0  0  0
 50 51  1  0  0  0
 51 52  1  0  0  0
 52 53  1  0  0  0
 39 40  1  0  0  0
 40 41  2  0  0  0
 40 42  1  0  0  0
 42 43  1  0  0  0
 42 44  2  0  0  0
  4  5  1  0  0  0
  5 54  1  0  0  0
 54 55  1  0  0  0
 55 56  2  0  0  0
 56 57  1  0  0  0
 57 58  2  0  0  0
 58 59  1  0  0  0
 59 60  2  0  0  0
  5  6  2  0  0  0
 19 20  2  0  0  0
 20 21  1  0  0  0
 20 22  1  0  0  0
 22 23  2  0  0  0
 23 24  1  0  0  0
 24 25  2  0  0  0
 25 26  1  0  0  0
 25 27  1  0  0  0
 27 28  2  0  0  0
 21 15  1  0  0  0
 28 22  1  0  0  0
 12  7  1  0  0  0
  6  1  1  0  0  0
 41 36  1  0  0  0
 60 55  1  0  0  0
 53 48  1  0  0  0
 31 32  1  0  0  0
 45 46  1  0  0  0
M  CHG 1  42   1
M  CHG 1  43  -1
M  END
> <minimizedAffinity>
-9.47324

> <CNNscore>
0.0872605145

> <CNNaffinity>
6.9671950340

> <CNN_VS>
0.6079609990

> <CNNaffinity_variance>
0.3588541746

$$$$
[H]O[C@]([H])(c1c([H])c([H])c(Cl)c([H])c1[H])[C@@]1([H])N(C(=O)N([H])c2c([H])c([H])c(Cl)c(C(F)(F)F)c2[H])C([H])([H])[C@]([H])(C([H])([H])[H])C1([H])[H]


 31 33  0  0  0  0  0  0  0  0999 V2000
  -22.5884   18.3080  -21.4632 C   0  0  0  0  0  0  0  0  0  0  0  0
  -21.0972   18.5548  -21.6989 C   0  0  0  0  0  0  0  0  0  0  0  0
  -20.7007   18.2239  -23.1034 C   0  0  0  0  0  0  0  0  0  0  0  0
  -19.5022   17.3286  -23.0323 C   0  0  0  0  0  0  0  0  0  0  0  0
  -19.6353   16.6830  -21.7504 N   0  0  0  0  0  0  0  0  0  0  0  0
  -20.2781   17.5896  -20.8504 C   0  0  0  0  0  0  0  0  0  0  0  0
  -19.2089   15.3454  -21.3830 C   0  0  0  0  0  0  0  0  0  0  0  0
  -18.6757   14.7208  -22.3392 O   0  0  0  0  0  0  0  0  0  0  0  0
  -19.3969   14.8587  -20.0897 N   0  0  0  0  0  0  0  0  0  0  0  0
  -19.8672   15.5473  -19.4156 H   0  0  0  0  0  0  0  0  0  0  0  0
  -19.0683   13.6270  -19.5396 C   0  0  0  0  0  0  0  0  0  0  0  0
  -19.7303   13.1582  -18.3924 C   0  0  0  0  0  0  0  0  0  0  0  0
  -19.3999   11.9398  -17.8545 C   0  0  0  0  0  0  0  0  0  0  0  0
  -18.4371   11.1506  -18.3984 C   0  0  0  0  0  0  0  0  0  0  0  0
  -17.9904    9.5866  -17.7347 Cl  0  0  0  0  0  0  0  0  0  0  0  0
  -17.7649   11.5760  -19.5245 C   0  0  0  0  0  0  0  0  0  0  0  0
  -18.1077   12.8093  -20.0589 C   0  0  0  0  0  0  0  0  0  0  0  0
  -16.7085   10.7669  -20.1644 C   0  0  0  0  0  0  0  0  0  0  0  0
  -17.2296    9.5570  -20.5533 F   0  0  0  0  0  0  0  0  0  0  0  0
  -16.2789   11.4541  -21.2890 F   0  0  0  0  0  0  0  0  0  0  0  0
  -15.6437   10.6168  -19.2988 F   0  0  0  0  0  0  0  0  0  0  0  0
  -18.1735   18.0022  -23.1435 C   0  0  0  0  0  0  0  0  0  0  0  0
  -18.3034   19.2041  -23.8135 O   0  0  0  0  0  0  0  0  0  0  0  0
  -18.6266   19.0344  -24.7256 H   0  0  0  0  0  0  0  0  0  0  0  0
  -17.0872   17.2209  -23.7220 C   0  0  0  0  0  0  0  0  0  0  0  0
  -16.9624   17.0081  -25.1015 C   0  0  0  0  0  0  0  0  0  0  0  0
  -15.9236   16.2495  -25.6074 C   0  0  0  0  0  0  0  0  0  0  0  0
  -14.9865   15.6847  -24.7696 C   0  0  0  0  0  0  0  0  0  0  0  0
  -13.6546   14.7152  -25.3871 Cl  0  0  0  0  0  0  0  0  0  0  0  0
  -15.0785   15.8728  -23.4117 C   0  0  0  0  0  0  0  0  0  0  0  0
  -16.1342   16.6407  -22.9286 C   0  0  0  0  0  0  0  0  0  0  0  0
  1  2  1  0  0  0
  2  3  1  0  0  0
  3  4  1  0  0  0
  4  5  1  0  0  0
  5  6  1  0  0  0
  5  7  1  0  0  0
  7  8  2  0  0  0
  7  9  1  0  0  0
  9 11  1  0  0  0
 11 12  2  0  0  0
 12 13  1  0  0  0
 13 14  2  0  0  0
 14 15  1  0  0  0
 14 16  1  0  0  0
 16 17  2  0  0  0
 16 18  1  0  0  0
 18 19  1  0  0  0
 18 20  1  0  0  0
 18 21  1  0  0  0
  4 22  1  0  0  0
 22 23  1  0  0  0
 22 25  1  0  0  0
 25 26  2  0  0  0
 26 27  1  0  0  0
 27 28  2  0  0  0
 28 29  1  0  0  0
 28 30  1  0  0  0
 30 31  2  0  0  0
  6  2  1  0  0  0
 17 11  1  0  0  0
 31 25  1  0  0  0
  9 10  1  0  0  0
 23 24  1  0  0  0
M  END
> <minimizedAffinity>
-9.05344

> <CNNscore>
0.2185987830

> <CNNaffinity>
6.2841463089

> <CNN_VS>
1.3737066984

> <CNNaffinity_variance>
0.2101362199

$$$$
[H]O[C@]([H])(c1c([H])c([H])c(Cl)c([H])c1[H])[C@@]1([H])N(C(=O)N([H])c2c([H])c([H])c(Cl)c(C(F)(F)F)c2[H])C([H])([H])[C@]([H])(C([H])([H])[H])C1([H])[H]


 31 33  0  0  0  0  0  0  0  0999 V2000
  -14.1421   14.7618  -25.5447 C   0  0  0  0  0  0  0  0  0  0  0  0
  -15.4939   15.4420  -25.3210 C   0  0  0  0  0  0  0  0  0  0  0  0
  -15.3528   16.6921  -24.5109 C   0  0  0  0  0  0  0  0  0  0  0  0
  -16.3509   16.6200  -23.3967 C   0  0  0  0  0  0  0  0  0  0  0  0
  -16.5427   15.2047  -23.2027 N   0  0  0  0  0  0  0  0  0  0  0  0
  -16.3811   14.5481  -24.4629 C   0  0  0  0  0  0  0  0  0  0  0  0
  -16.8479   14.5130  -21.9640 C   0  0  0  0  0  0  0  0  0  0  0  0
  -16.9339   15.2913  -20.9762 O   0  0  0  0  0  0  0  0  0  0  0  0
  -17.0175   13.1291  -21.9341 N   0  0  0  0  0  0  0  0  0  0  0  0
  -16.9084   12.6435  -22.8839 H   0  0  0  0  0  0  0  0  0  0  0  0
  -17.3081   12.2851  -20.8707 C   0  0  0  0  0  0  0  0  0  0  0  0
  -16.6763   11.0351  -20.7583 C   0  0  0  0  0  0  0  0  0  0  0  0
  -16.9687   10.2064  -19.7043 C   0  0  0  0  0  0  0  0  0  0  0  0
  -17.8643   10.5533  -18.7436 C   0  0  0  0  0  0  0  0  0  0  0  0
  -18.2609    9.5160  -17.3822 Cl  0  0  0  0  0  0  0  0  0  0  0  0
  -18.5050   11.7718  -18.8189 C   0  0  0  0  0  0  0  0  0  0  0  0
  -18.2011   12.6007  -19.8889 C   0  0  0  0  0  0  0  0  0  0  0  0
  -19.4885   12.2089  -17.8081 C   0  0  0  0  0  0  0  0  0  0  0  0
  -18.8298   12.7486  -16.7305 F   0  0  0  0  0  0  0  0  0  0  0  0
  -20.2783   13.1886  -18.3895 F   0  0  0  0  0  0  0  0  0  0  0  0
  -20.2908   11.1461  -17.4443 F   0  0  0  0  0  0  0  0  0  0  0  0
  -17.6596   17.2964  -23.6444 C   0  0  0  0  0  0  0  0  0  0  0  0
  -17.4894   18.3609  -24.5095 O   0  0  0  0  0  0  0  0  0  0  0  0
  -16.8883   19.0205  -24.0987 H   0  0  0  0  0  0  0  0  0  0  0  0
  -18.4127   17.7203  -22.4705 C   0  0  0  0  0  0  0  0  0  0  0  0
  -17.9149   18.6535  -21.5512 C   0  0  0  0  0  0  0  0  0  0  0  0
  -18.6572   19.0181  -20.4436 C   0  0  0  0  0  0  0  0  0  0  0  0
  -19.9027   18.4742  -20.2161 C   0  0  0  0  0  0  0  0  0  0  0  0
  -20.8682   18.9207  -18.8149 Cl  0  0  0  0  0  0  0  0  0  0  0  0
  -20.4215   17.5561  -21.0969 C   0  0  0  0  0  0  0  0  0  0  0  0
  -19.6533   17.2064  -22.2038 C   0  0  0  0  0  0  0  0  0  0  0  0
  1  2  1  0  0  0
  2  3  1  0  0  0
  3  4  1  0  0  0
  4  5  1  0  0  0
  5  6  1  0  0  0
  5  7  1  0  0  0
  7  8  2  0  0  0
  7  9  1  0  0  0
  9 11  1  0  0  0
 11 12  2  0  0  0
 12 13  1  0  0  0
 13 14  2  0  0  0
 14 15  1  0  0  0
 14 16  1  0  0  0
 16 17  2  0  0  0
 16 18  1  0  0  0
 18 19  1  0  0  0
 18 20  1  0  0  0
 18 21  1  0  0  0
  4 22  1  0  0  0
 22 23  1  0  0  0
 22 25  1  0  0  0
 25 26  2  0  0  0
 26 27  1  0  0  0
 27 28  2  0  0  0
 28 29  1  0  0  0
 28 30  1  0  0  0
 30 31  2  0  0  0
  6  2  1  0  0  0
 17 11  1  0  0  0
 31 25  1  0  0  0
  9 10  1  0  0  0
 23 24  1  0  0  0
M  END
> <minimizedAffinity>
-9.12300

> <CNNscore>
0.2141014338

> <CNNaffinity>
6.5859947205

> <CNN_VS>
1.4100708961

> <CNNaffinity_variance>
0.0801825300

$$$$
[H]O[C@]([H])(c1c([H])c([H])c(Cl)c([H])c1[H])[C@@]1([H])N(C(=O)N([H])c2c([H])c([H])c(Cl)c(C(F)(F)F)c2[H])C([H])([H])[C@]([H])(C([H])([H])[H])C1([H])[H]


 31 33  0  0  0  0  0  0  0  0999 V2000
  -18.1465    9.5132  -18.4866 C   0  0  0  0  0  0  0  0  0  0  0  0
  -17.8418   10.9414  -18.0309 C   0  0  0  0  0  0  0  0  0  0  0  0
  -19.0962   11.7168  -17.7774 C   0  0  0  0  0  0  0  0  0  0  0  0
  -18.9798   13.0133  -18.5181 C   0  0  0  0  0  0  0  0  0  0  0  0
  -18.0821   12.7059  -19.6031 N   0  0  0  0  0  0  0  0  0  0  0  0
  -17.1613   11.7052  -19.1605 C   0  0  0  0  0  0  0  0  0  0  0  0
  -18.0713   13.2821  -20.9350 C   0  0  0  0  0  0  0  0  0  0  0  0
  -18.9809   14.1376  -21.1065 O   0  0  0  0  0  0  0  0  0  0  0  0
  -17.1267   12.8891  -21.8827 N   0  0  0  0  0  0  0  0  0  0  0  0
  -16.4306   12.1484  -21.5414 H   0  0  0  0  0  0  0  0  0  0  0  0
  -16.9453   13.3084  -23.1938 C   0  0  0  0  0  0  0  0  0  0  0  0
  -17.8861   12.9809  -24.1845 C   0  0  0  0  0  0  0  0  0  0  0  0
  -17.6999   13.3990  -25.4782 C   0  0  0  0  0  0  0  0  0  0  0  0
  -16.6184   14.1332  -25.8482 C   0  0  0  0  0  0  0  0  0  0  0  0
  -16.3504   14.6839  -27.4948 Cl  0  0  0  0  0  0  0  0  0  0  0  0
  -15.6730   14.4747  -24.9046 C   0  0  0  0  0  0  0  0  0  0  0  0
  -15.8723   14.0463  -23.6004 C   0  0  0  0  0  0  0  0  0  0  0  0
  -14.4755   15.2703  -25.2408 C   0  0  0  0  0  0  0  0  0  0  0  0
  -14.8185   16.5966  -25.3386 F   0  0  0  0  0  0  0  0  0  0  0  0
  -13.5665   15.1157  -24.2057 F   0  0  0  0  0  0  0  0  0  0  0  0
  -13.9094   14.7955  -26.4069 F   0  0  0  0  0  0  0  0  0  0  0  0
  -18.4693   14.1749  -17.7296 C   0  0  0  0  0  0  0  0  0  0  0  0
  -18.5982   13.9254  -16.3762 O   0  0  0  0  0  0  0  0  0  0  0  0
  -19.5489   13.8128  -16.1556 H   0  0  0  0  0  0  0  0  0  0  0  0
  -19.0246   15.4833  -18.0530 C   0  0  0  0  0  0  0  0  0  0  0  0
  -20.3778   15.7958  -17.8661 C   0  0  0  0  0  0  0  0  0  0  0  0
  -20.8659   17.0456  -18.1984 C   0  0  0  0  0  0  0  0  0  0  0  0
  -20.0357   18.0137  -18.7206 C   0  0  0  0  0  0  0  0  0  0  0  0
  -20.6308   19.6121  -19.1518 Cl  0  0  0  0  0  0  0  0  0  0  0  0
  -18.7034   17.7414  -18.9173 C   0  0  0  0  0  0  0  0  0  0  0  0
  -18.2379   16.4751  -18.5744 C   0  0  0  0  0  0  0  0  0  0  0  0
  1  2  1  0  0  0
  2  3  1  0  0  0
  3  4  1  0  0  0
  4  5  1  0  0  0
  5  6  1  0  0  0
  5  7  1  0  0  0
  7  8  2  0  0  0
  7  9  1  0  0  0
  9 11  1  0  0  0
 11 12  2  0  0  0
 12 13  1  0  0  0
 13 14  2  0  0  0
 14 15  1  0  0  0
 14 16  1  0  0  0
 16 17  2  0  0  0
 16 18  1  0  0  0
 18 19  1  0  0  0
 18 20  1  0  0  0
 18 21  1  0  0  0
  4 22  1  0  0  0
 22 23  1  0  0  0
 22 25  1  0  0  0
 25 26  2  0  0  0
 26 27  1  0  0  0
 27 28  2  0  0  0
 28 29  1  0  0  0
 28 30  1  0  0  0
 30 31  2  0  0  0
  6  2  1  0  0  0
 17 11  1  0  0  0
 31 25  1  0  0  0
  9 10  1  0  0  0
 23 24  1  0  0  0
M  END
> <minimizedAffinity>
-9.04578

> <CNNscore>
0.2027406991

> <CNNaffinity>
6.5600509644

> <CNN_VS>
1.3299893141

> <CNNaffinity_variance>
0.2431856096

$$$$
[H]O[C@]([H])(c1c([H])c([H])c(Cl)c([H])c1[H])[C@@]1([H])N(C(=O)N([H])c2c([H])c([H])c(Cl)c(C(F)(F)F)c2[H])C([H])([H])[C@]([H])(C([H])([H])[H])C1([H])[H]


 31 33  0  0  0  0  0  0  0  0999 V2000
  -18.2365    9.5828  -18.3808 C   0  0  0  0  0  0  0  0  0  0  0  0
  -17.9830   10.9923  -17.8430 C   0  0  0  0  0  0  0  0  0  0  0  0
  -19.2561   11.7678  -17.7121 C   0  0  0  0  0  0  0  0  0  0  0  0
  -19.0490   13.0879  -18.3883 C   0  0  0  0  0  0  0  0  0  0  0  0
  -18.0306   12.8112  -19.3702 N   0  0  0  0  0  0  0  0  0  0  0  0
  -17.1717   11.7892  -18.8574 C   0  0  0  0  0  0  0  0  0  0  0  0
  -17.8610   13.4325  -20.6707 C   0  0  0  0  0  0  0  0  0  0  0  0
  -18.7413   14.3000  -20.9182 O   0  0  0  0  0  0  0  0  0  0  0  0
  -16.8125   13.0652  -21.5137 N   0  0  0  0  0  0  0  0  0  0  0  0
  -16.1639   12.3081  -21.1188 H   0  0  0  0  0  0  0  0  0  0  0  0
  -16.4764   13.5277  -22.7789 C   0  0  0  0  0  0  0  0  0  0  0  0
  -15.4879   14.5132  -22.9393 C   0  0  0  0  0  0  0  0  0  0  0  0
  -15.1611   14.9652  -24.1931 C   0  0  0  0  0  0  0  0  0  0  0  0
  -15.7682   14.4878  -25.3107 C   0  0  0  0  0  0  0  0  0  0  0  0
  -15.3734   15.0450  -26.9294 Cl  0  0  0  0  0  0  0  0  0  0  0  0
  -16.7433   13.5200  -25.1944 C   0  0  0  0  0  0  0  0  0  0  0  0
  -17.0649   13.0712  -23.9219 C   0  0  0  0  0  0  0  0  0  0  0  0
  -17.4413   12.9596  -26.3686 C   0  0  0  0  0  0  0  0  0  0  0  0
  -16.8029   11.8146  -26.7784 F   0  0  0  0  0  0  0  0  0  0  0  0
  -18.7312   12.6391  -25.9746 F   0  0  0  0  0  0  0  0  0  0  0  0
  -17.5028   13.9048  -27.3728 F   0  0  0  0  0  0  0  0  0  0  0  0
  -18.6312   14.2181  -17.5053 C   0  0  0  0  0  0  0  0  0  0  0  0
  -18.7285   13.8463  -16.1776 O   0  0  0  0  0  0  0  0  0  0  0  0
  -19.6647   13.6363  -15.9667 H   0  0  0  0  0  0  0  0  0  0  0  0
  -19.2962   15.4978  -17.7173 C   0  0  0  0  0  0  0  0  0  0  0  0
  -20.6911   15.6258  -17.7577 C   0  0  0  0  0  0  0  0  0  0  0  0
  -21.2809   16.8569  -17.9742 C   0  0  0  0  0  0  0  0  0  0  0  0
  -20.5136   17.9872  -18.1553 C   0  0  0  0  0  0  0  0  0  0  0  0
  -21.2385   19.5660  -18.4324 Cl  0  0  0  0  0  0  0  0  0  0  0  0
  -19.1429   17.8982  -18.1220 C   0  0  0  0  0  0  0  0  0  0  0  0
  -18.5747   16.6466  -17.9025 C   0  0  0  0  0  0  0  0  0  0  0  0
  1  2  1  0  0  0
  2  3  1  0  0  0
  3  4  1  0  0  0
  4  5  1  0  0  0
  5  6  1  0  0  0
  5  7  1  0  0  0
  7  8  2  0  0  0
  7  9  1  0  0  0
  9 11  1  0  0  0
 11 12  2  0  0  0
 12 13  1  0  0  0
 13 14  2  0  0  0
 14 15  1  0  0  0
 14 16  1  0  0  0
 16 17  2  0  0  0
 16 18  1  0  0  0
 18 19  1  0  0  0
 18 20  1  0  0  0
 18 21  1  0  0  0
  4 22  1  0  0  0
 22 23  1  0  0  0
 22 25  1  0  0  0
 25 26  2  0  0  0
 26 27  1  0  0  0
 27 28  2  0  0  0
 28 29  1  0  0  0
 28 30  1  0  0  0
 30 31  2  0  0  0
  6  2  1  0  0  0
 17 11  1  0  0  0
 31 25  1  0  0  0
  9 10  1  0  0  0
 23 24  1  0  0  0
M  END
> <minimizedAffinity>
-8.06899

> <CNNscore>
0.1674378365

> <CNNaffinity>
6.4430885315

> <CNN_VS>
1.0788167715

> <CNNaffinity_variance>
0.1536644548

$$$$
[H]O[C@]([H])(c1c([H])c([H])c(Cl)c([H])c1[H])[C@@]1([H])N(C(=O)N([H])c2c([H])c([H])c(Cl)c(C(F)(F)F)c2[H])C([H])([H])[C@]([H])(C([H])([H])[H])C1([H])[H]


 31 33  0  0  0  0  0  0  0  0999 V2000
  -16.9691   12.9275  -23.7631 C   0  0  0  0  0  0  0  0  0  0  0  0
  -16.7708   12.7790  -22.2535 C   0  0  0  0  0  0  0  0  0  0  0  0
  -17.6405   11.7003  -21.6885 C   0  0  0  0  0  0  0  0  0  0  0  0
  -18.3630   12.2773  -20.5104 C   0  0  0  0  0  0  0  0  0  0  0  0
  -18.4168   13.6879  -20.8017 N   0  0  0  0  0  0  0  0  0  0  0  0
  -17.2491   14.0420  -21.5475 C   0  0  0  0  0  0  0  0  0  0  0  0
  -19.4540   14.6315  -20.4274 C   0  0  0  0  0  0  0  0  0  0  0  0
  -20.3950   14.0954  -19.7826 O   0  0  0  0  0  0  0  0  0  0  0  0
  -19.3617   15.9791  -20.7742 N   0  0  0  0  0  0  0  0  0  0  0  0
  -18.4778   16.2416  -21.3216 H   0  0  0  0  0  0  0  0  0  0  0  0
  -20.2309   17.0312  -20.5190 C   0  0  0  0  0  0  0  0  0  0  0  0
  -19.8187   18.1243  -19.7383 C   0  0  0  0  0  0  0  0  0  0  0  0
  -20.6835   19.1605  -19.4906 C   0  0  0  0  0  0  0  0  0  0  0  0
  -21.9506   19.1727  -19.9804 C   0  0  0  0  0  0  0  0  0  0  0  0
  -23.0820   20.4830  -19.6819 Cl  0  0  0  0  0  0  0  0  0  0  0  0
  -22.3921   18.1180  -20.7509 C   0  0  0  0  0  0  0  0  0  0  0  0
  -21.5088   17.0765  -20.9944 C   0  0  0  0  0  0  0  0  0  0  0  0
  -23.7565   18.0697  -21.3131 C   0  0  0  0  0  0  0  0  0  0  0  0
  -23.9187   19.0952  -22.2123 F   0  0  0  0  0  0  0  0  0  0  0  0
  -23.8918   16.8616  -21.9792 F   0  0  0  0  0  0  0  0  0  0  0  0
  -24.6859   18.1243  -20.2937 F   0  0  0  0  0  0  0  0  0  0  0  0
  -17.7337   12.0421  -19.1762 C   0  0  0  0  0  0  0  0  0  0  0  0
  -16.4667   11.5125  -19.3339 O   0  0  0  0  0  0  0  0  0  0  0  0
  -16.5318   10.6437  -19.7878 H   0  0  0  0  0  0  0  0  0  0  0  0
  -18.4947   11.2449  -18.2221 C   0  0  0  0  0  0  0  0  0  0  0  0
  -19.5612   11.7707  -17.4806 C   0  0  0  0  0  0  0  0  0  0  0  0
  -20.2483   10.9828  -16.5764 C   0  0  0  0  0  0  0  0  0  0  0  0
  -19.9025    9.6630  -16.3818 C   0  0  0  0  0  0  0  0  0  0  0  0
  -20.7602    8.6382  -15.2377 Cl  0  0  0  0  0  0  0  0  0  0  0  0
  -18.8618    9.1149  -17.0919 C   0  0  0  0  0  0  0  0  0  0  0  0
  -18.1866    9.9302  -17.9958 C   0  0  0  0  0  0  0  0  0  0  0  0
  1  2  1  0  0  0
  2  3  1  0  0  0
  3  4  1  0  0  0
  4  5  1  0  0  0
  5  6  1  0  0  0
  5  7  1  0  0  0
  7  8  2  0  0  0
  7  9  1  0  0  0
  9 11  1  0  0  0
 11 12  2  0  0  0
 12 13  1  0  0  0
 13 14  2  0  0  0
 14 15  1  0  0  0
 14 16  1  0  0  0
 16 17  2  0  0  0
 16 18  1  0  0  0
 18 19  1  0  0  0
 18 20  1  0  0  0
 18 21  1  0  0  0
  4 22  1  0  0  0
 22 23  1  0  0  0
 22 25  1  0  0  0
 25 26  2  0  0  0
 26 27  1  0  0  0
 27 28  2  0  0  0
 28 29  1  0  0  0
 28 30  1  0  0  0
 30 31  2  0  0  0
  6  2  1  0  0  0
 17 11  1  0  0  0
 31 25  1  0  0  0
  9 10  1  0  0  0
 23 24  1  0  0  0
M  END
> <minimizedAffinity>
-8.34701

> <CNNscore>
0.1612134874

> <CNNaffinity>
6.0407586098

> <CNN_VS>
0.9738517404

> <CNNaffinity_variance>
0.0527463034

$$$$
[H]O[C@]([H])(c1c([H])c([H])c(Cl)c([H])c1[H])[C@@]1([H])N(C(=O)N([H])c2c([H])c([H])c(Cl)c(C(F)(F)F)c2[H])C([H])([H])[C@]([H])(C([H])([H])[H])C1([H])[H]


 31 33  0  0  0  0  0  0  0  0999 V2000
  -16.4326   15.3556  -27.6966 C   0  0  0  0  0  0  0  0  0  0  0  0
  -15.9049   15.0353  -26.2969 C   0  0  0  0  0  0  0  0  0  0  0  0
  -16.4899   13.7642  -25.7666 C   0  0  0  0  0  0  0  0  0  0  0  0
  -17.0179   14.0511  -24.3948 C   0  0  0  0  0  0  0  0  0  0  0  0
  -17.3135   15.4614  -24.4321 N   0  0  0  0  0  0  0  0  0  0  0  0
  -16.3839   16.0966  -25.3138 C   0  0  0  0  0  0  0  0  0  0  0  0
  -18.3623   16.1664  -23.7187 C   0  0  0  0  0  0  0  0  0  0  0  0
  -19.0699   15.4033  -23.0075 O   0  0  0  0  0  0  0  0  0  0  0  0
  -18.5198   17.5460  -23.8475 N   0  0  0  0  0  0  0  0  0  0  0  0
  -17.8119   18.0191  -24.4992 H   0  0  0  0  0  0  0  0  0  0  0  0
  -19.4449   18.4004  -23.2627 C   0  0  0  0  0  0  0  0  0  0  0  0
  -19.0262   19.4069  -22.3763 C   0  0  0  0  0  0  0  0  0  0  0  0
  -19.9465   20.2476  -21.8024 C   0  0  0  0  0  0  0  0  0  0  0  0
  -21.2759   20.1439  -22.0623 C   0  0  0  0  0  0  0  0  0  0  0  0
  -22.4793   21.2035  -21.3444 Cl  0  0  0  0  0  0  0  0  0  0  0  0
  -21.7258   19.1687  -22.9269 C   0  0  0  0  0  0  0  0  0  0  0  0
  -20.7861   18.3251  -23.5007 C   0  0  0  0  0  0  0  0  0  0  0  0
  -23.1566   19.0026  -23.2516 C   0  0  0  0  0  0  0  0  0  0  0  0
  -23.6479   20.1747  -23.7724 F   0  0  0  0  0  0  0  0  0  0  0  0
  -23.2546   18.0076  -24.2117 F   0  0  0  0  0  0  0  0  0  0  0  0
  -23.8500   18.6066  -22.1255 F   0  0  0  0  0  0  0  0  0  0  0  0
  -16.0979   13.7391  -23.2600 C   0  0  0  0  0  0  0  0  0  0  0  0
  -15.0232   12.9947  -23.7089 O   0  0  0  0  0  0  0  0  0  0  0  0
  -15.3477   12.1408  -24.0704 H   0  0  0  0  0  0  0  0  0  0  0  0
  -16.6910   13.1065  -22.0883 C   0  0  0  0  0  0  0  0  0  0  0  0
  -16.6768   11.7191  -21.8915 C   0  0  0  0  0  0  0  0  0  0  0  0
  -17.2627   11.1591  -20.7718 C   0  0  0  0  0  0  0  0  0  0  0  0
  -17.8740   11.9495  -19.8228 C   0  0  0  0  0  0  0  0  0  0  0  0
  -18.6269   11.2628  -18.3887 Cl  0  0  0  0  0  0  0  0  0  0  0  0
  -17.9065   13.3136  -19.9839 C   0  0  0  0  0  0  0  0  0  0  0  0
  -17.3093   13.8516  -21.1204 C   0  0  0  0  0  0  0  0  0  0  0  0
  1  2  1  0  0  0
  2  3  1  0  0  0
  3  4  1  0  0  0
  4  5  1  0  0  0
  5  6  1  0  0  0
  5  7  1  0  0  0
  7  8  2  0  0  0
  7  9  1  0  0  0
  9 11  1  0  0  0
 11 12  2  0  0  0
 12 13  1  0  0  0
 13 14  2  0  0  0
 14 15  1  0  0  0
 14 16  1  0  0  0
 16 17  2  0  0  0
 16 18  1  0  0  0
 18 19  1  0  0  0
 18 20  1  0  0  0
 18 21  1  0  0  0
  4 22  1  0  0  0
 22 23  1  0  0  0
 22 25  1  0  0  0
 25 26  2  0  0  0
 26 27  1  0  0  0
 27 28  2  0  0  0
 28 29  1  0  0  0
 28 30  1  0  0  0
 30 31  2  0  0  0
  6  2  1  0  0  0
 17 11  1  0  0  0
 31 25  1  0  0  0
  9 10  1  0  0  0
 23 24  1  0  0  0
M  END
> <minimizedAffinity>
-8.48051

> <CNNscore>
0.1326841563

> <CNNaffinity>
6.3155326843

> <CNN_VS>
0.8379711509

> <CNNaffinity_variance>
0.1611628085

$$$$
[H]O[C@]([H])(c1c([H])c([H])c(Cl)c([H])c1[H])[C@@]1([H])N(C(=O)N([H])c2c([H])c([H])c(Cl)c(C(F)(F)F)c2[H])C([H])([H])[C@]([H])(C([H])([H])[H])C1([H])[H]


 31 33  0  0  0  0  0  0  0  0999 V2000
  -18.6895   12.0936  -17.8033 C   0  0  0  0  0  0  0  0  0  0  0  0
  -18.5687   11.8793  -19.3131 C   0  0  0  0  0  0  0  0  0  0  0  0
  -17.1722   12.1222  -19.7927 C   0  0  0  0  0  0  0  0  0  0  0  0
  -17.2545   13.0588  -20.9585 C   0  0  0  0  0  0  0  0  0  0  0  0
  -18.4745   13.7893  -20.7226 N   0  0  0  0  0  0  0  0  0  0  0  0
  -19.3953   12.9286  -20.0469 C   0  0  0  0  0  0  0  0  0  0  0  0
  -18.7698   15.1628  -21.0864 C   0  0  0  0  0  0  0  0  0  0  0  0
  -17.8067   15.7348  -21.6644 O   0  0  0  0  0  0  0  0  0  0  0  0
  -20.0093   15.7339  -20.7994 N   0  0  0  0  0  0  0  0  0  0  0  0
  -20.7004   15.0801  -20.3047 H   0  0  0  0  0  0  0  0  0  0  0  0
  -20.4879   17.0116  -21.0564 C   0  0  0  0  0  0  0  0  0  0  0  0
  -19.7006   18.1396  -20.7703 C   0  0  0  0  0  0  0  0  0  0  0  0
  -20.1805   19.3993  -21.0273 C   0  0  0  0  0  0  0  0  0  0  0  0
  -21.4137   19.6046  -21.5590 C   0  0  0  0  0  0  0  0  0  0  0  0
  -22.0575   21.2032  -21.8998 Cl  0  0  0  0  0  0  0  0  0  0  0  0
  -22.2161   18.5228  -21.8536 C   0  0  0  0  0  0  0  0  0  0  0  0
  -21.7199   17.2546  -21.5893 C   0  0  0  0  0  0  0  0  0  0  0  0
  -23.5656   18.6770  -22.4324 C   0  0  0  0  0  0  0  0  0  0  0  0
  -23.4601   19.0805  -23.7411 F   0  0  0  0  0  0  0  0  0  0  0  0
  -24.1820   17.4360  -22.3925 F   0  0  0  0  0  0  0  0  0  0  0  0
  -24.3018   19.5659  -21.6752 F   0  0  0  0  0  0  0  0  0  0  0  0
  -17.2785   12.4225  -22.3098 C   0  0  0  0  0  0  0  0  0  0  0  0
  -16.7320   11.1544  -22.2490 O   0  0  0  0  0  0  0  0  0  0  0  0
  -15.7927   11.2185  -21.9685 H   0  0  0  0  0  0  0  0  0  0  0  0
  -16.6748   13.1764  -23.4017 C   0  0  0  0  0  0  0  0  0  0  0  0
  -15.3166   13.5213  -23.4200 C   0  0  0  0  0  0  0  0  0  0  0  0
  -14.7873   14.2487  -24.4694 C   0  0  0  0  0  0  0  0  0  0  0  0
  -15.5802   14.6521  -25.5219 C   0  0  0  0  0  0  0  0  0  0  0  0
  -14.9321   15.5784  -26.8698 Cl  0  0  0  0  0  0  0  0  0  0  0  0
  -16.9161   14.3315  -25.5363 C   0  0  0  0  0  0  0  0  0  0  0  0
  -17.4236   13.5985  -24.4673 C   0  0  0  0  0  0  0  0  0  0  0  0
  1  2  1  0  0  0
  2  3  1  0  0  0
  3  4  1  0  0  0
  4  5  1  0  0  0
  5  6  1  0  0  0
  5  7  1  0  0  0
  7  8  2  0  0  0
  7  9  1  0  0  0
  9 11  1  0  0  0
 11 12  2  0  0  0
 12 13  1  0  0  0
 13 14  2  0  0  0
 14 15  1  0  0  0
 14 16  1  0  0  0
 16 17  2  0  0  0
 16 18  1  0  0  0
 18 19  1  0  0  0
 18 20  1  0  0  0
 18 21  1  0  0  0
  4 22  1  0  0  0
 22 23  1  0  0  0
 22 25  1  0  0  0
 25 26  2  0  0  0
 26 27  1  0  0  0
 27 28  2  0  0  0
 28 29  1  0  0  0
 28 30  1  0  0  0
 30 31  2  0  0  0
  6  2  1  0  0  0
 17 11  1  0  0  0
 31 25  1  0  0  0
  9 10  1  0  0  0
 23 24  1  0  0  0
M  END
> <minimizedAffinity>
-7.95854

> <CNNscore>
0.1083436534

> <CNNaffinity>
6.3306345940

> <CNN_VS>
0.6858840585

> <CNNaffinity_variance>
0.1271019876

$$$$
[H]O[C@]([H])(c1c([H])c([H])c(Cl)c([H])c1[H])[C@@]1([H])N(C(=O)N([H])c2c([H])c([H])c(Cl)c(C(F)(F)F)c2[H])C([H])([H])[C@]([H])(C([H])([H])[H])C1([H])[H]


 31 33  0  0  0  0  0  0  0  0999 V2000
  -19.7078   10.7540  -16.9027 C   0  0  0  0  0  0  0  0  0  0  0  0
  -19.5899   12.2590  -16.6548 C   0  0  0  0  0  0  0  0  0  0  0  0
  -20.8990   12.9540  -16.8607 C   0  0  0  0  0  0  0  0  0  0  0  0
  -20.6520   14.1148  -17.7743 C   0  0  0  0  0  0  0  0  0  0  0  0
  -19.4950   13.7105  -18.5329 N   0  0  0  0  0  0  0  0  0  0  0  0
  -18.6764   12.8808  -17.7043 C   0  0  0  0  0  0  0  0  0  0  0  0
  -19.1688   14.0565  -19.9040 C   0  0  0  0  0  0  0  0  0  0  0  0
  -20.0396   14.7896  -20.4452 O   0  0  0  0  0  0  0  0  0  0  0  0
  -17.9978   13.5951  -20.5047 N   0  0  0  0  0  0  0  0  0  0  0  0
  -17.3814   12.9844  -19.8748 H   0  0  0  0  0  0  0  0  0  0  0  0
  -17.5055   13.8051  -21.7858 C   0  0  0  0  0  0  0  0  0  0  0  0
  -17.3406   12.7278  -22.6726 C   0  0  0  0  0  0  0  0  0  0  0  0
  -16.8535   12.9434  -23.9372 C   0  0  0  0  0  0  0  0  0  0  0  0
  -16.5166   14.1840  -24.3765 C   0  0  0  0  0  0  0  0  0  0  0  0
  -15.8906   14.4938  -25.9885 Cl  0  0  0  0  0  0  0  0  0  0  0  0
  -16.6642   15.2666  -23.5357 C   0  0  0  0  0  0  0  0  0  0  0  0
  -17.1575   15.0360  -22.2598 C   0  0  0  0  0  0  0  0  0  0  0  0
  -16.3168   16.6402  -23.9511 C   0  0  0  0  0  0  0  0  0  0  0  0
  -17.2120   17.0732  -24.8985 F   0  0  0  0  0  0  0  0  0  0  0  0
  -16.4169   17.4532  -22.8327 F   0  0  0  0  0  0  0  0  0  0  0  0
  -15.0168   16.6754  -24.4140 F   0  0  0  0  0  0  0  0  0  0  0  0
  -20.4091   15.4309  -17.1107 C   0  0  0  0  0  0  0  0  0  0  0  0
  -19.3659   15.3249  -16.2100 O   0  0  0  0  0  0  0  0  0  0  0  0
  -19.6060   14.6798  -15.5091 H   0  0  0  0  0  0  0  0  0  0  0  0
  -21.5561   16.0683  -16.4759 C   0  0  0  0  0  0  0  0  0  0  0  0
  -22.6713   16.5092  -17.2011 C   0  0  0  0  0  0  0  0  0  0  0  0
  -23.7327   17.1208  -16.5608 C   0  0  0  0  0  0  0  0  0  0  0  0
  -23.7209   17.3119  -15.1961 C   0  0  0  0  0  0  0  0  0  0  0  0
  -25.0584   18.0871  -14.3563 Cl  0  0  0  0  0  0  0  0  0  0  0  0
  -22.6435   16.8921  -14.4541 C   0  0  0  0  0  0  0  0  0  0  0  0
  -21.5880   16.2794  -15.1236 C   0  0  0  0  0  0  0  0  0  0  0  0
  1  2  1  0  0  0
  2  3  1  0  0  0
  3  4  1  0  0  0
  4  5  1  0  0  0
  5  6  1  0  0  0
  5  7  1  0  0  0
  7  8  2  0  0  0
  7  9  1  0  0  0
  9 11  1  0  0  0
 11 12  2  0  0  0
 12 13  1  0  0  0
 13 14  2  0  0  0
 14 15  1  0  0  0
 14 16  1  0  0  0
 16 17  2  0  0  0
 16 18  1  0  0  0
 18 19  1  0  0  0
 18 20  1  0  0  0
 18 21  1  0  0  0
  4 22  1  0  0  0
 22 23  1  0  0  0
 22 25  1  0  0  0
 25 26  2  0  0  0
 26 27  1  0  0  0
 27 28  2  0  0  0
 28 29  1  0  0  0
 28 30  1  0  0  0
 30 31  2  0  0  0
  6  2  1  0  0  0
 17 11  1  0  0  0
 31 25  1  0  0  0
  9 10  1  0  0  0
 23 24  1  0  0  0
M  END
> <minimizedAffinity>
-7.32497

> <CNNscore>
0.1061295122

> <CNNaffinity>
5.7102303505

> <CNN_VS>
0.6060239673

> <CNNaffinity_variance>
0.1874996275

$$$$
[H]O[C@]([H])(c1c([H])c([H])c(Cl)c([H])c1[H])[C@@]1([H])N(C(=O)N([H])c2c([H])c([H])c(Cl)c(C(F)(F)F)c2[H])C([H])([H])[C@]([H])(C([H])([H])[H])C1([H])[H]


 31 33  0  0  0  0  0  0  0  0999 V2000
  -17.0471   13.0348  -23.9951 C   0  0  0  0  0  0  0  0  0  0  0  0
  -16.7585   12.8047  -22.5105 C   0  0  0  0  0  0  0  0  0  0  0  0
  -17.6502   11.7503  -21.9343 C   0  0  0  0  0  0  0  0  0  0  0  0
  -18.2585   12.3102  -20.6855 C   0  0  0  0  0  0  0  0  0  0  0  0
  -18.2493   13.7338  -20.9113 N   0  0  0  0  0  0  0  0  0  0  0  0
  -17.1148   14.0577  -21.7195 C   0  0  0  0  0  0  0  0  0  0  0  0
  -19.2029   14.7144  -20.4263 C   0  0  0  0  0  0  0  0  0  0  0  0
  -20.1289   14.2012  -19.7422 O   0  0  0  0  0  0  0  0  0  0  0  0
  -19.0555   16.0697  -20.7201 N   0  0  0  0  0  0  0  0  0  0  0  0
  -18.1960   16.3085  -21.3151 H   0  0  0  0  0  0  0  0  0  0  0  0
  -19.8433   17.1549  -20.3607 C   0  0  0  0  0  0  0  0  0  0  0  0
  -20.9076   17.5668  -21.1802 C   0  0  0  0  0  0  0  0  0  0  0  0
  -21.6819   18.6403  -20.8182 C   0  0  0  0  0  0  0  0  0  0  0  0
  -21.4561   19.3368  -19.6739 C   0  0  0  0  0  0  0  0  0  0  0  0
  -22.4281   20.7150  -19.1818 Cl  0  0  0  0  0  0  0  0  0  0  0  0
  -20.4209   18.9632  -18.8433 C   0  0  0  0  0  0  0  0  0  0  0  0
  -19.6453   17.8765  -19.2200 C   0  0  0  0  0  0  0  0  0  0  0  0
  -20.1222   19.6775  -17.5861 C   0  0  0  0  0  0  0  0  0  0  0  0
  -21.2301   19.6604  -16.7745 F   0  0  0  0  0  0  0  0  0  0  0  0
  -19.0913   18.9992  -16.9546 F   0  0  0  0  0  0  0  0  0  0  0  0
  -19.7057   20.9637  -17.8651 F   0  0  0  0  0  0  0  0  0  0  0  0
  -17.5571   11.9782  -19.4091 C   0  0  0  0  0  0  0  0  0  0  0  0
  -16.3734   11.3157  -19.6744 O   0  0  0  0  0  0  0  0  0  0  0  0
  -16.5703   10.4694  -20.1327 H   0  0  0  0  0  0  0  0  0  0  0  0
  -18.3256   11.2493  -18.4075 C   0  0  0  0  0  0  0  0  0  0  0  0
  -19.3365   11.8517  -17.6465 C   0  0  0  0  0  0  0  0  0  0  0  0
  -20.0324   11.1267  -16.6975 C   0  0  0  0  0  0  0  0  0  0  0  0
  -19.7502    9.7961  -16.4763 C   0  0  0  0  0  0  0  0  0  0  0  0
  -20.6205    8.8504  -15.2751 Cl  0  0  0  0  0  0  0  0  0  0  0  0
  -18.7651    9.1737  -17.2044 C   0  0  0  0  0  0  0  0  0  0  0  0
  -18.0796    9.9267  -18.1535 C   0  0  0  0  0  0  0  0  0  0  0  0
  1  2  1  0  0  0
  2  3  1  0  0  0
  3  4  1  0  0  0
  4  5  1  0  0  0
  5  6  1  0  0  0
  5  7  1  0  0  0
  7  8  2  0  0  0
  7  9  1  0  0  0
  9 11  1  0  0  0
 11 12  2  0  0  0
 12 13  1  0  0  0
 13 14  2  0  0  0
 14 15  1  0  0  0
 14 16  1  0  0  0
 16 17  2  0  0  0
 16 18  1  0  0  0
 18 19  1  0  0  0
 18 20  1  0  0  0
 18 21  1  0  0  0
  4 22  1  0  0  0
 22 23  1  0  0  0
 22 25  1  0  0  0
 25 26  2  0  0  0
 26 27  1  0  0  0
 27 28  2  0  0  0
 28 29  1  0  0  0
 28 30  1  0  0  0
 30 31  2  0  0  0
  6  2  1  0  0  0
 17 11  1  0  0  0
 31 25  1  0  0  0
  9 10  1  0  0  0
 23 24  1  0  0  0
M  END
> <minimizedAffinity>
-7.86145

> <CNNscore>
0.0951877311

> <CNNaffinity>
5.8815903664

> <CNN_VS>
0.5598552227

> <CNNaffinity_variance>
0.1338369250

$$$$
[H]c1c([H])c(N([H])C([H])([H])c2c([H])c([H])c3nc(N([H])[H])nc(N([H])[H])c3c2[H])c([H])c2c1N([H])C(=O)C([H])([H])C2([H])[H]


 31 34  0  0  0  0  0  0  0  0999 V2000
  -15.0663   10.2943  -21.6768 N   0  0  0  0  0  0  0  0  0  0  0  0
  -16.1727   11.0253  -21.1103 C   0  0  0  0  0  0  0  0  0  0  0  0
  -16.7674   10.6006  -19.9796 N   0  0  0  0  0  0  0  0  0  0  0  0
  -17.7896   11.2279  -19.4072 C   0  0  0  0  0  0  0  0  0  0  0  0
  -18.4280   10.7990  -18.2203 N   0  0  0  0  0  0  0  0  0  0  0  0
  -18.2635   12.3765  -20.0089 C   0  0  0  0  0  0  0  0  0  0  0  0
  -19.3231   13.0560  -19.4456 C   0  0  0  0  0  0  0  0  0  0  0  0
  -19.7840   14.2024  -20.0607 C   0  0  0  0  0  0  0  0  0  0  0  0
  -19.1707   14.6294  -21.2158 C   0  0  0  0  0  0  0  0  0  0  0  0
  -18.1107   13.9758  -21.8059 C   0  0  0  0  0  0  0  0  0  0  0  0
  -17.6577   12.8193  -21.1713 C   0  0  0  0  0  0  0  0  0  0  0  0
  -16.6372   12.1437  -21.6927 N   0  0  0  0  0  0  0  0  0  0  0  0
  -14.3029    9.8983  -21.1150 H   0  0  0  0  0  0  0  0  0  0  0  0
  -15.0742   10.1815  -22.7113 H   0  0  0  0  0  0  0  0  0  0  0  0
  -18.9577    9.9117  -18.1563 H   0  0  0  0  0  0  0  0  0  0  0  0
  -18.3619   11.4000  -17.3792 H   0  0  0  0  0  0  0  0  0  0  0  0
  -20.9226   14.9448  -19.4677 C   0  0  0  0  0  0  0  0  0  0  0  0
  -20.6321   16.3415  -19.2846 N   0  0  0  0  0  0  0  0  0  0  0  0
  -20.1046   16.6360  -18.4354 H   0  0  0  0  0  0  0  0  0  0  0  0
  -21.0601   17.2749  -20.2441 C   0  0  0  0  0  0  0  0  0  0  0  0
  -20.3919   18.4649  -20.3826 C   0  0  0  0  0  0  0  0  0  0  0  0
  -20.8433   19.3530  -21.3357 C   0  0  0  0  0  0  0  0  0  0  0  0
  -21.9403   19.0896  -22.1537 C   0  0  0  0  0  0  0  0  0  0  0  0
  -22.3590   20.0353  -23.1430 N   0  0  0  0  0  0  0  0  0  0  0  0
  -23.4746   19.6748  -23.9501 C   0  0  0  0  0  0  0  0  0  0  0  0
  -24.2595   20.4788  -24.4669 O   0  0  0  0  0  0  0  0  0  0  0  0
  -23.6661   18.2194  -24.1559 C   0  0  0  0  0  0  0  0  0  0  0  0
  -23.7691   17.5573  -22.8076 C   0  0  0  0  0  0  0  0  0  0  0  0
  -22.5895   17.8970  -21.9955 C   0  0  0  0  0  0  0  0  0  0  0  0
  -22.1424   16.9961  -21.0389 C   0  0  0  0  0  0  0  0  0  0  0  0
  -21.8765   20.9449  -23.2683 H   0  0  0  0  0  0  0  0  0  0  0  0
  1  2  1  0  0  0
  2  3  2  0  0  0
  3  4  1  0  0  0
  4  5  1  0  0  0
  4  6  2  0  0  0
  6  7  1  0  0  0
  7  8  2  0  0  0
  8 17  1  0  0  0
 17 18  1  0  0  0
 18 20  1  0  0  0
 20 21  2  0  0  0
 21 22  1  0  0  0
 22 23  2  0  0  0
 23 24  1  0  0  0
 24 25  1  0  0  0
 25 26  2  0  0  0
 25 27  1  0  0  0
 27 28  1  0  0  0
 28 29  1  0  0  0
 29 30  2  0  0  0
  8  9  1  0  0  0
  9 10  2  0  0  0
 10 11  1  0  0  0
 11 12  2  0  0  0
 12  2  1  0  0  0
 11  6  1  0  0  0
 30 20  1  0  0  0
 29 23  1  0  0  0
  1 13  1  0  0  0
  1 14  1  0  0  0
  5 15  1  0  0  0
  5 16  1  0  0  0
 18 19  1  0  0  0
 24 31  1  0  0  0
M  END
> <minimizedAffinity>
-7.37185

> <CNNscore>
0.6723259687

> <CNNaffinity>
6.3402400017

> <CNN_VS>
4.2627081871

> <CNNaffinity_variance>
0.5487554669

$$$$
[H]c1c([H])c(N([H])C([H])([H])c2c([H])c([H])c3nc(N([H])[H])nc(N([H])[H])c3c2[H])c([H])c2c1N([H])C(=O)C([H])([H])C2([H])[H]


 31 34  0  0  0  0  0  0  0  0999 V2000
  -18.2387    8.9055  -17.0481 N   0  0  0  0  0  0  0  0  0  0  0  0
  -17.9913    9.8296  -18.1272 C   0  0  0  0  0  0  0  0  0  0  0  0
  -17.0336    9.5777  -19.0390 N   0  0  0  0  0  0  0  0  0  0  0  0
  -16.7564   10.3872  -20.0558 C   0  0  0  0  0  0  0  0  0  0  0  0
  -15.7553   10.1414  -21.0241 N   0  0  0  0  0  0  0  0  0  0  0  0
  -17.4935   11.5481  -20.1788 C   0  0  0  0  0  0  0  0  0  0  0  0
  -17.2359   12.4142  -21.2206 C   0  0  0  0  0  0  0  0  0  0  0  0
  -17.9824   13.5701  -21.3280 C   0  0  0  0  0  0  0  0  0  0  0  0
  -18.9592   13.8199  -20.3919 C   0  0  0  0  0  0  0  0  0  0  0  0
  -19.2434   12.9775  -19.3390 C   0  0  0  0  0  0  0  0  0  0  0  0
  -18.4796   11.8141  -19.2455 C   0  0  0  0  0  0  0  0  0  0  0  0
  -18.7064   10.9607  -18.2506 N   0  0  0  0  0  0  0  0  0  0  0  0
  -18.2579    7.8857  -17.1698 H   0  0  0  0  0  0  0  0  0  0  0  0
  -18.4021    9.3288  -16.1115 H   0  0  0  0  0  0  0  0  0  0  0  0
  -14.7463   10.1116  -20.7940 H   0  0  0  0  0  0  0  0  0  0  0  0
  -16.0459    9.9846  -22.0060 H   0  0  0  0  0  0  0  0  0  0  0  0
  -17.7180   14.5121  -22.4424 C   0  0  0  0  0  0  0  0  0  0  0  0
  -18.6743   15.5852  -22.4935 N   0  0  0  0  0  0  0  0  0  0  0  0
  -19.4385   15.5416  -23.2007 H   0  0  0  0  0  0  0  0  0  0  0  0
  -18.5626   16.6625  -21.5979 C   0  0  0  0  0  0  0  0  0  0  0  0
  -17.3223   17.0860  -21.1928 C   0  0  0  0  0  0  0  0  0  0  0  0
  -17.2560   18.1461  -20.3138 C   0  0  0  0  0  0  0  0  0  0  0  0
  -18.3891   18.7956  -19.8276 C   0  0  0  0  0  0  0  0  0  0  0  0
  -18.2683   19.9052  -18.9317 N   0  0  0  0  0  0  0  0  0  0  0  0
  -19.4764   20.5237  -18.5028 C   0  0  0  0  0  0  0  0  0  0  0  0
  -19.6230   21.1112  -17.4245 O   0  0  0  0  0  0  0  0  0  0  0  0
  -20.6105   20.4294  -19.4527 C   0  0  0  0  0  0  0  0  0  0  0  0
  -20.8554   18.9758  -19.7590 C   0  0  0  0  0  0  0  0  0  0  0  0
  -19.6133   18.3541  -20.2459 C   0  0  0  0  0  0  0  0  0  0  0  0
  -19.6904   17.2877  -21.1310 C   0  0  0  0  0  0  0  0  0  0  0  0
  -17.3447   20.2454  -18.6045 H   0  0  0  0  0  0  0  0  0  0  0  0
  1  2  1  0  0  0
  2  3  2  0  0  0
  3  4  1  0  0  0
  4  5  1  0  0  0
  4  6  2  0  0  0
  6  7  1  0  0  0
  7  8  2  0  0  0
  8 17  1  0  0  0
 17 18  1  0  0  0
 18 20  1  0  0  0
 20 21  2  0  0  0
 21 22  1  0  0  0
 22 23  2  0  0  0
 23 24  1  0  0  0
 24 25  1  0  0  0
 25 26  2  0  0  0
 25 27  1  0  0  0
 27 28  1  0  0  0
 28 29  1  0  0  0
 29 30  2  0  0  0
  8  9  1  0  0  0
  9 10  2  0  0  0
 10 11  1  0  0  0
 11 12  2  0  0  0
 12  2  1  0  0  0
 11  6  1  0  0  0
 30 20  1  0  0  0
 29 23  1  0  0  0
  1 13  1  0  0  0
  1 14  1  0  0  0
  5 15  1  0  0  0
  5 16  1  0  0  0
 18 19  1  0  0  0
 24 31  1  0  0  0
M  END
> <minimizedAffinity>
-7.62222

> <CNNscore>
0.5157607794

> <CNNaffinity>
6.4765691757

> <CNN_VS>
3.3403604031

> <CNNaffinity_variance>
0.4695430398

$$$$
[H]c1c([H])c(N([H])C([H])([H])c2c([H])c([H])c3nc(N([H])[H])nc(N([H])[H])c3c2[H])c([H])c2c1N([H])C(=O)C([H])([H])C2([H])[H]


 31 34  0  0  0  0  0  0  0  0999 V2000
  -14.2916   16.3491  -26.3335 N   0  0  0  0  0  0  0  0  0  0  0  0
  -14.9529   15.8236  -25.1647 C   0  0  0  0  0  0  0  0  0  0  0  0
  -15.1417   14.4983  -25.0219 N   0  0  0  0  0  0  0  0  0  0  0  0
  -15.7428   13.9512  -23.9706 C   0  0  0  0  0  0  0  0  0  0  0  0
  -15.9508   12.5626  -23.8011 N   0  0  0  0  0  0  0  0  0  0  0  0
  -16.1964   14.7920  -22.9739 C   0  0  0  0  0  0  0  0  0  0  0  0
  -16.8256   14.2625  -21.8667 C   0  0  0  0  0  0  0  0  0  0  0  0
  -17.2728   15.1178  -20.8801 C   0  0  0  0  0  0  0  0  0  0  0  0
  -17.0758   16.4707  -21.0339 C   0  0  0  0  0  0  0  0  0  0  0  0
  -16.4518   17.0338  -22.1259 C   0  0  0  0  0  0  0  0  0  0  0  0
  -16.0062   16.1552  -23.1134 C   0  0  0  0  0  0  0  0  0  0  0  0
  -15.3961   16.6384  -24.1922 N   0  0  0  0  0  0  0  0  0  0  0  0
  -13.4562   15.9214  -26.7510 H   0  0  0  0  0  0  0  0  0  0  0  0
  -14.7096   17.2068  -26.7489 H   0  0  0  0  0  0  0  0  0  0  0  0
  -16.5658   12.0068  -24.4214 H   0  0  0  0  0  0  0  0  0  0  0  0
  -15.4661   12.0821  -23.0218 H   0  0  0  0  0  0  0  0  0  0  0  0
  -17.9513   14.5646  -19.6832 C   0  0  0  0  0  0  0  0  0  0  0  0
  -18.7549   13.4120  -19.9906 N   0  0  0  0  0  0  0  0  0  0  0  0
  -19.4477   13.4773  -20.7664 H   0  0  0  0  0  0  0  0  0  0  0  0
  -18.5932   12.2303  -19.2474 C   0  0  0  0  0  0  0  0  0  0  0  0
  -17.5744   11.3651  -19.5563 C   0  0  0  0  0  0  0  0  0  0  0  0
  -17.4499   10.2172  -18.8028 C   0  0  0  0  0  0  0  0  0  0  0  0
  -18.3107    9.9071  -17.7517 C   0  0  0  0  0  0  0  0  0  0  0  0
  -18.1286    8.7121  -16.9852 N   0  0  0  0  0  0  0  0  0  0  0  0
  -19.0397    8.4857  -15.9154 C   0  0  0  0  0  0  0  0  0  0  0  0
  -19.3628    7.3706  -15.4892 O   0  0  0  0  0  0  0  0  0  0  0  0
  -19.6147    9.7062  -15.3014 C   0  0  0  0  0  0  0  0  0  0  0  0
  -20.2797   10.5153  -16.3830 C   0  0  0  0  0  0  0  0  0  0  0  0
  -19.3182   10.7851  -17.4644 C   0  0  0  0  0  0  0  0  0  0  0  0
  -19.4516   11.9438  -18.2169 C   0  0  0  0  0  0  0  0  0  0  0  0
  -17.3704    8.0370  -17.1975 H   0  0  0  0  0  0  0  0  0  0  0  0
  1  2  1  0  0  0
  2  3  2  0  0  0
  3  4  1  0  0  0
  4  5  1  0  0  0
  4  6  2  0  0  0
  6  7  1  0  0  0
  7  8  2  0  0  0
  8 17  1  0  0  0
 17 18  1  0  0  0
 18 20  1  0  0  0
 20 21  2  0  0  0
 21 22  1  0  0  0
 22 23  2  0  0  0
 23 24  1  0  0  0
 24 25  1  0  0  0
 25 26  2  0  0  0
 25 27  1  0  0  0
 27 28  1  0  0  0
 28 29  1  0  0  0
 29 30  2  0  0  0
  8  9  1  0  0  0
  9 10  2  0  0  0
 10 11  1  0  0  0
 11 12  2  0  0  0
 12  2  1  0  0  0
 11  6  1  0  0  0
 30 20  1  0  0  0
 29 23  1  0  0  0
  1 13  1  0  0  0
  1 14  1  0  0  0
  5 15  1  0  0  0
  5 16  1  0  0  0
 18 19  1  0  0  0
 24 31  1  0  0  0
M  END
> <minimizedAffinity>
-9.87288

> <CNNscore>
0.4935434163

> <CNNaffinity>
6.4089269638

> <CNN_VS>
3.1630837917

> <CNNaffinity_variance>
0.1565445960

$$$$
[H]c1c([H])c(N([H])C([H])([H])c2c([H])c([H])c3nc(N([H])[H])nc(N([H])[H])c3c2[H])c([H])c2c1N([H])C(=O)C([H])([H])C2([H])[H]


 31 34  0  0  0  0  0  0  0  0999 V2000
  -18.9359   20.4099  -18.1047 N   0  0  0  0  0  0  0  0  0  0  0  0
  -19.3754   19.1044  -17.6778 C   0  0  0  0  0  0  0  0  0  0  0  0
  -19.3810   18.7763  -16.3722 N   0  0  0  0  0  0  0  0  0  0  0  0
  -19.7735   17.5922  -15.9142 C   0  0  0  0  0  0  0  0  0  0  0  0
  -19.7873   17.2276  -14.5478 N   0  0  0  0  0  0  0  0  0  0  0  0
  -20.1974   16.6513  -16.8312 C   0  0  0  0  0  0  0  0  0  0  0  0
  -20.6125   15.4105  -16.3954 C   0  0  0  0  0  0  0  0  0  0  0  0
  -21.0329   14.4821  -17.3261 C   0  0  0  0  0  0  0  0  0  0  0  0
  -21.0241   14.8255  -18.6583 C   0  0  0  0  0  0  0  0  0  0  0  0
  -20.6162   16.0548  -19.1289 C   0  0  0  0  0  0  0  0  0  0  0  0
  -20.1945   16.9809  -18.1749 C   0  0  0  0  0  0  0  0  0  0  0  0
  -19.7888   18.1856  -18.5671 N   0  0  0  0  0  0  0  0  0  0  0  0
  -19.1902   21.2789  -17.6197 H   0  0  0  0  0  0  0  0  0  0  0  0
  -18.3315   20.4349  -18.9515 H   0  0  0  0  0  0  0  0  0  0  0  0
  -18.9256   17.1433  -13.9800 H   0  0  0  0  0  0  0  0  0  0  0  0
  -20.7001   17.0368  -14.0967 H   0  0  0  0  0  0  0  0  0  0  0  0
  -21.4824   13.1432  -16.8739 C   0  0  0  0  0  0  0  0  0  0  0  0
  -20.4209   12.3811  -16.2730 N   0  0  0  0  0  0  0  0  0  0  0  0
  -20.3378   12.3712  -15.2342 H   0  0  0  0  0  0  0  0  0  0  0  0
  -19.5238   11.6706  -17.0888 C   0  0  0  0  0  0  0  0  0  0  0  0
  -19.2987   10.3379  -16.8542 C   0  0  0  0  0  0  0  0  0  0  0  0
  -18.4116    9.6772  -17.6773 C   0  0  0  0  0  0  0  0  0  0  0  0
  -17.7432   10.3058  -18.7262 C   0  0  0  0  0  0  0  0  0  0  0  0
  -16.8463    9.5721  -19.5663 N   0  0  0  0  0  0  0  0  0  0  0  0
  -16.2242   10.2878  -20.6277 C   0  0  0  0  0  0  0  0  0  0  0  0
  -15.1207   10.0108  -21.1126 O   0  0  0  0  0  0  0  0  0  0  0  0
  -16.9949   11.4390  -21.1553 C   0  0  0  0  0  0  0  0  0  0  0  0
  -17.2996   12.3714  -20.0131 C   0  0  0  0  0  0  0  0  0  0  0  0
  -17.9843   11.6344  -18.9387 C   0  0  0  0  0  0  0  0  0  0  0  0
  -18.8760   12.3084  -18.1156 C   0  0  0  0  0  0  0  0  0  0  0  0
  -16.6527    8.5650  -19.4111 H   0  0  0  0  0  0  0  0  0  0  0  0
  1  2  1  0  0  0
  2  3  2  0  0  0
  3  4  1  0  0  0
  4  5  1  0  0  0
  4  6  2  0  0  0
  6  7  1  0  0  0
  7  8  2  0  0  0
  8 17  1  0  0  0
 17 18  1  0  0  0
 18 20  1  0  0  0
 20 21  2  0  0  0
 21 22  1  0  0  0
 22 23  2  0  0  0
 23 24  1  0  0  0
 24 25  1  0  0  0
 25 26  2  0  0  0
 25 27  1  0  0  0
 27 28  1  0  0  0
 28 29  1  0  0  0
 29 30  2  0  0  0
  8  9  1  0  0  0
  9 10  2  0  0  0
 10 11  1  0  0  0
 11 12  2  0  0  0
 12  2  1  0  0  0
 11  6  1  0  0  0
 30 20  1  0  0  0
 29 23  1  0  0  0
  1 13  1  0  0  0
  1 14  1  0  0  0
  5 15  1  0  0  0
  5 16  1  0  0  0
 18 19  1  0  0  0
 24 31  1  0  0  0
M  END
> <minimizedAffinity>
-7.86318

> <CNNscore>
0.3793427944

> <CNNaffinity>
6.1046323776

> <CNN_VS>
2.3157482147

> <CNNaffinity_variance>
0.1958988458

$$$$
[H]c1c([H])c(N([H])C([H])([H])c2c([H])c([H])c3nc(N([H])[H])nc(N([H])[H])c3c2[H])c([H])c2c1N([H])C(=O)C([H])([H])C2([H])[H]


 31 34  0  0  0  0  0  0  0  0999 V2000
  -16.4942    9.7582  -19.8653 N   0  0  0  0  0  0  0  0  0  0  0  0
  -16.9163   11.0954  -20.2015 C   0  0  0  0  0  0  0  0  0  0  0  0
  -16.8305   11.5429  -21.4683 N   0  0  0  0  0  0  0  0  0  0  0  0
  -17.2022   12.7625  -21.8431 C   0  0  0  0  0  0  0  0  0  0  0  0
  -17.1206   13.2519  -23.1675 N   0  0  0  0  0  0  0  0  0  0  0  0
  -17.7026   13.6125  -20.8771 C   0  0  0  0  0  0  0  0  0  0  0  0
  -18.0990   14.8864  -21.2264 C   0  0  0  0  0  0  0  0  0  0  0  0
  -18.5966   15.7227  -20.2477 C   0  0  0  0  0  0  0  0  0  0  0  0
  -18.6810   15.2575  -18.9557 C   0  0  0  0  0  0  0  0  0  0  0  0
  -18.2944   13.9919  -18.5714 C   0  0  0  0  0  0  0  0  0  0  0  0
  -17.7938   13.1600  -19.5729 C   0  0  0  0  0  0  0  0  0  0  0  0
  -17.4039   11.9261  -19.2643 N   0  0  0  0  0  0  0  0  0  0  0  0
  -16.7025    8.9366  -20.4455 H   0  0  0  0  0  0  0  0  0  0  0  0
  -15.9528    9.6577  -18.9822 H   0  0  0  0  0  0  0  0  0  0  0  0
  -16.2209   13.3924  -23.6602 H   0  0  0  0  0  0  0  0  0  0  0  0
  -18.0003   13.4793  -23.6650 H   0  0  0  0  0  0  0  0  0  0  0  0
  -19.0273   17.0956  -20.6068 C   0  0  0  0  0  0  0  0  0  0  0  0
  -18.9819   17.3326  -22.0246 N   0  0  0  0  0  0  0  0  0  0  0  0
  -18.2093   16.9062  -22.5790 H   0  0  0  0  0  0  0  0  0  0  0  0
  -19.9701   18.1267  -22.6313 C   0  0  0  0  0  0  0  0  0  0  0  0
  -19.8967   19.4935  -22.5402 C   0  0  0  0  0  0  0  0  0  0  0  0
  -20.8857   20.2363  -23.1494 C   0  0  0  0  0  0  0  0  0  0  0  0
  -21.9444   19.6567  -23.8460 C   0  0  0  0  0  0  0  0  0  0  0  0
  -22.9366   20.4711  -24.4791 N   0  0  0  0  0  0  0  0  0  0  0  0
  -23.9697   19.7963  -25.1885 C   0  0  0  0  0  0  0  0  0  0  0  0
  -25.1127   20.2375  -25.3574 O   0  0  0  0  0  0  0  0  0  0  0  0
  -23.5988   18.4736  -25.7455 C   0  0  0  0  0  0  0  0  0  0  0  0
  -23.0943   17.6082  -24.6215 C   0  0  0  0  0  0  0  0  0  0  0  0
  -21.9951   18.2928  -23.9217 C   0  0  0  0  0  0  0  0  0  0  0  0
  -21.0040   17.5362  -23.3119 C   0  0  0  0  0  0  0  0  0  0  0  0
  -22.9101   21.5065  -24.4241 H   0  0  0  0  0  0  0  0  0  0  0  0
  1  2  1  0  0  0
  2  3  2  0  0  0
  3  4  1  0  0  0
  4  5  1  0  0  0
  4  6  2  0  0  0
  6  7  1  0  0  0
  7  8  2  0  0  0
  8 17  1  0  0  0
 17 18  1  0  0  0
 18 20  1  0  0  0
 20 21  2  0  0  0
 21 22  1  0  0  0
 22 23  2  0  0  0
 23 24  1  0  0  0
 24 25  1  0  0  0
 25 26  2  0  0  0
 25 27  1  0  0  0
 27 28  1  0  0  0
 28 29  1  0  0  0
 29 30  2  0  0  0
  8  9  1  0  0  0
  9 10  2  0  0  0
 10 11  1  0  0  0
 11 12  2  0  0  0
 12  2  1  0  0  0
 11  6  1  0  0  0
 30 20  1  0  0  0
 29 23  1  0  0  0
  1 13  1  0  0  0
  1 14  1  0  0  0
  5 15  1  0  0  0
  5 16  1  0  0  0
 18 19  1  0  0  0
 24 31  1  0  0  0
M  END
> <minimizedAffinity>
-7.62959

> <CNNscore>
0.3507490754

> <CNNaffinity>
5.9445114136

> <CNN_VS>
2.0850319862

> <CNNaffinity_variance>
0.3577321172

$$$$
[H]c1c([H])c(N([H])C([H])([H])c2c([H])c([H])c3nc(N([H])[H])nc(N([H])[H])c3c2[H])c([H])c2c1N([H])C(=O)C([H])([H])C2([H])[H]


 31 34  0  0  0  0  0  0  0  0999 V2000
  -18.3427    8.0860  -16.2728 N   0  0  0  0  0  0  0  0  0  0  0  0
  -18.5936    9.3323  -16.9533 C   0  0  0  0  0  0  0  0  0  0  0  0
  -19.5507   10.1716  -16.5153 N   0  0  0  0  0  0  0  0  0  0  0  0
  -19.8310   11.3333  -17.0965 C   0  0  0  0  0  0  0  0  0  0  0  0
  -20.8314   12.2290  -16.6526 N   0  0  0  0  0  0  0  0  0  0  0  0
  -19.0981   11.6940  -18.2096 C   0  0  0  0  0  0  0  0  0  0  0  0
  -19.3591   12.8919  -18.8411 C   0  0  0  0  0  0  0  0  0  0  0  0
  -18.6167   13.2364  -19.9525 C   0  0  0  0  0  0  0  0  0  0  0  0
  -17.6406   12.3730  -20.3935 C   0  0  0  0  0  0  0  0  0  0  0  0
  -17.3532   11.1691  -19.7876 C   0  0  0  0  0  0  0  0  0  0  0  0
  -18.1128   10.8367  -18.6660 C   0  0  0  0  0  0  0  0  0  0  0  0
  -17.8826    9.6873  -18.0371 N   0  0  0  0  0  0  0  0  0  0  0  0
  -18.3198    7.9946  -15.2499 H   0  0  0  0  0  0  0  0  0  0  0  0
  -18.1806    7.2571  -16.8809 H   0  0  0  0  0  0  0  0  0  0  0  0
  -21.8402   11.9968  -16.6675 H   0  0  0  0  0  0  0  0  0  0  0  0
  -20.5405   13.1577  -16.2975 H   0  0  0  0  0  0  0  0  0  0  0  0
  -18.8848   14.5210  -20.6432 C   0  0  0  0  0  0  0  0  0  0  0  0
  -17.6931   15.3052  -20.8269 N   0  0  0  0  0  0  0  0  0  0  0  0
  -17.2123   15.6896  -19.9861 H   0  0  0  0  0  0  0  0  0  0  0  0
  -17.2032   15.5367  -22.1236 C   0  0  0  0  0  0  0  0  0  0  0  0
  -16.3040   16.5494  -22.3415 C   0  0  0  0  0  0  0  0  0  0  0  0
  -15.8475   16.7433  -23.6280 C   0  0  0  0  0  0  0  0  0  0  0  0
  -16.2610   15.9578  -24.7022 C   0  0  0  0  0  0  0  0  0  0  0  0
  -15.7430   16.1852  -26.0169 N   0  0  0  0  0  0  0  0  0  0  0  0
  -16.2024   15.3214  -27.0507 C   0  0  0  0  0  0  0  0  0  0  0  0
  -16.2811   15.6318  -28.2452 O   0  0  0  0  0  0  0  0  0  0  0  0
  -16.6032   13.9632  -26.6125 C   0  0  0  0  0  0  0  0  0  0  0  0
  -17.6577   14.0987  -25.5464 C   0  0  0  0  0  0  0  0  0  0  0  0
  -17.1582   14.9556  -24.4589 C   0  0  0  0  0  0  0  0  0  0  0  0
  -17.6234   14.7522  -23.1671 C   0  0  0  0  0  0  0  0  0  0  0  0
  -15.0655   16.9457  -26.2133 H   0  0  0  0  0  0  0  0  0  0  0  0
  1  2  1  0  0  0
  2  3  2  0  0  0
  3  4  1  0  0  0
  4  5  1  0  0  0
  4  6  2  0  0  0
  6  7  1  0  0  0
  7  8  2  0  0  0
  8 17  1  0  0  0
 17 18  1  0  0  0
 18 20  1  0  0  0
 20 21  2  0  0  0
 21 22  1  0  0  0
 22 23  2  0  0  0
 23 24  1  0  0  0
 24 25  1  0  0  0
 25 26  2  0  0  0
 25 27  1  0  0  0
 27 28  1  0  0  0
 28 29  1  0  0  0
 29 30  2  0  0  0
  8  9  1  0  0  0
  9 10  2  0  0  0
 10 11  1  0  0  0
 11 12  2  0  0  0
 12  2  1  0  0  0
 11  6  1  0  0  0
 30 20  1  0  0  0
 29 23  1  0  0  0
  1 13  1  0  0  0
  1 14  1  0  0  0
  5 15  1  0  0  0
  5 16  1  0  0  0
 18 19  1  0  0  0
 24 31  1  0  0  0
M  END
> <minimizedAffinity>
-9.61246

> <CNNscore>
0.3002946377

> <CNNaffinity>
6.0498685837

> <CNN_VS>
1.8167431355

> <CNNaffinity_variance>
0.0709201247

$$$$
[H]c1c([H])c(N([H])C([H])([H])c2c([H])c([H])c3nc(N([H])[H])nc(N([H])[H])c3c2[H])c([H])c2c1N([H])C(=O)C([H])([H])C2([H])[H]


 31 34  0  0  0  0  0  0  0  0999 V2000
  -19.0632    7.6754  -15.4935 N   0  0  0  0  0  0  0  0  0  0  0  0
  -18.9993    8.8390  -16.3428 C   0  0  0  0  0  0  0  0  0  0  0  0
  -18.0974    8.9111  -17.3396 N   0  0  0  0  0  0  0  0  0  0  0  0
  -17.9873    9.9536  -18.1564 C   0  0  0  0  0  0  0  0  0  0  0  0
  -17.0475   10.0492  -19.2090 N   0  0  0  0  0  0  0  0  0  0  0  0
  -18.8467   11.0174  -17.9680 C   0  0  0  0  0  0  0  0  0  0  0  0
  -18.7638   12.1179  -18.7950 C   0  0  0  0  0  0  0  0  0  0  0  0
  -19.6308   13.1725  -18.5922 C   0  0  0  0  0  0  0  0  0  0  0  0
  -20.5495   13.0906  -17.5713 C   0  0  0  0  0  0  0  0  0  0  0  0
  -20.6603   12.0075  -16.7266 C   0  0  0  0  0  0  0  0  0  0  0  0
  -19.7765   10.9509  -16.9457 C   0  0  0  0  0  0  0  0  0  0  0  0
  -19.8340    9.8768  -16.1629 N   0  0  0  0  0  0  0  0  0  0  0  0
  -18.9877    6.7133  -15.8455 H   0  0  0  0  0  0  0  0  0  0  0  0
  -19.1931    7.8573  -14.4771 H   0  0  0  0  0  0  0  0  0  0  0  0
  -16.0255   10.0881  -19.0480 H   0  0  0  0  0  0  0  0  0  0  0  0
  -17.3986   10.0817  -20.1831 H   0  0  0  0  0  0  0  0  0  0  0  0
  -19.5548   14.3633  -19.4727 C   0  0  0  0  0  0  0  0  0  0  0  0
  -18.3012   15.0577  -19.3507 N   0  0  0  0  0  0  0  0  0  0  0  0
  -17.9683   15.3267  -18.4005 H   0  0  0  0  0  0  0  0  0  0  0  0
  -17.5550   15.3582  -20.5031 C   0  0  0  0  0  0  0  0  0  0  0  0
  -17.1640   16.6509  -20.7437 C   0  0  0  0  0  0  0  0  0  0  0  0
  -16.4331   16.9036  -21.8851 C   0  0  0  0  0  0  0  0  0  0  0  0
  -16.0811   15.9062  -22.7925 C   0  0  0  0  0  0  0  0  0  0  0  0
  -15.3035   16.2150  -23.9538 N   0  0  0  0  0  0  0  0  0  0  0  0
  -14.9699   15.1317  -24.8146 C   0  0  0  0  0  0  0  0  0  0  0  0
  -14.7684   15.2341  -26.0305 O   0  0  0  0  0  0  0  0  0  0  0  0
  -14.8685   13.8065  -24.1582 C   0  0  0  0  0  0  0  0  0  0  0  0
  -16.1683   13.5238  -23.4529 C   0  0  0  0  0  0  0  0  0  0  0  0
  -16.4834   14.6264  -22.5302 C   0  0  0  0  0  0  0  0  0  0  0  0
  -17.2194   14.3618  -21.3835 C   0  0  0  0  0  0  0  0  0  0  0  0
  -14.9970   17.1832  -24.1647 H   0  0  0  0  0  0  0  0  0  0  0  0
  1  2  1  0  0  0
  2  3  2  0  0  0
  3  4  1  0  0  0
  4  5  1  0  0  0
  4  6  2  0  0  0
  6  7  1  0  0  0
  7  8  2  0  0  0
  8 17  1  0  0  0
 17 18  1  0  0  0
 18 20  1  0  0  0
 20 21  2  0  0  0
 21 22  1  0  0  0
 22 23  2  0  0  0
 23 24  1  0  0  0
 24 25  1  0  0  0
 25 26  2  0  0  0
 25 27  1  0  0  0
 27 28  1  0  0  0
 28 29  1  0  0  0
 29 30  2  0  0  0
  8  9  1  0  0  0
  9 10  2  0  0  0
 10 11  1  0  0  0
 11 12  2  0  0  0
 12  2  1  0  0  0
 11  6  1  0  0  0
 30 20  1  0  0  0
 29 23  1  0  0  0
  1 13  1  0  0  0
  1 14  1  0  0  0
  5 15  1  0  0  0
  5 16  1  0  0  0
 18 19  1  0  0  0
 24 31  1  0  0  0
M  END
> <minimizedAffinity>
-9.10494

> <CNNscore>
0.2959596813

> <CNNaffinity>
6.1903839111

> <CNN_VS>
1.8321040869

> <CNNaffinity_variance>
0.1867761761

$$$$
[H]c1c([H])c(N([H])C([H])([H])c2c([H])c([H])c3nc(N([H])[H])nc(N([H])[H])c3c2[H])c([H])c2c1N([H])C(=O)C([H])([H])C2([H])[H]


 31 34  0  0  0  0  0  0  0  0999 V2000
  -13.5031   15.2258  -25.5106 N   0  0  0  0  0  0  0  0  0  0  0  0
  -14.5465   15.0874  -24.5249 C   0  0  0  0  0  0  0  0  0  0  0  0
  -15.1067   16.1748  -23.9627 N   0  0  0  0  0  0  0  0  0  0  0  0
  -16.0708   16.1155  -23.0500 C   0  0  0  0  0  0  0  0  0  0  0  0
  -16.6724   17.2447  -22.4476 N   0  0  0  0  0  0  0  0  0  0  0  0
  -16.5184   14.8687  -22.6610 C   0  0  0  0  0  0  0  0  0  0  0  0
  -17.5177   14.7653  -21.7162 C   0  0  0  0  0  0  0  0  0  0  0  0
  -17.9527   13.5110  -21.3390 C   0  0  0  0  0  0  0  0  0  0  0  0
  -17.3750   12.4050  -21.9185 C   0  0  0  0  0  0  0  0  0  0  0  0
  -16.3753   12.4712  -22.8647 C   0  0  0  0  0  0  0  0  0  0  0  0
  -15.9476   13.7463  -23.2342 C   0  0  0  0  0  0  0  0  0  0  0  0
  -14.9851   13.8757  -24.1433 N   0  0  0  0  0  0  0  0  0  0  0  0
  -13.5247   15.9250  -26.2628 H   0  0  0  0  0  0  0  0  0  0  0  0
  -12.7023   14.5667  -25.4250 H   0  0  0  0  0  0  0  0  0  0  0  0
  -16.1537   17.8971  -21.8334 H   0  0  0  0  0  0  0  0  0  0  0  0
  -17.6761   17.4256  -22.6295 H   0  0  0  0  0  0  0  0  0  0  0  0
  -19.0265   13.3824  -20.3243 C   0  0  0  0  0  0  0  0  0  0  0  0
  -18.5079   13.1797  -18.9982 N   0  0  0  0  0  0  0  0  0  0  0  0
  -18.0217   13.9704  -18.5244 H   0  0  0  0  0  0  0  0  0  0  0  0
  -18.6645   11.9318  -18.3710 C   0  0  0  0  0  0  0  0  0  0  0  0
  -17.7711   10.9231  -18.6282 C   0  0  0  0  0  0  0  0  0  0  0  0
  -17.9598    9.7143  -17.9924 C   0  0  0  0  0  0  0  0  0  0  0  0
  -19.0121    9.4823  -17.1088 C   0  0  0  0  0  0  0  0  0  0  0  0
  -19.1546    8.2158  -16.4574 N   0  0  0  0  0  0  0  0  0  0  0  0
  -20.2446    8.0734  -15.5533 C   0  0  0  0  0  0  0  0  0  0  0  0
  -20.8131    7.0052  -15.2977 O   0  0  0  0  0  0  0  0  0  0  0  0
  -20.6931    9.3244  -14.8966 C   0  0  0  0  0  0  0  0  0  0  0  0
  -21.0372   10.3267  -15.9661 C   0  0  0  0  0  0  0  0  0  0  0  0
  -19.8890   10.5033  -16.8699 C   0  0  0  0  0  0  0  0  0  0  0  0
  -19.7074   11.7241  -17.5049 C   0  0  0  0  0  0  0  0  0  0  0  0
  -18.4977    7.4330  -16.6349 H   0  0  0  0  0  0  0  0  0  0  0  0
  1  2  1  0  0  0
  2  3  2  0  0  0
  3  4  1  0  0  0
  4  5  1  0  0  0
  4  6  2  0  0  0
  6  7  1  0  0  0
  7  8  2  0  0  0
  8 17  1  0  0  0
 17 18  1  0  0  0
 18 20  1  0  0  0
 20 21  2  0  0  0
 21 22  1  0  0  0
 22 23  2  0  0  0
 23 24  1  0  0  0
 24 25  1  0  0  0
 25 26  2  0  0  0
 25 27  1  0  0  0
 27 28  1  0  0  0
 28 29  1  0  0  0
 29 30  2  0  0  0
  8  9  1  0  0  0
  9 10  2  0  0  0
 10 11  1  0  0  0
 11 12  2  0  0  0
 12  2  1  0  0  0
 11  6  1  0  0  0
 30 20  1  0  0  0
 29 23  1  0  0  0
  1 13  1  0  0  0
  1 14  1  0  0  0
  5 15  1  0  0  0
  5 16  1  0  0  0
 18 19  1  0  0  0
 24 31  1  0  0  0
M  END
> <minimizedAffinity>
-9.37792

> <CNNscore>
0.2679987550

> <CNNaffinity>
5.9263110161

> <CNN_VS>
1.5882439613

> <CNNaffinity_variance>
0.1429587007

$$$$
[H]c1c([H])c(N([H])C([H])([H])c2c([H])c([H])c3nc(N([H])[H])nc(N([H])[H])c3c2[H])c([H])c2c1N([H])C(=O)C([H])([H])C2([H])[H]


 31 34  0  0  0  0  0  0  0  0999 V2000
  -19.5662    8.4314  -15.3523 N   0  0  0  0  0  0  0  0  0  0  0  0
  -19.2927    9.4252  -16.3608 C   0  0  0  0  0  0  0  0  0  0  0  0
  -18.3208    9.2283  -17.2712 N   0  0  0  0  0  0  0  0  0  0  0  0
  -18.0195   10.1033  -18.2248 C   0  0  0  0  0  0  0  0  0  0  0  0
  -17.0032    9.9159  -19.1903 N   0  0  0  0  0  0  0  0  0  0  0  0
  -18.7456   11.2762  -18.2803 C   0  0  0  0  0  0  0  0  0  0  0  0
  -18.4630   12.2097  -19.2553 C   0  0  0  0  0  0  0  0  0  0  0  0
  -19.1988   13.3766  -19.2958 C   0  0  0  0  0  0  0  0  0  0  0  0
  -20.1902   13.5700  -18.3618 C   0  0  0  0  0  0  0  0  0  0  0  0
  -20.4994   12.6597  -17.3745 C   0  0  0  0  0  0  0  0  0  0  0  0
  -19.7461   11.4861  -17.3481 C   0  0  0  0  0  0  0  0  0  0  0  0
  -19.9971   10.5683  -16.4183 N   0  0  0  0  0  0  0  0  0  0  0  0
  -19.5909    7.4226  -15.5443 H   0  0  0  0  0  0  0  0  0  0  0  0
  -19.7431    8.7908  -14.3918 H   0  0  0  0  0  0  0  0  0  0  0  0
  -15.9987    9.8616  -18.9455 H   0  0  0  0  0  0  0  0  0  0  0  0
  -17.2774    9.8294  -20.1855 H   0  0  0  0  0  0  0  0  0  0  0  0
  -18.9075   14.3906  -20.3380 C   0  0  0  0  0  0  0  0  0  0  0  0
  -17.5820   14.2565  -20.8799 N   0  0  0  0  0  0  0  0  0  0  0  0
  -16.8482   13.7968  -20.3000 H   0  0  0  0  0  0  0  0  0  0  0  0
  -17.3026   14.7427  -22.1686 C   0  0  0  0  0  0  0  0  0  0  0  0
  -18.1363   15.6681  -22.7433 C   0  0  0  0  0  0  0  0  0  0  0  0
  -17.8267   16.1199  -24.0086 C   0  0  0  0  0  0  0  0  0  0  0  0
  -16.7115   15.6763  -24.7168 C   0  0  0  0  0  0  0  0  0  0  0  0
  -16.4208   16.1903  -26.0206 N   0  0  0  0  0  0  0  0  0  0  0  0
  -15.2492   15.6990  -26.6622 C   0  0  0  0  0  0  0  0  0  0  0  0
  -15.0972   15.6197  -27.8870 O   0  0  0  0  0  0  0  0  0  0  0  0
  -14.1620   15.2638  -25.7534 C   0  0  0  0  0  0  0  0  0  0  0  0
  -14.7129   14.2218  -24.8167 C   0  0  0  0  0  0  0  0  0  0  0  0
  -15.8969   14.7534  -24.1224 C   0  0  0  0  0  0  0  0  0  0  0  0
  -16.1999   14.2927  -22.8486 C   0  0  0  0  0  0  0  0  0  0  0  0
  -17.0346   16.8872  -26.4825 H   0  0  0  0  0  0  0  0  0  0  0  0
  1  2  1  0  0  0
  2  3  2  0  0  0
  3  4  1  0  0  0
  4  5  1  0  0  0
  4  6  2  0  0  0
  6  7  1  0  0  0
  7  8  2  0  0  0
  8 17  1  0  0  0
 17 18  1  0  0  0
 18 20  1  0  0  0
 20 21  2  0  0  0
 21 22  1  0  0  0
 22 23  2  0  0  0
 23 24  1  0  0  0
 24 25  1  0  0  0
 25 26  2  0  0  0
 25 27  1  0  0  0
 27 28  1  0  0  0
 28 29  1  0  0  0
 29 30  2  0  0  0
  8  9  1  0  0  0
  9 10  2  0  0  0
 10 11  1  0  0  0
 11 12  2  0  0  0
 12  2  1  0  0  0
 11  6  1  0  0  0
 30 20  1  0  0  0
 29 23  1  0  0  0
  1 13  1  0  0  0
  1 14  1  0  0  0
  5 15  1  0  0  0
  5 16  1  0  0  0
 18 19  1  0  0  0
 24 31  1  0  0  0
M  END
> <minimizedAffinity>
-8.95707

> <CNNscore>
0.2639238536

> <CNNaffinity>
6.0534248352

> <CNN_VS>
1.5976432562

> <CNNaffinity_variance>
0.1031122953

$$$$
[H]c1nc(N([H])c2c([H])c([H])c(N3C([H])([H])C([H])([H])OC([H])([H])C3([H])[H])c([H])c2OC([H])([H])[H])nc(N([H])c2c([H])c([H])c([H])c([H])c2S(=O)(=O)C2([H])C([H])([H])C2([H])[H])c1Cl


 37 41  0  0  0  0  0  0  0  0999 V2000
  -17.3984   10.3457  -19.1253 C   0  0  0  0  0  0  0  0  0  0  0  0
  -16.4275    9.7413  -19.8095 N   0  0  0  0  0  0  0  0  0  0  0  0
  -15.9246   10.2618  -20.9403 C   0  0  0  0  0  0  0  0  0  0  0  0
  -16.3882   11.4393  -21.4413 C   0  0  0  0  0  0  0  0  0  0  0  0
  -15.7262   12.1288  -22.9349 Cl  0  0  0  0  0  0  0  0  0  0  0  0
  -17.4169   12.1089  -20.7435 C   0  0  0  0  0  0  0  0  0  0  0  0
  -17.8345   11.4989  -19.6390 N   0  0  0  0  0  0  0  0  0  0  0  0
  -17.9697    9.8607  -17.9435 N   0  0  0  0  0  0  0  0  0  0  0  0
  -17.4389    9.0187  -17.5210 H   0  0  0  0  0  0  0  0  0  0  0  0
  -19.7033    9.3556  -16.3857 C   0  0  0  0  0  0  0  0  0  0  0  0
  -20.8144    9.6869  -15.6526 C   0  0  0  0  0  0  0  0  0  0  0  0
  -21.3877   10.9342  -15.7121 C   0  0  0  0  0  0  0  0  0  0  0  0
  -20.7841   11.8352  -16.5500 C   0  0  0  0  0  0  0  0  0  0  0  0
  -19.6598   11.5226  -17.3009 C   0  0  0  0  0  0  0  0  0  0  0  0
  -19.1020   10.2867  -17.2337 C   0  0  0  0  0  0  0  0  0  0  0  0
  -22.5464   11.2769  -14.9458 N   0  0  0  0  0  0  0  0  0  0  0  0
  -23.5824   10.2909  -14.8125 C   0  0  0  0  0  0  0  0  0  0  0  0
  -24.8486   10.7542  -14.1879 C   0  0  0  0  0  0  0  0  0  0  0  0
  -24.9624   12.1116  -14.0347 O   0  0  0  0  0  0  0  0  0  0  0  0
  -23.8299   12.5914  -13.3622 C   0  0  0  0  0  0  0  0  0  0  0  0
  -22.6799   12.5649  -14.3234 C   0  0  0  0  0  0  0  0  0  0  0  0
  -19.6159    7.2285  -15.2127 C   0  0  0  0  0  0  0  0  0  0  0  0
  -19.1838    8.0578  -16.2636 O   0  0  0  0  0  0  0  0  0  0  0  0
  -17.8796   13.3307  -21.2626 N   0  0  0  0  0  0  0  0  0  0  0  0
  -17.3334   13.6953  -22.0991 H   0  0  0  0  0  0  0  0  0  0  0  0
  -18.9582   14.0766  -20.8193 C   0  0  0  0  0  0  0  0  0  0  0  0
  -20.0851   13.5334  -20.2127 C   0  0  0  0  0  0  0  0  0  0  0  0
  -21.1704   14.3184  -19.8182 C   0  0  0  0  0  0  0  0  0  0  0  0
  -21.0911   15.6706  -20.0519 C   0  0  0  0  0  0  0  0  0  0  0  0
  -19.9859   16.2311  -20.6508 C   0  0  0  0  0  0  0  0  0  0  0  0
  -18.9040   15.4632  -21.0454 C   0  0  0  0  0  0  0  0  0  0  0  0
  -17.5242   16.2029  -21.7613 S   0  0  0  0  0  0  0  0  0  0  0  0
  -17.3144   15.5509  -23.1403 O   0  0  0  0  0  0  0  0  0  0  0  0
  -16.2265   15.9172  -21.0360 O   0  0  0  0  0  0  0  0  0  0  0  0
  -17.6492   17.9282  -22.0391 C   0  0  0  0  0  0  0  0  0  0  0  0
  -18.9560   18.5582  -22.3670 C   0  0  0  0  0  0  0  0  0  0  0  0
  -17.9882   18.2782  -23.5056 C   0  0  0  0  0  0  0  0  0  0  0  0
 22 23  1  0  0  0
 23 10  1  0  0  0
 10 11  2  0  0  0
 11 12  1  0  0  0
 12 13  2  0  0  0
 13 14  1  0  0  0
 14 15  2  0  0  0
 15  8  1  0  0  0
  8  1  1  0  0  0
  1  2  2  0  0  0
  2  3  1  0  0  0
  3  4  2  0  0  0
  4  5  1  0  0  0
  4  6  1  0  0  0
  6 24  1  0  0  0
 24 26  1  0  0  0
 26 27  2  0  0  0
 27 28  1  0  0  0
 28 29  2  0  0  0
 29 30  1  0  0  0
 30 31  2  0  0  0
 31 32  1  0  0  0
 32 33  2  0  0  0
 32 34  2  0  0  0
 32 35  1  0  0  0
 35 36  1  0  0  0
 36 37  1  0  0  0
  6  7  2  0  0  0
 12 16  1  0  0  0
 16 17  1  0  0  0
 17 18  1  0  0  0
 18 19  1  0  0  0
 19 20  1  0  0  0
 20 21  1  0  0  0
 15 10  1  0  0  0
  7  1  1  0  0  0
 21 16  1  0  0  0
 31 26  1  0  0  0
 37 35  1  0  0  0
  8  9  1  0  0  0
 24 25  1  0  0  0
M  END
> <minimizedAffinity>
-8.05492

> <CNNscore>
0.7725849748

> <CNNaffinity>
7.4811859131

> <CNN_VS>
5.7798519135

> <CNNaffinity_variance>
0.0381365791

$$$$
[H]c1nc(N([H])c2c([H])c([H])c(N3C([H])([H])C([H])([H])OC([H])([H])C3([H])[H])c([H])c2OC([H])([H])[H])nc(N([H])c2c([H])c([H])c([H])c([H])c2S(=O)(=O)C2([H])C([H])([H])C2([H])[H])c1Cl


 37 41  0  0  0  0  0  0  0  0999 V2000
  -17.9285   11.4148  -19.0955 C   0  0  0  0  0  0  0  0  0  0  0  0
  -17.0312   10.4406  -19.2432 N   0  0  0  0  0  0  0  0  0  0  0  0
  -16.2075   10.3875  -20.3022 C   0  0  0  0  0  0  0  0  0  0  0  0
  -16.2532   11.3342  -21.2788 C   0  0  0  0  0  0  0  0  0  0  0  0
  -15.1668   11.2662  -22.6787 Cl  0  0  0  0  0  0  0  0  0  0  0  0
  -17.1914   12.3823  -21.1567 C   0  0  0  0  0  0  0  0  0  0  0  0
  -17.9519   12.3300  -20.0680 N   0  0  0  0  0  0  0  0  0  0  0  0
  -18.8178   11.5312  -18.0212 N   0  0  0  0  0  0  0  0  0  0  0  0
  -19.0747   12.5540  -17.7822 H   0  0  0  0  0  0  0  0  0  0  0  0
  -20.5686   10.9169  -16.5231 C   0  0  0  0  0  0  0  0  0  0  0  0
  -21.2204   10.0187  -15.7168 C   0  0  0  0  0  0  0  0  0  0  0  0
  -20.7822    8.7267  -15.5534 C   0  0  0  0  0  0  0  0  0  0  0  0
  -19.6502    8.3826  -16.2451 C   0  0  0  0  0  0  0  0  0  0  0  0
  -18.9745    9.2740  -17.0663 C   0  0  0  0  0  0  0  0  0  0  0  0
  -19.4171   10.5482  -17.2200 C   0  0  0  0  0  0  0  0  0  0  0  0
  -21.4645    7.7920  -14.7121 N   0  0  0  0  0  0  0  0  0  0  0  0
  -21.1854    6.3944  -14.8920 C   0  0  0  0  0  0  0  0  0  0  0  0
  -22.0600    5.4524  -14.1464 C   0  0  0  0  0  0  0  0  0  0  0  0
  -23.1697    6.0156  -13.5715 O   0  0  0  0  0  0  0  0  0  0  0  0
  -22.7728    7.1080  -12.7876 C   0  0  0  0  0  0  0  0  0  0  0  0
  -22.4018    8.2267  -13.7139 C   0  0  0  0  0  0  0  0  0  0  0  0
  -21.4409   12.9267  -15.4704 C   0  0  0  0  0  0  0  0  0  0  0  0
  -21.0863   12.2166  -16.6318 O   0  0  0  0  0  0  0  0  0  0  0  0
  -17.2216   13.3619  -22.1645 N   0  0  0  0  0  0  0  0  0  0  0  0
  -17.5540   13.0154  -23.1134 H   0  0  0  0  0  0  0  0  0  0  0  0
  -16.8907   14.7006  -22.0443 C   0  0  0  0  0  0  0  0  0  0  0  0
  -16.8095   15.3778  -20.8328 C   0  0  0  0  0  0  0  0  0  0  0  0
  -16.5134   16.7404  -20.7592 C   0  0  0  0  0  0  0  0  0  0  0  0
  -16.3006   17.4063  -21.9427 C   0  0  0  0  0  0  0  0  0  0  0  0
  -16.3755   16.7571  -23.1541 C   0  0  0  0  0  0  0  0  0  0  0  0
  -16.6676   15.4069  -23.2393 C   0  0  0  0  0  0  0  0  0  0  0  0
  -16.7202   14.6208  -24.7700 S   0  0  0  0  0  0  0  0  0  0  0  0
  -18.1349   14.0374  -24.9407 O   0  0  0  0  0  0  0  0  0  0  0  0
  -15.8239   13.4048  -24.8688 O   0  0  0  0  0  0  0  0  0  0  0  0
  -16.4338   15.6493  -26.1591 C   0  0  0  0  0  0  0  0  0  0  0  0
  -15.9690   15.0784  -27.4514 C   0  0  0  0  0  0  0  0  0  0  0  0
  -14.9400   15.7357  -26.5454 C   0  0  0  0  0  0  0  0  0  0  0  0
 22 23  1  0  0  0
 23 10  1  0  0  0
 10 11  2  0  0  0
 11 12  1  0  0  0
 12 13  2  0  0  0
 13 14  1  0  0  0
 14 15  2  0  0  0
 15  8  1  0  0  0
  8  1  1  0  0  0
  1  2  2  0  0  0
  2  3  1  0  0  0
  3  4  2  0  0  0
  4  5  1  0  0  0
  4  6  1  0  0  0
  6 24  1  0  0  0
 24 26  1  0  0  0
 26 27  2  0  0  0
 27 28  1  0  0  0
 28 29  2  0  0  0
 29 30  1  0  0  0
 30 31  2  0  0  0
 31 32  1  0  0  0
 32 33  2  0  0  0
 32 34  2  0  0  0
 32 35  1  0  0  0
 35 36  1  0  0  0
 36 37  1  0  0  0
  6  7  2  0  0  0
 12 16  1  0  0  0
 16 17  1  0  0  0
 17 18  1  0  0  0
 18 19  1  0  0  0
 19 20  1  0  0  0
 20 21  1  0  0  0
 15 10  1  0  0  0
  7  1  1  0  0  0
 21 16  1  0  0  0
 31 26  1  0  0  0
 37 35  1  0  0  0
  8  9  1  0  0  0
 24 25  1  0  0  0
M  END
> <minimizedAffinity>
-8.74914

> <CNNscore>
0.4986000359

> <CNNaffinity>
7.3462357521

> <CNN_VS>
3.6628334522

> <CNNaffinity_variance>
0.0919894800

$$$$
[H]c1nc(N([H])c2c([H])c([H])c(N3C([H])([H])C([H])([H])OC([H])([H])C3([H])[H])c([H])c2OC([H])([H])[H])nc(N([H])c2c([H])c([H])c([H])c([H])c2S(=O)(=O)C2([H])C([H])([H])C2([H])[H])c1Cl


 37 41  0  0  0  0  0  0  0  0999 V2000
  -18.0632   11.7378  -19.8110 C   0  0  0  0  0  0  0  0  0  0  0  0
  -17.0825   10.8415  -19.9148 N   0  0  0  0  0  0  0  0  0  0  0  0
  -16.1824   10.8847  -20.9101 C   0  0  0  0  0  0  0  0  0  0  0  0
  -16.2327   11.8538  -21.8643 C   0  0  0  0  0  0  0  0  0  0  0  0
  -15.0456   11.9128  -23.1803 Cl  0  0  0  0  0  0  0  0  0  0  0  0
  -17.2582   12.8213  -21.7873 C   0  0  0  0  0  0  0  0  0  0  0  0
  -18.0891   12.6773  -20.7601 N   0  0  0  0  0  0  0  0  0  0  0  0
  -19.0346   11.7523  -18.8037 N   0  0  0  0  0  0  0  0  0  0  0  0
  -19.8183   12.4785  -18.9699 H   0  0  0  0  0  0  0  0  0  0  0  0
  -19.6326   11.6388  -16.4980 C   0  0  0  0  0  0  0  0  0  0  0  0
  -19.7782   10.9674  -15.3107 C   0  0  0  0  0  0  0  0  0  0  0  0
  -19.4610    9.6372  -15.1762 C   0  0  0  0  0  0  0  0  0  0  0  0
  -18.9881    9.0141  -16.3015 C   0  0  0  0  0  0  0  0  0  0  0  0
  -18.8326    9.6728  -17.5129 C   0  0  0  0  0  0  0  0  0  0  0  0
  -19.1495   10.9874  -17.6336 C   0  0  0  0  0  0  0  0  0  0  0  0
  -19.6144    8.9395  -13.9366 N   0  0  0  0  0  0  0  0  0  0  0  0
  -19.8913    7.5308  -13.9856 C   0  0  0  0  0  0  0  0  0  0  0  0
  -20.2452    6.8893  -12.6928 C   0  0  0  0  0  0  0  0  0  0  0  0
  -20.4978    7.7551  -11.6605 O   0  0  0  0  0  0  0  0  0  0  0  0
  -19.4212    8.6443  -11.5369 C   0  0  0  0  0  0  0  0  0  0  0  0
  -19.4963    9.6168  -12.6751 C   0  0  0  0  0  0  0  0  0  0  0  0
  -21.2981   13.3914  -16.2473 C   0  0  0  0  0  0  0  0  0  0  0  0
  -19.9810   12.9973  -16.5453 O   0  0  0  0  0  0  0  0  0  0  0  0
  -17.2934   13.8254  -22.7707 N   0  0  0  0  0  0  0  0  0  0  0  0
  -17.3100   14.8193  -22.3927 H   0  0  0  0  0  0  0  0  0  0  0  0
  -17.2881   13.6557  -24.1445 C   0  0  0  0  0  0  0  0  0  0  0  0
  -17.7150   12.5000  -24.7888 C   0  0  0  0  0  0  0  0  0  0  0  0
  -17.6532   12.3544  -26.1762 C   0  0  0  0  0  0  0  0  0  0  0  0
  -17.1477   13.4074  -26.9009 C   0  0  0  0  0  0  0  0  0  0  0  0
  -16.7191   14.5613  -26.2851 C   0  0  0  0  0  0  0  0  0  0  0  0
  -16.7761   14.7173  -24.9110 C   0  0  0  0  0  0  0  0  0  0  0  0
  -16.2621   16.1877  -24.1780 S   0  0  0  0  0  0  0  0  0  0  0  0
  -15.0374   16.6914  -24.9635 O   0  0  0  0  0  0  0  0  0  0  0  0
  -15.7326   16.0213  -22.7695 O   0  0  0  0  0  0  0  0  0  0  0  0
  -17.4337   17.4902  -24.1919 C   0  0  0  0  0  0  0  0  0  0  0  0
  -17.9009   18.1131  -22.9247 C   0  0  0  0  0  0  0  0  0  0  0  0
  -18.7963   17.0797  -23.5895 C   0  0  0  0  0  0  0  0  0  0  0  0
 22 23  1  0  0  0
 23 10  1  0  0  0
 10 11  2  0  0  0
 11 12  1  0  0  0
 12 13  2  0  0  0
 13 14  1  0  0  0
 14 15  2  0  0  0
 15  8  1  0  0  0
  8  1  1  0  0  0
  1  2  2  0  0  0
  2  3  1  0  0  0
  3  4  2  0  0  0
  4  5  1  0  0  0
  4  6  1  0  0  0
  6 24  1  0  0  0
 24 26  1  0  0  0
 26 27  2  0  0  0
 27 28  1  0  0  0
 28 29  2  0  0  0
 29 30  1  0  0  0
 30 31  2  0  0  0
 31 32  1  0  0  0
 32 33  2  0  0  0
 32 34  2  0  0  0
 32 35  1  0  0  0
 35 36  1  0  0  0
 36 37  1  0  0  0
  6  7  2  0  0  0
 12 16  1  0  0  0
 16 17  1  0  0  0
 17 18  1  0  0  0
 18 19  1  0  0  0
 19 20  1  0  0  0
 20 21  1  0  0  0
 15 10  1  0  0  0
  7  1  1  0  0  0
 21 16  1  0  0  0
 31 26  1  0  0  0
 37 35  1  0  0  0
  8  9  1  0  0  0
 24 25  1  0  0  0
M  END
> <minimizedAffinity>
-7.98986

> <CNNscore>
0.4966372848

> <CNNaffinity>
7.5884041786

> <CNN_VS>
3.7686843872

> <CNNaffinity_variance>
0.2705653012

$$$$
[H]c1nc(N([H])c2c([H])c([H])c(N3C([H])([H])C([H])([H])OC([H])([H])C3([H])[H])c([H])c2OC([H])([H])[H])nc(N([H])c2c([H])c([H])c([H])c([H])c2S(=O)(=O)C2([H])C([H])([H])C2([H])[H])c1Cl


 37 41  0  0  0  0  0  0  0  0999 V2000
  -18.1929   11.1823  -19.0017 C   0  0  0  0  0  0  0  0  0  0  0  0
  -17.2976   10.2195  -19.2194 N   0  0  0  0  0  0  0  0  0  0  0  0
  -16.4331   10.2714  -20.2454 C   0  0  0  0  0  0  0  0  0  0  0  0
  -16.4335   11.3182  -21.1150 C   0  0  0  0  0  0  0  0  0  0  0  0
  -15.2932   11.3891  -22.4713 Cl  0  0  0  0  0  0  0  0  0  0  0  0
  -17.3681   12.3577  -20.9164 C   0  0  0  0  0  0  0  0  0  0  0  0
  -18.1714   12.1972  -19.8698 N   0  0  0  0  0  0  0  0  0  0  0  0
  -19.1230   11.1925  -17.9562 N   0  0  0  0  0  0  0  0  0  0  0  0
  -19.8568   11.9824  -18.0386 H   0  0  0  0  0  0  0  0  0  0  0  0
  -19.7233   10.9390  -15.6621 C   0  0  0  0  0  0  0  0  0  0  0  0
  -19.8802   10.1942  -14.5210 C   0  0  0  0  0  0  0  0  0  0  0  0
  -19.5852    8.8530  -14.4737 C   0  0  0  0  0  0  0  0  0  0  0  0
  -19.1224    8.2967  -15.6376 C   0  0  0  0  0  0  0  0  0  0  0  0
  -18.9558    9.0303  -16.8036 C   0  0  0  0  0  0  0  0  0  0  0  0
  -19.2508   10.3550  -16.8383 C   0  0  0  0  0  0  0  0  0  0  0  0
  -19.7504    8.0787  -13.2820 N   0  0  0  0  0  0  0  0  0  0  0  0
  -18.7681    8.2213  -12.2437 C   0  0  0  0  0  0  0  0  0  0  0  0
  -18.8620    7.2553  -11.1184 C   0  0  0  0  0  0  0  0  0  0  0  0
  -19.7166    6.2029  -11.3213 O   0  0  0  0  0  0  0  0  0  0  0  0
  -20.9706    6.7003  -11.7026 C   0  0  0  0  0  0  0  0  0  0  0  0
  -20.8617    7.1831  -13.1176 C   0  0  0  0  0  0  0  0  0  0  0  0
  -21.3908   12.6966  -15.4650 C   0  0  0  0  0  0  0  0  0  0  0  0
  -20.0491   12.3033  -15.6206 O   0  0  0  0  0  0  0  0  0  0  0  0
  -17.3515   13.4405  -21.8129 N   0  0  0  0  0  0  0  0  0  0  0  0
  -16.6968   13.3226  -22.6425 H   0  0  0  0  0  0  0  0  0  0  0  0
  -18.0968   14.6046  -21.7373 C   0  0  0  0  0  0  0  0  0  0  0  0
  -19.1440   14.8032  -20.8446 C   0  0  0  0  0  0  0  0  0  0  0  0
  -19.8981   15.9782  -20.8303 C   0  0  0  0  0  0  0  0  0  0  0  0
  -19.5690   16.9522  -21.7427 C   0  0  0  0  0  0  0  0  0  0  0  0
  -18.5365   16.7783  -22.6361 C   0  0  0  0  0  0  0  0  0  0  0  0
  -17.7818   15.6183  -22.6591 C   0  0  0  0  0  0  0  0  0  0  0  0
  -16.4763   15.4491  -23.7685 S   0  0  0  0  0  0  0  0  0  0  0  0
  -15.3574   14.6733  -23.0495 O   0  0  0  0  0  0  0  0  0  0  0  0
  -15.8127   16.7573  -24.1427 O   0  0  0  0  0  0  0  0  0  0  0  0
  -16.8386   14.5590  -25.2333 C   0  0  0  0  0  0  0  0  0  0  0  0
  -18.1402   13.8593  -25.4018 C   0  0  0  0  0  0  0  0  0  0  0  0
  -16.9274   13.0334  -25.0035 C   0  0  0  0  0  0  0  0  0  0  0  0
 22 23  1  0  0  0
 23 10  1  0  0  0
 10 11  2  0  0  0
 11 12  1  0  0  0
 12 13  2  0  0  0
 13 14  1  0  0  0
 14 15  2  0  0  0
 15  8  1  0  0  0
  8  1  1  0  0  0
  1  2  2  0  0  0
  2  3  1  0  0  0
  3  4  2  0  0  0
  4  5  1  0  0  0
  4  6  1  0  0  0
  6 24  1  0  0  0
 24 26  1  0  0  0
 26 27  2  0  0  0
 27 28  1  0  0  0
 28 29  2  0  0  0
 29 30  1  0  0  0
 30 31  2  0  0  0
 31 32  1  0  0  0
 32 33  2  0  0  0
 32 34  2  0  0  0
 32 35  1  0  0  0
 35 36  1  0  0  0
 36 37  1  0  0  0
  6  7  2  0  0  0
 12 16  1  0  0  0
 16 17  1  0  0  0
 17 18  1  0  0  0
 18 19  1  0  0  0
 19 20  1  0  0  0
 20 21  1  0  0  0
 15 10  1  0  0  0
  7  1  1  0  0  0
 21 16  1  0  0  0
 31 26  1  0  0  0
 37 35  1  0  0  0
  8  9  1  0  0  0
 24 25  1  0  0  0
M  END
> <minimizedAffinity>
-7.83980

> <CNNscore>
0.4891227186

> <CNNaffinity>
7.4341583252

> <CNN_VS>
3.6362156868

> <CNNaffinity_variance>
0.0862506405

$$$$
[H]c1nc(N([H])c2c([H])c([H])c(N3C([H])([H])C([H])([H])OC([H])([H])C3([H])[H])c([H])c2OC([H])([H])[H])nc(N([H])c2c([H])c([H])c([H])c([H])c2S(=O)(=O)C2([H])C([H])([H])C2([H])[H])c1Cl


 37 41  0  0  0  0  0  0  0  0999 V2000
  -18.2168   11.4501  -19.2525 C   0  0  0  0  0  0  0  0  0  0  0  0
  -17.1313   10.6979  -19.0744 N   0  0  0  0  0  0  0  0  0  0  0  0
  -16.1657   10.6119  -20.0034 C   0  0  0  0  0  0  0  0  0  0  0  0
  -16.2541   11.2951  -21.1772 C   0  0  0  0  0  0  0  0  0  0  0  0
  -14.9806   11.1830  -22.4061 Cl  0  0  0  0  0  0  0  0  0  0  0  0
  -17.3902   12.1028  -21.4017 C   0  0  0  0  0  0  0  0  0  0  0  0
  -18.2780   12.1094  -20.4126 N   0  0  0  0  0  0  0  0  0  0  0  0
  -19.2608   11.5845  -18.3304 N   0  0  0  0  0  0  0  0  0  0  0  0
  -20.0564   12.2330  -18.6702 H   0  0  0  0  0  0  0  0  0  0  0  0
  -19.8247   11.8841  -16.0327 C   0  0  0  0  0  0  0  0  0  0  0  0
  -20.0185   11.4185  -14.7570 C   0  0  0  0  0  0  0  0  0  0  0  0
  -19.8414   10.0975  -14.4233 C   0  0  0  0  0  0  0  0  0  0  0  0
  -19.4579    9.2649  -15.4421 C   0  0  0  0  0  0  0  0  0  0  0  0
  -19.2561    9.7134  -16.7397 C   0  0  0  0  0  0  0  0  0  0  0  0
  -19.4343   11.0212  -17.0576 C   0  0  0  0  0  0  0  0  0  0  0  0
  -20.0449    9.6147  -13.0918 N   0  0  0  0  0  0  0  0  0  0  0  0
  -20.8406    8.4315  -12.9179 C   0  0  0  0  0  0  0  0  0  0  0  0
  -21.1966    8.0837  -11.5177 C   0  0  0  0  0  0  0  0  0  0  0  0
  -20.9294    9.0550  -10.5881 O   0  0  0  0  0  0  0  0  0  0  0  0
  -19.5909    9.4520  -10.7147 C   0  0  0  0  0  0  0  0  0  0  0  0
  -19.4746   10.2844  -11.9559 C   0  0  0  0  0  0  0  0  0  0  0  0
  -21.3056   13.8103  -16.1039 C   0  0  0  0  0  0  0  0  0  0  0  0
  -20.0282   13.2495  -16.2846 O   0  0  0  0  0  0  0  0  0  0  0  0
  -17.4656   12.8142  -22.6119 N   0  0  0  0  0  0  0  0  0  0  0  0
  -17.2115   12.2505  -23.4771 H   0  0  0  0  0  0  0  0  0  0  0  0
  -17.8468   14.1333  -22.7880 C   0  0  0  0  0  0  0  0  0  0  0  0
  -18.5747   14.8654  -21.8568 C   0  0  0  0  0  0  0  0  0  0  0  0
  -18.9752   16.1821  -22.0927 C   0  0  0  0  0  0  0  0  0  0  0  0
  -18.6225   16.7446  -23.2963 C   0  0  0  0  0  0  0  0  0  0  0  0
  -17.9023   16.0395  -24.2336 C   0  0  0  0  0  0  0  0  0  0  0  0
  -17.4992   14.7343  -24.0106 C   0  0  0  0  0  0  0  0  0  0  0  0
  -16.5707   13.8942  -25.1921 S   0  0  0  0  0  0  0  0  0  0  0  0
  -16.8083   14.5892  -26.5453 O   0  0  0  0  0  0  0  0  0  0  0  0
  -17.0308   12.4735  -25.4407 O   0  0  0  0  0  0  0  0  0  0  0  0
  -14.8384   13.8904  -24.9306 C   0  0  0  0  0  0  0  0  0  0  0  0
  -14.2320   14.6548  -23.8080 C   0  0  0  0  0  0  0  0  0  0  0  0
  -14.1866   15.2655  -25.1997 C   0  0  0  0  0  0  0  0  0  0  0  0
 22 23  1  0  0  0
 23 10  1  0  0  0
 10 11  2  0  0  0
 11 12  1  0  0  0
 12 13  2  0  0  0
 13 14  1  0  0  0
 14 15  2  0  0  0
 15  8  1  0  0  0
  8  1  1  0  0  0
  1  2  2  0  0  0
  2  3  1  0  0  0
  3  4  2  0  0  0
  4  5  1  0  0  0
  4  6  1  0  0  0
  6 24  1  0  0  0
 24 26  1  0  0  0
 26 27  2  0  0  0
 27 28  1  0  0  0
 28 29  2  0  0  0
 29 30  1  0  0  0
 30 31  2  0  0  0
 31 32  1  0  0  0
 32 33  2  0  0  0
 32 34  2  0  0  0
 32 35  1  0  0  0
 35 36  1  0  0  0
 36 37  1  0  0  0
  6  7  2  0  0  0
 12 16  1  0  0  0
 16 17  1  0  0  0
 17 18  1  0  0  0
 18 19  1  0  0  0
 19 20  1  0  0  0
 20 21  1  0  0  0
 15 10  1  0  0  0
  7  1  1  0  0  0
 21 16  1  0  0  0
 31 26  1  0  0  0
 37 35  1  0  0  0
  8  9  1  0  0  0
 24 25  1  0  0  0
M  END
> <minimizedAffinity>
-8.21476

> <CNNscore>
0.3357827365

> <CNNaffinity>
7.1767988205

> <CNN_VS>
2.4098451138

> <CNNaffinity_variance>
0.0611159317

$$$$
[H]c1nc(N([H])c2c([H])c([H])c(N3C([H])([H])C([H])([H])OC([H])([H])C3([H])[H])c([H])c2OC([H])([H])[H])nc(N([H])c2c([H])c([H])c([H])c([H])c2S(=O)(=O)C2([H])C([H])([H])C2([H])[H])c1Cl


 37 41  0  0  0  0  0  0  0  0999 V2000
  -17.5660   12.1952  -19.7553 C   0  0  0  0  0  0  0  0  0  0  0  0
  -17.1698   11.4267  -20.7694 N   0  0  0  0  0  0  0  0  0  0  0  0
  -17.1885   11.8608  -22.0398 C   0  0  0  0  0  0  0  0  0  0  0  0
  -17.6163   13.1150  -22.3498 C   0  0  0  0  0  0  0  0  0  0  0  0
  -17.6425   13.6907  -24.0269 Cl  0  0  0  0  0  0  0  0  0  0  0  0
  -18.0439   13.9585  -21.3014 C   0  0  0  0  0  0  0  0  0  0  0  0
  -17.9806   13.4206  -20.0877 N   0  0  0  0  0  0  0  0  0  0  0  0
  -17.5751   11.8084  -18.4104 N   0  0  0  0  0  0  0  0  0  0  0  0
  -16.7962   12.2733  -17.8220 H   0  0  0  0  0  0  0  0  0  0  0  0
  -19.4907   11.4943  -17.0253 C   0  0  0  0  0  0  0  0  0  0  0  0
  -20.3676   10.7080  -16.3220 C   0  0  0  0  0  0  0  0  0  0  0  0
  -20.2416    9.3411  -16.2618 C   0  0  0  0  0  0  0  0  0  0  0  0
  -19.1843    8.8029  -16.9479 C   0  0  0  0  0  0  0  0  0  0  0  0
  -18.2850    9.5783  -17.6659 C   0  0  0  0  0  0  0  0  0  0  0  0
  -18.4198   10.9282  -17.7182 C   0  0  0  0  0  0  0  0  0  0  0  0
  -21.1581    8.5236  -15.5278 N   0  0  0  0  0  0  0  0  0  0  0  0
  -20.9103    7.1095  -15.4791 C   0  0  0  0  0  0  0  0  0  0  0  0
  -21.9889    6.2774  -14.8855 C   0  0  0  0  0  0  0  0  0  0  0  0
  -23.1791    6.9247  -14.6775 O   0  0  0  0  0  0  0  0  0  0  0  0
  -22.9405    8.0929  -13.9401 C   0  0  0  0  0  0  0  0  0  0  0  0
  -22.2946    9.0892  -14.8552 C   0  0  0  0  0  0  0  0  0  0  0  0
  -20.8052   13.4217  -17.7077 C   0  0  0  0  0  0  0  0  0  0  0  0
  -19.6950   12.8825  -17.0327 O   0  0  0  0  0  0  0  0  0  0  0  0
  -18.4717   15.2564  -21.6312 N   0  0  0  0  0  0  0  0  0  0  0  0
  -19.3196   15.2972  -22.2716 H   0  0  0  0  0  0  0  0  0  0  0  0
  -17.9275   16.4544  -21.2012 C   0  0  0  0  0  0  0  0  0  0  0  0
  -16.5642   16.7256  -21.1725 C   0  0  0  0  0  0  0  0  0  0  0  0
  -16.0548   17.9332  -20.6910 C   0  0  0  0  0  0  0  0  0  0  0  0
  -16.9579   18.8645  -20.2367 C   0  0  0  0  0  0  0  0  0  0  0  0
  -18.3120   18.6186  -20.2552 C   0  0  0  0  0  0  0  0  0  0  0  0
  -18.8285   17.4258  -20.7308 C   0  0  0  0  0  0  0  0  0  0  0  0
  -20.5299   17.1660  -20.7698 S   0  0  0  0  0  0  0  0  0  0  0  0
  -21.1523   18.0160  -19.6470 O   0  0  0  0  0  0  0  0  0  0  0  0
  -20.9455   15.7544  -20.4140 O   0  0  0  0  0  0  0  0  0  0  0  0
  -21.3332   17.6352  -22.2543 C   0  0  0  0  0  0  0  0  0  0  0  0
  -20.5523   18.0763  -23.4409 C   0  0  0  0  0  0  0  0  0  0  0  0
  -21.1908   19.1423  -22.5647 C   0  0  0  0  0  0  0  0  0  0  0  0
 22 23  1  0  0  0
 23 10  1  0  0  0
 10 11  2  0  0  0
 11 12  1  0  0  0
 12 13  2  0  0  0
 13 14  1  0  0  0
 14 15  2  0  0  0
 15  8  1  0  0  0
  8  1  1  0  0  0
  1  2  2  0  0  0
  2  3  1  0  0  0
  3  4  2  0  0  0
  4  5  1  0  0  0
  4  6  1  0  0  0
  6 24  1  0  0  0
 24 26  1  0  0  0
 26 27  2  0  0  0
 27 28  1  0  0  0
 28 29  2  0  0  0
 29 30  1  0  0  0
 30 31  2  0  0  0
 31 32  1  0  0  0
 32 33  2  0  0  0
 32 34  2  0  0  0
 32 35  1  0  0  0
 35 36  1  0  0  0
 36 37  1  0  0  0
  6  7  2  0  0  0
 12 16  1  0  0  0
 16 17  1  0  0  0
 17 18  1  0  0  0
 18 19  1  0  0  0
 19 20  1  0  0  0
 20 21  1  0  0  0
 15 10  1  0  0  0
  7  1  1  0  0  0
 21 16  1  0  0  0
 31 26  1  0  0  0
 37 35  1  0  0  0
  8  9  1  0  0  0
 24 25  1  0  0  0
M  END
> <minimizedAffinity>
-7.32212

> <CNNscore>
0.2953091264

> <CNNaffinity>
6.9347152710

> <CNN_VS>
2.0478847027

> <CNNaffinity_variance>
0.0982957184

$$$$
[H]c1nc(N([H])c2c([H])c([H])c(N3C([H])([H])C([H])([H])OC([H])([H])C3([H])[H])c([H])c2OC([H])([H])[H])nc(N([H])c2c([H])c([H])c([H])c([H])c2S(=O)(=O)C2([H])C([H])([H])C2([H])[H])c1Cl


 37 41  0  0  0  0  0  0  0  0999 V2000
  -18.0622   11.6164  -18.9795 C   0  0  0  0  0  0  0  0  0  0  0  0
  -17.2762   10.5443  -19.0736 N   0  0  0  0  0  0  0  0  0  0  0  0
  -16.4427   10.3627  -20.1105 C   0  0  0  0  0  0  0  0  0  0  0  0
  -16.3635   11.2732  -21.1189 C   0  0  0  0  0  0  0  0  0  0  0  0
  -15.2639   11.0356  -22.4897 Cl  0  0  0  0  0  0  0  0  0  0  0  0
  -17.1813   12.4223  -21.0538 C   0  0  0  0  0  0  0  0  0  0  0  0
  -17.9643   12.4934  -19.9823 N   0  0  0  0  0  0  0  0  0  0  0  0
  -18.9540   11.8688  -17.9311 N   0  0  0  0  0  0  0  0  0  0  0  0
  -19.3023   10.9733  -17.4353 H   0  0  0  0  0  0  0  0  0  0  0  0
  -20.6674   13.0199  -16.7367 C   0  0  0  0  0  0  0  0  0  0  0  0
  -21.2331   14.1544  -16.2128 C   0  0  0  0  0  0  0  0  0  0  0  0
  -20.6497   15.3918  -16.3414 C   0  0  0  0  0  0  0  0  0  0  0  0
  -19.4634   15.4302  -17.0266 C   0  0  0  0  0  0  0  0  0  0  0  0
  -18.8726   14.2959  -17.5649 C   0  0  0  0  0  0  0  0  0  0  0  0
  -19.4584   13.0784  -17.4313 C   0  0  0  0  0  0  0  0  0  0  0  0
  -21.2419   16.5734  -15.7934 N   0  0  0  0  0  0  0  0  0  0  0  0
  -20.9529   17.8291  -16.4283 C   0  0  0  0  0  0  0  0  0  0  0  0
  -21.4167   19.0454  -15.7116 C   0  0  0  0  0  0  0  0  0  0  0  0
  -21.8472   18.8383  -14.4267 O   0  0  0  0  0  0  0  0  0  0  0  0
  -22.8109   17.8202  -14.4270 C   0  0  0  0  0  0  0  0  0  0  0  0
  -22.1018   16.5174  -14.6438 C   0  0  0  0  0  0  0  0  0  0  0  0
  -21.6820   11.3749  -15.2625 C   0  0  0  0  0  0  0  0  0  0  0  0
  -21.3322   11.7971  -16.5580 O   0  0  0  0  0  0  0  0  0  0  0  0
  -17.0823   13.3627  -22.0941 N   0  0  0  0  0  0  0  0  0  0  0  0
  -17.2085   12.9619  -23.0710 H   0  0  0  0  0  0  0  0  0  0  0  0
  -16.8634   14.7245  -21.9769 C   0  0  0  0  0  0  0  0  0  0  0  0
  -16.8909   15.4175  -20.7719 C   0  0  0  0  0  0  0  0  0  0  0  0
  -16.7064   16.7999  -20.7032 C   0  0  0  0  0  0  0  0  0  0  0  0
  -16.4930   17.4692  -21.8847 C   0  0  0  0  0  0  0  0  0  0  0  0
  -16.4616   16.8046  -23.0896 C   0  0  0  0  0  0  0  0  0  0  0  0
  -16.6425   15.4347  -23.1700 C   0  0  0  0  0  0  0  0  0  0  0  0
  -16.5636   14.6323  -24.6910 S   0  0  0  0  0  0  0  0  0  0  0  0
  -17.9117   13.9208  -24.9078 O   0  0  0  0  0  0  0  0  0  0  0  0
  -15.5575   13.5021  -24.7395 O   0  0  0  0  0  0  0  0  0  0  0  0
  -16.3174   15.6690  -26.0816 C   0  0  0  0  0  0  0  0  0  0  0  0
  -16.1448   15.0956  -27.4431 C   0  0  0  0  0  0  0  0  0  0  0  0
  -14.9017   15.5370  -26.6870 C   0  0  0  0  0  0  0  0  0  0  0  0
 22 23  1  0  0  0
 23 10  1  0  0  0
 10 11  2  0  0  0
 11 12  1  0  0  0
 12 13  2  0  0  0
 13 14  1  0  0  0
 14 15  2  0  0  0
 15  8  1  0  0  0
  8  1  1  0  0  0
  1  2  2  0  0  0
  2  3  1  0  0  0
  3  4  2  0  0  0
  4  5  1  0  0  0
  4  6  1  0  0  0
  6 24  1  0  0  0
 24 26  1  0  0  0
 26 27  2  0  0  0
 27 28  1  0  0  0
 28 29  2  0  0  0
 29 30  1  0  0  0
 30 31  2  0  0  0
 31 32  1  0  0  0
 32 33  2  0  0  0
 32 34  2  0  0  0
 32 35  1  0  0  0
 35 36  1  0  0  0
 36 37  1  0  0  0
  6  7  2  0  0  0
 12 16  1  0  0  0
 16 17  1  0  0  0
 17 18  1  0  0  0
 18 19  1  0  0  0
 19 20  1  0  0  0
 20 21  1  0  0  0
 15 10  1  0  0  0
  7  1  1  0  0  0
 21 16  1  0  0  0
 31 26  1  0  0  0
 37 35  1  0  0  0
  8  9  1  0  0  0
 24 25  1  0  0  0
M  END
> <minimizedAffinity>
-7.93710

> <CNNscore>
0.2930793762

> <CNNaffinity>
7.3025655746

> <CNN_VS>
2.1402313709

> <CNNaffinity_variance>
0.1361305416

$$$$
[H]c1nc(N([H])c2c([H])c([H])c(N3C([H])([H])C([H])([H])OC([H])([H])C3([H])[H])c([H])c2OC([H])([H])[H])nc(N([H])c2c([H])c([H])c([H])c([H])c2S(=O)(=O)C2([H])C([H])([H])C2([H])[H])c1Cl


 37 41  0  0  0  0  0  0  0  0999 V2000
  -17.7638   12.0938  -19.5522 C   0  0  0  0  0  0  0  0  0  0  0  0
  -17.2699   11.3434  -20.5365 N   0  0  0  0  0  0  0  0  0  0  0  0
  -17.1734   11.7971  -21.7964 C   0  0  0  0  0  0  0  0  0  0  0  0
  -17.5791   13.0537  -22.1260 C   0  0  0  0  0  0  0  0  0  0  0  0
  -17.4533   13.6554  -23.7893 Cl  0  0  0  0  0  0  0  0  0  0  0  0
  -18.1080   13.8784  -21.1093 C   0  0  0  0  0  0  0  0  0  0  0  0
  -18.1542   13.3220  -19.9032 N   0  0  0  0  0  0  0  0  0  0  0  0
  -17.8953   11.6859  -18.2200 N   0  0  0  0  0  0  0  0  0  0  0  0
  -16.9785   11.3037  -17.7929 H   0  0  0  0  0  0  0  0  0  0  0  0
  -19.2340   12.8600  -16.6336 C   0  0  0  0  0  0  0  0  0  0  0  0
  -20.3002   12.9562  -15.7759 C   0  0  0  0  0  0  0  0  0  0  0  0
  -21.1911   11.9260  -15.5944 C   0  0  0  0  0  0  0  0  0  0  0  0
  -20.9542   10.7894  -16.3225 C   0  0  0  0  0  0  0  0  0  0  0  0
  -19.8826   10.6694  -17.1958 C   0  0  0  0  0  0  0  0  0  0  0  0
  -19.0088   11.6943  -17.3671 C   0  0  0  0  0  0  0  0  0  0  0  0
  -22.3026   12.0295  -14.6994 N   0  0  0  0  0  0  0  0  0  0  0  0
  -22.4439   13.2387  -13.9369 C   0  0  0  0  0  0  0  0  0  0  0  0
  -23.4848   13.2244  -12.8765 C   0  0  0  0  0  0  0  0  0  0  0  0
  -24.0158   11.9923  -12.5951 O   0  0  0  0  0  0  0  0  0  0  0  0
  -24.4614   11.4044  -13.7872 C   0  0  0  0  0  0  0  0  0  0  0  0
  -23.2552   10.9631  -14.5601 C   0  0  0  0  0  0  0  0  0  0  0  0
  -18.9082   15.2442  -16.9771 C   0  0  0  0  0  0  0  0  0  0  0  0
  -18.3737   13.9616  -16.7575 O   0  0  0  0  0  0  0  0  0  0  0  0
  -18.5122   15.1790  -21.4578 N   0  0  0  0  0  0  0  0  0  0  0  0
  -19.3853   15.2275  -22.0630 H   0  0  0  0  0  0  0  0  0  0  0  0
  -17.9159   16.3715  -21.0857 C   0  0  0  0  0  0  0  0  0  0  0  0
  -16.5446   16.5989  -21.1118 C   0  0  0  0  0  0  0  0  0  0  0  0
  -15.9809   17.8038  -20.6873 C   0  0  0  0  0  0  0  0  0  0  0  0
  -16.8380   18.7779  -20.2334 C   0  0  0  0  0  0  0  0  0  0  0  0
  -18.1990   18.5758  -20.1982 C   0  0  0  0  0  0  0  0  0  0  0  0
  -18.7690   17.3861  -20.6170 C   0  0  0  0  0  0  0  0  0  0  0  0
  -20.4781   17.1808  -20.5902 S   0  0  0  0  0  0  0  0  0  0  0  0
  -20.7695   15.8248  -19.9216 O   0  0  0  0  0  0  0  0  0  0  0  0
  -21.1027   17.0382  -21.9618 O   0  0  0  0  0  0  0  0  0  0  0  0
  -21.3708   18.3857  -19.6843 C   0  0  0  0  0  0  0  0  0  0  0  0
  -22.7143   18.8402  -20.1322 C   0  0  0  0  0  0  0  0  0  0  0  0
  -21.5166   19.7233  -20.4442 C   0  0  0  0  0  0  0  0  0  0  0  0
 22 23  1  0  0  0
 23 10  1  0  0  0
 10 11  2  0  0  0
 11 12  1  0  0  0
 12 13  2  0  0  0
 13 14  1  0  0  0
 14 15  2  0  0  0
 15  8  1  0  0  0
  8  1  1  0  0  0
  1  2  2  0  0  0
  2  3  1  0  0  0
  3  4  2  0  0  0
  4  5  1  0  0  0
  4  6  1  0  0  0
  6 24  1  0  0  0
 24 26  1  0  0  0
 26 27  2  0  0  0
 27 28  1  0  0  0
 28 29  2  0  0  0
 29 30  1  0  0  0
 30 31  2  0  0  0
 31 32  1  0  0  0
 32 33  2  0  0  0
 32 34  2  0  0  0
 32 35  1  0  0  0
 35 36  1  0  0  0
 36 37  1  0  0  0
  6  7  2  0  0  0
 12 16  1  0  0  0
 16 17  1  0  0  0
 17 18  1  0  0  0
 18 19  1  0  0  0
 19 20  1  0  0  0
 20 21  1  0  0  0
 15 10  1  0  0  0
  7  1  1  0  0  0
 21 16  1  0  0  0
 31 26  1  0  0  0
 37 35  1  0  0  0
  8  9  1  0  0  0
 24 25  1  0  0  0
M  END
> <minimizedAffinity>
-6.54898

> <CNNscore>
0.2873243392

> <CNNaffinity>
6.9730238914

> <CNN_VS>
2.0035195351

> <CNNaffinity_variance>
0.1934812516

$$$$
[H]c1nc(N([H])c2c([H])c([H])c(N3C([H])([H])C([H])([H])OC([H])([H])C3([H])[H])c([H])c2OC([H])([H])[H])nc(N([H])c2c([H])c([H])c([H])c([H])c2S(=O)(=O)C2([H])C([H])([H])C2([H])[H])c1Cl


 37 41  0  0  0  0  0  0  0  0999 V2000
  -17.3662   12.7860  -20.4233 C   0  0  0  0  0  0  0  0  0  0  0  0
  -17.0684   12.1609  -21.5620 N   0  0  0  0  0  0  0  0  0  0  0  0
  -17.2890   12.7241  -22.7607 C   0  0  0  0  0  0  0  0  0  0  0  0
  -17.8308   13.9681  -22.8660 C   0  0  0  0  0  0  0  0  0  0  0  0
  -18.1237   14.7140  -24.4479 Cl  0  0  0  0  0  0  0  0  0  0  0  0
  -18.1594   14.6615  -21.6808 C   0  0  0  0  0  0  0  0  0  0  0  0
  -17.8963   14.0048  -20.5556 N   0  0  0  0  0  0  0  0  0  0  0  0
  -17.1656   12.2597  -19.1422 N   0  0  0  0  0  0  0  0  0  0  0  0
  -16.2216   12.5469  -18.7003 H   0  0  0  0  0  0  0  0  0  0  0  0
  -18.9923   12.0561  -17.6226 C   0  0  0  0  0  0  0  0  0  0  0  0
  -19.8373   11.3246  -16.8274 C   0  0  0  0  0  0  0  0  0  0  0  0
  -19.7363    9.9593  -16.7104 C   0  0  0  0  0  0  0  0  0  0  0  0
  -18.7379    9.3646  -17.4370 C   0  0  0  0  0  0  0  0  0  0  0  0
  -17.8717   10.0841  -18.2478 C   0  0  0  0  0  0  0  0  0  0  0  0
  -17.9813   11.4331  -18.3556 C   0  0  0  0  0  0  0  0  0  0  0  0
  -20.6195    9.1988  -15.8805 N   0  0  0  0  0  0  0  0  0  0  0  0
  -20.1727    7.9136  -15.4202 C   0  0  0  0  0  0  0  0  0  0  0  0
  -21.1910    7.0739  -14.7375 C   0  0  0  0  0  0  0  0  0  0  0  0
  -22.4825    7.5218  -14.8408 O   0  0  0  0  0  0  0  0  0  0  0  0
  -22.5350    8.8615  -14.4312 C   0  0  0  0  0  0  0  0  0  0  0  0
  -21.9159    9.6961  -15.5115 C   0  0  0  0  0  0  0  0  0  0  0  0
  -20.2095   14.0521  -16.9571 C   0  0  0  0  0  0  0  0  0  0  0  0
  -19.1674   13.4471  -17.6830 O   0  0  0  0  0  0  0  0  0  0  0  0
  -18.7066   15.9509  -21.8005 N   0  0  0  0  0  0  0  0  0  0  0  0
  -18.0801   16.6575  -22.2896 H   0  0  0  0  0  0  0  0  0  0  0  0
  -19.9533   16.3767  -21.3756 C   0  0  0  0  0  0  0  0  0  0  0  0
  -20.7456   15.6843  -20.4668 C   0  0  0  0  0  0  0  0  0  0  0  0
  -22.0167   16.1282  -20.0969 C   0  0  0  0  0  0  0  0  0  0  0  0
  -22.4714   17.2925  -20.6689 C   0  0  0  0  0  0  0  0  0  0  0  0
  -21.7051   17.9951  -21.5708 C   0  0  0  0  0  0  0  0  0  0  0  0
  -20.4436   17.5652  -21.9445 C   0  0  0  0  0  0  0  0  0  0  0  0
  -19.4998   18.4874  -23.0501 S   0  0  0  0  0  0  0  0  0  0  0  0
  -20.4753   19.2619  -23.9552 O   0  0  0  0  0  0  0  0  0  0  0  0
  -18.7030   17.6496  -24.0274 O   0  0  0  0  0  0  0  0  0  0  0  0
  -18.4370   19.6783  -22.3279 C   0  0  0  0  0  0  0  0  0  0  0  0
  -18.3185   19.8028  -20.8505 C   0  0  0  0  0  0  0  0  0  0  0  0
  -19.2031   20.7968  -21.5862 C   0  0  0  0  0  0  0  0  0  0  0  0
 22 23  1  0  0  0
 23 10  1  0  0  0
 10 11  2  0  0  0
 11 12  1  0  0  0
 12 13  2  0  0  0
 13 14  1  0  0  0
 14 15  2  0  0  0
 15  8  1  0  0  0
  8  1  1  0  0  0
  1  2  2  0  0  0
  2  3  1  0  0  0
  3  4  2  0  0  0
  4  5  1  0  0  0
  4  6  1  0  0  0
  6 24  1  0  0  0
 24 26  1  0  0  0
 26 27  2  0  0  0
 27 28  1  0  0  0
 28 29  2  0  0  0
 29 30  1  0  0  0
 30 31  2  0  0  0
 31 32  1  0  0  0
 32 33  2  0  0  0
 32 34  2  0  0  0
 32 35  1  0  0  0
 35 36  1  0  0  0
 36 37  1  0  0  0
  6  7  2  0  0  0
 12 16  1  0  0  0
 16 17  1  0  0  0
 17 18  1  0  0  0
 18 19  1  0  0  0
 19 20  1  0  0  0
 20 21  1  0  0  0
 15 10  1  0  0  0
  7  1  1  0  0  0
 21 16  1  0  0  0
 31 26  1  0  0  0
 37 35  1  0  0  0
  8  9  1  0  0  0
 24 25  1  0  0  0
M  END
> <minimizedAffinity>
-7.41835

> <CNNscore>
0.2855429649

> <CNNaffinity>
7.0446014404

> <CNN_VS>
2.0115363598

> <CNNaffinity_variance>
0.0631921366

$$$$
[H]c1c([H])c2c(c([H])c1Cl)C(=O)N([H])C([H])([H])C([H])([H])N(C([H])([H])C([H])([H])OC([H])([H])[H])N2[H]


 20 21  0  0  0  0  0  0  0  0999 V2000
  -16.8539   14.0721  -22.8676 N   0  0  0  0  0  0  0  0  0  0  0  0
  -16.2973   13.1098  -23.7369 C   0  0  0  0  0  0  0  0  0  0  0  0
  -14.9667   12.5581  -23.3556 C   0  0  0  0  0  0  0  0  0  0  0  0
  -15.0438   11.2726  -22.6813 N   0  0  0  0  0  0  0  0  0  0  0  0
  -15.7679   10.7861  -21.5343 C   0  0  0  0  0  0  0  0  0  0  0  0
  -15.4426    9.6585  -21.1339 O   0  0  0  0  0  0  0  0  0  0  0  0
  -16.8427   11.3755  -20.7239 C   0  0  0  0  0  0  0  0  0  0  0  0
  -17.0811   10.5126  -19.6747 C   0  0  0  0  0  0  0  0  0  0  0  0
  -18.0413   10.7722  -18.7168 C   0  0  0  0  0  0  0  0  0  0  0  0
  -18.3327    9.6519  -17.3773 Cl  0  0  0  0  0  0  0  0  0  0  0  0
  -18.7685   11.9380  -18.8393 C   0  0  0  0  0  0  0  0  0  0  0  0
  -18.5251   12.8102  -19.9027 C   0  0  0  0  0  0  0  0  0  0  0  0
  -17.5748   12.5449  -20.8435 C   0  0  0  0  0  0  0  0  0  0  0  0
  -17.5627   13.6088  -21.7893 N   0  0  0  0  0  0  0  0  0  0  0  0
  -14.4624   10.5085  -23.0854 H   0  0  0  0  0  0  0  0  0  0  0  0
  -18.3835   14.2491  -21.5742 H   0  0  0  0  0  0  0  0  0  0  0  0
  -16.1239   15.2723  -22.6716 C   0  0  0  0  0  0  0  0  0  0  0  0
  -16.9577   16.2136  -21.8164 C   0  0  0  0  0  0  0  0  0  0  0  0
  -17.6009   16.6054  -19.6689 C   0  0  0  0  0  0  0  0  0  0  0  0
  -16.5875   16.1003  -20.4617 O   0  0  0  0  0  0  0  0  0  0  0  0
 19 20  1  0  0  0
 20 18  1  0  0  0
 18 17  1  0  0  0
 17  1  1  0  0  0
  1  2  1  0  0  0
  2  3  1  0  0  0
  3  4  1  0  0  0
  4  5  1  0  0  0
  5  6  2  0  0  0
  5  7  1  0  0  0
  7  8  2  0  0  0
  8  9  1  0  0  0
  9 10  1  0  0  0
  9 11  2  0  0  0
 11 12  1  0  0  0
 12 13  2  0  0  0
 13 14  1  0  0  0
 14  1  1  0  0  0
 13  7  1  0  0  0
  4 15  1  0  0  0
 14 16  1  0  0  0
M  END
> <minimizedAffinity>
-6.62360

> <CNNscore>
0.9523389935

> <CNNaffinity>
6.0226111412

> <CNN_VS>
5.7355675697

> <CNNaffinity_variance>
0.0408507288

$$$$
[H]c1c([H])c2c(c([H])c1Cl)C(=O)N([H])C([H])([H])C([H])([H])N(C([H])([H])C([H])([H])OC([H])([H])[H])N2[H]


 20 21  0  0  0  0  0  0  0  0999 V2000
  -16.9377   14.0516  -22.8365 N   0  0  0  0  0  0  0  0  0  0  0  0
  -16.3685   13.1022  -23.7119 C   0  0  0  0  0  0  0  0  0  0  0  0
  -15.0271   12.5719  -23.3383 C   0  0  0  0  0  0  0  0  0  0  0  0
  -15.0793   11.2827  -22.6686 N   0  0  0  0  0  0  0  0  0  0  0  0
  -15.7901   10.7797  -21.5205 C   0  0  0  0  0  0  0  0  0  0  0  0
  -15.4439    9.6563  -21.1257 O   0  0  0  0  0  0  0  0  0  0  0  0
  -16.8713   11.3476  -20.7033 C   0  0  0  0  0  0  0  0  0  0  0  0
  -17.0905   10.4768  -19.6564 C   0  0  0  0  0  0  0  0  0  0  0  0
  -18.0508   10.7164  -18.6934 C   0  0  0  0  0  0  0  0  0  0  0  0
  -18.3174    9.5862  -17.3570 Cl  0  0  0  0  0  0  0  0  0  0  0  0
  -18.7984   11.8700  -18.8084 C   0  0  0  0  0  0  0  0  0  0  0  0
  -18.5744   12.7503  -19.8694 C   0  0  0  0  0  0  0  0  0  0  0  0
  -17.6238   12.5047  -20.8152 C   0  0  0  0  0  0  0  0  0  0  0  0
  -17.6338   13.5722  -21.7570 N   0  0  0  0  0  0  0  0  0  0  0  0
  -14.4868   10.5302  -23.0781 H   0  0  0  0  0  0  0  0  0  0  0  0
  -18.4645   14.1976  -21.5360 H   0  0  0  0  0  0  0  0  0  0  0  0
  -16.2274   15.2634  -22.6390 C   0  0  0  0  0  0  0  0  0  0  0  0
  -16.6121   16.2370  -23.7420 C   0  0  0  0  0  0  0  0  0  0  0  0
  -15.0983   16.0945  -25.4353 C   0  0  0  0  0  0  0  0  0  0  0  0
  -15.4584   16.8124  -24.3102 O   0  0  0  0  0  0  0  0  0  0  0  0
 19 20  1  0  0  0
 20 18  1  0  0  0
 18 17  1  0  0  0
 17  1  1  0  0  0
  1  2  1  0  0  0
  2  3  1  0  0  0
  3  4  1  0  0  0
  4  5  1  0  0  0
  5  6  2  0  0  0
  5  7  1  0  0  0
  7  8  2  0  0  0
  8  9  1  0  0  0
  9 10  1  0  0  0
  9 11  2  0  0  0
 11 12  1  0  0  0
 12 13  2  0  0  0
 13 14  1  0  0  0
 14  1  1  0  0  0
 13  7  1  0  0  0
  4 15  1  0  0  0
 14 16  1  0  0  0
M  END
> <minimizedAffinity>
-6.81070

> <CNNscore>
0.9497898817

> <CNNaffinity>
6.0772752762

> <CNN_VS>
5.7721347809

> <CNNaffinity_variance>
0.0358853526

$$$$
[H]c1c([H])c2c(c([H])c1Cl)C(=O)N([H])C([H])([H])C([H])([H])N(C([H])([H])C([H])([H])OC([H])([H])[H])N2[H]


 20 21  0  0  0  0  0  0  0  0999 V2000
  -20.5720   10.3583  -15.4355 N   0  0  0  0  0  0  0  0  0  0  0  0
  -19.4405    9.5400  -15.2313 C   0  0  0  0  0  0  0  0  0  0  0  0
  -19.1895    8.4836  -16.2517 C   0  0  0  0  0  0  0  0  0  0  0  0
  -18.1991    8.8620  -17.2462 N   0  0  0  0  0  0  0  0  0  0  0  0
  -18.0462    9.9927  -18.1265 C   0  0  0  0  0  0  0  0  0  0  0  0
  -17.1557    9.8885  -18.9830 O   0  0  0  0  0  0  0  0  0  0  0  0
  -18.7540   11.2775  -18.2134 C   0  0  0  0  0  0  0  0  0  0  0  0
  -18.2669   11.9362  -19.3230 C   0  0  0  0  0  0  0  0  0  0  0  0
  -18.7263   13.1845  -19.6939 C   0  0  0  0  0  0  0  0  0  0  0  0
  -18.0884   14.0141  -21.1219 Cl  0  0  0  0  0  0  0  0  0  0  0  0
  -19.7023   13.7656  -18.9112 C   0  0  0  0  0  0  0  0  0  0  0  0
  -20.1939   13.0966  -17.7880 C   0  0  0  0  0  0  0  0  0  0  0  0
  -19.7338   11.8642  -17.4302 C   0  0  0  0  0  0  0  0  0  0  0  0
  -20.4197   11.4472  -16.2545 N   0  0  0  0  0  0  0  0  0  0  0  0
  -17.4100    8.1957  -17.3826 H   0  0  0  0  0  0  0  0  0  0  0  0
  -21.0049   12.2643  -15.9082 H   0  0  0  0  0  0  0  0  0  0  0  0
  -21.8392    9.7218  -15.4646 C   0  0  0  0  0  0  0  0  0  0  0  0
  -22.8772   10.6806  -14.9023 C   0  0  0  0  0  0  0  0  0  0  0  0
  -22.9494   12.7177  -13.8905 C   0  0  0  0  0  0  0  0  0  0  0  0
  -22.3010   11.4971  -13.9093 O   0  0  0  0  0  0  0  0  0  0  0  0
 19 20  1  0  0  0
 20 18  1  0  0  0
 18 17  1  0  0  0
 17  1  1  0  0  0
  1  2  1  0  0  0
  2  3  1  0  0  0
  3  4  1  0  0  0
  4  5  1  0  0  0
  5  6  2  0  0  0
  5  7  1  0  0  0
  7  8  2  0  0  0
  8  9  1  0  0  0
  9 10  1  0  0  0
  9 11  2  0  0  0
 11 12  1  0  0  0
 12 13  2  0  0  0
 13 14  1  0  0  0
 14  1  1  0  0  0
 13  7  1  0  0  0
  4 15  1  0  0  0
 14 16  1  0  0  0
M  END
> <minimizedAffinity>
-5.11190

> <CNNscore>
0.5583437681

> <CNNaffinity>
4.5737328529

> <CNN_VS>
2.5537152290

> <CNNaffinity_variance>
0.0807911232

$$$$
[H]c1c([H])c2c(c([H])c1Cl)C(=O)N([H])C([H])([H])C([H])([H])N(C([H])([H])C([H])([H])OC([H])([H])[H])N2[H]


 20 21  0  0  0  0  0  0  0  0999 V2000
  -18.3583   14.1177  -21.6617 N   0  0  0  0  0  0  0  0  0  0  0  0
  -18.9210   15.3891  -21.4201 C   0  0  0  0  0  0  0  0  0  0  0  0
  -17.9644   16.5101  -21.2000 C   0  0  0  0  0  0  0  0  0  0  0  0
  -17.7331   17.3162  -22.3874 N   0  0  0  0  0  0  0  0  0  0  0  0
  -17.3383   17.0150  -23.7401 C   0  0  0  0  0  0  0  0  0  0  0  0
  -17.0608   17.9944  -24.4481 O   0  0  0  0  0  0  0  0  0  0  0  0
  -17.1953   15.7455  -24.4661 C   0  0  0  0  0  0  0  0  0  0  0  0
  -16.6745   16.0433  -25.7080 C   0  0  0  0  0  0  0  0  0  0  0  0
  -16.4151   15.0647  -26.6472 C   0  0  0  0  0  0  0  0  0  0  0  0
  -15.7464   15.4671  -28.2363 Cl  0  0  0  0  0  0  0  0  0  0  0  0
  -16.6958   13.7584  -26.3043 C   0  0  0  0  0  0  0  0  0  0  0  0
  -17.2232   13.4593  -25.0461 C   0  0  0  0  0  0  0  0  0  0  0  0
  -17.4758   14.4328  -24.1256 C   0  0  0  0  0  0  0  0  0  0  0  0
  -18.0044   13.8228  -22.9530 N   0  0  0  0  0  0  0  0  0  0  0  0
  -17.8729   18.3427  -22.2777 H   0  0  0  0  0  0  0  0  0  0  0  0
  -18.1771   12.7957  -23.1662 H   0  0  0  0  0  0  0  0  0  0  0  0
  -17.5412   13.5630  -20.6435 C   0  0  0  0  0  0  0  0  0  0  0  0
  -17.6893   12.0498  -20.6725 C   0  0  0  0  0  0  0  0  0  0  0  0
  -16.0681   10.4538  -20.7305 C   0  0  0  0  0  0  0  0  0  0  0  0
  -16.6644   11.4733  -21.4486 O   0  0  0  0  0  0  0  0  0  0  0  0
 19 20  1  0  0  0
 20 18  1  0  0  0
 18 17  1  0  0  0
 17  1  1  0  0  0
  1  2  1  0  0  0
  2  3  1  0  0  0
  3  4  1  0  0  0
  4  5  1  0  0  0
  5  6  2  0  0  0
  5  7  1  0  0  0
  7  8  2  0  0  0
  8  9  1  0  0  0
  9 10  1  0  0  0
  9 11  2  0  0  0
 11 12  1  0  0  0
 12 13  2  0  0  0
 13 14  1  0  0  0
 14  1  1  0  0  0
 13  7  1  0  0  0
  4 15  1  0  0  0
 14 16  1  0  0  0
M  END
> <minimizedAffinity>
-6.34064

> <CNNscore>
0.5051468015

> <CNNaffinity>
5.4037413597

> <CNN_VS>
2.7296826839

> <CNNaffinity_variance>
0.1569246352

$$$$
[H]c1c([H])c2c(c([H])c1Cl)C(=O)N([H])C([H])([H])C([H])([H])N(C([H])([H])C([H])([H])OC([H])([H])[H])N2[H]


 20 21  0  0  0  0  0  0  0  0999 V2000
  -19.3300   14.2223  -18.5656 N   0  0  0  0  0  0  0  0  0  0  0  0
  -18.4472   13.3456  -17.8996 C   0  0  0  0  0  0  0  0  0  0  0  0
  -18.6277   11.8904  -18.1644 C   0  0  0  0  0  0  0  0  0  0  0  0
  -17.7096   11.3644  -19.1612 N   0  0  0  0  0  0  0  0  0  0  0  0
  -17.3707   11.7447  -20.5091 C   0  0  0  0  0  0  0  0  0  0  0  0
  -16.6611   10.9400  -21.1308 O   0  0  0  0  0  0  0  0  0  0  0  0
  -17.7073   12.9269  -21.3144 C   0  0  0  0  0  0  0  0  0  0  0  0
  -17.2080   12.7115  -22.5819 C   0  0  0  0  0  0  0  0  0  0  0  0
  -17.3546   13.6394  -23.5941 C   0  0  0  0  0  0  0  0  0  0  0  0
  -16.7063   13.3446  -25.2149 Cl  0  0  0  0  0  0  0  0  0  0  0  0
  -18.0256   14.8079  -23.2987 C   0  0  0  0  0  0  0  0  0  0  0  0
  -18.5304   15.0236  -22.0144 C   0  0  0  0  0  0  0  0  0  0  0  0
  -18.3804   14.1012  -21.0217 C   0  0  0  0  0  0  0  0  0  0  0  0
  -18.9951   14.6025  -19.8396 N   0  0  0  0  0  0  0  0  0  0  0  0
  -17.1561   10.5287  -18.8775 H   0  0  0  0  0  0  0  0  0  0  0  0
  -19.2858   15.6086  -20.0216 H   0  0  0  0  0  0  0  0  0  0  0  0
  -20.7152   14.0811  -18.2952 C   0  0  0  0  0  0  0  0  0  0  0  0
  -21.4227   15.3641  -18.7024 C   0  0  0  0  0  0  0  0  0  0  0  0
  -21.9129   16.6518  -20.5136 C   0  0  0  0  0  0  0  0  0  0  0  0
  -21.6909   15.3564  -20.0855 O   0  0  0  0  0  0  0  0  0  0  0  0
 19 20  1  0  0  0
 20 18  1  0  0  0
 18 17  1  0  0  0
 17  1  1  0  0  0
  1  2  1  0  0  0
  2  3  1  0  0  0
  3  4  1  0  0  0
  4  5  1  0  0  0
  5  6  2  0  0  0
  5  7  1  0  0  0
  7  8  2  0  0  0
  8  9  1  0  0  0
  9 10  1  0  0  0
  9 11  2  0  0  0
 11 12  1  0  0  0
 12 13  2  0  0  0
 13 14  1  0  0  0
 14  1  1  0  0  0
 13  7  1  0  0  0
  4 15  1  0  0  0
 14 16  1  0  0  0
M  END
> <minimizedAffinity>
-5.74183

> <CNNscore>
0.4914851189

> <CNNaffinity>
5.1121850014

> <CNN_VS>
2.5125627518

> <CNNaffinity_variance>
0.2527153194

$$$$
[H]c1c([H])c2c(c([H])c1Cl)C(=O)N([H])C([H])([H])C([H])([H])N(C([H])([H])C([H])([H])OC([H])([H])[H])N2[H]


 20 21  0  0  0  0  0  0  0  0999 V2000
  -20.3593   11.7297  -16.3960 N   0  0  0  0  0  0  0  0  0  0  0  0
  -20.9406   12.9004  -16.9280 C   0  0  0  0  0  0  0  0  0  0  0  0
  -20.1145   14.1392  -16.8715 C   0  0  0  0  0  0  0  0  0  0  0  0
  -19.4260   14.4342  -18.1174 N   0  0  0  0  0  0  0  0  0  0  0  0
  -18.5501   13.6814  -18.9791 C   0  0  0  0  0  0  0  0  0  0  0  0
  -17.9986   14.3295  -19.8810 O   0  0  0  0  0  0  0  0  0  0  0  0
  -18.1706   12.2620  -19.0024 C   0  0  0  0  0  0  0  0  0  0  0  0
  -17.2063   12.1145  -19.9774 C   0  0  0  0  0  0  0  0  0  0  0  0
  -16.6304   10.8913  -20.2588 C   0  0  0  0  0  0  0  0  0  0  0  0
  -15.3939   10.7223  -21.5144 Cl  0  0  0  0  0  0  0  0  0  0  0  0
  -17.0528    9.8016  -19.5260 C   0  0  0  0  0  0  0  0  0  0  0  0
  -18.0295    9.9535  -18.5392 C   0  0  0  0  0  0  0  0  0  0  0  0
  -18.5920   11.1656  -18.2689 C   0  0  0  0  0  0  0  0  0  0  0  0
  -19.5445   11.0012  -17.2238 N   0  0  0  0  0  0  0  0  0  0  0  0
  -19.5722   15.3897  -18.5057 H   0  0  0  0  0  0  0  0  0  0  0  0
  -19.6472    9.9604  -17.0334 H   0  0  0  0  0  0  0  0  0  0  0  0
  -20.0089   11.7433  -15.0216 C   0  0  0  0  0  0  0  0  0  0  0  0
  -20.5079   10.4577  -14.3805 C   0  0  0  0  0  0  0  0  0  0  0  0
  -21.1061    8.3929  -15.1270 C   0  0  0  0  0  0  0  0  0  0  0  0
  -21.3272    9.7486  -15.2810 O   0  0  0  0  0  0  0  0  0  0  0  0
 19 20  1  0  0  0
 20 18  1  0  0  0
 18 17  1  0  0  0
 17  1  1  0  0  0
  1  2  1  0  0  0
  2  3  1  0  0  0
  3  4  1  0  0  0
  4  5  1  0  0  0
  5  6  2  0  0  0
  5  7  1  0  0  0
  7  8  2  0  0  0
  8  9  1  0  0  0
  9 10  1  0  0  0
  9 11  2  0  0  0
 11 12  1  0  0  0
 12 13  2  0  0  0
 13 14  1  0  0  0
 14  1  1  0  0  0
 13  7  1  0  0  0
  4 15  1  0  0  0
 14 16  1  0  0  0
M  END
> <minimizedAffinity>
-5.24621

> <CNNscore>
0.4301522970

> <CNNaffinity>
4.5755906105

> <CNN_VS>
1.9682008028

> <CNNaffinity_variance>
0.2279224843

$$$$
[H]c1c([H])c2c(c([H])c1Cl)C(=O)N([H])C([H])([H])C([H])([H])N(C([H])([H])C([H])([H])OC([H])([H])[H])N2[H]


 20 21  0  0  0  0  0  0  0  0999 V2000
  -17.7004   15.7408  -24.3215 N   0  0  0  0  0  0  0  0  0  0  0  0
  -17.0903   14.9254  -25.2985 C   0  0  0  0  0  0  0  0  0  0  0  0
  -15.6450   14.6201  -25.1034 C   0  0  0  0  0  0  0  0  0  0  0  0
  -15.4039   13.3231  -24.4926 N   0  0  0  0  0  0  0  0  0  0  0  0
  -15.8804   12.6763  -23.2963 C   0  0  0  0  0  0  0  0  0  0  0  0
  -15.3092   11.6176  -22.9956 O   0  0  0  0  0  0  0  0  0  0  0  0
  -16.9356   13.0308  -22.3371 C   0  0  0  0  0  0  0  0  0  0  0  0
  -16.8822   12.1076  -21.3138 C   0  0  0  0  0  0  0  0  0  0  0  0
  -17.7477   12.1552  -20.2387 C   0  0  0  0  0  0  0  0  0  0  0  0
  -17.6633   10.9607  -18.9347 Cl  0  0  0  0  0  0  0  0  0  0  0  0
  -18.6836   13.1683  -20.2152 C   0  0  0  0  0  0  0  0  0  0  0  0
  -18.7357   14.1019  -21.2526 C   0  0  0  0  0  0  0  0  0  0  0  0
  -17.8767   14.0464  -22.3098 C   0  0  0  0  0  0  0  0  0  0  0  0
  -18.1746   15.1216  -23.1939 N   0  0  0  0  0  0  0  0  0  0  0  0
  -14.7481   12.6930  -25.0007 H   0  0  0  0  0  0  0  0  0  0  0  0
  -19.0649   15.5912  -22.8520 H   0  0  0  0  0  0  0  0  0  0  0  0
  -17.1815   17.0496  -24.1492 C   0  0  0  0  0  0  0  0  0  0  0  0
  -17.3257   17.4405  -22.6866 C   0  0  0  0  0  0  0  0  0  0  0  0
  -16.4345   17.1194  -20.6174 C   0  0  0  0  0  0  0  0  0  0  0  0
  -16.1606   17.0984  -21.9721 O   0  0  0  0  0  0  0  0  0  0  0  0
 19 20  1  0  0  0
 20 18  1  0  0  0
 18 17  1  0  0  0
 17  1  1  0  0  0
  1  2  1  0  0  0
  2  3  1  0  0  0
  3  4  1  0  0  0
  4  5  1  0  0  0
  5  6  2  0  0  0
  5  7  1  0  0  0
  7  8  2  0  0  0
  8  9  1  0  0  0
  9 10  1  0  0  0
  9 11  2  0  0  0
 11 12  1  0  0  0
 12 13  2  0  0  0
 13 14  1  0  0  0
 14  1  1  0  0  0
 13  7  1  0  0  0
  4 15  1  0  0  0
 14 16  1  0  0  0
M  END
> <minimizedAffinity>
-6.57114

> <CNNscore>
0.4085979462

> <CNNaffinity>
5.3557424545

> <CNN_VS>
2.1883454323

> <CNNaffinity_variance>
0.1079308987

$$$$
[H]c1c([H])c2c(c([H])c1Cl)C(=O)N([H])C([H])([H])C([H])([H])N(C([H])([H])C([H])([H])OC([H])([H])[H])N2[H]


 20 21  0  0  0  0  0  0  0  0999 V2000
  -20.6734   13.9979  -18.7178 N   0  0  0  0  0  0  0  0  0  0  0  0
  -21.0919   14.6155  -19.9157 C   0  0  0  0  0  0  0  0  0  0  0  0
  -20.1864   15.6551  -20.4809 C   0  0  0  0  0  0  0  0  0  0  0  0
  -19.3274   15.1596  -21.5439 N   0  0  0  0  0  0  0  0  0  0  0  0
  -18.4117   14.0528  -21.6565 C   0  0  0  0  0  0  0  0  0  0  0  0
  -17.7038   14.0442  -22.6746 O   0  0  0  0  0  0  0  0  0  0  0  0
  -18.1427   12.9026  -20.7824 C   0  0  0  0  0  0  0  0  0  0  0  0
  -17.0787   12.2160  -21.3291 C   0  0  0  0  0  0  0  0  0  0  0  0
  -16.5683   11.0724  -20.7471 C   0  0  0  0  0  0  0  0  0  0  0  0
  -15.2018   10.2049  -21.4642 Cl  0  0  0  0  0  0  0  0  0  0  0  0
  -17.1614   10.6271  -19.5840 C   0  0  0  0  0  0  0  0  0  0  0  0
  -18.2388   11.3241  -19.0324 C   0  0  0  0  0  0  0  0  0  0  0  0
  -18.7354   12.4523  -19.6147 C   0  0  0  0  0  0  0  0  0  0  0  0
  -19.8205   12.9300  -18.8267 N   0  0  0  0  0  0  0  0  0  0  0  0
  -19.3500   15.6950  -22.4373 H   0  0  0  0  0  0  0  0  0  0  0  0
  -20.0260   12.2053  -18.0766 H   0  0  0  0  0  0  0  0  0  0  0  0
  -20.4969   14.8305  -17.5831 C   0  0  0  0  0  0  0  0  0  0  0  0
  -19.5526   14.1366  -16.6138 C   0  0  0  0  0  0  0  0  0  0  0  0
  -18.2647   15.8650  -17.3438 C   0  0  0  0  0  0  0  0  0  0  0  0
  -18.2333   14.5919  -16.8064 O   0  0  0  0  0  0  0  0  0  0  0  0
 19 20  1  0  0  0
 20 18  1  0  0  0
 18 17  1  0  0  0
 17  1  1  0  0  0
  1  2  1  0  0  0
  2  3  1  0  0  0
  3  4  1  0  0  0
  4  5  1  0  0  0
  5  6  2  0  0  0
  5  7  1  0  0  0
  7  8  2  0  0  0
  8  9  1  0  0  0
  9 10  1  0  0  0
  9 11  2  0  0  0
 11 12  1  0  0  0
 12 13  2  0  0  0
 13 14  1  0  0  0
 14  1  1  0  0  0
 13  7  1  0  0  0
  4 15  1  0  0  0
 14 16  1  0  0  0
M  END
> <minimizedAffinity>
-5.81781

> <CNNscore>
0.4003982246

> <CNNaffinity>
4.8584189415

> <CNN_VS>
1.9453023672

> <CNNaffinity_variance>
0.1389809847

$$$$
[H]c1c([H])c2c(c([H])c1Cl)C(=O)N([H])C([H])([H])C([H])([H])N(C([H])([H])C([H])([H])OC([H])([H])[H])N2[H]


 20 21  0  0  0  0  0  0  0  0999 V2000
  -16.7082   17.5338  -21.6335 N   0  0  0  0  0  0  0  0  0  0  0  0
  -16.4238   16.7067  -20.5259 C   0  0  0  0  0  0  0  0  0  0  0  0
  -17.5483   15.8782  -20.0071 C   0  0  0  0  0  0  0  0  0  0  0  0
  -17.5276   14.5065  -20.4879 N   0  0  0  0  0  0  0  0  0  0  0  0
  -17.4590   13.9055  -21.7958 C   0  0  0  0  0  0  0  0  0  0  0  0
  -17.6476   12.6805  -21.8333 O   0  0  0  0  0  0  0  0  0  0  0  0
  -17.2036   14.4699  -23.1283 C   0  0  0  0  0  0  0  0  0  0  0  0
  -17.3700   13.4495  -24.0412 C   0  0  0  0  0  0  0  0  0  0  0  0
  -17.2019   13.6460  -25.3977 C   0  0  0  0  0  0  0  0  0  0  0  0
  -17.4198   12.3232  -26.5540 Cl  0  0  0  0  0  0  0  0  0  0  0  0
  -16.8570   14.9121  -25.8230 C   0  0  0  0  0  0  0  0  0  0  0  0
  -16.6892   15.9438  -24.8965 C   0  0  0  0  0  0  0  0  0  0  0  0
  -16.8574   15.7397  -23.5591 C   0  0  0  0  0  0  0  0  0  0  0  0
  -16.6200   16.9675  -22.8790 N   0  0  0  0  0  0  0  0  0  0  0  0
  -17.5700   13.7650  -19.7574 H   0  0  0  0  0  0  0  0  0  0  0  0
  -16.2515   17.6695  -23.5872 H   0  0  0  0  0  0  0  0  0  0  0  0
  -17.7047   18.5289  -21.4643 C   0  0  0  0  0  0  0  0  0  0  0  0
  -18.4540   18.6939  -22.7772 C   0  0  0  0  0  0  0  0  0  0  0  0
  -20.5954   18.4356  -23.5030 C   0  0  0  0  0  0  0  0  0  0  0  0
  -19.5607   17.8231  -22.8211 O   0  0  0  0  0  0  0  0  0  0  0  0
 19 20  1  0  0  0
 20 18  1  0  0  0
 18 17  1  0  0  0
 17  1  1  0  0  0
  1  2  1  0  0  0
  2  3  1  0  0  0
  3  4  1  0  0  0
  4  5  1  0  0  0
  5  6  2  0  0  0
  5  7  1  0  0  0
  7  8  2  0  0  0
  8  9  1  0  0  0
  9 10  1  0  0  0
  9 11  2  0  0  0
 11 12  1  0  0  0
 12 13  2  0  0  0
 13 14  1  0  0  0
 14  1  1  0  0  0
 13  7  1  0  0  0
  4 15  1  0  0  0
 14 16  1  0  0  0
M  END
> <minimizedAffinity>
-5.65530

> <CNNscore>
0.3798514903

> <CNNaffinity>
5.0203847885

> <CNN_VS>
1.9070006609

> <CNNaffinity_variance>
0.2579826713

$$$$
[H]Oc1c([H])c([H])c(C([H])([H])[C@@]([H])(C(=O)N([H])[C@]2([H])[C@@]3([H])C([H])([H])[C@]([H])(O[H])C([H])([H])[C@@]3([H])[C@@]2([H])C(=O)N([H])c2c([H])c([H])c(F)c([H])c2[H])N([H])[H])c([H])c1[H]


 37 40  0  0  0  0  0  0  0  0999 V2000
  -18.7584   13.7487  -20.5175 C   0  0  0  0  0  0  0  0  0  0  0  0
  -17.9314   13.0872  -19.3978 C   0  0  0  0  0  0  0  0  0  0  0  0
  -18.4273   11.7825  -18.9014 C   0  0  0  0  0  0  0  0  0  0  0  0
  -17.7238   10.6961  -19.6877 C   0  0  0  0  0  0  0  0  0  0  0  0
  -16.5837   10.2227  -19.0978 O   0  0  0  0  0  0  0  0  0  0  0  0
  -17.4207   11.4798  -20.9934 C   0  0  0  0  0  0  0  0  0  0  0  0
  -16.9285   12.7930  -20.5457 C   0  0  0  0  0  0  0  0  0  0  0  0
  -17.3909   14.0714  -21.0956 C   0  0  0  0  0  0  0  0  0  0  0  0
  -15.7946   10.5309  -19.5996 H   0  0  0  0  0  0  0  0  0  0  0  0
  -20.8683   14.9102  -19.8272 C   0  0  0  0  0  0  0  0  0  0  0  0
  -21.4881   13.8495  -20.0240 O   0  0  0  0  0  0  0  0  0  0  0  0
  -19.4598   14.9247  -20.0631 N   0  0  0  0  0  0  0  0  0  0  0  0
  -18.9440   15.8023  -19.9008 H   0  0  0  0  0  0  0  0  0  0  0  0
  -21.2734   16.3478  -17.9682 N   0  0  0  0  0  0  0  0  0  0  0  0
  -21.5833   16.1098  -19.3635 C   0  0  0  0  0  0  0  0  0  0  0  0
  -20.2875   16.6412  -17.8270 H   0  0  0  0  0  0  0  0  0  0  0  0
  -21.5496   15.5351  -17.3697 H   0  0  0  0  0  0  0  0  0  0  0  0
  -21.1171   17.3513  -20.1276 C   0  0  0  0  0  0  0  0  0  0  0  0
  -21.8965   17.5237  -21.3608 C   0  0  0  0  0  0  0  0  0  0  0  0
  -23.2426   17.1914  -21.4389 C   0  0  0  0  0  0  0  0  0  0  0  0
  -23.9754   17.3557  -22.6060 C   0  0  0  0  0  0  0  0  0  0  0  0
  -23.3745   17.8589  -23.7272 C   0  0  0  0  0  0  0  0  0  0  0  0
  -24.0594   18.0448  -24.9234 O   0  0  0  0  0  0  0  0  0  0  0  0
  -22.0252   18.1979  -23.6685 C   0  0  0  0  0  0  0  0  0  0  0  0
  -21.3079   18.0298  -22.5023 C   0  0  0  0  0  0  0  0  0  0  0  0
  -24.0702   17.2607  -25.5941 H   0  0  0  0  0  0  0  0  0  0  0  0
  -17.2719   14.4626  -22.4723 C   0  0  0  0  0  0  0  0  0  0  0  0
  -18.2892   15.0278  -23.0121 O   0  0  0  0  0  0  0  0  0  0  0  0
  -16.1588   14.2945  -23.2971 N   0  0  0  0  0  0  0  0  0  0  0  0
  -15.3194   13.8205  -22.8287 H   0  0  0  0  0  0  0  0  0  0  0  0
  -15.9642   14.6361  -24.6357 C   0  0  0  0  0  0  0  0  0  0  0  0
  -16.8161   14.1258  -25.6365 C   0  0  0  0  0  0  0  0  0  0  0  0
  -16.6535   14.4717  -26.9516 C   0  0  0  0  0  0  0  0  0  0  0  0
  -15.6607   15.3275  -27.3682 C   0  0  0  0  0  0  0  0  0  0  0  0
  -15.5375   15.6430  -28.6916 F   0  0  0  0  0  0  0  0  0  0  0  0
  -14.8195   15.8378  -26.4155 C   0  0  0  0  0  0  0  0  0  0  0  0
  -14.9875   15.4818  -25.0621 C   0  0  0  0  0  0  0  0  0  0  0  0
 14 15  1  0  0  0
 15 18  1  0  0  0
 18 19  1  0  0  0
 19 20  2  0  0  0
 20 21  1  0  0  0
 21 22  2  0  0  0
 22 23  1  0  0  0
 22 24  1  0  0  0
 24 25  2  0  0  0
 15 10  1  0  0  0
 10 11  2  0  0  0
 10 12  1  0  0  0
 12  1  1  0  0  0
  1  2  1  0  0  0
  2  3  1  0  0  0
  3  4  1  0  0  0
  4  5  1  0  0  0
  4  6  1  0  0  0
  6  7  1  0  0  0
  7  8  1  0  0  0
  8 27  1  0  0  0
 27 28  2  0  0  0
 27 29  1  0  0  0
 29 31  1  0  0  0
 31 32  2  0  0  0
 32 33  1  0  0  0
 33 34  2  0  0  0
 34 35  1  0  0  0
 34 36  1  0  0  0
 36 37  2  0  0  0
 25 19  1  0  0  0
  8  1  1  0  0  0
 37 31  1  0  0  0
  7  2  1  0  0  0
 14 16  1  0  0  0
 14 17  1  0  0  0
 23 26  1  0  0  0
 12 13  1  0  0  0
  5  9  1  0  0  0
 29 30  1  0  0  0
M  END
> <minimizedAffinity>
-9.10805

> <CNNscore>
0.5483813286

> <CNNaffinity>
6.7071619034

> <CNN_VS>
3.6780824661

> <CNNaffinity_variance>
0.2542847395

$$$$
[H]Oc1c([H])c([H])c(C([H])([H])[C@@]([H])(C(=O)N([H])[C@]2([H])[C@@]3([H])C([H])([H])[C@]([H])(O[H])C([H])([H])[C@@]3([H])[C@@]2([H])C(=O)N([H])c2c([H])c([H])c(F)c([H])c2[H])N([H])[H])c([H])c1[H]


 37 40  0  0  0  0  0  0  0  0999 V2000
  -19.0892   13.5557  -19.6376 C   0  0  0  0  0  0  0  0  0  0  0  0
  -18.1918   12.9341  -18.5496 C   0  0  0  0  0  0  0  0  0  0  0  0
  -18.6800   11.6758  -17.9388 C   0  0  0  0  0  0  0  0  0  0  0  0
  -18.0712   10.5250  -18.7124 C   0  0  0  0  0  0  0  0  0  0  0  0
  -16.8998   10.0511  -18.1877 O   0  0  0  0  0  0  0  0  0  0  0  0
  -17.8543   11.2231  -20.0823 C   0  0  0  0  0  0  0  0  0  0  0  0
  -17.2932   12.5439  -19.7539 C   0  0  0  0  0  0  0  0  0  0  0  0
  -17.7649   13.8025  -20.3404 C   0  0  0  0  0  0  0  0  0  0  0  0
  -16.1461   10.3056  -18.7679 H   0  0  0  0  0  0  0  0  0  0  0  0
  -21.0896   15.0573  -19.4934 C   0  0  0  0  0  0  0  0  0  0  0  0
  -21.7371   14.2170  -20.1434 O   0  0  0  0  0  0  0  0  0  0  0  0
  -19.7204   14.7768  -19.1996 N   0  0  0  0  0  0  0  0  0  0  0  0
  -19.1817   15.4714  -18.6612 H   0  0  0  0  0  0  0  0  0  0  0  0
  -21.3848   16.5571  -17.6630 N   0  0  0  0  0  0  0  0  0  0  0  0
  -21.7331   16.3028  -19.0463 C   0  0  0  0  0  0  0  0  0  0  0  0
  -20.3827   16.8023  -17.5467 H   0  0  0  0  0  0  0  0  0  0  0  0
  -21.6909   15.7740  -17.0401 H   0  0  0  0  0  0  0  0  0  0  0  0
  -21.2185   17.5003  -19.8487 C   0  0  0  0  0  0  0  0  0  0  0  0
  -21.9296   17.6098  -21.1295 C   0  0  0  0  0  0  0  0  0  0  0  0
  -21.3049   18.0521  -22.2881 C   0  0  0  0  0  0  0  0  0  0  0  0
  -21.9803   18.1543  -23.4962 C   0  0  0  0  0  0  0  0  0  0  0  0
  -23.3032   17.8143  -23.5724 C   0  0  0  0  0  0  0  0  0  0  0  0
  -24.0296   17.8967  -24.7557 O   0  0  0  0  0  0  0  0  0  0  0  0
  -23.9471   17.3685  -22.4210 C   0  0  0  0  0  0  0  0  0  0  0  0
  -23.2645   17.2714  -21.2263 C   0  0  0  0  0  0  0  0  0  0  0  0
  -24.5119   18.7861  -24.9588 H   0  0  0  0  0  0  0  0  0  0  0  0
  -17.7476   14.1105  -21.7431 C   0  0  0  0  0  0  0  0  0  0  0  0
  -18.6395   14.9242  -22.1766 O   0  0  0  0  0  0  0  0  0  0  0  0
  -16.8569   13.6172  -22.6975 N   0  0  0  0  0  0  0  0  0  0  0  0
  -16.1196   12.9389  -22.3165 H   0  0  0  0  0  0  0  0  0  0  0  0
  -16.7755   13.8574  -24.0693 C   0  0  0  0  0  0  0  0  0  0  0  0
  -17.3467   12.9550  -24.9898 C   0  0  0  0  0  0  0  0  0  0  0  0
  -17.2972   13.1895  -26.3382 C   0  0  0  0  0  0  0  0  0  0  0  0
  -16.6940   14.3066  -26.8672 C   0  0  0  0  0  0  0  0  0  0  0  0
  -16.6692   14.4973  -28.2197 F   0  0  0  0  0  0  0  0  0  0  0  0
  -16.1317   15.1997  -25.9943 C   0  0  0  0  0  0  0  0  0  0  0  0
  -16.1833   14.9579  -24.6067 C   0  0  0  0  0  0  0  0  0  0  0  0
 14 15  1  0  0  0
 15 18  1  0  0  0
 18 19  1  0  0  0
 19 20  2  0  0  0
 20 21  1  0  0  0
 21 22  2  0  0  0
 22 23  1  0  0  0
 22 24  1  0  0  0
 24 25  2  0  0  0
 15 10  1  0  0  0
 10 11  2  0  0  0
 10 12  1  0  0  0
 12  1  1  0  0  0
  1  2  1  0  0  0
  2  3  1  0  0  0
  3  4  1  0  0  0
  4  5  1  0  0  0
  4  6  1  0  0  0
  6  7  1  0  0  0
  7  8  1  0  0  0
  8 27  1  0  0  0
 27 28  2  0  0  0
 27 29  1  0  0  0
 29 31  1  0  0  0
 31 32  2  0  0  0
 32 33  1  0  0  0
 33 34  2  0  0  0
 34 35  1  0  0  0
 34 36  1  0  0  0
 36 37  2  0  0  0
 25 19  1  0  0  0
  8  1  1  0  0  0
 37 31  1  0  0  0
  7  2  1  0  0  0
 14 16  1  0  0  0
 14 17  1  0  0  0
 23 26  1  0  0  0
 12 13  1  0  0  0
  5  9  1  0  0  0
 29 30  1  0  0  0
M  END
> <minimizedAffinity>
-8.80498

> <CNNscore>
0.4552607536

> <CNNaffinity>
6.4960565567

> <CNN_VS>
2.9573996067

> <CNNaffinity_variance>
0.2409674674

$$$$
[H]Oc1c([H])c([H])c(C([H])([H])[C@@]([H])(C(=O)N([H])[C@]2([H])[C@@]3([H])C([H])([H])[C@]([H])(O[H])C([H])([H])[C@@]3([H])[C@@]2([H])C(=O)N([H])c2c([H])c([H])c(F)c([H])c2[H])N([H])[H])c([H])c1[H]


 37 40  0  0  0  0  0  0  0  0999 V2000
  -18.2133   13.4650  -20.3915 C   0  0  0  0  0  0  0  0  0  0  0  0
  -17.2900   12.6249  -19.4874 C   0  0  0  0  0  0  0  0  0  0  0  0
  -17.8757   11.3860  -18.9247 C   0  0  0  0  0  0  0  0  0  0  0  0
  -17.5336   10.2496  -19.8654 C   0  0  0  0  0  0  0  0  0  0  0  0
  -16.3874    9.5763  -19.5416 O   0  0  0  0  0  0  0  0  0  0  0  0
  -17.3849   11.0480  -21.1888 C   0  0  0  0  0  0  0  0  0  0  0  0
  -16.6064   12.2443  -20.8283 C   0  0  0  0  0  0  0  0  0  0  0  0
  -16.9609   13.6064  -21.2401 C   0  0  0  0  0  0  0  0  0  0  0  0
  -15.6799    9.7875  -20.1930 H   0  0  0  0  0  0  0  0  0  0  0  0
  -19.9744   15.1189  -19.7279 C   0  0  0  0  0  0  0  0  0  0  0  0
  -20.8311   14.3752  -20.2387 O   0  0  0  0  0  0  0  0  0  0  0  0
  -18.6075   14.7076  -19.7734 N   0  0  0  0  0  0  0  0  0  0  0  0
  -17.8957   15.3220  -19.3510 H   0  0  0  0  0  0  0  0  0  0  0  0
  -19.2038   17.0590  -18.5750 N   0  0  0  0  0  0  0  0  0  0  0  0
  -20.3761   16.3863  -19.0973 C   0  0  0  0  0  0  0  0  0  0  0  0
  -18.5786   17.4050  -19.3282 H   0  0  0  0  0  0  0  0  0  0  0  0
  -18.7069   16.4698  -17.8673 H   0  0  0  0  0  0  0  0  0  0  0  0
  -20.9958   17.3345  -20.1266 C   0  0  0  0  0  0  0  0  0  0  0  0
  -20.0458   17.6135  -21.2119 C   0  0  0  0  0  0  0  0  0  0  0  0
  -18.8384   18.2629  -20.9909 C   0  0  0  0  0  0  0  0  0  0  0  0
  -17.9438   18.5247  -22.0190 C   0  0  0  0  0  0  0  0  0  0  0  0
  -18.2388   18.1404  -23.2984 C   0  0  0  0  0  0  0  0  0  0  0  0
  -17.3803   18.3764  -24.3669 O   0  0  0  0  0  0  0  0  0  0  0  0
  -19.4450   17.4878  -23.5399 C   0  0  0  0  0  0  0  0  0  0  0  0
  -20.3257   17.2335  -22.5092 C   0  0  0  0  0  0  0  0  0  0  0  0
  -17.4920   19.2635  -24.8821 H   0  0  0  0  0  0  0  0  0  0  0  0
  -17.0677   14.0494  -22.6020 C   0  0  0  0  0  0  0  0  0  0  0  0
  -18.2036   14.5078  -22.9830 O   0  0  0  0  0  0  0  0  0  0  0  0
  -16.0603   14.0369  -23.5677 N   0  0  0  0  0  0  0  0  0  0  0  0
  -15.1191   13.6504  -23.2309 H   0  0  0  0  0  0  0  0  0  0  0  0
  -16.0819   14.4385  -24.9036 C   0  0  0  0  0  0  0  0  0  0  0  0
  -15.3040   15.5321  -25.3357 C   0  0  0  0  0  0  0  0  0  0  0  0
  -15.2950   15.9226  -26.6483 C   0  0  0  0  0  0  0  0  0  0  0  0
  -16.0362   15.2780  -27.6110 C   0  0  0  0  0  0  0  0  0  0  0  0
  -15.9954   15.7045  -28.9081 F   0  0  0  0  0  0  0  0  0  0  0  0
  -16.8006   14.2118  -27.2175 C   0  0  0  0  0  0  0  0  0  0  0  0
  -16.8091   13.8102  -25.8665 C   0  0  0  0  0  0  0  0  0  0  0  0
 14 15  1  0  0  0
 15 18  1  0  0  0
 18 19  1  0  0  0
 19 20  2  0  0  0
 20 21  1  0  0  0
 21 22  2  0  0  0
 22 23  1  0  0  0
 22 24  1  0  0  0
 24 25  2  0  0  0
 15 10  1  0  0  0
 10 11  2  0  0  0
 10 12  1  0  0  0
 12  1  1  0  0  0
  1  2  1  0  0  0
  2  3  1  0  0  0
  3  4  1  0  0  0
  4  5  1  0  0  0
  4  6  1  0  0  0
  6  7  1  0  0  0
  7  8  1  0  0  0
  8 27  1  0  0  0
 27 28  2  0  0  0
 27 29  1  0  0  0
 29 31  1  0  0  0
 31 32  2  0  0  0
 32 33  1  0  0  0
 33 34  2  0  0  0
 34 35  1  0  0  0
 34 36  1  0  0  0
 36 37  2  0  0  0
 25 19  1  0  0  0
  8  1  1  0  0  0
 37 31  1  0  0  0
  7  2  1  0  0  0
 14 16  1  0  0  0
 14 17  1  0  0  0
 23 26  1  0  0  0
 12 13  1  0  0  0
  5  9  1  0  0  0
 29 30  1  0  0  0
M  END
> <minimizedAffinity>
-8.48828

> <CNNscore>
0.4426087737

> <CNNaffinity>
6.8751564026

> <CNN_VS>
3.0430045128

> <CNNaffinity_variance>
0.2161445618

$$$$
[H]Oc1c([H])c([H])c(C([H])([H])[C@@]([H])(C(=O)N([H])[C@]2([H])[C@@]3([H])C([H])([H])[C@]([H])(O[H])C([H])([H])[C@@]3([H])[C@@]2([H])C(=O)N([H])c2c([H])c([H])c(F)c([H])c2[H])N([H])[H])c([H])c1[H]


 37 40  0  0  0  0  0  0  0  0999 V2000
  -19.0242   14.7583  -20.2836 C   0  0  0  0  0  0  0  0  0  0  0  0
  -19.1787   16.2880  -20.1758 C   0  0  0  0  0  0  0  0  0  0  0  0
  -20.3156   16.8846  -20.9149 C   0  0  0  0  0  0  0  0  0  0  0  0
  -21.4868   16.9736  -19.9591 C   0  0  0  0  0  0  0  0  0  0  0  0
  -21.5887   18.1701  -19.3032 O   0  0  0  0  0  0  0  0  0  0  0  0
  -21.1208   15.8119  -18.9960 C   0  0  0  0  0  0  0  0  0  0  0  0
  -19.6789   15.9657  -18.7420 C   0  0  0  0  0  0  0  0  0  0  0  0
  -18.7153   14.8616  -18.7995 C   0  0  0  0  0  0  0  0  0  0  0  0
  -21.3490   18.0536  -18.3554 H   0  0  0  0  0  0  0  0  0  0  0  0
  -17.6557   13.0191  -21.4581 C   0  0  0  0  0  0  0  0  0  0  0  0
  -18.4892   12.1632  -21.1107 O   0  0  0  0  0  0  0  0  0  0  0  0
  -17.8731   14.3745  -21.0640 N   0  0  0  0  0  0  0  0  0  0  0  0
  -17.1840   15.0855  -21.3506 H   0  0  0  0  0  0  0  0  0  0  0  0
  -16.0935   11.2750  -21.9105 N   0  0  0  0  0  0  0  0  0  0  0  0
  -16.4816   12.6280  -22.2543 C   0  0  0  0  0  0  0  0  0  0  0  0
  -16.7882   10.5719  -22.2284 H   0  0  0  0  0  0  0  0  0  0  0  0
  -15.8586   11.1897  -20.8943 H   0  0  0  0  0  0  0  0  0  0  0  0
  -16.8159   12.6153  -23.7478 C   0  0  0  0  0  0  0  0  0  0  0  0
  -16.0976   13.6882  -24.4486 C   0  0  0  0  0  0  0  0  0  0  0  0
  -16.6510   14.3706  -25.5240 C   0  0  0  0  0  0  0  0  0  0  0  0
  -15.9690   15.3836  -26.1834 C   0  0  0  0  0  0  0  0  0  0  0  0
  -14.7111   15.7384  -25.7793 C   0  0  0  0  0  0  0  0  0  0  0  0
  -13.9816   16.7454  -26.4026 O   0  0  0  0  0  0  0  0  0  0  0  0
  -14.1393   15.0656  -24.7026 C   0  0  0  0  0  0  0  0  0  0  0  0
  -14.8276   14.0605  -24.0556 C   0  0  0  0  0  0  0  0  0  0  0  0
  -13.3731   16.4758  -27.1912 H   0  0  0  0  0  0  0  0  0  0  0  0
  -18.7656   13.6859  -17.9762 C   0  0  0  0  0  0  0  0  0  0  0  0
  -18.2457   13.7659  -16.8062 O   0  0  0  0  0  0  0  0  0  0  0  0
  -19.3247   12.4522  -18.3120 N   0  0  0  0  0  0  0  0  0  0  0  0
  -19.7537   12.4048  -19.2931 H   0  0  0  0  0  0  0  0  0  0  0  0
  -19.4086   11.2672  -17.5805 C   0  0  0  0  0  0  0  0  0  0  0  0
  -18.5032   10.2129  -17.8182 C   0  0  0  0  0  0  0  0  0  0  0  0
  -18.5566    9.0534  -17.0913 C   0  0  0  0  0  0  0  0  0  0  0  0
  -19.4864    8.8520  -16.0980 C   0  0  0  0  0  0  0  0  0  0  0  0
  -19.5011    7.6780  -15.3998 F   0  0  0  0  0  0  0  0  0  0  0  0
  -20.3776    9.8612  -15.8467 C   0  0  0  0  0  0  0  0  0  0  0  0
  -20.3218   11.0544  -16.5949 C   0  0  0  0  0  0  0  0  0  0  0  0
 14 15  1  0  0  0
 15 18  1  0  0  0
 18 19  1  0  0  0
 19 20  2  0  0  0
 20 21  1  0  0  0
 21 22  2  0  0  0
 22 23  1  0  0  0
 22 24  1  0  0  0
 24 25  2  0  0  0
 15 10  1  0  0  0
 10 11  2  0  0  0
 10 12  1  0  0  0
 12  1  1  0  0  0
  1  2  1  0  0  0
  2  3  1  0  0  0
  3  4  1  0  0  0
  4  5  1  0  0  0
  4  6  1  0  0  0
  6  7  1  0  0  0
  7  8  1  0  0  0
  8 27  1  0  0  0
 27 28  2  0  0  0
 27 29  1  0  0  0
 29 31  1  0  0  0
 31 32  2  0  0  0
 32 33  1  0  0  0
 33 34  2  0  0  0
 34 35  1  0  0  0
 34 36  1  0  0  0
 36 37  2  0  0  0
 25 19  1  0  0  0
  8  1  1  0  0  0
 37 31  1  0  0  0
  7  2  1  0  0  0
 14 16  1  0  0  0
 14 17  1  0  0  0
 23 26  1  0  0  0
 12 13  1  0  0  0
  5  9  1  0  0  0
 29 30  1  0  0  0
M  END
> <minimizedAffinity>
-9.29708

> <CNNscore>
0.3717136979

> <CNNaffinity>
6.7106308937

> <CNN_VS>
2.4944334030

> <CNNaffinity_variance>
0.1820850819

$$$$
[H]Oc1c([H])c([H])c(C([H])([H])[C@@]([H])(C(=O)N([H])[C@]2([H])[C@@]3([H])C([H])([H])[C@]([H])(O[H])C([H])([H])[C@@]3([H])[C@@]2([H])C(=O)N([H])c2c([H])c([H])c(F)c([H])c2[H])N([H])[H])c([H])c1[H]


 37 40  0  0  0  0  0  0  0  0999 V2000
  -19.1008   12.1268  -18.6137 C   0  0  0  0  0  0  0  0  0  0  0  0
  -18.5008   11.4840  -17.3479 C   0  0  0  0  0  0  0  0  0  0  0  0
  -19.2866   10.3878  -16.7351 C   0  0  0  0  0  0  0  0  0  0  0  0
  -18.7758    9.0825  -17.3082 C   0  0  0  0  0  0  0  0  0  0  0  0
  -17.7978    8.4842  -16.5615 O   0  0  0  0  0  0  0  0  0  0  0  0
  -18.2354    9.5947  -18.6708 C   0  0  0  0  0  0  0  0  0  0  0  0
  -17.5107   10.8359  -18.3527 C   0  0  0  0  0  0  0  0  0  0  0  0
  -17.6626   12.0874  -19.1019 C   0  0  0  0  0  0  0  0  0  0  0  0
  -16.9321    8.5555  -17.0250 H   0  0  0  0  0  0  0  0  0  0  0  0
  -20.3085   14.1876  -19.3698 C   0  0  0  0  0  0  0  0  0  0  0  0
  -20.5424   13.6235  -20.4538 O   0  0  0  0  0  0  0  0  0  0  0  0
  -19.5703   13.4707  -18.3795 N   0  0  0  0  0  0  0  0  0  0  0  0
  -19.3751   13.9358  -17.4805 H   0  0  0  0  0  0  0  0  0  0  0  0
  -21.7603   15.5497  -18.0569 N   0  0  0  0  0  0  0  0  0  0  0  0
  -20.7873   15.5582  -19.1306 C   0  0  0  0  0  0  0  0  0  0  0  0
  -21.3318   15.3290  -17.1373 H   0  0  0  0  0  0  0  0  0  0  0  0
  -22.5787   14.9390  -18.2857 H   0  0  0  0  0  0  0  0  0  0  0  0
  -19.6421   16.4625  -18.6687 C   0  0  0  0  0  0  0  0  0  0  0  0
  -18.6782   16.6745  -19.7568 C   0  0  0  0  0  0  0  0  0  0  0  0
  -19.0759   17.0173  -21.0424 C   0  0  0  0  0  0  0  0  0  0  0  0
  -18.1621   17.2166  -22.0677 C   0  0  0  0  0  0  0  0  0  0  0  0
  -16.8224   17.0766  -21.8283 C   0  0  0  0  0  0  0  0  0  0  0  0
  -15.8624   17.2641  -22.8171 O   0  0  0  0  0  0  0  0  0  0  0  0
  -16.4041   16.7332  -20.5453 C   0  0  0  0  0  0  0  0  0  0  0  0
  -17.3225   16.5378  -19.5348 C   0  0  0  0  0  0  0  0  0  0  0  0
  -15.5863   16.4421  -23.3764 H   0  0  0  0  0  0  0  0  0  0  0  0
  -17.3790   12.2448  -20.5010 C   0  0  0  0  0  0  0  0  0  0  0  0
  -17.0618   11.1897  -21.1581 O   0  0  0  0  0  0  0  0  0  0  0  0
  -17.4114   13.4324  -21.2333 N   0  0  0  0  0  0  0  0  0  0  0  0
  -17.6780   14.3026  -20.6673 H   0  0  0  0  0  0  0  0  0  0  0  0
  -17.1450   13.6720  -22.5816 C   0  0  0  0  0  0  0  0  0  0  0  0
  -15.8229   13.6280  -23.0694 C   0  0  0  0  0  0  0  0  0  0  0  0
  -15.5477   13.8361  -24.3948 C   0  0  0  0  0  0  0  0  0  0  0  0
  -16.5341   14.0974  -25.3170 C   0  0  0  0  0  0  0  0  0  0  0  0
  -16.2107   14.2988  -26.6289 F   0  0  0  0  0  0  0  0  0  0  0  0
  -17.8274   14.1452  -24.8690 C   0  0  0  0  0  0  0  0  0  0  0  0
  -18.1100   13.9306  -23.5049 C   0  0  0  0  0  0  0  0  0  0  0  0
 14 15  1  0  0  0
 15 18  1  0  0  0
 18 19  1  0  0  0
 19 20  2  0  0  0
 20 21  1  0  0  0
 21 22  2  0  0  0
 22 23  1  0  0  0
 22 24  1  0  0  0
 24 25  2  0  0  0
 15 10  1  0  0  0
 10 11  2  0  0  0
 10 12  1  0  0  0
 12  1  1  0  0  0
  1  2  1  0  0  0
  2  3  1  0  0  0
  3  4  1  0  0  0
  4  5  1  0  0  0
  4  6  1  0  0  0
  6  7  1  0  0  0
  7  8  1  0  0  0
  8 27  1  0  0  0
 27 28  2  0  0  0
 27 29  1  0  0  0
 29 31  1  0  0  0
 31 32  2  0  0  0
 32 33  1  0  0  0
 33 34  2  0  0  0
 34 35  1  0  0  0
 34 36  1  0  0  0
 36 37  2  0  0  0
 25 19  1  0  0  0
  8  1  1  0  0  0
 37 31  1  0  0  0
  7  2  1  0  0  0
 14 16  1  0  0  0
 14 17  1  0  0  0
 23 26  1  0  0  0
 12 13  1  0  0  0
  5  9  1  0  0  0
 29 30  1  0  0  0
M  END
> <minimizedAffinity>
-8.47972

> <CNNscore>
0.3371308446

> <CNNaffinity>
6.5130758286

> <CNN_VS>
2.1957588196

> <CNNaffinity_variance>
0.1166716218

$$$$
[H]Oc1c([H])c([H])c(C([H])([H])[C@@]([H])(C(=O)N([H])[C@]2([H])[C@@]3([H])C([H])([H])[C@]([H])(O[H])C([H])([H])[C@@]3([H])[C@@]2([H])C(=O)N([H])c2c([H])c([H])c(F)c([H])c2[H])N([H])[H])c([H])c1[H]


 37 40  0  0  0  0  0  0  0  0999 V2000
  -16.5831   15.9004  -23.1580 C   0  0  0  0  0  0  0  0  0  0  0  0
  -16.6203   16.2479  -24.6591 C   0  0  0  0  0  0  0  0  0  0  0  0
  -15.3695   16.7934  -25.2359 C   0  0  0  0  0  0  0  0  0  0  0  0
  -14.5825   15.6311  -25.8042 C   0  0  0  0  0  0  0  0  0  0  0  0
  -14.8134   15.3901  -27.1311 O   0  0  0  0  0  0  0  0  0  0  0  0
  -15.1246   14.4890  -24.9028 C   0  0  0  0  0  0  0  0  0  0  0  0
  -16.5793   14.7069  -24.8428 C   0  0  0  0  0  0  0  0  0  0  0  0
  -17.3614   14.6737  -23.6027 C   0  0  0  0  0  0  0  0  0  0  0  0
  -15.3328   14.5601  -27.2350 H   0  0  0  0  0  0  0  0  0  0  0  0
  -17.1452   16.9733  -20.9648 C   0  0  0  0  0  0  0  0  0  0  0  0
  -16.2293   16.3173  -20.4367 O   0  0  0  0  0  0  0  0  0  0  0  0
  -17.3790   16.8041  -22.3635 N   0  0  0  0  0  0  0  0  0  0  0  0
  -18.1372   17.3464  -22.8034 H   0  0  0  0  0  0  0  0  0  0  0  0
  -17.6394   19.2624  -20.5146 N   0  0  0  0  0  0  0  0  0  0  0  0
  -17.9571   17.8952  -20.1548 C   0  0  0  0  0  0  0  0  0  0  0  0
  -17.9638   19.5047  -21.4706 H   0  0  0  0  0  0  0  0  0  0  0  0
  -16.6267   19.4747  -20.3585 H   0  0  0  0  0  0  0  0  0  0  0  0
  -19.4480   17.7072  -20.4454 C   0  0  0  0  0  0  0  0  0  0  0  0
  -20.0045   16.6271  -19.6198 C   0  0  0  0  0  0  0  0  0  0  0  0
  -20.7206   15.5704  -20.1667 C   0  0  0  0  0  0  0  0  0  0  0  0
  -21.2449   14.5519  -19.3832 C   0  0  0  0  0  0  0  0  0  0  0  0
  -21.0634   14.5681  -18.0273 C   0  0  0  0  0  0  0  0  0  0  0  0
  -21.5661   13.5746  -17.1937 O   0  0  0  0  0  0  0  0  0  0  0  0
  -20.3480   15.6196  -17.4603 C   0  0  0  0  0  0  0  0  0  0  0  0
  -19.8320   16.6258  -18.2501 C   0  0  0  0  0  0  0  0  0  0  0  0
  -22.5144   13.7084  -16.8095 H   0  0  0  0  0  0  0  0  0  0  0  0
  -17.4651   13.5385  -22.7291 C   0  0  0  0  0  0  0  0  0  0  0  0
  -17.6777   12.3964  -23.2732 O   0  0  0  0  0  0  0  0  0  0  0  0
  -17.3581   13.5405  -21.3377 N   0  0  0  0  0  0  0  0  0  0  0  0
  -17.1809   14.5034  -20.9015 H   0  0  0  0  0  0  0  0  0  0  0  0
  -17.4527   12.4931  -20.4210 C   0  0  0  0  0  0  0  0  0  0  0  0
  -18.3123   12.5907  -19.3077 C   0  0  0  0  0  0  0  0  0  0  0  0
  -18.4351   11.5613  -18.4129 C   0  0  0  0  0  0  0  0  0  0  0  0
  -17.7348   10.3851  -18.5465 C   0  0  0  0  0  0  0  0  0  0  0  0
  -17.8900    9.3861  -17.6278 F   0  0  0  0  0  0  0  0  0  0  0  0
  -16.8928   10.2644  -19.6200 C   0  0  0  0  0  0  0  0  0  0  0  0
  -16.7672   11.3241  -20.5408 C   0  0  0  0  0  0  0  0  0  0  0  0
 14 15  1  0  0  0
 15 18  1  0  0  0
 18 19  1  0  0  0
 19 20  2  0  0  0
 20 21  1  0  0  0
 21 22  2  0  0  0
 22 23  1  0  0  0
 22 24  1  0  0  0
 24 25  2  0  0  0
 15 10  1  0  0  0
 10 11  2  0  0  0
 10 12  1  0  0  0
 12  1  1  0  0  0
  1  2  1  0  0  0
  2  3  1  0  0  0
  3  4  1  0  0  0
  4  5  1  0  0  0
  4  6  1  0  0  0
  6  7  1  0  0  0
  7  8  1  0  0  0
  8 27  1  0  0  0
 27 28  2  0  0  0
 27 29  1  0  0  0
 29 31  1  0  0  0
 31 32  2  0  0  0
 32 33  1  0  0  0
 33 34  2  0  0  0
 34 35  1  0  0  0
 34 36  1  0  0  0
 36 37  2  0  0  0
 25 19  1  0  0  0
  8  1  1  0  0  0
 37 31  1  0  0  0
  7  2  1  0  0  0
 14 16  1  0  0  0
 14 17  1  0  0  0
 23 26  1  0  0  0
 12 13  1  0  0  0
  5  9  1  0  0  0
 29 30  1  0  0  0
M  END
> <minimizedAffinity>
-8.69161

> <CNNscore>
0.3173958659

> <CNNaffinity>
6.3919520378

> <CNN_VS>
2.0287792683

> <CNNaffinity_variance>
0.2146192491

$$$$
[H]Oc1c([H])c([H])c(C([H])([H])[C@@]([H])(C(=O)N([H])[C@]2([H])[C@@]3([H])C([H])([H])[C@]([H])(O[H])C([H])([H])[C@@]3([H])[C@@]2([H])C(=O)N([H])c2c([H])c([H])c(F)c([H])c2[H])N([H])[H])c([H])c1[H]


 37 40  0  0  0  0  0  0  0  0999 V2000
  -16.4771   16.0562  -23.2183 C   0  0  0  0  0  0  0  0  0  0  0  0
  -16.5581   16.3652  -24.7261 C   0  0  0  0  0  0  0  0  0  0  0  0
  -15.2969   16.7922  -25.3753 C   0  0  0  0  0  0  0  0  0  0  0  0
  -14.6326   15.5554  -25.9431 C   0  0  0  0  0  0  0  0  0  0  0  0
  -14.9449   15.2983  -27.2502 O   0  0  0  0  0  0  0  0  0  0  0  0
  -15.2202   14.4853  -24.9836 C   0  0  0  0  0  0  0  0  0  0  0  0
  -16.6484   14.8215  -24.8643 C   0  0  0  0  0  0  0  0  0  0  0  0
  -17.3708   14.8848  -23.5896 C   0  0  0  0  0  0  0  0  0  0  0  0
  -15.5330   14.5105  -27.3050 H   0  0  0  0  0  0  0  0  0  0  0  0
  -16.9153   17.1651  -21.0148 C   0  0  0  0  0  0  0  0  0  0  0  0
  -16.0906   16.3950  -20.4906 O   0  0  0  0  0  0  0  0  0  0  0  0
  -17.1600   17.0421  -22.4164 N   0  0  0  0  0  0  0  0  0  0  0  0
  -17.8428   17.6790  -22.8532 H   0  0  0  0  0  0  0  0  0  0  0  0
  -17.7448   19.4001  -20.9531 N   0  0  0  0  0  0  0  0  0  0  0  0
  -17.6118   18.1710  -20.1973 C   0  0  0  0  0  0  0  0  0  0  0  0
  -18.4041   19.3048  -21.7493 H   0  0  0  0  0  0  0  0  0  0  0  0
  -16.8114   19.7793  -21.2360 H   0  0  0  0  0  0  0  0  0  0  0  0
  -19.0336   17.7126  -19.8642 C   0  0  0  0  0  0  0  0  0  0  0  0
  -19.2277   17.6418  -18.4097 C   0  0  0  0  0  0  0  0  0  0  0  0
  -19.4714   18.7710  -17.6390 C   0  0  0  0  0  0  0  0  0  0  0  0
  -19.6541   18.6997  -16.2651 C   0  0  0  0  0  0  0  0  0  0  0  0
  -19.5968   17.4904  -15.6281 C   0  0  0  0  0  0  0  0  0  0  0  0
  -19.7723   17.3596  -14.2545 O   0  0  0  0  0  0  0  0  0  0  0  0
  -19.3535   16.3466  -16.3841 C   0  0  0  0  0  0  0  0  0  0  0  0
  -19.1736   16.4308  -17.7491 C   0  0  0  0  0  0  0  0  0  0  0  0
  -18.9329   17.4233  -13.6578 H   0  0  0  0  0  0  0  0  0  0  0  0
  -17.5225   13.7855  -22.6779 C   0  0  0  0  0  0  0  0  0  0  0  0
  -17.5453   12.6053  -23.1800 O   0  0  0  0  0  0  0  0  0  0  0  0
  -17.6486   13.8602  -21.2901 N   0  0  0  0  0  0  0  0  0  0  0  0
  -17.6276   14.8541  -20.8894 H   0  0  0  0  0  0  0  0  0  0  0  0
  -17.8059   12.8510  -20.3398 C   0  0  0  0  0  0  0  0  0  0  0  0
  -16.9207   11.7541  -20.3064 C   0  0  0  0  0  0  0  0  0  0  0  0
  -17.0467   10.7684  -19.3640 C   0  0  0  0  0  0  0  0  0  0  0  0
  -18.0331   10.7907  -18.4059 C   0  0  0  0  0  0  0  0  0  0  0  0
  -18.1192    9.7841  -17.4864 F   0  0  0  0  0  0  0  0  0  0  0  0
  -18.9062   11.8459  -18.4160 C   0  0  0  0  0  0  0  0  0  0  0  0
  -18.7758   12.8602  -19.3859 C   0  0  0  0  0  0  0  0  0  0  0  0
 14 15  1  0  0  0
 15 18  1  0  0  0
 18 19  1  0  0  0
 19 20  2  0  0  0
 20 21  1  0  0  0
 21 22  2  0  0  0
 22 23  1  0  0  0
 22 24  1  0  0  0
 24 25  2  0  0  0
 15 10  1  0  0  0
 10 11  2  0  0  0
 10 12  1  0  0  0
 12  1  1  0  0  0
  1  2  1  0  0  0
  2  3  1  0  0  0
  3  4  1  0  0  0
  4  5  1  0  0  0
  4  6  1  0  0  0
  6  7  1  0  0  0
  7  8  1  0  0  0
  8 27  1  0  0  0
 27 28  2  0  0  0
 27 29  1  0  0  0
 29 31  1  0  0  0
 31 32  2  0  0  0
 32 33  1  0  0  0
 33 34  2  0  0  0
 34 35  1  0  0  0
 34 36  1  0  0  0
 36 37  2  0  0  0
 25 19  1  0  0  0
  8  1  1  0  0  0
 37 31  1  0  0  0
  7  2  1  0  0  0
 14 16  1  0  0  0
 14 17  1  0  0  0
 23 26  1  0  0  0
 12 13  1  0  0  0
  5  9  1  0  0  0
 29 30  1  0  0  0
M  END
> <minimizedAffinity>
-8.92612

> <CNNscore>
0.3105698228

> <CNNaffinity>
6.2896127701

> <CNN_VS>
1.9533638954

> <CNNaffinity_variance>
0.2141438723

$$$$
[H]Oc1c([H])c([H])c(C([H])([H])[C@@]([H])(C(=O)N([H])[C@]2([H])[C@@]3([H])C([H])([H])[C@]([H])(O[H])C([H])([H])[C@@]3([H])[C@@]2([H])C(=O)N([H])c2c([H])c([H])c(F)c([H])c2[H])N([H])[H])c([H])c1[H]


 37 40  0  0  0  0  0  0  0  0999 V2000
  -19.4745   16.7719  -19.8676 C   0  0  0  0  0  0  0  0  0  0  0  0
  -20.8387   17.3315  -19.4192 C   0  0  0  0  0  0  0  0  0  0  0  0
  -20.8016   18.4179  -18.4127 C   0  0  0  0  0  0  0  0  0  0  0  0
  -20.8150   19.7349  -19.1600 C   0  0  0  0  0  0  0  0  0  0  0  0
  -22.0628   20.2654  -19.3438 O   0  0  0  0  0  0  0  0  0  0  0  0
  -20.1750   19.2769  -20.4985 C   0  0  0  0  0  0  0  0  0  0  0  0
  -20.8335   18.0002  -20.8201 C   0  0  0  0  0  0  0  0  0  0  0  0
  -20.1164   16.7934  -21.2446 C   0  0  0  0  0  0  0  0  0  0  0  0
  -22.3213   20.1921  -20.2910 H   0  0  0  0  0  0  0  0  0  0  0  0
  -18.5477   15.1887  -18.1612 C   0  0  0  0  0  0  0  0  0  0  0  0
  -18.1397   16.1673  -17.5102 O   0  0  0  0  0  0  0  0  0  0  0  0
  -19.2428   15.4323  -19.3848 N   0  0  0  0  0  0  0  0  0  0  0  0
  -19.5819   14.6232  -19.9261 H   0  0  0  0  0  0  0  0  0  0  0  0
  -18.9159   13.6688  -16.3609 N   0  0  0  0  0  0  0  0  0  0  0  0
  -18.3118   13.8223  -17.6690 C   0  0  0  0  0  0  0  0  0  0  0  0
  -19.9532   13.6860  -16.4003 H   0  0  0  0  0  0  0  0  0  0  0  0
  -18.5198   14.3509  -15.6731 H   0  0  0  0  0  0  0  0  0  0  0  0
  -18.9843   12.7917  -18.5790 C   0  0  0  0  0  0  0  0  0  0  0  0
  -17.9826   12.0774  -19.3817 C   0  0  0  0  0  0  0  0  0  0  0  0
  -17.8000   12.3307  -20.7349 C   0  0  0  0  0  0  0  0  0  0  0  0
  -16.8525   11.6535  -21.4897 C   0  0  0  0  0  0  0  0  0  0  0  0
  -16.0621   10.7026  -20.9044 C   0  0  0  0  0  0  0  0  0  0  0  0
  -15.0971    9.9934  -21.6117 O   0  0  0  0  0  0  0  0  0  0  0  0
  -16.2305   10.4346  -19.5483 C   0  0  0  0  0  0  0  0  0  0  0  0
  -17.1758   11.1146  -18.8090 C   0  0  0  0  0  0  0  0  0  0  0  0
  -15.3861    9.1091  -22.0581 H   0  0  0  0  0  0  0  0  0  0  0  0
  -19.2933   16.6990  -22.4177 C   0  0  0  0  0  0  0  0  0  0  0  0
  -19.6001   17.4490  -23.4121 O   0  0  0  0  0  0  0  0  0  0  0  0
  -18.1833   15.8724  -22.5971 N   0  0  0  0  0  0  0  0  0  0  0  0
  -17.9429   15.2533  -21.7559 H   0  0  0  0  0  0  0  0  0  0  0  0
  -17.3402   15.7151  -23.6974 C   0  0  0  0  0  0  0  0  0  0  0  0
  -16.1447   16.4561  -23.7957 C   0  0  0  0  0  0  0  0  0  0  0  0
  -15.2944   16.2945  -24.8570 C   0  0  0  0  0  0  0  0  0  0  0  0
  -15.5540   15.4098  -25.8776 C   0  0  0  0  0  0  0  0  0  0  0  0
  -14.6756   15.2835  -26.9161 F   0  0  0  0  0  0  0  0  0  0  0  0
  -16.7089   14.6771  -25.8060 C   0  0  0  0  0  0  0  0  0  0  0  0
  -17.5835   14.8436  -24.7133 C   0  0  0  0  0  0  0  0  0  0  0  0
 14 15  1  0  0  0
 15 18  1  0  0  0
 18 19  1  0  0  0
 19 20  2  0  0  0
 20 21  1  0  0  0
 21 22  2  0  0  0
 22 23  1  0  0  0
 22 24  1  0  0  0
 24 25  2  0  0  0
 15 10  1  0  0  0
 10 11  2  0  0  0
 10 12  1  0  0  0
 12  1  1  0  0  0
  1  2  1  0  0  0
  2  3  1  0  0  0
  3  4  1  0  0  0
  4  5  1  0  0  0
  4  6  1  0  0  0
  6  7  1  0  0  0
  7  8  1  0  0  0
  8 27  1  0  0  0
 27 28  2  0  0  0
 27 29  1  0  0  0
 29 31  1  0  0  0
 31 32  2  0  0  0
 32 33  1  0  0  0
 33 34  2  0  0  0
 34 35  1  0  0  0
 34 36  1  0  0  0
 36 37  2  0  0  0
 25 19  1  0  0  0
  8  1  1  0  0  0
 37 31  1  0  0  0
  7  2  1  0  0  0
 14 16  1  0  0  0
 14 17  1  0  0  0
 23 26  1  0  0  0
 12 13  1  0  0  0
  5  9  1  0  0  0
 29 30  1  0  0  0
M  END
> <minimizedAffinity>
-9.19334

> <CNNscore>
0.2651072741

> <CNNaffinity>
6.4875931740

> <CNN_VS>
1.7199081182

> <CNNaffinity_variance>
0.2206679136

$$$$
[H]Oc1c([H])c([H])c(C([H])([H])[C@@]([H])(C(=O)N([H])[C@]2([H])[C@@]3([H])C([H])([H])[C@]([H])(O[H])C([H])([H])[C@@]3([H])[C@@]2([H])C(=O)N([H])c2c([H])c([H])c(F)c([H])c2[H])N([H])[H])c([H])c1[H]


 37 40  0  0  0  0  0  0  0  0999 V2000
  -16.8344   15.7611  -23.0726 C   0  0  0  0  0  0  0  0  0  0  0  0
  -16.8219   15.9885  -24.5969 C   0  0  0  0  0  0  0  0  0  0  0  0
  -15.6606   16.7323  -25.1381 C   0  0  0  0  0  0  0  0  0  0  0  0
  -14.6201   15.7149  -25.5570 C   0  0  0  0  0  0  0  0  0  0  0  0
  -14.6956   15.3405  -26.8708 O   0  0  0  0  0  0  0  0  0  0  0  0
  -14.9974   14.5528  -24.5987 C   0  0  0  0  0  0  0  0  0  0  0  0
  -16.4667   14.4781  -24.6480 C   0  0  0  0  0  0  0  0  0  0  0  0
  -17.3214   14.3752  -23.4607 C   0  0  0  0  0  0  0  0  0  0  0  0
  -15.0334   14.4180  -26.9370 H   0  0  0  0  0  0  0  0  0  0  0  0
  -17.8691   16.6875  -20.9873 C   0  0  0  0  0  0  0  0  0  0  0  0
  -16.9798   16.1238  -20.3245 O   0  0  0  0  0  0  0  0  0  0  0  0
  -17.8507   16.5398  -22.4077 N   0  0  0  0  0  0  0  0  0  0  0  0
  -18.5864   17.0059  -22.9592 H   0  0  0  0  0  0  0  0  0  0  0  0
  -18.3238   18.1662  -19.1725 N   0  0  0  0  0  0  0  0  0  0  0  0
  -18.9057   17.4820  -20.3095 C   0  0  0  0  0  0  0  0  0  0  0  0
  -17.6608   18.9125  -19.4576 H   0  0  0  0  0  0  0  0  0  0  0  0
  -17.9118   17.4905  -18.4879 H   0  0  0  0  0  0  0  0  0  0  0  0
  -19.4505   18.5711  -21.2367 C   0  0  0  0  0  0  0  0  0  0  0  0
  -20.7797   18.2035  -21.7427 C   0  0  0  0  0  0  0  0  0  0  0  0
  -21.1609   18.4323  -23.0583 C   0  0  0  0  0  0  0  0  0  0  0  0
  -22.4178   18.0836  -23.5324 C   0  0  0  0  0  0  0  0  0  0  0  0
  -23.3264   17.4949  -22.6961 C   0  0  0  0  0  0  0  0  0  0  0  0
  -24.5994   17.1246  -23.1166 O   0  0  0  0  0  0  0  0  0  0  0  0
  -22.9625   17.2573  -21.3732 C   0  0  0  0  0  0  0  0  0  0  0  0
  -21.7101   17.6086  -20.9142 C   0  0  0  0  0  0  0  0  0  0  0  0
  -25.3541   17.8224  -23.0255 H   0  0  0  0  0  0  0  0  0  0  0  0
  -17.2691   13.3060  -22.5032 C   0  0  0  0  0  0  0  0  0  0  0  0
  -16.6093   12.2559  -22.8313 O   0  0  0  0  0  0  0  0  0  0  0  0
  -17.8631   13.2832  -21.2406 N   0  0  0  0  0  0  0  0  0  0  0  0
  -18.4100   14.1687  -20.9848 H   0  0  0  0  0  0  0  0  0  0  0  0
  -17.8675   12.2908  -20.2601 C   0  0  0  0  0  0  0  0  0  0  0  0
  -18.7744   12.3524  -19.1823 C   0  0  0  0  0  0  0  0  0  0  0  0
  -18.8081   11.3731  -18.2257 C   0  0  0  0  0  0  0  0  0  0  0  0
  -17.9684   10.2843  -18.2599 C   0  0  0  0  0  0  0  0  0  0  0  0
  -18.0387    9.3327  -17.2824 F   0  0  0  0  0  0  0  0  0  0  0  0
  -17.0778   10.2001  -19.2970 C   0  0  0  0  0  0  0  0  0  0  0  0
  -17.0439   11.2082  -20.2815 C   0  0  0  0  0  0  0  0  0  0  0  0
 14 15  1  0  0  0
 15 18  1  0  0  0
 18 19  1  0  0  0
 19 20  2  0  0  0
 20 21  1  0  0  0
 21 22  2  0  0  0
 22 23  1  0  0  0
 22 24  1  0  0  0
 24 25  2  0  0  0
 15 10  1  0  0  0
 10 11  2  0  0  0
 10 12  1  0  0  0
 12  1  1  0  0  0
  1  2  1  0  0  0
  2  3  1  0  0  0
  3  4  1  0  0  0
  4  5  1  0  0  0
  4  6  1  0  0  0
  6  7  1  0  0  0
  7  8  1  0  0  0
  8 27  1  0  0  0
 27 28  2  0  0  0
 27 29  1  0  0  0
 29 31  1  0  0  0
 31 32  2  0  0  0
 32 33  1  0  0  0
 33 34  2  0  0  0
 34 35  1  0  0  0
 34 36  1  0  0  0
 36 37  2  0  0  0
 25 19  1  0  0  0
  8  1  1  0  0  0
 37 31  1  0  0  0
  7  2  1  0  0  0
 14 16  1  0  0  0
 14 17  1  0  0  0
 23 26  1  0  0  0
 12 13  1  0  0  0
  5  9  1  0  0  0
 29 30  1  0  0  0
M  END
> <minimizedAffinity>
-9.16256

> <CNNscore>
0.2646989822

> <CNNaffinity>
6.4105377197

> <CNN_VS>
1.6968628168

> <CNNaffinity_variance>
0.1574454755

$$$$
[H]c1nc2c(C([H])([H])[H])c([H])c(-c3c(C([H])(C([H])([H])[H])C([H])([H])[H])c4c([H])c(C5([H])C([H])([H])C([H])([H])N(C([H])([H])C([H])([H])S(=O)(=O)N6C([H])([H])C6([H])[H])C([H])([H])C5([H])[H])c([H])c([H])c4n3[H])c([H])n2n1


 37 42  0  0  0  0  0  0  0  0999 V2000
  -17.6796   11.8260  -20.4789 C   0  0  0  0  0  0  0  0  0  0  0  0
  -17.9165   12.9993  -21.1902 C   0  0  0  0  0  0  0  0  0  0  0  0
  -18.8155   13.7211  -20.4394 N   0  0  0  0  0  0  0  0  0  0  0  0
  -19.1256   13.0672  -19.3451 C   0  0  0  0  0  0  0  0  0  0  0  0
  -20.0105   13.4625  -18.3342 C   0  0  0  0  0  0  0  0  0  0  0  0
  -20.2013   12.6270  -17.2833 C   0  0  0  0  0  0  0  0  0  0  0  0
  -19.5289   11.4154  -17.2285 C   0  0  0  0  0  0  0  0  0  0  0  0
  -18.6619   11.0408  -18.2291 C   0  0  0  0  0  0  0  0  0  0  0  0
  -18.4442   11.8610  -19.3044 C   0  0  0  0  0  0  0  0  0  0  0  0
  -19.1631   14.6535  -20.7384 H   0  0  0  0  0  0  0  0  0  0  0  0
  -17.4606   13.4761  -22.4862 C   0  0  0  0  0  0  0  0  0  0  0  0
  -16.6010   14.4905  -22.7044 C   0  0  0  0  0  0  0  0  0  0  0  0
  -16.1972   14.7885  -24.0105 C   0  0  0  0  0  0  0  0  0  0  0  0
  -15.2356   15.9224  -24.2528 C   0  0  0  0  0  0  0  0  0  0  0  0
  -16.6731   14.0570  -25.0527 C   0  0  0  0  0  0  0  0  0  0  0  0
  -16.4405   14.1435  -26.3855 N   0  0  0  0  0  0  0  0  0  0  0  0
  -17.1743   13.1665  -26.9697 C   0  0  0  0  0  0  0  0  0  0  0  0
  -17.8437   12.4910  -26.0365 N   0  0  0  0  0  0  0  0  0  0  0  0
  -17.5218   13.0526  -24.8746 N   0  0  0  0  0  0  0  0  0  0  0  0
  -17.9002   12.7758  -23.6237 C   0  0  0  0  0  0  0  0  0  0  0  0
  -19.7951   10.5560  -16.0498 C   0  0  0  0  0  0  0  0  0  0  0  0
  -21.2773   10.2048  -16.0855 C   0  0  0  0  0  0  0  0  0  0  0  0
  -21.5525    9.5357  -14.7304 C   0  0  0  0  0  0  0  0  0  0  0  0
  -20.8771    8.2622  -14.7554 N   0  0  0  0  0  0  0  0  0  0  0  0
  -19.4454    8.3866  -14.9590 C   0  0  0  0  0  0  0  0  0  0  0  0
  -19.0562    9.2376  -16.1176 C   0  0  0  0  0  0  0  0  0  0  0  0
  -21.0557    7.4837  -13.5391 C   0  0  0  0  0  0  0  0  0  0  0  0
  -22.2848    6.6449  -13.6830 C   0  0  0  0  0  0  0  0  0  0  0  0
  -22.1709    5.3292  -14.8363 S   0  0  0  0  0  0  0  0  0  0  0  0
  -22.7849    5.8313  -16.1333 O   0  0  0  0  0  0  0  0  0  0  0  0
  -23.0470    4.1571  -14.4215 O   0  0  0  0  0  0  0  0  0  0  0  0
  -20.6060    4.8095  -15.1864 N   0  0  0  0  0  0  0  0  0  0  0  0
  -19.8713    3.9824  -14.1801 C   0  0  0  0  0  0  0  0  0  0  0  0
  -20.3674    3.4125  -15.4292 C   0  0  0  0  0  0  0  0  0  0  0  0
  -15.5555   11.0768  -21.6296 C   0  0  0  0  0  0  0  0  0  0  0  0
  -16.8448   10.7063  -20.9187 C   0  0  0  0  0  0  0  0  0  0  0  0
  -16.4836    9.9140  -19.6473 C   0  0  0  0  0  0  0  0  0  0  0  0
 35 36  1  0  0  0
 36 37  1  0  0  0
 36  1  1  0  0  0
  1  2  2  0  0  0
  2  3  1  0  0  0
  3  4  1  0  0  0
  4  5  2  0  0  0
  5  6  1  0  0  0
  6  7  2  0  0  0
  7  8  1  0  0  0
  8  9  2  0  0  0
  7 21  1  0  0  0
 21 22  1  0  0  0
 22 23  1  0  0  0
 23 24  1  0  0  0
 24 27  1  0  0  0
 27 28  1  0  0  0
 28 29  1  0  0  0
 29 30  2  0  0  0
 29 31  2  0  0  0
 29 32  1  0  0  0
 32 33  1  0  0  0
 33 34  1  0  0  0
 24 25  1  0  0  0
 25 26  1  0  0  0
  2 11  1  0  0  0
 11 12  1  0  0  0
 12 13  2  0  0  0
 13 14  1  0  0  0
 13 15  1  0  0  0
 15 16  2  0  0  0
 16 17  1  0  0  0
 17 18  2  0  0  0
 18 19  1  0  0  0
 19 20  1  0  0  0
  9  1  1  0  0  0
 26 21  1  0  0  0
 20 11  2  0  0  0
  9  4  1  0  0  0
 34 32  1  0  0  0
 19 15  1  0  0  0
  3 10  1  0  0  0
M  END
> <minimizedAffinity>
-9.05837

> <CNNscore>
0.6392036676

> <CNNaffinity>
7.5821256638

> <CNN_VS>
4.8465223312

> <CNNaffinity_variance>
0.0796688870

$$$$
[H]c1nc2c(C([H])([H])[H])c([H])c(-c3c(C([H])(C([H])([H])[H])C([H])([H])[H])c4c([H])c(C5([H])C([H])([H])C([H])([H])N(C([H])([H])C([H])([H])S(=O)(=O)N6C([H])([H])C6([H])[H])C([H])([H])C5([H])[H])c([H])c([H])c4n3[H])c([H])n2n1


 37 42  0  0  0  0  0  0  0  0999 V2000
  -18.4241   13.1681  -20.8855 C   0  0  0  0  0  0  0  0  0  0  0  0
  -17.5278   12.6741  -21.8296 C   0  0  0  0  0  0  0  0  0  0  0  0
  -17.0397   11.4983  -21.3078 N   0  0  0  0  0  0  0  0  0  0  0  0
  -17.5766   11.2617  -20.1344 C   0  0  0  0  0  0  0  0  0  0  0  0
  -17.3315   10.1755  -19.2850 C   0  0  0  0  0  0  0  0  0  0  0  0
  -17.9874   10.1254  -18.0991 C   0  0  0  0  0  0  0  0  0  0  0  0
  -18.8743   11.1337  -17.7530 C   0  0  0  0  0  0  0  0  0  0  0  0
  -19.1054   12.1944  -18.5983 C   0  0  0  0  0  0  0  0  0  0  0  0
  -18.4614   12.2762  -19.8046 C   0  0  0  0  0  0  0  0  0  0  0  0
  -16.3491   10.9120  -21.8166 H   0  0  0  0  0  0  0  0  0  0  0  0
  -17.0421   13.1969  -23.0966 C   0  0  0  0  0  0  0  0  0  0  0  0
  -17.4152   12.7847  -24.3239 C   0  0  0  0  0  0  0  0  0  0  0  0
  -16.9136   13.4357  -25.4564 C   0  0  0  0  0  0  0  0  0  0  0  0
  -17.3321   12.9741  -26.8278 C   0  0  0  0  0  0  0  0  0  0  0  0
  -16.0526   14.4781  -25.3156 C   0  0  0  0  0  0  0  0  0  0  0  0
  -15.4370   15.2597  -26.2366 N   0  0  0  0  0  0  0  0  0  0  0  0
  -14.6848   16.1498  -25.5468 C   0  0  0  0  0  0  0  0  0  0  0  0
  -14.8232   15.9343  -24.2391 N   0  0  0  0  0  0  0  0  0  0  0  0
  -15.6627   14.9092  -24.1227 N   0  0  0  0  0  0  0  0  0  0  0  0
  -16.1482   14.2815  -23.0482 C   0  0  0  0  0  0  0  0  0  0  0  0
  -19.5478   11.0090  -16.4379 C   0  0  0  0  0  0  0  0  0  0  0  0
  -20.8545   11.7864  -16.5359 C   0  0  0  0  0  0  0  0  0  0  0  0
  -21.3859   11.8394  -15.0956 C   0  0  0  0  0  0  0  0  0  0  0  0
  -21.7868   10.4971  -14.7550 N   0  0  0  0  0  0  0  0  0  0  0  0
  -20.6959    9.5436  -14.8401 C   0  0  0  0  0  0  0  0  0  0  0  0
  -19.9384    9.5820  -16.1218 C   0  0  0  0  0  0  0  0  0  0  0  0
  -22.3380   10.3761  -13.4137 C   0  0  0  0  0  0  0  0  0  0  0  0
  -23.4050   11.4086  -13.2390 C   0  0  0  0  0  0  0  0  0  0  0  0
  -25.0030   10.7888  -12.8701 S   0  0  0  0  0  0  0  0  0  0  0  0
  -25.4135   11.4034  -11.5415 O   0  0  0  0  0  0  0  0  0  0  0  0
  -24.9649    9.2910  -12.6083 O   0  0  0  0  0  0  0  0  0  0  0  0
  -26.2015   11.1676  -13.9934 N   0  0  0  0  0  0  0  0  0  0  0  0
  -26.2458   10.4230  -15.2897 C   0  0  0  0  0  0  0  0  0  0  0  0
  -27.2497   10.2174  -14.2500 C   0  0  0  0  0  0  0  0  0  0  0  0
  -20.5131   14.4748  -20.3146 C   0  0  0  0  0  0  0  0  0  0  0  0
  -19.1408   14.4426  -20.9631 C   0  0  0  0  0  0  0  0  0  0  0  0
  -18.2489   15.4811  -20.2554 C   0  0  0  0  0  0  0  0  0  0  0  0
 35 36  1  0  0  0
 36 37  1  0  0  0
 36  1  1  0  0  0
  1  2  2  0  0  0
  2  3  1  0  0  0
  3  4  1  0  0  0
  4  5  2  0  0  0
  5  6  1  0  0  0
  6  7  2  0  0  0
  7  8  1  0  0  0
  8  9  2  0  0  0
  7 21  1  0  0  0
 21 22  1  0  0  0
 22 23  1  0  0  0
 23 24  1  0  0  0
 24 27  1  0  0  0
 27 28  1  0  0  0
 28 29  1  0  0  0
 29 30  2  0  0  0
 29 31  2  0  0  0
 29 32  1  0  0  0
 32 33  1  0  0  0
 33 34  1  0  0  0
 24 25  1  0  0  0
 25 26  1  0  0  0
  2 11  1  0  0  0
 11 12  1  0  0  0
 12 13  2  0  0  0
 13 14  1  0  0  0
 13 15  1  0  0  0
 15 16  2  0  0  0
 16 17  1  0  0  0
 17 18  2  0  0  0
 18 19  1  0  0  0
 19 20  1  0  0  0
  9  1  1  0  0  0
 26 21  1  0  0  0
 20 11  2  0  0  0
  9  4  1  0  0  0
 34 32  1  0  0  0
 19 15  1  0  0  0
  3 10  1  0  0  0
M  END
> <minimizedAffinity>
-8.87641

> <CNNscore>
0.5416907668

> <CNNaffinity>
7.4394311905

> <CNN_VS>
4.0298709869

> <CNNaffinity_variance>
0.1643956453

$$$$
[H]c1nc2c(C([H])([H])[H])c([H])c(-c3c(C([H])(C([H])([H])[H])C([H])([H])[H])c4c([H])c(C5([H])C([H])([H])C([H])([H])N(C([H])([H])C([H])([H])S(=O)(=O)N6C([H])([H])C6([H])[H])C([H])([H])C5([H])[H])c([H])c([H])c4n3[H])c([H])n2n1


 37 42  0  0  0  0  0  0  0  0999 V2000
  -18.7567   13.0517  -20.4234 C   0  0  0  0  0  0  0  0  0  0  0  0
  -17.7985   12.7140  -21.3755 C   0  0  0  0  0  0  0  0  0  0  0  0
  -17.2263   11.5425  -20.9361 N   0  0  0  0  0  0  0  0  0  0  0  0
  -17.7706   11.1649  -19.8038 C   0  0  0  0  0  0  0  0  0  0  0  0
  -17.4561   10.0349  -19.0385 C   0  0  0  0  0  0  0  0  0  0  0  0
  -18.1350    9.8317  -17.8823 C   0  0  0  0  0  0  0  0  0  0  0  0
  -19.1122   10.7312  -17.4836 C   0  0  0  0  0  0  0  0  0  0  0  0
  -19.4107   11.8368  -18.2464 C   0  0  0  0  0  0  0  0  0  0  0  0
  -18.7457   12.0721  -19.4207 C   0  0  0  0  0  0  0  0  0  0  0  0
  -16.4760   11.0596  -21.4688 H   0  0  0  0  0  0  0  0  0  0  0  0
  -17.3269   13.3795  -22.5794 C   0  0  0  0  0  0  0  0  0  0  0  0
  -17.4507   12.9245  -23.8415 C   0  0  0  0  0  0  0  0  0  0  0  0
  -17.0105   13.7139  -24.9096 C   0  0  0  0  0  0  0  0  0  0  0  0
  -17.1502   13.2041  -26.3202 C   0  0  0  0  0  0  0  0  0  0  0  0
  -16.4594   14.9335  -24.6715 C   0  0  0  0  0  0  0  0  0  0  0  0
  -15.9651   15.8715  -25.5165 N   0  0  0  0  0  0  0  0  0  0  0  0
  -15.5391   16.8999  -24.7452 C   0  0  0  0  0  0  0  0  0  0  0  0
  -15.7582   16.6173  -23.4616 N   0  0  0  0  0  0  0  0  0  0  0  0
  -16.3206   15.4121  -23.4417 N   0  0  0  0  0  0  0  0  0  0  0  0
  -16.7449   14.6509  -22.4293 C   0  0  0  0  0  0  0  0  0  0  0  0
  -19.8056   10.4417  -16.2053 C   0  0  0  0  0  0  0  0  0  0  0  0
  -19.1814    9.1707  -15.6427 C   0  0  0  0  0  0  0  0  0  0  0  0
  -20.0892    8.7773  -14.4676 C   0  0  0  0  0  0  0  0  0  0  0  0
  -19.8848    9.7677  -13.4400 N   0  0  0  0  0  0  0  0  0  0  0  0
  -20.2079   11.1125  -13.8800 C   0  0  0  0  0  0  0  0  0  0  0  0
  -19.5696   11.5139  -15.1644 C   0  0  0  0  0  0  0  0  0  0  0  0
  -20.6659    9.5279  -12.2358 C   0  0  0  0  0  0  0  0  0  0  0  0
  -21.7950   10.5068  -12.1941 C   0  0  0  0  0  0  0  0  0  0  0  0
  -22.0625   11.2861  -10.6464 S   0  0  0  0  0  0  0  0  0  0  0  0
  -20.8715   10.9349   -9.7692 O   0  0  0  0  0  0  0  0  0  0  0  0
  -23.2619   10.6862   -9.9288 O   0  0  0  0  0  0  0  0  0  0  0  0
  -22.1759   12.9673  -10.6945 N   0  0  0  0  0  0  0  0  0  0  0  0
  -23.2976   13.5999  -11.4550 C   0  0  0  0  0  0  0  0  0  0  0  0
  -23.2503   13.6194   -9.9961 C   0  0  0  0  0  0  0  0  0  0  0  0
  -21.0130   14.0964  -19.9596 C   0  0  0  0  0  0  0  0  0  0  0  0
  -19.5761   14.2653  -20.4196 C   0  0  0  0  0  0  0  0  0  0  0  0
  -18.8774   15.2528  -19.4649 C   0  0  0  0  0  0  0  0  0  0  0  0
 35 36  1  0  0  0
 36 37  1  0  0  0
 36  1  1  0  0  0
  1  2  2  0  0  0
  2  3  1  0  0  0
  3  4  1  0  0  0
  4  5  2  0  0  0
  5  6  1  0  0  0
  6  7  2  0  0  0
  7  8  1  0  0  0
  8  9  2  0  0  0
  7 21  1  0  0  0
 21 22  1  0  0  0
 22 23  1  0  0  0
 23 24  1  0  0  0
 24 27  1  0  0  0
 27 28  1  0  0  0
 28 29  1  0  0  0
 29 30  2  0  0  0
 29 31  2  0  0  0
 29 32  1  0  0  0
 32 33  1  0  0  0
 33 34  1  0  0  0
 24 25  1  0  0  0
 25 26  1  0  0  0
  2 11  1  0  0  0
 11 12  1  0  0  0
 12 13  2  0  0  0
 13 14  1  0  0  0
 13 15  1  0  0  0
 15 16  2  0  0  0
 16 17  1  0  0  0
 17 18  2  0  0  0
 18 19  1  0  0  0
 19 20  1  0  0  0
  9  1  1  0  0  0
 26 21  1  0  0  0
 20 11  2  0  0  0
  9  4  1  0  0  0
 34 32  1  0  0  0
 19 15  1  0  0  0
  3 10  1  0  0  0
M  END
> <minimizedAffinity>
-8.74677

> <CNNscore>
0.5163992047

> <CNNaffinity>
7.3287758827

> <CNN_VS>
3.7845740318

> <CNNaffinity_variance>
0.2476348877

$$$$
[H]c1nc2c(C([H])([H])[H])c([H])c(-c3c(C([H])(C([H])([H])[H])C([H])([H])[H])c4c([H])c(C5([H])C([H])([H])C([H])([H])N(C([H])([H])C([H])([H])S(=O)(=O)N6C([H])([H])C6([H])[H])C([H])([H])C5([H])[H])c([H])c([H])c4n3[H])c([H])n2n1


 37 42  0  0  0  0  0  0  0  0999 V2000
  -18.4642   13.0909  -20.8240 C   0  0  0  0  0  0  0  0  0  0  0  0
  -17.5661   12.6243  -21.7804 C   0  0  0  0  0  0  0  0  0  0  0  0
  -17.0580   11.4482  -21.2792 N   0  0  0  0  0  0  0  0  0  0  0  0
  -17.5847   11.1860  -20.1066 C   0  0  0  0  0  0  0  0  0  0  0  0
  -17.3190   10.0909  -19.2751 C   0  0  0  0  0  0  0  0  0  0  0  0
  -17.9673   10.0133  -18.0865 C   0  0  0  0  0  0  0  0  0  0  0  0
  -18.8668   11.0031  -17.7203 C   0  0  0  0  0  0  0  0  0  0  0  0
  -19.1182   12.0730  -18.5482 C   0  0  0  0  0  0  0  0  0  0  0  0
  -18.4823   12.1823  -19.7566 C   0  0  0  0  0  0  0  0  0  0  0  0
  -16.3617   10.8798  -21.8006 H   0  0  0  0  0  0  0  0  0  0  0  0
  -17.0952   13.1733  -23.0420 C   0  0  0  0  0  0  0  0  0  0  0  0
  -17.3935   12.7118  -24.2722 C   0  0  0  0  0  0  0  0  0  0  0  0
  -16.9226   13.3915  -25.4009 C   0  0  0  0  0  0  0  0  0  0  0  0
  -17.2573   12.8747  -26.7756 C   0  0  0  0  0  0  0  0  0  0  0  0
  -16.1664   14.5115  -25.2535 C   0  0  0  0  0  0  0  0  0  0  0  0
  -15.6002   15.3348  -26.1699 N   0  0  0  0  0  0  0  0  0  0  0  0
  -14.9538   16.3003  -25.4742 C   0  0  0  0  0  0  0  0  0  0  0  0
  -15.1087   16.0902  -24.1676 N   0  0  0  0  0  0  0  0  0  0  0  0
  -15.8523   14.9930  -24.0576 N   0  0  0  0  0  0  0  0  0  0  0  0
  -16.3077   14.3371  -22.9867 C   0  0  0  0  0  0  0  0  0  0  0  0
  -19.5309   10.8488  -16.4036 C   0  0  0  0  0  0  0  0  0  0  0  0
  -20.8550   11.5983  -16.4867 C   0  0  0  0  0  0  0  0  0  0  0  0
  -21.3803   11.6233  -15.0434 C   0  0  0  0  0  0  0  0  0  0  0  0
  -21.7499   10.2687  -14.7162 N   0  0  0  0  0  0  0  0  0  0  0  0
  -20.6387    9.3405  -14.8174 C   0  0  0  0  0  0  0  0  0  0  0  0
  -19.8885    9.4101  -16.1020 C   0  0  0  0  0  0  0  0  0  0  0  0
  -22.2917   10.1204  -13.3739 C   0  0  0  0  0  0  0  0  0  0  0  0
  -21.8528    8.8018  -12.8228 C   0  0  0  0  0  0  0  0  0  0  0  0
  -23.1059    7.5825  -12.6925 S   0  0  0  0  0  0  0  0  0  0  0  0
  -23.9585    7.6971  -13.9460 O   0  0  0  0  0  0  0  0  0  0  0  0
  -24.0577    7.8925  -11.5474 O   0  0  0  0  0  0  0  0  0  0  0  0
  -22.5579    5.9911  -12.5983 N   0  0  0  0  0  0  0  0  0  0  0  0
  -22.3084    5.2311  -13.8619 C   0  0  0  0  0  0  0  0  0  0  0  0
  -21.2143    5.6852  -13.0089 C   0  0  0  0  0  0  0  0  0  0  0  0
  -20.5768   14.3527  -20.2393 C   0  0  0  0  0  0  0  0  0  0  0  0
  -19.1997   14.3558  -20.8785 C   0  0  0  0  0  0  0  0  0  0  0  0
  -18.3287   15.3917  -20.1415 C   0  0  0  0  0  0  0  0  0  0  0  0
 35 36  1  0  0  0
 36 37  1  0  0  0
 36  1  1  0  0  0
  1  2  2  0  0  0
  2  3  1  0  0  0
  3  4  1  0  0  0
  4  5  2  0  0  0
  5  6  1  0  0  0
  6  7  2  0  0  0
  7  8  1  0  0  0
  8  9  2  0  0  0
  7 21  1  0  0  0
 21 22  1  0  0  0
 22 23  1  0  0  0
 23 24  1  0  0  0
 24 27  1  0  0  0
 27 28  1  0  0  0
 28 29  1  0  0  0
 29 30  2  0  0  0
 29 31  2  0  0  0
 29 32  1  0  0  0
 32 33  1  0  0  0
 33 34  1  0  0  0
 24 25  1  0  0  0
 25 26  1  0  0  0
  2 11  1  0  0  0
 11 12  1  0  0  0
 12 13  2  0  0  0
 13 14  1  0  0  0
 13 15  1  0  0  0
 15 16  2  0  0  0
 16 17  1  0  0  0
 17 18  2  0  0  0
 18 19  1  0  0  0
 19 20  1  0  0  0
  9  1  1  0  0  0
 26 21  1  0  0  0
 20 11  2  0  0  0
  9  4  1  0  0  0
 34 32  1  0  0  0
 19 15  1  0  0  0
  3 10  1  0  0  0
M  END
> <minimizedAffinity>
-9.08180

> <CNNscore>
0.5019257069

> <CNNaffinity>
7.4321556091

> <CNN_VS>
3.7303900719

> <CNNaffinity_variance>
0.1730643213

$$$$
[H]c1nc2c(C([H])([H])[H])c([H])c(-c3c(C([H])(C([H])([H])[H])C([H])([H])[H])c4c([H])c(C5([H])C([H])([H])C([H])([H])N(C([H])([H])C([H])([H])S(=O)(=O)N6C([H])([H])C6([H])[H])C([H])([H])C5([H])[H])c([H])c([H])c4n3[H])c([H])n2n1


 37 42  0  0  0  0  0  0  0  0999 V2000
  -18.4771   13.0975  -20.7127 C   0  0  0  0  0  0  0  0  0  0  0  0
  -17.5898   12.6756  -21.6994 C   0  0  0  0  0  0  0  0  0  0  0  0
  -17.0696   11.4823  -21.2541 N   0  0  0  0  0  0  0  0  0  0  0  0
  -17.5794   11.1691  -20.0865 C   0  0  0  0  0  0  0  0  0  0  0  0
  -17.2975   10.0419  -19.3047 C   0  0  0  0  0  0  0  0  0  0  0  0
  -17.9295    9.9119  -18.1120 C   0  0  0  0  0  0  0  0  0  0  0  0
  -18.8286   10.8811  -17.6932 C   0  0  0  0  0  0  0  0  0  0  0  0
  -19.0959   11.9830  -18.4726 C   0  0  0  0  0  0  0  0  0  0  0  0
  -18.4767   12.1455  -19.6837 C   0  0  0  0  0  0  0  0  0  0  0  0
  -16.3778   10.9396  -21.8078 H   0  0  0  0  0  0  0  0  0  0  0  0
  -17.1383   13.2787  -22.9432 C   0  0  0  0  0  0  0  0  0  0  0  0
  -17.3919   12.8252  -24.1863 C   0  0  0  0  0  0  0  0  0  0  0  0
  -16.9503   13.5561  -25.2947 C   0  0  0  0  0  0  0  0  0  0  0  0
  -17.2350   13.0480  -26.6839 C   0  0  0  0  0  0  0  0  0  0  0  0
  -16.2672   14.7175  -25.1147 C   0  0  0  0  0  0  0  0  0  0  0  0
  -15.7421   15.5931  -26.0067 N   0  0  0  0  0  0  0  0  0  0  0  0
  -15.1657   16.5823  -25.2831 C   0  0  0  0  0  0  0  0  0  0  0  0
  -15.3235   16.3360  -23.9832 N   0  0  0  0  0  0  0  0  0  0  0  0
  -15.9987   15.1927  -23.9053 N   0  0  0  0  0  0  0  0  0  0  0  0
  -16.4256   14.4878  -22.8539 C   0  0  0  0  0  0  0  0  0  0  0  0
  -19.4743   10.6690  -16.3754 C   0  0  0  0  0  0  0  0  0  0  0  0
  -20.8556   11.3074  -16.4530 C   0  0  0  0  0  0  0  0  0  0  0  0
  -21.3774   11.2851  -15.0083 C   0  0  0  0  0  0  0  0  0  0  0  0
  -21.6337    9.9038  -14.6845 N   0  0  0  0  0  0  0  0  0  0  0  0
  -20.4503    9.0702  -14.7911 C   0  0  0  0  0  0  0  0  0  0  0  0
  -19.7117    9.2049  -16.0774 C   0  0  0  0  0  0  0  0  0  0  0  0
  -22.1579    9.7076  -13.3413 C   0  0  0  0  0  0  0  0  0  0  0  0
  -21.1187    9.0179  -12.5171 C   0  0  0  0  0  0  0  0  0  0  0  0
  -20.6909    9.8176  -11.0166 S   0  0  0  0  0  0  0  0  0  0  0  0
  -21.7140    9.3789   -9.9812 O   0  0  0  0  0  0  0  0  0  0  0  0
  -20.8718   11.3239  -11.1254 O   0  0  0  0  0  0  0  0  0  0  0  0
  -19.1641    9.4427  -10.4084 N   0  0  0  0  0  0  0  0  0  0  0  0
  -18.2863   10.5476   -9.9132 C   0  0  0  0  0  0  0  0  0  0  0  0
  -18.9117    9.5947   -9.0010 C   0  0  0  0  0  0  0  0  0  0  0  0
  -20.6289   14.2995  -20.1447 C   0  0  0  0  0  0  0  0  0  0  0  0
  -19.2191   14.3599  -20.7049 C   0  0  0  0  0  0  0  0  0  0  0  0
  -18.3981   15.3358  -19.8398 C   0  0  0  0  0  0  0  0  0  0  0  0
 35 36  1  0  0  0
 36 37  1  0  0  0
 36  1  1  0  0  0
  1  2  2  0  0  0
  2  3  1  0  0  0
  3  4  1  0  0  0
  4  5  2  0  0  0
  5  6  1  0  0  0
  6  7  2  0  0  0
  7  8  1  0  0  0
  8  9  2  0  0  0
  7 21  1  0  0  0
 21 22  1  0  0  0
 22 23  1  0  0  0
 23 24  1  0  0  0
 24 27  1  0  0  0
 27 28  1  0  0  0
 28 29  1  0  0  0
 29 30  2  0  0  0
 29 31  2  0  0  0
 29 32  1  0  0  0
 32 33  1  0  0  0
 33 34  1  0  0  0
 24 25  1  0  0  0
 25 26  1  0  0  0
  2 11  1  0  0  0
 11 12  1  0  0  0
 12 13  2  0  0  0
 13 14  1  0  0  0
 13 15  1  0  0  0
 15 16  2  0  0  0
 16 17  1  0  0  0
 17 18  2  0  0  0
 18 19  1  0  0  0
 19 20  1  0  0  0
  9  1  1  0  0  0
 26 21  1  0  0  0
 20 11  2  0  0  0
  9  4  1  0  0  0
 34 32  1  0  0  0
 19 15  1  0  0  0
  3 10  1  0  0  0
M  END
> <minimizedAffinity>
-9.50625

> <CNNscore>
0.5006117225

> <CNNaffinity>
7.4947233200

> <CNN_VS>
3.7519464493

> <CNNaffinity_variance>
0.1516490281

$$$$
[H]c1nc2c(C([H])([H])[H])c([H])c(-c3c(C([H])(C([H])([H])[H])C([H])([H])[H])c4c([H])c(C5([H])C([H])([H])C([H])([H])N(C([H])([H])C([H])([H])S(=O)(=O)N6C([H])([H])C6([H])[H])C([H])([H])C5([H])[H])c([H])c([H])c4n3[H])c([H])n2n1


 37 42  0  0  0  0  0  0  0  0999 V2000
  -18.2996   13.3491  -21.0335 C   0  0  0  0  0  0  0  0  0  0  0  0
  -17.4750   13.1322  -22.1342 C   0  0  0  0  0  0  0  0  0  0  0  0
  -16.8293   11.9414  -21.8935 N   0  0  0  0  0  0  0  0  0  0  0  0
  -17.2079   11.4414  -20.7412 C   0  0  0  0  0  0  0  0  0  0  0  0
  -16.7738   10.2532  -20.1404 C   0  0  0  0  0  0  0  0  0  0  0  0
  -17.2852    9.9205  -18.9293 C   0  0  0  0  0  0  0  0  0  0  0  0
  -18.2131   10.7487  -18.3161 C   0  0  0  0  0  0  0  0  0  0  0  0
  -18.6307   11.9129  -18.9191 C   0  0  0  0  0  0  0  0  0  0  0  0
  -18.1361   12.2788  -20.1430 C   0  0  0  0  0  0  0  0  0  0  0  0
  -16.1511   11.5339  -22.5671 H   0  0  0  0  0  0  0  0  0  0  0  0
  -17.1829   13.9234  -23.3189 C   0  0  0  0  0  0  0  0  0  0  0  0
  -16.7944   15.2134  -23.3393 C   0  0  0  0  0  0  0  0  0  0  0  0
  -16.4773   15.8230  -24.5582 C   0  0  0  0  0  0  0  0  0  0  0  0
  -16.0426   17.2651  -24.5793 C   0  0  0  0  0  0  0  0  0  0  0  0
  -16.5634   15.1145  -25.7151 C   0  0  0  0  0  0  0  0  0  0  0  0
  -16.3162   15.4682  -27.0004 N   0  0  0  0  0  0  0  0  0  0  0  0
  -16.5628   14.3722  -27.7567 C   0  0  0  0  0  0  0  0  0  0  0  0
  -16.9512   13.3663  -26.9738 N   0  0  0  0  0  0  0  0  0  0  0  0
  -16.9438   13.8434  -25.7322 N   0  0  0  0  0  0  0  0  0  0  0  0
  -17.2433   13.2707  -24.5631 C   0  0  0  0  0  0  0  0  0  0  0  0
  -18.7209   10.3180  -16.9912 C   0  0  0  0  0  0  0  0  0  0  0  0
  -20.1040   10.9355  -16.8267 C   0  0  0  0  0  0  0  0  0  0  0  0
  -20.4759   10.6743  -15.3593 C   0  0  0  0  0  0  0  0  0  0  0  0
  -20.6953    9.2546  -15.2367 N   0  0  0  0  0  0  0  0  0  0  0  0
  -19.5274    8.4702  -15.5935 C   0  0  0  0  0  0  0  0  0  0  0  0
  -18.9240    8.8211  -16.9091 C   0  0  0  0  0  0  0  0  0  0  0  0
  -21.0796    8.8379  -13.8965 C   0  0  0  0  0  0  0  0  0  0  0  0
  -22.4036    8.1474  -13.9705 C   0  0  0  0  0  0  0  0  0  0  0  0
  -22.3485    6.3969  -13.8882 S   0  0  0  0  0  0  0  0  0  0  0  0
  -23.3663    5.9769  -12.8400 O   0  0  0  0  0  0  0  0  0  0  0  0
  -21.0122    5.9138  -13.3455 O   0  0  0  0  0  0  0  0  0  0  0  0
  -22.7365    5.5943  -15.3189 N   0  0  0  0  0  0  0  0  0  0  0  0
  -21.7373    5.5652  -16.4313 C   0  0  0  0  0  0  0  0  0  0  0  0
  -22.0511    4.3739  -15.6481 C   0  0  0  0  0  0  0  0  0  0  0  0
  -20.4818   14.2795  -20.1561 C   0  0  0  0  0  0  0  0  0  0  0  0
  -19.1303   14.5321  -20.7999 C   0  0  0  0  0  0  0  0  0  0  0  0
  -18.3169   15.4514  -19.8682 C   0  0  0  0  0  0  0  0  0  0  0  0
 35 36  1  0  0  0
 36 37  1  0  0  0
 36  1  1  0  0  0
  1  2  2  0  0  0
  2  3  1  0  0  0
  3  4  1  0  0  0
  4  5  2  0  0  0
  5  6  1  0  0  0
  6  7  2  0  0  0
  7  8  1  0  0  0
  8  9  2  0  0  0
  7 21  1  0  0  0
 21 22  1  0  0  0
 22 23  1  0  0  0
 23 24  1  0  0  0
 24 27  1  0  0  0
 27 28  1  0  0  0
 28 29  1  0  0  0
 29 30  2  0  0  0
 29 31  2  0  0  0
 29 32  1  0  0  0
 32 33  1  0  0  0
 33 34  1  0  0  0
 24 25  1  0  0  0
 25 26  1  0  0  0
  2 11  1  0  0  0
 11 12  1  0  0  0
 12 13  2  0  0  0
 13 14  1  0  0  0
 13 15  1  0  0  0
 15 16  2  0  0  0
 16 17  1  0  0  0
 17 18  2  0  0  0
 18 19  1  0  0  0
 19 20  1  0  0  0
  9  1  1  0  0  0
 26 21  1  0  0  0
 20 11  2  0  0  0
  9  4  1  0  0  0
 34 32  1  0  0  0
 19 15  1  0  0  0
  3 10  1  0  0  0
M  END
> <minimizedAffinity>
-9.76628

> <CNNscore>
0.4983875453

> <CNNaffinity>
7.4682502747

> <CNN_VS>
3.7220828533

> <CNNaffinity_variance>
0.0483218916

$$$$
[H]c1nc2c(C([H])([H])[H])c([H])c(-c3c(C([H])(C([H])([H])[H])C([H])([H])[H])c4c([H])c(C5([H])C([H])([H])C([H])([H])N(C([H])([H])C([H])([H])S(=O)(=O)N6C([H])([H])C6([H])[H])C([H])([H])C5([H])[H])c([H])c([H])c4n3[H])c([H])n2n1


 37 42  0  0  0  0  0  0  0  0999 V2000
  -18.1744   13.3481  -21.1067 C   0  0  0  0  0  0  0  0  0  0  0  0
  -17.3549   13.1269  -22.2104 C   0  0  0  0  0  0  0  0  0  0  0  0
  -16.7361   11.9189  -21.9852 N   0  0  0  0  0  0  0  0  0  0  0  0
  -17.1257   11.4128  -20.8393 C   0  0  0  0  0  0  0  0  0  0  0  0
  -16.7183   10.2075  -20.2539 C   0  0  0  0  0  0  0  0  0  0  0  0
  -17.2370    9.8708  -19.0471 C   0  0  0  0  0  0  0  0  0  0  0  0
  -18.1462   10.7116  -18.4230 C   0  0  0  0  0  0  0  0  0  0  0  0
  -18.5376   11.8925  -19.0108 C   0  0  0  0  0  0  0  0  0  0  0  0
  -18.0349   12.2630  -20.2301 C   0  0  0  0  0  0  0  0  0  0  0  0
  -16.0672   11.5051  -22.6642 H   0  0  0  0  0  0  0  0  0  0  0  0
  -17.0451   13.9265  -23.3849 C   0  0  0  0  0  0  0  0  0  0  0  0
  -16.5631   15.1847  -23.3874 C   0  0  0  0  0  0  0  0  0  0  0  0
  -16.2430   15.8023  -24.6014 C   0  0  0  0  0  0  0  0  0  0  0  0
  -15.7037   17.2088  -24.6025 C   0  0  0  0  0  0  0  0  0  0  0  0
  -16.4203   15.1338  -25.7716 C   0  0  0  0  0  0  0  0  0  0  0  0
  -16.1912   15.5032  -27.0558 N   0  0  0  0  0  0  0  0  0  0  0  0
  -16.5437   14.4492  -27.8296 C   0  0  0  0  0  0  0  0  0  0  0  0
  -16.9789   13.4536  -27.0583 N   0  0  0  0  0  0  0  0  0  0  0  0
  -16.8942   13.8949  -25.8064 N   0  0  0  0  0  0  0  0  0  0  0  0
  -17.1957   13.3141  -24.6419 C   0  0  0  0  0  0  0  0  0  0  0  0
  -18.6634   10.2755  -17.1036 C   0  0  0  0  0  0  0  0  0  0  0  0
  -20.0897   10.8001  -16.9934 C   0  0  0  0  0  0  0  0  0  0  0  0
  -20.4873   10.5452  -15.5316 C   0  0  0  0  0  0  0  0  0  0  0  0
  -20.6134    9.1168  -15.3824 N   0  0  0  0  0  0  0  0  0  0  0  0
  -19.3847    8.4068  -15.6871 C   0  0  0  0  0  0  0  0  0  0  0  0
  -18.7669    8.7702  -16.9926 C   0  0  0  0  0  0  0  0  0  0  0  0
  -21.0090    8.7033  -14.0445 C   0  0  0  0  0  0  0  0  0  0  0  0
  -22.2592    9.4314  -13.6678 C   0  0  0  0  0  0  0  0  0  0  0  0
  -23.7577    8.5934  -14.0229 S   0  0  0  0  0  0  0  0  0  0  0  0
  -23.7947    7.3662  -13.1263 O   0  0  0  0  0  0  0  0  0  0  0  0
  -23.7549    8.0382  -15.4389 O   0  0  0  0  0  0  0  0  0  0  0  0
  -25.1646    9.4748  -13.7307 N   0  0  0  0  0  0  0  0  0  0  0  0
  -25.3819   10.7622  -14.4600 C   0  0  0  0  0  0  0  0  0  0  0  0
  -26.1632    9.5664  -14.7612 C   0  0  0  0  0  0  0  0  0  0  0  0
  -20.3451   14.3138  -20.2391 C   0  0  0  0  0  0  0  0  0  0  0  0
  -18.9783   14.5463  -20.8578 C   0  0  0  0  0  0  0  0  0  0  0  0
  -18.1559   15.4232  -19.8937 C   0  0  0  0  0  0  0  0  0  0  0  0
 35 36  1  0  0  0
 36 37  1  0  0  0
 36  1  1  0  0  0
  1  2  2  0  0  0
  2  3  1  0  0  0
  3  4  1  0  0  0
  4  5  2  0  0  0
  5  6  1  0  0  0
  6  7  2  0  0  0
  7  8  1  0  0  0
  8  9  2  0  0  0
  7 21  1  0  0  0
 21 22  1  0  0  0
 22 23  1  0  0  0
 23 24  1  0  0  0
 24 27  1  0  0  0
 27 28  1  0  0  0
 28 29  1  0  0  0
 29 30  2  0  0  0
 29 31  2  0  0  0
 29 32  1  0  0  0
 32 33  1  0  0  0
 33 34  1  0  0  0
 24 25  1  0  0  0
 25 26  1  0  0  0
  2 11  1  0  0  0
 11 12  1  0  0  0
 12 13  2  0  0  0
 13 14  1  0  0  0
 13 15  1  0  0  0
 15 16  2  0  0  0
 16 17  1  0  0  0
 17 18  2  0  0  0
 18 19  1  0  0  0
 19 20  1  0  0  0
  9  1  1  0  0  0
 26 21  1  0  0  0
 20 11  2  0  0  0
  9  4  1  0  0  0
 34 32  1  0  0  0
 19 15  1  0  0  0
  3 10  1  0  0  0
M  END
> <minimizedAffinity>
-9.49907

> <CNNscore>
0.4926225841

> <CNNaffinity>
7.4733138084

> <CNN_VS>
3.6815230846

> <CNNaffinity_variance>
0.0508535914

$$$$
[H]c1nc2c(C([H])([H])[H])c([H])c(-c3c(C([H])(C([H])([H])[H])C([H])([H])[H])c4c([H])c(C5([H])C([H])([H])C([H])([H])N(C([H])([H])C([H])([H])S(=O)(=O)N6C([H])([H])C6([H])[H])C([H])([H])C5([H])[H])c([H])c([H])c4n3[H])c([H])n2n1


 37 42  0  0  0  0  0  0  0  0999 V2000
  -18.8255   13.0677  -20.1453 C   0  0  0  0  0  0  0  0  0  0  0  0
  -17.9091   12.6902  -21.1233 C   0  0  0  0  0  0  0  0  0  0  0  0
  -17.3940   11.4826  -20.7121 N   0  0  0  0  0  0  0  0  0  0  0  0
  -17.9335   11.1201  -19.5725 C   0  0  0  0  0  0  0  0  0  0  0  0
  -17.6661    9.9638  -18.8290 C   0  0  0  0  0  0  0  0  0  0  0  0
  -18.3296    9.7827  -17.6603 C   0  0  0  0  0  0  0  0  0  0  0  0
  -19.2456   10.7297  -17.2279 C   0  0  0  0  0  0  0  0  0  0  0  0
  -19.4983   11.8608  -17.9695 C   0  0  0  0  0  0  0  0  0  0  0  0
  -18.8474   12.0750  -19.1557 C   0  0  0  0  0  0  0  0  0  0  0  0
  -16.6841   10.9660  -21.2679 H   0  0  0  0  0  0  0  0  0  0  0  0
  -17.4277   13.3451  -22.3291 C   0  0  0  0  0  0  0  0  0  0  0  0
  -17.5450   12.8811  -23.5886 C   0  0  0  0  0  0  0  0  0  0  0  0
  -17.0954   13.6610  -24.6598 C   0  0  0  0  0  0  0  0  0  0  0  0
  -17.2278   13.1411  -26.0673 C   0  0  0  0  0  0  0  0  0  0  0  0
  -16.5417   14.8805  -24.4272 C   0  0  0  0  0  0  0  0  0  0  0  0
  -16.0388   15.8104  -25.2760 N   0  0  0  0  0  0  0  0  0  0  0  0
  -15.6143   16.8432  -24.5098 C   0  0  0  0  0  0  0  0  0  0  0  0
  -15.8425   16.5709  -23.2255 N   0  0  0  0  0  0  0  0  0  0  0  0
  -16.4090   15.3678  -23.2002 N   0  0  0  0  0  0  0  0  0  0  0  0
  -16.8423   14.6157  -22.1848 C   0  0  0  0  0  0  0  0  0  0  0  0
  -19.9257   10.4616  -15.9378 C   0  0  0  0  0  0  0  0  0  0  0  0
  -19.1229    9.3749  -15.2333 C   0  0  0  0  0  0  0  0  0  0  0  0
  -19.9941    8.9590  -14.0384 C   0  0  0  0  0  0  0  0  0  0  0  0
  -19.9880   10.0689  -13.1183 N   0  0  0  0  0  0  0  0  0  0  0  0
  -20.5098   11.2902  -13.7038 C   0  0  0  0  0  0  0  0  0  0  0  0
  -19.9021   11.6584  -15.0127 C   0  0  0  0  0  0  0  0  0  0  0  0
  -20.7601    9.8275  -11.9087 C   0  0  0  0  0  0  0  0  0  0  0  0
  -20.1063   10.5450  -10.7717 C   0  0  0  0  0  0  0  0  0  0  0  0
  -18.9209    9.6162   -9.8737 S   0  0  0  0  0  0  0  0  0  0  0  0
  -19.6892    8.8192   -8.8317 O   0  0  0  0  0  0  0  0  0  0  0  0
  -18.0056   10.5254   -9.0682 O   0  0  0  0  0  0  0  0  0  0  0  0
  -18.0211    8.5203  -10.7853 N   0  0  0  0  0  0  0  0  0  0  0  0
  -16.9525    7.7186  -10.1129 C   0  0  0  0  0  0  0  0  0  0  0  0
  -18.1999    7.1105  -10.5661 C   0  0  0  0  0  0  0  0  0  0  0  0
  -21.0676   14.2023  -19.8574 C   0  0  0  0  0  0  0  0  0  0  0  0
  -19.5751   14.3249  -20.1073 C   0  0  0  0  0  0  0  0  0  0  0  0
  -18.9619   15.1567  -18.9642 C   0  0  0  0  0  0  0  0  0  0  0  0
 35 36  1  0  0  0
 36 37  1  0  0  0
 36  1  1  0  0  0
  1  2  2  0  0  0
  2  3  1  0  0  0
  3  4  1  0  0  0
  4  5  2  0  0  0
  5  6  1  0  0  0
  6  7  2  0  0  0
  7  8  1  0  0  0
  8  9  2  0  0  0
  7 21  1  0  0  0
 21 22  1  0  0  0
 22 23  1  0  0  0
 23 24  1  0  0  0
 24 27  1  0  0  0
 27 28  1  0  0  0
 28 29  1  0  0  0
 29 30  2  0  0  0
 29 31  2  0  0  0
 29 32  1  0  0  0
 32 33  1  0  0  0
 33 34  1  0  0  0
 24 25  1  0  0  0
 25 26  1  0  0  0
  2 11  1  0  0  0
 11 12  1  0  0  0
 12 13  2  0  0  0
 13 14  1  0  0  0
 13 15  1  0  0  0
 15 16  2  0  0  0
 16 17  1  0  0  0
 17 18  2  0  0  0
 18 19  1  0  0  0
 19 20  1  0  0  0
  9  1  1  0  0  0
 26 21  1  0  0  0
 20 11  2  0  0  0
  9  4  1  0  0  0
 34 32  1  0  0  0
 19 15  1  0  0  0
  3 10  1  0  0  0
M  END
> <minimizedAffinity>
-9.39180

> <CNNscore>
0.4866394401

> <CNNaffinity>
7.3546242714

> <CNN_VS>
3.5790503025

> <CNNaffinity_variance>
0.1390126199

$$$$
[H]c1nc2c(C([H])([H])[H])c([H])c(-c3c(C([H])(C([H])([H])[H])C([H])([H])[H])c4c([H])c(C5([H])C([H])([H])C([H])([H])N(C([H])([H])C([H])([H])S(=O)(=O)N6C([H])([H])C6([H])[H])C([H])([H])C5([H])[H])c([H])c([H])c4n3[H])c([H])n2n1


 37 42  0  0  0  0  0  0  0  0999 V2000
  -18.6800   13.4825  -20.3039 C   0  0  0  0  0  0  0  0  0  0  0  0
  -17.6418   13.3346  -21.2199 C   0  0  0  0  0  0  0  0  0  0  0  0
  -17.0235   12.1475  -20.9014 N   0  0  0  0  0  0  0  0  0  0  0  0
  -17.6143   11.5863  -19.8733 C   0  0  0  0  0  0  0  0  0  0  0  0
  -17.2766   10.3805  -19.2461 C   0  0  0  0  0  0  0  0  0  0  0  0
  -18.0143    9.9809  -18.1807 C   0  0  0  0  0  0  0  0  0  0  0  0
  -19.0724   10.7599  -17.7373 C   0  0  0  0  0  0  0  0  0  0  0  0
  -19.3927   11.9422  -18.3641 C   0  0  0  0  0  0  0  0  0  0  0  0
  -18.6698   12.3753  -19.4441 C   0  0  0  0  0  0  0  0  0  0  0  0
  -16.2102   11.7863  -21.4378 H   0  0  0  0  0  0  0  0  0  0  0  0
  -17.1378   14.1864  -22.2853 C   0  0  0  0  0  0  0  0  0  0  0  0
  -17.5248   15.4506  -22.5450 C   0  0  0  0  0  0  0  0  0  0  0  0
  -16.8943   16.1736  -23.5635 C   0  0  0  0  0  0  0  0  0  0  0  0
  -17.3277   17.5870  -23.8521 C   0  0  0  0  0  0  0  0  0  0  0  0
  -15.8969   15.5997  -24.2872 C   0  0  0  0  0  0  0  0  0  0  0  0
  -15.1426   16.0788  -25.3067 N   0  0  0  0  0  0  0  0  0  0  0  0
  -14.2946   15.0839  -25.6603 C   0  0  0  0  0  0  0  0  0  0  0  0
  -14.5093   14.0180  -24.8901 N   0  0  0  0  0  0  0  0  0  0  0  0
  -15.4916   14.3568  -24.0598 N   0  0  0  0  0  0  0  0  0  0  0  0
  -16.0995   13.6756  -23.0846 C   0  0  0  0  0  0  0  0  0  0  0  0
  -19.8268   10.2572  -16.5639 C   0  0  0  0  0  0  0  0  0  0  0  0
  -19.0685    9.0446  -16.0382 C   0  0  0  0  0  0  0  0  0  0  0  0
  -20.0085    8.4178  -14.9975 C   0  0  0  0  0  0  0  0  0  0  0  0
  -20.0537    9.3294  -13.8815 N   0  0  0  0  0  0  0  0  0  0  0  0
  -20.5382   10.6474  -14.2487 C   0  0  0  0  0  0  0  0  0  0  0  0
  -19.8547   11.2529  -15.4253 C   0  0  0  0  0  0  0  0  0  0  0  0
  -20.8953    8.8696  -12.7871 C   0  0  0  0  0  0  0  0  0  0  0  0
  -20.0602    8.0599  -11.8479 C   0  0  0  0  0  0  0  0  0  0  0  0
  -20.3802    6.3360  -11.8469 S   0  0  0  0  0  0  0  0  0  0  0  0
  -21.6925    6.1352  -12.5876 O   0  0  0  0  0  0  0  0  0  0  0  0
  -20.6487    5.8274  -10.4389 O   0  0  0  0  0  0  0  0  0  0  0  0
  -19.2176    5.3854  -12.6128 N   0  0  0  0  0  0  0  0  0  0  0  0
  -19.4609    3.9174  -12.7624 C   0  0  0  0  0  0  0  0  0  0  0  0
  -19.5080    4.8251  -13.9048 C   0  0  0  0  0  0  0  0  0  0  0  0
  -21.0272   14.3235  -19.8788 C   0  0  0  0  0  0  0  0  0  0  0  0
  -19.5759   14.6357  -20.1969 C   0  0  0  0  0  0  0  0  0  0  0  0
  -19.0123   15.5142  -19.0631 C   0  0  0  0  0  0  0  0  0  0  0  0
 35 36  1  0  0  0
 36 37  1  0  0  0
 36  1  1  0  0  0
  1  2  2  0  0  0
  2  3  1  0  0  0
  3  4  1  0  0  0
  4  5  2  0  0  0
  5  6  1  0  0  0
  6  7  2  0  0  0
  7  8  1  0  0  0
  8  9  2  0  0  0
  7 21  1  0  0  0
 21 22  1  0  0  0
 22 23  1  0  0  0
 23 24  1  0  0  0
 24 27  1  0  0  0
 27 28  1  0  0  0
 28 29  1  0  0  0
 29 30  2  0  0  0
 29 31  2  0  0  0
 29 32  1  0  0  0
 32 33  1  0  0  0
 33 34  1  0  0  0
 24 25  1  0  0  0
 25 26  1  0  0  0
  2 11  1  0  0  0
 11 12  1  0  0  0
 12 13  2  0  0  0
 13 14  1  0  0  0
 13 15  1  0  0  0
 15 16  2  0  0  0
 16 17  1  0  0  0
 17 18  2  0  0  0
 18 19  1  0  0  0
 19 20  1  0  0  0
  9  1  1  0  0  0
 26 21  1  0  0  0
 20 11  2  0  0  0
  9  4  1  0  0  0
 34 32  1  0  0  0
 19 15  1  0  0  0
  3 10  1  0  0  0
M  END
> <minimizedAffinity>
-8.83651

> <CNNscore>
0.4701509774

> <CNNaffinity>
7.3517532349

> <CNN_VS>
3.4564340115

> <CNNaffinity_variance>
0.1202930212

$$$$
[H]c1c([H])c([H])c(C(=O)N([H])c2c([H])c([H])c(C(F)(F)F)c([H])c2[H])c(C(=O)N([H])c2c([H])c([H])c(F)c([H])c2[H])c1[H]


 31 33  0  0  0  0  0  0  0  0999 V2000
  -18.5485    9.9177  -17.7261 C   0  0  0  0  0  0  0  0  0  0  0  0
  -18.7038   11.3183  -18.0257 C   0  0  0  0  0  0  0  0  0  0  0  0
  -19.6560   11.9347  -17.3207 C   0  0  0  0  0  0  0  0  0  0  0  0
  -20.4387   11.2372  -16.3593 C   0  0  0  0  0  0  0  0  0  0  0  0
  -20.2395    9.9007  -16.1202 C   0  0  0  0  0  0  0  0  0  0  0  0
  -19.2813    9.2470  -16.8216 C   0  0  0  0  0  0  0  0  0  0  0  0
  -17.8507   11.8165  -19.0982 C   0  0  0  0  0  0  0  0  0  0  0  0
  -16.6230   11.6861  -19.0296 O   0  0  0  0  0  0  0  0  0  0  0  0
  -18.4503   12.4710  -20.2091 N   0  0  0  0  0  0  0  0  0  0  0  0
  -19.5198   12.4798  -20.2379 H   0  0  0  0  0  0  0  0  0  0  0  0
  -17.7149   13.0807  -21.2431 C   0  0  0  0  0  0  0  0  0  0  0  0
  -17.1692   12.2678  -22.2646 C   0  0  0  0  0  0  0  0  0  0  0  0
  -16.4044   12.7700  -23.2700 C   0  0  0  0  0  0  0  0  0  0  0  0
  -16.1228   14.1309  -23.3363 C   0  0  0  0  0  0  0  0  0  0  0  0
  -16.6465   14.9384  -22.3507 C   0  0  0  0  0  0  0  0  0  0  0  0
  -17.4391   14.4071  -21.3159 C   0  0  0  0  0  0  0  0  0  0  0  0
  -15.2650   14.6688  -24.4333 C   0  0  0  0  0  0  0  0  0  0  0  0
  -16.0516   15.0471  -25.4872 F   0  0  0  0  0  0  0  0  0  0  0  0
  -14.6308   15.8154  -23.9361 F   0  0  0  0  0  0  0  0  0  0  0  0
  -14.3482   13.7342  -24.8615 F   0  0  0  0  0  0  0  0  0  0  0  0
  -20.0181   13.3804  -17.3873 C   0  0  0  0  0  0  0  0  0  0  0  0
  -19.4283   14.1437  -18.1792 O   0  0  0  0  0  0  0  0  0  0  0  0
  -21.0508   13.8227  -16.5295 N   0  0  0  0  0  0  0  0  0  0  0  0
  -21.4698   13.0783  -15.8824 H   0  0  0  0  0  0  0  0  0  0  0  0
  -21.5971   15.0939  -16.4176 C   0  0  0  0  0  0  0  0  0  0  0  0
  -20.9819   16.0479  -15.5875 C   0  0  0  0  0  0  0  0  0  0  0  0
  -21.5059   17.3059  -15.3872 C   0  0  0  0  0  0  0  0  0  0  0  0
  -22.6697   17.6511  -16.0107 C   0  0  0  0  0  0  0  0  0  0  0  0
  -23.2133   18.8940  -15.8454 F   0  0  0  0  0  0  0  0  0  0  0  0
  -23.3329   16.7575  -16.8463 C   0  0  0  0  0  0  0  0  0  0  0  0
  -22.7777   15.5238  -17.0203 C   0  0  0  0  0  0  0  0  0  0  0  0
  1  2  2  0  0  0
  2  7  1  0  0  0
  7  8  2  0  0  0
  7  9  1  0  0  0
  9 11  1  0  0  0
 11 12  2  0  0  0
 12 13  1  0  0  0
 13 14  2  0  0  0
 14 17  1  0  0  0
 17 18  1  0  0  0
 17 19  1  0  0  0
 17 20  1  0  0  0
 14 15  1  0  0  0
 15 16  2  0  0  0
  2  3  1  0  0  0
  3 21  1  0  0  0
 21 22  2  0  0  0
 21 23  1  0  0  0
 23 25  1  0  0  0
 25 26  2  0  0  0
 26 27  1  0  0  0
 27 28  2  0  0  0
 28 29  1  0  0  0
 28 30  1  0  0  0
 30 31  2  0  0  0
  3  4  2  0  0  0
  4  5  1  0  0  0
  5  6  2  0  0  0
  6  1  1  0  0  0
 16 11  1  0  0  0
 31 25  1  0  0  0
  9 10  1  0  0  0
 23 24  1  0  0  0
M  END
> <minimizedAffinity>
-8.13718

> <CNNscore>
0.3385285437

> <CNNaffinity>
6.0834760666

> <CNN_VS>
2.0594303608

> <CNNaffinity_variance>
0.3927630186

$$$$
[H]c1c([H])c([H])c(C(=O)N([H])c2c([H])c([H])c(C(F)(F)F)c([H])c2[H])c(C(=O)N([H])c2c([H])c([H])c(F)c([H])c2[H])c1[H]


 31 33  0  0  0  0  0  0  0  0999 V2000
  -17.9108   11.3367  -18.8511 C   0  0  0  0  0  0  0  0  0  0  0  0
  -18.0235   12.4113  -19.8040 C   0  0  0  0  0  0  0  0  0  0  0  0
  -17.3488   12.2187  -20.9405 C   0  0  0  0  0  0  0  0  0  0  0  0
  -16.5878   11.0377  -21.1624 C   0  0  0  0  0  0  0  0  0  0  0  0
  -16.5223   10.0495  -20.2126 C   0  0  0  0  0  0  0  0  0  0  0  0
  -17.1950   10.2170  -19.0478 C   0  0  0  0  0  0  0  0  0  0  0  0
  -18.7917   13.5627  -19.3453 C   0  0  0  0  0  0  0  0  0  0  0  0
  -18.2826   14.3845  -18.5743 O   0  0  0  0  0  0  0  0  0  0  0  0
  -20.1371   13.7122  -19.7806 N   0  0  0  0  0  0  0  0  0  0  0  0
  -20.4857   13.0068  -20.5054 H   0  0  0  0  0  0  0  0  0  0  0  0
  -20.9974   14.7250  -19.3162 C   0  0  0  0  0  0  0  0  0  0  0  0
  -21.3442   15.7816  -20.1910 C   0  0  0  0  0  0  0  0  0  0  0  0
  -22.1269   16.8242  -19.8061 C   0  0  0  0  0  0  0  0  0  0  0  0
  -22.6290   16.8948  -18.5104 C   0  0  0  0  0  0  0  0  0  0  0  0
  -22.3027   15.8745  -17.6444 C   0  0  0  0  0  0  0  0  0  0  0  0
  -21.4931   14.7987  -18.0554 C   0  0  0  0  0  0  0  0  0  0  0  0
  -23.4708   18.0546  -18.0923 C   0  0  0  0  0  0  0  0  0  0  0  0
  -22.9771   18.5849  -16.9315 F   0  0  0  0  0  0  0  0  0  0  0  0
  -23.3567   19.0288  -19.0933 F   0  0  0  0  0  0  0  0  0  0  0  0
  -24.7833   17.6829  -17.9013 F   0  0  0  0  0  0  0  0  0  0  0  0
  -17.3077   13.1346  -22.1175 C   0  0  0  0  0  0  0  0  0  0  0  0
  -18.1047   14.0912  -22.2018 O   0  0  0  0  0  0  0  0  0  0  0  0
  -16.3297   12.8685  -23.1027 N   0  0  0  0  0  0  0  0  0  0  0  0
  -15.7142   12.0088  -22.9280 H   0  0  0  0  0  0  0  0  0  0  0  0
  -16.0584   13.5767  -24.2653 C   0  0  0  0  0  0  0  0  0  0  0  0
  -14.8652   14.3133  -24.3721 C   0  0  0  0  0  0  0  0  0  0  0  0
  -14.5643   15.0837  -25.4735 C   0  0  0  0  0  0  0  0  0  0  0  0
  -15.4530   15.1457  -26.5075 C   0  0  0  0  0  0  0  0  0  0  0  0
  -15.1836   15.8899  -27.6216 F   0  0  0  0  0  0  0  0  0  0  0  0
  -16.6534   14.4427  -26.4699 C   0  0  0  0  0  0  0  0  0  0  0  0
  -16.9101   13.6889  -25.3625 C   0  0  0  0  0  0  0  0  0  0  0  0
  1  2  2  0  0  0
  2  7  1  0  0  0
  7  8  2  0  0  0
  7  9  1  0  0  0
  9 11  1  0  0  0
 11 12  2  0  0  0
 12 13  1  0  0  0
 13 14  2  0  0  0
 14 17  1  0  0  0
 17 18  1  0  0  0
 17 19  1  0  0  0
 17 20  1  0  0  0
 14 15  1  0  0  0
 15 16  2  0  0  0
  2  3  1  0  0  0
  3 21  1  0  0  0
 21 22  2  0  0  0
 21 23  1  0  0  0
 23 25  1  0  0  0
 25 26  2  0  0  0
 26 27  1  0  0  0
 27 28  2  0  0  0
 28 29  1  0  0  0
 28 30  1  0  0  0
 30 31  2  0  0  0
  3  4  2  0  0  0
  4  5  1  0  0  0
  5  6  2  0  0  0
  6  1  1  0  0  0
 16 11  1  0  0  0
 31 25  1  0  0  0
  9 10  1  0  0  0
 23 24  1  0  0  0
M  END
> <minimizedAffinity>
-8.91443

> <CNNscore>
0.3147728145

> <CNNaffinity>
6.1392312050

> <CNN_VS>
1.9324630499

> <CNNaffinity_variance>
0.1167395338

$$$$
[H]c1c([H])c([H])c(C(=O)N([H])c2c([H])c([H])c(C(F)(F)F)c([H])c2[H])c(C(=O)N([H])c2c([H])c([H])c(F)c([H])c2[H])c1[H]


 31 33  0  0  0  0  0  0  0  0999 V2000
  -18.1928    9.5830  -17.8799 C   0  0  0  0  0  0  0  0  0  0  0  0
  -18.3754   10.9918  -18.1194 C   0  0  0  0  0  0  0  0  0  0  0  0
  -19.3588   11.5527  -17.4108 C   0  0  0  0  0  0  0  0  0  0  0  0
  -20.1464   10.7936  -16.5015 C   0  0  0  0  0  0  0  0  0  0  0  0
  -19.9201    9.4526  -16.3184 C   0  0  0  0  0  0  0  0  0  0  0  0
  -18.9299    8.8545  -17.0249 C   0  0  0  0  0  0  0  0  0  0  0  0
  -17.5099   11.5586  -19.1470 C   0  0  0  0  0  0  0  0  0  0  0  0
  -16.2832   11.4223  -19.0733 O   0  0  0  0  0  0  0  0  0  0  0  0
  -18.0965   12.2859  -20.2189 N   0  0  0  0  0  0  0  0  0  0  0  0
  -19.1655   12.2981  -20.2591 H   0  0  0  0  0  0  0  0  0  0  0  0
  -17.3490   12.9615  -21.2020 C   0  0  0  0  0  0  0  0  0  0  0  0
  -17.2180   14.3676  -21.1147 C   0  0  0  0  0  0  0  0  0  0  0  0
  -16.5575   15.1010  -22.0494 C   0  0  0  0  0  0  0  0  0  0  0  0
  -15.9713   14.4855  -23.1510 C   0  0  0  0  0  0  0  0  0  0  0  0
  -16.0877   13.1167  -23.2526 C   0  0  0  0  0  0  0  0  0  0  0  0
  -16.7723   12.3677  -22.2769 C   0  0  0  0  0  0  0  0  0  0  0  0
  -15.2658   15.3027  -24.1820 C   0  0  0  0  0  0  0  0  0  0  0  0
  -15.2738   16.6191  -23.8082 F   0  0  0  0  0  0  0  0  0  0  0  0
  -13.9328   14.8709  -24.2090 F   0  0  0  0  0  0  0  0  0  0  0  0
  -15.8591   15.1767  -25.4188 F   0  0  0  0  0  0  0  0  0  0  0  0
  -19.7547   12.9911  -17.4208 C   0  0  0  0  0  0  0  0  0  0  0  0
  -19.1593   13.8153  -16.6970 O   0  0  0  0  0  0  0  0  0  0  0  0
  -20.8108   13.3591  -18.2851 N   0  0  0  0  0  0  0  0  0  0  0  0
  -21.2553   12.5602  -18.8441 H   0  0  0  0  0  0  0  0  0  0  0  0
  -21.3457   14.6204  -18.5086 C   0  0  0  0  0  0  0  0  0  0  0  0
  -21.2019   15.2267  -19.7694 C   0  0  0  0  0  0  0  0  0  0  0  0
  -21.6570   16.4987  -20.0377 C   0  0  0  0  0  0  0  0  0  0  0  0
  -22.2705   17.2106  -19.0481 C   0  0  0  0  0  0  0  0  0  0  0  0
  -22.7456   18.4708  -19.2804 F   0  0  0  0  0  0  0  0  0  0  0  0
  -22.4470   16.6736  -17.7765 C   0  0  0  0  0  0  0  0  0  0  0  0
  -21.9851   15.4095  -17.5545 C   0  0  0  0  0  0  0  0  0  0  0  0
  1  2  2  0  0  0
  2  7  1  0  0  0
  7  8  2  0  0  0
  7  9  1  0  0  0
  9 11  1  0  0  0
 11 12  2  0  0  0
 12 13  1  0  0  0
 13 14  2  0  0  0
 14 17  1  0  0  0
 17 18  1  0  0  0
 17 19  1  0  0  0
 17 20  1  0  0  0
 14 15  1  0  0  0
 15 16  2  0  0  0
  2  3  1  0  0  0
  3 21  1  0  0  0
 21 22  2  0  0  0
 21 23  1  0  0  0
 23 25  1  0  0  0
 25 26  2  0  0  0
 26 27  1  0  0  0
 27 28  2  0  0  0
 28 29  1  0  0  0
 28 30  1  0  0  0
 30 31  2  0  0  0
  3  4  2  0  0  0
  4  5  1  0  0  0
  5  6  2  0  0  0
  6  1  1  0  0  0
 16 11  1  0  0  0
 31 25  1  0  0  0
  9 10  1  0  0  0
 23 24  1  0  0  0
M  END
> <minimizedAffinity>
-9.04853

> <CNNscore>
0.3010042906

> <CNNaffinity>
5.9931020737

> <CNN_VS>
1.8039494753

> <CNNaffinity_variance>
0.2005810291

$$$$
[H]c1c([H])c([H])c(C(=O)N([H])c2c([H])c([H])c(C(F)(F)F)c([H])c2[H])c(C(=O)N([H])c2c([H])c([H])c(F)c([H])c2[H])c1[H]


 31 33  0  0  0  0  0  0  0  0999 V2000
  -17.8934   11.4504  -18.9118 C   0  0  0  0  0  0  0  0  0  0  0  0
  -17.9441   12.5536  -19.8370 C   0  0  0  0  0  0  0  0  0  0  0  0
  -17.2986   12.3438  -20.9873 C   0  0  0  0  0  0  0  0  0  0  0  0
  -16.6232   11.1195  -21.2483 C   0  0  0  0  0  0  0  0  0  0  0  0
  -16.6136   10.1057  -20.3235 C   0  0  0  0  0  0  0  0  0  0  0  0
  -17.2586   10.2896  -19.1456 C   0  0  0  0  0  0  0  0  0  0  0  0
  -18.6257   13.7429  -19.3398 C   0  0  0  0  0  0  0  0  0  0  0  0
  -19.8592   13.7659  -19.2580 O   0  0  0  0  0  0  0  0  0  0  0  0
  -17.8525   14.8784  -18.9726 N   0  0  0  0  0  0  0  0  0  0  0  0
  -16.7894   14.7604  -18.9969 H   0  0  0  0  0  0  0  0  0  0  0  0
  -18.4136   16.1091  -18.5827 C   0  0  0  0  0  0  0  0  0  0  0  0
  -18.5324   17.1410  -19.5434 C   0  0  0  0  0  0  0  0  0  0  0  0
  -19.0149   18.3745  -19.2376 C   0  0  0  0  0  0  0  0  0  0  0  0
  -19.4203   18.6772  -17.9414 C   0  0  0  0  0  0  0  0  0  0  0  0
  -19.3129   17.6845  -16.9924 C   0  0  0  0  0  0  0  0  0  0  0  0
  -18.8138   16.4102  -17.3218 C   0  0  0  0  0  0  0  0  0  0  0  0
  -19.9296   20.0412  -17.6121 C   0  0  0  0  0  0  0  0  0  0  0  0
  -21.1534   20.2271  -18.1954 F   0  0  0  0  0  0  0  0  0  0  0  0
  -20.1030   20.0920  -16.2223 F   0  0  0  0  0  0  0  0  0  0  0  0
  -19.0645   21.0215  -18.0458 F   0  0  0  0  0  0  0  0  0  0  0  0
  -17.2096   13.2838  -22.1424 C   0  0  0  0  0  0  0  0  0  0  0  0
  -17.8835   14.3341  -22.1557 O   0  0  0  0  0  0  0  0  0  0  0  0
  -16.3303   12.9292  -23.1908 N   0  0  0  0  0  0  0  0  0  0  0  0
  -15.8189   11.9948  -23.0741 H   0  0  0  0  0  0  0  0  0  0  0  0
  -16.0386   13.6342  -24.3505 C   0  0  0  0  0  0  0  0  0  0  0  0
  -14.8340   14.3536  -24.4462 C   0  0  0  0  0  0  0  0  0  0  0  0
  -14.5124   15.1203  -25.5443 C   0  0  0  0  0  0  0  0  0  0  0  0
  -15.3910   15.1959  -26.5859 C   0  0  0  0  0  0  0  0  0  0  0  0
  -15.1011   15.9369  -27.6970 F   0  0  0  0  0  0  0  0  0  0  0  0
  -16.6017   14.5104  -26.5595 C   0  0  0  0  0  0  0  0  0  0  0  0
  -16.8790   13.7596  -25.4550 C   0  0  0  0  0  0  0  0  0  0  0  0
  1  2  2  0  0  0
  2  7  1  0  0  0
  7  8  2  0  0  0
  7  9  1  0  0  0
  9 11  1  0  0  0
 11 12  2  0  0  0
 12 13  1  0  0  0
 13 14  2  0  0  0
 14 17  1  0  0  0
 17 18  1  0  0  0
 17 19  1  0  0  0
 17 20  1  0  0  0
 14 15  1  0  0  0
 15 16  2  0  0  0
  2  3  1  0  0  0
  3 21  1  0  0  0
 21 22  2  0  0  0
 21 23  1  0  0  0
 23 25  1  0  0  0
 25 26  2  0  0  0
 26 27  1  0  0  0
 27 28  2  0  0  0
 28 29  1  0  0  0
 28 30  1  0  0  0
 30 31  2  0  0  0
  3  4  2  0  0  0
  4  5  1  0  0  0
  5  6  2  0  0  0
  6  1  1  0  0  0
 16 11  1  0  0  0
 31 25  1  0  0  0
  9 10  1  0  0  0
 23 24  1  0  0  0
M  END
> <minimizedAffinity>
-9.12803

> <CNNscore>
0.2501929402

> <CNNaffinity>
6.1621985435

> <CNN_VS>
1.5417386293

> <CNNaffinity_variance>
0.1005315557

$$$$
[H]c1c([H])c([H])c(C(=O)N([H])c2c([H])c([H])c(C(F)(F)F)c([H])c2[H])c(C(=O)N([H])c2c([H])c([H])c(F)c([H])c2[H])c1[H]


 31 33  0  0  0  0  0  0  0  0999 V2000
  -17.0544   10.8959  -20.1292 C   0  0  0  0  0  0  0  0  0  0  0  0
  -17.6285   12.2172  -20.1143 C   0  0  0  0  0  0  0  0  0  0  0  0
  -18.4500   12.4542  -19.0883 C   0  0  0  0  0  0  0  0  0  0  0  0
  -18.7182   11.4612  -18.1058 C   0  0  0  0  0  0  0  0  0  0  0  0
  -18.1371   10.2201  -18.1773 C   0  0  0  0  0  0  0  0  0  0  0  0
  -17.2999    9.9490  -19.2083 C   0  0  0  0  0  0  0  0  0  0  0  0
  -17.2794   13.0528  -21.2572 C   0  0  0  0  0  0  0  0  0  0  0  0
  -17.3953   14.2819  -21.1891 O   0  0  0  0  0  0  0  0  0  0  0  0
  -16.8259   12.4315  -22.4532 N   0  0  0  0  0  0  0  0  0  0  0  0
  -16.6777   11.3727  -22.4147 H   0  0  0  0  0  0  0  0  0  0  0  0
  -16.5648   13.1343  -23.6447 C   0  0  0  0  0  0  0  0  0  0  0  0
  -15.2595   13.6298  -23.8737 C   0  0  0  0  0  0  0  0  0  0  0  0
  -14.9364   14.3617  -24.9727 C   0  0  0  0  0  0  0  0  0  0  0  0
  -15.8957   14.6580  -25.9359 C   0  0  0  0  0  0  0  0  0  0  0  0
  -17.1724   14.1831  -25.7305 C   0  0  0  0  0  0  0  0  0  0  0  0
  -17.4943   13.4241  -24.5895 C   0  0  0  0  0  0  0  0  0  0  0  0
  -15.5349   15.4798  -27.1288 C   0  0  0  0  0  0  0  0  0  0  0  0
  -16.5256   16.3910  -27.3749 F   0  0  0  0  0  0  0  0  0  0  0  0
  -14.3697   16.1878  -26.8044 F   0  0  0  0  0  0  0  0  0  0  0  0
  -15.3503   14.6947  -28.2455 F   0  0  0  0  0  0  0  0  0  0  0  0
  -19.1572   13.7338  -18.7913 C   0  0  0  0  0  0  0  0  0  0  0  0
  -20.3890   13.8305  -18.9672 O   0  0  0  0  0  0  0  0  0  0  0  0
  -18.3715   14.8013  -18.3005 N   0  0  0  0  0  0  0  0  0  0  0  0
  -17.3224   14.6034  -18.2078 H   0  0  0  0  0  0  0  0  0  0  0  0
  -18.7803   16.0717  -17.9185 C   0  0  0  0  0  0  0  0  0  0  0  0
  -18.7929   17.1145  -18.8620 C   0  0  0  0  0  0  0  0  0  0  0  0
  -19.1307   18.4088  -18.5335 C   0  0  0  0  0  0  0  0  0  0  0  0
  -19.4650   18.7044  -17.2438 C   0  0  0  0  0  0  0  0  0  0  0  0
  -19.8172   19.9746  -16.8829 F   0  0  0  0  0  0  0  0  0  0  0  0
  -19.4741   17.7224  -16.2578 C   0  0  0  0  0  0  0  0  0  0  0  0
  -19.1371   16.4532  -16.6266 C   0  0  0  0  0  0  0  0  0  0  0  0
  1  2  2  0  0  0
  2  7  1  0  0  0
  7  8  2  0  0  0
  7  9  1  0  0  0
  9 11  1  0  0  0
 11 12  2  0  0  0
 12 13  1  0  0  0
 13 14  2  0  0  0
 14 17  1  0  0  0
 17 18  1  0  0  0
 17 19  1  0  0  0
 17 20  1  0  0  0
 14 15  1  0  0  0
 15 16  2  0  0  0
  2  3  1  0  0  0
  3 21  1  0  0  0
 21 22  2  0  0  0
 21 23  1  0  0  0
 23 25  1  0  0  0
 25 26  2  0  0  0
 26 27  1  0  0  0
 27 28  2  0  0  0
 28 29  1  0  0  0
 28 30  1  0  0  0
 30 31  2  0  0  0
  3  4  2  0  0  0
  4  5  1  0  0  0
  5  6  2  0  0  0
  6  1  1  0  0  0
 16 11  1  0  0  0
 31 25  1  0  0  0
  9 10  1  0  0  0
 23 24  1  0  0  0
M  END
> <minimizedAffinity>
-9.55496

> <CNNscore>
0.2137612551

> <CNNaffinity>
6.1604461670

> <CNN_VS>
1.3168647289

> <CNNaffinity_variance>
0.1139347106

$$$$
[H]c1c([H])c([H])c(C(=O)N([H])c2c([H])c([H])c(C(F)(F)F)c([H])c2[H])c(C(=O)N([H])c2c([H])c([H])c(F)c([H])c2[H])c1[H]


 31 33  0  0  0  0  0  0  0  0999 V2000
  -17.1212   10.7254  -20.0291 C   0  0  0  0  0  0  0  0  0  0  0  0
  -17.6927   12.0447  -19.9370 C   0  0  0  0  0  0  0  0  0  0  0  0
  -18.4646   12.2419  -18.8651 C   0  0  0  0  0  0  0  0  0  0  0  0
  -18.6870   11.2121  -17.9094 C   0  0  0  0  0  0  0  0  0  0  0  0
  -18.1112    9.9751  -18.0553 C   0  0  0  0  0  0  0  0  0  0  0  0
  -17.3238    9.7440  -19.1343 C   0  0  0  0  0  0  0  0  0  0  0  0
  -17.3972   12.9233  -21.0626 C   0  0  0  0  0  0  0  0  0  0  0  0
  -17.7093   14.1190  -21.0185 O   0  0  0  0  0  0  0  0  0  0  0  0
  -16.7662   12.3797  -22.2151 N   0  0  0  0  0  0  0  0  0  0  0  0
  -16.4568   11.3575  -22.1527 H   0  0  0  0  0  0  0  0  0  0  0  0
  -16.5330   13.1133  -23.3937 C   0  0  0  0  0  0  0  0  0  0  0  0
  -17.5479   13.1658  -24.3782 C   0  0  0  0  0  0  0  0  0  0  0  0
  -17.3845   13.8083  -25.5649 C   0  0  0  0  0  0  0  0  0  0  0  0
  -16.1888   14.4537  -25.8644 C   0  0  0  0  0  0  0  0  0  0  0  0
  -15.1892   14.4141  -24.9174 C   0  0  0  0  0  0  0  0  0  0  0  0
  -15.3710   13.7475  -23.6911 C   0  0  0  0  0  0  0  0  0  0  0  0
  -16.0129   15.1389  -27.1789 C   0  0  0  0  0  0  0  0  0  0  0  0
  -16.5323   16.4030  -27.1105 F   0  0  0  0  0  0  0  0  0  0  0  0
  -14.6342   15.2516  -27.4038 F   0  0  0  0  0  0  0  0  0  0  0  0
  -16.6321   14.4464  -28.1960 F   0  0  0  0  0  0  0  0  0  0  0  0
  -19.1558   13.5087  -18.4867 C   0  0  0  0  0  0  0  0  0  0  0  0
  -18.6386   14.2882  -17.6605 O   0  0  0  0  0  0  0  0  0  0  0  0
  -20.3956   13.7736  -19.1116 N   0  0  0  0  0  0  0  0  0  0  0  0
  -20.7455   13.0216  -19.7901 H   0  0  0  0  0  0  0  0  0  0  0  0
  -21.2183   14.8821  -18.9654 C   0  0  0  0  0  0  0  0  0  0  0  0
  -21.4296   15.7438  -20.0565 C   0  0  0  0  0  0  0  0  0  0  0  0
  -22.1857   16.8911  -19.9608 C   0  0  0  0  0  0  0  0  0  0  0  0
  -22.7550   17.2174  -18.7641 C   0  0  0  0  0  0  0  0  0  0  0  0
  -23.5215   18.3414  -18.6340 F   0  0  0  0  0  0  0  0  0  0  0  0
  -22.5880   16.4110  -17.6423 C   0  0  0  0  0  0  0  0  0  0  0  0
  -21.8352   15.2822  -17.7817 C   0  0  0  0  0  0  0  0  0  0  0  0
  1  2  2  0  0  0
  2  7  1  0  0  0
  7  8  2  0  0  0
  7  9  1  0  0  0
  9 11  1  0  0  0
 11 12  2  0  0  0
 12 13  1  0  0  0
 13 14  2  0  0  0
 14 17  1  0  0  0
 17 18  1  0  0  0
 17 19  1  0  0  0
 17 20  1  0  0  0
 14 15  1  0  0  0
 15 16  2  0  0  0
  2  3  1  0  0  0
  3 21  1  0  0  0
 21 22  2  0  0  0
 21 23  1  0  0  0
 23 25  1  0  0  0
 25 26  2  0  0  0
 26 27  1  0  0  0
 27 28  2  0  0  0
 28 29  1  0  0  0
 28 30  1  0  0  0
 30 31  2  0  0  0
  3  4  2  0  0  0
  4  5  1  0  0  0
  5  6  2  0  0  0
  6  1  1  0  0  0
 16 11  1  0  0  0
 31 25  1  0  0  0
  9 10  1  0  0  0
 23 24  1  0  0  0
M  END
> <minimizedAffinity>
-9.33800

> <CNNscore>
0.2044769377

> <CNNaffinity>
6.0844912529

> <CNN_VS>
1.2441381216

> <CNNaffinity_variance>
0.1250806451

$$$$
[H]c1c([H])c([H])c(C(=O)N([H])c2c([H])c([H])c(C(F)(F)F)c([H])c2[H])c(C(=O)N([H])c2c([H])c([H])c(F)c([H])c2[H])c1[H]


 31 33  0  0  0  0  0  0  0  0999 V2000
  -19.6309   18.9675  -22.2780 C   0  0  0  0  0  0  0  0  0  0  0  0
  -19.6512   17.5671  -21.9404 C   0  0  0  0  0  0  0  0  0  0  0  0
  -18.7630   16.8229  -22.6045 C   0  0  0  0  0  0  0  0  0  0  0  0
  -17.8819   17.3955  -23.5632 C   0  0  0  0  0  0  0  0  0  0  0  0
  -17.9128   18.7395  -23.8383 C   0  0  0  0  0  0  0  0  0  0  0  0
  -18.8049   19.5207  -23.1816 C   0  0  0  0  0  0  0  0  0  0  0  0
  -20.6841   17.1787  -20.9873 C   0  0  0  0  0  0  0  0  0  0  0  0
  -21.8735   17.1720  -21.3255 O   0  0  0  0  0  0  0  0  0  0  0  0
  -20.3041   16.8299  -19.6622 N   0  0  0  0  0  0  0  0  0  0  0  0
  -19.2540   16.7842  -19.4629 H   0  0  0  0  0  0  0  0  0  0  0  0
  -21.2264   16.5436  -18.6379 C   0  0  0  0  0  0  0  0  0  0  0  0
  -22.0183   17.5945  -18.1179 C   0  0  0  0  0  0  0  0  0  0  0  0
  -22.8948   17.4137  -17.0947 C   0  0  0  0  0  0  0  0  0  0  0  0
  -23.0517   16.1625  -16.5066 C   0  0  0  0  0  0  0  0  0  0  0  0
  -22.2896   15.1266  -17.0003 C   0  0  0  0  0  0  0  0  0  0  0  0
  -21.3869   15.3257  -18.0620 C   0  0  0  0  0  0  0  0  0  0  0  0
  -24.0021   15.9796  -15.3701 C   0  0  0  0  0  0  0  0  0  0  0  0
  -23.3005   15.7548  -14.2170 F   0  0  0  0  0  0  0  0  0  0  0  0
  -24.7020   17.1845  -15.2201 F   0  0  0  0  0  0  0  0  0  0  0  0
  -24.8602   14.9256  -15.5942 F   0  0  0  0  0  0  0  0  0  0  0  0
  -18.5287   15.3587  -22.4406 C   0  0  0  0  0  0  0  0  0  0  0  0
  -18.6077   14.5923  -23.4224 O   0  0  0  0  0  0  0  0  0  0  0  0
  -18.2090   14.9022  -21.1415 N   0  0  0  0  0  0  0  0  0  0  0  0
  -18.1875   15.6522  -20.3764 H   0  0  0  0  0  0  0  0  0  0  0  0
  -17.9148   13.6106  -20.7268 C   0  0  0  0  0  0  0  0  0  0  0  0
  -17.0257   12.8212  -21.4779 C   0  0  0  0  0  0  0  0  0  0  0  0
  -16.7383   11.5138  -21.1536 C   0  0  0  0  0  0  0  0  0  0  0  0
  -17.3364   10.9494  -20.0644 C   0  0  0  0  0  0  0  0  0  0  0  0
  -17.0667    9.6587  -19.7050 F   0  0  0  0  0  0  0  0  0  0  0  0
  -18.2268   11.6713  -19.2755 C   0  0  0  0  0  0  0  0  0  0  0  0
  -18.4803   12.9639  -19.6295 C   0  0  0  0  0  0  0  0  0  0  0  0
  1  2  2  0  0  0
  2  7  1  0  0  0
  7  8  2  0  0  0
  7  9  1  0  0  0
  9 11  1  0  0  0
 11 12  2  0  0  0
 12 13  1  0  0  0
 13 14  2  0  0  0
 14 17  1  0  0  0
 17 18  1  0  0  0
 17 19  1  0  0  0
 17 20  1  0  0  0
 14 15  1  0  0  0
 15 16  2  0  0  0
  2  3  1  0  0  0
  3 21  1  0  0  0
 21 22  2  0  0  0
 21 23  1  0  0  0
 23 25  1  0  0  0
 25 26  2  0  0  0
 26 27  1  0  0  0
 27 28  2  0  0  0
 28 29  1  0  0  0
 28 30  1  0  0  0
 30 31  2  0  0  0
  3  4  2  0  0  0
  4  5  1  0  0  0
  5  6  2  0  0  0
  6  1  1  0  0  0
 16 11  1  0  0  0
 31 25  1  0  0  0
  9 10  1  0  0  0
 23 24  1  0  0  0
M  END
> <minimizedAffinity>
-5.79011

> <CNNscore>
0.1956087947

> <CNNaffinity>
5.5236101151

> <CNN_VS>
1.0804667473

> <CNNaffinity_variance>
0.2499937713

$$$$
[H]c1c([H])c([H])c(C(=O)N([H])c2c([H])c([H])c(C(F)(F)F)c([H])c2[H])c(C(=O)N([H])c2c([H])c([H])c(F)c([H])c2[H])c1[H]


 31 33  0  0  0  0  0  0  0  0999 V2000
  -16.9161   11.8969  -21.5048 C   0  0  0  0  0  0  0  0  0  0  0  0
  -17.6104   12.5429  -20.4202 C   0  0  0  0  0  0  0  0  0  0  0  0
  -18.0343   13.7802  -20.6909 C   0  0  0  0  0  0  0  0  0  0  0  0
  -17.8025   14.3853  -21.9572 C   0  0  0  0  0  0  0  0  0  0  0  0
  -17.1341   13.7141  -22.9501 C   0  0  0  0  0  0  0  0  0  0  0  0
  -16.6899   12.4572  -22.7047 C   0  0  0  0  0  0  0  0  0  0  0  0
  -17.6722   11.7729  -19.1835 C   0  0  0  0  0  0  0  0  0  0  0  0
  -16.6319   11.4404  -18.6038 O   0  0  0  0  0  0  0  0  0  0  0  0
  -18.9427   11.3942  -18.6694 N   0  0  0  0  0  0  0  0  0  0  0  0
  -19.7993   11.7811  -19.1804 H   0  0  0  0  0  0  0  0  0  0  0  0
  -19.1114   10.5638  -17.5452 C   0  0  0  0  0  0  0  0  0  0  0  0
  -19.8552   11.0480  -16.4433 C   0  0  0  0  0  0  0  0  0  0  0  0
  -20.0220   10.3312  -15.3005 C   0  0  0  0  0  0  0  0  0  0  0  0
  -19.4569    9.0668  -15.1664 C   0  0  0  0  0  0  0  0  0  0  0  0
  -18.7298    8.5782  -16.2295 C   0  0  0  0  0  0  0  0  0  0  0  0
  -18.5661    9.3290  -17.4088 C   0  0  0  0  0  0  0  0  0  0  0  0
  -19.6292    8.2967  -13.8992 C   0  0  0  0  0  0  0  0  0  0  0  0
  -19.6192    6.9558  -14.1723 F   0  0  0  0  0  0  0  0  0  0  0  0
  -18.5199    8.5796  -13.0908 F   0  0  0  0  0  0  0  0  0  0  0  0
  -20.8079    8.6239  -13.2659 F   0  0  0  0  0  0  0  0  0  0  0  0
  -18.8089   14.6746  -19.7822 C   0  0  0  0  0  0  0  0  0  0  0  0
  -18.2281   15.5585  -19.1197 O   0  0  0  0  0  0  0  0  0  0  0  0
  -20.2070   14.4745  -19.7249 N   0  0  0  0  0  0  0  0  0  0  0  0
  -20.5881   13.6736  -20.3262 H   0  0  0  0  0  0  0  0  0  0  0  0
  -21.1526   15.1819  -18.9953 C   0  0  0  0  0  0  0  0  0  0  0  0
  -21.7011   16.3642  -19.5235 C   0  0  0  0  0  0  0  0  0  0  0  0
  -22.5980   17.1428  -18.8260 C   0  0  0  0  0  0  0  0  0  0  0  0
  -22.9746   16.7644  -17.5700 C   0  0  0  0  0  0  0  0  0  0  0  0
  -23.8713   17.5052  -16.8524 F   0  0  0  0  0  0  0  0  0  0  0  0
  -22.4721   15.6063  -16.9845 C   0  0  0  0  0  0  0  0  0  0  0  0
  -21.5896   14.8623  -17.7112 C   0  0  0  0  0  0  0  0  0  0  0  0
  1  2  2  0  0  0
  2  7  1  0  0  0
  7  8  2  0  0  0
  7  9  1  0  0  0
  9 11  1  0  0  0
 11 12  2  0  0  0
 12 13  1  0  0  0
 13 14  2  0  0  0
 14 17  1  0  0  0
 17 18  1  0  0  0
 17 19  1  0  0  0
 17 20  1  0  0  0
 14 15  1  0  0  0
 15 16  2  0  0  0
  2  3  1  0  0  0
  3 21  1  0  0  0
 21 22  2  0  0  0
 21 23  1  0  0  0
 23 25  1  0  0  0
 25 26  2  0  0  0
 26 27  1  0  0  0
 27 28  2  0  0  0
 28 29  1  0  0  0
 28 30  1  0  0  0
 30 31  2  0  0  0
  3  4  2  0  0  0
  4  5  1  0  0  0
  5  6  2  0  0  0
  6  1  1  0  0  0
 16 11  1  0  0  0
 31 25  1  0  0  0
  9 10  1  0  0  0
 23 24  1  0  0  0
M  END
> <minimizedAffinity>
-7.82615

> <CNNscore>
0.1930147707

> <CNNaffinity>
5.4938454628

> <CNN_VS>
1.0603933334

> <CNNaffinity_variance>
0.1999960244

$$$$
[H]c1c([H])c([H])c(C(=O)N([H])c2c([H])c([H])c(C(F)(F)F)c([H])c2[H])c(C(=O)N([H])c2c([H])c([H])c(F)c([H])c2[H])c1[H]


 31 33  0  0  0  0  0  0  0  0999 V2000
  -21.8953   16.1847  -15.1312 C   0  0  0  0  0  0  0  0  0  0  0  0
  -22.0882   16.3642  -16.5476 C   0  0  0  0  0  0  0  0  0  0  0  0
  -23.2038   17.0205  -16.8773 C   0  0  0  0  0  0  0  0  0  0  0  0
  -24.1100   17.4909  -15.8869 C   0  0  0  0  0  0  0  0  0  0  0  0
  -23.8666   17.2877  -14.5518 C   0  0  0  0  0  0  0  0  0  0  0  0
  -22.7433   16.6230  -14.1860 C   0  0  0  0  0  0  0  0  0  0  0  0
  -21.0767   15.7380  -17.3908 C   0  0  0  0  0  0  0  0  0  0  0  0
  -20.3331   16.4332  -18.0927 O   0  0  0  0  0  0  0  0  0  0  0  0
  -20.9747   14.3198  -17.4083 N   0  0  0  0  0  0  0  0  0  0  0  0
  -21.5973   13.7877  -16.7200 H   0  0  0  0  0  0  0  0  0  0  0  0
  -20.1081   13.6123  -18.2628 C   0  0  0  0  0  0  0  0  0  0  0  0
  -19.0344   12.8848  -17.6973 C   0  0  0  0  0  0  0  0  0  0  0  0
  -18.1230   12.2176  -18.4537 C   0  0  0  0  0  0  0  0  0  0  0  0
  -18.2121   12.2231  -19.8422 C   0  0  0  0  0  0  0  0  0  0  0  0
  -19.2517   12.9255  -20.4109 C   0  0  0  0  0  0  0  0  0  0  0  0
  -20.1907   13.6106  -19.6170 C   0  0  0  0  0  0  0  0  0  0  0  0
  -17.1941   11.5040  -20.6639 C   0  0  0  0  0  0  0  0  0  0  0  0
  -16.6149   12.3772  -21.5439 F   0  0  0  0  0  0  0  0  0  0  0  0
  -16.1988   11.0540  -19.7858 F   0  0  0  0  0  0  0  0  0  0  0  0
  -17.7565   10.4586  -21.3628 F   0  0  0  0  0  0  0  0  0  0  0  0
  -23.6485   17.3846  -18.2540 C   0  0  0  0  0  0  0  0  0  0  0  0
  -24.8619   17.3878  -18.5459 O   0  0  0  0  0  0  0  0  0  0  0  0
  -22.6403   17.7283  -19.1832 N   0  0  0  0  0  0  0  0  0  0  0  0
  -21.6336   17.6721  -18.8204 H   0  0  0  0  0  0  0  0  0  0  0  0
  -22.7826   18.1333  -20.5033 C   0  0  0  0  0  0  0  0  0  0  0  0
  -22.3731   19.4230  -20.8862 C   0  0  0  0  0  0  0  0  0  0  0  0
  -22.5413   19.9062  -22.1650 C   0  0  0  0  0  0  0  0  0  0  0  0
  -23.1306   19.1127  -23.1062 C   0  0  0  0  0  0  0  0  0  0  0  0
  -23.3034   19.5535  -24.3882 F   0  0  0  0  0  0  0  0  0  0  0  0
  -23.5603   17.8256  -22.7978 C   0  0  0  0  0  0  0  0  0  0  0  0
  -23.3710   17.3849  -21.5210 C   0  0  0  0  0  0  0  0  0  0  0  0
  1  2  2  0  0  0
  2  7  1  0  0  0
  7  8  2  0  0  0
  7  9  1  0  0  0
  9 11  1  0  0  0
 11 12  2  0  0  0
 12 13  1  0  0  0
 13 14  2  0  0  0
 14 17  1  0  0  0
 17 18  1  0  0  0
 17 19  1  0  0  0
 17 20  1  0  0  0
 14 15  1  0  0  0
 15 16  2  0  0  0
  2  3  1  0  0  0
  3 21  1  0  0  0
 21 22  2  0  0  0
 21 23  1  0  0  0
 23 25  1  0  0  0
 25 26  2  0  0  0
 26 27  1  0  0  0
 27 28  2  0  0  0
 28 29  1  0  0  0
 28 30  1  0  0  0
 30 31  2  0  0  0
  3  4  2  0  0  0
  4  5  1  0  0  0
  5  6  2  0  0  0
  6  1  1  0  0  0
 16 11  1  0  0  0
 31 25  1  0  0  0
  9 10  1  0  0  0
 23 24  1  0  0  0
M  END
> <minimizedAffinity>
-6.46285

> <CNNscore>
0.1929224133

> <CNNaffinity>
5.3401412964

> <CNN_VS>
1.0302329063

> <CNNaffinity_variance>
0.1475659162

$$$$
[H]OC(=O)[C@@]([H])(N([H])C(=O)[C@](c1c([H])c([H])c([H])c([H])c1[H])(C([H])([H])[H])C([H])([H])c1c([H])c([H])c([H])c(O[H])c1[H])C([H])([H])c1c([H])c([H])c([H])c([H])c1[H]


 33 35  0  0  0  0  0  0  0  0999 V2000
  -17.0199   11.8710  -18.3455 C   0  0  0  0  0  0  0  0  0  0  0  0
  -18.4957   12.2267  -18.2613 C   0  0  0  0  0  0  0  0  0  0  0  0
  -19.1136   11.1560  -17.5175 C   0  0  0  0  0  0  0  0  0  0  0  0
  -20.1787   11.1571  -16.6837 C   0  0  0  0  0  0  0  0  0  0  0  0
  -20.6315   10.0603  -15.9850 C   0  0  0  0  0  0  0  0  0  0  0  0
  -19.9973    8.8453  -16.1022 C   0  0  0  0  0  0  0  0  0  0  0  0
  -18.9013    8.8012  -16.9442 C   0  0  0  0  0  0  0  0  0  0  0  0
  -18.4680    9.9012  -17.6278 C   0  0  0  0  0  0  0  0  0  0  0  0
  -18.6684   13.6016  -17.9097 C   0  0  0  0  0  0  0  0  0  0  0  0
  -18.0443   14.2851  -17.0571 O   0  0  0  0  0  0  0  0  0  0  0  0
  -19.7058   14.3499  -18.6062 N   0  0  0  0  0  0  0  0  0  0  0  0
  -20.2650   13.8781  -19.3819 H   0  0  0  0  0  0  0  0  0  0  0  0
  -20.0274   15.6943  -18.2995 C   0  0  0  0  0  0  0  0  0  0  0  0
  -21.5743   15.6745  -18.1857 C   0  0  0  0  0  0  0  0  0  0  0  0
  -22.0827   14.6093  -17.4773 O   0  0  0  0  0  0  0  0  0  0  0  0
  -22.2707   16.5446  -18.6704 O   0  0  0  0  0  0  0  0  0  0  0  0
  -21.8951   14.5522  -16.4451 H   0  0  0  0  0  0  0  0  0  0  0  0
  -19.7034   16.7852  -19.1902 C   0  0  0  0  0  0  0  0  0  0  0  0
  -18.5959   16.7575  -20.1136 C   0  0  0  0  0  0  0  0  0  0  0  0
  -18.9394   16.8260  -21.4918 C   0  0  0  0  0  0  0  0  0  0  0  0
  -18.0055   16.8275  -22.4741 C   0  0  0  0  0  0  0  0  0  0  0  0
  -16.6471   16.7663  -22.1673 C   0  0  0  0  0  0  0  0  0  0  0  0
  -16.3384   16.7031  -20.8395 C   0  0  0  0  0  0  0  0  0  0  0  0
  -17.2811   16.6920  -19.8040 C   0  0  0  0  0  0  0  0  0  0  0  0
  -19.0205   12.1135  -19.7325 C   0  0  0  0  0  0  0  0  0  0  0  0
  -17.9060   12.0875  -20.7060 C   0  0  0  0  0  0  0  0  0  0  0  0
  -17.7864   13.1530  -21.6147 C   0  0  0  0  0  0  0  0  0  0  0  0
  -16.7633   13.1599  -22.5330 C   0  0  0  0  0  0  0  0  0  0  0  0
  -15.8515   12.1557  -22.5909 C   0  0  0  0  0  0  0  0  0  0  0  0
  -15.9220   11.0942  -21.7318 C   0  0  0  0  0  0  0  0  0  0  0  0
  -14.9812   10.0708  -21.7978 O   0  0  0  0  0  0  0  0  0  0  0  0
  -16.9718   11.0992  -20.8005 C   0  0  0  0  0  0  0  0  0  0  0  0
  -15.0506    9.2821  -21.1471 H   0  0  0  0  0  0  0  0  0  0  0  0
  1  2  1  0  0  0
  2 25  1  0  0  0
 25 26  1  0  0  0
 26 27  2  0  0  0
 27 28  1  0  0  0
 28 29  2  0  0  0
 29 30  1  0  0  0
 30 31  1  0  0  0
 30 32  2  0  0  0
  2  9  1  0  0  0
  9 10  2  0  0  0
  9 11  1  0  0  0
 11 13  1  0  0  0
 13 18  1  0  0  0
 18 19  1  0  0  0
 19 20  2  0  0  0
 20 21  1  0  0  0
 21 22  2  0  0  0
 22 23  1  0  0  0
 23 24  2  0  0  0
 13 14  1  0  0  0
 14 15  1  0  0  0
 14 16  2  0  0  0
  2  3  1  0  0  0
  3  4  2  0  0  0
  4  5  1  0  0  0
  5  6  2  0  0  0
  6  7  1  0  0  0
  7  8  2  0  0  0
 32 26  1  0  0  0
 24 19  1  0  0  0
  8  3  1  0  0  0
 31 33  1  0  0  0
 11 12  1  0  0  0
 15 17  1  0  0  0
M  END
> <minimizedAffinity>
-8.32816

> <CNNscore>
0.5745967627

> <CNNaffinity>
6.5195641518

> <CNN_VS>
3.7461204529

> <CNNaffinity_variance>
0.1176529154

$$$$
[H]OC(=O)[C@@]([H])(N([H])C(=O)[C@](c1c([H])c([H])c([H])c([H])c1[H])(C([H])([H])[H])C([H])([H])c1c([H])c([H])c([H])c(O[H])c1[H])C([H])([H])c1c([H])c([H])c([H])c([H])c1[H]


 33 35  0  0  0  0  0  0  0  0999 V2000
  -17.9526   15.0472  -18.8131 C   0  0  0  0  0  0  0  0  0  0  0  0
  -18.4080   15.5041  -20.1898 C   0  0  0  0  0  0  0  0  0  0  0  0
  -19.6189   16.2572  -19.9705 C   0  0  0  0  0  0  0  0  0  0  0  0
  -19.8395   17.3958  -19.2744 C   0  0  0  0  0  0  0  0  0  0  0  0
  -21.0726   17.9821  -19.0962 C   0  0  0  0  0  0  0  0  0  0  0  0
  -22.2015   17.4173  -19.6427 C   0  0  0  0  0  0  0  0  0  0  0  0
  -22.0201   16.2501  -20.3615 C   0  0  0  0  0  0  0  0  0  0  0  0
  -20.7881   15.6843  -20.5257 C   0  0  0  0  0  0  0  0  0  0  0  0
  -17.3094   16.0240  -20.9426 C   0  0  0  0  0  0  0  0  0  0  0  0
  -16.2063   16.4673  -20.5300 O   0  0  0  0  0  0  0  0  0  0  0  0
  -17.4483   16.0719  -22.3916 N   0  0  0  0  0  0  0  0  0  0  0  0
  -18.3269   15.6784  -22.8500 H   0  0  0  0  0  0  0  0  0  0  0  0
  -16.4661   16.6314  -23.2443 C   0  0  0  0  0  0  0  0  0  0  0  0
  -17.2649   17.6676  -24.0777 C   0  0  0  0  0  0  0  0  0  0  0  0
  -16.6117   18.1261  -25.1993 O   0  0  0  0  0  0  0  0  0  0  0  0
  -18.3841   18.0248  -23.7667 O   0  0  0  0  0  0  0  0  0  0  0  0
  -16.4367   17.4583  -25.9914 H   0  0  0  0  0  0  0  0  0  0  0  0
  -15.7283   15.8324  -24.1960 C   0  0  0  0  0  0  0  0  0  0  0  0
  -16.3143   14.7562  -24.9563 C   0  0  0  0  0  0  0  0  0  0  0  0
  -16.7988   13.6561  -24.1967 C   0  0  0  0  0  0  0  0  0  0  0  0
  -17.3902   12.5805  -24.7715 C   0  0  0  0  0  0  0  0  0  0  0  0
  -17.5549   12.5106  -26.1540 C   0  0  0  0  0  0  0  0  0  0  0  0
  -17.0850   13.5768  -26.8646 C   0  0  0  0  0  0  0  0  0  0  0  0
  -16.4633   14.6970  -26.2992 C   0  0  0  0  0  0  0  0  0  0  0  0
  -18.8243   14.1892  -20.9318 C   0  0  0  0  0  0  0  0  0  0  0  0
  -18.3736   12.9857  -20.1977 C   0  0  0  0  0  0  0  0  0  0  0  0
  -19.1373   12.5444  -19.1035 C   0  0  0  0  0  0  0  0  0  0  0  0
  -18.7467   11.4304  -18.3990 C   0  0  0  0  0  0  0  0  0  0  0  0
  -17.6305   10.7326  -18.7314 C   0  0  0  0  0  0  0  0  0  0  0  0
  -16.8502   11.1190  -19.7858 C   0  0  0  0  0  0  0  0  0  0  0  0
  -15.7091   10.3959  -20.1200 O   0  0  0  0  0  0  0  0  0  0  0  0
  -17.2598   12.2584  -20.4954 C   0  0  0  0  0  0  0  0  0  0  0  0
  -15.1351   10.7011  -20.9123 H   0  0  0  0  0  0  0  0  0  0  0  0
  1  2  1  0  0  0
  2 25  1  0  0  0
 25 26  1  0  0  0
 26 27  2  0  0  0
 27 28  1  0  0  0
 28 29  2  0  0  0
 29 30  1  0  0  0
 30 31  1  0  0  0
 30 32  2  0  0  0
  2  9  1  0  0  0
  9 10  2  0  0  0
  9 11  1  0  0  0
 11 13  1  0  0  0
 13 18  1  0  0  0
 18 19  1  0  0  0
 19 20  2  0  0  0
 20 21  1  0  0  0
 21 22  2  0  0  0
 22 23  1  0  0  0
 23 24  2  0  0  0
 13 14  1  0  0  0
 14 15  1  0  0  0
 14 16  2  0  0  0
  2  3  1  0  0  0
  3  4  2  0  0  0
  4  5  1  0  0  0
  5  6  2  0  0  0
  6  7  1  0  0  0
  7  8  2  0  0  0
 32 26  1  0  0  0
 24 19  1  0  0  0
  8  3  1  0  0  0
 31 33  1  0  0  0
 11 12  1  0  0  0
 15 17  1  0  0  0
M  END
> <minimizedAffinity>
-8.71744

> <CNNscore>
0.5198385715

> <CNNaffinity>
6.6247329712

> <CNN_VS>
3.4437916279

> <CNNaffinity_variance>
0.1124722213

$$$$
[H]OC(=O)[C@@]([H])(N([H])C(=O)[C@](c1c([H])c([H])c([H])c([H])c1[H])(C([H])([H])[H])C([H])([H])c1c([H])c([H])c([H])c(O[H])c1[H])C([H])([H])c1c([H])c([H])c([H])c([H])c1[H]


 33 35  0  0  0  0  0  0  0  0999 V2000
  -17.9668   13.6820  -24.0696 C   0  0  0  0  0  0  0  0  0  0  0  0
  -17.1549   14.9504  -23.8611 C   0  0  0  0  0  0  0  0  0  0  0  0
  -16.4047   15.1385  -25.0790 C   0  0  0  0  0  0  0  0  0  0  0  0
  -15.2567   15.8135  -25.3164 C   0  0  0  0  0  0  0  0  0  0  0  0
  -14.6741   15.9627  -26.5550 C   0  0  0  0  0  0  0  0  0  0  0  0
  -15.2529   15.4067  -27.6722 C   0  0  0  0  0  0  0  0  0  0  0  0
  -16.4300   14.7090  -27.4735 C   0  0  0  0  0  0  0  0  0  0  0  0
  -16.9920   14.5734  -26.2363 C   0  0  0  0  0  0  0  0  0  0  0  0
  -17.9628   15.9840  -23.2928 C   0  0  0  0  0  0  0  0  0  0  0  0
  -19.0199   16.4992  -23.7410 O   0  0  0  0  0  0  0  0  0  0  0  0
  -17.5338   16.5527  -22.0225 N   0  0  0  0  0  0  0  0  0  0  0  0
  -16.6740   16.1569  -21.5316 H   0  0  0  0  0  0  0  0  0  0  0  0
  -18.2025   17.6303  -21.3927 C   0  0  0  0  0  0  0  0  0  0  0  0
  -17.0971   18.2718  -20.5135 C   0  0  0  0  0  0  0  0  0  0  0  0
  -17.5625   19.1392  -19.5513 O   0  0  0  0  0  0  0  0  0  0  0  0
  -15.9196   18.0082  -20.6587 O   0  0  0  0  0  0  0  0  0  0  0  0
  -18.1285   18.7543  -18.7541 H   0  0  0  0  0  0  0  0  0  0  0  0
  -19.3401   17.4279  -20.5247 C   0  0  0  0  0  0  0  0  0  0  0  0
  -19.6010   16.1922  -19.8285 C   0  0  0  0  0  0  0  0  0  0  0  0
  -20.6200   15.3724  -20.3866 C   0  0  0  0  0  0  0  0  0  0  0  0
  -20.9633   14.1750  -19.8521 C   0  0  0  0  0  0  0  0  0  0  0  0
  -20.3164   13.6883  -18.7173 C   0  0  0  0  0  0  0  0  0  0  0  0
  -19.3407   14.4890  -18.1982 C   0  0  0  0  0  0  0  0  0  0  0  0
  -18.9702   15.7330  -18.7238 C   0  0  0  0  0  0  0  0  0  0  0  0
  -16.1179   14.5845  -22.7460 C   0  0  0  0  0  0  0  0  0  0  0  0
  -16.4462   13.2930  -22.1020 C   0  0  0  0  0  0  0  0  0  0  0  0
  -17.6088   13.2137  -21.3163 C   0  0  0  0  0  0  0  0  0  0  0  0
  -17.9428   12.0295  -20.7031 C   0  0  0  0  0  0  0  0  0  0  0  0
  -17.1743   10.9180  -20.8341 C   0  0  0  0  0  0  0  0  0  0  0  0
  -16.0319   10.9401  -21.5853 C   0  0  0  0  0  0  0  0  0  0  0  0
  -15.2519    9.7949  -21.7152 O   0  0  0  0  0  0  0  0  0  0  0  0
  -15.7021   12.1555  -22.2046 C   0  0  0  0  0  0  0  0  0  0  0  0
  -14.3980    9.8303  -22.2807 H   0  0  0  0  0  0  0  0  0  0  0  0
  1  2  1  0  0  0
  2 25  1  0  0  0
 25 26  1  0  0  0
 26 27  2  0  0  0
 27 28  1  0  0  0
 28 29  2  0  0  0
 29 30  1  0  0  0
 30 31  1  0  0  0
 30 32  2  0  0  0
  2  9  1  0  0  0
  9 10  2  0  0  0
  9 11  1  0  0  0
 11 13  1  0  0  0
 13 18  1  0  0  0
 18 19  1  0  0  0
 19 20  2  0  0  0
 20 21  1  0  0  0
 21 22  2  0  0  0
 22 23  1  0  0  0
 23 24  2  0  0  0
 13 14  1  0  0  0
 14 15  1  0  0  0
 14 16  2  0  0  0
  2  3  1  0  0  0
  3  4  2  0  0  0
  4  5  1  0  0  0
  5  6  2  0  0  0
  6  7  1  0  0  0
  7  8  2  0  0  0
 32 26  1  0  0  0
 24 19  1  0  0  0
  8  3  1  0  0  0
 31 33  1  0  0  0
 11 12  1  0  0  0
 15 17  1  0  0  0
M  END
> <minimizedAffinity>
-8.16458

> <CNNscore>
0.4214151204

> <CNNaffinity>
6.6533684731

> <CNN_VS>
2.8038301468

> <CNNaffinity_variance>
0.0952637047

$$$$
[H]OC(=O)[C@@]([H])(N([H])C(=O)[C@](c1c([H])c([H])c([H])c([H])c1[H])(C([H])([H])[H])C([H])([H])c1c([H])c([H])c([H])c(O[H])c1[H])C([H])([H])c1c([H])c([H])c([H])c([H])c1[H]


 33 35  0  0  0  0  0  0  0  0999 V2000
  -19.8905   13.3906  -20.4433 C   0  0  0  0  0  0  0  0  0  0  0  0
  -18.9032   14.5377  -20.5874 C   0  0  0  0  0  0  0  0  0  0  0  0
  -18.3648   14.4245  -21.9212 C   0  0  0  0  0  0  0  0  0  0  0  0
  -17.5625   13.4870  -22.4753 C   0  0  0  0  0  0  0  0  0  0  0  0
  -17.0701   13.5335  -23.7604 C   0  0  0  0  0  0  0  0  0  0  0  0
  -17.3821   14.5841  -24.5917 C   0  0  0  0  0  0  0  0  0  0  0  0
  -18.1993   15.5663  -24.0630 C   0  0  0  0  0  0  0  0  0  0  0  0
  -18.6765   15.5014  -22.7851 C   0  0  0  0  0  0  0  0  0  0  0  0
  -19.4619   15.7556  -20.0888 C   0  0  0  0  0  0  0  0  0  0  0  0
  -18.8713   16.7724  -19.6406 O   0  0  0  0  0  0  0  0  0  0  0  0
  -20.9134   15.8739  -20.0728 N   0  0  0  0  0  0  0  0  0  0  0  0
  -21.5107   15.0865  -20.4731 H   0  0  0  0  0  0  0  0  0  0  0  0
  -21.5918   16.9950  -19.5363 C   0  0  0  0  0  0  0  0  0  0  0  0
  -22.1280   16.4718  -18.1780 C   0  0  0  0  0  0  0  0  0  0  0  0
  -22.6570   17.4434  -17.3588 O   0  0  0  0  0  0  0  0  0  0  0  0
  -22.0960   15.2942  -17.8792 O   0  0  0  0  0  0  0  0  0  0  0  0
  -23.5450   17.9231  -17.6509 H   0  0  0  0  0  0  0  0  0  0  0  0
  -22.7181   17.6052  -20.2054 C   0  0  0  0  0  0  0  0  0  0  0  0
  -22.8263   17.7202  -21.6388 C   0  0  0  0  0  0  0  0  0  0  0  0
  -21.6824   18.2402  -22.3046 C   0  0  0  0  0  0  0  0  0  0  0  0
  -21.6304   18.3892  -23.6508 C   0  0  0  0  0  0  0  0  0  0  0  0
  -22.7130   18.0277  -24.4511 C   0  0  0  0  0  0  0  0  0  0  0  0
  -23.8000   17.5293  -23.7934 C   0  0  0  0  0  0  0  0  0  0  0  0
  -23.8851   17.3713  -22.4045 C   0  0  0  0  0  0  0  0  0  0  0  0
  -17.7375   14.1904  -19.6009 C   0  0  0  0  0  0  0  0  0  0  0  0
  -17.7962   12.7766  -19.1673 C   0  0  0  0  0  0  0  0  0  0  0  0
  -18.7498   12.4121  -18.2013 C   0  0  0  0  0  0  0  0  0  0  0  0
  -18.8309   11.1075  -17.7755 C   0  0  0  0  0  0  0  0  0  0  0  0
  -18.0072   10.1458  -18.2655 C   0  0  0  0  0  0  0  0  0  0  0  0
  -17.0605   10.4458  -19.2054 C   0  0  0  0  0  0  0  0  0  0  0  0
  -16.2223    9.4526  -19.7031 O   0  0  0  0  0  0  0  0  0  0  0  0
  -16.9878   11.7814  -19.6302 C   0  0  0  0  0  0  0  0  0  0  0  0
  -15.5172    9.6960  -20.4058 H   0  0  0  0  0  0  0  0  0  0  0  0
  1  2  1  0  0  0
  2 25  1  0  0  0
 25 26  1  0  0  0
 26 27  2  0  0  0
 27 28  1  0  0  0
 28 29  2  0  0  0
 29 30  1  0  0  0
 30 31  1  0  0  0
 30 32  2  0  0  0
  2  9  1  0  0  0
  9 10  2  0  0  0
  9 11  1  0  0  0
 11 13  1  0  0  0
 13 18  1  0  0  0
 18 19  1  0  0  0
 19 20  2  0  0  0
 20 21  1  0  0  0
 21 22  2  0  0  0
 22 23  1  0  0  0
 23 24  2  0  0  0
 13 14  1  0  0  0
 14 15  1  0  0  0
 14 16  2  0  0  0
  2  3  1  0  0  0
  3  4  2  0  0  0
  4  5  1  0  0  0
  5  6  2  0  0  0
  6  7  1  0  0  0
  7  8  2  0  0  0
 32 26  1  0  0  0
 24 19  1  0  0  0
  8  3  1  0  0  0
 31 33  1  0  0  0
 11 12  1  0  0  0
 15 17  1  0  0  0
M  END
> <minimizedAffinity>
-7.96090

> <CNNscore>
0.3387582004

> <CNNaffinity>
5.9649696350

> <CNN_VS>
2.0206823349

> <CNNaffinity_variance>
0.0598217361

$$$$
[H]OC(=O)[C@@]([H])(N([H])C(=O)[C@](c1c([H])c([H])c([H])c([H])c1[H])(C([H])([H])[H])C([H])([H])c1c([H])c([H])c([H])c(O[H])c1[H])C([H])([H])c1c([H])c([H])c([H])c([H])c1[H]


 33 35  0  0  0  0  0  0  0  0999 V2000
  -18.5658   15.0029  -23.9109 C   0  0  0  0  0  0  0  0  0  0  0  0
  -17.5690   16.1180  -23.6377 C   0  0  0  0  0  0  0  0  0  0  0  0
  -16.4213   15.8264  -24.4618 C   0  0  0  0  0  0  0  0  0  0  0  0
  -16.2576   15.8822  -25.8034 C   0  0  0  0  0  0  0  0  0  0  0  0
  -15.1109   15.5153  -26.4715 C   0  0  0  0  0  0  0  0  0  0  0  0
  -14.0161   15.0512  -25.7799 C   0  0  0  0  0  0  0  0  0  0  0  0
  -14.1424   14.9767  -24.4050 C   0  0  0  0  0  0  0  0  0  0  0  0
  -15.2893   15.3450  -23.7616 C   0  0  0  0  0  0  0  0  0  0  0  0
  -18.2158   17.3929  -23.6502 C   0  0  0  0  0  0  0  0  0  0  0  0
  -17.7802   18.4976  -24.0669 O   0  0  0  0  0  0  0  0  0  0  0  0
  -19.5651   17.4692  -23.1071 N   0  0  0  0  0  0  0  0  0  0  0  0
  -20.0475   16.5808  -22.7679 H   0  0  0  0  0  0  0  0  0  0  0  0
  -20.2850   18.6831  -22.9930 C   0  0  0  0  0  0  0  0  0  0  0  0
  -19.9667   19.1529  -21.5493 C   0  0  0  0  0  0  0  0  0  0  0  0
  -20.3333   18.2641  -20.5641 O   0  0  0  0  0  0  0  0  0  0  0  0
  -19.4202   20.2137  -21.3190 O   0  0  0  0  0  0  0  0  0  0  0  0
  -19.8262   17.3464  -20.4962 H   0  0  0  0  0  0  0  0  0  0  0  0
  -21.7229   18.7401  -23.1269 C   0  0  0  0  0  0  0  0  0  0  0  0
  -22.4144   18.5517  -24.3782 C   0  0  0  0  0  0  0  0  0  0  0  0
  -22.5672   19.7158  -25.1806 C   0  0  0  0  0  0  0  0  0  0  0  0
  -23.1798   19.6898  -26.3893 C   0  0  0  0  0  0  0  0  0  0  0  0
  -23.6889   18.4994  -26.9059 C   0  0  0  0  0  0  0  0  0  0  0  0
  -23.5307   17.3937  -26.1217 C   0  0  0  0  0  0  0  0  0  0  0  0
  -22.9096   17.3918  -24.8666 C   0  0  0  0  0  0  0  0  0  0  0  0
  -17.1225   15.9023  -22.1522 C   0  0  0  0  0  0  0  0  0  0  0  0
  -17.8953   14.8186  -21.5048 C   0  0  0  0  0  0  0  0  0  0  0  0
  -17.3395   13.5282  -21.4720 C   0  0  0  0  0  0  0  0  0  0  0  0
  -18.0310   12.4983  -20.8793 C   0  0  0  0  0  0  0  0  0  0  0  0
  -19.2514   12.6909  -20.3165 C   0  0  0  0  0  0  0  0  0  0  0  0
  -19.8392   13.9255  -20.3221 C   0  0  0  0  0  0  0  0  0  0  0  0
  -21.0895   14.1132  -19.7407 O   0  0  0  0  0  0  0  0  0  0  0  0
  -19.1230   14.9674  -20.9314 C   0  0  0  0  0  0  0  0  0  0  0  0
  -21.5157   15.0450  -19.7557 H   0  0  0  0  0  0  0  0  0  0  0  0
  1  2  1  0  0  0
  2 25  1  0  0  0
 25 26  1  0  0  0
 26 27  2  0  0  0
 27 28  1  0  0  0
 28 29  2  0  0  0
 29 30  1  0  0  0
 30 31  1  0  0  0
 30 32  2  0  0  0
  2  9  1  0  0  0
  9 10  2  0  0  0
  9 11  1  0  0  0
 11 13  1  0  0  0
 13 18  1  0  0  0
 18 19  1  0  0  0
 19 20  2  0  0  0
 20 21  1  0  0  0
 21 22  2  0  0  0
 22 23  1  0  0  0
 23 24  2  0  0  0
 13 14  1  0  0  0
 14 15  1  0  0  0
 14 16  2  0  0  0
  2  3  1  0  0  0
  3  4  2  0  0  0
  4  5  1  0  0  0
  5  6  2  0  0  0
  6  7  1  0  0  0
  7  8  2  0  0  0
 32 26  1  0  0  0
 24 19  1  0  0  0
  8  3  1  0  0  0
 31 33  1  0  0  0
 11 12  1  0  0  0
 15 17  1  0  0  0
M  END
> <minimizedAffinity>
-8.70440

> <CNNscore>
0.2870313823

> <CNNaffinity>
5.8965044022

> <CNN_VS>
1.6924817562

> <CNNaffinity_variance>
0.2174303830

$$$$
[H]OC(=O)[C@@]([H])(N([H])C(=O)[C@](c1c([H])c([H])c([H])c([H])c1[H])(C([H])([H])[H])C([H])([H])c1c([H])c([H])c([H])c(O[H])c1[H])C([H])([H])c1c([H])c([H])c([H])c([H])c1[H]


 33 35  0  0  0  0  0  0  0  0999 V2000
  -16.0488   15.1425  -22.3580 C   0  0  0  0  0  0  0  0  0  0  0  0
  -17.2927   14.3504  -22.7276 C   0  0  0  0  0  0  0  0  0  0  0  0
  -17.5253   13.4509  -21.6239 C   0  0  0  0  0  0  0  0  0  0  0  0
  -18.1346   13.6502  -20.4327 C   0  0  0  0  0  0  0  0  0  0  0  0
  -18.2366   12.7075  -19.4343 C   0  0  0  0  0  0  0  0  0  0  0  0
  -17.7011   11.4514  -19.6004 C   0  0  0  0  0  0  0  0  0  0  0  0
  -17.0671   11.2065  -20.8046 C   0  0  0  0  0  0  0  0  0  0  0  0
  -16.9762   12.1560  -21.7819 C   0  0  0  0  0  0  0  0  0  0  0  0
  -18.3116   15.2128  -23.2396 C   0  0  0  0  0  0  0  0  0  0  0  0
  -19.0863   15.0311  -24.2146 O   0  0  0  0  0  0  0  0  0  0  0  0
  -18.5080   16.4930  -22.5735 N   0  0  0  0  0  0  0  0  0  0  0  0
  -17.9344   16.7292  -21.7063 H   0  0  0  0  0  0  0  0  0  0  0  0
  -19.4308   17.4667  -23.0267 C   0  0  0  0  0  0  0  0  0  0  0  0
  -18.5341   18.6966  -23.3259 C   0  0  0  0  0  0  0  0  0  0  0  0
  -17.6004   18.4967  -24.3174 O   0  0  0  0  0  0  0  0  0  0  0  0
  -18.6664   19.7528  -22.7393 O   0  0  0  0  0  0  0  0  0  0  0  0
  -17.9323   18.3589  -25.3047 H   0  0  0  0  0  0  0  0  0  0  0  0
  -20.5107   17.9485  -22.1959 C   0  0  0  0  0  0  0  0  0  0  0  0
  -20.6787   17.5764  -20.8128 C   0  0  0  0  0  0  0  0  0  0  0  0
  -21.3031   16.3197  -20.5830 C   0  0  0  0  0  0  0  0  0  0  0  0
  -21.5123   15.8293  -19.3369 C   0  0  0  0  0  0  0  0  0  0  0  0
  -21.1120   16.5473  -18.2110 C   0  0  0  0  0  0  0  0  0  0  0  0
  -20.5133   17.7496  -18.4529 C   0  0  0  0  0  0  0  0  0  0  0  0
  -20.2912   18.2847  -19.7278 C   0  0  0  0  0  0  0  0  0  0  0  0
  -16.8583   13.4658  -23.9448 C   0  0  0  0  0  0  0  0  0  0  0  0
  -16.0023   14.2211  -24.8868 C   0  0  0  0  0  0  0  0  0  0  0  0
  -14.6347   14.3518  -24.5903 C   0  0  0  0  0  0  0  0  0  0  0  0
  -13.8113   15.0477  -25.4433 C   0  0  0  0  0  0  0  0  0  0  0  0
  -14.2839   15.6211  -26.5796 C   0  0  0  0  0  0  0  0  0  0  0  0
  -15.6060   15.5262  -26.9153 C   0  0  0  0  0  0  0  0  0  0  0  0
  -16.0804   16.1156  -28.0833 O   0  0  0  0  0  0  0  0  0  0  0  0
  -16.4355   14.8141  -26.0352 C   0  0  0  0  0  0  0  0  0  0  0  0
  -17.0748   16.0358  -28.3181 H   0  0  0  0  0  0  0  0  0  0  0  0
  1  2  1  0  0  0
  2 25  1  0  0  0
 25 26  1  0  0  0
 26 27  2  0  0  0
 27 28  1  0  0  0
 28 29  2  0  0  0
 29 30  1  0  0  0
 30 31  1  0  0  0
 30 32  2  0  0  0
  2  9  1  0  0  0
  9 10  2  0  0  0
  9 11  1  0  0  0
 11 13  1  0  0  0
 13 18  1  0  0  0
 18 19  1  0  0  0
 19 20  2  0  0  0
 20 21  1  0  0  0
 21 22  2  0  0  0
 22 23  1  0  0  0
 23 24  2  0  0  0
 13 14  1  0  0  0
 14 15  1  0  0  0
 14 16  2  0  0  0
  2  3  1  0  0  0
  3  4  2  0  0  0
  4  5  1  0  0  0
  5  6  2  0  0  0
  6  7  1  0  0  0
  7  8  2  0  0  0
 32 26  1  0  0  0
 24 19  1  0  0  0
  8  3  1  0  0  0
 31 33  1  0  0  0
 11 12  1  0  0  0
 15 17  1  0  0  0
M  END
> <minimizedAffinity>
-8.37689

> <CNNscore>
0.2556106448

> <CNNaffinity>
6.0962610245

> <CNN_VS>
1.5582692623

> <CNNaffinity_variance>
0.2638660073

$$$$
[H]OC(=O)[C@@]([H])(N([H])C(=O)[C@](c1c([H])c([H])c([H])c([H])c1[H])(C([H])([H])[H])C([H])([H])c1c([H])c([H])c([H])c(O[H])c1[H])C([H])([H])c1c([H])c([H])c([H])c([H])c1[H]


 33 35  0  0  0  0  0  0  0  0999 V2000
  -18.5879   15.8511  -23.2396 C   0  0  0  0  0  0  0  0  0  0  0  0
  -18.3735   16.3866  -21.8330 C   0  0  0  0  0  0  0  0  0  0  0  0
  -18.5211   17.8182  -21.9333 C   0  0  0  0  0  0  0  0  0  0  0  0
  -18.3970   18.7886  -20.9992 C   0  0  0  0  0  0  0  0  0  0  0  0
  -18.6259   20.1281  -21.2216 C   0  0  0  0  0  0  0  0  0  0  0  0
  -19.0101   20.5754  -22.4644 C   0  0  0  0  0  0  0  0  0  0  0  0
  -19.1506   19.6144  -23.4486 C   0  0  0  0  0  0  0  0  0  0  0  0
  -18.9193   18.2904  -23.2069 C   0  0  0  0  0  0  0  0  0  0  0  0
  -19.0966   15.6080  -20.8765 C   0  0  0  0  0  0  0  0  0  0  0  0
  -20.3222   15.3238  -20.8512 O   0  0  0  0  0  0  0  0  0  0  0  0
  -18.3497   15.0547  -19.7553 N   0  0  0  0  0  0  0  0  0  0  0  0
  -17.2942   15.1971  -19.7036 H   0  0  0  0  0  0  0  0  0  0  0  0
  -18.9594   14.3303  -18.7024 C   0  0  0  0  0  0  0  0  0  0  0  0
  -18.4054   15.0188  -17.4275 C   0  0  0  0  0  0  0  0  0  0  0  0
  -18.4094   14.2269  -16.3016 O   0  0  0  0  0  0  0  0  0  0  0  0
  -17.9866   16.1596  -17.4374 O   0  0  0  0  0  0  0  0  0  0  0  0
  -17.7683   13.3952  -16.2656 H   0  0  0  0  0  0  0  0  0  0  0  0
  -18.7456   12.9128  -18.5193 C   0  0  0  0  0  0  0  0  0  0  0  0
  -17.9250   12.1115  -19.3936 C   0  0  0  0  0  0  0  0  0  0  0  0
  -16.8807   11.3813  -18.7626 C   0  0  0  0  0  0  0  0  0  0  0  0
  -16.0402   10.5721  -19.4525 C   0  0  0  0  0  0  0  0  0  0  0  0
  -16.1714   10.4164  -20.8316 C   0  0  0  0  0  0  0  0  0  0  0  0
  -17.1804   11.1240  -21.4177 C   0  0  0  0  0  0  0  0  0  0  0  0
  -18.0583   11.9728  -20.7323 C   0  0  0  0  0  0  0  0  0  0  0  0
  -16.8630   16.1107  -21.5243 C   0  0  0  0  0  0  0  0  0  0  0  0
  -16.1462   15.6152  -22.7206 C   0  0  0  0  0  0  0  0  0  0  0  0
  -15.9579   14.2296  -22.8615 C   0  0  0  0  0  0  0  0  0  0  0  0
  -15.2954   13.7355  -23.9601 C   0  0  0  0  0  0  0  0  0  0  0  0
  -14.8101   14.5553  -24.9274 C   0  0  0  0  0  0  0  0  0  0  0  0
  -14.9639   15.9112  -24.8395 C   0  0  0  0  0  0  0  0  0  0  0  0
  -14.4647   16.7430  -25.8373 O   0  0  0  0  0  0  0  0  0  0  0  0
  -15.6409   16.4021  -23.7124 C   0  0  0  0  0  0  0  0  0  0  0  0
  -14.5876   17.7570  -25.7539 H   0  0  0  0  0  0  0  0  0  0  0  0
  1  2  1  0  0  0
  2 25  1  0  0  0
 25 26  1  0  0  0
 26 27  2  0  0  0
 27 28  1  0  0  0
 28 29  2  0  0  0
 29 30  1  0  0  0
 30 31  1  0  0  0
 30 32  2  0  0  0
  2  9  1  0  0  0
  9 10  2  0  0  0
  9 11  1  0  0  0
 11 13  1  0  0  0
 13 18  1  0  0  0
 18 19  1  0  0  0
 19 20  2  0  0  0
 20 21  1  0  0  0
 21 22  2  0  0  0
 22 23  1  0  0  0
 23 24  2  0  0  0
 13 14  1  0  0  0
 14 15  1  0  0  0
 14 16  2  0  0  0
  2  3  1  0  0  0
  3  4  2  0  0  0
  4  5  1  0  0  0
  5  6  2  0  0  0
  6  7  1  0  0  0
  7  8  2  0  0  0
 32 26  1  0  0  0
 24 19  1  0  0  0
  8  3  1  0  0  0
 31 33  1  0  0  0
 11 12  1  0  0  0
 15 17  1  0  0  0
M  END
> <minimizedAffinity>
-9.07127

> <CNNscore>
0.2271735817

> <CNNaffinity>
5.8121166229

> <CNN_VS>
1.3203593493

> <CNNaffinity_variance>
0.4782683849

$$$$
[H]OC(=O)[C@@]([H])(N([H])C(=O)[C@](c1c([H])c([H])c([H])c([H])c1[H])(C([H])([H])[H])C([H])([H])c1c([H])c([H])c([H])c(O[H])c1[H])C([H])([H])c1c([H])c([H])c([H])c([H])c1[H]


 33 35  0  0  0  0  0  0  0  0999 V2000
  -16.1685   16.6919  -21.5694 C   0  0  0  0  0  0  0  0  0  0  0  0
  -16.9004   16.3599  -22.8600 C   0  0  0  0  0  0  0  0  0  0  0  0
  -15.8755   15.9947  -23.8074 C   0  0  0  0  0  0  0  0  0  0  0  0
  -15.5252   16.5494  -24.9903 C   0  0  0  0  0  0  0  0  0  0  0  0
  -14.5531   16.0574  -25.8323 C   0  0  0  0  0  0  0  0  0  0  0  0
  -13.8500   14.9222  -25.5016 C   0  0  0  0  0  0  0  0  0  0  0  0
  -14.1787   14.3223  -24.2999 C   0  0  0  0  0  0  0  0  0  0  0  0
  -15.1471   14.8262  -23.4794 C   0  0  0  0  0  0  0  0  0  0  0  0
  -18.0350   15.5291  -22.6022 C   0  0  0  0  0  0  0  0  0  0  0  0
  -18.8488   15.0247  -23.4189 O   0  0  0  0  0  0  0  0  0  0  0  0
  -18.3300   15.2035  -21.2136 N   0  0  0  0  0  0  0  0  0  0  0  0
  -17.6762   15.5426  -20.4426 H   0  0  0  0  0  0  0  0  0  0  0  0
  -19.4646   14.4535  -20.8196 C   0  0  0  0  0  0  0  0  0  0  0  0
  -20.2633   15.4501  -19.9392 C   0  0  0  0  0  0  0  0  0  0  0  0
  -19.4980   16.1660  -19.0466 O   0  0  0  0  0  0  0  0  0  0  0  0
  -21.4651   15.5931  -20.0499 O   0  0  0  0  0  0  0  0  0  0  0  0
  -18.8135   16.8710  -19.4186 H   0  0  0  0  0  0  0  0  0  0  0  0
  -19.3523   13.2362  -20.0488 C   0  0  0  0  0  0  0  0  0  0  0  0
  -18.2265   12.3392  -20.1361 C   0  0  0  0  0  0  0  0  0  0  0  0
  -17.6748   11.9184  -18.8948 C   0  0  0  0  0  0  0  0  0  0  0  0
  -16.6263   11.0628  -18.8185 C   0  0  0  0  0  0  0  0  0  0  0  0
  -16.0399   10.5479  -19.9736 C   0  0  0  0  0  0  0  0  0  0  0  0
  -16.5850   10.9624  -21.1541 C   0  0  0  0  0  0  0  0  0  0  0  0
  -17.6621   11.8506  -21.2638 C   0  0  0  0  0  0  0  0  0  0  0  0
  -17.4966   17.7242  -23.3458 C   0  0  0  0  0  0  0  0  0  0  0  0
  -18.4433   18.2860  -22.3566 C   0  0  0  0  0  0  0  0  0  0  0  0
  -17.9212   18.9455  -21.2306 C   0  0  0  0  0  0  0  0  0  0  0  0
  -18.7725   19.4783  -20.2918 C   0  0  0  0  0  0  0  0  0  0  0  0
  -20.1210   19.3864  -20.4194 C   0  0  0  0  0  0  0  0  0  0  0  0
  -20.6821   18.7540  -21.4942 C   0  0  0  0  0  0  0  0  0  0  0  0
  -22.0656   18.6670  -21.6171 O   0  0  0  0  0  0  0  0  0  0  0  0
  -19.8017   18.2138  -22.4442 C   0  0  0  0  0  0  0  0  0  0  0  0
  -22.4686   18.1878  -22.4284 H   0  0  0  0  0  0  0  0  0  0  0  0
  1  2  1  0  0  0
  2 25  1  0  0  0
 25 26  1  0  0  0
 26 27  2  0  0  0
 27 28  1  0  0  0
 28 29  2  0  0  0
 29 30  1  0  0  0
 30 31  1  0  0  0
 30 32  2  0  0  0
  2  9  1  0  0  0
  9 10  2  0  0  0
  9 11  1  0  0  0
 11 13  1  0  0  0
 13 18  1  0  0  0
 18 19  1  0  0  0
 19 20  2  0  0  0
 20 21  1  0  0  0
 21 22  2  0  0  0
 22 23  1  0  0  0
 23 24  2  0  0  0
 13 14  1  0  0  0
 14 15  1  0  0  0
 14 16  2  0  0  0
  2  3  1  0  0  0
  3  4  2  0  0  0
  4  5  1  0  0  0
  5  6  2  0  0  0
  6  7  1  0  0  0
  7  8  2  0  0  0
 32 26  1  0  0  0
 24 19  1  0  0  0
  8  3  1  0  0  0
 31 33  1  0  0  0
 11 12  1  0  0  0
 15 17  1  0  0  0
M  END
> <minimizedAffinity>
-8.11670

> <CNNscore>
0.2210480869

> <CNNaffinity>
5.6716885567

> <CNN_VS>
1.2537158728

> <CNNaffinity_variance>
0.3579301238

$$$$
[H]OC(=O)[C@@]([H])(N([H])C(=O)[C@](c1c([H])c([H])c([H])c([H])c1[H])(C([H])([H])[H])C([H])([H])c1c([H])c([H])c([H])c(O[H])c1[H])C([H])([H])c1c([H])c([H])c([H])c([H])c1[H]


 33 35  0  0  0  0  0  0  0  0999 V2000
  -18.3089   15.3398  -23.7247 C   0  0  0  0  0  0  0  0  0  0  0  0
  -18.2631   15.7836  -22.2713 C   0  0  0  0  0  0  0  0  0  0  0  0
  -18.8500   17.1013  -22.2466 C   0  0  0  0  0  0  0  0  0  0  0  0
  -18.6727   18.1335  -21.3905 C   0  0  0  0  0  0  0  0  0  0  0  0
  -19.3500   19.3308  -21.4514 C   0  0  0  0  0  0  0  0  0  0  0  0
  -20.2874   19.5554  -22.4327 C   0  0  0  0  0  0  0  0  0  0  0  0
  -20.5007   18.5238  -23.3285 C   0  0  0  0  0  0  0  0  0  0  0  0
  -19.8185   17.3433  -23.2500 C   0  0  0  0  0  0  0  0  0  0  0  0
  -18.7017   14.7344  -21.4048 C   0  0  0  0  0  0  0  0  0  0  0  0
  -18.5042   13.4951  -21.4992 O   0  0  0  0  0  0  0  0  0  0  0  0
  -19.4972   15.1080  -20.2435 N   0  0  0  0  0  0  0  0  0  0  0  0
  -19.6856   16.1382  -20.0432 H   0  0  0  0  0  0  0  0  0  0  0  0
  -20.0544   14.1606  -19.3508 C   0  0  0  0  0  0  0  0  0  0  0  0
  -21.2984   14.8931  -18.7832 C   0  0  0  0  0  0  0  0  0  0  0  0
  -21.8066   14.3462  -17.6267 O   0  0  0  0  0  0  0  0  0  0  0  0
  -21.7671   15.8806  -19.3144 O   0  0  0  0  0  0  0  0  0  0  0  0
  -21.2348   14.4015  -16.7470 H   0  0  0  0  0  0  0  0  0  0  0  0
  -19.3259   13.6598  -18.2075 C   0  0  0  0  0  0  0  0  0  0  0  0
  -19.1019   12.2573  -17.9577 C   0  0  0  0  0  0  0  0  0  0  0  0
  -18.0254   11.6667  -18.6749 C   0  0  0  0  0  0  0  0  0  0  0  0
  -17.6845   10.3629  -18.5302 C   0  0  0  0  0  0  0  0  0  0  0  0
  -18.3842    9.5354  -17.6534 C   0  0  0  0  0  0  0  0  0  0  0  0
  -19.4122   10.1215  -16.9734 C   0  0  0  0  0  0  0  0  0  0  0  0
  -19.7918   11.4627  -17.1082 C   0  0  0  0  0  0  0  0  0  0  0  0
  -16.7400   15.9635  -21.9543 C   0  0  0  0  0  0  0  0  0  0  0  0
  -15.8951   15.5492  -23.0967 C   0  0  0  0  0  0  0  0  0  0  0  0
  -15.4732   14.2103  -23.1657 C   0  0  0  0  0  0  0  0  0  0  0  0
  -14.6867   13.7921  -24.2129 C   0  0  0  0  0  0  0  0  0  0  0  0
  -14.2989   14.6435  -25.1967 C   0  0  0  0  0  0  0  0  0  0  0  0
  -14.6794   15.9567  -25.1778 C   0  0  0  0  0  0  0  0  0  0  0  0
  -14.2786   16.8211  -26.1921 O   0  0  0  0  0  0  0  0  0  0  0  0
  -15.4810   16.3705  -24.1027 C   0  0  0  0  0  0  0  0  0  0  0  0
  -14.5717   17.8026  -26.1607 H   0  0  0  0  0  0  0  0  0  0  0  0
  1  2  1  0  0  0
  2 25  1  0  0  0
 25 26  1  0  0  0
 26 27  2  0  0  0
 27 28  1  0  0  0
 28 29  2  0  0  0
 29 30  1  0  0  0
 30 31  1  0  0  0
 30 32  2  0  0  0
  2  9  1  0  0  0
  9 10  2  0  0  0
  9 11  1  0  0  0
 11 13  1  0  0  0
 13 18  1  0  0  0
 18 19  1  0  0  0
 19 20  2  0  0  0
 20 21  1  0  0  0
 21 22  2  0  0  0
 22 23  1  0  0  0
 23 24  2  0  0  0
 13 14  1  0  0  0
 14 15  1  0  0  0
 14 16  2  0  0  0
  2  3  1  0  0  0
  3  4  2  0  0  0
  4  5  1  0  0  0
  5  6  2  0  0  0
  6  7  1  0  0  0
  7  8  2  0  0  0
 32 26  1  0  0  0
 24 19  1  0  0  0
  8  3  1  0  0  0
 31 33  1  0  0  0
 11 12  1  0  0  0
 15 17  1  0  0  0
M  END
> <minimizedAffinity>
-8.45111

> <CNNscore>
0.2184702158

> <CNNaffinity>
5.7596101761

> <CNN_VS>
1.2583032846

> <CNNaffinity_variance>
0.3503093421

$$$$
[H]c1nc(N2C([H])([H])C([H])([H])N(c3nc([H])c(S(=O)(=O)n4c([H])nc5c([H])c([H])c(F)c([H])c54)c([H])c3[H])C([H])([H])C2([H])[H])c([H])c([H])c1C#N


 33 37  0  0  0  0  0  0  0  0999 V2000
  -17.4157   12.4251  -21.6843 C   0  0  0  0  0  0  0  0  0  0  0  0
  -16.7343   11.3825  -21.1341 C   0  0  0  0  0  0  0  0  0  0  0  0
  -17.0738   10.8312  -19.9217 C   0  0  0  0  0  0  0  0  0  0  0  0
  -18.1464   11.3585  -19.2413 C   0  0  0  0  0  0  0  0  0  0  0  0
  -18.8261   12.3859  -19.7726 N   0  0  0  0  0  0  0  0  0  0  0  0
  -18.4948   12.9248  -20.9572 C   0  0  0  0  0  0  0  0  0  0  0  0
  -18.4985   10.7910  -17.9905 N   0  0  0  0  0  0  0  0  0  0  0  0
  -19.1747   11.6558  -17.0315 C   0  0  0  0  0  0  0  0  0  0  0  0
  -20.2596   10.7687  -16.4002 C   0  0  0  0  0  0  0  0  0  0  0  0
  -19.5213    9.7795  -15.6580 N   0  0  0  0  0  0  0  0  0  0  0  0
  -18.7071    8.8684  -16.4410 C   0  0  0  0  0  0  0  0  0  0  0  0
  -18.1925    9.4302  -17.7098 C   0  0  0  0  0  0  0  0  0  0  0  0
  -19.5788    9.6960  -14.2410 C   0  0  0  0  0  0  0  0  0  0  0  0
  -20.1223   10.6715  -13.4457 C   0  0  0  0  0  0  0  0  0  0  0  0
  -20.1547   10.5391  -12.0650 C   0  0  0  0  0  0  0  0  0  0  0  0
  -19.6384    9.4201  -11.4717 C   0  0  0  0  0  0  0  0  0  0  0  0
  -19.0942    8.4451  -12.2798 C   0  0  0  0  0  0  0  0  0  0  0  0
  -19.0778    8.6016  -13.6064 N   0  0  0  0  0  0  0  0  0  0  0  0
  -19.6760    9.2922  -10.0478 C   0  0  0  0  0  0  0  0  0  0  0  0
  -19.6978    9.2001   -8.8924 N   0  0  0  0  0  0  0  0  0  0  0  0
  -16.9833   13.1264  -23.2284 S   0  0  0  0  0  0  0  0  0  0  0  0
  -17.6176   12.3192  -24.3197 O   0  0  0  0  0  0  0  0  0  0  0  0
  -15.4952   12.9211  -23.3685 O   0  0  0  0  0  0  0  0  0  0  0  0
  -15.5739   17.2097  -19.6360 F   0  0  0  0  0  0  0  0  0  0  0  0
  -16.3141   17.1293  -20.7907 C   0  0  0  0  0  0  0  0  0  0  0  0
  -16.9293   18.2362  -21.3167 C   0  0  0  0  0  0  0  0  0  0  0  0
  -17.6645   18.1295  -22.4739 C   0  0  0  0  0  0  0  0  0  0  0  0
  -17.7744   16.8940  -23.0973 C   0  0  0  0  0  0  0  0  0  0  0  0
  -18.4120   16.5053  -24.2256 N   0  0  0  0  0  0  0  0  0  0  0  0
  -18.2117   15.1999  -24.4112 C   0  0  0  0  0  0  0  0  0  0  0  0
  -17.4326   14.7583  -23.3782 N   0  0  0  0  0  0  0  0  0  0  0  0
  -17.1551   15.7918  -22.5622 C   0  0  0  0  0  0  0  0  0  0  0  0
  -16.4080   15.8924  -21.3905 C   0  0  0  0  0  0  0  0  0  0  0  0
 24 25  1  0  0  0
 25 26  2  0  0  0
 26 27  1  0  0  0
 27 28  2  0  0  0
 28 29  1  0  0  0
 29 30  2  0  0  0
 30 31  1  0  0  0
 31 21  1  0  0  0
 21 22  2  0  0  0
 21 23  2  0  0  0
 21  1  1  0  0  0
  1  2  2  0  0  0
  2  3  1  0  0  0
  3  4  2  0  0  0
  4  5  1  0  0  0
  5  6  2  0  0  0
  4  7  1  0  0  0
  7  8  1  0  0  0
  8  9  1  0  0  0
  9 10  1  0  0  0
 10 11  1  0  0  0
 11 12  1  0  0  0
 10 13  1  0  0  0
 13 14  2  0  0  0
 14 15  1  0  0  0
 15 16  2  0  0  0
 16 17  1  0  0  0
 17 18  2  0  0  0
 16 19  1  0  0  0
 19 20  3  0  0  0
 31 32  1  0  0  0
 32 33  2  0  0  0
 33 25  1  0  0  0
 32 28  1  0  0  0
  6  1  1  0  0  0
 12  7  1  0  0  0
 18 13  1  0  0  0
M  END
> <minimizedAffinity>
-8.47963

> <CNNscore>
0.2987087071

> <CNNaffinity>
6.5456290245

> <CNN_VS>
1.9552364349

> <CNNaffinity_variance>
0.1876306981

$$$$
[H]c1nc(N2C([H])([H])C([H])([H])N(c3nc([H])c(S(=O)(=O)n4c([H])nc5c([H])c([H])c(F)c([H])c54)c([H])c3[H])C([H])([H])C2([H])[H])c([H])c([H])c1C#N


 33 37  0  0  0  0  0  0  0  0999 V2000
  -17.9801   15.5677  -21.5183 C   0  0  0  0  0  0  0  0  0  0  0  0
  -17.2227   16.0301  -20.4854 C   0  0  0  0  0  0  0  0  0  0  0  0
  -17.7712   16.5587  -19.3414 C   0  0  0  0  0  0  0  0  0  0  0  0
  -19.1415   16.6205  -19.2417 C   0  0  0  0  0  0  0  0  0  0  0  0
  -19.8990   16.1683  -20.2523 N   0  0  0  0  0  0  0  0  0  0  0  0
  -19.3635   15.6517  -21.3703 C   0  0  0  0  0  0  0  0  0  0  0  0
  -19.7094   17.1651  -18.0621 N   0  0  0  0  0  0  0  0  0  0  0  0
  -19.1267   16.7561  -16.7900 C   0  0  0  0  0  0  0  0  0  0  0  0
  -19.0900   18.0394  -15.9447 C   0  0  0  0  0  0  0  0  0  0  0  0
  -20.4770   18.3520  -15.7144 N   0  0  0  0  0  0  0  0  0  0  0  0
  -21.2569   18.7028  -16.8868 C   0  0  0  0  0  0  0  0  0  0  0  0
  -20.8027   18.0716  -18.1460 C   0  0  0  0  0  0  0  0  0  0  0  0
  -21.0565   18.3178  -14.4177 C   0  0  0  0  0  0  0  0  0  0  0  0
  -20.4738   18.8811  -13.3120 C   0  0  0  0  0  0  0  0  0  0  0  0
  -21.0839   18.8207  -12.0674 C   0  0  0  0  0  0  0  0  0  0  0  0
  -22.2895   18.1905  -11.9253 C   0  0  0  0  0  0  0  0  0  0  0  0
  -22.8673   17.6274  -13.0428 C   0  0  0  0  0  0  0  0  0  0  0  0
  -22.2549   17.7022  -14.2278 N   0  0  0  0  0  0  0  0  0  0  0  0
  -22.9111   18.1331  -10.6386 C   0  0  0  0  0  0  0  0  0  0  0  0
  -23.4090   18.0735   -9.5934 N   0  0  0  0  0  0  0  0  0  0  0  0
  -17.2812   14.8944  -22.9747 S   0  0  0  0  0  0  0  0  0  0  0  0
  -16.3024   15.8781  -23.5396 O   0  0  0  0  0  0  0  0  0  0  0  0
  -18.4117   14.8118  -23.9705 O   0  0  0  0  0  0  0  0  0  0  0  0
  -18.5178   11.2815  -18.8538 F   0  0  0  0  0  0  0  0  0  0  0  0
  -17.6157   11.3193  -19.8893 C   0  0  0  0  0  0  0  0  0  0  0  0
  -16.7251   10.2962  -20.0911 C   0  0  0  0  0  0  0  0  0  0  0  0
  -15.8321   10.3579  -21.1350 C   0  0  0  0  0  0  0  0  0  0  0  0
  -15.8449   11.4628  -21.9754 C   0  0  0  0  0  0  0  0  0  0  0  0
  -15.1033   11.7797  -23.0618 N   0  0  0  0  0  0  0  0  0  0  0  0
  -15.5052   12.9605  -23.5340 C   0  0  0  0  0  0  0  0  0  0  0  0
  -16.5200   13.3954  -22.7277 N   0  0  0  0  0  0  0  0  0  0  0  0
  -16.7401   12.4819  -21.7643 C   0  0  0  0  0  0  0  0  0  0  0  0
  -17.6483   12.4261  -20.7092 C   0  0  0  0  0  0  0  0  0  0  0  0
 24 25  1  0  0  0
 25 26  2  0  0  0
 26 27  1  0  0  0
 27 28  2  0  0  0
 28 29  1  0  0  0
 29 30  2  0  0  0
 30 31  1  0  0  0
 31 21  1  0  0  0
 21 22  2  0  0  0
 21 23  2  0  0  0
 21  1  1  0  0  0
  1  2  2  0  0  0
  2  3  1  0  0  0
  3  4  2  0  0  0
  4  5  1  0  0  0
  5  6  2  0  0  0
  4  7  1  0  0  0
  7  8  1  0  0  0
  8  9  1  0  0  0
  9 10  1  0  0  0
 10 11  1  0  0  0
 11 12  1  0  0  0
 10 13  1  0  0  0
 13 14  2  0  0  0
 14 15  1  0  0  0
 15 16  2  0  0  0
 16 17  1  0  0  0
 17 18  2  0  0  0
 16 19  1  0  0  0
 19 20  3  0  0  0
 31 32  1  0  0  0
 32 33  2  0  0  0
 33 25  1  0  0  0
 32 28  1  0  0  0
  6  1  1  0  0  0
 12  7  1  0  0  0
 18 13  1  0  0  0
M  END
> <minimizedAffinity>
-8.02712

> <CNNscore>
0.2627436519

> <CNNaffinity>
6.3942093849

> <CNN_VS>
1.6800379753

> <CNNaffinity_variance>
0.1251943558

$$$$
[H]c1nc(N2C([H])([H])C([H])([H])N(c3nc([H])c(S(=O)(=O)n4c([H])nc5c([H])c([H])c(F)c([H])c54)c([H])c3[H])C([H])([H])C2([H])[H])c([H])c([H])c1C#N


 33 37  0  0  0  0  0  0  0  0999 V2000
  -17.1853   12.5729  -21.9431 C   0  0  0  0  0  0  0  0  0  0  0  0
  -18.0694   13.2861  -21.1923 C   0  0  0  0  0  0  0  0  0  0  0  0
  -18.5194   12.8554  -19.9671 C   0  0  0  0  0  0  0  0  0  0  0  0
  -18.0539   11.6544  -19.4851 C   0  0  0  0  0  0  0  0  0  0  0  0
  -17.1824   10.9421  -20.2152 N   0  0  0  0  0  0  0  0  0  0  0  0
  -16.7426   11.3625  -21.4124 C   0  0  0  0  0  0  0  0  0  0  0  0
  -18.5165   11.2085  -18.2212 N   0  0  0  0  0  0  0  0  0  0  0  0
  -19.1289   12.2005  -17.3461 C   0  0  0  0  0  0  0  0  0  0  0  0
  -20.3304   11.4788  -16.7152 C   0  0  0  0  0  0  0  0  0  0  0  0
  -19.7374   10.4633  -15.8836 N   0  0  0  0  0  0  0  0  0  0  0  0
  -19.0000    9.4213  -16.5740 C   0  0  0  0  0  0  0  0  0  0  0  0
  -18.3760    9.8427  -17.8481 C   0  0  0  0  0  0  0  0  0  0  0  0
  -19.8597   10.4757  -14.4683 C   0  0  0  0  0  0  0  0  0  0  0  0
  -20.6727   11.3430  -13.7854 C   0  0  0  0  0  0  0  0  0  0  0  0
  -20.7566   11.3117  -12.4009 C   0  0  0  0  0  0  0  0  0  0  0  0
  -20.0203   10.4042  -11.6902 C   0  0  0  0  0  0  0  0  0  0  0  0
  -19.2060    9.5366  -12.3859 C   0  0  0  0  0  0  0  0  0  0  0  0
  -19.1467    9.5914  -13.7194 N   0  0  0  0  0  0  0  0  0  0  0  0
  -20.1130   10.3792  -10.2634 C   0  0  0  0  0  0  0  0  0  0  0  0
  -20.1958   10.3712   -9.1070 N   0  0  0  0  0  0  0  0  0  0  0  0
  -16.6123   13.1219  -23.5030 S   0  0  0  0  0  0  0  0  0  0  0  0
  -17.5915   12.6958  -24.5540 O   0  0  0  0  0  0  0  0  0  0  0  0
  -15.3476   12.3441  -23.7712 O   0  0  0  0  0  0  0  0  0  0  0  0
  -20.6832   16.9841  -23.2276 F   0  0  0  0  0  0  0  0  0  0  0  0
  -19.3179   17.0049  -23.3794 C   0  0  0  0  0  0  0  0  0  0  0  0
  -18.6382   18.1878  -23.5174 C   0  0  0  0  0  0  0  0  0  0  0  0
  -17.2712   18.1818  -23.6679 C   0  0  0  0  0  0  0  0  0  0  0  0
  -16.5943   16.9699  -23.6781 C   0  0  0  0  0  0  0  0  0  0  0  0
  -15.2804   16.6703  -23.7987 N   0  0  0  0  0  0  0  0  0  0  0  0
  -15.1286   15.3466  -23.7408 C   0  0  0  0  0  0  0  0  0  0  0  0
  -16.3725   14.8023  -23.5811 N   0  0  0  0  0  0  0  0  0  0  0  0
  -17.2844   15.7911  -23.5397 C   0  0  0  0  0  0  0  0  0  0  0  0
  -18.6691   15.7894  -23.3862 C   0  0  0  0  0  0  0  0  0  0  0  0
 24 25  1  0  0  0
 25 26  2  0  0  0
 26 27  1  0  0  0
 27 28  2  0  0  0
 28 29  1  0  0  0
 29 30  2  0  0  0
 30 31  1  0  0  0
 31 21  1  0  0  0
 21 22  2  0  0  0
 21 23  2  0  0  0
 21  1  1  0  0  0
  1  2  2  0  0  0
  2  3  1  0  0  0
  3  4  2  0  0  0
  4  5  1  0  0  0
  5  6  2  0  0  0
  4  7  1  0  0  0
  7  8  1  0  0  0
  8  9  1  0  0  0
  9 10  1  0  0  0
 10 11  1  0  0  0
 11 12  1  0  0  0
 10 13  1  0  0  0
 13 14  2  0  0  0
 14 15  1  0  0  0
 15 16  2  0  0  0
 16 17  1  0  0  0
 17 18  2  0  0  0
 16 19  1  0  0  0
 19 20  3  0  0  0
 31 32  1  0  0  0
 32 33  2  0  0  0
 33 25  1  0  0  0
 32 28  1  0  0  0
  6  1  1  0  0  0
 12  7  1  0  0  0
 18 13  1  0  0  0
M  END
> <minimizedAffinity>
-8.63817

> <CNNscore>
0.2509486079

> <CNNaffinity>
6.7042860985

> <CNN_VS>
1.6824312210

> <CNNaffinity_variance>
0.1631259322

$$$$
[H]c1nc(N2C([H])([H])C([H])([H])N(c3nc([H])c(S(=O)(=O)n4c([H])nc5c([H])c([H])c(F)c([H])c54)c([H])c3[H])C([H])([H])C2([H])[H])c([H])c([H])c1C#N


 33 37  0  0  0  0  0  0  0  0999 V2000
  -17.1015   11.8719  -21.3848 C   0  0  0  0  0  0  0  0  0  0  0  0
  -16.6242   10.7515  -20.7758 C   0  0  0  0  0  0  0  0  0  0  0  0
  -17.1227   10.2858  -19.5826 C   0  0  0  0  0  0  0  0  0  0  0  0
  -18.1453   10.9841  -18.9843 C   0  0  0  0  0  0  0  0  0  0  0  0
  -18.6245   12.0897  -19.5741 N   0  0  0  0  0  0  0  0  0  0  0  0
  -18.1377   12.5452  -20.7399 C   0  0  0  0  0  0  0  0  0  0  0  0
  -18.6612   10.5051  -17.7535 N   0  0  0  0  0  0  0  0  0  0  0  0
  -19.4754   11.4242  -16.9678 C   0  0  0  0  0  0  0  0  0  0  0  0
  -20.6265   10.5624  -16.4248 C   0  0  0  0  0  0  0  0  0  0  0  0
  -19.9866    9.6499  -15.5126 N   0  0  0  0  0  0  0  0  0  0  0  0
  -19.0597    8.7013  -16.1017 C   0  0  0  0  0  0  0  0  0  0  0  0
  -18.3802    9.1770  -17.3274 C   0  0  0  0  0  0  0  0  0  0  0  0
  -20.2401    9.6729  -14.1149 C   0  0  0  0  0  0  0  0  0  0  0  0
  -21.3002    9.0333  -13.5262 C   0  0  0  0  0  0  0  0  0  0  0  0
  -21.5012    9.0863  -12.1545 C   0  0  0  0  0  0  0  0  0  0  0  0
  -20.6338    9.7860  -11.3615 C   0  0  0  0  0  0  0  0  0  0  0  0
  -19.5711   10.4257  -11.9627 C   0  0  0  0  0  0  0  0  0  0  0  0
  -19.4044   10.3560  -13.2864 N   0  0  0  0  0  0  0  0  0  0  0  0
  -20.8488    9.8353   -9.9486 C   0  0  0  0  0  0  0  0  0  0  0  0
  -21.0316    9.8868   -8.8049 N   0  0  0  0  0  0  0  0  0  0  0  0
  -16.4667   12.4644  -22.9043 S   0  0  0  0  0  0  0  0  0  0  0  0
  -17.3021   11.9186  -24.0219 O   0  0  0  0  0  0  0  0  0  0  0  0
  -15.1053   11.8315  -23.0534 O   0  0  0  0  0  0  0  0  0  0  0  0
  -16.0481   15.4288  -27.6584 F   0  0  0  0  0  0  0  0  0  0  0  0
  -16.1160   15.7252  -26.3186 C   0  0  0  0  0  0  0  0  0  0  0  0
  -16.0759   17.0228  -25.8769 C   0  0  0  0  0  0  0  0  0  0  0  0
  -16.1457   17.2932  -24.5303 C   0  0  0  0  0  0  0  0  0  0  0  0
  -16.2563   16.2413  -23.6312 C   0  0  0  0  0  0  0  0  0  0  0  0
  -16.3503   16.2129  -22.2817 N   0  0  0  0  0  0  0  0  0  0  0  0
  -16.4456   14.9453  -21.8785 C   0  0  0  0  0  0  0  0  0  0  0  0
  -16.4103   14.1602  -22.9972 N   0  0  0  0  0  0  0  0  0  0  0  0
  -16.2952   14.9458  -24.0837 C   0  0  0  0  0  0  0  0  0  0  0  0
  -16.2256   14.6642  -25.4464 C   0  0  0  0  0  0  0  0  0  0  0  0
 24 25  1  0  0  0
 25 26  2  0  0  0
 26 27  1  0  0  0
 27 28  2  0  0  0
 28 29  1  0  0  0
 29 30  2  0  0  0
 30 31  1  0  0  0
 31 21  1  0  0  0
 21 22  2  0  0  0
 21 23  2  0  0  0
 21  1  1  0  0  0
  1  2  2  0  0  0
  2  3  1  0  0  0
  3  4  2  0  0  0
  4  5  1  0  0  0
  5  6  2  0  0  0
  4  7  1  0  0  0
  7  8  1  0  0  0
  8  9  1  0  0  0
  9 10  1  0  0  0
 10 11  1  0  0  0
 11 12  1  0  0  0
 10 13  1  0  0  0
 13 14  2  0  0  0
 14 15  1  0  0  0
 15 16  2  0  0  0
 16 17  1  0  0  0
 17 18  2  0  0  0
 16 19  1  0  0  0
 19 20  3  0  0  0
 31 32  1  0  0  0
 32 33  2  0  0  0
 33 25  1  0  0  0
 32 28  1  0  0  0
  6  1  1  0  0  0
 12  7  1  0  0  0
 18 13  1  0  0  0
M  END
> <minimizedAffinity>
-7.97910

> <CNNscore>
0.1832817942

> <CNNaffinity>
6.4526968002

> <CNN_VS>
1.1826618910

> <CNNaffinity_variance>
0.0897506475

$$$$
[H]c1nc(N2C([H])([H])C([H])([H])N(c3nc([H])c(S(=O)(=O)n4c([H])nc5c([H])c([H])c(F)c([H])c54)c([H])c3[H])C([H])([H])C2([H])[H])c([H])c([H])c1C#N


 33 37  0  0  0  0  0  0  0  0999 V2000
  -17.4261   15.8531  -22.6806 C   0  0  0  0  0  0  0  0  0  0  0  0
  -16.7949   16.4032  -21.6068 C   0  0  0  0  0  0  0  0  0  0  0  0
  -17.4507   17.1682  -20.6721 C   0  0  0  0  0  0  0  0  0  0  0  0
  -18.7995   17.3831  -20.8332 C   0  0  0  0  0  0  0  0  0  0  0  0
  -19.4332   16.8467  -21.8870 N   0  0  0  0  0  0  0  0  0  0  0  0
  -18.7929   16.0992  -22.8006 C   0  0  0  0  0  0  0  0  0  0  0  0
  -19.4780   18.1717  -19.8698 N   0  0  0  0  0  0  0  0  0  0  0  0
  -18.9728   18.1371  -18.5028 C   0  0  0  0  0  0  0  0  0  0  0  0
  -19.0588   19.5924  -18.0159 C   0  0  0  0  0  0  0  0  0  0  0  0
  -20.4721   19.8637  -17.9570 N   0  0  0  0  0  0  0  0  0  0  0  0
  -21.1785   19.8549  -19.2247 C   0  0  0  0  0  0  0  0  0  0  0  0
  -20.6032   18.9553  -20.2495 C   0  0  0  0  0  0  0  0  0  0  0  0
  -21.1439   20.1227  -16.7323 C   0  0  0  0  0  0  0  0  0  0  0  0
  -22.4321   20.5858  -16.6577 C   0  0  0  0  0  0  0  0  0  0  0  0
  -23.0426   20.8210  -15.4343 C   0  0  0  0  0  0  0  0  0  0  0  0
  -22.3590   20.5911  -14.2721 C   0  0  0  0  0  0  0  0  0  0  0  0
  -21.0645   20.1256  -14.3576 C   0  0  0  0  0  0  0  0  0  0  0  0
  -20.5041   19.9088  -15.5507 N   0  0  0  0  0  0  0  0  0  0  0  0
  -22.9962   20.8363  -13.0155 C   0  0  0  0  0  0  0  0  0  0  0  0
  -23.5064   21.0233  -11.9914 N   0  0  0  0  0  0  0  0  0  0  0  0
  -16.5907   14.8788  -23.8704 S   0  0  0  0  0  0  0  0  0  0  0  0
  -15.4298   15.6606  -24.4053 O   0  0  0  0  0  0  0  0  0  0  0  0
  -17.5542   14.7229  -25.0209 O   0  0  0  0  0  0  0  0  0  0  0  0
  -19.0383   12.0156  -19.7020 F   0  0  0  0  0  0  0  0  0  0  0  0
  -17.9355   11.8365  -20.5016 C   0  0  0  0  0  0  0  0  0  0  0  0
  -17.1290   10.7364  -20.3606 C   0  0  0  0  0  0  0  0  0  0  0  0
  -16.0309   10.5802  -21.1736 C   0  0  0  0  0  0  0  0  0  0  0  0
  -15.7524   11.5453  -22.1318 C   0  0  0  0  0  0  0  0  0  0  0  0
  -14.7669   11.6448  -23.0535 N   0  0  0  0  0  0  0  0  0  0  0  0
  -14.9381   12.7663  -23.7546 C   0  0  0  0  0  0  0  0  0  0  0  0
  -16.0538   13.3852  -23.2635 N   0  0  0  0  0  0  0  0  0  0  0  0
  -16.5659   12.6432  -22.2644 C   0  0  0  0  0  0  0  0  0  0  0  0
  -17.6805   12.8079  -21.4449 C   0  0  0  0  0  0  0  0  0  0  0  0
 24 25  1  0  0  0
 25 26  2  0  0  0
 26 27  1  0  0  0
 27 28  2  0  0  0
 28 29  1  0  0  0
 29 30  2  0  0  0
 30 31  1  0  0  0
 31 21  1  0  0  0
 21 22  2  0  0  0
 21 23  2  0  0  0
 21  1  1  0  0  0
  1  2  2  0  0  0
  2  3  1  0  0  0
  3  4  2  0  0  0
  4  5  1  0  0  0
  5  6  2  0  0  0
  4  7  1  0  0  0
  7  8  1  0  0  0
  8  9  1  0  0  0
  9 10  1  0  0  0
 10 11  1  0  0  0
 11 12  1  0  0  0
 10 13  1  0  0  0
 13 14  2  0  0  0
 14 15  1  0  0  0
 15 16  2  0  0  0
 16 17  1  0  0  0
 17 18  2  0  0  0
 16 19  1  0  0  0
 19 20  3  0  0  0
 31 32  1  0  0  0
 32 33  2  0  0  0
 33 25  1  0  0  0
 32 28  1  0  0  0
  6  1  1  0  0  0
 12  7  1  0  0  0
 18 13  1  0  0  0
M  END
> <minimizedAffinity>
-6.71623

> <CNNscore>
0.1408226341

> <CNNaffinity>
6.4367432594

> <CNN_VS>
0.9064391255

> <CNNaffinity_variance>
0.0845818520

$$$$
[H]c1nc(N2C([H])([H])C([H])([H])N(c3nc([H])c(S(=O)(=O)n4c([H])nc5c([H])c([H])c(F)c([H])c54)c([H])c3[H])C([H])([H])C2([H])[H])c([H])c([H])c1C#N


 33 37  0  0  0  0  0  0  0  0999 V2000
  -17.3170   11.9412  -21.1422 C   0  0  0  0  0  0  0  0  0  0  0  0
  -16.7444   10.9258  -20.4384 C   0  0  0  0  0  0  0  0  0  0  0  0
  -17.2800   10.4380  -19.2704 C   0  0  0  0  0  0  0  0  0  0  0  0
  -18.4417   11.0026  -18.7983 C   0  0  0  0  0  0  0  0  0  0  0  0
  -19.0159   12.0037  -19.4823 N   0  0  0  0  0  0  0  0  0  0  0  0
  -18.4930   12.4807  -20.6236 C   0  0  0  0  0  0  0  0  0  0  0  0
  -18.9962   10.5006  -17.5937 N   0  0  0  0  0  0  0  0  0  0  0  0
  -18.9547    9.0578  -17.3898 C   0  0  0  0  0  0  0  0  0  0  0  0
  -18.5932    8.8814  -15.9063 C   0  0  0  0  0  0  0  0  0  0  0  0
  -19.7382    9.3941  -15.1989 N   0  0  0  0  0  0  0  0  0  0  0  0
  -20.0008   10.8133  -15.3500 C   0  0  0  0  0  0  0  0  0  0  0  0
  -19.5632   11.3915  -16.6402 C   0  0  0  0  0  0  0  0  0  0  0  0
  -20.5697    8.5642  -14.3999 C   0  0  0  0  0  0  0  0  0  0  0  0
  -20.2895    8.2395  -13.0978 C   0  0  0  0  0  0  0  0  0  0  0  0
  -21.1372    7.4253  -12.3607 C   0  0  0  0  0  0  0  0  0  0  0  0
  -22.2776    6.9296  -12.9303 C   0  0  0  0  0  0  0  0  0  0  0  0
  -22.5506    7.2617  -14.2399 C   0  0  0  0  0  0  0  0  0  0  0  0
  -21.7145    8.0481  -14.9236 N   0  0  0  0  0  0  0  0  0  0  0  0
  -23.1456    6.0911  -12.1630 C   0  0  0  0  0  0  0  0  0  0  0  0
  -23.8590    5.4121  -11.5515 N   0  0  0  0  0  0  0  0  0  0  0  0
  -16.6348   12.5617  -22.6296 S   0  0  0  0  0  0  0  0  0  0  0  0
  -17.4654   12.0793  -23.7795 O   0  0  0  0  0  0  0  0  0  0  0  0
  -15.2914   11.8906  -22.7748 O   0  0  0  0  0  0  0  0  0  0  0  0
  -16.2975   15.6801  -27.2907 F   0  0  0  0  0  0  0  0  0  0  0  0
  -16.3033   15.9301  -25.9398 C   0  0  0  0  0  0  0  0  0  0  0  0
  -16.2012   17.2088  -25.4552 C   0  0  0  0  0  0  0  0  0  0  0  0
  -16.2096   17.4327  -24.0984 C   0  0  0  0  0  0  0  0  0  0  0  0
  -16.3219   16.3533  -23.2326 C   0  0  0  0  0  0  0  0  0  0  0  0
  -16.3646   16.2793  -21.8823 N   0  0  0  0  0  0  0  0  0  0  0  0
  -16.4882   15.0018  -21.5199 C   0  0  0  0  0  0  0  0  0  0  0  0
  -16.5234   14.2569  -22.6657 N   0  0  0  0  0  0  0  0  0  0  0  0
  -16.4230   15.0770  -23.7280 C   0  0  0  0  0  0  0  0  0  0  0  0
  -16.4159   14.8425  -25.1013 C   0  0  0  0  0  0  0  0  0  0  0  0
 24 25  1  0  0  0
 25 26  2  0  0  0
 26 27  1  0  0  0
 27 28  2  0  0  0
 28 29  1  0  0  0
 29 30  2  0  0  0
 30 31  1  0  0  0
 31 21  1  0  0  0
 21 22  2  0  0  0
 21 23  2  0  0  0
 21  1  1  0  0  0
  1  2  2  0  0  0
  2  3  1  0  0  0
  3  4  2  0  0  0
  4  5  1  0  0  0
  5  6  2  0  0  0
  4  7  1  0  0  0
  7  8  1  0  0  0
  8  9  1  0  0  0
  9 10  1  0  0  0
 10 11  1  0  0  0
 11 12  1  0  0  0
 10 13  1  0  0  0
 13 14  2  0  0  0
 14 15  1  0  0  0
 15 16  2  0  0  0
 16 17  1  0  0  0
 17 18  2  0  0  0
 16 19  1  0  0  0
 19 20  3  0  0  0
 31 32  1  0  0  0
 32 33  2  0  0  0
 33 25  1  0  0  0
 32 28  1  0  0  0
  6  1  1  0  0  0
 12  7  1  0  0  0
 18 13  1  0  0  0
M  END
> <minimizedAffinity>
-7.15306

> <CNNscore>
0.1355763674

> <CNNaffinity>
6.2991752625

> <CNN_VS>
0.8540192842

> <CNNaffinity_variance>
0.0622864366

$$$$
[H]c1nc(N2C([H])([H])C([H])([H])N(c3nc([H])c(S(=O)(=O)n4c([H])nc5c([H])c([H])c(F)c([H])c54)c([H])c3[H])C([H])([H])C2([H])[H])c([H])c([H])c1C#N


 33 37  0  0  0  0  0  0  0  0999 V2000
  -17.5383   12.5319  -21.5405 C   0  0  0  0  0  0  0  0  0  0  0  0
  -16.9130   11.4403  -21.0197 C   0  0  0  0  0  0  0  0  0  0  0  0
  -17.3422   10.8158  -19.8730 C   0  0  0  0  0  0  0  0  0  0  0  0
  -18.4490   11.3186  -19.2300 C   0  0  0  0  0  0  0  0  0  0  0  0
  -19.0742   12.3939  -19.7329 N   0  0  0  0  0  0  0  0  0  0  0  0
  -18.6552   13.0044  -20.8533 C   0  0  0  0  0  0  0  0  0  0  0  0
  -18.8937   10.6756  -18.0471 N   0  0  0  0  0  0  0  0  0  0  0  0
  -18.6782    9.2374  -17.9475 C   0  0  0  0  0  0  0  0  0  0  0  0
  -18.2403    9.0063  -16.4923 C   0  0  0  0  0  0  0  0  0  0  0  0
  -19.4078    9.3322  -15.7146 N   0  0  0  0  0  0  0  0  0  0  0  0
  -19.8381   10.7176  -15.7564 C   0  0  0  0  0  0  0  0  0  0  0  0
  -19.5214   11.4280  -17.0155 C   0  0  0  0  0  0  0  0  0  0  0  0
  -20.1058    8.3588  -14.9506 C   0  0  0  0  0  0  0  0  0  0  0  0
  -21.0938    8.6667  -14.0514 C   0  0  0  0  0  0  0  0  0  0  0  0
  -21.7457    7.6762  -13.3313 C   0  0  0  0  0  0  0  0  0  0  0  0
  -21.4073    6.3632  -13.5111 C   0  0  0  0  0  0  0  0  0  0  0  0
  -20.4129    6.0638  -14.4173 C   0  0  0  0  0  0  0  0  0  0  0  0
  -19.8035    7.0401  -15.0957 N   0  0  0  0  0  0  0  0  0  0  0  0
  -22.0846    5.3488  -12.7645 C   0  0  0  0  0  0  0  0  0  0  0  0
  -22.6294    4.5166  -12.1688 N   0  0  0  0  0  0  0  0  0  0  0  0
  -16.9916   13.3266  -23.0009 S   0  0  0  0  0  0  0  0  0  0  0  0
  -17.4916   12.5570  -24.1852 O   0  0  0  0  0  0  0  0  0  0  0  0
  -15.4903   13.1777  -23.0100 O   0  0  0  0  0  0  0  0  0  0  0  0
  -15.5176   17.4077  -19.4321 F   0  0  0  0  0  0  0  0  0  0  0  0
  -16.3075   17.3206  -20.5529 C   0  0  0  0  0  0  0  0  0  0  0  0
  -16.9721   18.4174  -21.0384 C   0  0  0  0  0  0  0  0  0  0  0  0
  -17.7566   18.3041  -22.1622 C   0  0  0  0  0  0  0  0  0  0  0  0
  -17.8654   17.0724  -22.7933 C   0  0  0  0  0  0  0  0  0  0  0  0
  -18.5442   16.6794  -23.8957 N   0  0  0  0  0  0  0  0  0  0  0  0
  -18.3216   15.3811  -24.1043 C   0  0  0  0  0  0  0  0  0  0  0  0
  -17.4860   14.9485  -23.1125 N   0  0  0  0  0  0  0  0  0  0  0  0
  -17.1962   15.9805  -22.2988 C   0  0  0  0  0  0  0  0  0  0  0  0
  -16.3991   16.0877  -21.1611 C   0  0  0  0  0  0  0  0  0  0  0  0
 24 25  1  0  0  0
 25 26  2  0  0  0
 26 27  1  0  0  0
 27 28  2  0  0  0
 28 29  1  0  0  0
 29 30  2  0  0  0
 30 31  1  0  0  0
 31 21  1  0  0  0
 21 22  2  0  0  0
 21 23  2  0  0  0
 21  1  1  0  0  0
  1  2  2  0  0  0
  2  3  1  0  0  0
  3  4  2  0  0  0
  4  5  1  0  0  0
  5  6  2  0  0  0
  4  7  1  0  0  0
  7  8  1  0  0  0
  8  9  1  0  0  0
  9 10  1  0  0  0
 10 11  1  0  0  0
 11 12  1  0  0  0
 10 13  1  0  0  0
 13 14  2  0  0  0
 14 15  1  0  0  0
 15 16  2  0  0  0
 16 17  1  0  0  0
 17 18  2  0  0  0
 16 19  1  0  0  0
 19 20  3  0  0  0
 31 32  1  0  0  0
 32 33  2  0  0  0
 33 25  1  0  0  0
 32 28  1  0  0  0
  6  1  1  0  0  0
 12  7  1  0  0  0
 18 13  1  0  0  0
M  END
> <minimizedAffinity>
-7.26143

> <CNNscore>
0.1307619512

> <CNNaffinity>
6.3490200043

> <CNN_VS>
0.8302102685

> <CNNaffinity_variance>
0.0725616962

$$$$
[H]c1nc(N2C([H])([H])C([H])([H])N(c3nc([H])c(S(=O)(=O)n4c([H])nc5c([H])c([H])c(F)c([H])c54)c([H])c3[H])C([H])([H])C2([H])[H])c([H])c([H])c1C#N


 33 37  0  0  0  0  0  0  0  0999 V2000
  -17.3294   12.5286  -21.7892 C   0  0  0  0  0  0  0  0  0  0  0  0
  -18.3133   13.4281  -21.5119 C   0  0  0  0  0  0  0  0  0  0  0  0
  -19.0572   13.3818  -20.3571 C   0  0  0  0  0  0  0  0  0  0  0  0
  -18.7923   12.3840  -19.4485 C   0  0  0  0  0  0  0  0  0  0  0  0
  -17.8254   11.4915  -19.7098 N   0  0  0  0  0  0  0  0  0  0  0  0
  -17.0983   11.5363  -20.8380 C   0  0  0  0  0  0  0  0  0  0  0  0
  -19.5583   12.3347  -18.2563 N   0  0  0  0  0  0  0  0  0  0  0  0
  -19.3837   11.1695  -17.3981 C   0  0  0  0  0  0  0  0  0  0  0  0
  -19.3809   11.7326  -15.9679 C   0  0  0  0  0  0  0  0  0  0  0  0
  -20.7213   12.2237  -15.7774 N   0  0  0  0  0  0  0  0  0  0  0  0
  -21.1183   13.3408  -16.6146 C   0  0  0  0  0  0  0  0  0  0  0  0
  -20.4530   13.3935  -17.9356 C   0  0  0  0  0  0  0  0  0  0  0  0
  -21.6110   11.6511  -14.8293 C   0  0  0  0  0  0  0  0  0  0  0  0
  -22.5429   10.6963  -15.1447 C   0  0  0  0  0  0  0  0  0  0  0  0
  -23.3874   10.1683  -14.1789 C   0  0  0  0  0  0  0  0  0  0  0  0
  -23.3005   10.5985  -12.8835 C   0  0  0  0  0  0  0  0  0  0  0  0
  -22.3604   11.5586  -12.5764 C   0  0  0  0  0  0  0  0  0  0  0  0
  -21.5614   12.0478  -13.5288 N   0  0  0  0  0  0  0  0  0  0  0  0
  -24.1751   10.0486  -11.8946 C   0  0  0  0  0  0  0  0  0  0  0  0
  -24.8747    9.6067  -11.0827 N   0  0  0  0  0  0  0  0  0  0  0  0
  -16.3821   12.5881  -23.2596 S   0  0  0  0  0  0  0  0  0  0  0  0
  -17.1820   11.9848  -24.3736 O   0  0  0  0  0  0  0  0  0  0  0  0
  -15.2156   11.6585  -23.0326 O   0  0  0  0  0  0  0  0  0  0  0  0
  -19.7899   17.0331  -23.6985 F   0  0  0  0  0  0  0  0  0  0  0  0
  -18.4473   16.8030  -23.8777 C   0  0  0  0  0  0  0  0  0  0  0  0
  -17.6015   17.8098  -24.2670 C   0  0  0  0  0  0  0  0  0  0  0  0
  -16.2614   17.5537  -24.4393 C   0  0  0  0  0  0  0  0  0  0  0  0
  -15.7807   16.2708  -24.2155 C   0  0  0  0  0  0  0  0  0  0  0  0
  -14.5366   15.7454  -24.2978 N   0  0  0  0  0  0  0  0  0  0  0  0
  -14.5876   14.4526  -23.9743 C   0  0  0  0  0  0  0  0  0  0  0  0
  -15.8906   14.1586  -23.6830 N   0  0  0  0  0  0  0  0  0  0  0  0
  -16.6360   15.2699  -23.8265 C   0  0  0  0  0  0  0  0  0  0  0  0
  -17.9947   15.5219  -23.6491 C   0  0  0  0  0  0  0  0  0  0  0  0
 24 25  1  0  0  0
 25 26  2  0  0  0
 26 27  1  0  0  0
 27 28  2  0  0  0
 28 29  1  0  0  0
 29 30  2  0  0  0
 30 31  1  0  0  0
 31 21  1  0  0  0
 21 22  2  0  0  0
 21 23  2  0  0  0
 21  1  1  0  0  0
  1  2  2  0  0  0
  2  3  1  0  0  0
  3  4  2  0  0  0
  4  5  1  0  0  0
  5  6  2  0  0  0
  4  7  1  0  0  0
  7  8  1  0  0  0
  8  9  1  0  0  0
  9 10  1  0  0  0
 10 11  1  0  0  0
 11 12  1  0  0  0
 10 13  1  0  0  0
 13 14  2  0  0  0
 14 15  1  0  0  0
 15 16  2  0  0  0
 16 17  1  0  0  0
 17 18  2  0  0  0
 16 19  1  0  0  0
 19 20  3  0  0  0
 31 32  1  0  0  0
 32 33  2  0  0  0
 33 25  1  0  0  0
 32 28  1  0  0  0
  6  1  1  0  0  0
 12  7  1  0  0  0
 18 13  1  0  0  0
M  END
> <minimizedAffinity>
-7.39912

> <CNNscore>
0.1296100020

> <CNNaffinity>
6.4011101723

> <CNN_VS>
0.8296478987

> <CNNaffinity_variance>
0.1914756596

$$$$
[H]c1nc(N2C([H])([H])C([H])([H])N(c3nc([H])c(S(=O)(=O)n4c([H])nc5c([H])c([H])c(F)c([H])c54)c([H])c3[H])C([H])([H])C2([H])[H])c([H])c([H])c1C#N


 33 37  0  0  0  0  0  0  0  0999 V2000
  -17.2279   13.5200  -21.4588 C   0  0  0  0  0  0  0  0  0  0  0  0
  -16.8164   12.2452  -21.2149 C   0  0  0  0  0  0  0  0  0  0  0  0
  -17.3302   11.4820  -20.1939 C   0  0  0  0  0  0  0  0  0  0  0  0
  -18.2994   12.0339  -19.3892 C   0  0  0  0  0  0  0  0  0  0  0  0
  -18.7136   13.2891  -19.6190 N   0  0  0  0  0  0  0  0  0  0  0  0
  -18.2118   14.0352  -20.6165 C   0  0  0  0  0  0  0  0  0  0  0  0
  -18.8312   11.2480  -18.3356 N   0  0  0  0  0  0  0  0  0  0  0  0
  -18.6718    9.8025  -18.4347 C   0  0  0  0  0  0  0  0  0  0  0  0
  -18.3235    9.3476  -17.0083 C   0  0  0  0  0  0  0  0  0  0  0  0
  -19.5204    9.6084  -16.2508 N   0  0  0  0  0  0  0  0  0  0  0  0
  -19.8990   11.0026  -16.1129 C   0  0  0  0  0  0  0  0  0  0  0  0
  -19.4885   11.8714  -17.2385 C   0  0  0  0  0  0  0  0  0  0  0  0
  -20.2931    8.5665  -15.6716 C   0  0  0  0  0  0  0  0  0  0  0  0
  -21.6480    8.6455  -15.4780 C   0  0  0  0  0  0  0  0  0  0  0  0
  -22.3560    7.5970  -14.9087 C   0  0  0  0  0  0  0  0  0  0  0  0
  -21.7037    6.4565  -14.5283 C   0  0  0  0  0  0  0  0  0  0  0  0
  -20.3416    6.3867  -14.7270 C   0  0  0  0  0  0  0  0  0  0  0  0
  -19.6878    7.4133  -15.2778 N   0  0  0  0  0  0  0  0  0  0  0  0
  -22.4416    5.3808  -13.9422 C   0  0  0  0  0  0  0  0  0  0  0  0
  -23.0479    4.5183  -13.4599 N   0  0  0  0  0  0  0  0  0  0  0  0
  -16.5735   14.4914  -22.7593 S   0  0  0  0  0  0  0  0  0  0  0  0
  -15.0862   14.5741  -22.5985 O   0  0  0  0  0  0  0  0  0  0  0  0
  -17.0962   15.8880  -22.5296 O   0  0  0  0  0  0  0  0  0  0  0  0
  -14.5527   16.5177  -27.5940 F   0  0  0  0  0  0  0  0  0  0  0  0
  -15.4273   15.5205  -27.2359 C   0  0  0  0  0  0  0  0  0  0  0  0
  -16.0460   14.7463  -28.1837 C   0  0  0  0  0  0  0  0  0  0  0  0
  -16.9173   13.7543  -27.7993 C   0  0  0  0  0  0  0  0  0  0  0  0
  -17.1600   13.5494  -26.4479 C   0  0  0  0  0  0  0  0  0  0  0  0
  -17.9447   12.6607  -25.7958 N   0  0  0  0  0  0  0  0  0  0  0  0
  -17.8312   12.8615  -24.4823 C   0  0  0  0  0  0  0  0  0  0  0  0
  -16.9578   13.8981  -24.3045 N   0  0  0  0  0  0  0  0  0  0  0  0
  -16.5359   14.3303  -25.5070 C   0  0  0  0  0  0  0  0  0  0  0  0
  -15.6513   15.3368  -25.8888 C   0  0  0  0  0  0  0  0  0  0  0  0
 24 25  1  0  0  0
 25 26  2  0  0  0
 26 27  1  0  0  0
 27 28  2  0  0  0
 28 29  1  0  0  0
 29 30  2  0  0  0
 30 31  1  0  0  0
 31 21  1  0  0  0
 21 22  2  0  0  0
 21 23  2  0  0  0
 21  1  1  0  0  0
  1  2  2  0  0  0
  2  3  1  0  0  0
  3  4  2  0  0  0
  4  5  1  0  0  0
  5  6  2  0  0  0
  4  7  1  0  0  0
  7  8  1  0  0  0
  8  9  1  0  0  0
  9 10  1  0  0  0
 10 11  1  0  0  0
 11 12  1  0  0  0
 10 13  1  0  0  0
 13 14  2  0  0  0
 14 15  1  0  0  0
 15 16  2  0  0  0
 16 17  1  0  0  0
 17 18  2  0  0  0
 16 19  1  0  0  0
 19 20  3  0  0  0
 31 32  1  0  0  0
 32 33  2  0  0  0
 33 25  1  0  0  0
 32 28  1  0  0  0
  6  1  1  0  0  0
 12  7  1  0  0  0
 18 13  1  0  0  0
M  END
> <minimizedAffinity>
-7.48486

> <CNNscore>
0.1283320934

> <CNNaffinity>
6.4979505539

> <CNN_VS>
0.8338956237

> <CNNaffinity_variance>
0.1302185655

$$$$
[H]c1nc2c([H])c(C([H])([H])[H])c(-c3c(C([H])(C([H])([H])[H])C([H])([H])[H])c4c([H])c(C5([H])C([H])([H])C([H])([H])N(C([H])([H])c6nc([H])c([H])c([H])n6)C([H])([H])C5([H])[H])c([H])c([H])c4n3[H])c([H])n2n1


 36 41  0  0  0  0  0  0  0  0999 V2000
  -17.4591   13.1844  -21.6033 C   0  0  0  0  0  0  0  0  0  0  0  0
  -16.6084   12.7485  -22.6358 C   0  0  0  0  0  0  0  0  0  0  0  0
  -16.1931   11.5290  -22.2505 N   0  0  0  0  0  0  0  0  0  0  0  0
  -16.6996   11.1668  -21.0854 C   0  0  0  0  0  0  0  0  0  0  0  0
  -16.5540   10.0263  -20.3267 C   0  0  0  0  0  0  0  0  0  0  0  0
  -17.1943    9.8624  -19.1223 C   0  0  0  0  0  0  0  0  0  0  0  0
  -18.0102   10.8456  -18.6324 C   0  0  0  0  0  0  0  0  0  0  0  0
  -18.1508   12.0007  -19.4121 C   0  0  0  0  0  0  0  0  0  0  0  0
  -17.5179   12.1862  -20.6220 C   0  0  0  0  0  0  0  0  0  0  0  0
  -15.5303   10.9366  -22.7989 H   0  0  0  0  0  0  0  0  0  0  0  0
  -16.3262   13.4032  -23.9069 C   0  0  0  0  0  0  0  0  0  0  0  0
  -15.3042   14.2972  -24.1262 C   0  0  0  0  0  0  0  0  0  0  0  0
  -15.0824   14.9761  -25.2734 N   0  0  0  0  0  0  0  0  0  0  0  0
  -14.1488   15.8569  -25.6137 N   0  0  0  0  0  0  0  0  0  0  0  0
  -14.3423   16.2564  -26.8659 C   0  0  0  0  0  0  0  0  0  0  0  0
  -15.4357   15.6004  -27.3202 N   0  0  0  0  0  0  0  0  0  0  0  0
  -15.8903   14.8067  -26.3254 C   0  0  0  0  0  0  0  0  0  0  0  0
  -16.9310   13.9260  -26.1746 C   0  0  0  0  0  0  0  0  0  0  0  0
  -17.1761   13.2189  -24.9993 C   0  0  0  0  0  0  0  0  0  0  0  0
  -18.3525   12.3254  -24.9540 C   0  0  0  0  0  0  0  0  0  0  0  0
  -18.7247   10.7431  -17.3544 C   0  0  0  0  0  0  0  0  0  0  0  0
  -19.2388    9.3560  -17.0563 C   0  0  0  0  0  0  0  0  0  0  0  0
  -20.1371    9.5178  -15.8197 C   0  0  0  0  0  0  0  0  0  0  0  0
  -19.7768   10.6678  -15.0574 N   0  0  0  0  0  0  0  0  0  0  0  0
  -20.1930   11.8692  -15.7516 C   0  0  0  0  0  0  0  0  0  0  0  0
  -19.8537   11.7472  -17.2296 C   0  0  0  0  0  0  0  0  0  0  0  0
  -20.4454   10.6272  -13.7802 C   0  0  0  0  0  0  0  0  0  0  0  0
  -19.6732   10.0255  -12.6940 C   0  0  0  0  0  0  0  0  0  0  0  0
  -19.1926    8.7507  -12.7811 N   0  0  0  0  0  0  0  0  0  0  0  0
  -18.4902    8.1935  -11.7806 C   0  0  0  0  0  0  0  0  0  0  0  0
  -18.2318    8.8985  -10.6263 C   0  0  0  0  0  0  0  0  0  0  0  0
  -18.7137   10.1860  -10.5313 C   0  0  0  0  0  0  0  0  0  0  0  0
  -19.4070   10.6896  -11.5590 N   0  0  0  0  0  0  0  0  0  0  0  0
  -17.5576   15.6862  -21.1281 C   0  0  0  0  0  0  0  0  0  0  0  0
  -18.2082   14.4255  -21.5809 C   0  0  0  0  0  0  0  0  0  0  0  0
  -19.5264   14.2051  -20.8171 C   0  0  0  0  0  0  0  0  0  0  0  0
 34 35  1  0  0  0
 35 36  1  0  0  0
 35  1  1  0  0  0
  1  2  2  0  0  0
  2  3  1  0  0  0
  3  4  1  0  0  0
  4  5  2  0  0  0
  5  6  1  0  0  0
  6  7  2  0  0  0
  7  8  1  0  0  0
  8  9  2  0  0  0
  7 21  1  0  0  0
 21 22  1  0  0  0
 22 23  1  0  0  0
 23 24  1  0  0  0
 24 27  1  0  0  0
 27 28  1  0  0  0
 28 29  2  0  0  0
 29 30  1  0  0  0
 30 31  2  0  0  0
 31 32  1  0  0  0
 32 33  2  0  0  0
 24 25  1  0  0  0
 25 26  1  0  0  0
  2 11  1  0  0  0
 11 12  2  0  0  0
 12 13  1  0  0  0
 13 14  1  0  0  0
 14 15  2  0  0  0
 15 16  1  0  0  0
 16 17  2  0  0  0
 17 18  1  0  0  0
 18 19  2  0  0  0
 19 20  1  0  0  0
  9  1  1  0  0  0
 26 21  1  0  0  0
 19 11  1  0  0  0
  9  4  1  0  0  0
 33 28  1  0  0  0
 17 13  1  0  0  0
  3 10  1  0  0  0
M  END
> <minimizedAffinity>
-10.30873

> <CNNscore>
0.4238002598

> <CNNaffinity>
7.3991994858

> <CNN_VS>
3.1357827187

> <CNNaffinity_variance>
0.1471301615

$$$$
[H]c1nc2c([H])c(C([H])([H])[H])c(-c3c(C([H])(C([H])([H])[H])C([H])([H])[H])c4c([H])c(C5([H])C([H])([H])C([H])([H])N(C([H])([H])c6nc([H])c([H])c([H])n6)C([H])([H])C5([H])[H])c([H])c([H])c4n3[H])c([H])n2n1


 36 41  0  0  0  0  0  0  0  0999 V2000
  -17.8438   12.0970  -19.6236 C   0  0  0  0  0  0  0  0  0  0  0  0
  -18.1589   13.3014  -20.2793 C   0  0  0  0  0  0  0  0  0  0  0  0
  -19.2328   13.7800  -19.6268 N   0  0  0  0  0  0  0  0  0  0  0  0
  -19.6139   12.9946  -18.6353 C   0  0  0  0  0  0  0  0  0  0  0  0
  -20.6389   13.0901  -17.7199 C   0  0  0  0  0  0  0  0  0  0  0  0
  -20.8477   12.1360  -16.7537 C   0  0  0  0  0  0  0  0  0  0  0  0
  -20.0285   11.0432  -16.6712 C   0  0  0  0  0  0  0  0  0  0  0  0
  -18.9898   10.9565  -17.6070 C   0  0  0  0  0  0  0  0  0  0  0  0
  -18.7626   11.9010  -18.5843 C   0  0  0  0  0  0  0  0  0  0  0  0
  -19.7255   14.6651  -19.8817 H   0  0  0  0  0  0  0  0  0  0  0  0
  -17.4230   13.9639  -21.3486 C   0  0  0  0  0  0  0  0  0  0  0  0
  -17.0201   13.3657  -22.5197 C   0  0  0  0  0  0  0  0  0  0  0  0
  -16.2645   13.9418  -23.4806 N   0  0  0  0  0  0  0  0  0  0  0  0
  -15.8092   13.4842  -24.6411 N   0  0  0  0  0  0  0  0  0  0  0  0
  -15.1010   14.4287  -25.2504 C   0  0  0  0  0  0  0  0  0  0  0  0
  -15.1164   15.5123  -24.4395 N   0  0  0  0  0  0  0  0  0  0  0  0
  -15.8411   15.2026  -23.3417 C   0  0  0  0  0  0  0  0  0  0  0  0
  -16.2094   15.8592  -22.1951 C   0  0  0  0  0  0  0  0  0  0  0  0
  -16.9861   15.2810  -21.1933 C   0  0  0  0  0  0  0  0  0  0  0  0
  -17.2851   16.0848  -19.9896 C   0  0  0  0  0  0  0  0  0  0  0  0
  -20.1905    9.9832  -15.6689 C   0  0  0  0  0  0  0  0  0  0  0  0
  -19.6720   10.3566  -14.3019 C   0  0  0  0  0  0  0  0  0  0  0  0
  -19.7204    9.0556  -13.4849 C   0  0  0  0  0  0  0  0  0  0  0  0
  -20.6867    8.1456  -14.0059 N   0  0  0  0  0  0  0  0  0  0  0  0
  -20.2048    7.5720  -15.2459 C   0  0  0  0  0  0  0  0  0  0  0  0
  -19.5848    8.6636  -16.1053 C   0  0  0  0  0  0  0  0  0  0  0  0
  -20.8971    7.0752  -13.0626 C   0  0  0  0  0  0  0  0  0  0  0  0
  -21.3217    7.4976  -11.7286 C   0  0  0  0  0  0  0  0  0  0  0  0
  -20.6034    7.1714  -10.6145 N   0  0  0  0  0  0  0  0  0  0  0  0
  -20.9967    7.5517   -9.3874 C   0  0  0  0  0  0  0  0  0  0  0  0
  -22.1472    8.2887   -9.2154 C   0  0  0  0  0  0  0  0  0  0  0  0
  -22.8773    8.6217  -10.3358 C   0  0  0  0  0  0  0  0  0  0  0  0
  -22.4378    8.2160  -11.5327 N   0  0  0  0  0  0  0  0  0  0  0  0
  -16.9339    9.9361  -20.6221 C   0  0  0  0  0  0  0  0  0  0  0  0
  -16.7189   11.2321  -19.9208 C   0  0  0  0  0  0  0  0  0  0  0  0
  -15.9002   11.0104  -18.6362 C   0  0  0  0  0  0  0  0  0  0  0  0
 34 35  1  0  0  0
 35 36  1  0  0  0
 35  1  1  0  0  0
  1  2  2  0  0  0
  2  3  1  0  0  0
  3  4  1  0  0  0
  4  5  2  0  0  0
  5  6  1  0  0  0
  6  7  2  0  0  0
  7  8  1  0  0  0
  8  9  2  0  0  0
  7 21  1  0  0  0
 21 22  1  0  0  0
 22 23  1  0  0  0
 23 24  1  0  0  0
 24 27  1  0  0  0
 27 28  1  0  0  0
 28 29  2  0  0  0
 29 30  1  0  0  0
 30 31  2  0  0  0
 31 32  1  0  0  0
 32 33  2  0  0  0
 24 25  1  0  0  0
 25 26  1  0  0  0
  2 11  1  0  0  0
 11 12  2  0  0  0
 12 13  1  0  0  0
 13 14  1  0  0  0
 14 15  2  0  0  0
 15 16  1  0  0  0
 16 17  2  0  0  0
 17 18  1  0  0  0
 18 19  2  0  0  0
 19 20  1  0  0  0
  9  1  1  0  0  0
 26 21  1  0  0  0
 19 11  1  0  0  0
  9  4  1  0  0  0
 33 28  1  0  0  0
 17 13  1  0  0  0
  3 10  1  0  0  0
M  END
> <minimizedAffinity>
-9.38978

> <CNNscore>
0.3798798621

> <CNNaffinity>
6.9369316101

> <CNN_VS>
2.6352007389

> <CNNaffinity_variance>
0.1041132435

$$$$
[H]c1nc2c([H])c(C([H])([H])[H])c(-c3c(C([H])(C([H])([H])[H])C([H])([H])[H])c4c([H])c(C5([H])C([H])([H])C([H])([H])N(C([H])([H])c6nc([H])c([H])c([H])n6)C([H])([H])C5([H])[H])c([H])c([H])c4n3[H])c([H])n2n1


 36 41  0  0  0  0  0  0  0  0999 V2000
  -18.0103   13.2950  -20.9794 C   0  0  0  0  0  0  0  0  0  0  0  0
  -17.0869   13.0634  -22.0154 C   0  0  0  0  0  0  0  0  0  0  0  0
  -16.5093   11.8887  -21.7080 N   0  0  0  0  0  0  0  0  0  0  0  0
  -16.9808   11.3708  -20.5878 C   0  0  0  0  0  0  0  0  0  0  0  0
  -16.6883   10.2076  -19.9104 C   0  0  0  0  0  0  0  0  0  0  0  0
  -17.3212    9.8638  -18.7405 C   0  0  0  0  0  0  0  0  0  0  0  0
  -18.2780   10.6819  -18.2045 C   0  0  0  0  0  0  0  0  0  0  0  0
  -18.5671   11.8619  -18.9016 C   0  0  0  0  0  0  0  0  0  0  0  0
  -17.9446   12.2265  -20.0756 C   0  0  0  0  0  0  0  0  0  0  0  0
  -15.7586   11.4391  -22.2784 H   0  0  0  0  0  0  0  0  0  0  0  0
  -16.8771   13.8464  -23.2265 C   0  0  0  0  0  0  0  0  0  0  0  0
  -17.1193   13.4039  -24.5061 C   0  0  0  0  0  0  0  0  0  0  0  0
  -16.8494   14.0859  -25.6411 N   0  0  0  0  0  0  0  0  0  0  0  0
  -17.0282   13.7798  -26.9208 N   0  0  0  0  0  0  0  0  0  0  0  0
  -16.6041   14.7797  -27.6859 C   0  0  0  0  0  0  0  0  0  0  0  0
  -16.1451   15.7418  -26.8519 N   0  0  0  0  0  0  0  0  0  0  0  0
  -16.3006   15.3039  -25.5828 C   0  0  0  0  0  0  0  0  0  0  0  0
  -16.0341   15.8067  -24.3348 C   0  0  0  0  0  0  0  0  0  0  0  0
  -16.3038   15.1176  -23.1542 C   0  0  0  0  0  0  0  0  0  0  0  0
  -15.9368   15.7563  -21.8730 C   0  0  0  0  0  0  0  0  0  0  0  0
  -18.9944   10.3826  -16.9589 C   0  0  0  0  0  0  0  0  0  0  0  0
  -19.3200    8.9197  -16.7829 C   0  0  0  0  0  0  0  0  0  0  0  0
  -20.2539    8.8600  -15.5635 C   0  0  0  0  0  0  0  0  0  0  0  0
  -20.0671    9.9833  -14.7053 N   0  0  0  0  0  0  0  0  0  0  0  0
  -20.6306   11.1695  -15.3168 C   0  0  0  0  0  0  0  0  0  0  0  0
  -20.2517   11.2127  -16.7896 C   0  0  0  0  0  0  0  0  0  0  0  0
  -20.7465    9.7514  -13.4545 C   0  0  0  0  0  0  0  0  0  0  0  0
  -19.8755    9.6495  -12.2843 C   0  0  0  0  0  0  0  0  0  0  0  0
  -19.8658   10.6118  -11.3161 N   0  0  0  0  0  0  0  0  0  0  0  0
  -19.0601   10.5239  -10.2446 C   0  0  0  0  0  0  0  0  0  0  0  0
  -18.2120    9.4501  -10.0898 C   0  0  0  0  0  0  0  0  0  0  0  0
  -18.2166    8.4747  -11.0632 C   0  0  0  0  0  0  0  0  0  0  0  0
  -19.0399    8.6147  -12.1086 N   0  0  0  0  0  0  0  0  0  0  0  0
  -18.5391   15.6461  -20.1504 C   0  0  0  0  0  0  0  0  0  0  0  0
  -18.9290   14.4130  -20.8886 C   0  0  0  0  0  0  0  0  0  0  0  0
  -20.2936   13.9049  -20.3890 C   0  0  0  0  0  0  0  0  0  0  0  0
 34 35  1  0  0  0
 35 36  1  0  0  0
 35  1  1  0  0  0
  1  2  2  0  0  0
  2  3  1  0  0  0
  3  4  1  0  0  0
  4  5  2  0  0  0
  5  6  1  0  0  0
  6  7  2  0  0  0
  7  8  1  0  0  0
  8  9  2  0  0  0
  7 21  1  0  0  0
 21 22  1  0  0  0
 22 23  1  0  0  0
 23 24  1  0  0  0
 24 27  1  0  0  0
 27 28  1  0  0  0
 28 29  2  0  0  0
 29 30  1  0  0  0
 30 31  2  0  0  0
 31 32  1  0  0  0
 32 33  2  0  0  0
 24 25  1  0  0  0
 25 26  1  0  0  0
  2 11  1  0  0  0
 11 12  2  0  0  0
 12 13  1  0  0  0
 13 14  1  0  0  0
 14 15  2  0  0  0
 15 16  1  0  0  0
 16 17  2  0  0  0
 17 18  1  0  0  0
 18 19  2  0  0  0
 19 20  1  0  0  0
  9  1  1  0  0  0
 26 21  1  0  0  0
 19 11  1  0  0  0
  9  4  1  0  0  0
 33 28  1  0  0  0
 17 13  1  0  0  0
  3 10  1  0  0  0
M  END
> <minimizedAffinity>
-10.34680

> <CNNscore>
0.3729594946

> <CNNaffinity>
7.3336477280

> <CNN_VS>
2.7351534367

> <CNNaffinity_variance>
0.1294032037

$$$$
[H]c1nc2c([H])c(C([H])([H])[H])c(-c3c(C([H])(C([H])([H])[H])C([H])([H])[H])c4c([H])c(C5([H])C([H])([H])C([H])([H])N(C([H])([H])c6nc([H])c([H])c([H])n6)C([H])([H])C5([H])[H])c([H])c([H])c4n3[H])c([H])n2n1


 36 41  0  0  0  0  0  0  0  0999 V2000
  -17.8331   12.0868  -19.8142 C   0  0  0  0  0  0  0  0  0  0  0  0
  -18.2214   13.2435  -20.5149 C   0  0  0  0  0  0  0  0  0  0  0  0
  -19.2945   13.7070  -19.8502 N   0  0  0  0  0  0  0  0  0  0  0  0
  -19.6095   12.9548  -18.8108 C   0  0  0  0  0  0  0  0  0  0  0  0
  -20.6086   13.0507  -17.8674 C   0  0  0  0  0  0  0  0  0  0  0  0
  -20.7449   12.1363  -16.8511 C   0  0  0  0  0  0  0  0  0  0  0  0
  -19.8760   11.0847  -16.7447 C   0  0  0  0  0  0  0  0  0  0  0  0
  -18.8642   10.9972  -17.7094 C   0  0  0  0  0  0  0  0  0  0  0  0
  -18.7095   11.9023  -18.7369 C   0  0  0  0  0  0  0  0  0  0  0  0
  -19.8335   14.5569  -20.1299 H   0  0  0  0  0  0  0  0  0  0  0  0
  -17.5491   13.8844  -21.6380 C   0  0  0  0  0  0  0  0  0  0  0  0
  -17.3453   13.3090  -22.8704 C   0  0  0  0  0  0  0  0  0  0  0  0
  -16.6500   13.8567  -23.8916 N   0  0  0  0  0  0  0  0  0  0  0  0
  -16.3791   13.4155  -25.1144 N   0  0  0  0  0  0  0  0  0  0  0  0
  -15.6530   14.3165  -25.7671 C   0  0  0  0  0  0  0  0  0  0  0  0
  -15.4657   15.3550  -24.9195 N   0  0  0  0  0  0  0  0  0  0  0  0
  -16.0880   15.0624  -23.7560 C   0  0  0  0  0  0  0  0  0  0  0  0
  -16.2543   15.6938  -22.5498 C   0  0  0  0  0  0  0  0  0  0  0  0
  -16.9661   15.1440  -21.4856 C   0  0  0  0  0  0  0  0  0  0  0  0
  -17.0427   15.9121  -20.2253 C   0  0  0  0  0  0  0  0  0  0  0  0
  -19.9598   10.0684  -15.6889 C   0  0  0  0  0  0  0  0  0  0  0  0
  -19.3020    8.7599  -16.0529 C   0  0  0  0  0  0  0  0  0  0  0  0
  -19.7015    7.7848  -14.9340 C   0  0  0  0  0  0  0  0  0  0  0  0
  -20.0233    8.4746  -13.7282 N   0  0  0  0  0  0  0  0  0  0  0  0
  -21.3039    9.1377  -13.8668 C   0  0  0  0  0  0  0  0  0  0  0  0
  -21.3814    9.8174  -15.2257 C   0  0  0  0  0  0  0  0  0  0  0  0
  -20.1173    7.5290  -12.6434 C   0  0  0  0  0  0  0  0  0  0  0  0
  -18.9737    7.5137  -11.7322 C   0  0  0  0  0  0  0  0  0  0  0  0
  -18.6025    8.6267  -11.0344 N   0  0  0  0  0  0  0  0  0  0  0  0
  -17.5470    8.6166  -10.2032 C   0  0  0  0  0  0  0  0  0  0  0  0
  -16.8012    7.4723  -10.0288 C   0  0  0  0  0  0  0  0  0  0  0  0
  -17.1703    6.3447  -10.7300 C   0  0  0  0  0  0  0  0  0  0  0  0
  -18.2303    6.4129  -11.5437 N   0  0  0  0  0  0  0  0  0  0  0  0
  -16.8501    9.9682  -20.8339 C   0  0  0  0  0  0  0  0  0  0  0  0
  -16.6808   11.2572  -20.1077 C   0  0  0  0  0  0  0  0  0  0  0  0
  -15.8766   11.0354  -18.8140 C   0  0  0  0  0  0  0  0  0  0  0  0
 34 35  1  0  0  0
 35 36  1  0  0  0
 35  1  1  0  0  0
  1  2  2  0  0  0
  2  3  1  0  0  0
  3  4  1  0  0  0
  4  5  2  0  0  0
  5  6  1  0  0  0
  6  7  2  0  0  0
  7  8  1  0  0  0
  8  9  2  0  0  0
  7 21  1  0  0  0
 21 22  1  0  0  0
 22 23  1  0  0  0
 23 24  1  0  0  0
 24 27  1  0  0  0
 27 28  1  0  0  0
 28 29  2  0  0  0
 29 30  1  0  0  0
 30 31  2  0  0  0
 31 32  1  0  0  0
 32 33  2  0  0  0
 24 25  1  0  0  0
 25 26  1  0  0  0
  2 11  1  0  0  0
 11 12  2  0  0  0
 12 13  1  0  0  0
 13 14  1  0  0  0
 14 15  2  0  0  0
 15 16  1  0  0  0
 16 17  2  0  0  0
 17 18  1  0  0  0
 18 19  2  0  0  0
 19 20  1  0  0  0
  9  1  1  0  0  0
 26 21  1  0  0  0
 19 11  1  0  0  0
  9  4  1  0  0  0
 33 28  1  0  0  0
 17 13  1  0  0  0
  3 10  1  0  0  0
M  END
> <minimizedAffinity>
-10.11744

> <CNNscore>
0.3695894182

> <CNNaffinity>
7.0052657127

> <CNN_VS>
2.5890719891

> <CNNaffinity_variance>
0.1945717633

$$$$
[H]c1nc2c([H])c(C([H])([H])[H])c(-c3c(C([H])(C([H])([H])[H])C([H])([H])[H])c4c([H])c(C5([H])C([H])([H])C([H])([H])N(C([H])([H])c6nc([H])c([H])c([H])n6)C([H])([H])C5([H])[H])c([H])c([H])c4n3[H])c([H])n2n1


 36 41  0  0  0  0  0  0  0  0999 V2000
  -17.7642   12.6956  -20.7360 C   0  0  0  0  0  0  0  0  0  0  0  0
  -18.1764   13.8365  -21.4489 C   0  0  0  0  0  0  0  0  0  0  0  0
  -19.2258   14.3158  -20.7580 N   0  0  0  0  0  0  0  0  0  0  0  0
  -19.5046   13.5877  -19.6915 C   0  0  0  0  0  0  0  0  0  0  0  0
  -20.4704   13.7058  -18.7165 C   0  0  0  0  0  0  0  0  0  0  0  0
  -20.5715   12.8148  -17.6756 C   0  0  0  0  0  0  0  0  0  0  0  0
  -19.6995   11.7651  -17.5755 C   0  0  0  0  0  0  0  0  0  0  0  0
  -18.7218   11.6549  -18.5724 C   0  0  0  0  0  0  0  0  0  0  0  0
  -18.6027   12.5363  -19.6250 C   0  0  0  0  0  0  0  0  0  0  0  0
  -19.7741   15.1596  -21.0381 H   0  0  0  0  0  0  0  0  0  0  0  0
  -17.5434   14.4511  -22.6088 C   0  0  0  0  0  0  0  0  0  0  0  0
  -17.6819   14.0186  -23.9070 C   0  0  0  0  0  0  0  0  0  0  0  0
  -17.0349   14.5242  -24.9803 N   0  0  0  0  0  0  0  0  0  0  0  0
  -17.0738   14.2039  -26.2684 N   0  0  0  0  0  0  0  0  0  0  0  0
  -16.2521   14.9921  -26.9529 C   0  0  0  0  0  0  0  0  0  0  0  0
  -15.6817   15.8324  -26.0581 N   0  0  0  0  0  0  0  0  0  0  0  0
  -16.1728   15.5359  -24.8344 C   0  0  0  0  0  0  0  0  0  0  0  0
  -15.9885   16.0171  -23.5633 C   0  0  0  0  0  0  0  0  0  0  0  0
  -16.6452   15.5075  -22.4451 C   0  0  0  0  0  0  0  0  0  0  0  0
  -16.3322   16.0922  -21.1243 C   0  0  0  0  0  0  0  0  0  0  0  0
  -19.7467   10.7731  -16.4947 C   0  0  0  0  0  0  0  0  0  0  0  0
  -19.0209    9.4899  -16.8169 C   0  0  0  0  0  0  0  0  0  0  0  0
  -19.3863    8.5250  -15.6777 C   0  0  0  0  0  0  0  0  0  0  0  0
  -19.7569    9.2284  -14.4940 N   0  0  0  0  0  0  0  0  0  0  0  0
  -21.0666    9.8238  -14.6645 C   0  0  0  0  0  0  0  0  0  0  0  0
  -21.1600   10.4640  -16.0414 C   0  0  0  0  0  0  0  0  0  0  0  0
  -19.8181    8.3072  -13.3861 C   0  0  0  0  0  0  0  0  0  0  0  0
  -19.1393    8.7527  -12.1699 C   0  0  0  0  0  0  0  0  0  0  0  0
  -19.3646    9.9903  -11.6396 N   0  0  0  0  0  0  0  0  0  0  0  0
  -18.7355   10.4042  -10.5270 C   0  0  0  0  0  0  0  0  0  0  0  0
  -17.8360    9.5845   -9.8824 C   0  0  0  0  0  0  0  0  0  0  0  0
  -17.6038    8.3337  -10.4121 C   0  0  0  0  0  0  0  0  0  0  0  0
  -18.2588    7.9747  -11.5223 N   0  0  0  0  0  0  0  0  0  0  0  0
  -16.0295   11.8814  -22.4160 C   0  0  0  0  0  0  0  0  0  0  0  0
  -16.6229   11.8585  -21.0503 C   0  0  0  0  0  0  0  0  0  0  0  0
  -16.9289   10.4098  -20.6292 C   0  0  0  0  0  0  0  0  0  0  0  0
 34 35  1  0  0  0
 35 36  1  0  0  0
 35  1  1  0  0  0
  1  2  2  0  0  0
  2  3  1  0  0  0
  3  4  1  0  0  0
  4  5  2  0  0  0
  5  6  1  0  0  0
  6  7  2  0  0  0
  7  8  1  0  0  0
  8  9  2  0  0  0
  7 21  1  0  0  0
 21 22  1  0  0  0
 22 23  1  0  0  0
 23 24  1  0  0  0
 24 27  1  0  0  0
 27 28  1  0  0  0
 28 29  2  0  0  0
 29 30  1  0  0  0
 30 31  2  0  0  0
 31 32  1  0  0  0
 32 33  2  0  0  0
 24 25  1  0  0  0
 25 26  1  0  0  0
  2 11  1  0  0  0
 11 12  2  0  0  0
 12 13  1  0  0  0
 13 14  1  0  0  0
 14 15  2  0  0  0
 15 16  1  0  0  0
 16 17  2  0  0  0
 17 18  1  0  0  0
 18 19  2  0  0  0
 19 20  1  0  0  0
  9  1  1  0  0  0
 26 21  1  0  0  0
 19 11  1  0  0  0
  9  4  1  0  0  0
 33 28  1  0  0  0
 17 13  1  0  0  0
  3 10  1  0  0  0
M  END
> <minimizedAffinity>
-10.34652

> <CNNscore>
0.3580611348

> <CNNaffinity>
7.0507249832

> <CNN_VS>
2.5245904922

> <CNNaffinity_variance>
0.1797771007

$$$$
[H]c1nc2c([H])c(C([H])([H])[H])c(-c3c(C([H])(C([H])([H])[H])C([H])([H])[H])c4c([H])c(C5([H])C([H])([H])C([H])([H])N(C([H])([H])c6nc([H])c([H])c([H])n6)C([H])([H])C5([H])[H])c([H])c([H])c4n3[H])c([H])n2n1


 36 41  0  0  0  0  0  0  0  0999 V2000
  -17.7394   12.8674  -20.8959 C   0  0  0  0  0  0  0  0  0  0  0  0
  -18.0824   14.0770  -21.5277 C   0  0  0  0  0  0  0  0  0  0  0  0
  -19.1225   14.5536  -20.8211 N   0  0  0  0  0  0  0  0  0  0  0  0
  -19.4577   13.7623  -19.8177 C   0  0  0  0  0  0  0  0  0  0  0  0
  -20.4373   13.8539  -18.8536 C   0  0  0  0  0  0  0  0  0  0  0  0
  -20.6020   12.8937  -17.8850 C   0  0  0  0  0  0  0  0  0  0  0  0
  -19.7827   11.7985  -17.8492 C   0  0  0  0  0  0  0  0  0  0  0  0
  -18.7903   11.7157  -18.8343 C   0  0  0  0  0  0  0  0  0  0  0  0
  -18.6078   12.6664  -19.8150 C   0  0  0  0  0  0  0  0  0  0  0  0
  -19.6245   15.4416  -21.0462 H   0  0  0  0  0  0  0  0  0  0  0  0
  -17.3968   14.7451  -22.6265 C   0  0  0  0  0  0  0  0  0  0  0  0
  -17.4798   14.3788  -23.9496 C   0  0  0  0  0  0  0  0  0  0  0  0
  -16.7845   14.9336  -24.9669 N   0  0  0  0  0  0  0  0  0  0  0  0
  -16.7680   14.6784  -26.2700 N   0  0  0  0  0  0  0  0  0  0  0  0
  -15.9141   15.4950  -26.8775 C   0  0  0  0  0  0  0  0  0  0  0  0
  -15.3805   16.2861  -25.9176 N   0  0  0  0  0  0  0  0  0  0  0  0
  -15.9258   15.9317  -24.7329 C   0  0  0  0  0  0  0  0  0  0  0  0
  -15.7957   16.3477  -23.4324 C   0  0  0  0  0  0  0  0  0  0  0  0
  -16.5027   15.7867  -22.3710 C   0  0  0  0  0  0  0  0  0  0  0  0
  -16.2459   16.3027  -21.0101 C   0  0  0  0  0  0  0  0  0  0  0  0
  -19.8992   10.7320  -16.8474 C   0  0  0  0  0  0  0  0  0  0  0  0
  -19.9959   11.2396  -15.4296 C   0  0  0  0  0  0  0  0  0  0  0  0
  -19.8734    9.9881  -14.5458 C   0  0  0  0  0  0  0  0  0  0  0  0
  -20.2690    8.8110  -15.2469 N   0  0  0  0  0  0  0  0  0  0  0  0
  -19.2574    8.4543  -16.2206 C   0  0  0  0  0  0  0  0  0  0  0  0
  -18.7894    9.7043  -16.9506 C   0  0  0  0  0  0  0  0  0  0  0  0
  -20.4064    7.7192  -14.3148 C   0  0  0  0  0  0  0  0  0  0  0  0
  -20.7965    6.4412  -14.9087 C   0  0  0  0  0  0  0  0  0  0  0  0
  -21.8811    6.3380  -15.7312 N   0  0  0  0  0  0  0  0  0  0  0  0
  -22.2458    5.1630  -16.2709 C   0  0  0  0  0  0  0  0  0  0  0  0
  -21.5295    4.0167  -16.0078 C   0  0  0  0  0  0  0  0  0  0  0  0
  -20.4332    4.1134  -15.1784 C   0  0  0  0  0  0  0  0  0  0  0  0
  -20.1167    5.3096  -14.6692 N   0  0  0  0  0  0  0  0  0  0  0  0
  -16.1074   11.9910  -22.6461 C   0  0  0  0  0  0  0  0  0  0  0  0
  -16.6323   12.0019  -21.2525 C   0  0  0  0  0  0  0  0  0  0  0  0
  -16.9459   10.5667  -20.7927 C   0  0  0  0  0  0  0  0  0  0  0  0
 34 35  1  0  0  0
 35 36  1  0  0  0
 35  1  1  0  0  0
  1  2  2  0  0  0
  2  3  1  0  0  0
  3  4  1  0  0  0
  4  5  2  0  0  0
  5  6  1  0  0  0
  6  7  2  0  0  0
  7  8  1  0  0  0
  8  9  2  0  0  0
  7 21  1  0  0  0
 21 22  1  0  0  0
 22 23  1  0  0  0
 23 24  1  0  0  0
 24 27  1  0  0  0
 27 28  1  0  0  0
 28 29  2  0  0  0
 29 30  1  0  0  0
 30 31  2  0  0  0
 31 32  1  0  0  0
 32 33  2  0  0  0
 24 25  1  0  0  0
 25 26  1  0  0  0
  2 11  1  0  0  0
 11 12  2  0  0  0
 12 13  1  0  0  0
 13 14  1  0  0  0
 14 15  2  0  0  0
 15 16  1  0  0  0
 16 17  2  0  0  0
 17 18  1  0  0  0
 18 19  2  0  0  0
 19 20  1  0  0  0
  9  1  1  0  0  0
 26 21  1  0  0  0
 19 11  1  0  0  0
  9  4  1  0  0  0
 33 28  1  0  0  0
 17 13  1  0  0  0
  3 10  1  0  0  0
M  END
> <minimizedAffinity>
-9.72989

> <CNNscore>
0.3248953521

> <CNNaffinity>
7.1467018127

> <CNN_VS>
2.3219301701

> <CNNaffinity_variance>
0.1396866590

$$$$
[H]c1nc2c([H])c(C([H])([H])[H])c(-c3c(C([H])(C([H])([H])[H])C([H])([H])[H])c4c([H])c(C5([H])C([H])([H])C([H])([H])N(C([H])([H])c6nc([H])c([H])c([H])n6)C([H])([H])C5([H])[H])c([H])c([H])c4n3[H])c([H])n2n1


 36 41  0  0  0  0  0  0  0  0999 V2000
  -18.4406   13.4223  -20.5656 C   0  0  0  0  0  0  0  0  0  0  0  0
  -17.3721   13.2436  -21.4634 C   0  0  0  0  0  0  0  0  0  0  0  0
  -16.7811   12.1000  -21.0748 N   0  0  0  0  0  0  0  0  0  0  0  0
  -17.3746   11.5540  -20.0284 C   0  0  0  0  0  0  0  0  0  0  0  0
  -17.1172   10.4054  -19.3128 C   0  0  0  0  0  0  0  0  0  0  0  0
  -17.8863   10.0244  -18.2401 C   0  0  0  0  0  0  0  0  0  0  0  0
  -18.9499   10.7889  -17.8443 C   0  0  0  0  0  0  0  0  0  0  0  0
  -19.2021   11.9544  -18.5791 C   0  0  0  0  0  0  0  0  0  0  0  0
  -18.4437   12.3556  -19.6574 C   0  0  0  0  0  0  0  0  0  0  0  0
  -15.9362   11.6928  -21.5345 H   0  0  0  0  0  0  0  0  0  0  0  0
  -17.0389   14.0409  -22.6370 C   0  0  0  0  0  0  0  0  0  0  0  0
  -17.1932   13.6315  -23.9409 C   0  0  0  0  0  0  0  0  0  0  0  0
  -16.8098   14.3243  -25.0360 N   0  0  0  0  0  0  0  0  0  0  0  0
  -16.8962   14.0489  -26.3321 N   0  0  0  0  0  0  0  0  0  0  0  0
  -16.3777   15.0468  -27.0396 C   0  0  0  0  0  0  0  0  0  0  0  0
  -15.9536   15.9758  -26.1512 N   0  0  0  0  0  0  0  0  0  0  0  0
  -16.2254   15.5203  -24.9082 C   0  0  0  0  0  0  0  0  0  0  0  0
  -16.0423   15.9895  -23.6325 C   0  0  0  0  0  0  0  0  0  0  0  0
  -16.4294   15.2888  -22.4921 C   0  0  0  0  0  0  0  0  0  0  0  0
  -16.1440   15.8897  -21.1724 C   0  0  0  0  0  0  0  0  0  0  0  0
  -19.8145   10.4477  -16.7083 C   0  0  0  0  0  0  0  0  0  0  0  0
  -20.0187   11.5854  -15.7382 C   0  0  0  0  0  0  0  0  0  0  0  0
  -20.7403   10.9610  -14.5333 C   0  0  0  0  0  0  0  0  0  0  0  0
  -21.4537    9.7829  -14.9028 N   0  0  0  0  0  0  0  0  0  0  0  0
  -20.5231    8.7000  -15.1475 C   0  0  0  0  0  0  0  0  0  0  0  0
  -19.3456    9.2141  -15.9620 C   0  0  0  0  0  0  0  0  0  0  0  0
  -22.3300    9.3934  -13.8257 C   0  0  0  0  0  0  0  0  0  0  0  0
  -23.7317    9.7730  -13.9973 C   0  0  0  0  0  0  0  0  0  0  0  0
  -24.6259    8.9429  -14.6096 N   0  0  0  0  0  0  0  0  0  0  0  0
  -25.9121    9.2936  -14.7756 C   0  0  0  0  0  0  0  0  0  0  0  0
  -26.3710   10.5127  -14.3288 C   0  0  0  0  0  0  0  0  0  0  0  0
  -25.4739   11.3558  -13.7096 C   0  0  0  0  0  0  0  0  0  0  0  0
  -24.2051   10.9540  -13.5717 N   0  0  0  0  0  0  0  0  0  0  0  0
  -19.1641   15.7717  -19.8936 C   0  0  0  0  0  0  0  0  0  0  0  0
  -19.4209   14.4898  -20.6066 C   0  0  0  0  0  0  0  0  0  0  0  0
  -20.7965   13.9267  -20.2064 C   0  0  0  0  0  0  0  0  0  0  0  0
 34 35  1  0  0  0
 35 36  1  0  0  0
 35  1  1  0  0  0
  1  2  2  0  0  0
  2  3  1  0  0  0
  3  4  1  0  0  0
  4  5  2  0  0  0
  5  6  1  0  0  0
  6  7  2  0  0  0
  7  8  1  0  0  0
  8  9  2  0  0  0
  7 21  1  0  0  0
 21 22  1  0  0  0
 22 23  1  0  0  0
 23 24  1  0  0  0
 24 27  1  0  0  0
 27 28  1  0  0  0
 28 29  2  0  0  0
 29 30  1  0  0  0
 30 31  2  0  0  0
 31 32  1  0  0  0
 32 33  2  0  0  0
 24 25  1  0  0  0
 25 26  1  0  0  0
  2 11  1  0  0  0
 11 12  2  0  0  0
 12 13  1  0  0  0
 13 14  1  0  0  0
 14 15  2  0  0  0
 15 16  1  0  0  0
 16 17  2  0  0  0
 17 18  1  0  0  0
 18 19  2  0  0  0
 19 20  1  0  0  0
  9  1  1  0  0  0
 26 21  1  0  0  0
 19 11  1  0  0  0
  9  4  1  0  0  0
 33 28  1  0  0  0
 17 13  1  0  0  0
  3 10  1  0  0  0
M  END
> <minimizedAffinity>
-9.38999

> <CNNscore>
0.3108059764

> <CNNaffinity>
7.1369400024

> <CNN_VS>
2.2182035446

> <CNNaffinity_variance>
0.2188666314

$$$$
[H]c1nc2c([H])c(C([H])([H])[H])c(-c3c(C([H])(C([H])([H])[H])C([H])([H])[H])c4c([H])c(C5([H])C([H])([H])C([H])([H])N(C([H])([H])c6nc([H])c([H])c([H])n6)C([H])([H])C5([H])[H])c([H])c([H])c4n3[H])c([H])n2n1


 36 41  0  0  0  0  0  0  0  0999 V2000
  -18.4966   13.3657  -20.5374 C   0  0  0  0  0  0  0  0  0  0  0  0
  -17.4230   13.1853  -21.4288 C   0  0  0  0  0  0  0  0  0  0  0  0
  -16.8267   12.0491  -21.0269 N   0  0  0  0  0  0  0  0  0  0  0  0
  -17.4214   11.5091  -19.9782 C   0  0  0  0  0  0  0  0  0  0  0  0
  -17.1602   10.3689  -19.2507 C   0  0  0  0  0  0  0  0  0  0  0  0
  -17.9317    9.9931  -18.1779 C   0  0  0  0  0  0  0  0  0  0  0  0
  -19.0018   10.7545  -17.7940 C   0  0  0  0  0  0  0  0  0  0  0  0
  -19.2579   11.9116  -18.5407 C   0  0  0  0  0  0  0  0  0  0  0  0
  -18.4972   12.3074  -19.6193 C   0  0  0  0  0  0  0  0  0  0  0  0
  -15.9772   11.6429  -21.4791 H   0  0  0  0  0  0  0  0  0  0  0  0
  -17.0895   13.9738  -22.6082 C   0  0  0  0  0  0  0  0  0  0  0  0
  -17.2497   13.5571  -23.9091 C   0  0  0  0  0  0  0  0  0  0  0  0
  -16.8663   14.2413  -25.0096 N   0  0  0  0  0  0  0  0  0  0  0  0
  -16.9578   13.9583  -26.3038 N   0  0  0  0  0  0  0  0  0  0  0  0
  -16.4367   14.9493  -27.0189 C   0  0  0  0  0  0  0  0  0  0  0  0
  -16.0054   15.8817  -26.1375 N   0  0  0  0  0  0  0  0  0  0  0  0
  -16.2756   15.4351  -24.8909 C   0  0  0  0  0  0  0  0  0  0  0  0
  -16.0864   15.9114  -23.6187 C   0  0  0  0  0  0  0  0  0  0  0  0
  -16.4735   15.2195  -22.4729 C   0  0  0  0  0  0  0  0  0  0  0  0
  -16.1813   15.8271  -21.1577 C   0  0  0  0  0  0  0  0  0  0  0  0
  -19.8693   10.4185  -16.6587 C   0  0  0  0  0  0  0  0  0  0  0  0
  -20.2752   11.6132  -15.8310 C   0  0  0  0  0  0  0  0  0  0  0  0
  -20.9665   11.0258  -14.5902 C   0  0  0  0  0  0  0  0  0  0  0  0
  -21.4939    9.7267  -14.8501 N   0  0  0  0  0  0  0  0  0  0  0  0
  -20.4139    8.7651  -14.9374 C   0  0  0  0  0  0  0  0  0  0  0  0
  -19.2766    9.3495  -15.7618 C   0  0  0  0  0  0  0  0  0  0  0  0
  -22.3634    9.3352  -13.7682 C   0  0  0  0  0  0  0  0  0  0  0  0
  -22.2067    7.9539  -13.3145 C   0  0  0  0  0  0  0  0  0  0  0  0
  -22.7445    6.9092  -14.0093 N   0  0  0  0  0  0  0  0  0  0  0  0
  -22.6085    5.6403  -13.5892 C   0  0  0  0  0  0  0  0  0  0  0  0
  -21.9160    5.3532  -12.4342 C   0  0  0  0  0  0  0  0  0  0  0  0
  -21.3701    6.4030  -11.7276 C   0  0  0  0  0  0  0  0  0  0  0  0
  -21.5372    7.6462  -12.1933 N   0  0  0  0  0  0  0  0  0  0  0  0
  -19.2371   15.7171  -19.8915 C   0  0  0  0  0  0  0  0  0  0  0  0
  -19.4833   14.4266  -20.5927 C   0  0  0  0  0  0  0  0  0  0  0  0
  -20.8569   13.8590  -20.1920 C   0  0  0  0  0  0  0  0  0  0  0  0
 34 35  1  0  0  0
 35 36  1  0  0  0
 35  1  1  0  0  0
  1  2  2  0  0  0
  2  3  1  0  0  0
  3  4  1  0  0  0
  4  5  2  0  0  0
  5  6  1  0  0  0
  6  7  2  0  0  0
  7  8  1  0  0  0
  8  9  2  0  0  0
  7 21  1  0  0  0
 21 22  1  0  0  0
 22 23  1  0  0  0
 23 24  1  0  0  0
 24 27  1  0  0  0
 27 28  1  0  0  0
 28 29  2  0  0  0
 29 30  1  0  0  0
 30 31  2  0  0  0
 31 32  1  0  0  0
 32 33  2  0  0  0
 24 25  1  0  0  0
 25 26  1  0  0  0
  2 11  1  0  0  0
 11 12  2  0  0  0
 12 13  1  0  0  0
 13 14  1  0  0  0
 14 15  2  0  0  0
 15 16  1  0  0  0
 16 17  2  0  0  0
 17 18  1  0  0  0
 18 19  2  0  0  0
 19 20  1  0  0  0
  9  1  1  0  0  0
 26 21  1  0  0  0
 19 11  1  0  0  0
  9  4  1  0  0  0
 33 28  1  0  0  0
 17 13  1  0  0  0
  3 10  1  0  0  0
M  END
> <minimizedAffinity>
-9.29008

> <CNNscore>
0.3026010990

> <CNNaffinity>
7.1428117752

> <CNN_VS>
2.1614227295

> <CNNaffinity_variance>
0.1507163048

$$$$
[H]c1nc2c([H])c(C([H])([H])[H])c(-c3c(C([H])(C([H])([H])[H])C([H])([H])[H])c4c([H])c(C5([H])C([H])([H])C([H])([H])N(C([H])([H])c6nc([H])c([H])c([H])n6)C([H])([H])C5([H])[H])c([H])c([H])c4n3[H])c([H])n2n1


 36 41  0  0  0  0  0  0  0  0999 V2000
  -17.9121   12.1812  -19.5863 C   0  0  0  0  0  0  0  0  0  0  0  0
  -18.1915   13.3535  -20.3125 C   0  0  0  0  0  0  0  0  0  0  0  0
  -19.2670   13.8875  -19.7073 N   0  0  0  0  0  0  0  0  0  0  0  0
  -19.6811   13.1650  -18.6817 C   0  0  0  0  0  0  0  0  0  0  0  0
  -20.7200   13.3300  -17.7923 C   0  0  0  0  0  0  0  0  0  0  0  0
  -20.9648   12.4344  -16.7796 C   0  0  0  0  0  0  0  0  0  0  0  0
  -20.1691   11.3325  -16.6223 C   0  0  0  0  0  0  0  0  0  0  0  0
  -19.1160   11.1749  -17.5323 C   0  0  0  0  0  0  0  0  0  0  0  0
  -18.8528   12.0600  -18.5552 C   0  0  0  0  0  0  0  0  0  0  0  0
  -19.7374   14.7664  -20.0193 H   0  0  0  0  0  0  0  0  0  0  0  0
  -17.4237   13.9423  -21.4024 C   0  0  0  0  0  0  0  0  0  0  0  0
  -17.0309   13.2790  -22.5414 C   0  0  0  0  0  0  0  0  0  0  0  0
  -16.2475   13.7857  -23.5190 N   0  0  0  0  0  0  0  0  0  0  0  0
  -15.7977   13.2614  -24.6531 N   0  0  0  0  0  0  0  0  0  0  0  0
  -15.0521   14.1533  -25.2963 C   0  0  0  0  0  0  0  0  0  0  0  0
  -15.0378   15.2721  -24.5346 N   0  0  0  0  0  0  0  0  0  0  0  0
  -15.7826   15.0364  -23.4318 C   0  0  0  0  0  0  0  0  0  0  0  0
  -16.1385   15.7558  -22.3195 C   0  0  0  0  0  0  0  0  0  0  0  0
  -16.9436   15.2496  -21.3011 C   0  0  0  0  0  0  0  0  0  0  0  0
  -17.2258   16.1160  -20.1376 C   0  0  0  0  0  0  0  0  0  0  0  0
  -20.3699   10.3324  -15.5669 C   0  0  0  0  0  0  0  0  0  0  0  0
  -21.7590    9.7432  -15.5458 C   0  0  0  0  0  0  0  0  0  0  0  0
  -21.8251    8.9168  -14.2516 C   0  0  0  0  0  0  0  0  0  0  0  0
  -20.5274    8.5087  -13.8238 N   0  0  0  0  0  0  0  0  0  0  0  0
  -19.8063    9.6444  -13.2861 C   0  0  0  0  0  0  0  0  0  0  0  0
  -20.0113   10.8519  -14.1885 C   0  0  0  0  0  0  0  0  0  0  0  0
  -20.6533    7.5176  -12.7838 C   0  0  0  0  0  0  0  0  0  0  0  0
  -19.9062    6.2812  -13.0107 C   0  0  0  0  0  0  0  0  0  0  0  0
  -19.0911    5.7537  -12.0511 N   0  0  0  0  0  0  0  0  0  0  0  0
  -18.3975    4.6224  -12.2610 C   0  0  0  0  0  0  0  0  0  0  0  0
  -18.4891    3.9549  -13.4620 C   0  0  0  0  0  0  0  0  0  0  0  0
  -19.3103    4.4816  -14.4354 C   0  0  0  0  0  0  0  0  0  0  0  0
  -19.9771    5.6111  -14.1709 N   0  0  0  0  0  0  0  0  0  0  0  0
  -17.0220    9.9679  -20.4827 C   0  0  0  0  0  0  0  0  0  0  0  0
  -16.7994   11.2801  -19.8147 C   0  0  0  0  0  0  0  0  0  0  0  0
  -16.0335   11.0800  -18.4945 C   0  0  0  0  0  0  0  0  0  0  0  0
 34 35  1  0  0  0
 35 36  1  0  0  0
 35  1  1  0  0  0
  1  2  2  0  0  0
  2  3  1  0  0  0
  3  4  1  0  0  0
  4  5  2  0  0  0
  5  6  1  0  0  0
  6  7  2  0  0  0
  7  8  1  0  0  0
  8  9  2  0  0  0
  7 21  1  0  0  0
 21 22  1  0  0  0
 22 23  1  0  0  0
 23 24  1  0  0  0
 24 27  1  0  0  0
 27 28  1  0  0  0
 28 29  2  0  0  0
 29 30  1  0  0  0
 30 31  2  0  0  0
 31 32  1  0  0  0
 32 33  2  0  0  0
 24 25  1  0  0  0
 25 26  1  0  0  0
  2 11  1  0  0  0
 11 12  2  0  0  0
 12 13  1  0  0  0
 13 14  1  0  0  0
 14 15  2  0  0  0
 15 16  1  0  0  0
 16 17  2  0  0  0
 17 18  1  0  0  0
 18 19  2  0  0  0
 19 20  1  0  0  0
  9  1  1  0  0  0
 26 21  1  0  0  0
 19 11  1  0  0  0
  9  4  1  0  0  0
 33 28  1  0  0  0
 17 13  1  0  0  0
  3 10  1  0  0  0
M  END
> <minimizedAffinity>
-9.47065

> <CNNscore>
0.2742011249

> <CNNaffinity>
6.9149079323

> <CNN_VS>
1.8960754871

> <CNNaffinity_variance>
0.1339985132

$$$$
[H]ON([H])C(=O)C1([H])c2c([H])c([H])c(S(=O)(=O)c3c([H])c([H])c(OC([H])([H])[H])c([H])c3[H])c([H])c2C([H])([H])C([H])([H])N1S(=O)(=O)c1c([H])c([H])c(OC([H])([H])[H])c([H])c1[H]


 38 41  0  0  0  0  0  0  0  0999 V2000
  -18.5111   10.7528  -18.5679 N   0  0  0  0  0  0  0  0  0  0  0  0
  -18.4541    9.3432  -18.4179 C   0  0  0  0  0  0  0  0  0  0  0  0
  -18.5110    8.8880  -16.9686 C   0  0  0  0  0  0  0  0  0  0  0  0
  -19.7656    9.4817  -16.3597 C   0  0  0  0  0  0  0  0  0  0  0  0
  -20.6626    8.7744  -15.6339 C   0  0  0  0  0  0  0  0  0  0  0  0
  -21.8000    9.4342  -15.1733 C   0  0  0  0  0  0  0  0  0  0  0  0
  -22.0167   10.7671  -15.4426 C   0  0  0  0  0  0  0  0  0  0  0  0
  -21.0729   11.4670  -16.1924 C   0  0  0  0  0  0  0  0  0  0  0  0
  -19.9395   10.8186  -16.6525 C   0  0  0  0  0  0  0  0  0  0  0  0
  -18.8757   11.4967  -17.4214 C   0  0  0  0  0  0  0  0  0  0  0  0
  -19.2632   12.9008  -17.7437 C   0  0  0  0  0  0  0  0  0  0  0  0
  -20.1243   13.2457  -18.5623 O   0  0  0  0  0  0  0  0  0  0  0  0
  -18.5779   13.9448  -17.0486 N   0  0  0  0  0  0  0  0  0  0  0  0
  -18.8380   15.2578  -17.2560 O   0  0  0  0  0  0  0  0  0  0  0  0
  -17.8386   13.7394  -16.3427 H   0  0  0  0  0  0  0  0  0  0  0  0
  -17.9622   15.7475  -17.2670 H   0  0  0  0  0  0  0  0  0  0  0  0
  -16.9834   11.2719  -19.2272 S   0  0  0  0  0  0  0  0  0  0  0  0
  -16.1803   11.8898  -18.1589 O   0  0  0  0  0  0  0  0  0  0  0  0
  -16.2228   10.0741  -19.7482 O   0  0  0  0  0  0  0  0  0  0  0  0
  -17.7001   14.0393  -22.7386 C   0  0  0  0  0  0  0  0  0  0  0  0
  -17.6473   14.5253  -21.4474 C   0  0  0  0  0  0  0  0  0  0  0  0
  -17.4331   13.6740  -20.4036 C   0  0  0  0  0  0  0  0  0  0  0  0
  -17.2634   12.3066  -20.6084 C   0  0  0  0  0  0  0  0  0  0  0  0
  -17.3198   11.8467  -21.9027 C   0  0  0  0  0  0  0  0  0  0  0  0
  -17.5377   12.7006  -22.9807 C   0  0  0  0  0  0  0  0  0  0  0  0
  -17.1309   14.9093  -24.9329 C   0  0  0  0  0  0  0  0  0  0  0  0
  -17.9185   14.9248  -23.7751 O   0  0  0  0  0  0  0  0  0  0  0  0
  -22.9418    8.4977  -14.2382 S   0  0  0  0  0  0  0  0  0  0  0  0
  -23.6655    7.5563  -15.1575 O   0  0  0  0  0  0  0  0  0  0  0  0
  -23.9379    9.4679  -13.6243 O   0  0  0  0  0  0  0  0  0  0  0  0
  -22.1457    7.5741  -12.9831 C   0  0  0  0  0  0  0  0  0  0  0  0
  -20.7916    7.6684  -12.7542 C   0  0  0  0  0  0  0  0  0  0  0  0
  -20.2440    6.9053  -11.7460 C   0  0  0  0  0  0  0  0  0  0  0  0
  -20.9933    6.0559  -10.9617 C   0  0  0  0  0  0  0  0  0  0  0  0
  -22.3514    5.9870  -11.2205 C   0  0  0  0  0  0  0  0  0  0  0  0
  -22.9217    6.7377  -12.2202 C   0  0  0  0  0  0  0  0  0  0  0  0
  -20.4361    5.2832   -9.9402 O   0  0  0  0  0  0  0  0  0  0  0  0
  -19.8461    5.8317   -8.8042 C   0  0  0  0  0  0  0  0  0  0  0  0
 26 27  1  0  0  0
 27 20  1  0  0  0
 20 21  2  0  0  0
 21 22  1  0  0  0
 22 23  2  0  0  0
 23 24  1  0  0  0
 24 25  2  0  0  0
 23 17  1  0  0  0
 17 18  2  0  0  0
 17 19  2  0  0  0
 17  1  1  0  0  0
  1  2  1  0  0  0
  2  3  1  0  0  0
  3  4  1  0  0  0
  4  5  2  0  0  0
  5  6  1  0  0  0
  6  7  2  0  0  0
  7  8  1  0  0  0
  8  9  2  0  0  0
  9 10  1  0  0  0
 10 11  1  0  0  0
 11 12  2  0  0  0
 11 13  1  0  0  0
 13 14  1  0  0  0
  6 28  1  0  0  0
 28 29  2  0  0  0
 28 30  2  0  0  0
 28 31  1  0  0  0
 31 32  2  0  0  0
 32 33  1  0  0  0
 33 34  2  0  0  0
 34 37  1  0  0  0
 37 38  1  0  0  0
 34 35  1  0  0  0
 35 36  2  0  0  0
 25 20  1  0  0  0
 10  1  1  0  0  0
 36 31  1  0  0  0
  9  4  1  0  0  0
 13 15  1  0  0  0
 14 16  1  0  0  0
M  END
> <minimizedAffinity>
-6.74720

> <CNNscore>
0.2422994673

> <CNNaffinity>
6.2870392799

> <CNN_VS>
1.5233463049

> <CNNaffinity_variance>
0.1969254464

$$$$
[H]ON([H])C(=O)C1([H])c2c([H])c([H])c(S(=O)(=O)c3c([H])c([H])c(OC([H])([H])[H])c([H])c3[H])c([H])c2C([H])([H])C([H])([H])N1S(=O)(=O)c1c([H])c([H])c(OC([H])([H])[H])c([H])c1[H]


 38 41  0  0  0  0  0  0  0  0999 V2000
  -18.6525   13.3770  -18.2401 N   0  0  0  0  0  0  0  0  0  0  0  0
  -19.5885   13.6611  -17.2125 C   0  0  0  0  0  0  0  0  0  0  0  0
  -20.7112   12.6404  -17.1201 C   0  0  0  0  0  0  0  0  0  0  0  0
  -20.0681   11.2783  -16.9527 C   0  0  0  0  0  0  0  0  0  0  0  0
  -20.4396   10.3758  -16.0151 C   0  0  0  0  0  0  0  0  0  0  0  0
  -19.7301    9.1791  -15.9390 C   0  0  0  0  0  0  0  0  0  0  0  0
  -18.6791    8.9110  -16.7873 C   0  0  0  0  0  0  0  0  0  0  0  0
  -18.3223    9.8615  -17.7422 C   0  0  0  0  0  0  0  0  0  0  0  0
  -19.0233   11.0525  -17.8250 C   0  0  0  0  0  0  0  0  0  0  0  0
  -18.7319   12.0943  -18.8311 C   0  0  0  0  0  0  0  0  0  0  0  0
  -17.5154   11.7469  -19.6215 C   0  0  0  0  0  0  0  0  0  0  0  0
  -16.4228   11.4002  -19.1561 O   0  0  0  0  0  0  0  0  0  0  0  0
  -17.6161   11.8233  -21.0451 N   0  0  0  0  0  0  0  0  0  0  0  0
  -16.5811   11.5357  -21.8702 O   0  0  0  0  0  0  0  0  0  0  0  0
  -18.5013   12.1072  -21.5172 H   0  0  0  0  0  0  0  0  0  0  0  0
  -16.5783   12.2145  -22.6093 H   0  0  0  0  0  0  0  0  0  0  0  0
  -18.7698   14.6518  -19.4230 S   0  0  0  0  0  0  0  0  0  0  0  0
  -17.4486   14.8654  -20.0367 O   0  0  0  0  0  0  0  0  0  0  0  0
  -19.7304   14.2425  -20.5159 O   0  0  0  0  0  0  0  0  0  0  0  0
  -20.6505   18.3192  -17.5481 C   0  0  0  0  0  0  0  0  0  0  0  0
  -21.3383   17.5597  -18.4735 C   0  0  0  0  0  0  0  0  0  0  0  0
  -20.7522   16.4602  -19.0282 C   0  0  0  0  0  0  0  0  0  0  0  0
  -19.4588   16.0771  -18.6809 C   0  0  0  0  0  0  0  0  0  0  0  0
  -18.7944   16.8488  -17.7574 C   0  0  0  0  0  0  0  0  0  0  0  0
  -19.3764   17.9745  -17.1806 C   0  0  0  0  0  0  0  0  0  0  0  0
  -20.6600   20.1891  -15.9992 C   0  0  0  0  0  0  0  0  0  0  0  0
  -21.2693   19.4267  -17.0035 O   0  0  0  0  0  0  0  0  0  0  0  0
  -20.2307    8.0310  -14.7198 S   0  0  0  0  0  0  0  0  0  0  0  0
  -19.8153    6.6536  -15.1505 O   0  0  0  0  0  0  0  0  0  0  0  0
  -21.7464    8.0936  -14.6247 O   0  0  0  0  0  0  0  0  0  0  0  0
  -19.5123    8.3858  -13.1641 C   0  0  0  0  0  0  0  0  0  0  0  0
  -18.8809    7.4199  -12.4137 C   0  0  0  0  0  0  0  0  0  0  0  0
  -18.3425    7.7837  -11.1986 C   0  0  0  0  0  0  0  0  0  0  0  0
  -18.4102    9.0688  -10.7069 C   0  0  0  0  0  0  0  0  0  0  0  0
  -19.0525   10.0136  -11.4887 C   0  0  0  0  0  0  0  0  0  0  0  0
  -19.5977    9.6761  -12.7040 C   0  0  0  0  0  0  0  0  0  0  0  0
  -17.8637    9.4355   -9.4748 O   0  0  0  0  0  0  0  0  0  0  0  0
  -16.4947    9.4426   -9.2195 C   0  0  0  0  0  0  0  0  0  0  0  0
 26 27  1  0  0  0
 27 20  1  0  0  0
 20 21  2  0  0  0
 21 22  1  0  0  0
 22 23  2  0  0  0
 23 24  1  0  0  0
 24 25  2  0  0  0
 23 17  1  0  0  0
 17 18  2  0  0  0
 17 19  2  0  0  0
 17  1  1  0  0  0
  1  2  1  0  0  0
  2  3  1  0  0  0
  3  4  1  0  0  0
  4  5  2  0  0  0
  5  6  1  0  0  0
  6  7  2  0  0  0
  7  8  1  0  0  0
  8  9  2  0  0  0
  9 10  1  0  0  0
 10 11  1  0  0  0
 11 12  2  0  0  0
 11 13  1  0  0  0
 13 14  1  0  0  0
  6 28  1  0  0  0
 28 29  2  0  0  0
 28 30  2  0  0  0
 28 31  1  0  0  0
 31 32  2  0  0  0
 32 33  1  0  0  0
 33 34  2  0  0  0
 34 37  1  0  0  0
 37 38  1  0  0  0
 34 35  1  0  0  0
 35 36  2  0  0  0
 25 20  1  0  0  0
 10  1  1  0  0  0
 36 31  1  0  0  0
  9  4  1  0  0  0
 13 15  1  0  0  0
 14 16  1  0  0  0
M  END
> <minimizedAffinity>
-8.23169

> <CNNscore>
0.2372341603

> <CNNaffinity>
6.2849783897

> <CNN_VS>
1.4910116196

> <CNNaffinity_variance>
0.0543165207

$$$$
[H]ON([H])C(=O)C1([H])c2c([H])c([H])c(S(=O)(=O)c3c([H])c([H])c(OC([H])([H])[H])c([H])c3[H])c([H])c2C([H])([H])C([H])([H])N1S(=O)(=O)c1c([H])c([H])c(OC([H])([H])[H])c([H])c1[H]


 38 41  0  0  0  0  0  0  0  0999 V2000
  -17.5996   16.8865  -21.8181 N   0  0  0  0  0  0  0  0  0  0  0  0
  -17.4541   16.9213  -20.4073 C   0  0  0  0  0  0  0  0  0  0  0  0
  -18.3209   15.9018  -19.6861 C   0  0  0  0  0  0  0  0  0  0  0  0
  -17.9910   14.5408  -20.2656 C   0  0  0  0  0  0  0  0  0  0  0  0
  -17.7238   13.4444  -19.5185 C   0  0  0  0  0  0  0  0  0  0  0  0
  -17.3864   12.2657  -20.1804 C   0  0  0  0  0  0  0  0  0  0  0  0
  -17.3230   12.2056  -21.5546 C   0  0  0  0  0  0  0  0  0  0  0  0
  -17.6046   13.3526  -22.2948 C   0  0  0  0  0  0  0  0  0  0  0  0
  -17.9419   14.5273  -21.6443 C   0  0  0  0  0  0  0  0  0  0  0  0
  -18.2893   15.7747  -22.3556 C   0  0  0  0  0  0  0  0  0  0  0  0
  -18.0853   15.6247  -23.8257 C   0  0  0  0  0  0  0  0  0  0  0  0
  -18.9292   15.2266  -24.6381 O   0  0  0  0  0  0  0  0  0  0  0  0
  -16.7992   15.9677  -24.3463 N   0  0  0  0  0  0  0  0  0  0  0  0
  -16.4907   15.8714  -25.6617 O   0  0  0  0  0  0  0  0  0  0  0  0
  -16.0323   16.3113  -23.7291 H   0  0  0  0  0  0  0  0  0  0  0  0
  -15.5621   15.4979  -25.7340 H   0  0  0  0  0  0  0  0  0  0  0  0
  -18.3122   18.3995  -22.3090 S   0  0  0  0  0  0  0  0  0  0  0  0
  -17.6323   19.5035  -21.6112 O   0  0  0  0  0  0  0  0  0  0  0  0
  -18.1138   18.5950  -23.7946 O   0  0  0  0  0  0  0  0  0  0  0  0
  -22.7742   18.2881  -21.5471 C   0  0  0  0  0  0  0  0  0  0  0  0
  -21.8838   18.5603  -20.5277 C   0  0  0  0  0  0  0  0  0  0  0  0
  -20.5434   18.5864  -20.7782 C   0  0  0  0  0  0  0  0  0  0  0  0
  -20.0410   18.3420  -22.0543 C   0  0  0  0  0  0  0  0  0  0  0  0
  -20.9471   18.0736  -23.0527 C   0  0  0  0  0  0  0  0  0  0  0  0
  -22.3188   18.0427  -22.8158 C   0  0  0  0  0  0  0  0  0  0  0  0
  -24.6168   18.6298  -20.0032 C   0  0  0  0  0  0  0  0  0  0  0  0
  -24.1252   18.2684  -21.2637 O   0  0  0  0  0  0  0  0  0  0  0  0
  -17.0466   10.8648  -19.1919 S   0  0  0  0  0  0  0  0  0  0  0  0
  -15.7647   11.0973  -18.4450 O   0  0  0  0  0  0  0  0  0  0  0  0
  -16.8788    9.6753  -20.1231 O   0  0  0  0  0  0  0  0  0  0  0  0
  -18.3309   10.5571  -18.0437 C   0  0  0  0  0  0  0  0  0  0  0  0
  -19.2468   11.5240  -17.6959 C   0  0  0  0  0  0  0  0  0  0  0  0
  -20.2264   11.1988  -16.7830 C   0  0  0  0  0  0  0  0  0  0  0  0
  -20.3256    9.9512  -16.2072 C   0  0  0  0  0  0  0  0  0  0  0  0
  -19.3875    9.0042  -16.5808 C   0  0  0  0  0  0  0  0  0  0  0  0
  -18.4008    9.3036  -17.4892 C   0  0  0  0  0  0  0  0  0  0  0  0
  -21.3195    9.6236  -15.2820 O   0  0  0  0  0  0  0  0  0  0  0  0
  -22.6785    9.8045  -15.5263 C   0  0  0  0  0  0  0  0  0  0  0  0
 26 27  1  0  0  0
 27 20  1  0  0  0
 20 21  2  0  0  0
 21 22  1  0  0  0
 22 23  2  0  0  0
 23 24  1  0  0  0
 24 25  2  0  0  0
 23 17  1  0  0  0
 17 18  2  0  0  0
 17 19  2  0  0  0
 17  1  1  0  0  0
  1  2  1  0  0  0
  2  3  1  0  0  0
  3  4  1  0  0  0
  4  5  2  0  0  0
  5  6  1  0  0  0
  6  7  2  0  0  0
  7  8  1  0  0  0
  8  9  2  0  0  0
  9 10  1  0  0  0
 10 11  1  0  0  0
 11 12  2  0  0  0
 11 13  1  0  0  0
 13 14  1  0  0  0
  6 28  1  0  0  0
 28 29  2  0  0  0
 28 30  2  0  0  0
 28 31  1  0  0  0
 31 32  2  0  0  0
 32 33  1  0  0  0
 33 34  2  0  0  0
 34 37  1  0  0  0
 37 38  1  0  0  0
 34 35  1  0  0  0
 35 36  2  0  0  0
 25 20  1  0  0  0
 10  1  1  0  0  0
 36 31  1  0  0  0
  9  4  1  0  0  0
 13 15  1  0  0  0
 14 16  1  0  0  0
M  END
> <minimizedAffinity>
-8.91939

> <CNNscore>
0.2057858109

> <CNNaffinity>
6.6595430374

> <CNN_VS>
1.3704394102

> <CNNaffinity_variance>
0.1658838540

$$$$
[H]ON([H])C(=O)C1([H])c2c([H])c([H])c(S(=O)(=O)c3c([H])c([H])c(OC([H])([H])[H])c([H])c3[H])c([H])c2C([H])([H])C([H])([H])N1S(=O)(=O)c1c([H])c([H])c(OC([H])([H])[H])c([H])c1[H]


 38 41  0  0  0  0  0  0  0  0999 V2000
  -17.9050   13.7848  -19.4527 N   0  0  0  0  0  0  0  0  0  0  0  0
  -18.5303   14.5512  -18.4356 C   0  0  0  0  0  0  0  0  0  0  0  0
  -19.8777   13.9955  -18.0039 C   0  0  0  0  0  0  0  0  0  0  0  0
  -19.6575   12.5552  -17.5866 C   0  0  0  0  0  0  0  0  0  0  0  0
  -20.1254   12.0207  -16.4347 C   0  0  0  0  0  0  0  0  0  0  0  0
  -19.8078   10.6942  -16.1503 C   0  0  0  0  0  0  0  0  0  0  0  0
  -19.0404    9.9388  -17.0084 C   0  0  0  0  0  0  0  0  0  0  0  0
  -18.5746   10.5191  -18.1869 C   0  0  0  0  0  0  0  0  0  0  0  0
  -18.8870   11.8363  -18.4771 C   0  0  0  0  0  0  0  0  0  0  0  0
  -18.4634   12.5131  -19.7202 C   0  0  0  0  0  0  0  0  0  0  0  0
  -17.5550   11.6405  -20.5194 C   0  0  0  0  0  0  0  0  0  0  0  0
  -17.7254   11.3022  -21.6972 O   0  0  0  0  0  0  0  0  0  0  0  0
  -16.3827   11.1459  -19.8685 N   0  0  0  0  0  0  0  0  0  0  0  0
  -15.4837   10.3433  -20.4868 O   0  0  0  0  0  0  0  0  0  0  0  0
  -16.1651   11.3837  -18.8770 H   0  0  0  0  0  0  0  0  0  0  0  0
  -15.2036    9.6342  -19.8344 H   0  0  0  0  0  0  0  0  0  0  0  0
  -17.8238   14.7785  -20.8825 S   0  0  0  0  0  0  0  0  0  0  0  0
  -16.4414   14.7853  -21.3891 O   0  0  0  0  0  0  0  0  0  0  0  0
  -18.7110   14.1937  -21.9574 O   0  0  0  0  0  0  0  0  0  0  0  0
  -19.3951   18.9226  -19.9552 C   0  0  0  0  0  0  0  0  0  0  0  0
  -18.0596   18.6135  -19.7906 C   0  0  0  0  0  0  0  0  0  0  0  0
  -17.6075   17.3582  -20.0732 C   0  0  0  0  0  0  0  0  0  0  0  0
  -18.4701   16.3645  -20.5304 C   0  0  0  0  0  0  0  0  0  0  0  0
  -19.7950   16.6963  -20.6864 C   0  0  0  0  0  0  0  0  0  0  0  0
  -20.2747   17.9723  -20.4030 C   0  0  0  0  0  0  0  0  0  0  0  0
  -20.9940   20.4337  -18.9278 C   0  0  0  0  0  0  0  0  0  0  0  0
  -19.8238   20.2016  -19.6611 O   0  0  0  0  0  0  0  0  0  0  0  0
  -20.4252   10.0286  -14.6566 S   0  0  0  0  0  0  0  0  0  0  0  0
  -21.5752   10.8730  -14.1879 O   0  0  0  0  0  0  0  0  0  0  0  0
  -19.3057   10.0873  -13.6302 O   0  0  0  0  0  0  0  0  0  0  0  0
  -20.9716    8.3789  -14.8613 C   0  0  0  0  0  0  0  0  0  0  0  0
  -20.1735    7.3012  -14.5508 C   0  0  0  0  0  0  0  0  0  0  0  0
  -20.6810    6.0346  -14.7427 C   0  0  0  0  0  0  0  0  0  0  0  0
  -21.9487    5.8044  -15.2305 C   0  0  0  0  0  0  0  0  0  0  0  0
  -22.7227    6.9119  -15.5317 C   0  0  0  0  0  0  0  0  0  0  0  0
  -22.2398    8.1853  -15.3492 C   0  0  0  0  0  0  0  0  0  0  0  0
  -22.4612    4.5196  -15.4243 O   0  0  0  0  0  0  0  0  0  0  0  0
  -21.8651    3.5788  -16.2603 C   0  0  0  0  0  0  0  0  0  0  0  0
 26 27  1  0  0  0
 27 20  1  0  0  0
 20 21  2  0  0  0
 21 22  1  0  0  0
 22 23  2  0  0  0
 23 24  1  0  0  0
 24 25  2  0  0  0
 23 17  1  0  0  0
 17 18  2  0  0  0
 17 19  2  0  0  0
 17  1  1  0  0  0
  1  2  1  0  0  0
  2  3  1  0  0  0
  3  4  1  0  0  0
  4  5  2  0  0  0
  5  6  1  0  0  0
  6  7  2  0  0  0
  7  8  1  0  0  0
  8  9  2  0  0  0
  9 10  1  0  0  0
 10 11  1  0  0  0
 11 12  2  0  0  0
 11 13  1  0  0  0
 13 14  1  0  0  0
  6 28  1  0  0  0
 28 29  2  0  0  0
 28 30  2  0  0  0
 28 31  1  0  0  0
 31 32  2  0  0  0
 32 33  1  0  0  0
 33 34  2  0  0  0
 34 37  1  0  0  0
 37 38  1  0  0  0
 34 35  1  0  0  0
 35 36  2  0  0  0
 25 20  1  0  0  0
 10  1  1  0  0  0
 36 31  1  0  0  0
  9  4  1  0  0  0
 13 15  1  0  0  0
 14 16  1  0  0  0
M  END
> <minimizedAffinity>
-7.65283

> <CNNscore>
0.2032765001

> <CNNaffinity>
6.1584348679

> <CNN_VS>
1.2518650293

> <CNNaffinity_variance>
0.1866206229

$$$$
[H]ON([H])C(=O)C1([H])c2c([H])c([H])c(S(=O)(=O)c3c([H])c([H])c(OC([H])([H])[H])c([H])c3[H])c([H])c2C([H])([H])C([H])([H])N1S(=O)(=O)c1c([H])c([H])c(OC([H])([H])[H])c([H])c1[H]


 38 41  0  0  0  0  0  0  0  0999 V2000
  -18.4652   14.5266  -19.4037 N   0  0  0  0  0  0  0  0  0  0  0  0
  -18.7816   15.1783  -18.1840 C   0  0  0  0  0  0  0  0  0  0  0  0
  -19.9965   14.5912  -17.4838 C   0  0  0  0  0  0  0  0  0  0  0  0
  -19.7345   13.1104  -17.2945 C   0  0  0  0  0  0  0  0  0  0  0  0
  -19.9160   12.4529  -16.1255 C   0  0  0  0  0  0  0  0  0  0  0  0
  -19.5891   11.0994  -16.0766 C   0  0  0  0  0  0  0  0  0  0  0  0
  -19.0945   10.4388  -17.1789 C   0  0  0  0  0  0  0  0  0  0  0  0
  -18.9201   11.1449  -18.3678 C   0  0  0  0  0  0  0  0  0  0  0  0
  -19.2438   12.4899  -18.4247 C   0  0  0  0  0  0  0  0  0  0  0  0
  -19.1228   13.2996  -19.6545 C   0  0  0  0  0  0  0  0  0  0  0  0
  -18.4816   12.5144  -20.7489 C   0  0  0  0  0  0  0  0  0  0  0  0
  -19.0466   12.0922  -21.7654 O   0  0  0  0  0  0  0  0  0  0  0  0
  -17.0901   12.2182  -20.6132 N   0  0  0  0  0  0  0  0  0  0  0  0
  -16.3971   11.5110  -21.5375 O   0  0  0  0  0  0  0  0  0  0  0  0
  -16.5402   12.5371  -19.7869 H   0  0  0  0  0  0  0  0  0  0  0  0
  -15.7852   10.8828  -21.0498 H   0  0  0  0  0  0  0  0  0  0  0  0
  -18.7100   15.6761  -20.6910 S   0  0  0  0  0  0  0  0  0  0  0  0
  -20.1453   15.7443  -21.0122 O   0  0  0  0  0  0  0  0  0  0  0  0
  -18.2687   17.0482  -20.2360 O   0  0  0  0  0  0  0  0  0  0  0  0
  -15.9725   14.6105  -24.1366 C   0  0  0  0  0  0  0  0  0  0  0  0
  -15.4614   14.9839  -22.9096 C   0  0  0  0  0  0  0  0  0  0  0  0
  -16.3037   15.3036  -21.8857 C   0  0  0  0  0  0  0  0  0  0  0  0
  -17.6868   15.2627  -22.0471 C   0  0  0  0  0  0  0  0  0  0  0  0
  -18.1716   14.8878  -23.2776 C   0  0  0  0  0  0  0  0  0  0  0  0
  -17.3272   14.5581  -24.3345 C   0  0  0  0  0  0  0  0  0  0  0  0
  -14.2798   15.2621  -25.7510 C   0  0  0  0  0  0  0  0  0  0  0  0
  -15.0956   14.2926  -25.1545 O   0  0  0  0  0  0  0  0  0  0  0  0
  -19.8335   10.2742  -14.5552 S   0  0  0  0  0  0  0  0  0  0  0  0
  -19.4523   11.1989  -13.4349 O   0  0  0  0  0  0  0  0  0  0  0  0
  -18.9196    9.0598  -14.5394 O   0  0  0  0  0  0  0  0  0  0  0  0
  -21.4993    9.7799  -14.3484 C   0  0  0  0  0  0  0  0  0  0  0  0
  -22.0100    9.4293  -13.1191 C   0  0  0  0  0  0  0  0  0  0  0  0
  -23.3329    9.0511  -13.0442 C   0  0  0  0  0  0  0  0  0  0  0  0
  -24.1610    9.0098  -14.1444 C   0  0  0  0  0  0  0  0  0  0  0  0
  -23.6131    9.3690  -15.3639 C   0  0  0  0  0  0  0  0  0  0  0  0
  -22.2967    9.7499  -15.4651 C   0  0  0  0  0  0  0  0  0  0  0  0
  -25.5017    8.6260  -14.0662 O   0  0  0  0  0  0  0  0  0  0  0  0
  -26.5203    9.2654  -14.7685 C   0  0  0  0  0  0  0  0  0  0  0  0
 26 27  1  0  0  0
 27 20  1  0  0  0
 20 21  2  0  0  0
 21 22  1  0  0  0
 22 23  2  0  0  0
 23 24  1  0  0  0
 24 25  2  0  0  0
 23 17  1  0  0  0
 17 18  2  0  0  0
 17 19  2  0  0  0
 17  1  1  0  0  0
  1  2  1  0  0  0
  2  3  1  0  0  0
  3  4  1  0  0  0
  4  5  2  0  0  0
  5  6  1  0  0  0
  6  7  2  0  0  0
  7  8  1  0  0  0
  8  9  2  0  0  0
  9 10  1  0  0  0
 10 11  1  0  0  0
 11 12  2  0  0  0
 11 13  1  0  0  0
 13 14  1  0  0  0
  6 28  1  0  0  0
 28 29  2  0  0  0
 28 30  2  0  0  0
 28 31  1  0  0  0
 31 32  2  0  0  0
 32 33  1  0  0  0
 33 34  2  0  0  0
 34 37  1  0  0  0
 37 38  1  0  0  0
 34 35  1  0  0  0
 35 36  2  0  0  0
 25 20  1  0  0  0
 10  1  1  0  0  0
 36 31  1  0  0  0
  9  4  1  0  0  0
 13 15  1  0  0  0
 14 16  1  0  0  0
M  END
> <minimizedAffinity>
-7.34368

> <CNNscore>
0.1985344291

> <CNNaffinity>
6.1847887039

> <CNN_VS>
1.2278934717

> <CNNaffinity_variance>
0.3964956403

$$$$
[H]ON([H])C(=O)C1([H])c2c([H])c([H])c(S(=O)(=O)c3c([H])c([H])c(OC([H])([H])[H])c([H])c3[H])c([H])c2C([H])([H])C([H])([H])N1S(=O)(=O)c1c([H])c([H])c(OC([H])([H])[H])c([H])c1[H]


 38 41  0  0  0  0  0  0  0  0999 V2000
  -21.9696    9.1943  -15.2383 N   0  0  0  0  0  0  0  0  0  0  0  0
  -22.3005   10.4652  -15.7749 C   0  0  0  0  0  0  0  0  0  0  0  0
  -21.1269   11.4310  -15.8060 C   0  0  0  0  0  0  0  0  0  0  0  0
  -20.0085   10.7551  -16.5738 C   0  0  0  0  0  0  0  0  0  0  0  0
  -19.3080   11.3473  -17.5689 C   0  0  0  0  0  0  0  0  0  0  0  0
  -18.3375   10.5940  -18.2262 C   0  0  0  0  0  0  0  0  0  0  0  0
  -18.0894    9.2838  -17.8825 C   0  0  0  0  0  0  0  0  0  0  0  0
  -18.8281    8.7040  -16.8527 C   0  0  0  0  0  0  0  0  0  0  0  0
  -19.7933    9.4464  -16.1939 C   0  0  0  0  0  0  0  0  0  0  0  0
  -20.5927    8.9179  -15.0696 C   0  0  0  0  0  0  0  0  0  0  0  0
  -20.3173    7.4676  -14.8550 C   0  0  0  0  0  0  0  0  0  0  0  0
  -20.7515    6.5371  -15.5452 O   0  0  0  0  0  0  0  0  0  0  0  0
  -19.4795    7.1168  -13.7515 N   0  0  0  0  0  0  0  0  0  0  0  0
  -19.1593    5.8352  -13.4519 O   0  0  0  0  0  0  0  0  0  0  0  0
  -19.0729    7.8405  -13.1207 H   0  0  0  0  0  0  0  0  0  0  0  0
  -19.1985    5.7328  -12.4545 H   0  0  0  0  0  0  0  0  0  0  0  0
  -22.8629    9.0035  -13.7538 S   0  0  0  0  0  0  0  0  0  0  0  0
  -23.6424    7.7558  -13.8152 O   0  0  0  0  0  0  0  0  0  0  0  0
  -21.9005    8.8948  -12.5934 O   0  0  0  0  0  0  0  0  0  0  0  0
  -25.2546   12.7594  -12.9326 C   0  0  0  0  0  0  0  0  0  0  0  0
  -24.0195   12.5592  -12.3490 C   0  0  0  0  0  0  0  0  0  0  0  0
  -23.3167   11.4194  -12.6077 C   0  0  0  0  0  0  0  0  0  0  0  0
  -23.8192   10.4369  -13.4579 C   0  0  0  0  0  0  0  0  0  0  0  0
  -25.0506   10.6591  -14.0271 C   0  0  0  0  0  0  0  0  0  0  0  0
  -25.7825   11.8163  -13.7747 C   0  0  0  0  0  0  0  0  0  0  0  0
  -26.7414   14.5542  -13.6139 C   0  0  0  0  0  0  0  0  0  0  0  0
  -25.9430   13.9228  -12.6521 O   0  0  0  0  0  0  0  0  0  0  0  0
  -17.4471   11.3829  -19.5069 S   0  0  0  0  0  0  0  0  0  0  0  0
  -17.3650   10.4541  -20.6841 O   0  0  0  0  0  0  0  0  0  0  0  0
  -16.0465   11.6632  -18.9873 O   0  0  0  0  0  0  0  0  0  0  0  0
  -18.2163   12.8734  -20.0055 C   0  0  0  0  0  0  0  0  0  0  0  0
  -19.5814   13.0435  -19.9547 C   0  0  0  0  0  0  0  0  0  0  0  0
  -20.1061   14.2490  -20.3671 C   0  0  0  0  0  0  0  0  0  0  0  0
  -19.3236   15.2858  -20.8260 C   0  0  0  0  0  0  0  0  0  0  0  0
  -17.9553   15.0790  -20.8632 C   0  0  0  0  0  0  0  0  0  0  0  0
  -17.4074   13.8859  -20.4574 C   0  0  0  0  0  0  0  0  0  0  0  0
  -19.8576   16.5071  -21.2437 O   0  0  0  0  0  0  0  0  0  0  0  0
  -19.4146   17.1859  -22.3761 C   0  0  0  0  0  0  0  0  0  0  0  0
 26 27  1  0  0  0
 27 20  1  0  0  0
 20 21  2  0  0  0
 21 22  1  0  0  0
 22 23  2  0  0  0
 23 24  1  0  0  0
 24 25  2  0  0  0
 23 17  1  0  0  0
 17 18  2  0  0  0
 17 19  2  0  0  0
 17  1  1  0  0  0
  1  2  1  0  0  0
  2  3  1  0  0  0
  3  4  1  0  0  0
  4  5  2  0  0  0
  5  6  1  0  0  0
  6  7  2  0  0  0
  7  8  1  0  0  0
  8  9  2  0  0  0
  9 10  1  0  0  0
 10 11  1  0  0  0
 11 12  2  0  0  0
 11 13  1  0  0  0
 13 14  1  0  0  0
  6 28  1  0  0  0
 28 29  2  0  0  0
 28 30  2  0  0  0
 28 31  1  0  0  0
 31 32  2  0  0  0
 32 33  1  0  0  0
 33 34  2  0  0  0
 34 37  1  0  0  0
 37 38  1  0  0  0
 34 35  1  0  0  0
 35 36  2  0  0  0
 25 20  1  0  0  0
 10  1  1  0  0  0
 36 31  1  0  0  0
  9  4  1  0  0  0
 13 15  1  0  0  0
 14 16  1  0  0  0
M  END
> <minimizedAffinity>
-7.20128

> <CNNscore>
0.1830659062

> <CNNaffinity>
5.9887032509

> <CNN_VS>
1.0963274240

> <CNNaffinity_variance>
0.1634083688

$$$$
[H]ON([H])C(=O)C1([H])c2c([H])c([H])c(S(=O)(=O)c3c([H])c([H])c(OC([H])([H])[H])c([H])c3[H])c([H])c2C([H])([H])C([H])([H])N1S(=O)(=O)c1c([H])c([H])c(OC([H])([H])[H])c([H])c1[H]


 38 41  0  0  0  0  0  0  0  0999 V2000
  -18.2666   12.3313  -20.3010 N   0  0  0  0  0  0  0  0  0  0  0  0
  -19.0895   13.1083  -19.4455 C   0  0  0  0  0  0  0  0  0  0  0  0
  -18.6401   14.5557  -19.3276 C   0  0  0  0  0  0  0  0  0  0  0  0
  -18.5729   15.1216  -20.7320 C   0  0  0  0  0  0  0  0  0  0  0  0
  -19.1178   16.3051  -21.0982 C   0  0  0  0  0  0  0  0  0  0  0  0
  -19.0257   16.6838  -22.4359 C   0  0  0  0  0  0  0  0  0  0  0  0
  -18.4011   15.8855  -23.3679 C   0  0  0  0  0  0  0  0  0  0  0  0
  -17.8496   14.6729  -22.9578 C   0  0  0  0  0  0  0  0  0  0  0  0
  -17.9360   14.2902  -21.6300 C   0  0  0  0  0  0  0  0  0  0  0  0
  -17.3466   13.0398  -21.1087 C   0  0  0  0  0  0  0  0  0  0  0  0
  -16.7924   12.2090  -22.2168 C   0  0  0  0  0  0  0  0  0  0  0  0
  -17.4276   11.7764  -23.1864 O   0  0  0  0  0  0  0  0  0  0  0  0
  -15.4035   11.8779  -22.1550 N   0  0  0  0  0  0  0  0  0  0  0  0
  -14.7854   11.1280  -23.0985 O   0  0  0  0  0  0  0  0  0  0  0  0
  -14.7973   12.2028  -21.3715 H   0  0  0  0  0  0  0  0  0  0  0  0
  -14.1623   10.4959  -22.6305 H   0  0  0  0  0  0  0  0  0  0  0  0
  -17.4817   11.1241  -19.3187 S   0  0  0  0  0  0  0  0  0  0  0  0
  -17.0061   10.0313  -20.1832 O   0  0  0  0  0  0  0  0  0  0  0  0
  -16.2800   11.7318  -18.6324 O   0  0  0  0  0  0  0  0  0  0  0  0
  -20.2270    9.7099  -16.0073 C   0  0  0  0  0  0  0  0  0  0  0  0
  -19.3030    8.8583  -16.5793 C   0  0  0  0  0  0  0  0  0  0  0  0
  -18.4874    9.3039  -17.5775 C   0  0  0  0  0  0  0  0  0  0  0  0
  -18.5628   10.6149  -18.0424 C   0  0  0  0  0  0  0  0  0  0  0  0
  -19.4903   11.4437  -17.4572 C   0  0  0  0  0  0  0  0  0  0  0  0
  -20.3313   11.0066  -16.4372 C   0  0  0  0  0  0  0  0  0  0  0  0
  -22.3980    9.5627  -14.9298 C   0  0  0  0  0  0  0  0  0  0  0  0
  -21.0392    9.2309  -14.9989 O   0  0  0  0  0  0  0  0  0  0  0  0
  -19.7373   18.2168  -22.8818 S   0  0  0  0  0  0  0  0  0  0  0  0
  -21.0230   17.9603  -23.6141 O   0  0  0  0  0  0  0  0  0  0  0  0
  -18.7618   18.9237  -23.8086 O   0  0  0  0  0  0  0  0  0  0  0  0
  -20.0653   19.2096  -21.4786 C   0  0  0  0  0  0  0  0  0  0  0  0
  -19.0895   19.9748  -20.8810 C   0  0  0  0  0  0  0  0  0  0  0  0
  -19.4321   20.7275  -19.7789 C   0  0  0  0  0  0  0  0  0  0  0  0
  -20.7055   20.7449  -19.2534 C   0  0  0  0  0  0  0  0  0  0  0  0
  -21.6606   19.9633  -19.8802 C   0  0  0  0  0  0  0  0  0  0  0  0
  -21.3443   19.2038  -20.9809 C   0  0  0  0  0  0  0  0  0  0  0  0
  -21.0506   21.5086  -18.1359 O   0  0  0  0  0  0  0  0  0  0  0  0
  -20.5153   21.2914  -16.8688 C   0  0  0  0  0  0  0  0  0  0  0  0
 26 27  1  0  0  0
 27 20  1  0  0  0
 20 21  2  0  0  0
 21 22  1  0  0  0
 22 23  2  0  0  0
 23 24  1  0  0  0
 24 25  2  0  0  0
 23 17  1  0  0  0
 17 18  2  0  0  0
 17 19  2  0  0  0
 17  1  1  0  0  0
  1  2  1  0  0  0
  2  3  1  0  0  0
  3  4  1  0  0  0
  4  5  2  0  0  0
  5  6  1  0  0  0
  6  7  2  0  0  0
  7  8  1  0  0  0
  8  9  2  0  0  0
  9 10  1  0  0  0
 10 11  1  0  0  0
 11 12  2  0  0  0
 11 13  1  0  0  0
 13 14  1  0  0  0
  6 28  1  0  0  0
 28 29  2  0  0  0
 28 30  2  0  0  0
 28 31  1  0  0  0
 31 32  2  0  0  0
 32 33  1  0  0  0
 33 34  2  0  0  0
 34 37  1  0  0  0
 37 38  1  0  0  0
 34 35  1  0  0  0
 35 36  2  0  0  0
 25 20  1  0  0  0
 10  1  1  0  0  0
 36 31  1  0  0  0
  9  4  1  0  0  0
 13 15  1  0  0  0
 14 16  1  0  0  0
M  END
> <minimizedAffinity>
-7.85023

> <CNNscore>
0.1494929790

> <CNNaffinity>
6.4638910294

> <CNN_VS>
0.9663063288

> <CNNaffinity_variance>
0.1950432062

$$$$
[H]ON([H])C(=O)C1([H])c2c([H])c([H])c(S(=O)(=O)c3c([H])c([H])c(OC([H])([H])[H])c([H])c3[H])c([H])c2C([H])([H])C([H])([H])N1S(=O)(=O)c1c([H])c([H])c(OC([H])([H])[H])c([H])c1[H]


 38 41  0  0  0  0  0  0  0  0999 V2000
  -18.0773   13.6976  -21.3403 N   0  0  0  0  0  0  0  0  0  0  0  0
  -17.7672   12.3674  -21.7241 C   0  0  0  0  0  0  0  0  0  0  0  0
  -17.0087   11.5933  -20.6581 C   0  0  0  0  0  0  0  0  0  0  0  0
  -17.8350   11.6487  -19.3886 C   0  0  0  0  0  0  0  0  0  0  0  0
  -18.1278   10.5681  -18.6283 C   0  0  0  0  0  0  0  0  0  0  0  0
  -18.9400   10.7525  -17.5113 C   0  0  0  0  0  0  0  0  0  0  0  0
  -19.4368   11.9935  -17.1805 C   0  0  0  0  0  0  0  0  0  0  0  0
  -19.1158   13.0859  -17.9843 C   0  0  0  0  0  0  0  0  0  0  0  0
  -18.3082   12.9110  -19.0951 C   0  0  0  0  0  0  0  0  0  0  0  0
  -17.8925   14.0217  -19.9760 C   0  0  0  0  0  0  0  0  0  0  0  0
  -18.5706   15.2925  -19.5878 C   0  0  0  0  0  0  0  0  0  0  0  0
  -19.7444   15.5936  -19.8370 O   0  0  0  0  0  0  0  0  0  0  0  0
  -17.7969   16.2529  -18.8655 N   0  0  0  0  0  0  0  0  0  0  0  0
  -18.2986   17.4441  -18.4605 O   0  0  0  0  0  0  0  0  0  0  0  0
  -16.8002   16.0771  -18.6154 H   0  0  0  0  0  0  0  0  0  0  0  0
  -17.5957   18.1432  -18.6150 H   0  0  0  0  0  0  0  0  0  0  0  0
  -17.1914   14.7670  -22.3937 S   0  0  0  0  0  0  0  0  0  0  0  0
  -15.8227   14.9313  -21.8764 O   0  0  0  0  0  0  0  0  0  0  0  0
  -17.0978   14.1568  -23.7734 O   0  0  0  0  0  0  0  0  0  0  0  0
  -19.3902   18.6987  -22.8502 C   0  0  0  0  0  0  0  0  0  0  0  0
  -18.1599   18.6385  -22.2265 C   0  0  0  0  0  0  0  0  0  0  0  0
  -17.5157   17.4434  -22.0971 C   0  0  0  0  0  0  0  0  0  0  0  0
  -18.0742   16.2640  -22.5847 C   0  0  0  0  0  0  0  0  0  0  0  0
  -19.2996   16.3494  -23.2017 C   0  0  0  0  0  0  0  0  0  0  0  0
  -19.9721   17.5604  -23.3430 C   0  0  0  0  0  0  0  0  0  0  0  0
  -20.6482   20.3151  -24.1542 C   0  0  0  0  0  0  0  0  0  0  0  0
  -20.0187   19.9225  -22.9665 O   0  0  0  0  0  0  0  0  0  0  0  0
  -19.3023    9.3408  -16.5465 S   0  0  0  0  0  0  0  0  0  0  0  0
  -18.0780    8.9602  -15.7645 O   0  0  0  0  0  0  0  0  0  0  0  0
  -19.6622    8.2130  -17.4997 O   0  0  0  0  0  0  0  0  0  0  0  0
  -20.6218    9.6380  -15.4362 C   0  0  0  0  0  0  0  0  0  0  0  0
  -21.9189    9.7969  -15.8690 C   0  0  0  0  0  0  0  0  0  0  0  0
  -22.8985   10.0286  -14.9281 C   0  0  0  0  0  0  0  0  0  0  0  0
  -22.6336   10.1074  -13.5785 C   0  0  0  0  0  0  0  0  0  0  0  0
  -21.3182    9.9428  -13.1800 C   0  0  0  0  0  0  0  0  0  0  0  0
  -20.3229    9.7105  -14.0986 C   0  0  0  0  0  0  0  0  0  0  0  0
  -23.6283   10.3425  -12.6264 O   0  0  0  0  0  0  0  0  0  0  0  0
  -24.1360   11.6096  -12.3507 C   0  0  0  0  0  0  0  0  0  0  0  0
 26 27  1  0  0  0
 27 20  1  0  0  0
 20 21  2  0  0  0
 21 22  1  0  0  0
 22 23  2  0  0  0
 23 24  1  0  0  0
 24 25  2  0  0  0
 23 17  1  0  0  0
 17 18  2  0  0  0
 17 19  2  0  0  0
 17  1  1  0  0  0
  1  2  1  0  0  0
  2  3  1  0  0  0
  3  4  1  0  0  0
  4  5  2  0  0  0
  5  6  1  0  0  0
  6  7  2  0  0  0
  7  8  1  0  0  0
  8  9  2  0  0  0
  9 10  1  0  0  0
 10 11  1  0  0  0
 11 12  2  0  0  0
 11 13  1  0  0  0
 13 14  1  0  0  0
  6 28  1  0  0  0
 28 29  2  0  0  0
 28 30  2  0  0  0
 28 31  1  0  0  0
 31 32  2  0  0  0
 32 33  1  0  0  0
 33 34  2  0  0  0
 34 37  1  0  0  0
 37 38  1  0  0  0
 34 35  1  0  0  0
 35 36  2  0  0  0
 25 20  1  0  0  0
 10  1  1  0  0  0
 36 31  1  0  0  0
  9  4  1  0  0  0
 13 15  1  0  0  0
 14 16  1  0  0  0
M  END
> <minimizedAffinity>
-7.26491

> <CNNscore>
0.1290404946

> <CNNaffinity>
6.0890007019

> <CNN_VS>
0.7857276797

> <CNNaffinity_variance>
0.2435955554

$$$$
[H]ON([H])C(=O)C1([H])c2c([H])c([H])c(S(=O)(=O)c3c([H])c([H])c(OC([H])([H])[H])c([H])c3[H])c([H])c2C([H])([H])C([H])([H])N1S(=O)(=O)c1c([H])c([H])c(OC([H])([H])[H])c([H])c1[H]


 38 41  0  0  0  0  0  0  0  0999 V2000
  -21.9704    9.1060  -15.2876 N   0  0  0  0  0  0  0  0  0  0  0  0
  -22.2634   10.4132  -15.7548 C   0  0  0  0  0  0  0  0  0  0  0  0
  -21.0566   11.3376  -15.7567 C   0  0  0  0  0  0  0  0  0  0  0  0
  -19.9743   10.6626  -16.5754 C   0  0  0  0  0  0  0  0  0  0  0  0
  -19.2675   11.2793  -17.5509 C   0  0  0  0  0  0  0  0  0  0  0  0
  -18.3342   10.5266  -18.2606 C   0  0  0  0  0  0  0  0  0  0  0  0
  -18.1281    9.1929  -17.9868 C   0  0  0  0  0  0  0  0  0  0  0  0
  -18.8721    8.5881  -16.9752 C   0  0  0  0  0  0  0  0  0  0  0  0
  -19.8006    9.3297  -16.2647 C   0  0  0  0  0  0  0  0  0  0  0  0
  -20.6020    8.7735  -15.1553 C   0  0  0  0  0  0  0  0  0  0  0  0
  -20.3756    7.3054  -15.0177 C   0  0  0  0  0  0  0  0  0  0  0  0
  -19.6263    6.7609  -14.1975 O   0  0  0  0  0  0  0  0  0  0  0  0
  -21.0837    6.4472  -15.9147 N   0  0  0  0  0  0  0  0  0  0  0  0
  -20.9599    5.0986  -15.8909 O   0  0  0  0  0  0  0  0  0  0  0  0
  -21.7347    6.8258  -16.6358 H   0  0  0  0  0  0  0  0  0  0  0  0
  -20.9244    4.7755  -16.8403 H   0  0  0  0  0  0  0  0  0  0  0  0
  -22.8484    8.8720  -13.8002 S   0  0  0  0  0  0  0  0  0  0  0  0
  -24.0697    9.6941  -13.8248 O   0  0  0  0  0  0  0  0  0  0  0  0
  -23.2641    7.4239  -13.6793 O   0  0  0  0  0  0  0  0  0  0  0  0
  -20.1268    9.7997  -10.3025 C   0  0  0  0  0  0  0  0  0  0  0  0
  -20.5434   10.7944  -11.1646 C   0  0  0  0  0  0  0  0  0  0  0  0
  -21.3611   10.4929  -12.2137 C   0  0  0  0  0  0  0  0  0  0  0  0
  -21.7938    9.1886  -12.4421 C   0  0  0  0  0  0  0  0  0  0  0  0
  -21.3658    8.2158  -11.5702 C   0  0  0  0  0  0  0  0  0  0  0  0
  -20.5310    8.5047  -10.4939 C   0  0  0  0  0  0  0  0  0  0  0  0
  -17.9239   10.3285   -9.4287 C   0  0  0  0  0  0  0  0  0  0  0  0
  -19.2992   10.1347   -9.2494 O   0  0  0  0  0  0  0  0  0  0  0  0
  -17.4348   11.3474  -19.5147 S   0  0  0  0  0  0  0  0  0  0  0  0
  -17.3521   10.4522  -20.7176 O   0  0  0  0  0  0  0  0  0  0  0  0
  -16.0351   11.6060  -18.9817 O   0  0  0  0  0  0  0  0  0  0  0  0
  -18.1949   12.8552  -19.9737 C   0  0  0  0  0  0  0  0  0  0  0  0
  -19.5626   12.9884  -20.0559 C   0  0  0  0  0  0  0  0  0  0  0  0
  -20.0796   14.2109  -20.4257 C   0  0  0  0  0  0  0  0  0  0  0  0
  -19.2869   15.2999  -20.7153 C   0  0  0  0  0  0  0  0  0  0  0  0
  -17.9164   15.1290  -20.6221 C   0  0  0  0  0  0  0  0  0  0  0  0
  -17.3760   13.9200  -20.2553 C   0  0  0  0  0  0  0  0  0  0  0  0
  -19.8131   16.5384  -21.0901 O   0  0  0  0  0  0  0  0  0  0  0  0
  -19.4396   17.7386  -20.4908 C   0  0  0  0  0  0  0  0  0  0  0  0
 26 27  1  0  0  0
 27 20  1  0  0  0
 20 21  2  0  0  0
 21 22  1  0  0  0
 22 23  2  0  0  0
 23 24  1  0  0  0
 24 25  2  0  0  0
 23 17  1  0  0  0
 17 18  2  0  0  0
 17 19  2  0  0  0
 17  1  1  0  0  0
  1  2  1  0  0  0
  2  3  1  0  0  0
  3  4  1  0  0  0
  4  5  2  0  0  0
  5  6  1  0  0  0
  6  7  2  0  0  0
  7  8  1  0  0  0
  8  9  2  0  0  0
  9 10  1  0  0  0
 10 11  1  0  0  0
 11 12  2  0  0  0
 11 13  1  0  0  0
 13 14  1  0  0  0
  6 28  1  0  0  0
 28 29  2  0  0  0
 28 30  2  0  0  0
 28 31  1  0  0  0
 31 32  2  0  0  0
 32 33  1  0  0  0
 33 34  2  0  0  0
 34 37  1  0  0  0
 37 38  1  0  0  0
 34 35  1  0  0  0
 35 36  2  0  0  0
 25 20  1  0  0  0
 10  1  1  0  0  0
 36 31  1  0  0  0
  9  4  1  0  0  0
 13 15  1  0  0  0
 14 16  1  0  0  0
M  END
> <minimizedAffinity>
-7.66039

> <CNNscore>
0.1280589253

> <CNNaffinity>
5.9038095474

> <CNN_VS>
0.7560355067

> <CNNaffinity_variance>
0.1715916693

$$$$
[H]c1c([H])c(S(=O)(=O)N([H])[H])c([H])c([H])c1N([H])c1nc(N([H])C([H])(C([H])([H])[H])C([H])([H])[H])c2c([H])nn([H])c2n1


 29 31  0  0  0  0  0  0  0  0999 V2000
  -17.6083   12.3160  -20.9669 C   0  0  0  0  0  0  0  0  0  0  0  0
  -17.8029   11.5165  -19.9208 N   0  0  0  0  0  0  0  0  0  0  0  0
  -17.0396   10.4277  -19.6020 C   0  0  0  0  0  0  0  0  0  0  0  0
  -16.0283   10.1928  -20.4435 N   0  0  0  0  0  0  0  0  0  0  0  0
  -15.7667   10.9478  -21.5151 C   0  0  0  0  0  0  0  0  0  0  0  0
  -14.8293   10.9187  -22.4926 N   0  0  0  0  0  0  0  0  0  0  0  0
  -15.0110   11.9192  -23.3442 N   0  0  0  0  0  0  0  0  0  0  0  0
  -16.0813   12.6528  -22.9614 C   0  0  0  0  0  0  0  0  0  0  0  0
  -16.5592   12.0516  -21.8182 C   0  0  0  0  0  0  0  0  0  0  0  0
  -14.0758   10.1801  -22.5295 H   0  0  0  0  0  0  0  0  0  0  0  0
  -18.4702   13.4440  -21.2208 N   0  0  0  0  0  0  0  0  0  0  0  0
  -19.3464   13.2607  -21.7494 H   0  0  0  0  0  0  0  0  0  0  0  0
  -18.4063   14.9757  -19.2973 C   0  0  0  0  0  0  0  0  0  0  0  0
  -18.1057   14.7544  -20.7497 C   0  0  0  0  0  0  0  0  0  0  0  0
  -18.8732   15.7816  -21.5522 C   0  0  0  0  0  0  0  0  0  0  0  0
  -17.3495    9.6673  -18.4488 N   0  0  0  0  0  0  0  0  0  0  0  0
  -16.6297    8.9088  -18.2222 H   0  0  0  0  0  0  0  0  0  0  0  0
  -18.4365    9.7801  -17.5932 C   0  0  0  0  0  0  0  0  0  0  0  0
  -19.2516   10.8754  -17.4884 C   0  0  0  0  0  0  0  0  0  0  0  0
  -20.3271   10.8863  -16.6160 C   0  0  0  0  0  0  0  0  0  0  0  0
  -20.6323    9.8189  -15.8203 C   0  0  0  0  0  0  0  0  0  0  0  0
  -19.8049    8.7196  -15.9324 C   0  0  0  0  0  0  0  0  0  0  0  0
  -18.7426    8.6845  -16.7818 C   0  0  0  0  0  0  0  0  0  0  0  0
  -21.9721    9.7865  -14.7102 S   0  0  0  0  0  0  0  0  0  0  0  0
  -22.0256    8.2759  -13.8587 N   0  0  0  0  0  0  0  0  0  0  0  0
  -23.2840   10.0037  -15.4063 O   0  0  0  0  0  0  0  0  0  0  0  0
  -21.8373   10.8607  -13.6423 O   0  0  0  0  0  0  0  0  0  0  0  0
  -22.7604    7.6866  -14.3174 H   0  0  0  0  0  0  0  0  0  0  0  0
  -21.1157    7.7675  -13.9992 H   0  0  0  0  0  0  0  0  0  0  0  0
 13 14  1  0  0  0
 14 15  1  0  0  0
 14 11  1  0  0  0
 11  1  1  0  0  0
  1  2  2  0  0  0
  2  3  1  0  0  0
  3 16  1  0  0  0
 16 18  1  0  0  0
 18 19  2  0  0  0
 19 20  1  0  0  0
 20 21  2  0  0  0
 21 22  1  0  0  0
 22 23  2  0  0  0
 21 24  1  0  0  0
 24 25  1  0  0  0
 24 26  2  0  0  0
 24 27  2  0  0  0
  3  4  2  0  0  0
  4  5  1  0  0  0
  5  6  1  0  0  0
  6  7  1  0  0  0
  7  8  2  0  0  0
  8  9  1  0  0  0
  9  1  1  0  0  0
 23 18  1  0  0  0
  9  5  2  0  0  0
 11 12  1  0  0  0
 16 17  1  0  0  0
 25 28  1  0  0  0
 25 29  1  0  0  0
  6 10  1  0  0  0
M  END
> <minimizedAffinity>
-7.59313

> <CNNscore>
0.9754080772

> <CNNaffinity>
6.9399118423

> <CNN_VS>
6.7692461014

> <CNNaffinity_variance>
0.0770264119

$$$$
[H]c1c([H])c(S(=O)(=O)N([H])[H])c([H])c([H])c1N([H])c1nc(N([H])C([H])(C([H])([H])[H])C([H])([H])[H])c2c([H])nn([H])c2n1


 29 31  0  0  0  0  0  0  0  0999 V2000
  -18.3659   12.5239  -19.4771 C   0  0  0  0  0  0  0  0  0  0  0  0
  -17.5732   12.4642  -20.5446 N   0  0  0  0  0  0  0  0  0  0  0  0
  -16.8042   11.3918  -20.9023 C   0  0  0  0  0  0  0  0  0  0  0  0
  -16.8937   10.3443  -20.0771 N   0  0  0  0  0  0  0  0  0  0  0  0
  -17.6658   10.3256  -18.9861 C   0  0  0  0  0  0  0  0  0  0  0  0
  -17.9220    9.4131  -18.0183 N   0  0  0  0  0  0  0  0  0  0  0  0
  -18.7856    9.8977  -17.1359 N   0  0  0  0  0  0  0  0  0  0  0  0
  -19.1360   11.1562  -17.4873 C   0  0  0  0  0  0  0  0  0  0  0  0
  -18.4399   11.4309  -18.6434 C   0  0  0  0  0  0  0  0  0  0  0  0
  -17.4713    8.4583  -18.0100 H   0  0  0  0  0  0  0  0  0  0  0  0
  -19.1413   13.7037  -19.1823 N   0  0  0  0  0  0  0  0  0  0  0  0
  -19.0719   14.0871  -18.2186 H   0  0  0  0  0  0  0  0  0  0  0  0
  -19.3795   15.5474  -20.7929 C   0  0  0  0  0  0  0  0  0  0  0  0
  -19.9659   14.3011  -20.1997 C   0  0  0  0  0  0  0  0  0  0  0  0
  -21.3022   14.6546  -19.5854 C   0  0  0  0  0  0  0  0  0  0  0  0
  -16.0132   11.4557  -22.0746 N   0  0  0  0  0  0  0  0  0  0  0  0
  -15.3266   10.6420  -22.1804 H   0  0  0  0  0  0  0  0  0  0  0  0
  -16.0177   12.4111  -23.0814 C   0  0  0  0  0  0  0  0  0  0  0  0
  -17.0832   12.7046  -23.8898 C   0  0  0  0  0  0  0  0  0  0  0  0
  -16.9969   13.6917  -24.8574 C   0  0  0  0  0  0  0  0  0  0  0  0
  -15.8586   14.4194  -25.0582 C   0  0  0  0  0  0  0  0  0  0  0  0
  -14.7897   14.1161  -24.2390 C   0  0  0  0  0  0  0  0  0  0  0  0
  -14.8497   13.1513  -23.2814 C   0  0  0  0  0  0  0  0  0  0  0  0
  -15.7033   15.6682  -26.2601 S   0  0  0  0  0  0  0  0  0  0  0  0
  -16.5043   17.1179  -25.7441 N   0  0  0  0  0  0  0  0  0  0  0  0
  -16.2631   15.2442  -27.5867 O   0  0  0  0  0  0  0  0  0  0  0  0
  -14.2485   16.0530  -26.4793 O   0  0  0  0  0  0  0  0  0  0  0  0
  -17.4282   17.1545  -26.2369 H   0  0  0  0  0  0  0  0  0  0  0  0
  -16.7246   17.0447  -24.7183 H   0  0  0  0  0  0  0  0  0  0  0  0
 13 14  1  0  0  0
 14 15  1  0  0  0
 14 11  1  0  0  0
 11  1  1  0  0  0
  1  2  2  0  0  0
  2  3  1  0  0  0
  3 16  1  0  0  0
 16 18  1  0  0  0
 18 19  2  0  0  0
 19 20  1  0  0  0
 20 21  2  0  0  0
 21 22  1  0  0  0
 22 23  2  0  0  0
 21 24  1  0  0  0
 24 25  1  0  0  0
 24 26  2  0  0  0
 24 27  2  0  0  0
  3  4  2  0  0  0
  4  5  1  0  0  0
  5  6  1  0  0  0
  6  7  1  0  0  0
  7  8  2  0  0  0
  8  9  1  0  0  0
  9  1  1  0  0  0
 23 18  1  0  0  0
  9  5  2  0  0  0
 11 12  1  0  0  0
 16 17  1  0  0  0
 25 28  1  0  0  0
 25 29  1  0  0  0
  6 10  1  0  0  0
M  END
> <minimizedAffinity>
-8.03043

> <CNNscore>
0.7153987288

> <CNNaffinity>
6.7439012527

> <CNN_VS>
4.8245782852

> <CNNaffinity_variance>
0.1256669462

$$$$
[H]c1c([H])c(S(=O)(=O)N([H])[H])c([H])c([H])c1N([H])c1nc(N([H])C([H])(C([H])([H])[H])C([H])([H])[H])c2c([H])nn([H])c2n1


 29 31  0  0  0  0  0  0  0  0999 V2000
  -16.9427   12.4720  -22.0369 C   0  0  0  0  0  0  0  0  0  0  0  0
  -17.8779   13.3371  -21.6517 N   0  0  0  0  0  0  0  0  0  0  0  0
  -18.5728   13.2822  -20.4754 C   0  0  0  0  0  0  0  0  0  0  0  0
  -18.2464   12.2552  -19.6849 N   0  0  0  0  0  0  0  0  0  0  0  0
  -17.3194   11.3449  -19.9993 C   0  0  0  0  0  0  0  0  0  0  0  0
  -16.8219   10.2439  -19.3867 N   0  0  0  0  0  0  0  0  0  0  0  0
  -15.8910    9.6714  -20.1382 N   0  0  0  0  0  0  0  0  0  0  0  0
  -15.7356   10.3749  -21.2833 C   0  0  0  0  0  0  0  0  0  0  0  0
  -16.6254   11.4230  -21.2037 C   0  0  0  0  0  0  0  0  0  0  0  0
  -17.1608    9.9242  -18.4393 H   0  0  0  0  0  0  0  0  0  0  0  0
  -16.2627   12.6142  -23.3007 N   0  0  0  0  0  0  0  0  0  0  0  0
  -15.8694   11.7512  -23.7264 H   0  0  0  0  0  0  0  0  0  0  0  0
  -16.6149   13.9338  -25.3464 C   0  0  0  0  0  0  0  0  0  0  0  0
  -16.1501   13.9084  -23.9209 C   0  0  0  0  0  0  0  0  0  0  0  0
  -14.6972   14.3281  -23.8907 C   0  0  0  0  0  0  0  0  0  0  0  0
  -19.5356   14.2778  -20.1824 N   0  0  0  0  0  0  0  0  0  0  0  0
  -20.2299   14.4579  -20.9763 H   0  0  0  0  0  0  0  0  0  0  0  0
  -19.6940   15.0271  -19.0249 C   0  0  0  0  0  0  0  0  0  0  0  0
  -18.6774   15.4567  -18.2143 C   0  0  0  0  0  0  0  0  0  0  0  0
  -18.9344   16.2186  -17.0868 C   0  0  0  0  0  0  0  0  0  0  0  0
  -20.2004   16.5803  -16.7232 C   0  0  0  0  0  0  0  0  0  0  0  0
  -21.2186   16.1423  -17.5460 C   0  0  0  0  0  0  0  0  0  0  0  0
  -20.9918   15.3931  -18.6589 C   0  0  0  0  0  0  0  0  0  0  0  0
  -20.5717   17.5357  -15.3170 S   0  0  0  0  0  0  0  0  0  0  0  0
  -21.4800   16.6066  -14.1675 N   0  0  0  0  0  0  0  0  0  0  0  0
  -21.3446   18.7739  -15.6669 O   0  0  0  0  0  0  0  0  0  0  0  0
  -19.3091   17.9742  -14.5917 O   0  0  0  0  0  0  0  0  0  0  0  0
  -22.4854   16.8833  -14.2695 H   0  0  0  0  0  0  0  0  0  0  0  0
  -21.4306   15.5891  -14.4293 H   0  0  0  0  0  0  0  0  0  0  0  0
 13 14  1  0  0  0
 14 15  1  0  0  0
 14 11  1  0  0  0
 11  1  1  0  0  0
  1  2  2  0  0  0
  2  3  1  0  0  0
  3 16  1  0  0  0
 16 18  1  0  0  0
 18 19  2  0  0  0
 19 20  1  0  0  0
 20 21  2  0  0  0
 21 22  1  0  0  0
 22 23  2  0  0  0
 21 24  1  0  0  0
 24 25  1  0  0  0
 24 26  2  0  0  0
 24 27  2  0  0  0
  3  4  2  0  0  0
  4  5  1  0  0  0
  5  6  1  0  0  0
  6  7  1  0  0  0
  7  8  2  0  0  0
  8  9  1  0  0  0
  9  1  1  0  0  0
 23 18  1  0  0  0
  9  5  2  0  0  0
 11 12  1  0  0  0
 16 17  1  0  0  0
 25 28  1  0  0  0
 25 29  1  0  0  0
  6 10  1  0  0  0
M  END
> <minimizedAffinity>
-7.25403

> <CNNscore>
0.6954920292

> <CNNaffinity>
6.6429381371

> <CNN_VS>
4.6201105118

> <CNNaffinity_variance>
0.3497730196

$$$$
[H]c1c([H])c(S(=O)(=O)N([H])[H])c([H])c([H])c1N([H])c1nc(N([H])C([H])(C([H])([H])[H])C([H])([H])[H])c2c([H])nn([H])c2n1


 29 31  0  0  0  0  0  0  0  0999 V2000
  -16.8707   12.5169  -21.7886 C   0  0  0  0  0  0  0  0  0  0  0  0
  -17.5720   13.5230  -21.2714 N   0  0  0  0  0  0  0  0  0  0  0  0
  -18.0836   13.5639  -20.0041 C   0  0  0  0  0  0  0  0  0  0  0  0
  -17.8288   12.4786  -19.2670 N   0  0  0  0  0  0  0  0  0  0  0  0
  -17.1330   11.4280  -19.7127 C   0  0  0  0  0  0  0  0  0  0  0  0
  -16.7512   10.2439  -19.1768 N   0  0  0  0  0  0  0  0  0  0  0  0
  -16.0571    9.5347  -20.0568 N   0  0  0  0  0  0  0  0  0  0  0  0
  -15.9521   10.2255  -21.2152 C   0  0  0  0  0  0  0  0  0  0  0  0
  -16.6224   11.4105  -21.0079 C   0  0  0  0  0  0  0  0  0  0  0  0
  -16.9967    9.9673  -18.1879 H   0  0  0  0  0  0  0  0  0  0  0  0
  -16.3714   12.5664  -23.1407 N   0  0  0  0  0  0  0  0  0  0  0  0
  -15.7516   11.7893  -23.4452 H   0  0  0  0  0  0  0  0  0  0  0  0
  -17.5591   13.2393  -25.1868 C   0  0  0  0  0  0  0  0  0  0  0  0
  -16.7335   13.6575  -24.0069 C   0  0  0  0  0  0  0  0  0  0  0  0
  -15.4648   14.2998  -24.5227 C   0  0  0  0  0  0  0  0  0  0  0  0
  -18.8025   14.7053  -19.5744 N   0  0  0  0  0  0  0  0  0  0  0  0
  -19.3666   14.5515  -18.6784 H   0  0  0  0  0  0  0  0  0  0  0  0
  -18.8635   15.9674  -20.1486 C   0  0  0  0  0  0  0  0  0  0  0  0
  -17.9122   16.9437  -20.0181 C   0  0  0  0  0  0  0  0  0  0  0  0
  -18.0537   18.1694  -20.6471 C   0  0  0  0  0  0  0  0  0  0  0  0
  -19.1364   18.4708  -21.4233 C   0  0  0  0  0  0  0  0  0  0  0  0
  -20.0902   17.4809  -21.5486 C   0  0  0  0  0  0  0  0  0  0  0  0
  -19.9742   16.2690  -20.9410 C   0  0  0  0  0  0  0  0  0  0  0  0
  -19.3573   19.9955  -22.2326 S   0  0  0  0  0  0  0  0  0  0  0  0
  -18.3091   21.2034  -21.5601 N   0  0  0  0  0  0  0  0  0  0  0  0
  -20.7767   20.4760  -22.1483 O   0  0  0  0  0  0  0  0  0  0  0  0
  -18.9923   19.9025  -23.7059 O   0  0  0  0  0  0  0  0  0  0  0  0
  -18.8863   21.7888  -20.9107 H   0  0  0  0  0  0  0  0  0  0  0  0
  -17.5821   20.7355  -20.9613 H   0  0  0  0  0  0  0  0  0  0  0  0
 13 14  1  0  0  0
 14 15  1  0  0  0
 14 11  1  0  0  0
 11  1  1  0  0  0
  1  2  2  0  0  0
  2  3  1  0  0  0
  3 16  1  0  0  0
 16 18  1  0  0  0
 18 19  2  0  0  0
 19 20  1  0  0  0
 20 21  2  0  0  0
 21 22  1  0  0  0
 22 23  2  0  0  0
 21 24  1  0  0  0
 24 25  1  0  0  0
 24 26  2  0  0  0
 24 27  2  0  0  0
  3  4  2  0  0  0
  4  5  1  0  0  0
  5  6  1  0  0  0
  6  7  1  0  0  0
  7  8  2  0  0  0
  8  9  1  0  0  0
  9  1  1  0  0  0
 23 18  1  0  0  0
  9  5  2  0  0  0
 11 12  1  0  0  0
 16 17  1  0  0  0
 25 28  1  0  0  0
 25 29  1  0  0  0
  6 10  1  0  0  0
M  END
> <minimizedAffinity>
-7.16630

> <CNNscore>
0.6754031777

> <CNNaffinity>
6.8251991272

> <CNN_VS>
4.6097612381

> <CNNaffinity_variance>
0.2985363007

$$$$
[H]c1c([H])c(S(=O)(=O)N([H])[H])c([H])c([H])c1N([H])c1nc(N([H])C([H])(C([H])([H])[H])C([H])([H])[H])c2c([H])nn([H])c2n1


 29 31  0  0  0  0  0  0  0  0999 V2000
  -17.9839   12.4298  -20.7316 C   0  0  0  0  0  0  0  0  0  0  0  0
  -17.9035   13.3873  -21.6526 N   0  0  0  0  0  0  0  0  0  0  0  0
  -16.9785   13.4448  -22.6580 C   0  0  0  0  0  0  0  0  0  0  0  0
  -16.1076   12.4312  -22.6701 N   0  0  0  0  0  0  0  0  0  0  0  0
  -16.1218   11.4327  -21.7816 C   0  0  0  0  0  0  0  0  0  0  0  0
  -15.3700   10.3229  -21.5865 N   0  0  0  0  0  0  0  0  0  0  0  0
  -15.8078    9.6403  -20.5370 N   0  0  0  0  0  0  0  0  0  0  0  0
  -16.8719   10.2752  -19.9940 C   0  0  0  0  0  0  0  0  0  0  0  0
  -17.0743   11.3970  -20.7668 C   0  0  0  0  0  0  0  0  0  0  0  0
  -14.5557   10.0764  -22.2117 H   0  0  0  0  0  0  0  0  0  0  0  0
  -18.9986   12.4564  -19.7072 N   0  0  0  0  0  0  0  0  0  0  0  0
  -19.9798   12.2918  -20.0084 H   0  0  0  0  0  0  0  0  0  0  0  0
  -19.4261   11.8923  -17.3515 C   0  0  0  0  0  0  0  0  0  0  0  0
  -18.6368   12.7027  -18.3358 C   0  0  0  0  0  0  0  0  0  0  0  0
  -18.8694   14.1669  -18.0356 C   0  0  0  0  0  0  0  0  0  0  0  0
  -17.0132   14.5164  -23.5825 N   0  0  0  0  0  0  0  0  0  0  0  0
  -16.5271   14.3044  -24.5117 H   0  0  0  0  0  0  0  0  0  0  0  0
  -17.5870   15.7725  -23.4438 C   0  0  0  0  0  0  0  0  0  0  0  0
  -18.8264   16.1320  -23.9016 C   0  0  0  0  0  0  0  0  0  0  0  0
  -19.3220   17.4090  -23.6976 C   0  0  0  0  0  0  0  0  0  0  0  0
  -18.6119   18.3707  -23.0369 C   0  0  0  0  0  0  0  0  0  0  0  0
  -17.3635   17.9993  -22.5796 C   0  0  0  0  0  0  0  0  0  0  0  0
  -16.8546   16.7514  -22.7673 C   0  0  0  0  0  0  0  0  0  0  0  0
  -19.1928   19.9870  -22.7568 S   0  0  0  0  0  0  0  0  0  0  0  0
  -19.0464   20.9481  -24.1936 N   0  0  0  0  0  0  0  0  0  0  0  0
  -18.4559   20.6629  -21.6374 O   0  0  0  0  0  0  0  0  0  0  0  0
  -20.6713   19.9940  -22.4012 O   0  0  0  0  0  0  0  0  0  0  0  0
  -18.1907   21.5425  -24.0837 H   0  0  0  0  0  0  0  0  0  0  0  0
  -18.8588   20.3171  -25.0138 H   0  0  0  0  0  0  0  0  0  0  0  0
 13 14  1  0  0  0
 14 15  1  0  0  0
 14 11  1  0  0  0
 11  1  1  0  0  0
  1  2  2  0  0  0
  2  3  1  0  0  0
  3 16  1  0  0  0
 16 18  1  0  0  0
 18 19  2  0  0  0
 19 20  1  0  0  0
 20 21  2  0  0  0
 21 22  1  0  0  0
 22 23  2  0  0  0
 21 24  1  0  0  0
 24 25  1  0  0  0
 24 26  2  0  0  0
 24 27  2  0  0  0
  3  4  2  0  0  0
  4  5  1  0  0  0
  5  6  1  0  0  0
  6  7  1  0  0  0
  7  8  2  0  0  0
  8  9  1  0  0  0
  9  1  1  0  0  0
 23 18  1  0  0  0
  9  5  2  0  0  0
 11 12  1  0  0  0
 16 17  1  0  0  0
 25 28  1  0  0  0
 25 29  1  0  0  0
  6 10  1  0  0  0
M  END
> <minimizedAffinity>
-7.12125

> <CNNscore>
0.6543658972

> <CNNaffinity>
6.6977376938

> <CNN_VS>
4.3827710152

> <CNNaffinity_variance>
0.2721974552

$$$$
[H]c1c([H])c(S(=O)(=O)N([H])[H])c([H])c([H])c1N([H])c1nc(N([H])C([H])(C([H])([H])[H])C([H])([H])[H])c2c([H])nn([H])c2n1


 29 31  0  0  0  0  0  0  0  0999 V2000
  -17.5084   12.5337  -21.6627 C   0  0  0  0  0  0  0  0  0  0  0  0
  -18.4949   13.1755  -21.0411 N   0  0  0  0  0  0  0  0  0  0  0  0
  -18.9738   12.8776  -19.7956 C   0  0  0  0  0  0  0  0  0  0  0  0
  -18.3655   11.8485  -19.1981 N   0  0  0  0  0  0  0  0  0  0  0  0
  -17.3684   11.1537  -19.7548 C   0  0  0  0  0  0  0  0  0  0  0  0
  -16.6104   10.1007  -19.3656 N   0  0  0  0  0  0  0  0  0  0  0  0
  -15.7335    9.7823  -20.3085 N   0  0  0  0  0  0  0  0  0  0  0  0
  -15.8781   10.6165  -21.3636 C   0  0  0  0  0  0  0  0  0  0  0  0
  -16.8986   11.4770  -21.0249 C   0  0  0  0  0  0  0  0  0  0  0  0
  -16.7372    9.6302  -18.4290 H   0  0  0  0  0  0  0  0  0  0  0  0
  -17.0721   12.9234  -22.9809 N   0  0  0  0  0  0  0  0  0  0  0  0
  -17.3209   12.2916  -23.7680 H   0  0  0  0  0  0  0  0  0  0  0  0
  -16.9965   15.1227  -24.0798 C   0  0  0  0  0  0  0  0  0  0  0  0
  -16.3260   14.1404  -23.1663 C   0  0  0  0  0  0  0  0  0  0  0  0
  -14.9787   13.7897  -23.7579 C   0  0  0  0  0  0  0  0  0  0  0  0
  -20.0228   13.6517  -19.2437 N   0  0  0  0  0  0  0  0  0  0  0  0
  -20.4197   14.3857  -19.9133 H   0  0  0  0  0  0  0  0  0  0  0  0
  -20.5915   13.5789  -17.9797 C   0  0  0  0  0  0  0  0  0  0  0  0
  -21.2270   14.6074  -17.3368 C   0  0  0  0  0  0  0  0  0  0  0  0
  -21.7816   14.4318  -16.0799 C   0  0  0  0  0  0  0  0  0  0  0  0
  -21.7268   13.2382  -15.4182 C   0  0  0  0  0  0  0  0  0  0  0  0
  -21.0838   12.2076  -16.0739 C   0  0  0  0  0  0  0  0  0  0  0  0
  -20.5313   12.3549  -17.3085 C   0  0  0  0  0  0  0  0  0  0  0  0
  -22.4086   12.9704  -13.8397 S   0  0  0  0  0  0  0  0  0  0  0  0
  -22.7237   14.4797  -13.0445 N   0  0  0  0  0  0  0  0  0  0  0  0
  -21.5093   12.1379  -12.9730 O   0  0  0  0  0  0  0  0  0  0  0  0
  -23.7494   12.2581  -13.9252 O   0  0  0  0  0  0  0  0  0  0  0  0
  -21.9421   14.6424  -12.3660 H   0  0  0  0  0  0  0  0  0  0  0  0
  -22.6655   15.2596  -13.7476 H   0  0  0  0  0  0  0  0  0  0  0  0
 13 14  1  0  0  0
 14 15  1  0  0  0
 14 11  1  0  0  0
 11  1  1  0  0  0
  1  2  2  0  0  0
  2  3  1  0  0  0
  3 16  1  0  0  0
 16 18  1  0  0  0
 18 19  2  0  0  0
 19 20  1  0  0  0
 20 21  2  0  0  0
 21 22  1  0  0  0
 22 23  2  0  0  0
 21 24  1  0  0  0
 24 25  1  0  0  0
 24 26  2  0  0  0
 24 27  2  0  0  0
  3  4  2  0  0  0
  4  5  1  0  0  0
  5  6  1  0  0  0
  6  7  1  0  0  0
  7  8  2  0  0  0
  8  9  1  0  0  0
  9  1  1  0  0  0
 23 18  1  0  0  0
  9  5  2  0  0  0
 11 12  1  0  0  0
 16 17  1  0  0  0
 25 28  1  0  0  0
 25 29  1  0  0  0
  6 10  1  0  0  0
M  END
> <minimizedAffinity>
-6.86746

> <CNNscore>
0.6500406861

> <CNNaffinity>
6.2859559059

> <CNN_VS>
4.0861272812

> <CNNaffinity_variance>
0.3137721419

$$$$
[H]c1c([H])c(S(=O)(=O)N([H])[H])c([H])c([H])c1N([H])c1nc(N([H])C([H])(C([H])([H])[H])C([H])([H])[H])c2c([H])nn([H])c2n1


 29 31  0  0  0  0  0  0  0  0999 V2000
  -17.9304   12.5472  -21.0111 C   0  0  0  0  0  0  0  0  0  0  0  0
  -18.8950   12.9117  -20.1696 N   0  0  0  0  0  0  0  0  0  0  0  0
  -19.1434   12.3400  -18.9526 C   0  0  0  0  0  0  0  0  0  0  0  0
  -18.3201   11.3375  -18.6314 N   0  0  0  0  0  0  0  0  0  0  0  0
  -17.3285   10.9125  -19.4207 C   0  0  0  0  0  0  0  0  0  0  0  0
  -16.3854    9.9449  -19.3249 N   0  0  0  0  0  0  0  0  0  0  0  0
  -15.6189    9.9306  -20.4073 N   0  0  0  0  0  0  0  0  0  0  0  0
  -16.0273   10.8930  -21.2658 C   0  0  0  0  0  0  0  0  0  0  0  0
  -17.0960   11.5114  -20.6559 C   0  0  0  0  0  0  0  0  0  0  0  0
  -16.3099    9.3125  -18.4829 H   0  0  0  0  0  0  0  0  0  0  0  0
  -17.7468   13.2133  -22.2770 N   0  0  0  0  0  0  0  0  0  0  0  0
  -17.4904   12.6201  -23.0913 H   0  0  0  0  0  0  0  0  0  0  0  0
  -18.1550   15.1191  -23.7775 C   0  0  0  0  0  0  0  0  0  0  0  0
  -17.9183   14.6390  -22.3767 C   0  0  0  0  0  0  0  0  0  0  0  0
  -16.6669   15.3088  -21.8536 C   0  0  0  0  0  0  0  0  0  0  0  0
  -20.1974   12.8348  -18.1473 N   0  0  0  0  0  0  0  0  0  0  0  0
  -21.0254   12.1637  -18.0549 H   0  0  0  0  0  0  0  0  0  0  0  0
  -20.2896   14.0454  -17.4748 C   0  0  0  0  0  0  0  0  0  0  0  0
  -21.4230   14.5407  -16.8873 C   0  0  0  0  0  0  0  0  0  0  0  0
  -21.4114   15.7542  -16.2200 C   0  0  0  0  0  0  0  0  0  0  0  0
  -20.2835   16.5168  -16.1115 C   0  0  0  0  0  0  0  0  0  0  0  0
  -19.1461   16.0098  -16.7072 C   0  0  0  0  0  0  0  0  0  0  0  0
  -19.1319   14.8205  -17.3681 C   0  0  0  0  0  0  0  0  0  0  0  0
  -20.2208   18.0462  -15.2836 S   0  0  0  0  0  0  0  0  0  0  0  0
  -19.4585   17.8736  -13.7348 N   0  0  0  0  0  0  0  0  0  0  0  0
  -21.5866   18.6393  -15.0946 O   0  0  0  0  0  0  0  0  0  0  0  0
  -19.3836   19.0598  -16.0479 O   0  0  0  0  0  0  0  0  0  0  0  0
  -20.2200   17.8390  -13.0160 H   0  0  0  0  0  0  0  0  0  0  0  0
  -18.9739   16.9412  -13.6901 H   0  0  0  0  0  0  0  0  0  0  0  0
 13 14  1  0  0  0
 14 15  1  0  0  0
 14 11  1  0  0  0
 11  1  1  0  0  0
  1  2  2  0  0  0
  2  3  1  0  0  0
  3 16  1  0  0  0
 16 18  1  0  0  0
 18 19  2  0  0  0
 19 20  1  0  0  0
 20 21  2  0  0  0
 21 22  1  0  0  0
 22 23  2  0  0  0
 21 24  1  0  0  0
 24 25  1  0  0  0
 24 26  2  0  0  0
 24 27  2  0  0  0
  3  4  2  0  0  0
  4  5  1  0  0  0
  5  6  1  0  0  0
  6  7  1  0  0  0
  7  8  2  0  0  0
  8  9  1  0  0  0
  9  1  1  0  0  0
 23 18  1  0  0  0
  9  5  2  0  0  0
 11 12  1  0  0  0
 16 17  1  0  0  0
 25 28  1  0  0  0
 25 29  1  0  0  0
  6 10  1  0  0  0
M  END
> <minimizedAffinity>
-7.03544

> <CNNscore>
0.6110277176

> <CNNaffinity>
6.3795118332

> <CNN_VS>
3.8980586529

> <CNNaffinity_variance>
0.1543739438

$$$$
[H]c1c([H])c(S(=O)(=O)N([H])[H])c([H])c([H])c1N([H])c1nc(N([H])C([H])(C([H])([H])[H])C([H])([H])[H])c2c([H])nn([H])c2n1


 29 31  0  0  0  0  0  0  0  0999 V2000
  -17.6907   12.4474  -21.5128 C   0  0  0  0  0  0  0  0  0  0  0  0
  -18.6061   13.1204  -20.8195 N   0  0  0  0  0  0  0  0  0  0  0  0
  -18.9501   12.8802  -19.5182 C   0  0  0  0  0  0  0  0  0  0  0  0
  -18.2814   11.8761  -18.9432 N   0  0  0  0  0  0  0  0  0  0  0  0
  -17.3487   11.1529  -19.5708 C   0  0  0  0  0  0  0  0  0  0  0  0
  -16.5532   10.1150  -19.2174 N   0  0  0  0  0  0  0  0  0  0  0  0
  -15.7810    9.7513  -20.2326 N   0  0  0  0  0  0  0  0  0  0  0  0
  -16.0370   10.5384  -21.3027 C   0  0  0  0  0  0  0  0  0  0  0  0
  -17.0162   11.4175  -20.8966 C   0  0  0  0  0  0  0  0  0  0  0  0
  -16.5799    9.6872  -18.2526 H   0  0  0  0  0  0  0  0  0  0  0  0
  -17.3967   12.7762  -22.8858 N   0  0  0  0  0  0  0  0  0  0  0  0
  -17.6417   12.0671  -23.6054 H   0  0  0  0  0  0  0  0  0  0  0  0
  -17.4871   14.7711  -24.3219 C   0  0  0  0  0  0  0  0  0  0  0  0
  -16.7900   14.0397  -23.2139 C   0  0  0  0  0  0  0  0  0  0  0  0
  -15.3610   13.7873  -23.6411 C   0  0  0  0  0  0  0  0  0  0  0  0
  -19.9350   13.6826  -18.8935 N   0  0  0  0  0  0  0  0  0  0  0  0
  -20.8194   13.1481  -18.6166 H   0  0  0  0  0  0  0  0  0  0  0  0
  -19.8992   15.0380  -18.5967 C   0  0  0  0  0  0  0  0  0  0  0  0
  -19.3187   15.5906  -17.4865 C   0  0  0  0  0  0  0  0  0  0  0  0
  -19.3173   16.9610  -17.2867 C   0  0  0  0  0  0  0  0  0  0  0  0
  -19.8876   17.8287  -18.1741 C   0  0  0  0  0  0  0  0  0  0  0  0
  -20.4707   17.2625  -19.2899 C   0  0  0  0  0  0  0  0  0  0  0  0
  -20.4850   15.9197  -19.5088 C   0  0  0  0  0  0  0  0  0  0  0  0
  -19.9101   19.5562  -17.9658 S   0  0  0  0  0  0  0  0  0  0  0  0
  -18.4263   20.2599  -18.5250 N   0  0  0  0  0  0  0  0  0  0  0  0
  -20.1288   19.9467  -16.5332 O   0  0  0  0  0  0  0  0  0  0  0  0
  -21.0127   20.2026  -18.7897 O   0  0  0  0  0  0  0  0  0  0  0  0
  -17.8362   20.4521  -17.6809 H   0  0  0  0  0  0  0  0  0  0  0  0
  -17.8988   19.5488  -19.0927 H   0  0  0  0  0  0  0  0  0  0  0  0
 13 14  1  0  0  0
 14 15  1  0  0  0
 14 11  1  0  0  0
 11  1  1  0  0  0
  1  2  2  0  0  0
  2  3  1  0  0  0
  3 16  1  0  0  0
 16 18  1  0  0  0
 18 19  2  0  0  0
 19 20  1  0  0  0
 20 21  2  0  0  0
 21 22  1  0  0  0
 22 23  2  0  0  0
 21 24  1  0  0  0
 24 25  1  0  0  0
 24 26  2  0  0  0
 24 27  2  0  0  0
  3  4  2  0  0  0
  4  5  1  0  0  0
  5  6  1  0  0  0
  6  7  1  0  0  0
  7  8  2  0  0  0
  8  9  1  0  0  0
  9  1  1  0  0  0
 23 18  1  0  0  0
  9  5  2  0  0  0
 11 12  1  0  0  0
 16 17  1  0  0  0
 25 28  1  0  0  0
 25 29  1  0  0  0
  6 10  1  0  0  0
M  END
> <minimizedAffinity>
-6.84586

> <CNNscore>
0.5839484930

> <CNNaffinity>
6.6775918007

> <CNN_VS>
3.8993697166

> <CNNaffinity_variance>
0.2730063498

$$$$
[H]c1c([H])c(S(=O)(=O)N([H])[H])c([H])c([H])c1N([H])c1nc(N([H])C([H])(C([H])([H])[H])C([H])([H])[H])c2c([H])nn([H])c2n1


 29 31  0  0  0  0  0  0  0  0999 V2000
  -17.1867   12.7176  -21.8881 C   0  0  0  0  0  0  0  0  0  0  0  0
  -17.6359   13.9283  -21.5657 N   0  0  0  0  0  0  0  0  0  0  0  0
  -18.0541   14.3138  -20.3223 C   0  0  0  0  0  0  0  0  0  0  0  0
  -17.9850   13.3571  -19.3917 N   0  0  0  0  0  0  0  0  0  0  0  0
  -17.5462   12.1182  -19.6352 C   0  0  0  0  0  0  0  0  0  0  0  0
  -17.3848   11.0021  -18.8847 N   0  0  0  0  0  0  0  0  0  0  0  0
  -16.9027   10.0096  -19.6208 N   0  0  0  0  0  0  0  0  0  0  0  0
  -16.7256   10.4326  -20.8935 C   0  0  0  0  0  0  0  0  0  0  0  0
  -17.1257   11.7503  -20.9105 C   0  0  0  0  0  0  0  0  0  0  0  0
  -17.6242   10.9744  -17.8568 H   0  0  0  0  0  0  0  0  0  0  0  0
  -16.7668   12.4056  -23.2320 N   0  0  0  0  0  0  0  0  0  0  0  0
  -16.3347   11.4731  -23.3885 H   0  0  0  0  0  0  0  0  0  0  0  0
  -17.6010   12.7913  -25.5136 C   0  0  0  0  0  0  0  0  0  0  0  0
  -16.9516   13.3646  -24.2895 C   0  0  0  0  0  0  0  0  0  0  0  0
  -15.5962   13.9075  -24.6848 C   0  0  0  0  0  0  0  0  0  0  0  0
  -18.4978   15.6416  -20.1118 N   0  0  0  0  0  0  0  0  0  0  0  0
  -17.8305   16.2344  -19.5220 H   0  0  0  0  0  0  0  0  0  0  0  0
  -19.6552   16.2589  -20.5655 C   0  0  0  0  0  0  0  0  0  0  0  0
  -19.7073   17.2441  -21.5151 C   0  0  0  0  0  0  0  0  0  0  0  0
  -20.9161   17.7870  -21.9175 C   0  0  0  0  0  0  0  0  0  0  0  0
  -22.1102   17.3763  -21.3967 C   0  0  0  0  0  0  0  0  0  0  0  0
  -22.0477   16.3832  -20.4399 C   0  0  0  0  0  0  0  0  0  0  0  0
  -20.8730   15.8340  -20.0280 C   0  0  0  0  0  0  0  0  0  0  0  0
  -23.6524   18.0282  -21.8709 S   0  0  0  0  0  0  0  0  0  0  0  0
  -24.4186   17.0004  -23.0398 N   0  0  0  0  0  0  0  0  0  0  0  0
  -23.5268   19.4109  -22.4411 O   0  0  0  0  0  0  0  0  0  0  0  0
  -24.6112   18.1043  -20.6930 O   0  0  0  0  0  0  0  0  0  0  0  0
  -24.2665   17.4338  -23.9814 H   0  0  0  0  0  0  0  0  0  0  0  0
  -23.9225   16.0734  -23.0629 H   0  0  0  0  0  0  0  0  0  0  0  0
 13 14  1  0  0  0
 14 15  1  0  0  0
 14 11  1  0  0  0
 11  1  1  0  0  0
  1  2  2  0  0  0
  2  3  1  0  0  0
  3 16  1  0  0  0
 16 18  1  0  0  0
 18 19  2  0  0  0
 19 20  1  0  0  0
 20 21  2  0  0  0
 21 22  1  0  0  0
 22 23  2  0  0  0
 21 24  1  0  0  0
 24 25  1  0  0  0
 24 26  2  0  0  0
 24 27  2  0  0  0
  3  4  2  0  0  0
  4  5  1  0  0  0
  5  6  1  0  0  0
  6  7  1  0  0  0
  7  8  2  0  0  0
  8  9  1  0  0  0
  9  1  1  0  0  0
 23 18  1  0  0  0
  9  5  2  0  0  0
 11 12  1  0  0  0
 16 17  1  0  0  0
 25 28  1  0  0  0
 25 29  1  0  0  0
  6 10  1  0  0  0
M  END
> <minimizedAffinity>
-7.58989

> <CNNscore>
0.4775429070

> <CNNaffinity>
6.4597039223

> <CNN_VS>
3.0847856998

> <CNNaffinity_variance>
0.3465538919

$$$$
[H]OC([H])(c1c([H])c([H])c2c(c1[H])OC([H])([H])O2)n1c(C(=O)N([H])[C@@]2([H])C(=O)[C@@]([H])(N([H])C(=O)c3snnc3-c3c([H])c([H])c([H])c([H])c3[H])C([H])([H])C2([H])[H])nc2c([H])c([H])c([H])c([H])c21


 46 52  0  0  0  0  0  0  0  0999 V2000
  -17.7449   15.2210  -21.0358 C   0  0  0  0  0  0  0  0  0  0  0  0
  -18.7604   15.4991  -21.7025 O   0  0  0  0  0  0  0  0  0  0  0  0
  -16.7181   16.1605  -20.8754 N   0  0  0  0  0  0  0  0  0  0  0  0
  -15.8229   15.8936  -20.3354 H   0  0  0  0  0  0  0  0  0  0  0  0
  -17.0202   12.7716  -20.8026 N   0  0  0  0  0  0  0  0  0  0  0  0
  -17.6359   13.8937  -20.4392 C   0  0  0  0  0  0  0  0  0  0  0  0
  -18.4350   13.5937  -19.3532 N   0  0  0  0  0  0  0  0  0  0  0  0
  -18.3100   12.2993  -19.0568 C   0  0  0  0  0  0  0  0  0  0  0  0
  -18.9423   11.5557  -18.0478 C   0  0  0  0  0  0  0  0  0  0  0  0
  -18.6375   10.2240  -17.9899 C   0  0  0  0  0  0  0  0  0  0  0  0
  -17.7459    9.6403  -18.8952 C   0  0  0  0  0  0  0  0  0  0  0  0
  -17.1424   10.4110  -19.8762 C   0  0  0  0  0  0  0  0  0  0  0  0
  -17.4282   11.7762  -19.9596 C   0  0  0  0  0  0  0  0  0  0  0  0
  -15.5617   11.2766  -21.9779 O   0  0  0  0  0  0  0  0  0  0  0  0
  -16.0286   12.5477  -21.7918 C   0  0  0  0  0  0  0  0  0  0  0  0
  -16.1839   10.8272  -22.6090 H   0  0  0  0  0  0  0  0  0  0  0  0
  -16.3600   13.0944  -23.1479 C   0  0  0  0  0  0  0  0  0  0  0  0
  -17.5479   12.9121  -23.7875 C   0  0  0  0  0  0  0  0  0  0  0  0
  -17.7844   13.4859  -25.0490 C   0  0  0  0  0  0  0  0  0  0  0  0
  -16.8251   14.2498  -25.6831 C   0  0  0  0  0  0  0  0  0  0  0  0
  -16.7816   14.9260  -26.8994 O   0  0  0  0  0  0  0  0  0  0  0  0
  -15.4422   15.3332  -27.1725 C   0  0  0  0  0  0  0  0  0  0  0  0
  -14.8484   15.2307  -25.8957 O   0  0  0  0  0  0  0  0  0  0  0  0
  -15.6143   14.4426  -25.0477 C   0  0  0  0  0  0  0  0  0  0  0  0
  -15.4030   13.8663  -23.8024 C   0  0  0  0  0  0  0  0  0  0  0  0
  -16.6864   17.4665  -21.4234 C   0  0  0  0  0  0  0  0  0  0  0  0
  -17.4259   18.4914  -20.5411 C   0  0  0  0  0  0  0  0  0  0  0  0
  -17.7154   19.5574  -21.6415 C   0  0  0  0  0  0  0  0  0  0  0  0
  -18.3918   18.6905  -22.6624 C   0  0  0  0  0  0  0  0  0  0  0  0
  -17.3717   17.5575  -22.7211 C   0  0  0  0  0  0  0  0  0  0  0  0
  -17.2002   16.8775  -23.7132 O   0  0  0  0  0  0  0  0  0  0  0  0
  -19.7102   18.2942  -22.2877 N   0  0  0  0  0  0  0  0  0  0  0  0
  -20.8572   19.0638  -22.2537 C   0  0  0  0  0  0  0  0  0  0  0  0
  -20.8213   20.2764  -22.6612 O   0  0  0  0  0  0  0  0  0  0  0  0
  -19.7961   17.2437  -22.0464 H   0  0  0  0  0  0  0  0  0  0  0  0
  -22.1537   18.5577  -21.7714 C   0  0  0  0  0  0  0  0  0  0  0  0
  -22.5195   18.1119  -20.1267 S   0  0  0  0  0  0  0  0  0  0  0  0
  -24.0804   17.5480  -20.3506 N   0  0  0  0  0  0  0  0  0  0  0  0
  -24.2662   17.7044  -21.6297 N   0  0  0  0  0  0  0  0  0  0  0  0
  -23.3103   18.2053  -22.3778 C   0  0  0  0  0  0  0  0  0  0  0  0
  -23.5299   18.2127  -23.8660 C   0  0  0  0  0  0  0  0  0  0  0  0
  -23.3553   17.1355  -24.6652 C   0  0  0  0  0  0  0  0  0  0  0  0
  -23.4825   17.2665  -26.0516 C   0  0  0  0  0  0  0  0  0  0  0  0
  -23.7848   18.4717  -26.6172 C   0  0  0  0  0  0  0  0  0  0  0  0
  -23.9664   19.5801  -25.7813 C   0  0  0  0  0  0  0  0  0  0  0  0
  -23.8396   19.4441  -24.4480 C   0  0  0  0  0  0  0  0  0  0  0  0
 14 15  1  0  0  0
 15 17  1  0  0  0
 17 18  2  0  0  0
 18 19  1  0  0  0
 19 20  2  0  0  0
 20 21  1  0  0  0
 21 22  1  0  0  0
 22 23  1  0  0  0
 23 24  1  0  0  0
 24 25  2  0  0  0
 15  5  1  0  0  0
  5  6  1  0  0  0
  6  7  2  0  0  0
  7  8  1  0  0  0
  8  9  2  0  0  0
  9 10  1  0  0  0
 10 11  2  0  0  0
 11 12  1  0  0  0
 12 13  2  0  0  0
  6  1  1  0  0  0
  1  2  2  0  0  0
  1  3  1  0  0  0
  3 26  1  0  0  0
 26 27  1  0  0  0
 27 28  1  0  0  0
 28 29  1  0  0  0
 29 32  1  0  0  0
 32 33  1  0  0  0
 33 34  2  0  0  0
 33 36  1  0  0  0
 36 37  1  0  0  0
 37 38  1  0  0  0
 38 39  2  0  0  0
 39 40  1  0  0  0
 40 41  1  0  0  0
 41 42  2  0  0  0
 42 43  1  0  0  0
 43 44  2  0  0  0
 44 45  1  0  0  0
 45 46  2  0  0  0
 29 30  1  0  0  0
 30 31  2  0  0  0
 25 17  1  0  0  0
 13  5  1  0  0  0
 30 26  1  0  0  0
 24 20  1  0  0  0
 13  8  1  0  0  0
 40 36  2  0  0  0
 46 41  1  0  0  0
 14 16  1  0  0  0
  3  4  1  0  0  0
 32 35  1  0  0  0
M  END
> <minimizedAffinity>
-10.71404

> <CNNscore>
0.6704435349

> <CNNaffinity>
7.9666099548

> <CNN_VS>
5.3411622047

> <CNNaffinity_variance>
0.0871311203

$$$$
[H]OC([H])(c1c([H])c([H])c2c(c1[H])OC([H])([H])O2)n1c(C(=O)N([H])[C@@]2([H])C(=O)[C@@]([H])(N([H])C(=O)c3snnc3-c3c([H])c([H])c([H])c([H])c3[H])C([H])([H])C2([H])[H])nc2c([H])c([H])c([H])c([H])c21


 46 52  0  0  0  0  0  0  0  0999 V2000
  -17.5718   15.3814  -21.8427 C   0  0  0  0  0  0  0  0  0  0  0  0
  -18.5972   15.5642  -22.5269 O   0  0  0  0  0  0  0  0  0  0  0  0
  -16.6765   16.4324  -21.6053 N   0  0  0  0  0  0  0  0  0  0  0  0
  -15.7686   16.2522  -21.0508 H   0  0  0  0  0  0  0  0  0  0  0  0
  -16.5824   13.0178  -21.7265 N   0  0  0  0  0  0  0  0  0  0  0  0
  -17.3109   14.0492  -21.3072 C   0  0  0  0  0  0  0  0  0  0  0  0
  -18.0569   13.6169  -20.2281 N   0  0  0  0  0  0  0  0  0  0  0  0
  -17.7879   12.3323  -19.9911 C   0  0  0  0  0  0  0  0  0  0  0  0
  -18.3211   11.4810  -19.0104 C   0  0  0  0  0  0  0  0  0  0  0  0
  -17.8727   10.1892  -19.0150 C   0  0  0  0  0  0  0  0  0  0  0  0
  -16.9363    9.7461  -19.9542 C   0  0  0  0  0  0  0  0  0  0  0  0
  -16.4343   10.6199  -20.9055 C   0  0  0  0  0  0  0  0  0  0  0  0
  -16.8676   11.9481  -20.9250 C   0  0  0  0  0  0  0  0  0  0  0  0
  -14.8941   11.7788  -22.8919 O   0  0  0  0  0  0  0  0  0  0  0  0
  -15.5867   12.9465  -22.7342 C   0  0  0  0  0  0  0  0  0  0  0  0
  -15.4340   11.1984  -23.4912 H   0  0  0  0  0  0  0  0  0  0  0  0
  -16.0422   13.3719  -24.0978 C   0  0  0  0  0  0  0  0  0  0  0  0
  -17.2038   12.9737  -24.6857 C   0  0  0  0  0  0  0  0  0  0  0  0
  -17.5671   13.4452  -25.9594 C   0  0  0  0  0  0  0  0  0  0  0  0
  -16.7629   14.3234  -26.6579 C   0  0  0  0  0  0  0  0  0  0  0  0
  -16.8652   14.9426  -27.9007 O   0  0  0  0  0  0  0  0  0  0  0  0
  -15.6176   15.5459  -28.2385 C   0  0  0  0  0  0  0  0  0  0  0  0
  -14.9772   15.5969  -26.9813 O   0  0  0  0  0  0  0  0  0  0  0  0
  -15.5805   14.7354  -26.0753 C   0  0  0  0  0  0  0  0  0  0  0  0
  -15.2421   14.2567  -24.8168 C   0  0  0  0  0  0  0  0  0  0  0  0
  -16.7965   17.7586  -22.0888 C   0  0  0  0  0  0  0  0  0  0  0  0
  -17.7933   18.5962  -21.2639 C   0  0  0  0  0  0  0  0  0  0  0  0
  -18.1234   19.6695  -22.3457 C   0  0  0  0  0  0  0  0  0  0  0  0
  -18.5231   18.7719  -23.4796 C   0  0  0  0  0  0  0  0  0  0  0  0
  -17.3303   17.8207  -23.4574 C   0  0  0  0  0  0  0  0  0  0  0  0
  -16.9339   17.2398  -24.4481 O   0  0  0  0  0  0  0  0  0  0  0  0
  -19.7928   18.1490  -23.2911 N   0  0  0  0  0  0  0  0  0  0  0  0
  -21.0477   18.7183  -23.3917 C   0  0  0  0  0  0  0  0  0  0  0  0
  -21.1648   19.9371  -23.7638 O   0  0  0  0  0  0  0  0  0  0  0  0
  -19.7309   17.0891  -23.0866 H   0  0  0  0  0  0  0  0  0  0  0  0
  -22.2913   17.9862  -23.0962 C   0  0  0  0  0  0  0  0  0  0  0  0
  -23.5962   17.7106  -24.2181 S   0  0  0  0  0  0  0  0  0  0  0  0
  -24.6679   16.9405  -23.1871 N   0  0  0  0  0  0  0  0  0  0  0  0
  -24.0235   16.9241  -22.0560 N   0  0  0  0  0  0  0  0  0  0  0  0
  -22.8232   17.4505  -21.9739 C   0  0  0  0  0  0  0  0  0  0  0  0
  -22.2003   17.5403  -20.6075 C   0  0  0  0  0  0  0  0  0  0  0  0
  -22.5085   18.4879  -19.6928 C   0  0  0  0  0  0  0  0  0  0  0  0
  -21.8004   18.5528  -18.4887 C   0  0  0  0  0  0  0  0  0  0  0  0
  -20.7972   17.6678  -18.2168 C   0  0  0  0  0  0  0  0  0  0  0  0
  -20.4876   16.6889  -19.1687 C   0  0  0  0  0  0  0  0  0  0  0  0
  -21.1736   16.6363  -20.3259 C   0  0  0  0  0  0  0  0  0  0  0  0
 14 15  1  0  0  0
 15 17  1  0  0  0
 17 18  2  0  0  0
 18 19  1  0  0  0
 19 20  2  0  0  0
 20 21  1  0  0  0
 21 22  1  0  0  0
 22 23  1  0  0  0
 23 24  1  0  0  0
 24 25  2  0  0  0
 15  5  1  0  0  0
  5  6  1  0  0  0
  6  7  2  0  0  0
  7  8  1  0  0  0
  8  9  2  0  0  0
  9 10  1  0  0  0
 10 11  2  0  0  0
 11 12  1  0  0  0
 12 13  2  0  0  0
  6  1  1  0  0  0
  1  2  2  0  0  0
  1  3  1  0  0  0
  3 26  1  0  0  0
 26 27  1  0  0  0
 27 28  1  0  0  0
 28 29  1  0  0  0
 29 32  1  0  0  0
 32 33  1  0  0  0
 33 34  2  0  0  0
 33 36  1  0  0  0
 36 37  1  0  0  0
 37 38  1  0  0  0
 38 39  2  0  0  0
 39 40  1  0  0  0
 40 41  1  0  0  0
 41 42  2  0  0  0
 42 43  1  0  0  0
 43 44  2  0  0  0
 44 45  1  0  0  0
 45 46  2  0  0  0
 29 30  1  0  0  0
 30 31  2  0  0  0
 25 17  1  0  0  0
 13  5  1  0  0  0
 30 26  1  0  0  0
 24 20  1  0  0  0
 13  8  1  0  0  0
 40 36  2  0  0  0
 46 41  1  0  0  0
 14 16  1  0  0  0
  3  4  1  0  0  0
 32 35  1  0  0  0
M  END
> <minimizedAffinity>
-10.05642

> <CNNscore>
0.4464960396

> <CNNaffinity>
7.6878371239

> <CNN_VS>
3.4325888157

> <CNNaffinity_variance>
0.2395216674

$$$$
[H]OC([H])(c1c([H])c([H])c2c(c1[H])OC([H])([H])O2)n1c(C(=O)N([H])[C@@]2([H])C(=O)[C@@]([H])(N([H])C(=O)c3snnc3-c3c([H])c([H])c([H])c([H])c3[H])C([H])([H])C2([H])[H])nc2c([H])c([H])c([H])c([H])c21


 46 52  0  0  0  0  0  0  0  0999 V2000
  -18.7291   17.3335  -19.2869 C   0  0  0  0  0  0  0  0  0  0  0  0
  -18.1836   16.2313  -19.0856 O   0  0  0  0  0  0  0  0  0  0  0  0
  -18.7387   17.9008  -20.5678 N   0  0  0  0  0  0  0  0  0  0  0  0
  -19.1728   18.8766  -20.7219 H   0  0  0  0  0  0  0  0  0  0  0  0
  -20.0701   19.1404  -18.0557 N   0  0  0  0  0  0  0  0  0  0  0  0
  -19.3428   18.0314  -18.1617 C   0  0  0  0  0  0  0  0  0  0  0  0
  -19.0238   17.6222  -16.8816 N   0  0  0  0  0  0  0  0  0  0  0  0
  -19.5501   18.4747  -16.0012 C   0  0  0  0  0  0  0  0  0  0  0  0
  -19.4692   18.4645  -14.5997 C   0  0  0  0  0  0  0  0  0  0  0  0
  -20.0950   19.4891  -13.9453 C   0  0  0  0  0  0  0  0  0  0  0  0
  -20.7731   20.4933  -14.6431 C   0  0  0  0  0  0  0  0  0  0  0  0
  -20.8296   20.4654  -16.0275 C   0  0  0  0  0  0  0  0  0  0  0  0
  -20.2051   19.4292  -16.7267 C   0  0  0  0  0  0  0  0  0  0  0  0
  -19.9652   20.6023  -19.9519 O   0  0  0  0  0  0  0  0  0  0  0  0
  -20.7251   19.9075  -19.0530 C   0  0  0  0  0  0  0  0  0  0  0  0
  -19.7407   19.9755  -20.6896 H   0  0  0  0  0  0  0  0  0  0  0  0
  -21.7598   19.1610  -19.8403 C   0  0  0  0  0  0  0  0  0  0  0  0
  -22.7779   18.4406  -19.2944 C   0  0  0  0  0  0  0  0  0  0  0  0
  -23.7228   17.7933  -20.1098 C   0  0  0  0  0  0  0  0  0  0  0  0
  -23.6523   17.8625  -21.4868 C   0  0  0  0  0  0  0  0  0  0  0  0
  -24.4277   17.3396  -22.5183 O   0  0  0  0  0  0  0  0  0  0  0  0
  -23.7450   17.5032  -23.7599 C   0  0  0  0  0  0  0  0  0  0  0  0
  -22.7885   18.4880  -23.4304 O   0  0  0  0  0  0  0  0  0  0  0  0
  -22.6243   18.5882  -22.0556 C   0  0  0  0  0  0  0  0  0  0  0  0
  -21.7028   19.2190  -21.2308 C   0  0  0  0  0  0  0  0  0  0  0  0
  -18.1567   17.3443  -21.7333 C   0  0  0  0  0  0  0  0  0  0  0  0
  -18.9274   16.1103  -22.2424 C   0  0  0  0  0  0  0  0  0  0  0  0
  -17.7709   15.4507  -23.0539 C   0  0  0  0  0  0  0  0  0  0  0  0
  -16.7139   15.3964  -21.9904 C   0  0  0  0  0  0  0  0  0  0  0  0
  -16.7940   16.8410  -21.5059 C   0  0  0  0  0  0  0  0  0  0  0  0
  -15.8458   17.4256  -21.0209 O   0  0  0  0  0  0  0  0  0  0  0  0
  -16.9650   14.4113  -20.9893 N   0  0  0  0  0  0  0  0  0  0  0  0
  -17.2269   13.0656  -21.1606 C   0  0  0  0  0  0  0  0  0  0  0  0
  -17.1880   12.5548  -22.3333 O   0  0  0  0  0  0  0  0  0  0  0  0
  -16.8921   14.7899  -19.9791 H   0  0  0  0  0  0  0  0  0  0  0  0
  -17.5490   12.1585  -20.0457 C   0  0  0  0  0  0  0  0  0  0  0  0
  -16.7398   10.6551  -19.6960 S   0  0  0  0  0  0  0  0  0  0  0  0
  -17.6814   10.1457  -18.4082 N   0  0  0  0  0  0  0  0  0  0  0  0
  -18.5586   11.1008  -18.2927 N   0  0  0  0  0  0  0  0  0  0  0  0
  -18.5242   12.1290  -19.1089 C   0  0  0  0  0  0  0  0  0  0  0  0
  -19.6566   13.1158  -19.0248 C   0  0  0  0  0  0  0  0  0  0  0  0
  -20.2972   13.6306  -20.0991 C   0  0  0  0  0  0  0  0  0  0  0  0
  -21.2682   14.6216  -19.9245 C   0  0  0  0  0  0  0  0  0  0  0  0
  -21.5855   15.0805  -18.6786 C   0  0  0  0  0  0  0  0  0  0  0  0
  -20.9189   14.5394  -17.5727 C   0  0  0  0  0  0  0  0  0  0  0  0
  -19.9840   13.5874  -17.7515 C   0  0  0  0  0  0  0  0  0  0  0  0
 14 15  1  0  0  0
 15 17  1  0  0  0
 17 18  2  0  0  0
 18 19  1  0  0  0
 19 20  2  0  0  0
 20 21  1  0  0  0
 21 22  1  0  0  0
 22 23  1  0  0  0
 23 24  1  0  0  0
 24 25  2  0  0  0
 15  5  1  0  0  0
  5  6  1  0  0  0
  6  7  2  0  0  0
  7  8  1  0  0  0
  8  9  2  0  0  0
  9 10  1  0  0  0
 10 11  2  0  0  0
 11 12  1  0  0  0
 12 13  2  0  0  0
  6  1  1  0  0  0
  1  2  2  0  0  0
  1  3  1  0  0  0
  3 26  1  0  0  0
 26 27  1  0  0  0
 27 28  1  0  0  0
 28 29  1  0  0  0
 29 32  1  0  0  0
 32 33  1  0  0  0
 33 34  2  0  0  0
 33 36  1  0  0  0
 36 37  1  0  0  0
 37 38  1  0  0  0
 38 39  2  0  0  0
 39 40  1  0  0  0
 40 41  1  0  0  0
 41 42  2  0  0  0
 42 43  1  0  0  0
 43 44  2  0  0  0
 44 45  1  0  0  0
 45 46  2  0  0  0
 29 30  1  0  0  0
 30 31  2  0  0  0
 25 17  1  0  0  0
 13  5  1  0  0  0
 30 26  1  0  0  0
 24 20  1  0  0  0
 13  8  1  0  0  0
 40 36  2  0  0  0
 46 41  1  0  0  0
 14 16  1  0  0  0
  3  4  1  0  0  0
 32 35  1  0  0  0
M  END
> <minimizedAffinity>
-9.26521

> <CNNscore>
0.3419803381

> <CNNaffinity>
6.7568445206

> <CNN_VS>
2.3107080460

> <CNNaffinity_variance>
0.5567366481

$$$$
[H]OC([H])(c1c([H])c([H])c2c(c1[H])OC([H])([H])O2)n1c(C(=O)N([H])[C@@]2([H])C(=O)[C@@]([H])(N([H])C(=O)c3snnc3-c3c([H])c([H])c([H])c([H])c3[H])C([H])([H])C2([H])[H])nc2c([H])c([H])c([H])c([H])c21


 46 52  0  0  0  0  0  0  0  0999 V2000
  -17.4591   16.8856  -20.5768 C   0  0  0  0  0  0  0  0  0  0  0  0
  -17.2623   18.0339  -20.1343 O   0  0  0  0  0  0  0  0  0  0  0  0
  -18.2988   15.9939  -19.8968 N   0  0  0  0  0  0  0  0  0  0  0  0
  -18.4257   14.9870  -20.2635 H   0  0  0  0  0  0  0  0  0  0  0  0
  -16.7977   16.9410  -23.0544 N   0  0  0  0  0  0  0  0  0  0  0  0
  -16.7860   16.4799  -21.8064 C   0  0  0  0  0  0  0  0  0  0  0  0
  -16.0984   15.2820  -21.8147 N   0  0  0  0  0  0  0  0  0  0  0  0
  -15.6949   15.0126  -23.0570 C   0  0  0  0  0  0  0  0  0  0  0  0
  -14.9819   13.9025  -23.5367 C   0  0  0  0  0  0  0  0  0  0  0  0
  -14.7211   13.8787  -24.8788 C   0  0  0  0  0  0  0  0  0  0  0  0
  -15.1502   14.9075  -25.7229 C   0  0  0  0  0  0  0  0  0  0  0  0
  -15.8510   15.9866  -25.2082 C   0  0  0  0  0  0  0  0  0  0  0  0
  -16.1296   16.0443  -23.8402 C   0  0  0  0  0  0  0  0  0  0  0  0
  -17.0583   18.4577  -24.8916 O   0  0  0  0  0  0  0  0  0  0  0  0
  -17.2859   18.1665  -23.5757 C   0  0  0  0  0  0  0  0  0  0  0  0
  -17.7884   18.0324  -25.4146 H   0  0  0  0  0  0  0  0  0  0  0  0
  -18.7398   18.4241  -23.3162 C   0  0  0  0  0  0  0  0  0  0  0  0
  -19.7389   17.5294  -23.5501 C   0  0  0  0  0  0  0  0  0  0  0  0
  -21.0757   17.8449  -23.2503 C   0  0  0  0  0  0  0  0  0  0  0  0
  -21.4230   19.0679  -22.7121 C   0  0  0  0  0  0  0  0  0  0  0  0
  -22.6307   19.6406  -22.3224 O   0  0  0  0  0  0  0  0  0  0  0  0
  -22.4430   21.0335  -22.0794 C   0  0  0  0  0  0  0  0  0  0  0  0
  -21.0400   21.1112  -21.9421 O   0  0  0  0  0  0  0  0  0  0  0  0
  -20.4209   19.9868  -22.4705 C   0  0  0  0  0  0  0  0  0  0  0  0
  -19.1079   19.6534  -22.7746 C   0  0  0  0  0  0  0  0  0  0  0  0
  -18.9856   16.2509  -18.6848 C   0  0  0  0  0  0  0  0  0  0  0  0
  -18.1461   15.8843  -17.4453 C   0  0  0  0  0  0  0  0  0  0  0  0
  -19.3187   15.7052  -16.4332 C   0  0  0  0  0  0  0  0  0  0  0  0
  -20.1614   14.7233  -17.1928 C   0  0  0  0  0  0  0  0  0  0  0  0
  -20.2050   15.4426  -18.5377 C   0  0  0  0  0  0  0  0  0  0  0  0
  -21.1300   15.3252  -19.3165 O   0  0  0  0  0  0  0  0  0  0  0  0
  -19.6073   13.4090  -17.2312 N   0  0  0  0  0  0  0  0  0  0  0  0
  -20.2161   12.2144  -16.8976 C   0  0  0  0  0  0  0  0  0  0  0  0
  -21.4530   12.2014  -16.5692 O   0  0  0  0  0  0  0  0  0  0  0  0
  -18.5967   13.3745  -17.6139 H   0  0  0  0  0  0  0  0  0  0  0  0
  -19.5116   10.9209  -16.9044 C   0  0  0  0  0  0  0  0  0  0  0  0
  -19.5239    9.7532  -15.6106 S   0  0  0  0  0  0  0  0  0  0  0  0
  -18.4592    8.6349  -16.2588 N   0  0  0  0  0  0  0  0  0  0  0  0
  -18.1320    9.1708  -17.3993 N   0  0  0  0  0  0  0  0  0  0  0  0
  -18.6404   10.3289  -17.7529 C   0  0  0  0  0  0  0  0  0  0  0  0
  -18.1025   10.9659  -19.0051 C   0  0  0  0  0  0  0  0  0  0  0  0
  -18.6995   11.9930  -19.6518 C   0  0  0  0  0  0  0  0  0  0  0  0
  -18.1797   12.4497  -20.8670 C   0  0  0  0  0  0  0  0  0  0  0  0
  -17.0698   11.8743  -21.4152 C   0  0  0  0  0  0  0  0  0  0  0  0
  -16.4573   10.8137  -20.7368 C   0  0  0  0  0  0  0  0  0  0  0  0
  -16.9669   10.3798  -19.5686 C   0  0  0  0  0  0  0  0  0  0  0  0
 14 15  1  0  0  0
 15 17  1  0  0  0
 17 18  2  0  0  0
 18 19  1  0  0  0
 19 20  2  0  0  0
 20 21  1  0  0  0
 21 22  1  0  0  0
 22 23  1  0  0  0
 23 24  1  0  0  0
 24 25  2  0  0  0
 15  5  1  0  0  0
  5  6  1  0  0  0
  6  7  2  0  0  0
  7  8  1  0  0  0
  8  9  2  0  0  0
  9 10  1  0  0  0
 10 11  2  0  0  0
 11 12  1  0  0  0
 12 13  2  0  0  0
  6  1  1  0  0  0
  1  2  2  0  0  0
  1  3  1  0  0  0
  3 26  1  0  0  0
 26 27  1  0  0  0
 27 28  1  0  0  0
 28 29  1  0  0  0
 29 32  1  0  0  0
 32 33  1  0  0  0
 33 34  2  0  0  0
 33 36  1  0  0  0
 36 37  1  0  0  0
 37 38  1  0  0  0
 38 39  2  0  0  0
 39 40  1  0  0  0
 40 41  1  0  0  0
 41 42  2  0  0  0
 42 43  1  0  0  0
 43 44  2  0  0  0
 44 45  1  0  0  0
 45 46  2  0  0  0
 29 30  1  0  0  0
 30 31  2  0  0  0
 25 17  1  0  0  0
 13  5  1  0  0  0
 30 26  1  0  0  0
 24 20  1  0  0  0
 13  8  1  0  0  0
 40 36  2  0  0  0
 46 41  1  0  0  0
 14 16  1  0  0  0
  3  4  1  0  0  0
 32 35  1  0  0  0
M  END
> <minimizedAffinity>
-10.44059

> <CNNscore>
0.2779417634

> <CNNaffinity>
7.2286796570

> <CNN_VS>
2.0091519356

> <CNNaffinity_variance>
0.3381449580

$$$$
[H]OC([H])(c1c([H])c([H])c2c(c1[H])OC([H])([H])O2)n1c(C(=O)N([H])[C@@]2([H])C(=O)[C@@]([H])(N([H])C(=O)c3snnc3-c3c([H])c([H])c([H])c([H])c3[H])C([H])([H])C2([H])[H])nc2c([H])c([H])c([H])c([H])c21


 46 52  0  0  0  0  0  0  0  0999 V2000
  -20.8666   17.9076  -20.4605 C   0  0  0  0  0  0  0  0  0  0  0  0
  -20.4637   16.7333  -20.3524 O   0  0  0  0  0  0  0  0  0  0  0  0
  -20.9742   18.7311  -19.3323 N   0  0  0  0  0  0  0  0  0  0  0  0
  -21.3680   19.7310  -19.4304 H   0  0  0  0  0  0  0  0  0  0  0  0
  -20.6865   19.2689  -22.6270 N   0  0  0  0  0  0  0  0  0  0  0  0
  -21.2408   18.4049  -21.7805 C   0  0  0  0  0  0  0  0  0  0  0  0
  -22.4960   18.0964  -22.2675 N   0  0  0  0  0  0  0  0  0  0  0  0
  -22.7075   18.7672  -23.4007 C   0  0  0  0  0  0  0  0  0  0  0  0
  -23.8420   18.7755  -24.2276 C   0  0  0  0  0  0  0  0  0  0  0  0
  -23.7882   19.5849  -25.3284 C   0  0  0  0  0  0  0  0  0  0  0  0
  -22.6608   20.3641  -25.6058 C   0  0  0  0  0  0  0  0  0  0  0  0
  -21.5610   20.3257  -24.7635 C   0  0  0  0  0  0  0  0  0  0  0  0
  -21.5814   19.5051  -23.6327 C   0  0  0  0  0  0  0  0  0  0  0  0
  -19.0473   20.7451  -21.6903 O   0  0  0  0  0  0  0  0  0  0  0  0
  -19.3828   19.8275  -22.6461 C   0  0  0  0  0  0  0  0  0  0  0  0
  -18.7353   20.2369  -20.8954 H   0  0  0  0  0  0  0  0  0  0  0  0
  -18.2705   18.8236  -22.6977 C   0  0  0  0  0  0  0  0  0  0  0  0
  -17.5783   18.3780  -21.6134 C   0  0  0  0  0  0  0  0  0  0  0  0
  -16.5664   17.4115  -21.7498 C   0  0  0  0  0  0  0  0  0  0  0  0
  -16.2381   16.8827  -22.9821 C   0  0  0  0  0  0  0  0  0  0  0  0
  -15.3089   15.9372  -23.4077 O   0  0  0  0  0  0  0  0  0  0  0  0
  -15.2150   15.9659  -24.8306 C   0  0  0  0  0  0  0  0  0  0  0  0
  -16.4029   16.6442  -25.1800 O   0  0  0  0  0  0  0  0  0  0  0  0
  -16.9304   17.3258  -24.0918 C   0  0  0  0  0  0  0  0  0  0  0  0
  -17.9254   18.2809  -23.9331 C   0  0  0  0  0  0  0  0  0  0  0  0
  -20.6729   18.3645  -17.9975 C   0  0  0  0  0  0  0  0  0  0  0  0
  -19.1846   18.0116  -17.8074 C   0  0  0  0  0  0  0  0  0  0  0  0
  -19.3310   17.1325  -16.5279 C   0  0  0  0  0  0  0  0  0  0  0  0
  -20.3668   16.1584  -17.0068 C   0  0  0  0  0  0  0  0  0  0  0  0
  -21.3820   17.1511  -17.5653 C   0  0  0  0  0  0  0  0  0  0  0  0
  -22.5730   16.9161  -17.6149 O   0  0  0  0  0  0  0  0  0  0  0  0
  -19.8655   15.2146  -17.9521 N   0  0  0  0  0  0  0  0  0  0  0  0
  -18.8059   14.3398  -17.8073 C   0  0  0  0  0  0  0  0  0  0  0  0
  -18.1934   14.2636  -16.6863 O   0  0  0  0  0  0  0  0  0  0  0  0
  -20.4350   15.1749  -18.8704 H   0  0  0  0  0  0  0  0  0  0  0  0
  -18.3314   13.4618  -18.8906 C   0  0  0  0  0  0  0  0  0  0  0  0
  -17.7564   13.9932  -20.4477 S   0  0  0  0  0  0  0  0  0  0  0  0
  -17.5074   12.4972  -21.1580 N   0  0  0  0  0  0  0  0  0  0  0  0
  -17.8649   11.6667  -20.2214 N   0  0  0  0  0  0  0  0  0  0  0  0
  -18.2929   12.1212  -19.0660 C   0  0  0  0  0  0  0  0  0  0  0  0
  -18.8378   11.1168  -18.0876 C   0  0  0  0  0  0  0  0  0  0  0  0
  -19.8765   11.3540  -17.2542 C   0  0  0  0  0  0  0  0  0  0  0  0
  -20.2445   10.3943  -16.3061 C   0  0  0  0  0  0  0  0  0  0  0  0
  -19.5702    9.2114  -16.2077 C   0  0  0  0  0  0  0  0  0  0  0  0
  -18.4984    8.9740  -17.0767 C   0  0  0  0  0  0  0  0  0  0  0  0
  -18.1505    9.9053  -17.9845 C   0  0  0  0  0  0  0  0  0  0  0  0
 14 15  1  0  0  0
 15 17  1  0  0  0
 17 18  2  0  0  0
 18 19  1  0  0  0
 19 20  2  0  0  0
 20 21  1  0  0  0
 21 22  1  0  0  0
 22 23  1  0  0  0
 23 24  1  0  0  0
 24 25  2  0  0  0
 15  5  1  0  0  0
  5  6  1  0  0  0
  6  7  2  0  0  0
  7  8  1  0  0  0
  8  9  2  0  0  0
  9 10  1  0  0  0
 10 11  2  0  0  0
 11 12  1  0  0  0
 12 13  2  0  0  0
  6  1  1  0  0  0
  1  2  2  0  0  0
  1  3  1  0  0  0
  3 26  1  0  0  0
 26 27  1  0  0  0
 27 28  1  0  0  0
 28 29  1  0  0  0
 29 32  1  0  0  0
 32 33  1  0  0  0
 33 34  2  0  0  0
 33 36  1  0  0  0
 36 37  1  0  0  0
 37 38  1  0  0  0
 38 39  2  0  0  0
 39 40  1  0  0  0
 40 41  1  0  0  0
 41 42  2  0  0  0
 42 43  1  0  0  0
 43 44  2  0  0  0
 44 45  1  0  0  0
 45 46  2  0  0  0
 29 30  1  0  0  0
 30 31  2  0  0  0
 25 17  1  0  0  0
 13  5  1  0  0  0
 30 26  1  0  0  0
 24 20  1  0  0  0
 13  8  1  0  0  0
 40 36  2  0  0  0
 46 41  1  0  0  0
 14 16  1  0  0  0
  3  4  1  0  0  0
 32 35  1  0  0  0
M  END
> <minimizedAffinity>
-10.19466

> <CNNscore>
0.2558886707

> <CNNaffinity>
6.9695611000

> <CNN_VS>
1.7834317684

> <CNNaffinity_variance>
0.1320354939

$$$$
[H]OC([H])(c1c([H])c([H])c2c(c1[H])OC([H])([H])O2)n1c(C(=O)N([H])[C@@]2([H])C(=O)[C@@]([H])(N([H])C(=O)c3snnc3-c3c([H])c([H])c([H])c([H])c3[H])C([H])([H])C2([H])[H])nc2c([H])c([H])c([H])c([H])c21


 46 52  0  0  0  0  0  0  0  0999 V2000
  -20.6749   14.9652  -18.9561 C   0  0  0  0  0  0  0  0  0  0  0  0
  -21.5792   15.1744  -19.7876 O   0  0  0  0  0  0  0  0  0  0  0  0
  -20.5360   15.7889  -17.8315 N   0  0  0  0  0  0  0  0  0  0  0  0
  -19.7215   15.6275  -17.1424 H   0  0  0  0  0  0  0  0  0  0  0  0
  -18.9341   13.1677  -18.3926 N   0  0  0  0  0  0  0  0  0  0  0  0
  -19.7521   13.8577  -19.1831 C   0  0  0  0  0  0  0  0  0  0  0  0
  -19.4817   13.4839  -20.4850 N   0  0  0  0  0  0  0  0  0  0  0  0
  -18.5058   12.5748  -20.4901 C   0  0  0  0  0  0  0  0  0  0  0  0
  -17.8998   11.9306  -21.5803 C   0  0  0  0  0  0  0  0  0  0  0  0
  -16.8961   11.0494  -21.2869 C   0  0  0  0  0  0  0  0  0  0  0  0
  -16.4969   10.8122  -19.9680 C   0  0  0  0  0  0  0  0  0  0  0  0
  -17.1224   11.4690  -18.9203 C   0  0  0  0  0  0  0  0  0  0  0  0
  -18.1553   12.3720  -19.1853 C   0  0  0  0  0  0  0  0  0  0  0  0
  -18.6726   14.2638  -16.2774 O   0  0  0  0  0  0  0  0  0  0  0  0
  -18.8615   13.1051  -16.9773 C   0  0  0  0  0  0  0  0  0  0  0  0
  -19.5690   14.6690  -16.1373 H   0  0  0  0  0  0  0  0  0  0  0  0
  -19.9978   12.3791  -16.3221 C   0  0  0  0  0  0  0  0  0  0  0  0
  -20.9977   12.9787  -15.6192 C   0  0  0  0  0  0  0  0  0  0  0  0
  -22.0422   12.2215  -15.0604 C   0  0  0  0  0  0  0  0  0  0  0  0
  -22.0912   10.8491  -15.2016 C   0  0  0  0  0  0  0  0  0  0  0  0
  -22.9802    9.8678  -14.7712 O   0  0  0  0  0  0  0  0  0  0  0  0
  -22.4034    8.5788  -14.9718 C   0  0  0  0  0  0  0  0  0  0  0  0
  -21.3738    8.8688  -15.8933 O   0  0  0  0  0  0  0  0  0  0  0  0
  -21.0832   10.2260  -15.9107 C   0  0  0  0  0  0  0  0  0  0  0  0
  -20.0619   10.9939  -16.4536 C   0  0  0  0  0  0  0  0  0  0  0  0
  -21.3423   16.9086  -17.5102 C   0  0  0  0  0  0  0  0  0  0  0  0
  -22.8055   16.7264  -17.9588 C   0  0  0  0  0  0  0  0  0  0  0  0
  -23.2027   18.2328  -18.0238 C   0  0  0  0  0  0  0  0  0  0  0  0
  -22.1115   18.7442  -18.9177 C   0  0  0  0  0  0  0  0  0  0  0  0
  -20.9126   18.1364  -18.1958 C   0  0  0  0  0  0  0  0  0  0  0  0
  -19.8062   18.6376  -18.2213 O   0  0  0  0  0  0  0  0  0  0  0  0
  -22.2590   18.3458  -20.2798 N   0  0  0  0  0  0  0  0  0  0  0  0
  -22.9205   19.0064  -21.2970 C   0  0  0  0  0  0  0  0  0  0  0  0
  -23.4309   20.1596  -21.0794 O   0  0  0  0  0  0  0  0  0  0  0  0
  -21.7406   17.4286  -20.5228 H   0  0  0  0  0  0  0  0  0  0  0  0
  -23.0712   18.4529  -22.6537 C   0  0  0  0  0  0  0  0  0  0  0  0
  -23.9481   17.0042  -23.0657 S   0  0  0  0  0  0  0  0  0  0  0  0
  -23.6023   16.9472  -24.7033 N   0  0  0  0  0  0  0  0  0  0  0  0
  -22.8486   17.9942  -24.8788 N   0  0  0  0  0  0  0  0  0  0  0  0
  -22.5550   18.7723  -23.8625 C   0  0  0  0  0  0  0  0  0  0  0  0
  -21.5552   19.8709  -24.0999 C   0  0  0  0  0  0  0  0  0  0  0  0
  -21.7044   20.8476  -25.0238 C   0  0  0  0  0  0  0  0  0  0  0  0
  -20.6721   21.7650  -25.2432 C   0  0  0  0  0  0  0  0  0  0  0  0
  -19.5079   21.6934  -24.5339 C   0  0  0  0  0  0  0  0  0  0  0  0
  -19.3641   20.6806  -23.5778 C   0  0  0  0  0  0  0  0  0  0  0  0
  -20.3629   19.8009  -23.3756 C   0  0  0  0  0  0  0  0  0  0  0  0
 14 15  1  0  0  0
 15 17  1  0  0  0
 17 18  2  0  0  0
 18 19  1  0  0  0
 19 20  2  0  0  0
 20 21  1  0  0  0
 21 22  1  0  0  0
 22 23  1  0  0  0
 23 24  1  0  0  0
 24 25  2  0  0  0
 15  5  1  0  0  0
  5  6  1  0  0  0
  6  7  2  0  0  0
  7  8  1  0  0  0
  8  9  2  0  0  0
  9 10  1  0  0  0
 10 11  2  0  0  0
 11 12  1  0  0  0
 12 13  2  0  0  0
  6  1  1  0  0  0
  1  2  2  0  0  0
  1  3  1  0  0  0
  3 26  1  0  0  0
 26 27  1  0  0  0
 27 28  1  0  0  0
 28 29  1  0  0  0
 29 32  1  0  0  0
 32 33  1  0  0  0
 33 34  2  0  0  0
 33 36  1  0  0  0
 36 37  1  0  0  0
 37 38  1  0  0  0
 38 39  2  0  0  0
 39 40  1  0  0  0
 40 41  1  0  0  0
 41 42  2  0  0  0
 42 43  1  0  0  0
 43 44  2  0  0  0
 44 45  1  0  0  0
 45 46  2  0  0  0
 29 30  1  0  0  0
 30 31  2  0  0  0
 25 17  1  0  0  0
 13  5  1  0  0  0
 30 26  1  0  0  0
 24 20  1  0  0  0
 13  8  1  0  0  0
 40 36  2  0  0  0
 46 41  1  0  0  0
 14 16  1  0  0  0
  3  4  1  0  0  0
 32 35  1  0  0  0
M  END
> <minimizedAffinity>
-8.75418

> <CNNscore>
0.2379474640

> <CNNaffinity>
6.5558815002

> <CNN_VS>
1.5599553585

> <CNNaffinity_variance>
0.2791060805

$$$$
[H]OC([H])(c1c([H])c([H])c2c(c1[H])OC([H])([H])O2)n1c(C(=O)N([H])[C@@]2([H])C(=O)[C@@]([H])(N([H])C(=O)c3snnc3-c3c([H])c([H])c([H])c([H])c3[H])C([H])([H])C2([H])[H])nc2c([H])c([H])c([H])c([H])c21


 46 52  0  0  0  0  0  0  0  0999 V2000
  -17.0203   15.7496  -21.9661 C   0  0  0  0  0  0  0  0  0  0  0  0
  -15.9619   16.2606  -22.3805 O   0  0  0  0  0  0  0  0  0  0  0  0
  -18.2275   16.4573  -22.0333 N   0  0  0  0  0  0  0  0  0  0  0  0
  -19.1294   16.0240  -21.6294 H   0  0  0  0  0  0  0  0  0  0  0  0
  -16.4634   13.2511  -21.8035 N   0  0  0  0  0  0  0  0  0  0  0  0
  -16.9776   14.4079  -21.3939 C   0  0  0  0  0  0  0  0  0  0  0  0
  -17.7409   14.1471  -20.2726 N   0  0  0  0  0  0  0  0  0  0  0  0
  -17.6949   12.8422  -20.0005 C   0  0  0  0  0  0  0  0  0  0  0  0
  -18.3278   12.1284  -18.9706 C   0  0  0  0  0  0  0  0  0  0  0  0
  -18.1173   10.7775  -18.9463 C   0  0  0  0  0  0  0  0  0  0  0  0
  -17.3165   10.1473  -19.9038 C   0  0  0  0  0  0  0  0  0  0  0  0
  -16.7089   10.8897  -20.9039 C   0  0  0  0  0  0  0  0  0  0  0  0
  -16.8993   12.2730  -20.9542 C   0  0  0  0  0  0  0  0  0  0  0  0
  -15.0420   11.7069  -22.9604 O   0  0  0  0  0  0  0  0  0  0  0  0
  -15.5412   12.9740  -22.8450 C   0  0  0  0  0  0  0  0  0  0  0  0
  -15.6925   11.1856  -23.5012 H   0  0  0  0  0  0  0  0  0  0  0  0
  -15.9942   13.3914  -24.2119 C   0  0  0  0  0  0  0  0  0  0  0  0
  -17.1470   12.9773  -24.8060 C   0  0  0  0  0  0  0  0  0  0  0  0
  -17.5089   13.4421  -26.0825 C   0  0  0  0  0  0  0  0  0  0  0  0
  -16.7120   14.3296  -26.7777 C   0  0  0  0  0  0  0  0  0  0  0  0
  -16.8150   14.9455  -28.0220 O   0  0  0  0  0  0  0  0  0  0  0  0
  -15.5734   15.5645  -28.3535 C   0  0  0  0  0  0  0  0  0  0  0  0
  -14.9411   15.6257  -27.0926 O   0  0  0  0  0  0  0  0  0  0  0  0
  -15.5385   14.7578  -26.1888 C   0  0  0  0  0  0  0  0  0  0  0  0
  -15.2014   14.2854  -24.9276 C   0  0  0  0  0  0  0  0  0  0  0  0
  -18.4003   17.7705  -22.5358 C   0  0  0  0  0  0  0  0  0  0  0  0
  -18.2086   18.8453  -21.4479 C   0  0  0  0  0  0  0  0  0  0  0  0
  -19.0190   19.9907  -22.1281 C   0  0  0  0  0  0  0  0  0  0  0  0
  -20.3132   19.2730  -22.3757 C   0  0  0  0  0  0  0  0  0  0  0  0
  -19.7605   18.0145  -23.0381 C   0  0  0  0  0  0  0  0  0  0  0  0
  -20.3938   17.3640  -23.8455 O   0  0  0  0  0  0  0  0  0  0  0  0
  -21.0724   19.0446  -21.1895 N   0  0  0  0  0  0  0  0  0  0  0  0
  -22.3598   18.5552  -21.0793 C   0  0  0  0  0  0  0  0  0  0  0  0
  -22.9866   18.1737  -22.1278 O   0  0  0  0  0  0  0  0  0  0  0  0
  -20.5278   19.2507  -20.2785 H   0  0  0  0  0  0  0  0  0  0  0  0
  -23.0698   18.4358  -19.7943 C   0  0  0  0  0  0  0  0  0  0  0  0
  -24.5745   19.2175  -19.3913 S   0  0  0  0  0  0  0  0  0  0  0  0
  -24.7039   18.7267  -17.7954 N   0  0  0  0  0  0  0  0  0  0  0  0
  -23.6292   18.0126  -17.6220 N   0  0  0  0  0  0  0  0  0  0  0  0
  -22.7788   17.8515  -18.6097 C   0  0  0  0  0  0  0  0  0  0  0  0
  -21.4846   17.1502  -18.2994 C   0  0  0  0  0  0  0  0  0  0  0  0
  -21.3510   15.8074  -18.2076 C   0  0  0  0  0  0  0  0  0  0  0  0
  -20.1302   15.2525  -17.8112 C   0  0  0  0  0  0  0  0  0  0  0  0
  -19.0613   16.0485  -17.5155 C   0  0  0  0  0  0  0  0  0  0  0  0
  -19.2087   17.4372  -17.6163 C   0  0  0  0  0  0  0  0  0  0  0  0
  -20.3888   17.9617  -17.9965 C   0  0  0  0  0  0  0  0  0  0  0  0
 14 15  1  0  0  0
 15 17  1  0  0  0
 17 18  2  0  0  0
 18 19  1  0  0  0
 19 20  2  0  0  0
 20 21  1  0  0  0
 21 22  1  0  0  0
 22 23  1  0  0  0
 23 24  1  0  0  0
 24 25  2  0  0  0
 15  5  1  0  0  0
  5  6  1  0  0  0
  6  7  2  0  0  0
  7  8  1  0  0  0
  8  9  2  0  0  0
  9 10  1  0  0  0
 10 11  2  0  0  0
 11 12  1  0  0  0
 12 13  2  0  0  0
  6  1  1  0  0  0
  1  2  2  0  0  0
  1  3  1  0  0  0
  3 26  1  0  0  0
 26 27  1  0  0  0
 27 28  1  0  0  0
 28 29  1  0  0  0
 29 32  1  0  0  0
 32 33  1  0  0  0
 33 34  2  0  0  0
 33 36  1  0  0  0
 36 37  1  0  0  0
 37 38  1  0  0  0
 38 39  2  0  0  0
 39 40  1  0  0  0
 40 41  1  0  0  0
 41 42  2  0  0  0
 42 43  1  0  0  0
 43 44  2  0  0  0
 44 45  1  0  0  0
 45 46  2  0  0  0
 29 30  1  0  0  0
 30 31  2  0  0  0
 25 17  1  0  0  0
 13  5  1  0  0  0
 30 26  1  0  0  0
 24 20  1  0  0  0
 13  8  1  0  0  0
 40 36  2  0  0  0
 46 41  1  0  0  0
 14 16  1  0  0  0
  3  4  1  0  0  0
 32 35  1  0  0  0
M  END
> <minimizedAffinity>
-9.25405

> <CNNscore>
0.1992608905

> <CNNaffinity>
7.4451012611

> <CNN_VS>
1.4835175276

> <CNNaffinity_variance>
0.1439255029

$$$$
[H]OC([H])(c1c([H])c([H])c2c(c1[H])OC([H])([H])O2)n1c(C(=O)N([H])[C@@]2([H])C(=O)[C@@]([H])(N([H])C(=O)c3snnc3-c3c([H])c([H])c([H])c([H])c3[H])C([H])([H])C2([H])[H])nc2c([H])c([H])c([H])c([H])c21


 46 52  0  0  0  0  0  0  0  0999 V2000
  -17.5194   13.1973  -21.2931 C   0  0  0  0  0  0  0  0  0  0  0  0
  -16.8137   12.5449  -22.0865 O   0  0  0  0  0  0  0  0  0  0  0  0
  -17.6681   14.5821  -21.4444 N   0  0  0  0  0  0  0  0  0  0  0  0
  -18.2434   15.1442  -20.7251 H   0  0  0  0  0  0  0  0  0  0  0  0
  -19.1053   12.8438  -19.3084 N   0  0  0  0  0  0  0  0  0  0  0  0
  -18.1744   12.4965  -20.1934 C   0  0  0  0  0  0  0  0  0  0  0  0
  -17.6783   11.2657  -19.8101 N   0  0  0  0  0  0  0  0  0  0  0  0
  -18.2993   10.8652  -18.6998 C   0  0  0  0  0  0  0  0  0  0  0  0
  -18.1086    9.6933  -17.9508 C   0  0  0  0  0  0  0  0  0  0  0  0
  -18.8800    9.5533  -16.8305 C   0  0  0  0  0  0  0  0  0  0  0  0
  -19.8040   10.5332  -16.4548 C   0  0  0  0  0  0  0  0  0  0  0  0
  -19.9618   11.6756  -17.2233 C   0  0  0  0  0  0  0  0  0  0  0  0
  -19.1927   11.8472  -18.3772 C   0  0  0  0  0  0  0  0  0  0  0  0
  -21.3288   13.7357  -19.2452 O   0  0  0  0  0  0  0  0  0  0  0  0
  -19.9811   13.9593  -19.2872 C   0  0  0  0  0  0  0  0  0  0  0  0
  -21.5754   13.6206  -18.2894 H   0  0  0  0  0  0  0  0  0  0  0  0
  -19.6741   14.9784  -18.2313 C   0  0  0  0  0  0  0  0  0  0  0  0
  -18.4704   15.5954  -18.0768 C   0  0  0  0  0  0  0  0  0  0  0  0
  -18.2779   16.5622  -17.0745 C   0  0  0  0  0  0  0  0  0  0  0  0
  -19.2964   16.9185  -16.2134 C   0  0  0  0  0  0  0  0  0  0  0  0
  -19.3934   17.8207  -15.1574 O   0  0  0  0  0  0  0  0  0  0  0  0
  -20.6060   17.5912  -14.4422 C   0  0  0  0  0  0  0  0  0  0  0  0
  -21.3473   16.8344  -15.3756 O   0  0  0  0  0  0  0  0  0  0  0  0
  -20.5230   16.3004  -16.3566 C   0  0  0  0  0  0  0  0  0  0  0  0
  -20.6900   15.3485  -17.3533 C   0  0  0  0  0  0  0  0  0  0  0  0
  -17.0665   15.3834  -22.4459 C   0  0  0  0  0  0  0  0  0  0  0  0
  -16.8471   16.8366  -21.9816 C   0  0  0  0  0  0  0  0  0  0  0  0
  -16.7794   17.5067  -23.3879 C   0  0  0  0  0  0  0  0  0  0  0  0
  -18.0654   17.0005  -23.9720 C   0  0  0  0  0  0  0  0  0  0  0  0
  -17.9033   15.5186  -23.6473 C   0  0  0  0  0  0  0  0  0  0  0  0
  -18.4093   14.6396  -24.3162 O   0  0  0  0  0  0  0  0  0  0  0  0
  -19.2248   17.6157  -23.4126 N   0  0  0  0  0  0  0  0  0  0  0  0
  -19.5892   18.9479  -23.4521 C   0  0  0  0  0  0  0  0  0  0  0  0
  -18.8797   19.7815  -24.1150 O   0  0  0  0  0  0  0  0  0  0  0  0
  -19.9032   16.9174  -22.9423 H   0  0  0  0  0  0  0  0  0  0  0  0
  -20.7796   19.4789  -22.7659 C   0  0  0  0  0  0  0  0  0  0  0  0
  -20.8254   20.0701  -21.1271 S   0  0  0  0  0  0  0  0  0  0  0  0
  -22.4652   20.3895  -21.0111 N   0  0  0  0  0  0  0  0  0  0  0  0
  -22.9137   20.0407  -22.1824 N   0  0  0  0  0  0  0  0  0  0  0  0
  -22.0896   19.5699  -23.0900 C   0  0  0  0  0  0  0  0  0  0  0  0
  -22.6927   19.0392  -24.3619 C   0  0  0  0  0  0  0  0  0  0  0  0
  -23.0358   17.7456  -24.5580 C   0  0  0  0  0  0  0  0  0  0  0  0
  -23.4927   17.3266  -25.8115 C   0  0  0  0  0  0  0  0  0  0  0  0
  -23.6019   18.2078  -26.8484 C   0  0  0  0  0  0  0  0  0  0  0  0
  -23.2470   19.5452  -26.6346 C   0  0  0  0  0  0  0  0  0  0  0  0
  -22.8060   19.9381  -25.4248 C   0  0  0  0  0  0  0  0  0  0  0  0
 14 15  1  0  0  0
 15 17  1  0  0  0
 17 18  2  0  0  0
 18 19  1  0  0  0
 19 20  2  0  0  0
 20 21  1  0  0  0
 21 22  1  0  0  0
 22 23  1  0  0  0
 23 24  1  0  0  0
 24 25  2  0  0  0
 15  5  1  0  0  0
  5  6  1  0  0  0
  6  7  2  0  0  0
  7  8  1  0  0  0
  8  9  2  0  0  0
  9 10  1  0  0  0
 10 11  2  0  0  0
 11 12  1  0  0  0
 12 13  2  0  0  0
  6  1  1  0  0  0
  1  2  2  0  0  0
  1  3  1  0  0  0
  3 26  1  0  0  0
 26 27  1  0  0  0
 27 28  1  0  0  0
 28 29  1  0  0  0
 29 32  1  0  0  0
 32 33  1  0  0  0
 33 34  2  0  0  0
 33 36  1  0  0  0
 36 37  1  0  0  0
 37 38  1  0  0  0
 38 39  2  0  0  0
 39 40  1  0  0  0
 40 41  1  0  0  0
 41 42  2  0  0  0
 42 43  1  0  0  0
 43 44  2  0  0  0
 44 45  1  0  0  0
 45 46  2  0  0  0
 29 30  1  0  0  0
 30 31  2  0  0  0
 25 17  1  0  0  0
 13  5  1  0  0  0
 30 26  1  0  0  0
 24 20  1  0  0  0
 13  8  1  0  0  0
 40 36  2  0  0  0
 46 41  1  0  0  0
 14 16  1  0  0  0
  3  4  1  0  0  0
 32 35  1  0  0  0
M  END
> <minimizedAffinity>
-10.24014

> <CNNscore>
0.1983877271

> <CNNaffinity>
6.9382958412

> <CNN_VS>
1.3764727116

> <CNNaffinity_variance>
0.1863544285

$$$$
[H]OC([H])(c1c([H])c([H])c2c(c1[H])OC([H])([H])O2)n1c(C(=O)N([H])[C@@]2([H])C(=O)[C@@]([H])(N([H])C(=O)c3snnc3-c3c([H])c([H])c([H])c([H])c3[H])C([H])([H])C2([H])[H])nc2c([H])c([H])c([H])c([H])c21


 46 52  0  0  0  0  0  0  0  0999 V2000
  -20.6040   14.3826  -18.7918 C   0  0  0  0  0  0  0  0  0  0  0  0
  -21.7092   14.3259  -19.3648 O   0  0  0  0  0  0  0  0  0  0  0  0
  -20.3119   15.4299  -17.9084 N   0  0  0  0  0  0  0  0  0  0  0  0
  -19.3356   15.4949  -17.4535 H   0  0  0  0  0  0  0  0  0  0  0  0
  -18.8231   12.6030  -18.3013 N   0  0  0  0  0  0  0  0  0  0  0  0
  -19.6127   13.3484  -19.0701 C   0  0  0  0  0  0  0  0  0  0  0  0
  -19.2266   13.1437  -20.3804 N   0  0  0  0  0  0  0  0  0  0  0  0
  -18.2090   12.2821  -20.4118 C   0  0  0  0  0  0  0  0  0  0  0  0
  -17.4912   11.7976  -21.5168 C   0  0  0  0  0  0  0  0  0  0  0  0
  -16.4698   10.9293  -21.2472 C   0  0  0  0  0  0  0  0  0  0  0  0
  -16.1598   10.5531  -19.9367 C   0  0  0  0  0  0  0  0  0  0  0  0
  -16.8945   11.0543  -18.8740 C   0  0  0  0  0  0  0  0  0  0  0  0
  -17.9482   11.9397  -19.1152 C   0  0  0  0  0  0  0  0  0  0  0  0
  -19.0224   13.4435  -16.0658 O   0  0  0  0  0  0  0  0  0  0  0  0
  -18.8543   12.3751  -16.9016 C   0  0  0  0  0  0  0  0  0  0  0  0
  -20.0005   13.5993  -15.9852 H   0  0  0  0  0  0  0  0  0  0  0  0
  -19.8208   11.3179  -16.4591 C   0  0  0  0  0  0  0  0  0  0  0  0
  -21.1275   11.5430  -16.1506 C   0  0  0  0  0  0  0  0  0  0  0  0
  -21.9725   10.4855  -15.7707 C   0  0  0  0  0  0  0  0  0  0  0  0
  -21.5102    9.1869  -15.6953 C   0  0  0  0  0  0  0  0  0  0  0  0
  -22.1019    7.9719  -15.3603 O   0  0  0  0  0  0  0  0  0  0  0  0
  -21.0922    6.9789  -15.1904 C   0  0  0  0  0  0  0  0  0  0  0  0
  -19.9927    7.5775  -15.8434 O   0  0  0  0  0  0  0  0  0  0  0  0
  -20.1865    8.9426  -16.0038 C   0  0  0  0  0  0  0  0  0  0  0  0
  -19.3706   10.0024  -16.3763 C   0  0  0  0  0  0  0  0  0  0  0  0
  -21.1699   16.5068  -17.5751 C   0  0  0  0  0  0  0  0  0  0  0  0
  -22.2688   16.7307  -18.6324 C   0  0  0  0  0  0  0  0  0  0  0  0
  -22.5844   18.2224  -18.3060 C   0  0  0  0  0  0  0  0  0  0  0  0
  -21.2030   18.8003  -18.4003 C   0  0  0  0  0  0  0  0  0  0  0  0
  -20.4683   17.7976  -17.5156 C   0  0  0  0  0  0  0  0  0  0  0  0
  -19.4692   18.0841  -16.8864 O   0  0  0  0  0  0  0  0  0  0  0  0
  -20.7156   18.8924  -19.7381 N   0  0  0  0  0  0  0  0  0  0  0  0
  -19.8026   19.7911  -20.2554 C   0  0  0  0  0  0  0  0  0  0  0  0
  -19.2293   20.6323  -19.4798 O   0  0  0  0  0  0  0  0  0  0  0  0
  -21.0965   18.1214  -20.3934 H   0  0  0  0  0  0  0  0  0  0  0  0
  -19.4341   19.8359  -21.6809 C   0  0  0  0  0  0  0  0  0  0  0  0
  -20.0851   20.9400  -22.8618 S   0  0  0  0  0  0  0  0  0  0  0  0
  -19.3134   20.3480  -24.2251 N   0  0  0  0  0  0  0  0  0  0  0  0
  -18.6128   19.3561  -23.7560 N   0  0  0  0  0  0  0  0  0  0  0  0
  -18.6567   19.0659  -22.4760 C   0  0  0  0  0  0  0  0  0  0  0  0
  -17.9510   17.8157  -22.0265 C   0  0  0  0  0  0  0  0  0  0  0  0
  -17.0141   17.7807  -21.0515 C   0  0  0  0  0  0  0  0  0  0  0  0
  -16.3378   16.5883  -20.7753 C   0  0  0  0  0  0  0  0  0  0  0  0
  -16.6105   15.4491  -21.4762 C   0  0  0  0  0  0  0  0  0  0  0  0
  -17.5839   15.4947  -22.4815 C   0  0  0  0  0  0  0  0  0  0  0  0
  -18.2278   16.6481  -22.7413 C   0  0  0  0  0  0  0  0  0  0  0  0
 14 15  1  0  0  0
 15 17  1  0  0  0
 17 18  2  0  0  0
 18 19  1  0  0  0
 19 20  2  0  0  0
 20 21  1  0  0  0
 21 22  1  0  0  0
 22 23  1  0  0  0
 23 24  1  0  0  0
 24 25  2  0  0  0
 15  5  1  0  0  0
  5  6  1  0  0  0
  6  7  2  0  0  0
  7  8  1  0  0  0
  8  9  2  0  0  0
  9 10  1  0  0  0
 10 11  2  0  0  0
 11 12  1  0  0  0
 12 13  2  0  0  0
  6  1  1  0  0  0
  1  2  2  0  0  0
  1  3  1  0  0  0
  3 26  1  0  0  0
 26 27  1  0  0  0
 27 28  1  0  0  0
 28 29  1  0  0  0
 29 32  1  0  0  0
 32 33  1  0  0  0
 33 34  2  0  0  0
 33 36  1  0  0  0
 36 37  1  0  0  0
 37 38  1  0  0  0
 38 39  2  0  0  0
 39 40  1  0  0  0
 40 41  1  0  0  0
 41 42  2  0  0  0
 42 43  1  0  0  0
 43 44  2  0  0  0
 44 45  1  0  0  0
 45 46  2  0  0  0
 29 30  1  0  0  0
 30 31  2  0  0  0
 25 17  1  0  0  0
 13  5  1  0  0  0
 30 26  1  0  0  0
 24 20  1  0  0  0
 13  8  1  0  0  0
 40 36  2  0  0  0
 46 41  1  0  0  0
 14 16  1  0  0  0
  3  4  1  0  0  0
 32 35  1  0  0  0
M  END
> <minimizedAffinity>
-9.97074

> <CNNscore>
0.1536381096

> <CNNaffinity>
6.5627083778

> <CNN_VS>
1.0082820654

> <CNNaffinity_variance>
0.4795499444

$$$$
[H]N=C(N([H])[H])N([H])C([H])([H])C([H])([H])C([H])([H])[C@@]([H])(C(=O)N([H])[C@]([H])(C(=O)N([H])[H])C([H])([H])c1c([H])c([H])c([H])c([H])c1[H])N([H])C(=O)[C@@]([H])(N([H])C(=O)[C@@]([H])(N([H])C(=O)[C@@]([H])(N([H])[H])C([H])([H])c1c([H])c([H])c([H])c([H])c1[H])C([H])([H])C([H])([H])C(=O)N([H])[H])C([H])([H])C([H])(C([H])([H])[H])C([H])([H])[H]


 65 66  0  0  0  0  0  0  0  0999 V2000
  -22.6484   17.8448  -21.6106 C   0  0  0  0  0  0  0  0  0  0  0  0
  -23.7008   17.1715  -21.6715 O   0  0  0  0  0  0  0  0  0  0  0  0
  -21.7646   17.8301  -20.5154 N   0  0  0  0  0  0  0  0  0  0  0  0
  -20.8997   18.4791  -20.5981 H   0  0  0  0  0  0  0  0  0  0  0  0
  -21.8289   17.0989  -19.3027 C   0  0  0  0  0  0  0  0  0  0  0  0
  -21.2998   15.7177  -19.3433 C   0  0  0  0  0  0  0  0  0  0  0  0
  -21.7970   14.8588  -20.0826 O   0  0  0  0  0  0  0  0  0  0  0  0
  -20.2033   15.3180  -18.5374 N   0  0  0  0  0  0  0  0  0  0  0  0
  -19.7121   15.9627  -17.8905 H   0  0  0  0  0  0  0  0  0  0  0  0
  -19.6876   13.9408  -18.5750 C   0  0  0  0  0  0  0  0  0  0  0  0
  -19.5147   13.5101  -17.1886 C   0  0  0  0  0  0  0  0  0  0  0  0
  -20.2776   12.5007  -16.5761 N   0  0  0  0  0  0  0  0  0  0  0  0
  -18.6295   14.0705  -16.4719 O   0  0  0  0  0  0  0  0  0  0  0  0
  -21.3071   12.4575  -16.7163 H   0  0  0  0  0  0  0  0  0  0  0  0
  -19.8444   11.7732  -15.9697 H   0  0  0  0  0  0  0  0  0  0  0  0
  -18.3692   14.0528  -19.2958 C   0  0  0  0  0  0  0  0  0  0  0  0
  -17.7960   12.8293  -19.8158 C   0  0  0  0  0  0  0  0  0  0  0  0
  -17.8230   12.5285  -21.1563 C   0  0  0  0  0  0  0  0  0  0  0  0
  -17.2623   11.3479  -21.6563 C   0  0  0  0  0  0  0  0  0  0  0  0
  -16.6648   10.4575  -20.7876 C   0  0  0  0  0  0  0  0  0  0  0  0
  -16.6237   10.7343  -19.4395 C   0  0  0  0  0  0  0  0  0  0  0  0
  -17.1888   11.9155  -18.9669 C   0  0  0  0  0  0  0  0  0  0  0  0
  -23.1431   17.2339  -18.5808 C   0  0  0  0  0  0  0  0  0  0  0  0
  -22.8478   17.9263  -17.2652 C   0  0  0  0  0  0  0  0  0  0  0  0
  -21.7494   18.9362  -17.3799 C   0  0  0  0  0  0  0  0  0  0  0  0
  -20.8228   18.7296  -16.2845 N   0  0  0  0  0  0  0  0  0  0  0  0
  -20.9886   19.1562  -15.3473 H   0  0  0  0  0  0  0  0  0  0  0  0
  -19.6542   17.9412  -16.4358 C   0  0  0  0  0  0  0  0  0  0  0  0
  -19.3639   16.9257  -15.4983 N   0  0  0  0  0  0  0  0  0  0  0  0
  -18.8768   18.1702  -17.4309 N   0  0  0  0  0  0  0  0  0  0  0  0
  -20.0963   16.2473  -15.2126 H   0  0  0  0  0  0  0  0  0  0  0  0
  -18.4085   16.8585  -15.0923 H   0  0  0  0  0  0  0  0  0  0  0  0
  -19.0835   18.9178  -18.1264 H   0  0  0  0  0  0  0  0  0  0  0  0
  -22.3635   18.6883  -22.7938 C   0  0  0  0  0  0  0  0  0  0  0  0
  -21.1210   19.4272  -22.6960 N   0  0  0  0  0  0  0  0  0  0  0  0
  -21.0363   20.7607  -22.2605 C   0  0  0  0  0  0  0  0  0  0  0  0
  -22.1138   21.3443  -21.9520 O   0  0  0  0  0  0  0  0  0  0  0  0
  -20.2555   18.9262  -22.9793 H   0  0  0  0  0  0  0  0  0  0  0  0
  -19.7568   21.4902  -22.1543 C   0  0  0  0  0  0  0  0  0  0  0  0
  -18.7115   20.4386  -22.1992 N   0  0  0  0  0  0  0  0  0  0  0  0
  -18.5412   19.5804  -21.0855 C   0  0  0  0  0  0  0  0  0  0  0  0
  -19.2712   19.7149  -20.0585 O   0  0  0  0  0  0  0  0  0  0  0  0
  -18.1087   20.3287  -23.0352 H   0  0  0  0  0  0  0  0  0  0  0  0
  -17.5206   18.5190  -21.0926 C   0  0  0  0  0  0  0  0  0  0  0  0
  -16.6157   18.6724  -19.9381 N   0  0  0  0  0  0  0  0  0  0  0  0
  -15.8203   19.3092  -20.2317 H   0  0  0  0  0  0  0  0  0  0  0  0
  -17.1105   19.0832  -19.1183 H   0  0  0  0  0  0  0  0  0  0  0  0
  -18.1817   17.1374  -20.9346 C   0  0  0  0  0  0  0  0  0  0  0  0
  -17.7035   16.2926  -22.0507 C   0  0  0  0  0  0  0  0  0  0  0  0
  -16.3879   15.8873  -22.0576 C   0  0  0  0  0  0  0  0  0  0  0  0
  -15.8920   15.0858  -23.0944 C   0  0  0  0  0  0  0  0  0  0  0  0
  -16.7328   14.6961  -24.1241 C   0  0  0  0  0  0  0  0  0  0  0  0
  -18.0479   15.0984  -24.1209 C   0  0  0  0  0  0  0  0  0  0  0  0
  -18.5174   15.8990  -23.0726 C   0  0  0  0  0  0  0  0  0  0  0  0
  -19.5928   22.3670  -23.3825 C   0  0  0  0  0  0  0  0  0  0  0  0
  -19.5617   21.6575  -24.6796 C   0  0  0  0  0  0  0  0  0  0  0  0
  -19.0271   22.3968  -25.8206 C   0  0  0  0  0  0  0  0  0  0  0  0
  -18.1094   23.4535  -25.6551 N   0  0  0  0  0  0  0  0  0  0  0  0
  -19.3742   22.1092  -26.9906 O   0  0  0  0  0  0  0  0  0  0  0  0
  -17.2415   23.5125  -26.2182 H   0  0  0  0  0  0  0  0  0  0  0  0
  -18.2888   24.2029  -24.9549 H   0  0  0  0  0  0  0  0  0  0  0  0
  -22.4723   18.0244  -24.1180 C   0  0  0  0  0  0  0  0  0  0  0  0
  -23.6471   18.2982  -26.3562 C   0  0  0  0  0  0  0  0  0  0  0  0
  -23.0235   18.9156  -25.1672 C   0  0  0  0  0  0  0  0  0  0  0  0
  -24.0787   19.8404  -24.5161 C   0  0  0  0  0  0  0  0  0  0  0  0
 63 64  1  0  0  0
 64 65  1  0  0  0
 64 62  1  0  0  0
 62 34  1  0  0  0
 34 35  1  0  0  0
 35 36  1  0  0  0
 36 37  2  0  0  0
 36 39  1  0  0  0
 39 55  1  0  0  0
 55 56  1  0  0  0
 56 57  1  0  0  0
 57 58  1  0  0  0
 57 59  2  0  0  0
 39 40  1  0  0  0
 40 41  1  0  0  0
 41 42  2  0  0  0
 41 44  1  0  0  0
 44 45  1  0  0  0
 44 48  1  0  0  0
 48 49  1  0  0  0
 49 50  2  0  0  0
 50 51  1  0  0  0
 51 52  2  0  0  0
 52 53  1  0  0  0
 53 54  2  0  0  0
 34  1  1  0  0  0
  1  2  2  0  0  0
  1  3  1  0  0  0
  3  5  1  0  0  0
  5 23  1  0  0  0
 23 24  1  0  0  0
 24 25  1  0  0  0
 25 26  1  0  0  0
 26 28  1  0  0  0
 28 29  1  0  0  0
 28 30  2  0  0  0
  5  6  1  0  0  0
  6  7  2  0  0  0
  6  8  1  0  0  0
  8 10  1  0  0  0
 10 16  1  0  0  0
 16 17  1  0  0  0
 17 18  2  0  0  0
 18 19  1  0  0  0
 19 20  2  0  0  0
 20 21  1  0  0  0
 21 22  2  0  0  0
 10 11  1  0  0  0
 11 12  1  0  0  0
 11 13  2  0  0  0
 54 49  1  0  0  0
 22 17  1  0  0  0
 35 38  1  0  0  0
 58 60  1  0  0  0
 58 61  1  0  0  0
 40 43  1  0  0  0
 45 46  1  0  0  0
 45 47  1  0  0  0
  3  4  1  0  0  0
 26 27  1  0  0  0
 29 31  1  0  0  0
 29 32  1  0  0  0
 30 33  1  0  0  0
  8  9  1  0  0  0
 12 14  1  0  0  0
 12 15  1  0  0  0
M  END
> <minimizedAffinity>
-7.67866

> <CNNscore>
0.4004727900

> <CNNaffinity>
6.8964920044

> <CNN_VS>
2.7618575096

> <CNNaffinity_variance>
1.4387626648

$$$$
[H]N=C(N([H])[H])N([H])C([H])([H])C([H])([H])C([H])([H])[C@@]([H])(C(=O)N([H])[C@]([H])(C(=O)N([H])[H])C([H])([H])c1c([H])c([H])c([H])c([H])c1[H])N([H])C(=O)[C@@]([H])(N([H])C(=O)[C@@]([H])(N([H])C(=O)[C@@]([H])(N([H])[H])C([H])([H])c1c([H])c([H])c([H])c([H])c1[H])C([H])([H])C([H])([H])C(=O)N([H])[H])C([H])([H])C([H])(C([H])([H])[H])C([H])([H])[H]


 65 66  0  0  0  0  0  0  0  0999 V2000
  -20.4737   15.7194  -18.5369 C   0  0  0  0  0  0  0  0  0  0  0  0
  -21.5156   15.3504  -19.1226 O   0  0  0  0  0  0  0  0  0  0  0  0
  -19.4804   14.8409  -18.0653 N   0  0  0  0  0  0  0  0  0  0  0  0
  -18.6396   15.3056  -17.5620 H   0  0  0  0  0  0  0  0  0  0  0  0
  -19.4059   13.4272  -18.1370 C   0  0  0  0  0  0  0  0  0  0  0  0
  -19.0378   12.8579  -19.4523 C   0  0  0  0  0  0  0  0  0  0  0  0
  -19.8092   12.9159  -20.4181 O   0  0  0  0  0  0  0  0  0  0  0  0
  -17.7882   12.2208  -19.6626 N   0  0  0  0  0  0  0  0  0  0  0  0
  -17.0693   12.1266  -18.9213 H   0  0  0  0  0  0  0  0  0  0  0  0
  -17.4315   11.6482  -20.9699 C   0  0  0  0  0  0  0  0  0  0  0  0
  -16.5413   10.5171  -20.7136 C   0  0  0  0  0  0  0  0  0  0  0  0
  -15.3879   10.2358  -21.4664 N   0  0  0  0  0  0  0  0  0  0  0  0
  -16.8078    9.7231  -19.7599 O   0  0  0  0  0  0  0  0  0  0  0  0
  -15.4053   10.2999  -22.5041 H   0  0  0  0  0  0  0  0  0  0  0  0
  -14.4905    9.9574  -21.0172 H   0  0  0  0  0  0  0  0  0  0  0  0
  -16.7236   12.7668  -21.6896 C   0  0  0  0  0  0  0  0  0  0  0  0
  -17.1987   13.1029  -23.0152 C   0  0  0  0  0  0  0  0  0  0  0  0
  -16.7841   12.4148  -24.1300 C   0  0  0  0  0  0  0  0  0  0  0  0
  -17.2504   12.7383  -25.4091 C   0  0  0  0  0  0  0  0  0  0  0  0
  -18.1499   13.7734  -25.5636 C   0  0  0  0  0  0  0  0  0  0  0  0
  -18.5819   14.4793  -24.4633 C   0  0  0  0  0  0  0  0  0  0  0  0
  -18.1030   14.1382  -23.2014 C   0  0  0  0  0  0  0  0  0  0  0  0
  -20.5518   12.7233  -17.4604 C   0  0  0  0  0  0  0  0  0  0  0  0
  -19.9544   11.9011  -16.3358 C   0  0  0  0  0  0  0  0  0  0  0  0
  -20.4903   10.5044  -16.2963 C   0  0  0  0  0  0  0  0  0  0  0  0
  -19.6199    9.7049  -15.4570 N   0  0  0  0  0  0  0  0  0  0  0  0
  -19.5478    9.8785  -14.4311 H   0  0  0  0  0  0  0  0  0  0  0  0
  -18.8303    8.6546  -15.9896 C   0  0  0  0  0  0  0  0  0  0  0  0
  -18.9541    7.3476  -15.4693 N   0  0  0  0  0  0  0  0  0  0  0  0
  -18.0113    8.9169  -16.9421 N   0  0  0  0  0  0  0  0  0  0  0  0
  -19.8910    6.9211  -15.3332 H   0  0  0  0  0  0  0  0  0  0  0  0
  -18.0989    6.8096  -15.2215 H   0  0  0  0  0  0  0  0  0  0  0  0
  -17.9136    9.8784  -17.3310 H   0  0  0  0  0  0  0  0  0  0  0  0
  -20.3276   17.1822  -18.3599 C   0  0  0  0  0  0  0  0  0  0  0  0
  -20.1004   17.8984  -19.5986 N   0  0  0  0  0  0  0  0  0  0  0  0
  -21.1244   18.2680  -20.4875 C   0  0  0  0  0  0  0  0  0  0  0  0
  -22.3067   17.9394  -20.1860 O   0  0  0  0  0  0  0  0  0  0  0  0
  -19.1144   18.1333  -19.8289 H   0  0  0  0  0  0  0  0  0  0  0  0
  -20.8716   19.0112  -21.7381 C   0  0  0  0  0  0  0  0  0  0  0  0
  -19.9793   18.1318  -22.5326 N   0  0  0  0  0  0  0  0  0  0  0  0
  -18.7016   18.6053  -22.9187 C   0  0  0  0  0  0  0  0  0  0  0  0
  -18.3280   19.7716  -22.5936 O   0  0  0  0  0  0  0  0  0  0  0  0
  -20.2832   17.1791  -22.8052 H   0  0  0  0  0  0  0  0  0  0  0  0
  -17.7825   17.7615  -23.7009 C   0  0  0  0  0  0  0  0  0  0  0  0
  -17.2662   18.5092  -24.8626 N   0  0  0  0  0  0  0  0  0  0  0  0
  -17.9386   18.3606  -25.6689 H   0  0  0  0  0  0  0  0  0  0  0  0
  -17.1855   19.5270  -24.6553 H   0  0  0  0  0  0  0  0  0  0  0  0
  -16.5515   17.3830  -22.8570 C   0  0  0  0  0  0  0  0  0  0  0  0
  -15.6945   16.5174  -23.6960 C   0  0  0  0  0  0  0  0  0  0  0  0
  -14.9140   15.5639  -23.0821 C   0  0  0  0  0  0  0  0  0  0  0  0
  -14.0875   14.7216  -23.8376 C   0  0  0  0  0  0  0  0  0  0  0  0
  -14.0541   14.8479  -25.2167 C   0  0  0  0  0  0  0  0  0  0  0  0
  -14.8326   15.7988  -25.8341 C   0  0  0  0  0  0  0  0  0  0  0  0
  -15.6493   16.6275  -25.0552 C   0  0  0  0  0  0  0  0  0  0  0  0
  -22.1810   19.1549  -22.4924 C   0  0  0  0  0  0  0  0  0  0  0  0
  -22.8022   20.4963  -22.4523 C   0  0  0  0  0  0  0  0  0  0  0  0
  -23.2271   21.0623  -23.7304 C   0  0  0  0  0  0  0  0  0  0  0  0
  -22.4464   20.9294  -24.8962 N   0  0  0  0  0  0  0  0  0  0  0  0
  -24.3088   21.6891  -23.8262 O   0  0  0  0  0  0  0  0  0  0  0  0
  -22.8602   20.6214  -25.7950 H   0  0  0  0  0  0  0  0  0  0  0  0
  -21.4270   21.1403  -24.8751 H   0  0  0  0  0  0  0  0  0  0  0  0
  -21.3766   17.8564  -17.5528 C   0  0  0  0  0  0  0  0  0  0  0  0
  -21.6252   19.1492  -15.3777 C   0  0  0  0  0  0  0  0  0  0  0  0
  -20.8208   18.8206  -16.5729 C   0  0  0  0  0  0  0  0  0  0  0  0
  -19.4558   18.2839  -16.0816 C   0  0  0  0  0  0  0  0  0  0  0  0
 63 64  1  0  0  0
 64 65  1  0  0  0
 64 62  1  0  0  0
 62 34  1  0  0  0
 34 35  1  0  0  0
 35 36  1  0  0  0
 36 37  2  0  0  0
 36 39  1  0  0  0
 39 55  1  0  0  0
 55 56  1  0  0  0
 56 57  1  0  0  0
 57 58  1  0  0  0
 57 59  2  0  0  0
 39 40  1  0  0  0
 40 41  1  0  0  0
 41 42  2  0  0  0
 41 44  1  0  0  0
 44 45  1  0  0  0
 44 48  1  0  0  0
 48 49  1  0  0  0
 49 50  2  0  0  0
 50 51  1  0  0  0
 51 52  2  0  0  0
 52 53  1  0  0  0
 53 54  2  0  0  0
 34  1  1  0  0  0
  1  2  2  0  0  0
  1  3  1  0  0  0
  3  5  1  0  0  0
  5 23  1  0  0  0
 23 24  1  0  0  0
 24 25  1  0  0  0
 25 26  1  0  0  0
 26 28  1  0  0  0
 28 29  1  0  0  0
 28 30  2  0  0  0
  5  6  1  0  0  0
  6  7  2  0  0  0
  6  8  1  0  0  0
  8 10  1  0  0  0
 10 16  1  0  0  0
 16 17  1  0  0  0
 17 18  2  0  0  0
 18 19  1  0  0  0
 19 20  2  0  0  0
 20 21  1  0  0  0
 21 22  2  0  0  0
 10 11  1  0  0  0
 11 12  1  0  0  0
 11 13  2  0  0  0
 54 49  1  0  0  0
 22 17  1  0  0  0
 35 38  1  0  0  0
 58 60  1  0  0  0
 58 61  1  0  0  0
 40 43  1  0  0  0
 45 46  1  0  0  0
 45 47  1  0  0  0
  3  4  1  0  0  0
 26 27  1  0  0  0
 29 31  1  0  0  0
 29 32  1  0  0  0
 30 33  1  0  0  0
  8  9  1  0  0  0
 12 14  1  0  0  0
 12 15  1  0  0  0
M  END
> <minimizedAffinity>
-7.32674

> <CNNscore>
0.3896748126

> <CNNaffinity>
7.6005964279

> <CNN_VS>
2.9617609978

> <CNNaffinity_variance>
0.2276219577

$$$$
[H]N=C(N([H])[H])N([H])C([H])([H])C([H])([H])C([H])([H])[C@@]([H])(C(=O)N([H])[C@]([H])(C(=O)N([H])[H])C([H])([H])c1c([H])c([H])c([H])c([H])c1[H])N([H])C(=O)[C@@]([H])(N([H])C(=O)[C@@]([H])(N([H])C(=O)[C@@]([H])(N([H])[H])C([H])([H])c1c([H])c([H])c([H])c([H])c1[H])C([H])([H])C([H])([H])C(=O)N([H])[H])C([H])([H])C([H])(C([H])([H])[H])C([H])([H])[H]


 65 66  0  0  0  0  0  0  0  0999 V2000
  -17.5485   14.8889  -20.9662 C   0  0  0  0  0  0  0  0  0  0  0  0
  -16.6045   15.6806  -20.7497 O   0  0  0  0  0  0  0  0  0  0  0  0
  -18.1436   14.6968  -22.2271 N   0  0  0  0  0  0  0  0  0  0  0  0
  -18.9642   13.9884  -22.2587 H   0  0  0  0  0  0  0  0  0  0  0  0
  -17.8430   15.2943  -23.4769 C   0  0  0  0  0  0  0  0  0  0  0  0
  -18.3638   16.6630  -23.6892 C   0  0  0  0  0  0  0  0  0  0  0  0
  -17.8106   17.4490  -24.4686 O   0  0  0  0  0  0  0  0  0  0  0  0
  -19.5159   17.1334  -23.0088 N   0  0  0  0  0  0  0  0  0  0  0  0
  -20.0556   16.5518  -22.3412 H   0  0  0  0  0  0  0  0  0  0  0  0
  -20.0234   18.4984  -23.2167 C   0  0  0  0  0  0  0  0  0  0  0  0
  -19.4908   19.3231  -22.1334 C   0  0  0  0  0  0  0  0  0  0  0  0
  -18.5906   20.3863  -22.3219 N   0  0  0  0  0  0  0  0  0  0  0  0
  -19.8454   19.0809  -20.9389 O   0  0  0  0  0  0  0  0  0  0  0  0
  -17.7833   20.2868  -22.9697 H   0  0  0  0  0  0  0  0  0  0  0  0
  -18.6996   21.2957  -21.8262 H   0  0  0  0  0  0  0  0  0  0  0  0
  -21.5214   18.3595  -23.1310 C   0  0  0  0  0  0  0  0  0  0  0  0
  -22.2674   18.4902  -24.3648 C   0  0  0  0  0  0  0  0  0  0  0  0
  -22.3941   19.6962  -25.0111 C   0  0  0  0  0  0  0  0  0  0  0  0
  -23.1107   19.8177  -26.2069 C   0  0  0  0  0  0  0  0  0  0  0  0
  -23.7083   18.7025  -26.7581 C   0  0  0  0  0  0  0  0  0  0  0  0
  -23.5969   17.4817  -26.1311 C   0  0  0  0  0  0  0  0  0  0  0  0
  -22.8789   17.3871  -24.9422 C   0  0  0  0  0  0  0  0  0  0  0  0
  -18.0346   14.3734  -24.6524 C   0  0  0  0  0  0  0  0  0  0  0  0
  -16.8669   13.4070  -24.6428 C   0  0  0  0  0  0  0  0  0  0  0  0
  -15.5680   14.0767  -24.3205 C   0  0  0  0  0  0  0  0  0  0  0  0
  -14.9208   14.4409  -25.5655 N   0  0  0  0  0  0  0  0  0  0  0  0
  -14.3747   13.7434  -26.1161 H   0  0  0  0  0  0  0  0  0  0  0  0
  -15.0004   15.7557  -26.0898 C   0  0  0  0  0  0  0  0  0  0  0  0
  -15.1248   15.9517  -27.4828 N   0  0  0  0  0  0  0  0  0  0  0  0
  -14.9564   16.7497  -25.2793 N   0  0  0  0  0  0  0  0  0  0  0  0
  -15.8244   15.4140  -28.0302 H   0  0  0  0  0  0  0  0  0  0  0  0
  -14.5101   16.6406  -27.9621 H   0  0  0  0  0  0  0  0  0  0  0  0
  -14.8642   16.6137  -24.2505 H   0  0  0  0  0  0  0  0  0  0  0  0
  -18.0262   14.1309  -19.7874 C   0  0  0  0  0  0  0  0  0  0  0  0
  -19.0328   14.8303  -19.0148 N   0  0  0  0  0  0  0  0  0  0  0  0
  -18.9511   15.0347  -17.6268 C   0  0  0  0  0  0  0  0  0  0  0  0
  -17.9439   14.5651  -17.0252 O   0  0  0  0  0  0  0  0  0  0  0  0
  -19.8600   15.1838  -19.5356 H   0  0  0  0  0  0  0  0  0  0  0  0
  -19.9820   15.7637  -16.8612 C   0  0  0  0  0  0  0  0  0  0  0  0
  -20.5674   14.7523  -15.9475 N   0  0  0  0  0  0  0  0  0  0  0  0
  -21.9290   14.8596  -15.5731 C   0  0  0  0  0  0  0  0  0  0  0  0
  -22.6377   15.8149  -16.0101 O   0  0  0  0  0  0  0  0  0  0  0  0
  -19.9897   13.9724  -15.5835 H   0  0  0  0  0  0  0  0  0  0  0  0
  -22.5506   13.8725  -14.6745 C   0  0  0  0  0  0  0  0  0  0  0  0
  -24.0119   13.8499  -14.8728 N   0  0  0  0  0  0  0  0  0  0  0  0
  -24.4386   14.5707  -14.2226 H   0  0  0  0  0  0  0  0  0  0  0  0
  -24.2660   14.0718  -15.8586 H   0  0  0  0  0  0  0  0  0  0  0  0
  -22.0537   12.4540  -15.0092 C   0  0  0  0  0  0  0  0  0  0  0  0
  -21.3779   11.9303  -13.8022 C   0  0  0  0  0  0  0  0  0  0  0  0
  -20.1751   11.2768  -13.9480 C   0  0  0  0  0  0  0  0  0  0  0  0
  -19.4995   10.7652  -12.8322 C   0  0  0  0  0  0  0  0  0  0  0  0
  -20.0458   10.9177  -11.5683 C   0  0  0  0  0  0  0  0  0  0  0  0
  -21.2470   11.5703  -11.4181 C   0  0  0  0  0  0  0  0  0  0  0  0
  -21.9010   12.0718  -12.5500 C   0  0  0  0  0  0  0  0  0  0  0  0
  -19.3011   16.8230  -16.0136 C   0  0  0  0  0  0  0  0  0  0  0  0
  -19.8849   18.1796  -16.0884 C   0  0  0  0  0  0  0  0  0  0  0  0
  -19.9896   18.7778  -17.4172 C   0  0  0  0  0  0  0  0  0  0  0  0
  -18.8498   19.1870  -18.1379 N   0  0  0  0  0  0  0  0  0  0  0  0
  -21.1082   18.9461  -17.9582 O   0  0  0  0  0  0  0  0  0  0  0  0
  -18.7128   18.9265  -19.1316 H   0  0  0  0  0  0  0  0  0  0  0  0
  -18.1152   19.7649  -17.6792 H   0  0  0  0  0  0  0  0  0  0  0  0
  -18.4395   12.7252  -20.0311 C   0  0  0  0  0  0  0  0  0  0  0  0
  -18.5950   11.0559  -18.1196 C   0  0  0  0  0  0  0  0  0  0  0  0
  -17.7715   11.7613  -19.1236 C   0  0  0  0  0  0  0  0  0  0  0  0
  -17.0685   10.6869  -19.9862 C   0  0  0  0  0  0  0  0  0  0  0  0
 63 64  1  0  0  0
 64 65  1  0  0  0
 64 62  1  0  0  0
 62 34  1  0  0  0
 34 35  1  0  0  0
 35 36  1  0  0  0
 36 37  2  0  0  0
 36 39  1  0  0  0
 39 55  1  0  0  0
 55 56  1  0  0  0
 56 57  1  0  0  0
 57 58  1  0  0  0
 57 59  2  0  0  0
 39 40  1  0  0  0
 40 41  1  0  0  0
 41 42  2  0  0  0
 41 44  1  0  0  0
 44 45  1  0  0  0
 44 48  1  0  0  0
 48 49  1  0  0  0
 49 50  2  0  0  0
 50 51  1  0  0  0
 51 52  2  0  0  0
 52 53  1  0  0  0
 53 54  2  0  0  0
 34  1  1  0  0  0
  1  2  2  0  0  0
  1  3  1  0  0  0
  3  5  1  0  0  0
  5 23  1  0  0  0
 23 24  1  0  0  0
 24 25  1  0  0  0
 25 26  1  0  0  0
 26 28  1  0  0  0
 28 29  1  0  0  0
 28 30  2  0  0  0
  5  6  1  0  0  0
  6  7  2  0  0  0
  6  8  1  0  0  0
  8 10  1  0  0  0
 10 16  1  0  0  0
 16 17  1  0  0  0
 17 18  2  0  0  0
 18 19  1  0  0  0
 19 20  2  0  0  0
 20 21  1  0  0  0
 21 22  2  0  0  0
 10 11  1  0  0  0
 11 12  1  0  0  0
 11 13  2  0  0  0
 54 49  1  0  0  0
 22 17  1  0  0  0
 35 38  1  0  0  0
 58 60  1  0  0  0
 58 61  1  0  0  0
 40 43  1  0  0  0
 45 46  1  0  0  0
 45 47  1  0  0  0
  3  4  1  0  0  0
 26 27  1  0  0  0
 29 31  1  0  0  0
 29 32  1  0  0  0
 30 33  1  0  0  0
  8  9  1  0  0  0
 12 14  1  0  0  0
 12 15  1  0  0  0
M  END
> <minimizedAffinity>
-8.07536

> <CNNscore>
0.2965658307

> <CNNaffinity>
7.2239685059

> <CNN_VS>
2.1423821449

> <CNNaffinity_variance>
0.6565586329

$$$$
[H]N=C(N([H])[H])N([H])C([H])([H])C([H])([H])C([H])([H])[C@@]([H])(C(=O)N([H])[C@]([H])(C(=O)N([H])[H])C([H])([H])c1c([H])c([H])c([H])c([H])c1[H])N([H])C(=O)[C@@]([H])(N([H])C(=O)[C@@]([H])(N([H])C(=O)[C@@]([H])(N([H])[H])C([H])([H])c1c([H])c([H])c([H])c([H])c1[H])C([H])([H])C([H])([H])C(=O)N([H])[H])C([H])([H])C([H])(C([H])([H])[H])C([H])([H])[H]


 65 66  0  0  0  0  0  0  0  0999 V2000
  -20.0952   15.5297  -17.4922 C   0  0  0  0  0  0  0  0  0  0  0  0
  -20.4865   15.6346  -16.3087 O   0  0  0  0  0  0  0  0  0  0  0  0
  -20.0757   16.5932  -18.4139 N   0  0  0  0  0  0  0  0  0  0  0  0
  -19.7249   16.3478  -19.4104 H   0  0  0  0  0  0  0  0  0  0  0  0
  -20.4532   17.9494  -18.2481 C   0  0  0  0  0  0  0  0  0  0  0  0
  -21.2978   18.5281  -19.3163 C   0  0  0  0  0  0  0  0  0  0  0  0
  -21.8742   19.6127  -19.1653 O   0  0  0  0  0  0  0  0  0  0  0  0
  -21.4849   17.8658  -20.5564 N   0  0  0  0  0  0  0  0  0  0  0  0
  -21.0407   16.9571  -20.7851 H   0  0  0  0  0  0  0  0  0  0  0  0
  -22.3335   18.4415  -21.6112 C   0  0  0  0  0  0  0  0  0  0  0  0
  -23.7152   18.0871  -21.2904 C   0  0  0  0  0  0  0  0  0  0  0  0
  -24.5645   18.8716  -20.4907 N   0  0  0  0  0  0  0  0  0  0  0  0
  -24.1994   17.0065  -21.7475 O   0  0  0  0  0  0  0  0  0  0  0  0
  -24.2143   19.3011  -19.6109 H   0  0  0  0  0  0  0  0  0  0  0  0
  -25.5585   19.0461  -20.7481 H   0  0  0  0  0  0  0  0  0  0  0  0
  -21.8634   17.7743  -22.8778 C   0  0  0  0  0  0  0  0  0  0  0  0
  -22.4090   18.2677  -24.1247 C   0  0  0  0  0  0  0  0  0  0  0  0
  -22.2958   19.5864  -24.4941 C   0  0  0  0  0  0  0  0  0  0  0  0
  -22.8188   20.0585  -25.7031 C   0  0  0  0  0  0  0  0  0  0  0  0
  -23.4662   19.1839  -26.5520 C   0  0  0  0  0  0  0  0  0  0  0  0
  -23.5935   17.8573  -26.2063 C   0  0  0  0  0  0  0  0  0  0  0  0
  -23.0648   17.4123  -24.9979 C   0  0  0  0  0  0  0  0  0  0  0  0
  -19.3272   18.8432  -17.8013 C   0  0  0  0  0  0  0  0  0  0  0  0
  -19.7157   19.3851  -16.4401 C   0  0  0  0  0  0  0  0  0  0  0  0
  -19.2861   18.4903  -15.3201 C   0  0  0  0  0  0  0  0  0  0  0  0
  -20.4656   18.0854  -14.5810 N   0  0  0  0  0  0  0  0  0  0  0  0
  -21.1686   17.4365  -14.9964 H   0  0  0  0  0  0  0  0  0  0  0  0
  -20.7164   18.5505  -13.2654 C   0  0  0  0  0  0  0  0  0  0  0  0
  -21.8161   19.4011  -13.0172 N   0  0  0  0  0  0  0  0  0  0  0  0
  -19.9305   18.1855  -12.3188 N   0  0  0  0  0  0  0  0  0  0  0  0
  -22.7565   19.1695  -13.3915 H   0  0  0  0  0  0  0  0  0  0  0  0
  -21.6807   20.2656  -12.4547 H   0  0  0  0  0  0  0  0  0  0  0  0
  -19.1169   17.5587  -12.4937 H   0  0  0  0  0  0  0  0  0  0  0  0
  -19.6318   14.1814  -17.8919 C   0  0  0  0  0  0  0  0  0  0  0  0
  -18.8573   14.1717  -19.1163 N   0  0  0  0  0  0  0  0  0  0  0  0
  -19.2829   13.5565  -20.3061 C   0  0  0  0  0  0  0  0  0  0  0  0
  -20.4014   12.9686  -20.2923 O   0  0  0  0  0  0  0  0  0  0  0  0
  -17.9316   14.6437  -19.0879 H   0  0  0  0  0  0  0  0  0  0  0  0
  -18.4834   13.5715  -21.5474 C   0  0  0  0  0  0  0  0  0  0  0  0
  -18.0805   14.9880  -21.7264 N   0  0  0  0  0  0  0  0  0  0  0  0
  -18.1789   15.5815  -23.0085 C   0  0  0  0  0  0  0  0  0  0  0  0
  -18.6011   14.9059  -23.9939 O   0  0  0  0  0  0  0  0  0  0  0  0
  -17.7296   15.5425  -20.9241 H   0  0  0  0  0  0  0  0  0  0  0  0
  -17.7967   16.9867  -23.2272 C   0  0  0  0  0  0  0  0  0  0  0  0
  -18.5409   17.8677  -22.3079 N   0  0  0  0  0  0  0  0  0  0  0  0
  -19.4492   18.1390  -22.7828 H   0  0  0  0  0  0  0  0  0  0  0  0
  -18.7455   17.3901  -21.4048 H   0  0  0  0  0  0  0  0  0  0  0  0
  -16.3060   17.1944  -22.9025 C   0  0  0  0  0  0  0  0  0  0  0  0
  -15.5335   16.3214  -23.8130 C   0  0  0  0  0  0  0  0  0  0  0  0
  -15.4082   16.6883  -25.1339 C   0  0  0  0  0  0  0  0  0  0  0  0
  -14.6849   15.8920  -26.0317 C   0  0  0  0  0  0  0  0  0  0  0  0
  -14.0887   14.7231  -25.5874 C   0  0  0  0  0  0  0  0  0  0  0  0
  -14.2110   14.3531  -24.2685 C   0  0  0  0  0  0  0  0  0  0  0  0
  -14.9395   15.1672  -23.3927 C   0  0  0  0  0  0  0  0  0  0  0  0
  -17.2258   12.7507  -21.3267 C   0  0  0  0  0  0  0  0  0  0  0  0
  -17.4385   11.3302  -20.9748 C   0  0  0  0  0  0  0  0  0  0  0  0
  -16.3051   10.6225  -20.3840 C   0  0  0  0  0  0  0  0  0  0  0  0
  -16.0274   10.6889  -19.0039 N   0  0  0  0  0  0  0  0  0  0  0  0
  -15.5398    9.9301  -21.0961 O   0  0  0  0  0  0  0  0  0  0  0  0
  -15.8353    9.8364  -18.4468 H   0  0  0  0  0  0  0  0  0  0  0  0
  -16.0108   11.6068  -18.5129 H   0  0  0  0  0  0  0  0  0  0  0  0
  -18.9556   13.3786  -16.8409 C   0  0  0  0  0  0  0  0  0  0  0  0
  -21.1580   12.1643  -16.4679 C   0  0  0  0  0  0  0  0  0  0  0  0
  -19.6814   12.1278  -16.5132 C   0  0  0  0  0  0  0  0  0  0  0  0
  -19.2744   11.0449  -17.5400 C   0  0  0  0  0  0  0  0  0  0  0  0
 63 64  1  0  0  0
 64 65  1  0  0  0
 64 62  1  0  0  0
 62 34  1  0  0  0
 34 35  1  0  0  0
 35 36  1  0  0  0
 36 37  2  0  0  0
 36 39  1  0  0  0
 39 55  1  0  0  0
 55 56  1  0  0  0
 56 57  1  0  0  0
 57 58  1  0  0  0
 57 59  2  0  0  0
 39 40  1  0  0  0
 40 41  1  0  0  0
 41 42  2  0  0  0
 41 44  1  0  0  0
 44 45  1  0  0  0
 44 48  1  0  0  0
 48 49  1  0  0  0
 49 50  2  0  0  0
 50 51  1  0  0  0
 51 52  2  0  0  0
 52 53  1  0  0  0
 53 54  2  0  0  0
 34  1  1  0  0  0
  1  2  2  0  0  0
  1  3  1  0  0  0
  3  5  1  0  0  0
  5 23  1  0  0  0
 23 24  1  0  0  0
 24 25  1  0  0  0
 25 26  1  0  0  0
 26 28  1  0  0  0
 28 29  1  0  0  0
 28 30  2  0  0  0
  5  6  1  0  0  0
  6  7  2  0  0  0
  6  8  1  0  0  0
  8 10  1  0  0  0
 10 16  1  0  0  0
 16 17  1  0  0  0
 17 18  2  0  0  0
 18 19  1  0  0  0
 19 20  2  0  0  0
 20 21  1  0  0  0
 21 22  2  0  0  0
 10 11  1  0  0  0
 11 12  1  0  0  0
 11 13  2  0  0  0
 54 49  1  0  0  0
 22 17  1  0  0  0
 35 38  1  0  0  0
 58 60  1  0  0  0
 58 61  1  0  0  0
 40 43  1  0  0  0
 45 46  1  0  0  0
 45 47  1  0  0  0
  3  4  1  0  0  0
 26 27  1  0  0  0
 29 31  1  0  0  0
 29 32  1  0  0  0
 30 33  1  0  0  0
  8  9  1  0  0  0
 12 14  1  0  0  0
 12 15  1  0  0  0
M  END
> <minimizedAffinity>
-7.74747

> <CNNscore>
0.2310162485

> <CNNaffinity>
7.0040178299

> <CNN_VS>
1.6180418730

> <CNNaffinity_variance>
0.6664394140

$$$$
[H]N=C(N([H])[H])N([H])C([H])([H])C([H])([H])C([H])([H])[C@@]([H])(C(=O)N([H])[C@]([H])(C(=O)N([H])[H])C([H])([H])c1c([H])c([H])c([H])c([H])c1[H])N([H])C(=O)[C@@]([H])(N([H])C(=O)[C@@]([H])(N([H])C(=O)[C@@]([H])(N([H])[H])C([H])([H])c1c([H])c([H])c([H])c([H])c1[H])C([H])([H])C([H])([H])C(=O)N([H])[H])C([H])([H])C([H])(C([H])([H])[H])C([H])([H])[H]


 65 66  0  0  0  0  0  0  0  0999 V2000
  -18.5259   13.3076  -17.9190 C   0  0  0  0  0  0  0  0  0  0  0  0
  -17.7795   13.9215  -17.1248 O   0  0  0  0  0  0  0  0  0  0  0  0
  -19.9188   13.1858  -17.7582 N   0  0  0  0  0  0  0  0  0  0  0  0
  -20.4333   12.6097  -18.5196 H   0  0  0  0  0  0  0  0  0  0  0  0
  -20.7668   13.6959  -16.7432 C   0  0  0  0  0  0  0  0  0  0  0  0
  -21.2513   12.7183  -15.7438 C   0  0  0  0  0  0  0  0  0  0  0  0
  -20.6778   11.6354  -15.5712 O   0  0  0  0  0  0  0  0  0  0  0  0
  -22.3928   12.9780  -14.9430 N   0  0  0  0  0  0  0  0  0  0  0  0
  -22.9390   13.8573  -15.0049 H   0  0  0  0  0  0  0  0  0  0  0  0
  -22.8754   11.9982  -13.9576 C   0  0  0  0  0  0  0  0  0  0  0  0
  -24.2664   11.7004  -14.2956 C   0  0  0  0  0  0  0  0  0  0  0  0
  -24.6672   10.6248  -15.1071 N   0  0  0  0  0  0  0  0  0  0  0  0
  -25.1872   12.4479  -13.8433 O   0  0  0  0  0  0  0  0  0  0  0  0
  -24.1525   10.4029  -15.9829 H   0  0  0  0  0  0  0  0  0  0  0  0
  -25.4813   10.0231  -14.8626 H   0  0  0  0  0  0  0  0  0  0  0  0
  -22.7600   12.7084  -12.6338 C   0  0  0  0  0  0  0  0  0  0  0  0
  -21.8174   12.1693  -11.6762 C   0  0  0  0  0  0  0  0  0  0  0  0
  -21.7896   12.5925  -10.3692 C   0  0  0  0  0  0  0  0  0  0  0  0
  -20.8814   12.0646   -9.4447 C   0  0  0  0  0  0  0  0  0  0  0  0
  -19.9874   11.0935   -9.8479 C   0  0  0  0  0  0  0  0  0  0  0  0
  -19.9939   10.6513  -11.1517 C   0  0  0  0  0  0  0  0  0  0  0  0
  -20.9071   11.1925  -12.0523 C   0  0  0  0  0  0  0  0  0  0  0  0
  -21.8289   14.6332  -17.2530 C   0  0  0  0  0  0  0  0  0  0  0  0
  -21.1927   16.0063  -17.3390 C   0  0  0  0  0  0  0  0  0  0  0  0
  -20.3126   16.3074  -16.1668 C   0  0  0  0  0  0  0  0  0  0  0  0
  -21.1509   16.7347  -15.0641 N   0  0  0  0  0  0  0  0  0  0  0  0
  -22.0420   16.2416  -14.8388 H   0  0  0  0  0  0  0  0  0  0  0  0
  -20.7996   17.8370  -14.2447 C   0  0  0  0  0  0  0  0  0  0  0  0
  -19.5235   17.8874  -13.6418 N   0  0  0  0  0  0  0  0  0  0  0  0
  -21.6576   18.7744  -14.0659 N   0  0  0  0  0  0  0  0  0  0  0  0
  -18.6688   17.7001  -14.2009 H   0  0  0  0  0  0  0  0  0  0  0  0
  -19.4415   18.1144  -12.6299 H   0  0  0  0  0  0  0  0  0  0  0  0
  -22.6011   18.7444  -14.5066 H   0  0  0  0  0  0  0  0  0  0  0  0
  -17.8484   12.6944  -19.0840 C   0  0  0  0  0  0  0  0  0  0  0  0
  -17.4827   13.6472  -20.1123 N   0  0  0  0  0  0  0  0  0  0  0  0
  -18.4110   14.2876  -20.9510 C   0  0  0  0  0  0  0  0  0  0  0  0
  -19.6317   13.9979  -20.8003 O   0  0  0  0  0  0  0  0  0  0  0  0
  -16.4688   13.8461  -20.2264 H   0  0  0  0  0  0  0  0  0  0  0  0
  -18.0171   15.2672  -21.9833 C   0  0  0  0  0  0  0  0  0  0  0  0
  -18.7396   16.5124  -21.6252 N   0  0  0  0  0  0  0  0  0  0  0  0
  -19.5052   17.1796  -22.6123 C   0  0  0  0  0  0  0  0  0  0  0  0
  -19.5664   16.7198  -23.7915 O   0  0  0  0  0  0  0  0  0  0  0  0
  -18.6878   16.8948  -20.6632 H   0  0  0  0  0  0  0  0  0  0  0  0
  -20.2435   18.4139  -22.2962 C   0  0  0  0  0  0  0  0  0  0  0  0
  -19.5929   19.1271  -21.1812 N   0  0  0  0  0  0  0  0  0  0  0  0
  -20.0061   18.7601  -20.2763 H   0  0  0  0  0  0  0  0  0  0  0  0
  -18.5619   18.9772  -21.1831 H   0  0  0  0  0  0  0  0  0  0  0  0
  -20.2129   19.3797  -23.4950 C   0  0  0  0  0  0  0  0  0  0  0  0
  -21.5898   19.4582  -24.0296 C   0  0  0  0  0  0  0  0  0  0  0  0
  -21.8860   20.4333  -24.9552 C   0  0  0  0  0  0  0  0  0  0  0  0
  -23.1767   20.5441  -25.4890 C   0  0  0  0  0  0  0  0  0  0  0  0
  -24.1666   19.6643  -25.0824 C   0  0  0  0  0  0  0  0  0  0  0  0
  -23.8749   18.6884  -24.1583 C   0  0  0  0  0  0  0  0  0  0  0  0
  -22.5768   18.6000  -23.6410 C   0  0  0  0  0  0  0  0  0  0  0  0
  -16.5285   15.5360  -21.8567 C   0  0  0  0  0  0  0  0  0  0  0  0
  -16.0391   16.7664  -22.5150 C   0  0  0  0  0  0  0  0  0  0  0  0
  -15.7973   16.6905  -23.9539 C   0  0  0  0  0  0  0  0  0  0  0  0
  -14.7397   15.9278  -24.4886 N   0  0  0  0  0  0  0  0  0  0  0  0
  -16.5311   17.3088  -24.7609 O   0  0  0  0  0  0  0  0  0  0  0  0
  -14.8871   15.2730  -25.2782 H   0  0  0  0  0  0  0  0  0  0  0  0
  -13.7793   16.0088  -24.0947 H   0  0  0  0  0  0  0  0  0  0  0  0
  -16.7095   11.7896  -18.7828 C   0  0  0  0  0  0  0  0  0  0  0  0
  -18.2691    9.8403  -18.3008 C   0  0  0  0  0  0  0  0  0  0  0  0
  -17.0491   10.3566  -18.9556 C   0  0  0  0  0  0  0  0  0  0  0  0
  -17.1749   10.0647  -20.4694 C   0  0  0  0  0  0  0  0  0  0  0  0
 63 64  1  0  0  0
 64 65  1  0  0  0
 64 62  1  0  0  0
 62 34  1  0  0  0
 34 35  1  0  0  0
 35 36  1  0  0  0
 36 37  2  0  0  0
 36 39  1  0  0  0
 39 55  1  0  0  0
 55 56  1  0  0  0
 56 57  1  0  0  0
 57 58  1  0  0  0
 57 59  2  0  0  0
 39 40  1  0  0  0
 40 41  1  0  0  0
 41 42  2  0  0  0
 41 44  1  0  0  0
 44 45  1  0  0  0
 44 48  1  0  0  0
 48 49  1  0  0  0
 49 50  2  0  0  0
 50 51  1  0  0  0
 51 52  2  0  0  0
 52 53  1  0  0  0
 53 54  2  0  0  0
 34  1  1  0  0  0
  1  2  2  0  0  0
  1  3  1  0  0  0
  3  5  1  0  0  0
  5 23  1  0  0  0
 23 24  1  0  0  0
 24 25  1  0  0  0
 25 26  1  0  0  0
 26 28  1  0  0  0
 28 29  1  0  0  0
 28 30  2  0  0  0
  5  6  1  0  0  0
  6  7  2  0  0  0
  6  8  1  0  0  0
  8 10  1  0  0  0
 10 16  1  0  0  0
 16 17  1  0  0  0
 17 18  2  0  0  0
 18 19  1  0  0  0
 19 20  2  0  0  0
 20 21  1  0  0  0
 21 22  2  0  0  0
 10 11  1  0  0  0
 11 12  1  0  0  0
 11 13  2  0  0  0
 54 49  1  0  0  0
 22 17  1  0  0  0
 35 38  1  0  0  0
 58 60  1  0  0  0
 58 61  1  0  0  0
 40 43  1  0  0  0
 45 46  1  0  0  0
 45 47  1  0  0  0
  3  4  1  0  0  0
 26 27  1  0  0  0
 29 31  1  0  0  0
 29 32  1  0  0  0
 30 33  1  0  0  0
  8  9  1  0  0  0
 12 14  1  0  0  0
 12 15  1  0  0  0
M  END
> <minimizedAffinity>
-6.99017

> <CNNscore>
0.1747049838

> <CNNaffinity>
6.5861067772

> <CNN_VS>
1.1506257057

> <CNNaffinity_variance>
0.3339633644

$$$$
[H]N=C(N([H])[H])N([H])C([H])([H])C([H])([H])C([H])([H])[C@@]([H])(C(=O)N([H])[C@]([H])(C(=O)N([H])[H])C([H])([H])c1c([H])c([H])c([H])c([H])c1[H])N([H])C(=O)[C@@]([H])(N([H])C(=O)[C@@]([H])(N([H])C(=O)[C@@]([H])(N([H])[H])C([H])([H])c1c([H])c([H])c([H])c([H])c1[H])C([H])([H])C([H])([H])C(=O)N([H])[H])C([H])([H])C([H])(C([H])([H])[H])C([H])([H])[H]


 65 66  0  0  0  0  0  0  0  0999 V2000
  -19.1636   16.9802  -18.2711 C   0  0  0  0  0  0  0  0  0  0  0  0
  -18.8671   17.7450  -17.3267 O   0  0  0  0  0  0  0  0  0  0  0  0
  -18.8767   17.2476  -19.6228 N   0  0  0  0  0  0  0  0  0  0  0  0
  -19.2092   16.4985  -20.3331 H   0  0  0  0  0  0  0  0  0  0  0  0
  -18.2209   18.3573  -20.2126 C   0  0  0  0  0  0  0  0  0  0  0  0
  -18.9862   19.0992  -21.2389 C   0  0  0  0  0  0  0  0  0  0  0  0
  -18.4760   19.4120  -22.3221 O   0  0  0  0  0  0  0  0  0  0  0  0
  -20.3343   19.4849  -21.0260 N   0  0  0  0  0  0  0  0  0  0  0  0
  -20.8551   19.2651  -20.1566 H   0  0  0  0  0  0  0  0  0  0  0  0
  -21.0873   20.2306  -22.0462 C   0  0  0  0  0  0  0  0  0  0  0  0
  -21.2320   21.6004  -21.5559 C   0  0  0  0  0  0  0  0  0  0  0  0
  -20.9623   21.9969  -20.2345 N   0  0  0  0  0  0  0  0  0  0  0  0
  -21.6283   22.5049  -22.3534 O   0  0  0  0  0  0  0  0  0  0  0  0
  -21.2834   21.4177  -19.4328 H   0  0  0  0  0  0  0  0  0  0  0  0
  -20.4401   22.8714  -20.0168 H   0  0  0  0  0  0  0  0  0  0  0  0
  -22.4142   19.5213  -22.1274 C   0  0  0  0  0  0  0  0  0  0  0  0
  -22.9024   19.1848  -23.4481 C   0  0  0  0  0  0  0  0  0  0  0  0
  -22.6476   17.9645  -24.0260 C   0  0  0  0  0  0  0  0  0  0  0  0
  -23.1265   17.6402  -25.3003 C   0  0  0  0  0  0  0  0  0  0  0  0
  -23.8748   18.5641  -26.0012 C   0  0  0  0  0  0  0  0  0  0  0  0
  -24.1449   19.7945  -25.4454 C   0  0  0  0  0  0  0  0  0  0  0  0
  -23.6569   20.0930  -24.1763 C   0  0  0  0  0  0  0  0  0  0  0  0
  -16.7883   18.0871  -20.5884 C   0  0  0  0  0  0  0  0  0  0  0  0
  -16.6245   16.5806  -20.6237 C   0  0  0  0  0  0  0  0  0  0  0  0
  -16.2896   16.0697  -21.9898 C   0  0  0  0  0  0  0  0  0  0  0  0
  -16.2561   17.1953  -22.9027 N   0  0  0  0  0  0  0  0  0  0  0  0
  -15.5571   17.9615  -22.7921 H   0  0  0  0  0  0  0  0  0  0  0  0
  -17.1674   17.3057  -23.9831 C   0  0  0  0  0  0  0  0  0  0  0  0
  -18.3748   16.5735  -23.9632 N   0  0  0  0  0  0  0  0  0  0  0  0
  -16.8722   18.0756  -24.9665 N   0  0  0  0  0  0  0  0  0  0  0  0
  -18.9775   16.5741  -23.1177 H   0  0  0  0  0  0  0  0  0  0  0  0
  -18.6608   16.0304  -24.8031 H   0  0  0  0  0  0  0  0  0  0  0  0
  -15.9834   18.6186  -24.9891 H   0  0  0  0  0  0  0  0  0  0  0  0
  -19.8545   15.7292  -17.8838 C   0  0  0  0  0  0  0  0  0  0  0  0
  -19.1392   14.5278  -18.2635 N   0  0  0  0  0  0  0  0  0  0  0  0
  -19.3596   13.8333  -19.4653 C   0  0  0  0  0  0  0  0  0  0  0  0
  -20.2451   14.2833  -20.2464 O   0  0  0  0  0  0  0  0  0  0  0  0
  -18.4340   14.1704  -17.5887 H   0  0  0  0  0  0  0  0  0  0  0  0
  -18.6081   12.6184  -19.8391 C   0  0  0  0  0  0  0  0  0  0  0  0
  -17.6037   13.0788  -20.8291 N   0  0  0  0  0  0  0  0  0  0  0  0
  -17.1900   12.1995  -21.8594 C   0  0  0  0  0  0  0  0  0  0  0  0
  -17.6693   11.0286  -21.9298 O   0  0  0  0  0  0  0  0  0  0  0  0
  -17.2052   14.0339  -20.7718 H   0  0  0  0  0  0  0  0  0  0  0  0
  -16.2013   12.6199  -22.8663 C   0  0  0  0  0  0  0  0  0  0  0  0
  -15.1831   11.5692  -23.0523 N   0  0  0  0  0  0  0  0  0  0  0  0
  -14.4054   11.7438  -22.3529 H   0  0  0  0  0  0  0  0  0  0  0  0
  -15.5840   10.6194  -22.9022 H   0  0  0  0  0  0  0  0  0  0  0  0
  -16.8769   12.8053  -24.2375 C   0  0  0  0  0  0  0  0  0  0  0  0
  -16.0714   13.7890  -24.9934 C   0  0  0  0  0  0  0  0  0  0  0  0
  -16.5872   14.3121  -26.1576 C   0  0  0  0  0  0  0  0  0  0  0  0
  -15.8594   15.2472  -26.9054 C   0  0  0  0  0  0  0  0  0  0  0  0
  -14.6077   15.6509  -26.4702 C   0  0  0  0  0  0  0  0  0  0  0  0
  -14.0889   15.1312  -25.3075 C   0  0  0  0  0  0  0  0  0  0  0  0
  -14.8374   14.1982  -24.5796 C   0  0  0  0  0  0  0  0  0  0  0  0
  -17.8637   12.1110  -18.6174 C   0  0  0  0  0  0  0  0  0  0  0  0
  -17.8003   10.6412  -18.4676 C   0  0  0  0  0  0  0  0  0  0  0  0
  -18.6968   10.0416  -17.4821 C   0  0  0  0  0  0  0  0  0  0  0  0
  -19.8625   10.7006  -17.0427 N   0  0  0  0  0  0  0  0  0  0  0  0
  -18.4509    8.9129  -16.9946 O   0  0  0  0  0  0  0  0  0  0  0  0
  -20.7780   10.2165  -17.0029 H   0  0  0  0  0  0  0  0  0  0  0  0
  -19.8247   11.6981  -16.7471 H   0  0  0  0  0  0  0  0  0  0  0  0
  -20.3131   15.6390  -16.4739 C   0  0  0  0  0  0  0  0  0  0  0  0
  -22.0965   17.2814  -15.7079 C   0  0  0  0  0  0  0  0  0  0  0  0
  -21.7474   15.9780  -16.3103 C   0  0  0  0  0  0  0  0  0  0  0  0
  -22.4253   15.9111  -17.6991 C   0  0  0  0  0  0  0  0  0  0  0  0
 63 64  1  0  0  0
 64 65  1  0  0  0
 64 62  1  0  0  0
 62 34  1  0  0  0
 34 35  1  0  0  0
 35 36  1  0  0  0
 36 37  2  0  0  0
 36 39  1  0  0  0
 39 55  1  0  0  0
 55 56  1  0  0  0
 56 57  1  0  0  0
 57 58  1  0  0  0
 57 59  2  0  0  0
 39 40  1  0  0  0
 40 41  1  0  0  0
 41 42  2  0  0  0
 41 44  1  0  0  0
 44 45  1  0  0  0
 44 48  1  0  0  0
 48 49  1  0  0  0
 49 50  2  0  0  0
 50 51  1  0  0  0
 51 52  2  0  0  0
 52 53  1  0  0  0
 53 54  2  0  0  0
 34  1  1  0  0  0
  1  2  2  0  0  0
  1  3  1  0  0  0
  3  5  1  0  0  0
  5 23  1  0  0  0
 23 24  1  0  0  0
 24 25  1  0  0  0
 25 26  1  0  0  0
 26 28  1  0  0  0
 28 29  1  0  0  0
 28 30  2  0  0  0
  5  6  1  0  0  0
  6  7  2  0  0  0
  6  8  1  0  0  0
  8 10  1  0  0  0
 10 16  1  0  0  0
 16 17  1  0  0  0
 17 18  2  0  0  0
 18 19  1  0  0  0
 19 20  2  0  0  0
 20 21  1  0  0  0
 21 22  2  0  0  0
 10 11  1  0  0  0
 11 12  1  0  0  0
 11 13  2  0  0  0
 54 49  1  0  0  0
 22 17  1  0  0  0
 35 38  1  0  0  0
 58 60  1  0  0  0
 58 61  1  0  0  0
 40 43  1  0  0  0
 45 46  1  0  0  0
 45 47  1  0  0  0
  3  4  1  0  0  0
 26 27  1  0  0  0
 29 31  1  0  0  0
 29 32  1  0  0  0
 30 33  1  0  0  0
  8  9  1  0  0  0
 12 14  1  0  0  0
 12 15  1  0  0  0
M  END
> <minimizedAffinity>
-8.06967

> <CNNscore>
0.1730948240

> <CNNaffinity>
7.2438163757

> <CNN_VS>
1.2538671494

> <CNNaffinity_variance>
0.6580147743

$$$$
[H]N=C(N([H])[H])N([H])C([H])([H])C([H])([H])C([H])([H])[C@@]([H])(C(=O)N([H])[C@]([H])(C(=O)N([H])[H])C([H])([H])c1c([H])c([H])c([H])c([H])c1[H])N([H])C(=O)[C@@]([H])(N([H])C(=O)[C@@]([H])(N([H])C(=O)[C@@]([H])(N([H])[H])C([H])([H])c1c([H])c([H])c([H])c([H])c1[H])C([H])([H])C([H])([H])C(=O)N([H])[H])C([H])([H])C([H])(C([H])([H])[H])C([H])([H])[H]


 65 66  0  0  0  0  0  0  0  0999 V2000
  -18.6517   13.1609  -18.1478 C   0  0  0  0  0  0  0  0  0  0  0  0
  -17.9838   13.8362  -17.3339 O   0  0  0  0  0  0  0  0  0  0  0  0
  -20.0533   13.0385  -18.1087 N   0  0  0  0  0  0  0  0  0  0  0  0
  -20.4933   12.4052  -18.8712 H   0  0  0  0  0  0  0  0  0  0  0  0
  -20.9932   13.6120  -17.2158 C   0  0  0  0  0  0  0  0  0  0  0  0
  -20.9472   15.0842  -17.0752 C   0  0  0  0  0  0  0  0  0  0  0  0
  -21.8470   15.8031  -17.5279 O   0  0  0  0  0  0  0  0  0  0  0  0
  -19.8714   15.7346  -16.4185 N   0  0  0  0  0  0  0  0  0  0  0  0
  -19.0729   15.2235  -15.9984 H   0  0  0  0  0  0  0  0  0  0  0  0
  -19.8264   17.1994  -16.2900 C   0  0  0  0  0  0  0  0  0  0  0  0
  -20.8600   17.5769  -15.3273 C   0  0  0  0  0  0  0  0  0  0  0  0
  -21.3402   16.7294  -14.3138 N   0  0  0  0  0  0  0  0  0  0  0  0
  -21.3739   18.7357  -15.3931 O   0  0  0  0  0  0  0  0  0  0  0  0
  -21.5499   15.7309  -14.5150 H   0  0  0  0  0  0  0  0  0  0  0  0
  -21.5005   17.0677  -13.3420 H   0  0  0  0  0  0  0  0  0  0  0  0
  -20.1369   17.7078  -17.6740 C   0  0  0  0  0  0  0  0  0  0  0  0
  -19.0242   17.8498  -18.5893 C   0  0  0  0  0  0  0  0  0  0  0  0
  -18.1411   16.8230  -18.8218 C   0  0  0  0  0  0  0  0  0  0  0  0
  -17.0705   16.9616  -19.7121 C   0  0  0  0  0  0  0  0  0  0  0  0
  -16.8899   18.1569  -20.3780 C   0  0  0  0  0  0  0  0  0  0  0  0
  -17.7602   19.2020  -20.1636 C   0  0  0  0  0  0  0  0  0  0  0  0
  -18.8174   19.0391  -19.2727 C   0  0  0  0  0  0  0  0  0  0  0  0
  -21.1210   12.8724  -15.9108 C   0  0  0  0  0  0  0  0  0  0  0  0
  -21.1798   11.3965  -16.2510 C   0  0  0  0  0  0  0  0  0  0  0  0
  -20.3584   10.5585  -15.3223 C   0  0  0  0  0  0  0  0  0  0  0  0
  -20.6429    9.1633  -15.5938 N   0  0  0  0  0  0  0  0  0  0  0  0
  -21.5457    8.8688  -16.0253 H   0  0  0  0  0  0  0  0  0  0  0  0
  -19.7113    8.1395  -15.2872 C   0  0  0  0  0  0  0  0  0  0  0  0
  -20.0859    6.7843  -15.4193 N   0  0  0  0  0  0  0  0  0  0  0  0
  -18.5360    8.4695  -14.8913 N   0  0  0  0  0  0  0  0  0  0  0  0
  -20.5605    6.4503  -16.2802 H   0  0  0  0  0  0  0  0  0  0  0  0
  -19.8836    6.1173  -14.6470 H   0  0  0  0  0  0  0  0  0  0  0  0
  -18.2521    9.4668  -14.7907 H   0  0  0  0  0  0  0  0  0  0  0  0
  -17.8673   12.4723  -19.1980 C   0  0  0  0  0  0  0  0  0  0  0  0
  -17.5585   13.3116  -20.3379 N   0  0  0  0  0  0  0  0  0  0  0  0
  -17.7239   12.9080  -21.6740 C   0  0  0  0  0  0  0  0  0  0  0  0
  -18.1545   11.7383  -21.8820 O   0  0  0  0  0  0  0  0  0  0  0  0
  -17.1842   14.2594  -20.1331 H   0  0  0  0  0  0  0  0  0  0  0  0
  -17.4167   13.7856  -22.8210 C   0  0  0  0  0  0  0  0  0  0  0  0
  -17.8768   15.1335  -22.4060 N   0  0  0  0  0  0  0  0  0  0  0  0
  -18.4930   15.9811  -23.3588 C   0  0  0  0  0  0  0  0  0  0  0  0
  -18.6433   15.5929  -24.5556 O   0  0  0  0  0  0  0  0  0  0  0  0
  -17.7509   15.4569  -21.4293 H   0  0  0  0  0  0  0  0  0  0  0  0
  -18.9708   17.3231  -22.9861 C   0  0  0  0  0  0  0  0  0  0  0  0
  -18.1977   18.3570  -23.6993 N   0  0  0  0  0  0  0  0  0  0  0  0
  -17.3519   18.5963  -23.1062 H   0  0  0  0  0  0  0  0  0  0  0  0
  -17.8870   18.0221  -24.6357 H   0  0  0  0  0  0  0  0  0  0  0  0
  -20.4358   17.5114  -23.4210 C   0  0  0  0  0  0  0  0  0  0  0  0
  -21.1533   18.1324  -22.2864 C   0  0  0  0  0  0  0  0  0  0  0  0
  -21.7599   17.3149  -21.3595 C   0  0  0  0  0  0  0  0  0  0  0  0
  -22.4497   17.8597  -20.2684 C   0  0  0  0  0  0  0  0  0  0  0  0
  -22.5232   19.2350  -20.1189 C   0  0  0  0  0  0  0  0  0  0  0  0
  -21.9184   20.0553  -21.0422 C   0  0  0  0  0  0  0  0  0  0  0  0
  -21.2355   19.4845  -22.1231 C   0  0  0  0  0  0  0  0  0  0  0  0
  -15.9107   13.8398  -23.0030 C   0  0  0  0  0  0  0  0  0  0  0  0
  -15.4384   14.1072  -24.3786 C   0  0  0  0  0  0  0  0  0  0  0  0
  -14.8947   15.4378  -24.6400 C   0  0  0  0  0  0  0  0  0  0  0  0
  -13.9542   15.6662  -25.6645 N   0  0  0  0  0  0  0  0  0  0  0  0
  -15.2527   16.4232  -23.9523 O   0  0  0  0  0  0  0  0  0  0  0  0
  -14.0658   16.4434  -26.3409 H   0  0  0  0  0  0  0  0  0  0  0  0
  -13.1205   15.0503  -25.7620 H   0  0  0  0  0  0  0  0  0  0  0  0
  -16.6554   11.7433  -18.7440 C   0  0  0  0  0  0  0  0  0  0  0  0
  -18.1398    9.7218  -18.3259 C   0  0  0  0  0  0  0  0  0  0  0  0
  -16.8332   10.2711  -18.7440 C   0  0  0  0  0  0  0  0  0  0  0  0
  -16.5422    9.7452  -20.1693 C   0  0  0  0  0  0  0  0  0  0  0  0
 63 64  1  0  0  0
 64 65  1  0  0  0
 64 62  1  0  0  0
 62 34  1  0  0  0
 34 35  1  0  0  0
 35 36  1  0  0  0
 36 37  2  0  0  0
 36 39  1  0  0  0
 39 55  1  0  0  0
 55 56  1  0  0  0
 56 57  1  0  0  0
 57 58  1  0  0  0
 57 59  2  0  0  0
 39 40  1  0  0  0
 40 41  1  0  0  0
 41 42  2  0  0  0
 41 44  1  0  0  0
 44 45  1  0  0  0
 44 48  1  0  0  0
 48 49  1  0  0  0
 49 50  2  0  0  0
 50 51  1  0  0  0
 51 52  2  0  0  0
 52 53  1  0  0  0
 53 54  2  0  0  0
 34  1  1  0  0  0
  1  2  2  0  0  0
  1  3  1  0  0  0
  3  5  1  0  0  0
  5 23  1  0  0  0
 23 24  1  0  0  0
 24 25  1  0  0  0
 25 26  1  0  0  0
 26 28  1  0  0  0
 28 29  1  0  0  0
 28 30  2  0  0  0
  5  6  1  0  0  0
  6  7  2  0  0  0
  6  8  1  0  0  0
  8 10  1  0  0  0
 10 16  1  0  0  0
 16 17  1  0  0  0
 17 18  2  0  0  0
 18 19  1  0  0  0
 19 20  2  0  0  0
 20 21  1  0  0  0
 21 22  2  0  0  0
 10 11  1  0  0  0
 11 12  1  0  0  0
 11 13  2  0  0  0
 54 49  1  0  0  0
 22 17  1  0  0  0
 35 38  1  0  0  0
 58 60  1  0  0  0
 58 61  1  0  0  0
 40 43  1  0  0  0
 45 46  1  0  0  0
 45 47  1  0  0  0
  3  4  1  0  0  0
 26 27  1  0  0  0
 29 31  1  0  0  0
 29 32  1  0  0  0
 30 33  1  0  0  0
  8  9  1  0  0  0
 12 14  1  0  0  0
 12 15  1  0  0  0
M  END
> <minimizedAffinity>
-7.24715

> <CNNscore>
0.1319037378

> <CNNaffinity>
7.2383627892

> <CNN_VS>
0.9547671080

> <CNNaffinity_variance>
0.5795871615

$$$$
[H]N=C(N([H])[H])N([H])C([H])([H])C([H])([H])C([H])([H])[C@@]([H])(C(=O)N([H])[C@]([H])(C(=O)N([H])[H])C([H])([H])c1c([H])c([H])c([H])c([H])c1[H])N([H])C(=O)[C@@]([H])(N([H])C(=O)[C@@]([H])(N([H])C(=O)[C@@]([H])(N([H])[H])C([H])([H])c1c([H])c([H])c([H])c([H])c1[H])C([H])([H])C([H])([H])C(=O)N([H])[H])C([H])([H])C([H])(C([H])([H])[H])C([H])([H])[H]


 65 66  0  0  0  0  0  0  0  0999 V2000
  -19.4483   16.3876  -19.7658 C   0  0  0  0  0  0  0  0  0  0  0  0
  -18.3748   16.5187  -19.1372 O   0  0  0  0  0  0  0  0  0  0  0  0
  -19.5422   16.3614  -21.1698 N   0  0  0  0  0  0  0  0  0  0  0  0
  -20.5432   16.2578  -21.5741 H   0  0  0  0  0  0  0  0  0  0  0  0
  -18.5254   16.4575  -22.1528 C   0  0  0  0  0  0  0  0  0  0  0  0
  -17.5006   15.3903  -22.1397 C   0  0  0  0  0  0  0  0  0  0  0  0
  -16.5016   15.4653  -21.4131 O   0  0  0  0  0  0  0  0  0  0  0  0
  -17.6170   14.2382  -22.9587 N   0  0  0  0  0  0  0  0  0  0  0  0
  -18.4182   14.0763  -23.5967 H   0  0  0  0  0  0  0  0  0  0  0  0
  -16.5901   13.1849  -22.9484 C   0  0  0  0  0  0  0  0  0  0  0  0
  -16.0545   13.0956  -24.3059 C   0  0  0  0  0  0  0  0  0  0  0  0
  -16.7967   12.6642  -25.4190 N   0  0  0  0  0  0  0  0  0  0  0  0
  -14.8451   13.4184  -24.5169 O   0  0  0  0  0  0  0  0  0  0  0  0
  -17.4198   11.8346  -25.3496 H   0  0  0  0  0  0  0  0  0  0  0  0
  -16.7481   13.1531  -26.3373 H   0  0  0  0  0  0  0  0  0  0  0  0
  -17.3366   11.9360  -22.5571 C   0  0  0  0  0  0  0  0  0  0  0  0
  -17.4369   11.6435  -21.1427 C   0  0  0  0  0  0  0  0  0  0  0  0
  -18.3439   12.2832  -20.3326 C   0  0  0  0  0  0  0  0  0  0  0  0
  -18.4424   11.9934  -18.9672 C   0  0  0  0  0  0  0  0  0  0  0  0
  -17.6111   11.0419  -18.4120 C   0  0  0  0  0  0  0  0  0  0  0  0
  -16.6932   10.3858  -19.2012 C   0  0  0  0  0  0  0  0  0  0  0  0
  -16.6146   10.6922  -20.5568 C   0  0  0  0  0  0  0  0  0  0  0  0
  -17.9666   17.8459  -22.3152 C   0  0  0  0  0  0  0  0  0  0  0  0
  -17.7670   18.0635  -23.8019 C   0  0  0  0  0  0  0  0  0  0  0  0
  -16.4547   17.5352  -24.2900 C   0  0  0  0  0  0  0  0  0  0  0  0
  -16.6600   16.9366  -25.5942 N   0  0  0  0  0  0  0  0  0  0  0  0
  -17.5463   17.0838  -26.1240 H   0  0  0  0  0  0  0  0  0  0  0  0
  -15.6699   16.1278  -26.2070 C   0  0  0  0  0  0  0  0  0  0  0  0
  -14.3095   16.3058  -25.8723 N   0  0  0  0  0  0  0  0  0  0  0  0
  -16.0346   15.2429  -27.0619 N   0  0  0  0  0  0  0  0  0  0  0  0
  -14.0146   16.3642  -24.8785 H   0  0  0  0  0  0  0  0  0  0  0  0
  -13.5991   16.3785  -26.6288 H   0  0  0  0  0  0  0  0  0  0  0  0
  -17.0359   15.1058  -27.3146 H   0  0  0  0  0  0  0  0  0  0  0  0
  -20.6627   16.2523  -18.9296 C   0  0  0  0  0  0  0  0  0  0  0  0
  -21.7695   17.0750  -19.3737 N   0  0  0  0  0  0  0  0  0  0  0  0
  -22.1631   18.2655  -18.7388 C   0  0  0  0  0  0  0  0  0  0  0  0
  -21.5161   18.6227  -17.7139 O   0  0  0  0  0  0  0  0  0  0  0  0
  -22.2959   16.7414  -20.2055 H   0  0  0  0  0  0  0  0  0  0  0  0
  -23.2857   19.0967  -19.2176 C   0  0  0  0  0  0  0  0  0  0  0  0
  -23.0273   19.2922  -20.6653 N   0  0  0  0  0  0  0  0  0  0  0  0
  -22.4481   20.5056  -21.1100 C   0  0  0  0  0  0  0  0  0  0  0  0
  -22.1599   21.4176  -20.2788 O   0  0  0  0  0  0  0  0  0  0  0  0
  -23.2666   18.5509  -21.3491 H   0  0  0  0  0  0  0  0  0  0  0  0
  -22.1684   20.7365  -22.5371 C   0  0  0  0  0  0  0  0  0  0  0  0
  -21.2562   21.8840  -22.6999 N   0  0  0  0  0  0  0  0  0  0  0  0
  -21.8478   22.7611  -22.7707 H   0  0  0  0  0  0  0  0  0  0  0  0
  -20.6003   21.9665  -21.8945 H   0  0  0  0  0  0  0  0  0  0  0  0
  -21.4394   19.5238  -23.1444 C   0  0  0  0  0  0  0  0  0  0  0  0
  -22.2269   19.0804  -24.3153 C   0  0  0  0  0  0  0  0  0  0  0  0
  -22.5591   17.7488  -24.4240 C   0  0  0  0  0  0  0  0  0  0  0  0
  -23.3046   17.2846  -25.5158 C   0  0  0  0  0  0  0  0  0  0  0  0
  -23.7127   18.1732  -26.4971 C   0  0  0  0  0  0  0  0  0  0  0  0
  -23.3835   19.5044  -26.3922 C   0  0  0  0  0  0  0  0  0  0  0  0
  -22.6376   19.9415  -25.2908 C   0  0  0  0  0  0  0  0  0  0  0  0
  -24.5732   18.3058  -19.0738 C   0  0  0  0  0  0  0  0  0  0  0  0
  -24.7506   17.5941  -17.7897 C   0  0  0  0  0  0  0  0  0  0  0  0
  -26.1046   17.5534  -17.2423 C   0  0  0  0  0  0  0  0  0  0  0  0
  -26.5038   18.3991  -16.1880 N   0  0  0  0  0  0  0  0  0  0  0  0
  -26.9574   16.7560  -17.6996 O   0  0  0  0  0  0  0  0  0  0  0  0
  -27.3866   18.9403  -16.2301 H   0  0  0  0  0  0  0  0  0  0  0  0
  -25.9112   18.4974  -15.3376 H   0  0  0  0  0  0  0  0  0  0  0  0
  -21.1212   14.8669  -18.6528 C   0  0  0  0  0  0  0  0  0  0  0  0
  -21.0795   13.2553  -16.6868 C   0  0  0  0  0  0  0  0  0  0  0  0
  -21.3479   14.6110  -17.2099 C   0  0  0  0  0  0  0  0  0  0  0  0
  -20.4827   15.6027  -16.3973 C   0  0  0  0  0  0  0  0  0  0  0  0
 63 64  1  0  0  0
 64 65  1  0  0  0
 64 62  1  0  0  0
 62 34  1  0  0  0
 34 35  1  0  0  0
 35 36  1  0  0  0
 36 37  2  0  0  0
 36 39  1  0  0  0
 39 55  1  0  0  0
 55 56  1  0  0  0
 56 57  1  0  0  0
 57 58  1  0  0  0
 57 59  2  0  0  0
 39 40  1  0  0  0
 40 41  1  0  0  0
 41 42  2  0  0  0
 41 44  1  0  0  0
 44 45  1  0  0  0
 44 48  1  0  0  0
 48 49  1  0  0  0
 49 50  2  0  0  0
 50 51  1  0  0  0
 51 52  2  0  0  0
 52 53  1  0  0  0
 53 54  2  0  0  0
 34  1  1  0  0  0
  1  2  2  0  0  0
  1  3  1  0  0  0
  3  5  1  0  0  0
  5 23  1  0  0  0
 23 24  1  0  0  0
 24 25  1  0  0  0
 25 26  1  0  0  0
 26 28  1  0  0  0
 28 29  1  0  0  0
 28 30  2  0  0  0
  5  6  1  0  0  0
  6  7  2  0  0  0
  6  8  1  0  0  0
  8 10  1  0  0  0
 10 16  1  0  0  0
 16 17  1  0  0  0
 17 18  2  0  0  0
 18 19  1  0  0  0
 19 20  2  0  0  0
 20 21  1  0  0  0
 21 22  2  0  0  0
 10 11  1  0  0  0
 11 12  1  0  0  0
 11 13  2  0  0  0
 54 49  1  0  0  0
 22 17  1  0  0  0
 35 38  1  0  0  0
 58 60  1  0  0  0
 58 61  1  0  0  0
 40 43  1  0  0  0
 45 46  1  0  0  0
 45 47  1  0  0  0
  3  4  1  0  0  0
 26 27  1  0  0  0
 29 31  1  0  0  0
 29 32  1  0  0  0
 30 33  1  0  0  0
  8  9  1  0  0  0
 12 14  1  0  0  0
 12 15  1  0  0  0
M  END
> <minimizedAffinity>
-7.54783

> <CNNscore>
0.1269256175

> <CNNaffinity>
6.8900938034

> <CNN_VS>
0.8745294213

> <CNNaffinity_variance>
0.9011572599

$$$$
[H]N=C(N([H])[H])N([H])C([H])([H])C([H])([H])C([H])([H])[C@@]([H])(C(=O)N([H])[C@]([H])(C(=O)N([H])[H])C([H])([H])c1c([H])c([H])c([H])c([H])c1[H])N([H])C(=O)[C@@]([H])(N([H])C(=O)[C@@]([H])(N([H])C(=O)[C@@]([H])(N([H])[H])C([H])([H])c1c([H])c([H])c([H])c([H])c1[H])C([H])([H])C([H])([H])C(=O)N([H])[H])C([H])([H])C([H])(C([H])([H])[H])C([H])([H])[H]


 65 66  0  0  0  0  0  0  0  0999 V2000
  -21.8370   17.3222  -19.4238 C   0  0  0  0  0  0  0  0  0  0  0  0
  -22.3170   18.2729  -18.7677 O   0  0  0  0  0  0  0  0  0  0  0  0
  -21.5328   17.3850  -20.7965 N   0  0  0  0  0  0  0  0  0  0  0  0
  -21.1365   16.4754  -21.2343 H   0  0  0  0  0  0  0  0  0  0  0  0
  -21.6703   18.4587  -21.7118 C   0  0  0  0  0  0  0  0  0  0  0  0
  -22.8622   18.4221  -22.5879 C   0  0  0  0  0  0  0  0  0  0  0  0
  -23.9707   18.0838  -22.1538 O   0  0  0  0  0  0  0  0  0  0  0  0
  -22.7864   18.7706  -23.9606 N   0  0  0  0  0  0  0  0  0  0  0  0
  -21.9075   19.0744  -24.4194 H   0  0  0  0  0  0  0  0  0  0  0  0
  -23.9729   18.7233  -24.8289 C   0  0  0  0  0  0  0  0  0  0  0  0
  -23.6382   17.8663  -25.9652 C   0  0  0  0  0  0  0  0  0  0  0  0
  -23.8235   18.2324  -27.3098 N   0  0  0  0  0  0  0  0  0  0  0  0
  -23.1525   16.7136  -25.7495 O   0  0  0  0  0  0  0  0  0  0  0  0
  -24.6982   18.7058  -27.6130 H   0  0  0  0  0  0  0  0  0  0  0  0
  -23.1020   18.0442  -28.0369 H   0  0  0  0  0  0  0  0  0  0  0  0
  -24.1878   20.1540  -25.2501 C   0  0  0  0  0  0  0  0  0  0  0  0
  -23.0914   21.0754  -25.0383 C   0  0  0  0  0  0  0  0  0  0  0  0
  -22.0417   21.1681  -25.9202 C   0  0  0  0  0  0  0  0  0  0  0  0
  -20.9867   22.0645  -25.7157 C   0  0  0  0  0  0  0  0  0  0  0  0
  -20.9932   22.8800  -24.6024 C   0  0  0  0  0  0  0  0  0  0  0  0
  -22.0329   22.8076  -23.7027 C   0  0  0  0  0  0  0  0  0  0  0  0
  -23.0705   21.9074  -23.9286 C   0  0  0  0  0  0  0  0  0  0  0  0
  -20.3934   18.8172  -22.4241 C   0  0  0  0  0  0  0  0  0  0  0  0
  -19.9710   20.1762  -21.9022 C   0  0  0  0  0  0  0  0  0  0  0  0
  -18.4917   20.2816  -21.7019 C   0  0  0  0  0  0  0  0  0  0  0  0
  -17.9931   18.9842  -21.2901 N   0  0  0  0  0  0  0  0  0  0  0  0
  -17.5123   18.3500  -21.9642 H   0  0  0  0  0  0  0  0  0  0  0  0
  -18.1350   18.5201  -19.9580 C   0  0  0  0  0  0  0  0  0  0  0  0
  -18.1181   19.4400  -18.8865 N   0  0  0  0  0  0  0  0  0  0  0  0
  -18.2764   17.2613  -19.7521 N   0  0  0  0  0  0  0  0  0  0  0  0
  -18.6977   20.3008  -18.9218 H   0  0  0  0  0  0  0  0  0  0  0  0
  -17.5199   19.2517  -18.0565 H   0  0  0  0  0  0  0  0  0  0  0  0
  -18.2894   16.5763  -20.5369 H   0  0  0  0  0  0  0  0  0  0  0  0
  -21.5909   16.0799  -18.6566 C   0  0  0  0  0  0  0  0  0  0  0  0
  -20.3884   15.3777  -19.0565 N   0  0  0  0  0  0  0  0  0  0  0  0
  -20.3902   14.1753  -19.7841 C   0  0  0  0  0  0  0  0  0  0  0  0
  -21.5114   13.6791  -20.0901 O   0  0  0  0  0  0  0  0  0  0  0  0
  -19.4830   15.7996  -18.7691 H   0  0  0  0  0  0  0  0  0  0  0  0
  -19.1516   13.4839  -20.1943 C   0  0  0  0  0  0  0  0  0  0  0  0
  -18.3801   14.4984  -20.9534 N   0  0  0  0  0  0  0  0  0  0  0  0
  -17.5652   14.0849  -22.0354 C   0  0  0  0  0  0  0  0  0  0  0  0
  -17.4916   12.8588  -22.3468 O   0  0  0  0  0  0  0  0  0  0  0  0
  -18.4333   15.5017  -20.6984 H   0  0  0  0  0  0  0  0  0  0  0  0
  -16.7896   15.0607  -22.8193 C   0  0  0  0  0  0  0  0  0  0  0  0
  -16.2346   16.1018  -21.9343 N   0  0  0  0  0  0  0  0  0  0  0  0
  -16.9532   16.8775  -21.8557 H   0  0  0  0  0  0  0  0  0  0  0  0
  -16.0216   15.7228  -20.9874 H   0  0  0  0  0  0  0  0  0  0  0  0
  -15.5799   14.3766  -23.4824 C   0  0  0  0  0  0  0  0  0  0  0  0
  -15.6632   14.6498  -24.9337 C   0  0  0  0  0  0  0  0  0  0  0  0
  -14.7298   15.4852  -25.5047 C   0  0  0  0  0  0  0  0  0  0  0  0
  -14.7701   15.7713  -26.8758 C   0  0  0  0  0  0  0  0  0  0  0  0
  -15.7585   15.2086  -27.6667 C   0  0  0  0  0  0  0  0  0  0  0  0
  -16.6927   14.3732  -27.1004 C   0  0  0  0  0  0  0  0  0  0  0  0
  -16.6294   14.1042  -25.7278 C   0  0  0  0  0  0  0  0  0  0  0  0
  -18.3587   13.1263  -18.9502 C   0  0  0  0  0  0  0  0  0  0  0  0
  -18.1525   11.6814  -18.7124 C   0  0  0  0  0  0  0  0  0  0  0  0
  -16.9366   11.0909  -19.2668 C   0  0  0  0  0  0  0  0  0  0  0  0
  -16.9117   10.5158  -20.5532 N   0  0  0  0  0  0  0  0  0  0  0  0
  -15.8709   11.0787  -18.6062 O   0  0  0  0  0  0  0  0  0  0  0  0
  -16.1662   10.7440  -21.2360 H   0  0  0  0  0  0  0  0  0  0  0  0
  -17.6513    9.8436  -20.8447 H   0  0  0  0  0  0  0  0  0  0  0  0
  -21.6601   16.1944  -17.1773 C   0  0  0  0  0  0  0  0  0  0  0  0
  -21.4684   13.9347  -16.0276 C   0  0  0  0  0  0  0  0  0  0  0  0
  -22.3191   15.0298  -16.5381 C   0  0  0  0  0  0  0  0  0  0  0  0
  -23.1758   15.5426  -15.3567 C   0  0  0  0  0  0  0  0  0  0  0  0
 63 64  1  0  0  0
 64 65  1  0  0  0
 64 62  1  0  0  0
 62 34  1  0  0  0
 34 35  1  0  0  0
 35 36  1  0  0  0
 36 37  2  0  0  0
 36 39  1  0  0  0
 39 55  1  0  0  0
 55 56  1  0  0  0
 56 57  1  0  0  0
 57 58  1  0  0  0
 57 59  2  0  0  0
 39 40  1  0  0  0
 40 41  1  0  0  0
 41 42  2  0  0  0
 41 44  1  0  0  0
 44 45  1  0  0  0
 44 48  1  0  0  0
 48 49  1  0  0  0
 49 50  2  0  0  0
 50 51  1  0  0  0
 51 52  2  0  0  0
 52 53  1  0  0  0
 53 54  2  0  0  0
 34  1  1  0  0  0
  1  2  2  0  0  0
  1  3  1  0  0  0
  3  5  1  0  0  0
  5 23  1  0  0  0
 23 24  1  0  0  0
 24 25  1  0  0  0
 25 26  1  0  0  0
 26 28  1  0  0  0
 28 29  1  0  0  0
 28 30  2  0  0  0
  5  6  1  0  0  0
  6  7  2  0  0  0
  6  8  1  0  0  0
  8 10  1  0  0  0
 10 16  1  0  0  0
 16 17  1  0  0  0
 17 18  2  0  0  0
 18 19  1  0  0  0
 19 20  2  0  0  0
 20 21  1  0  0  0
 21 22  2  0  0  0
 10 11  1  0  0  0
 11 12  1  0  0  0
 11 13  2  0  0  0
 54 49  1  0  0  0
 22 17  1  0  0  0
 35 38  1  0  0  0
 58 60  1  0  0  0
 58 61  1  0  0  0
 40 43  1  0  0  0
 45 46  1  0  0  0
 45 47  1  0  0  0
  3  4  1  0  0  0
 26 27  1  0  0  0
 29 31  1  0  0  0
 29 32  1  0  0  0
 30 33  1  0  0  0
  8  9  1  0  0  0
 12 14  1  0  0  0
 12 15  1  0  0  0
M  END
> <minimizedAffinity>
-7.85195

> <CNNscore>
0.1214013472

> <CNNaffinity>
6.5640358925

> <CNN_VS>
0.7968828082

> <CNNaffinity_variance>
1.3402230740

$$$$
[H]c1nc2nc(N(C([H])([H])[H])C([H])([H])[H])n([C@]3([H])C([H])([H])[C@@]4([H])N(C(=O)c5c(F)c([H])c(C(F)(F)F)c([H])c5Br)[C@]([H])(C([H])([H])C4([H])[H])C3([H])[H])c2c([H])c1[H]


 34 38  0  0  0  0  0  0  0  0999 V2000
  -17.8944   15.8586  -20.9207 C   0  0  0  0  0  0  0  0  0  0  0  0
  -18.9086   16.7427  -20.5580 N   0  0  0  0  0  0  0  0  0  0  0  0
  -18.7961   18.1865  -20.6187 C   0  0  0  0  0  0  0  0  0  0  0  0
  -19.6978   18.8639  -21.6003 C   0  0  0  0  0  0  0  0  0  0  0  0
  -20.9388   18.1464  -21.8263 C   0  0  0  0  0  0  0  0  0  0  0  0
  -21.3280   17.2063  -20.7017 C   0  0  0  0  0  0  0  0  0  0  0  0
  -20.2136   16.5352  -20.0137 C   0  0  0  0  0  0  0  0  0  0  0  0
  -20.0146   17.3391  -18.6835 C   0  0  0  0  0  0  0  0  0  0  0  0
  -19.2069   18.5181  -19.1706 C   0  0  0  0  0  0  0  0  0  0  0  0
  -16.7783   16.4419  -21.3748 O   0  0  0  0  0  0  0  0  0  0  0  0
  -22.1091   18.8693  -22.2595 N   0  0  0  0  0  0  0  0  0  0  0  0
  -22.9307   19.7323  -21.7272 C   0  0  0  0  0  0  0  0  0  0  0  0
  -23.9354   20.0815  -22.6123 N   0  0  0  0  0  0  0  0  0  0  0  0
  -23.7049   19.3938  -23.7236 C   0  0  0  0  0  0  0  0  0  0  0  0
  -22.5906   18.6429  -23.5344 C   0  0  0  0  0  0  0  0  0  0  0  0
  -22.1893   17.8454  -24.5883 C   0  0  0  0  0  0  0  0  0  0  0  0
  -22.8931   17.8148  -25.7865 C   0  0  0  0  0  0  0  0  0  0  0  0
  -24.0066   18.6033  -25.9007 C   0  0  0  0  0  0  0  0  0  0  0  0
  -24.3950   19.3711  -24.8914 N   0  0  0  0  0  0  0  0  0  0  0  0
  -22.8944   20.2957  -20.4207 N   0  0  0  0  0  0  0  0  0  0  0  0
  -21.8681   21.2035  -19.9558 C   0  0  0  0  0  0  0  0  0  0  0  0
  -23.9731   19.9785  -19.5271 C   0  0  0  0  0  0  0  0  0  0  0  0
  -17.3148   11.6841  -20.7082 C   0  0  0  0  0  0  0  0  0  0  0  0
  -17.3448   12.3019  -21.9394 C   0  0  0  0  0  0  0  0  0  0  0  0
  -17.5717   13.6917  -22.0310 C   0  0  0  0  0  0  0  0  0  0  0  0
  -17.5675   14.4032  -23.7891 Br  0  0  0  0  0  0  0  0  0  0  0  0
  -17.7630   14.4490  -20.9132 C   0  0  0  0  0  0  0  0  0  0  0  0
  -17.7353   13.8170  -19.6582 C   0  0  0  0  0  0  0  0  0  0  0  0
  -17.9163   14.4778  -18.4998 F   0  0  0  0  0  0  0  0  0  0  0  0
  -17.5135   12.4618  -19.5849 C   0  0  0  0  0  0  0  0  0  0  0  0
  -15.7272    9.8953  -20.7175 F   0  0  0  0  0  0  0  0  0  0  0  0
  -17.0548   10.2131  -20.5576 C   0  0  0  0  0  0  0  0  0  0  0  0
  -17.4464    9.7515  -19.3232 F   0  0  0  0  0  0  0  0  0  0  0  0
  -17.8168    9.5154  -21.4900 F   0  0  0  0  0  0  0  0  0  0  0  0
 31 32  1  0  0  0
 32 33  1  0  0  0
 32 34  1  0  0  0
 32 23  1  0  0  0
 23 24  2  0  0  0
 24 25  1  0  0  0
 25 26  1  0  0  0
 25 27  2  0  0  0
 27  1  1  0  0  0
  1  2  1  0  0  0
  2  3  1  0  0  0
  3  4  1  0  0  0
  4  5  1  0  0  0
  5 11  1  0  0  0
 11 12  1  0  0  0
 12 20  1  0  0  0
 20 21  1  0  0  0
 20 22  1  0  0  0
 12 13  2  0  0  0
 13 14  1  0  0  0
 14 15  2  0  0  0
 15 16  1  0  0  0
 16 17  2  0  0  0
 17 18  1  0  0  0
 18 19  2  0  0  0
  5  6  1  0  0  0
  6  7  1  0  0  0
  7  8  1  0  0  0
  8  9  1  0  0  0
  1 10  2  0  0  0
 27 28  1  0  0  0
 28 29  1  0  0  0
 28 30  2  0  0  0
 30 23  1  0  0  0
  7  2  1  0  0  0
  9  3  1  0  0  0
 15 11  1  0  0  0
 19 14  1  0  0  0
M  END
> <minimizedAffinity>
-8.27919

> <CNNscore>
0.1157077551

> <CNNaffinity>
6.3303747177

> <CNN_VS>
0.7324734330

> <CNNaffinity_variance>
0.1721699238

$$$$
[H]c1nc2nc(N(C([H])([H])[H])C([H])([H])[H])n([C@]3([H])C([H])([H])[C@@]4([H])N(C(=O)c5c(F)c([H])c(C(F)(F)F)c([H])c5Br)[C@]([H])(C([H])([H])C4([H])[H])C3([H])[H])c2c([H])c1[H]


 34 38  0  0  0  0  0  0  0  0999 V2000
  -19.1649   13.2526  -17.2831 C   0  0  0  0  0  0  0  0  0  0  0  0
  -19.4396   14.0984  -18.3559 N   0  0  0  0  0  0  0  0  0  0  0  0
  -19.0326   15.4877  -18.4276 C   0  0  0  0  0  0  0  0  0  0  0  0
  -18.0442   15.8166  -19.5002 C   0  0  0  0  0  0  0  0  0  0  0  0
  -18.1506   14.9516  -20.6606 C   0  0  0  0  0  0  0  0  0  0  0  0
  -19.5024   14.2820  -20.8159 C   0  0  0  0  0  0  0  0  0  0  0  0
  -20.1791   13.9076  -19.5638 C   0  0  0  0  0  0  0  0  0  0  0  0
  -21.2506   15.0269  -19.3309 C   0  0  0  0  0  0  0  0  0  0  0  0
  -20.4049   16.1223  -18.7272 C   0  0  0  0  0  0  0  0  0  0  0  0
  -18.4495   13.8102  -16.2986 O   0  0  0  0  0  0  0  0  0  0  0  0
  -17.7150   15.4330  -21.9483 N   0  0  0  0  0  0  0  0  0  0  0  0
  -16.9677   14.9792  -22.9172 C   0  0  0  0  0  0  0  0  0  0  0  0
  -16.8522   15.9054  -23.9387 N   0  0  0  0  0  0  0  0  0  0  0  0
  -17.5611   16.9621  -23.5618 C   0  0  0  0  0  0  0  0  0  0  0  0
  -18.1011   16.6986  -22.3452 C   0  0  0  0  0  0  0  0  0  0  0  0
  -18.8763   17.6915  -21.7784 C   0  0  0  0  0  0  0  0  0  0  0  0
  -19.0936   18.9027  -22.4247 C   0  0  0  0  0  0  0  0  0  0  0  0
  -18.5159   19.0919  -23.6514 C   0  0  0  0  0  0  0  0  0  0  0  0
  -17.7715   18.1409  -24.1997 N   0  0  0  0  0  0  0  0  0  0  0  0
  -16.3072   13.7218  -23.0077 N   0  0  0  0  0  0  0  0  0  0  0  0
  -16.8480   12.4814  -22.4952 C   0  0  0  0  0  0  0  0  0  0  0  0
  -15.0468   13.6780  -23.6948 C   0  0  0  0  0  0  0  0  0  0  0  0
  -20.0923    9.3037  -16.1196 C   0  0  0  0  0  0  0  0  0  0  0  0
  -19.1356    9.5174  -17.0879 C   0  0  0  0  0  0  0  0  0  0  0  0
  -18.8371   10.8294  -17.5136 C   0  0  0  0  0  0  0  0  0  0  0  0
  -17.4869   10.9681  -18.8382 Br  0  0  0  0  0  0  0  0  0  0  0  0
  -19.4815   11.9063  -16.9801 C   0  0  0  0  0  0  0  0  0  0  0  0
  -20.4593   11.6866  -15.9949 C   0  0  0  0  0  0  0  0  0  0  0  0
  -21.1504   12.6835  -15.4120 F   0  0  0  0  0  0  0  0  0  0  0  0
  -20.7395   10.4024  -15.5906 C   0  0  0  0  0  0  0  0  0  0  0  0
  -20.5781    7.0198  -16.6374 F   0  0  0  0  0  0  0  0  0  0  0  0
  -20.4291    7.9293  -15.6178 C   0  0  0  0  0  0  0  0  0  0  0  0
  -19.4609    7.4467  -14.7692 F   0  0  0  0  0  0  0  0  0  0  0  0
  -21.6020    7.9889  -14.8711 F   0  0  0  0  0  0  0  0  0  0  0  0
 31 32  1  0  0  0
 32 33  1  0  0  0
 32 34  1  0  0  0
 32 23  1  0  0  0
 23 24  2  0  0  0
 24 25  1  0  0  0
 25 26  1  0  0  0
 25 27  2  0  0  0
 27  1  1  0  0  0
  1  2  1  0  0  0
  2  3  1  0  0  0
  3  4  1  0  0  0
  4  5  1  0  0  0
  5 11  1  0  0  0
 11 12  1  0  0  0
 12 20  1  0  0  0
 20 21  1  0  0  0
 20 22  1  0  0  0
 12 13  2  0  0  0
 13 14  1  0  0  0
 14 15  2  0  0  0
 15 16  1  0  0  0
 16 17  2  0  0  0
 17 18  1  0  0  0
 18 19  2  0  0  0
  5  6  1  0  0  0
  6  7  1  0  0  0
  7  8  1  0  0  0
  8  9  1  0  0  0
  1 10  2  0  0  0
 27 28  1  0  0  0
 28 29  1  0  0  0
 28 30  2  0  0  0
 30 23  1  0  0  0
  7  2  1  0  0  0
  9  3  1  0  0  0
 15 11  1  0  0  0
 19 14  1  0  0  0
M  END
> <minimizedAffinity>
-8.59929

> <CNNscore>
0.1138957813

> <CNNaffinity>
6.6053643227

> <CNN_VS>
0.7523231506

> <CNNaffinity_variance>
0.2237490714

$$$$
[H]c1nc2nc(N(C([H])([H])[H])C([H])([H])[H])n([C@]3([H])C([H])([H])[C@@]4([H])N(C(=O)c5c(F)c([H])c(C(F)(F)F)c([H])c5Br)[C@]([H])(C([H])([H])C4([H])[H])C3([H])[H])c2c([H])c1[H]


 34 38  0  0  0  0  0  0  0  0999 V2000
  -19.9273   13.9372  -19.1252 C   0  0  0  0  0  0  0  0  0  0  0  0
  -19.4334   15.2299  -18.9617 N   0  0  0  0  0  0  0  0  0  0  0  0
  -19.7660   16.3480  -19.8221 C   0  0  0  0  0  0  0  0  0  0  0  0
  -20.5346   17.4550  -19.1745 C   0  0  0  0  0  0  0  0  0  0  0  0
  -20.2581   17.5895  -17.7562 C   0  0  0  0  0  0  0  0  0  0  0  0
  -18.9277   17.0044  -17.3231 C   0  0  0  0  0  0  0  0  0  0  0  0
  -18.4994   15.7907  -18.0368 C   0  0  0  0  0  0  0  0  0  0  0  0
  -17.4428   16.2862  -19.0825 C   0  0  0  0  0  0  0  0  0  0  0  0
  -18.3383   16.8036  -20.1825 C   0  0  0  0  0  0  0  0  0  0  0  0
  -20.7835   13.7890  -20.1436 O   0  0  0  0  0  0  0  0  0  0  0  0
  -20.4390   18.8685  -17.1150 N   0  0  0  0  0  0  0  0  0  0  0  0
  -20.5478   20.1087  -17.5064 C   0  0  0  0  0  0  0  0  0  0  0  0
  -20.6715   20.9669  -16.4281 N   0  0  0  0  0  0  0  0  0  0  0  0
  -20.6324   20.2048  -15.3424 C   0  0  0  0  0  0  0  0  0  0  0  0
  -20.4909   18.9137  -15.7352 C   0  0  0  0  0  0  0  0  0  0  0  0
  -20.4241   17.9616  -14.7368 C   0  0  0  0  0  0  0  0  0  0  0  0
  -20.4996   18.3098  -13.3933 C   0  0  0  0  0  0  0  0  0  0  0  0
  -20.6444   19.6341  -13.0775 C   0  0  0  0  0  0  0  0  0  0  0  0
  -20.7097   20.5516  -14.0330 N   0  0  0  0  0  0  0  0  0  0  0  0
  -20.5432   20.6184  -18.8352 N   0  0  0  0  0  0  0  0  0  0  0  0
  -21.7375   20.9416  -19.5855 C   0  0  0  0  0  0  0  0  0  0  0  0
  -19.2693   20.8720  -19.4482 C   0  0  0  0  0  0  0  0  0  0  0  0
  -19.3187   10.4125  -16.8861 C   0  0  0  0  0  0  0  0  0  0  0  0
  -18.5329   10.6570  -17.9912 C   0  0  0  0  0  0  0  0  0  0  0  0
  -18.7451   11.8136  -18.7714 C   0  0  0  0  0  0  0  0  0  0  0  0
  -17.5753   12.0247  -20.2493 Br  0  0  0  0  0  0  0  0  0  0  0  0
  -19.7228   12.7088  -18.4516 C   0  0  0  0  0  0  0  0  0  0  0  0
  -20.5258   12.4565  -17.3262 C   0  0  0  0  0  0  0  0  0  0  0  0
  -21.5165   13.2780  -16.9327 F   0  0  0  0  0  0  0  0  0  0  0  0
  -20.3072   11.3249  -16.5759 C   0  0  0  0  0  0  0  0  0  0  0  0
  -19.0056    9.5375  -14.6824 F   0  0  0  0  0  0  0  0  0  0  0  0
  -19.1173    9.2084  -16.0122 C   0  0  0  0  0  0  0  0  0  0  0  0
  -20.1542    8.3137  -16.1328 F   0  0  0  0  0  0  0  0  0  0  0  0
  -17.9731    8.5307  -16.4225 F   0  0  0  0  0  0  0  0  0  0  0  0
 31 32  1  0  0  0
 32 33  1  0  0  0
 32 34  1  0  0  0
 32 23  1  0  0  0
 23 24  2  0  0  0
 24 25  1  0  0  0
 25 26  1  0  0  0
 25 27  2  0  0  0
 27  1  1  0  0  0
  1  2  1  0  0  0
  2  3  1  0  0  0
  3  4  1  0  0  0
  4  5  1  0  0  0
  5 11  1  0  0  0
 11 12  1  0  0  0
 12 20  1  0  0  0
 20 21  1  0  0  0
 20 22  1  0  0  0
 12 13  2  0  0  0
 13 14  1  0  0  0
 14 15  2  0  0  0
 15 16  1  0  0  0
 16 17  2  0  0  0
 17 18  1  0  0  0
 18 19  2  0  0  0
  5  6  1  0  0  0
  6  7  1  0  0  0
  7  8  1  0  0  0
  8  9  1  0  0  0
  1 10  2  0  0  0
 27 28  1  0  0  0
 28 29  1  0  0  0
 28 30  2  0  0  0
 30 23  1  0  0  0
  7  2  1  0  0  0
  9  3  1  0  0  0
 15 11  1  0  0  0
 19 14  1  0  0  0
M  END
> <minimizedAffinity>
-7.51448

> <CNNscore>
0.1123699918

> <CNNaffinity>
6.0695605278

> <CNN_VS>
0.6820364594

> <CNNaffinity_variance>
0.3256319463

$$$$
[H]c1nc2nc(N(C([H])([H])[H])C([H])([H])[H])n([C@]3([H])C([H])([H])[C@@]4([H])N(C(=O)c5c(F)c([H])c(C(F)(F)F)c([H])c5Br)[C@]([H])(C([H])([H])C4([H])[H])C3([H])[H])c2c([H])c1[H]


 34 38  0  0  0  0  0  0  0  0999 V2000
  -18.7435   14.2915  -17.9646 C   0  0  0  0  0  0  0  0  0  0  0  0
  -19.0769   15.1178  -19.0360 N   0  0  0  0  0  0  0  0  0  0  0  0
  -18.7341   16.5235  -19.1230 C   0  0  0  0  0  0  0  0  0  0  0  0
  -17.7827   16.8898  -20.2167 C   0  0  0  0  0  0  0  0  0  0  0  0
  -17.8730   16.0139  -21.3703 C   0  0  0  0  0  0  0  0  0  0  0  0
  -19.1962   15.2835  -21.4952 C   0  0  0  0  0  0  0  0  0  0  0  0
  -19.8307   14.8868  -20.2280 C   0  0  0  0  0  0  0  0  0  0  0  0
  -20.9465   15.9585  -19.9796 C   0  0  0  0  0  0  0  0  0  0  0  0
  -20.1391   17.0942  -19.3984 C   0  0  0  0  0  0  0  0  0  0  0  0
  -18.0346   14.8865  -16.9974 O   0  0  0  0  0  0  0  0  0  0  0  0
  -17.4848   16.5065  -22.6689 N   0  0  0  0  0  0  0  0  0  0  0  0
  -17.9132   17.4237  -23.4924 C   0  0  0  0  0  0  0  0  0  0  0  0
  -17.1636   17.4449  -24.6552 N   0  0  0  0  0  0  0  0  0  0  0  0
  -16.2465   16.4951  -24.5214 C   0  0  0  0  0  0  0  0  0  0  0  0
  -16.4207   15.9045  -23.3122 C   0  0  0  0  0  0  0  0  0  0  0  0
  -15.5559   14.8771  -22.9893 C   0  0  0  0  0  0  0  0  0  0  0  0
  -14.5538   14.4685  -23.8615 C   0  0  0  0  0  0  0  0  0  0  0  0
  -14.4408   15.1158  -25.0626 C   0  0  0  0  0  0  0  0  0  0  0  0
  -15.2687   16.1034  -25.3764 N   0  0  0  0  0  0  0  0  0  0  0  0
  -18.9998   18.3267  -23.3199 N   0  0  0  0  0  0  0  0  0  0  0  0
  -20.3878   17.9775  -23.5321 C   0  0  0  0  0  0  0  0  0  0  0  0
  -18.6982   19.6532  -22.8591 C   0  0  0  0  0  0  0  0  0  0  0  0
  -19.4386   10.3059  -16.7652 C   0  0  0  0  0  0  0  0  0  0  0  0
  -18.6237   10.5550  -17.8480 C   0  0  0  0  0  0  0  0  0  0  0  0
  -18.4076   11.8796  -18.2840 C   0  0  0  0  0  0  0  0  0  0  0  0
  -17.2490   12.0675  -19.7737 Br  0  0  0  0  0  0  0  0  0  0  0  0
  -18.9935   12.9343  -17.6485 C   0  0  0  0  0  0  0  0  0  0  0  0
  -19.8270   12.6786  -16.5463 C   0  0  0  0  0  0  0  0  0  0  0  0
  -20.4512   13.6515  -15.8571 F   0  0  0  0  0  0  0  0  0  0  0  0
  -20.0284   11.3824  -16.1334 C   0  0  0  0  0  0  0  0  0  0  0  0
  -20.9823    8.7251  -15.8496 F   0  0  0  0  0  0  0  0  0  0  0  0
  -19.6815    8.9167  -16.2499 C   0  0  0  0  0  0  0  0  0  0  0  0
  -19.3949    7.9650  -17.1998 F   0  0  0  0  0  0  0  0  0  0  0  0
  -18.8238    8.6675  -15.1827 F   0  0  0  0  0  0  0  0  0  0  0  0
 31 32  1  0  0  0
 32 33  1  0  0  0
 32 34  1  0  0  0
 32 23  1  0  0  0
 23 24  2  0  0  0
 24 25  1  0  0  0
 25 26  1  0  0  0
 25 27  2  0  0  0
 27  1  1  0  0  0
  1  2  1  0  0  0
  2  3  1  0  0  0
  3  4  1  0  0  0
  4  5  1  0  0  0
  5 11  1  0  0  0
 11 12  1  0  0  0
 12 20  1  0  0  0
 20 21  1  0  0  0
 20 22  1  0  0  0
 12 13  2  0  0  0
 13 14  1  0  0  0
 14 15  2  0  0  0
 15 16  1  0  0  0
 16 17  2  0  0  0
 17 18  1  0  0  0
 18 19  2  0  0  0
  5  6  1  0  0  0
  6  7  1  0  0  0
  7  8  1  0  0  0
  8  9  1  0  0  0
  1 10  2  0  0  0
 27 28  1  0  0  0
 28 29  1  0  0  0
 28 30  2  0  0  0
 30 23  1  0  0  0
  7  2  1  0  0  0
  9  3  1  0  0  0
 15 11  1  0  0  0
 19 14  1  0  0  0
M  END
> <minimizedAffinity>
-9.52377

> <CNNscore>
0.0896358490

> <CNNaffinity>
6.4042282104

> <CNN_VS>
0.5740484595

> <CNNaffinity_variance>
0.4018073082

$$$$
[H]c1nc2nc(N(C([H])([H])[H])C([H])([H])[H])n([C@]3([H])C([H])([H])[C@@]4([H])N(C(=O)c5c(F)c([H])c(C(F)(F)F)c([H])c5Br)[C@]([H])(C([H])([H])C4([H])[H])C3([H])[H])c2c([H])c1[H]


 34 38  0  0  0  0  0  0  0  0999 V2000
  -20.5781   14.6066  -19.3832 C   0  0  0  0  0  0  0  0  0  0  0  0
  -20.7274   15.7647  -18.6227 N   0  0  0  0  0  0  0  0  0  0  0  0
  -21.9003   16.6158  -18.6495 C   0  0  0  0  0  0  0  0  0  0  0  0
  -22.6820   16.6784  -17.3764 C   0  0  0  0  0  0  0  0  0  0  0  0
  -21.8659   16.4754  -16.1938 C   0  0  0  0  0  0  0  0  0  0  0  0
  -20.3926   16.7732  -16.3955 C   0  0  0  0  0  0  0  0  0  0  0  0
  -19.8482   16.4415  -17.7219 C   0  0  0  0  0  0  0  0  0  0  0  0
  -19.7791   17.8080  -18.4857 C   0  0  0  0  0  0  0  0  0  0  0  0
  -21.2103   17.9628  -18.9412 C   0  0  0  0  0  0  0  0  0  0  0  0
  -21.6337   14.2971  -20.1461 O   0  0  0  0  0  0  0  0  0  0  0  0
  -22.2890   17.0344  -14.9336 N   0  0  0  0  0  0  0  0  0  0  0  0
  -22.3032   18.2205  -14.3893 C   0  0  0  0  0  0  0  0  0  0  0  0
  -22.8026   18.1756  -13.0997 N   0  0  0  0  0  0  0  0  0  0  0  0
  -23.0981   16.9040  -12.8614 C   0  0  0  0  0  0  0  0  0  0  0  0
  -22.7934   16.1828  -13.9697 C   0  0  0  0  0  0  0  0  0  0  0  0
  -23.0278   14.8228  -13.9131 C   0  0  0  0  0  0  0  0  0  0  0  0
  -23.5523   14.2219  -12.7748 C   0  0  0  0  0  0  0  0  0  0  0  0
  -23.8359   15.0180  -11.6976 C   0  0  0  0  0  0  0  0  0  0  0  0
  -23.6130   16.3245  -11.7480 N   0  0  0  0  0  0  0  0  0  0  0  0
  -21.8783   19.4558  -14.9542 N   0  0  0  0  0  0  0  0  0  0  0  0
  -22.6153   20.1831  -15.9649 C   0  0  0  0  0  0  0  0  0  0  0  0
  -20.6654   20.0374  -14.4509 C   0  0  0  0  0  0  0  0  0  0  0  0
  -17.5784   11.7305  -20.1164 C   0  0  0  0  0  0  0  0  0  0  0  0
  -18.2636   11.7050  -18.9212 C   0  0  0  0  0  0  0  0  0  0  0  0
  -19.2460   12.6796  -18.6451 C   0  0  0  0  0  0  0  0  0  0  0  0
  -20.1170   12.5058  -16.9693 Br  0  0  0  0  0  0  0  0  0  0  0  0
  -19.5386   13.6595  -19.5472 C   0  0  0  0  0  0  0  0  0  0  0  0
  -18.8367   13.6863  -20.7645 C   0  0  0  0  0  0  0  0  0  0  0  0
  -19.0520   14.6142  -21.7152 F   0  0  0  0  0  0  0  0  0  0  0  0
  -17.8818   12.7300  -21.0191 C   0  0  0  0  0  0  0  0  0  0  0  0
  -17.0914    9.4756  -20.7473 F   0  0  0  0  0  0  0  0  0  0  0  0
  -16.5409   10.7030  -20.4656 C   0  0  0  0  0  0  0  0  0  0  0  0
  -15.7954   11.0839  -21.5562 F   0  0  0  0  0  0  0  0  0  0  0  0
  -15.6438   10.5802  -19.4087 F   0  0  0  0  0  0  0  0  0  0  0  0
 31 32  1  0  0  0
 32 33  1  0  0  0
 32 34  1  0  0  0
 32 23  1  0  0  0
 23 24  2  0  0  0
 24 25  1  0  0  0
 25 26  1  0  0  0
 25 27  2  0  0  0
 27  1  1  0  0  0
  1  2  1  0  0  0
  2  3  1  0  0  0
  3  4  1  0  0  0
  4  5  1  0  0  0
  5 11  1  0  0  0
 11 12  1  0  0  0
 12 20  1  0  0  0
 20 21  1  0  0  0
 20 22  1  0  0  0
 12 13  2  0  0  0
 13 14  1  0  0  0
 14 15  2  0  0  0
 15 16  1  0  0  0
 16 17  2  0  0  0
 17 18  1  0  0  0
 18 19  2  0  0  0
  5  6  1  0  0  0
  6  7  1  0  0  0
  7  8  1  0  0  0
  8  9  1  0  0  0
  1 10  2  0  0  0
 27 28  1  0  0  0
 28 29  1  0  0  0
 28 30  2  0  0  0
 30 23  1  0  0  0
  7  2  1  0  0  0
  9  3  1  0  0  0
 15 11  1  0  0  0
 19 14  1  0  0  0
M  END
> <minimizedAffinity>
-7.72502

> <CNNscore>
0.0857098252

> <CNNaffinity>
5.7177658081

> <CNN_VS>
0.4900687039

> <CNNaffinity_variance>
0.3114363253

$$$$
[H]c1nc2nc(N(C([H])([H])[H])C([H])([H])[H])n([C@]3([H])C([H])([H])[C@@]4([H])N(C(=O)c5c(F)c([H])c(C(F)(F)F)c([H])c5Br)[C@]([H])(C([H])([H])C4([H])[H])C3([H])[H])c2c([H])c1[H]


 34 38  0  0  0  0  0  0  0  0999 V2000
  -18.4208   13.2150  -20.2974 C   0  0  0  0  0  0  0  0  0  0  0  0
  -18.3446   14.6031  -20.2008 N   0  0  0  0  0  0  0  0  0  0  0  0
  -18.1353   15.4915  -21.3267 C   0  0  0  0  0  0  0  0  0  0  0  0
  -19.2715   16.4098  -21.6448 C   0  0  0  0  0  0  0  0  0  0  0  0
  -20.0641   16.7631  -20.4816 C   0  0  0  0  0  0  0  0  0  0  0  0
  -19.3338   16.6106  -19.1612 C   0  0  0  0  0  0  0  0  0  0  0  0
  -18.3822   15.4908  -19.0815 C   0  0  0  0  0  0  0  0  0  0  0  0
  -16.9714   16.1418  -19.2846 C   0  0  0  0  0  0  0  0  0  0  0  0
  -16.9238   16.2773  -20.7876 C   0  0  0  0  0  0  0  0  0  0  0  0
  -18.3161   12.7332  -21.5420 O   0  0  0  0  0  0  0  0  0  0  0  0
  -20.7971   18.0049  -20.4714 N   0  0  0  0  0  0  0  0  0  0  0  0
  -21.7485   18.5402  -21.1866 C   0  0  0  0  0  0  0  0  0  0  0  0
  -22.0569   19.8132  -20.7406 N   0  0  0  0  0  0  0  0  0  0  0  0
  -21.2511   20.0505  -19.7132 C   0  0  0  0  0  0  0  0  0  0  0  0
  -20.4686   18.9578  -19.5266 C   0  0  0  0  0  0  0  0  0  0  0  0
  -19.5509   19.0162  -18.4959 C   0  0  0  0  0  0  0  0  0  0  0  0
  -19.4356   20.1410  -17.6875 C   0  0  0  0  0  0  0  0  0  0  0  0
  -20.2629   21.2028  -17.9379 C   0  0  0  0  0  0  0  0  0  0  0  0
  -21.1460   21.1506  -18.9262 N   0  0  0  0  0  0  0  0  0  0  0  0
  -22.4371   17.9809  -22.2995 N   0  0  0  0  0  0  0  0  0  0  0  0
  -21.9857   18.0855  -23.6703 C   0  0  0  0  0  0  0  0  0  0  0  0
  -23.6290   17.2244  -22.0352 C   0  0  0  0  0  0  0  0  0  0  0  0
  -18.9213   10.2767  -17.3103 C   0  0  0  0  0  0  0  0  0  0  0  0
  -17.8863   10.1564  -18.2119 C   0  0  0  0  0  0  0  0  0  0  0  0
  -17.7243   11.1113  -19.2382 C   0  0  0  0  0  0  0  0  0  0  0  0
  -16.2459   10.8247  -20.3911 Br  0  0  0  0  0  0  0  0  0  0  0  0
  -18.5796   12.1666  -19.3594 C   0  0  0  0  0  0  0  0  0  0  0  0
  -19.6367   12.2861  -18.4411 C   0  0  0  0  0  0  0  0  0  0  0  0
  -20.5329   13.2894  -18.4806 F   0  0  0  0  0  0  0  0  0  0  0  0
  -19.7819   11.3475  -17.4465 C   0  0  0  0  0  0  0  0  0  0  0  0
  -19.1790    9.9145  -14.9603 F   0  0  0  0  0  0  0  0  0  0  0  0
  -19.1219    9.2996  -16.1881 C   0  0  0  0  0  0  0  0  0  0  0  0
  -20.2809    8.5767  -16.3448 F   0  0  0  0  0  0  0  0  0  0  0  0
  -18.0844    8.3721  -16.1972 F   0  0  0  0  0  0  0  0  0  0  0  0
 31 32  1  0  0  0
 32 33  1  0  0  0
 32 34  1  0  0  0
 32 23  1  0  0  0
 23 24  2  0  0  0
 24 25  1  0  0  0
 25 26  1  0  0  0
 25 27  2  0  0  0
 27  1  1  0  0  0
  1  2  1  0  0  0
  2  3  1  0  0  0
  3  4  1  0  0  0
  4  5  1  0  0  0
  5 11  1  0  0  0
 11 12  1  0  0  0
 12 20  1  0  0  0
 20 21  1  0  0  0
 20 22  1  0  0  0
 12 13  2  0  0  0
 13 14  1  0  0  0
 14 15  2  0  0  0
 15 16  1  0  0  0
 16 17  2  0  0  0
 17 18  1  0  0  0
 18 19  2  0  0  0
  5  6  1  0  0  0
  6  7  1  0  0  0
  7  8  1  0  0  0
  8  9  1  0  0  0
  1 10  2  0  0  0
 27 28  1  0  0  0
 28 29  1  0  0  0
 28 30  2  0  0  0
 30 23  1  0  0  0
  7  2  1  0  0  0
  9  3  1  0  0  0
 15 11  1  0  0  0
 19 14  1  0  0  0
M  END
> <minimizedAffinity>
-8.15514

> <CNNscore>
0.0748286620

> <CNNaffinity>
6.3387103081

> <CNN_VS>
0.4743172228

> <CNNaffinity_variance>
0.1401006579

$$$$
[H]c1nc2nc(N(C([H])([H])[H])C([H])([H])[H])n([C@]3([H])C([H])([H])[C@@]4([H])N(C(=O)c5c(F)c([H])c(C(F)(F)F)c([H])c5Br)[C@]([H])(C([H])([H])C4([H])[H])C3([H])[H])c2c([H])c1[H]


 34 38  0  0  0  0  0  0  0  0999 V2000
  -18.6002   14.3956  -21.0799 C   0  0  0  0  0  0  0  0  0  0  0  0
  -18.5551   15.7636  -21.3412 N   0  0  0  0  0  0  0  0  0  0  0  0
  -18.1706   16.3415  -22.6135 C   0  0  0  0  0  0  0  0  0  0  0  0
  -19.2474   17.0849  -23.3371 C   0  0  0  0  0  0  0  0  0  0  0  0
  -20.2256   17.6834  -22.4478 C   0  0  0  0  0  0  0  0  0  0  0  0
  -19.7234   17.9156  -21.0358 C   0  0  0  0  0  0  0  0  0  0  0  0
  -18.7870   16.9066  -20.5153 C   0  0  0  0  0  0  0  0  0  0  0  0
  -17.3687   17.5574  -20.6574 C   0  0  0  0  0  0  0  0  0  0  0  0
  -17.0735   17.3031  -22.1161 C   0  0  0  0  0  0  0  0  0  0  0  0
  -18.2854   13.6154  -22.1212 O   0  0  0  0  0  0  0  0  0  0  0  0
  -20.9626   18.8450  -22.8805 N   0  0  0  0  0  0  0  0  0  0  0  0
  -20.9857   20.1124  -22.5700 C   0  0  0  0  0  0  0  0  0  0  0  0
  -21.9475   20.7905  -23.2977 N   0  0  0  0  0  0  0  0  0  0  0  0
  -22.5275   19.8865  -24.0770 C   0  0  0  0  0  0  0  0  0  0  0  0
  -21.9421   18.6852  -23.8415 C   0  0  0  0  0  0  0  0  0  0  0  0
  -22.4189   17.6070  -24.5613 C   0  0  0  0  0  0  0  0  0  0  0  0
  -23.4488   17.7466  -25.4841 C   0  0  0  0  0  0  0  0  0  0  0  0
  -23.9865   18.9924  -25.6669 C   0  0  0  0  0  0  0  0  0  0  0  0
  -23.5312   20.0306  -24.9784 N   0  0  0  0  0  0  0  0  0  0  0  0
  -20.1809   20.8033  -21.6211 N   0  0  0  0  0  0  0  0  0  0  0  0
  -20.6366   21.2030  -20.3072 C   0  0  0  0  0  0  0  0  0  0  0  0
  -18.8162   21.0758  -21.9761 C   0  0  0  0  0  0  0  0  0  0  0  0
  -19.4356   11.8579  -17.8135 C   0  0  0  0  0  0  0  0  0  0  0  0
  -20.3419   12.8360  -18.1603 C   0  0  0  0  0  0  0  0  0  0  0  0
  -20.0634   13.7155  -19.2281 C   0  0  0  0  0  0  0  0  0  0  0  0
  -21.4112   14.9968  -19.6003 Br  0  0  0  0  0  0  0  0  0  0  0  0
  -18.9021   13.6175  -19.9363 C   0  0  0  0  0  0  0  0  0  0  0  0
  -17.9771   12.6215  -19.5793 C   0  0  0  0  0  0  0  0  0  0  0  0
  -16.8038   12.4480  -20.2154 F   0  0  0  0  0  0  0  0  0  0  0  0
  -18.2624   11.7721  -18.5361 C   0  0  0  0  0  0  0  0  0  0  0  0
  -20.9592   10.3459  -16.7586 F   0  0  0  0  0  0  0  0  0  0  0  0
  -19.6961   10.8846  -16.7003 C   0  0  0  0  0  0  0  0  0  0  0  0
  -18.7992    9.8427  -16.7160 F   0  0  0  0  0  0  0  0  0  0  0  0
  -19.5194   11.5276  -15.4788 F   0  0  0  0  0  0  0  0  0  0  0  0
 31 32  1  0  0  0
 32 33  1  0  0  0
 32 34  1  0  0  0
 32 23  1  0  0  0
 23 24  2  0  0  0
 24 25  1  0  0  0
 25 26  1  0  0  0
 25 27  2  0  0  0
 27  1  1  0  0  0
  1  2  1  0  0  0
  2  3  1  0  0  0
  3  4  1  0  0  0
  4  5  1  0  0  0
  5 11  1  0  0  0
 11 12  1  0  0  0
 12 20  1  0  0  0
 20 21  1  0  0  0
 20 22  1  0  0  0
 12 13  2  0  0  0
 13 14  1  0  0  0
 14 15  2  0  0  0
 15 16  1  0  0  0
 16 17  2  0  0  0
 17 18  1  0  0  0
 18 19  2  0  0  0
  5  6  1  0  0  0
  6  7  1  0  0  0
  7  8  1  0  0  0
  8  9  1  0  0  0
  1 10  2  0  0  0
 27 28  1  0  0  0
 28 29  1  0  0  0
 28 30  2  0  0  0
 30 23  1  0  0  0
  7  2  1  0  0  0
  9  3  1  0  0  0
 15 11  1  0  0  0
 19 14  1  0  0  0
M  END
> <minimizedAffinity>
-8.50198

> <CNNscore>
0.0744442567

> <CNNaffinity>
6.1851739883

> <CNN_VS>
0.4604506791

> <CNNaffinity_variance>
0.2905917764

$$$$
[H]c1nc2nc(N(C([H])([H])[H])C([H])([H])[H])n([C@]3([H])C([H])([H])[C@@]4([H])N(C(=O)c5c(F)c([H])c(C(F)(F)F)c([H])c5Br)[C@]([H])(C([H])([H])C4([H])[H])C3([H])[H])c2c([H])c1[H]


 34 38  0  0  0  0  0  0  0  0999 V2000
  -18.1394   14.8787  -20.0963 C   0  0  0  0  0  0  0  0  0  0  0  0
  -19.2475   15.5535  -19.5880 N   0  0  0  0  0  0  0  0  0  0  0  0
  -19.7977   15.3425  -18.2637 C   0  0  0  0  0  0  0  0  0  0  0  0
  -19.7048   16.5086  -17.3325 C   0  0  0  0  0  0  0  0  0  0  0  0
  -19.7278   17.7889  -18.0154 C   0  0  0  0  0  0  0  0  0  0  0  0
  -20.3591   17.7480  -19.3937 C   0  0  0  0  0  0  0  0  0  0  0  0
  -20.1335   16.5151  -20.1649 C   0  0  0  0  0  0  0  0  0  0  0  0
  -21.4593   15.6936  -20.0141 C   0  0  0  0  0  0  0  0  0  0  0  0
  -21.2619   15.0638  -18.6561 C   0  0  0  0  0  0  0  0  0  0  0  0
  -17.5720   14.0133  -19.2470 O   0  0  0  0  0  0  0  0  0  0  0  0
  -20.2013   18.9585  -17.3171 N   0  0  0  0  0  0  0  0  0  0  0  0
  -20.5834   20.1611  -17.6502 C   0  0  0  0  0  0  0  0  0  0  0  0
  -20.9111   20.9112  -16.5347 N   0  0  0  0  0  0  0  0  0  0  0  0
  -20.7134   20.1215  -15.4866 C   0  0  0  0  0  0  0  0  0  0  0  0
  -20.2785   18.9181  -15.9384 C   0  0  0  0  0  0  0  0  0  0  0  0
  -20.0097   17.9543  -14.9862 C   0  0  0  0  0  0  0  0  0  0  0  0
  -20.1780   18.2052  -13.6295 C   0  0  0  0  0  0  0  0  0  0  0  0
  -20.6228   19.4442  -13.2531 C   0  0  0  0  0  0  0  0  0  0  0  0
  -20.8828   20.3724  -14.1642 N   0  0  0  0  0  0  0  0  0  0  0  0
  -20.6786   20.7279  -18.9522 N   0  0  0  0  0  0  0  0  0  0  0  0
  -21.9203   20.8988  -19.6750 C   0  0  0  0  0  0  0  0  0  0  0  0
  -19.4687   21.2033  -19.5630 C   0  0  0  0  0  0  0  0  0  0  0  0
  -16.0210   14.6664  -23.7398 C   0  0  0  0  0  0  0  0  0  0  0  0
  -15.9206   15.8000  -22.9630 C   0  0  0  0  0  0  0  0  0  0  0  0
  -16.6488   15.9021  -21.7585 C   0  0  0  0  0  0  0  0  0  0  0  0
  -16.3960   17.5120  -20.7883 Br  0  0  0  0  0  0  0  0  0  0  0  0
  -17.4599   14.8896  -21.3383 C   0  0  0  0  0  0  0  0  0  0  0  0
  -17.5639   13.7353  -22.1332 C   0  0  0  0  0  0  0  0  0  0  0  0
  -18.3396   12.6858  -21.8047 F   0  0  0  0  0  0  0  0  0  0  0  0
  -16.8485   13.6506  -23.3046 C   0  0  0  0  0  0  0  0  0  0  0  0
  -16.0134   13.9659  -26.0265 F   0  0  0  0  0  0  0  0  0  0  0  0
  -15.2495   14.5013  -25.0172 C   0  0  0  0  0  0  0  0  0  0  0  0
  -14.7485   15.7000  -25.4668 F   0  0  0  0  0  0  0  0  0  0  0  0
  -14.1466   13.6851  -24.7841 F   0  0  0  0  0  0  0  0  0  0  0  0
 31 32  1  0  0  0
 32 33  1  0  0  0
 32 34  1  0  0  0
 32 23  1  0  0  0
 23 24  2  0  0  0
 24 25  1  0  0  0
 25 26  1  0  0  0
 25 27  2  0  0  0
 27  1  1  0  0  0
  1  2  1  0  0  0
  2  3  1  0  0  0
  3  4  1  0  0  0
  4  5  1  0  0  0
  5 11  1  0  0  0
 11 12  1  0  0  0
 12 20  1  0  0  0
 20 21  1  0  0  0
 20 22  1  0  0  0
 12 13  2  0  0  0
 13 14  1  0  0  0
 14 15  2  0  0  0
 15 16  1  0  0  0
 16 17  2  0  0  0
 17 18  1  0  0  0
 18 19  2  0  0  0
  5  6  1  0  0  0
  6  7  1  0  0  0
  7  8  1  0  0  0
  8  9  1  0  0  0
  1 10  2  0  0  0
 27 28  1  0  0  0
 28 29  1  0  0  0
 28 30  2  0  0  0
 30 23  1  0  0  0
  7  2  1  0  0  0
  9  3  1  0  0  0
 15 11  1  0  0  0
 19 14  1  0  0  0
M  END
> <minimizedAffinity>
-7.93146

> <CNNscore>
0.0681380928

> <CNNaffinity>
6.3485136032

> <CNN_VS>
0.4325756133

> <CNNaffinity_variance>
0.1121557727

$$$$
[H]c1nc2nc(N(C([H])([H])[H])C([H])([H])[H])n([C@]3([H])C([H])([H])[C@@]4([H])N(C(=O)c5c(F)c([H])c(C(F)(F)F)c([H])c5Br)[C@]([H])(C([H])([H])C4([H])[H])C3([H])[H])c2c([H])c1[H]


 34 38  0  0  0  0  0  0  0  0999 V2000
  -18.4598   13.3964  -20.2971 C   0  0  0  0  0  0  0  0  0  0  0  0
  -18.3601   14.7855  -20.3456 N   0  0  0  0  0  0  0  0  0  0  0  0
  -18.1647   15.5500  -21.5614 C   0  0  0  0  0  0  0  0  0  0  0  0
  -19.2942   16.4507  -21.9465 C   0  0  0  0  0  0  0  0  0  0  0  0
  -20.0527   16.9354  -20.8082 C   0  0  0  0  0  0  0  0  0  0  0  0
  -19.2930   16.9061  -19.4960 C   0  0  0  0  0  0  0  0  0  0  0  0
  -18.3569   15.7838  -19.3230 C   0  0  0  0  0  0  0  0  0  0  0  0
  -16.9417   16.3855  -19.6239 C   0  0  0  0  0  0  0  0  0  0  0  0
  -16.9287   16.3653  -21.1335 C   0  0  0  0  0  0  0  0  0  0  0  0
  -18.3928   12.7877  -21.4875 O   0  0  0  0  0  0  0  0  0  0  0  0
  -20.7663   18.1845  -20.9093 N   0  0  0  0  0  0  0  0  0  0  0  0
  -20.5241   19.3674  -21.4046 C   0  0  0  0  0  0  0  0  0  0  0  0
  -21.5822   20.2310  -21.1832 N   0  0  0  0  0  0  0  0  0  0  0  0
  -22.4977   19.5329  -20.5231 C   0  0  0  0  0  0  0  0  0  0  0  0
  -22.0229   18.2747  -20.3426 C   0  0  0  0  0  0  0  0  0  0  0  0
  -22.8391   17.3914  -19.6632 C   0  0  0  0  0  0  0  0  0  0  0  0
  -24.0882   17.7734  -19.1882 C   0  0  0  0  0  0  0  0  0  0  0  0
  -24.4973   19.0606  -19.4123 C   0  0  0  0  0  0  0  0  0  0  0  0
  -23.7171   19.9119  -20.0648 N   0  0  0  0  0  0  0  0  0  0  0  0
  -19.3602   19.8158  -22.0901 N   0  0  0  0  0  0  0  0  0  0  0  0
  -19.3041   20.0734  -23.5128 C   0  0  0  0  0  0  0  0  0  0  0  0
  -18.1833   20.0739  -21.3084 C   0  0  0  0  0  0  0  0  0  0  0  0
  -18.8819   10.3888  -17.3673 C   0  0  0  0  0  0  0  0  0  0  0  0
  -19.7854   11.4284  -17.4057 C   0  0  0  0  0  0  0  0  0  0  0  0
  -19.6397   12.4608  -18.3568 C   0  0  0  0  0  0  0  0  0  0  0  0
  -20.9685   13.8128  -18.3007 Br  0  0  0  0  0  0  0  0  0  0  0  0
  -18.6117   12.4526  -19.2528 C   0  0  0  0  0  0  0  0  0  0  0  0
  -17.6891   11.3933  -19.2103 C   0  0  0  0  0  0  0  0  0  0  0  0
  -16.6413   11.2989  -20.0496 F   0  0  0  0  0  0  0  0  0  0  0  0
  -17.8440   10.3948  -18.2775 C   0  0  0  0  0  0  0  0  0  0  0  0
  -20.0811    8.4434  -16.6621 F   0  0  0  0  0  0  0  0  0  0  0  0
  -19.0070    9.2563  -16.3895 C   0  0  0  0  0  0  0  0  0  0  0  0
  -17.8812    8.4672  -16.3791 F   0  0  0  0  0  0  0  0  0  0  0  0
  -19.1280    9.7731  -15.1030 F   0  0  0  0  0  0  0  0  0  0  0  0
 31 32  1  0  0  0
 32 33  1  0  0  0
 32 34  1  0  0  0
 32 23  1  0  0  0
 23 24  2  0  0  0
 24 25  1  0  0  0
 25 26  1  0  0  0
 25 27  2  0  0  0
 27  1  1  0  0  0
  1  2  1  0  0  0
  2  3  1  0  0  0
  3  4  1  0  0  0
  4  5  1  0  0  0
  5 11  1  0  0  0
 11 12  1  0  0  0
 12 20  1  0  0  0
 20 21  1  0  0  0
 20 22  1  0  0  0
 12 13  2  0  0  0
 13 14  1  0  0  0
 14 15  2  0  0  0
 15 16  1  0  0  0
 16 17  2  0  0  0
 17 18  1  0  0  0
 18 19  2  0  0  0
  5  6  1  0  0  0
  6  7  1  0  0  0
  7  8  1  0  0  0
  8  9  1  0  0  0
  1 10  2  0  0  0
 27 28  1  0  0  0
 28 29  1  0  0  0
 28 30  2  0  0  0
 30 23  1  0  0  0
  7  2  1  0  0  0
  9  3  1  0  0  0
 15 11  1  0  0  0
 19 14  1  0  0  0
M  END
> <minimizedAffinity>
-8.00309

> <CNNscore>
0.0669413060

> <CNNaffinity>
6.3051900864

> <CNN_VS>
0.4220776558

> <CNNaffinity_variance>
0.1773758978

$$$$
[H]c1nc(N([H])[H])c2c([H])c(C([H])(C([H])([H])[H])C([H])([H])[H])c([H])c([H])c2n1


 16 17  0  0  0  0  0  0  0  0999 V2000
  -15.0447   10.3060  -21.9363 N   0  0  0  0  0  0  0  0  0  0  0  0
  -16.0488   10.7242  -21.0198 C   0  0  0  0  0  0  0  0  0  0  0  0
  -16.1907   10.0171  -19.8857 N   0  0  0  0  0  0  0  0  0  0  0  0
  -17.1371   10.3787  -18.9790 C   0  0  0  0  0  0  0  0  0  0  0  0
  -17.8890   11.4335  -19.2648 N   0  0  0  0  0  0  0  0  0  0  0  0
  -17.8012   12.1820  -20.3742 C   0  0  0  0  0  0  0  0  0  0  0  0
  -18.6110   13.2741  -20.6243 C   0  0  0  0  0  0  0  0  0  0  0  0
  -18.4541   14.0018  -21.8073 C   0  0  0  0  0  0  0  0  0  0  0  0
  -17.4977   13.6467  -22.7368 C   0  0  0  0  0  0  0  0  0  0  0  0
  -16.7134   12.5535  -22.4482 C   0  0  0  0  0  0  0  0  0  0  0  0
  -16.8422   11.8177  -21.2956 C   0  0  0  0  0  0  0  0  0  0  0  0
  -15.2409    9.6598  -22.7399 H   0  0  0  0  0  0  0  0  0  0  0  0
  -14.0788   10.6805  -21.7695 H   0  0  0  0  0  0  0  0  0  0  0  0
  -17.3647   14.4306  -23.9587 C   0  0  0  0  0  0  0  0  0  0  0  0
  -17.6826   13.4969  -25.1348 C   0  0  0  0  0  0  0  0  0  0  0  0
  -18.3149   15.5881  -24.0638 C   0  0  0  0  0  0  0  0  0  0  0  0
  1  2  1  0  0  0
  2  3  2  0  0  0
  3  4  1  0  0  0
  4  5  2  0  0  0
  5  6  1  0  0  0
  6  7  2  0  0  0
  7  8  1  0  0  0
  8  9  2  0  0  0
  9 14  1  0  0  0
 14 15  1  0  0  0
 14 16  1  0  0  0
  9 10  1  0  0  0
 10 11  2  0  0  0
 11  2  1  0  0  0
 11  6  1  0  0  0
  1 12  1  0  0  0
  1 13  1  0  0  0
M  END
> <minimizedAffinity>
-6.69764

> <CNNscore>
0.9175885916

> <CNNaffinity>
5.4140362740

> <CNN_VS>
4.9678578377

> <CNNaffinity_variance>
0.2615703940

$$$$
[H]c1nc(N([H])[H])c2c([H])c(C([H])(C([H])([H])[H])C([H])([H])[H])c([H])c([H])c2n1


 16 17  0  0  0  0  0  0  0  0999 V2000
  -17.2922   13.0710  -22.6669 N   0  0  0  0  0  0  0  0  0  0  0  0
  -16.8856   12.0481  -21.7661 C   0  0  0  0  0  0  0  0  0  0  0  0
  -15.8552   11.2675  -22.1337 N   0  0  0  0  0  0  0  0  0  0  0  0
  -15.4305   10.2763  -21.3056 C   0  0  0  0  0  0  0  0  0  0  0  0
  -16.0677   10.1258  -20.1520 N   0  0  0  0  0  0  0  0  0  0  0  0
  -17.1002   10.8669  -19.7236 C   0  0  0  0  0  0  0  0  0  0  0  0
  -17.7305   10.6684  -18.5094 C   0  0  0  0  0  0  0  0  0  0  0  0
  -18.8011   11.4865  -18.1379 C   0  0  0  0  0  0  0  0  0  0  0  0
  -19.2432   12.4966  -18.9680 C   0  0  0  0  0  0  0  0  0  0  0  0
  -18.5877   12.6595  -20.1669 C   0  0  0  0  0  0  0  0  0  0  0  0
  -17.5330   11.8730  -20.5613 C   0  0  0  0  0  0  0  0  0  0  0  0
  -18.0587   12.9374  -23.3715 H   0  0  0  0  0  0  0  0  0  0  0  0
  -16.7808   13.9842  -22.5938 H   0  0  0  0  0  0  0  0  0  0  0  0
  -20.3629   13.3288  -18.5452 C   0  0  0  0  0  0  0  0  0  0  0  0
  -19.8352   14.2889  -17.4701 C   0  0  0  0  0  0  0  0  0  0  0  0
  -20.9491   14.1843  -19.6307 C   0  0  0  0  0  0  0  0  0  0  0  0
  1  2  1  0  0  0
  2  3  2  0  0  0
  3  4  1  0  0  0
  4  5  2  0  0  0
  5  6  1  0  0  0
  6  7  2  0  0  0
  7  8  1  0  0  0
  8  9  2  0  0  0
  9 14  1  0  0  0
 14 15  1  0  0  0
 14 16  1  0  0  0
  9 10  1  0  0  0
 10 11  2  0  0  0
 11  2  1  0  0  0
 11  6  1  0  0  0
  1 12  1  0  0  0
  1 13  1  0  0  0
M  END
> <minimizedAffinity>
-6.14292

> <CNNscore>
0.8976316452

> <CNNaffinity>
5.2574152946

> <CNN_VS>
4.7192225456

> <CNNaffinity_variance>
0.1219051629

$$$$
[H]c1nc(N([H])[H])c2c([H])c(C([H])(C([H])([H])[H])C([H])([H])[H])c([H])c([H])c2n1


 16 17  0  0  0  0  0  0  0  0999 V2000
  -14.6506   11.5242  -23.1276 N   0  0  0  0  0  0  0  0  0  0  0  0
  -15.8566   12.0959  -22.6359 C   0  0  0  0  0  0  0  0  0  0  0  0
  -16.4368   11.5095  -21.5748 N   0  0  0  0  0  0  0  0  0  0  0  0
  -17.5910   12.0201  -21.0692 C   0  0  0  0  0  0  0  0  0  0  0  0
  -18.0976   13.0940  -21.6606 N   0  0  0  0  0  0  0  0  0  0  0  0
  -17.5723   13.7275  -22.7196 C   0  0  0  0  0  0  0  0  0  0  0  0
  -18.1415   14.8459  -23.2996 C   0  0  0  0  0  0  0  0  0  0  0  0
  -17.5289   15.4470  -24.4027 C   0  0  0  0  0  0  0  0  0  0  0  0
  -16.3571   14.9401  -24.9269 C   0  0  0  0  0  0  0  0  0  0  0  0
  -15.8248   13.8260  -24.3193 C   0  0  0  0  0  0  0  0  0  0  0  0
  -16.4017   13.2121  -23.2346 C   0  0  0  0  0  0  0  0  0  0  0  0
  -14.6302   10.8212  -23.9069 H   0  0  0  0  0  0  0  0  0  0  0  0
  -13.7638   11.8435  -22.6667 H   0  0  0  0  0  0  0  0  0  0  0  0
  -15.7485   15.5952  -26.0782 C   0  0  0  0  0  0  0  0  0  0  0  0
  -14.2332   15.3705  -25.9806 C   0  0  0  0  0  0  0  0  0  0  0  0
  -16.1768   15.0447  -27.4077 C   0  0  0  0  0  0  0  0  0  0  0  0
  1  2  1  0  0  0
  2  3  2  0  0  0
  3  4  1  0  0  0
  4  5  2  0  0  0
  5  6  1  0  0  0
  6  7  2  0  0  0
  7  8  1  0  0  0
  8  9  2  0  0  0
  9 14  1  0  0  0
 14 15  1  0  0  0
 14 16  1  0  0  0
  9 10  1  0  0  0
 10 11  2  0  0  0
 11  2  1  0  0  0
 11  6  1  0  0  0
  1 12  1  0  0  0
  1 13  1  0  0  0
M  END
> <minimizedAffinity>
-6.37827

> <CNNscore>
0.8691499233

> <CNNaffinity>
5.3547925949

> <CNN_VS>
4.6541175842

> <CNNaffinity_variance>
0.2553600669

$$$$
[H]c1nc(N([H])[H])c2c([H])c(C([H])(C([H])([H])[H])C([H])([H])[H])c([H])c([H])c2n1


 16 17  0  0  0  0  0  0  0  0999 V2000
  -18.0446   13.7254  -20.2370 N   0  0  0  0  0  0  0  0  0  0  0  0
  -17.6370   12.3721  -20.0770 C   0  0  0  0  0  0  0  0  0  0  0  0
  -16.7521   11.8794  -20.9605 N   0  0  0  0  0  0  0  0  0  0  0  0
  -16.3326   10.5910  -20.8482 C   0  0  0  0  0  0  0  0  0  0  0  0
  -16.8280    9.8693  -19.8515 N   0  0  0  0  0  0  0  0  0  0  0  0
  -17.7113   10.2966  -18.9372 C   0  0  0  0  0  0  0  0  0  0  0  0
  -18.1973    9.5020  -17.9156 C   0  0  0  0  0  0  0  0  0  0  0  0
  -19.1173   10.0256  -17.0029 C   0  0  0  0  0  0  0  0  0  0  0  0
  -19.5522   11.3315  -17.1042 C   0  0  0  0  0  0  0  0  0  0  0  0
  -19.0432   12.0872  -18.1355 C   0  0  0  0  0  0  0  0  0  0  0  0
  -18.1385   11.6029  -19.0484 C   0  0  0  0  0  0  0  0  0  0  0  0
  -18.9055   14.0014  -20.7705 H   0  0  0  0  0  0  0  0  0  0  0  0
  -17.4332   14.4506  -19.7883 H   0  0  0  0  0  0  0  0  0  0  0  0
  -20.5124   11.8411  -16.1329 C   0  0  0  0  0  0  0  0  0  0  0  0
  -21.0846   13.1470  -16.7015 C   0  0  0  0  0  0  0  0  0  0  0  0
  -21.6836   10.9365  -15.8799 C   0  0  0  0  0  0  0  0  0  0  0  0
  1  2  1  0  0  0
  2  3  2  0  0  0
  3  4  1  0  0  0
  4  5  2  0  0  0
  5  6  1  0  0  0
  6  7  2  0  0  0
  7  8  1  0  0  0
  8  9  2  0  0  0
  9 14  1  0  0  0
 14 15  1  0  0  0
 14 16  1  0  0  0
  9 10  1  0  0  0
 10 11  2  0  0  0
 11  2  1  0  0  0
 11  6  1  0  0  0
  1 12  1  0  0  0
  1 13  1  0  0  0
M  END
> <minimizedAffinity>
-5.64336

> <CNNscore>
0.7759443521

> <CNNaffinity>
4.6817145348

> <CNN_VS>
3.6327500343

> <CNNaffinity_variance>
0.0678338036

$$$$
[H]c1nc(N([H])[H])c2c([H])c(C([H])(C([H])([H])[H])C([H])([H])[H])c([H])c([H])c2n1


 16 17  0  0  0  0  0  0  0  0999 V2000
  -14.9378   16.8080  -25.2992 N   0  0  0  0  0  0  0  0  0  0  0  0
  -15.6053   15.8194  -26.0739 C   0  0  0  0  0  0  0  0  0  0  0  0
  -15.5447   15.9307  -27.4119 N   0  0  0  0  0  0  0  0  0  0  0  0
  -16.1672   15.0095  -28.1945 C   0  0  0  0  0  0  0  0  0  0  0  0
  -16.8169   14.0262  -27.5858 N   0  0  0  0  0  0  0  0  0  0  0  0
  -16.9173   13.8555  -26.2593 C   0  0  0  0  0  0  0  0  0  0  0  0
  -17.6082   12.8108  -25.6742 C   0  0  0  0  0  0  0  0  0  0  0  0
  -17.6642   12.7055  -24.2816 C   0  0  0  0  0  0  0  0  0  0  0  0
  -17.0373   13.6330  -23.4745 C   0  0  0  0  0  0  0  0  0  0  0  0
  -16.3609   14.6564  -24.0979 C   0  0  0  0  0  0  0  0  0  0  0  0
  -16.2869   14.7882  -25.4630 C   0  0  0  0  0  0  0  0  0  0  0  0
  -15.4204   17.6644  -24.9310 H   0  0  0  0  0  0  0  0  0  0  0  0
  -13.9200   16.6391  -25.1081 H   0  0  0  0  0  0  0  0  0  0  0  0
  -17.1185   13.4890  -22.0260 C   0  0  0  0  0  0  0  0  0  0  0  0
  -18.2705   14.3817  -21.5444 C   0  0  0  0  0  0  0  0  0  0  0  0
  -17.4302   12.0983  -21.5539 C   0  0  0  0  0  0  0  0  0  0  0  0
  1  2  1  0  0  0
  2  3  2  0  0  0
  3  4  1  0  0  0
  4  5  2  0  0  0
  5  6  1  0  0  0
  6  7  2  0  0  0
  7  8  1  0  0  0
  8  9  2  0  0  0
  9 14  1  0  0  0
 14 15  1  0  0  0
 14 16  1  0  0  0
  9 10  1  0  0  0
 10 11  2  0  0  0
 11  2  1  0  0  0
 11  6  1  0  0  0
  1 12  1  0  0  0
  1 13  1  0  0  0
M  END
> <minimizedAffinity>
-6.40402

> <CNNscore>
0.6444870234

> <CNNaffinity>
5.3086919785

> <CNN_VS>
3.4213831425

> <CNNaffinity_variance>
0.3052684367

$$$$
[H]c1nc(N([H])[H])c2c([H])c(C([H])(C([H])([H])[H])C([H])([H])[H])c([H])c([H])c2n1


 16 17  0  0  0  0  0  0  0  0999 V2000
  -15.1433   12.7921  -23.8043 N   0  0  0  0  0  0  0  0  0  0  0  0
  -15.7834   12.2030  -22.6790 C   0  0  0  0  0  0  0  0  0  0  0  0
  -15.3132   11.0221  -22.2423 N   0  0  0  0  0  0  0  0  0  0  0  0
  -15.8928   10.4201  -21.1697 C   0  0  0  0  0  0  0  0  0  0  0  0
  -16.9147   11.0412  -20.5958 N   0  0  0  0  0  0  0  0  0  0  0  0
  -17.4332   12.2174  -20.9787 C   0  0  0  0  0  0  0  0  0  0  0  0
  -18.5016   12.8234  -20.3445 C   0  0  0  0  0  0  0  0  0  0  0  0
  -18.9818   14.0515  -20.8078 C   0  0  0  0  0  0  0  0  0  0  0  0
  -18.4037   14.6745  -21.8953 C   0  0  0  0  0  0  0  0  0  0  0  0
  -17.3429   14.0368  -22.4967 C   0  0  0  0  0  0  0  0  0  0  0  0
  -16.8474   12.8304  -22.0662 C   0  0  0  0  0  0  0  0  0  0  0  0
  -15.4817   12.6547  -24.7884 H   0  0  0  0  0  0  0  0  0  0  0  0
  -14.2999   13.3828  -23.6022 H   0  0  0  0  0  0  0  0  0  0  0  0
  -18.9330   15.9549  -22.3486 C   0  0  0  0  0  0  0  0  0  0  0  0
  -18.2258   17.0511  -21.5397 C   0  0  0  0  0  0  0  0  0  0  0  0
  -18.6754   16.2592  -23.7960 C   0  0  0  0  0  0  0  0  0  0  0  0
  1  2  1  0  0  0
  2  3  2  0  0  0
  3  4  1  0  0  0
  4  5  2  0  0  0
  5  6  1  0  0  0
  6  7  2  0  0  0
  7  8  1  0  0  0
  8  9  2  0  0  0
  9 14  1  0  0  0
 14 15  1  0  0  0
 14 16  1  0  0  0
  9 10  1  0  0  0
 10 11  2  0  0  0
 11  2  1  0  0  0
 11  6  1  0  0  0
  1 12  1  0  0  0
  1 13  1  0  0  0
M  END
> <minimizedAffinity>
-5.70656

> <CNNscore>
0.6171607375

> <CNNaffinity>
5.1548676491

> <CNN_VS>
3.1813819408

> <CNNaffinity_variance>
0.3785673678

$$$$
[H]c1nc(N([H])[H])c2c([H])c(C([H])(C([H])([H])[H])C([H])([H])[H])c([H])c([H])c2n1


 16 17  0  0  0  0  0  0  0  0999 V2000
  -15.8037   10.0434  -20.8995 N   0  0  0  0  0  0  0  0  0  0  0  0
  -16.5920   11.2128  -21.0844 C   0  0  0  0  0  0  0  0  0  0  0  0
  -16.3687   11.9467  -22.1880 N   0  0  0  0  0  0  0  0  0  0  0  0
  -17.0976   13.0731  -22.4081 C   0  0  0  0  0  0  0  0  0  0  0  0
  -18.0119   13.3985  -21.5038 N   0  0  0  0  0  0  0  0  0  0  0  0
  -18.2859   12.7137  -20.3837 C   0  0  0  0  0  0  0  0  0  0  0  0
  -19.2515   13.0968  -19.4716 C   0  0  0  0  0  0  0  0  0  0  0  0
  -19.4747   12.3255  -18.3276 C   0  0  0  0  0  0  0  0  0  0  0  0
  -18.7428   11.1796  -18.0908 C   0  0  0  0  0  0  0  0  0  0  0  0
  -17.7920   10.8348  -19.0240 C   0  0  0  0  0  0  0  0  0  0  0  0
  -17.5483   11.5707  -20.1578 C   0  0  0  0  0  0  0  0  0  0  0  0
  -14.9171   10.0374  -20.3375 H   0  0  0  0  0  0  0  0  0  0  0  0
  -16.1557    9.1686  -21.3597 H   0  0  0  0  0  0  0  0  0  0  0  0
  -19.0050   10.4018  -16.8861 C   0  0  0  0  0  0  0  0  0  0  0  0
  -20.4633   10.6631  -16.4847 C   0  0  0  0  0  0  0  0  0  0  0  0
  -18.8700    8.9168  -17.0607 C   0  0  0  0  0  0  0  0  0  0  0  0
  1  2  1  0  0  0
  2  3  2  0  0  0
  3  4  1  0  0  0
  4  5  2  0  0  0
  5  6  1  0  0  0
  6  7  2  0  0  0
  7  8  1  0  0  0
  8  9  2  0  0  0
  9 14  1  0  0  0
 14 15  1  0  0  0
 14 16  1  0  0  0
  9 10  1  0  0  0
 10 11  2  0  0  0
 11  2  1  0  0  0
 11  6  1  0  0  0
  1 12  1  0  0  0
  1 13  1  0  0  0
M  END
> <minimizedAffinity>
-6.06005

> <CNNscore>
0.5968335271

> <CNNaffinity>
4.7783594131

> <CNN_VS>
2.8518850803

> <CNNaffinity_variance>
0.1489927620

$$$$
[H]c1nc(N([H])[H])c2c([H])c(C([H])(C([H])([H])[H])C([H])([H])[H])c([H])c([H])c2n1


 16 17  0  0  0  0  0  0  0  0999 V2000
  -18.8966   12.6886  -18.4518 N   0  0  0  0  0  0  0  0  0  0  0  0
  -18.0530   11.9724  -19.3454 C   0  0  0  0  0  0  0  0  0  0  0  0
  -17.6139   10.7640  -18.9540 N   0  0  0  0  0  0  0  0  0  0  0  0
  -16.8051   10.0418  -19.7743 C   0  0  0  0  0  0  0  0  0  0  0  0
  -16.4830   10.5770  -20.9446 N   0  0  0  0  0  0  0  0  0  0  0  0
  -16.8846   11.7741  -21.3968 C   0  0  0  0  0  0  0  0  0  0  0  0
  -16.5194   12.2869  -22.6275 C   0  0  0  0  0  0  0  0  0  0  0  0
  -16.9824   13.5448  -23.0236 C   0  0  0  0  0  0  0  0  0  0  0  0
  -17.8039   14.2893  -22.2016 C   0  0  0  0  0  0  0  0  0  0  0  0
  -18.1428   13.7415  -20.9857 C   0  0  0  0  0  0  0  0  0  0  0  0
  -17.7050   12.5088  -20.5670 C   0  0  0  0  0  0  0  0  0  0  0  0
  -18.5312   13.3959  -17.7676 H   0  0  0  0  0  0  0  0  0  0  0  0
  -19.9220   12.4736  -18.5084 H   0  0  0  0  0  0  0  0  0  0  0  0
  -18.2662   15.5971  -22.6503 C   0  0  0  0  0  0  0  0  0  0  0  0
  -17.1916   16.6193  -22.2549 C   0  0  0  0  0  0  0  0  0  0  0  0
  -18.4455   15.7194  -24.1358 C   0  0  0  0  0  0  0  0  0  0  0  0
  1  2  1  0  0  0
  2  3  2  0  0  0
  3  4  1  0  0  0
  4  5  2  0  0  0
  5  6  1  0  0  0
  6  7  2  0  0  0
  7  8  1  0  0  0
  8  9  2  0  0  0
  9 14  1  0  0  0
 14 15  1  0  0  0
 14 16  1  0  0  0
  9 10  1  0  0  0
 10 11  2  0  0  0
 11  2  1  0  0  0
 11  6  1  0  0  0
  1 12  1  0  0  0
  1 13  1  0  0  0
M  END
> <minimizedAffinity>
-5.84365

> <CNNscore>
0.5924994946

> <CNNaffinity>
5.0929603577

> <CNN_VS>
3.0175764561

> <CNNaffinity_variance>
0.4280363619

$$$$
[H]c1nc(N([H])[H])c2c([H])c(C([H])(C([H])([H])[H])C([H])([H])[H])c([H])c([H])c2n1


 16 17  0  0  0  0  0  0  0  0999 V2000
  -16.5256    9.7923  -19.5991 N   0  0  0  0  0  0  0  0  0  0  0  0
  -17.4498   10.8501  -19.3757 C   0  0  0  0  0  0  0  0  0  0  0  0
  -18.1453   10.8372  -18.2257 N   0  0  0  0  0  0  0  0  0  0  0  0
  -19.0405   11.8275  -17.9675 C   0  0  0  0  0  0  0  0  0  0  0  0
  -19.1859   12.7768  -18.8825 N   0  0  0  0  0  0  0  0  0  0  0  0
  -18.5263   12.8506  -20.0479 C   0  0  0  0  0  0  0  0  0  0  0  0
  -18.7153   13.8639  -20.9692 C   0  0  0  0  0  0  0  0  0  0  0  0
  -17.9862   13.8665  -22.1616 C   0  0  0  0  0  0  0  0  0  0  0  0
  -17.0741   12.8682  -22.4374 C   0  0  0  0  0  0  0  0  0  0  0  0
  -16.9171   11.8793  -21.4935 C   0  0  0  0  0  0  0  0  0  0  0  0
  -17.6177   11.8478  -20.3125 C   0  0  0  0  0  0  0  0  0  0  0  0
  -16.7743    8.9217  -20.1302 H   0  0  0  0  0  0  0  0  0  0  0  0
  -15.5638    9.9242  -19.2009 H   0  0  0  0  0  0  0  0  0  0  0  0
  -16.3328   12.9059  -23.6922 C   0  0  0  0  0  0  0  0  0  0  0  0
  -17.3077   13.3716  -24.7824 C   0  0  0  0  0  0  0  0  0  0  0  0
  -15.1822   13.8702  -23.7082 C   0  0  0  0  0  0  0  0  0  0  0  0
  1  2  1  0  0  0
  2  3  2  0  0  0
  3  4  1  0  0  0
  4  5  2  0  0  0
  5  6  1  0  0  0
  6  7  2  0  0  0
  7  8  1  0  0  0
  8  9  2  0  0  0
  9 14  1  0  0  0
 14 15  1  0  0  0
 14 16  1  0  0  0
  9 10  1  0  0  0
 10 11  2  0  0  0
 11  2  1  0  0  0
 11  6  1  0  0  0
  1 12  1  0  0  0
  1 13  1  0  0  0
M  END
> <minimizedAffinity>
-6.62154

> <CNNscore>
0.5815754533

> <CNNaffinity>
4.9137973785

> <CNN_VS>
2.8577439785

> <CNNaffinity_variance>
0.1851167530

$$$$
[H]c1c([H])c([H])c(C([H])([H])[C@@]([H])(C(=O)N([H])[C@]([H])(C(=O)N([H])[C@]([H])(C(=O)N([H])[H])C([H])([H])c2c([H])n([H])c3c([H])c([H])c([H])c([H])c23)C([H])([H])c2c([H])c([H])c([H])c([H])c2[H])N([H])C(=O)[C@@]([H])(N([H])C(=O)[C@]([H])(N([H])C(=O)[C@@]([H])(N([H])[H])C([H])([H])C([H])(C([H])([H])[H])C([H])([H])[H])C([H])([H])c2c([H])c([H])c([H])c([H])c2[H])C([H])([H])c2c([H])c([H])c([H])c([H])c2[H])c([H])c1[H]


 77 82  0  0  0  0  0  0  0  0999 V2000
  -20.7923   15.7773  -17.0304 C   0  0  0  0  0  0  0  0  0  0  0  0
  -20.7320   15.6802  -18.5426 C   0  0  0  0  0  0  0  0  0  0  0  0
  -21.4663   14.8849  -19.1220 O   0  0  0  0  0  0  0  0  0  0  0  0
  -19.8445   16.4845  -19.2930 N   0  0  0  0  0  0  0  0  0  0  0  0
  -19.2603   17.1770  -18.7731 H   0  0  0  0  0  0  0  0  0  0  0  0
  -19.7581   16.3456  -20.7364 C   0  0  0  0  0  0  0  0  0  0  0  0
  -18.5320   15.7232  -21.1590 C   0  0  0  0  0  0  0  0  0  0  0  0
  -17.5710   15.6703  -20.3060 O   0  0  0  0  0  0  0  0  0  0  0  0
  -18.2383   15.1546  -22.4151 N   0  0  0  0  0  0  0  0  0  0  0  0
  -19.0398   15.1583  -23.1083 H   0  0  0  0  0  0  0  0  0  0  0  0
  -17.0157   14.5844  -22.8452 C   0  0  0  0  0  0  0  0  0  0  0  0
  -16.2400   15.5144  -23.7254 C   0  0  0  0  0  0  0  0  0  0  0  0
  -14.8616   15.3621  -23.9862 N   0  0  0  0  0  0  0  0  0  0  0  0
  -16.8583   16.4679  -24.2473 O   0  0  0  0  0  0  0  0  0  0  0  0
  -14.5452   14.6543  -24.7036 H   0  0  0  0  0  0  0  0  0  0  0  0
  -14.1117   15.8882  -23.5315 H   0  0  0  0  0  0  0  0  0  0  0  0
  -17.0220   13.2005  -23.3873 C   0  0  0  0  0  0  0  0  0  0  0  0
  -16.5291   12.1812  -22.4432 C   0  0  0  0  0  0  0  0  0  0  0  0
  -15.3629   11.4020  -22.6657 C   0  0  0  0  0  0  0  0  0  0  0  0
  -15.1742   10.5972  -21.6188 N   0  0  0  0  0  0  0  0  0  0  0  0
  -16.1410   10.7854  -20.7058 C   0  0  0  0  0  0  0  0  0  0  0  0
  -16.4297   10.2141  -19.4862 C   0  0  0  0  0  0  0  0  0  0  0  0
  -17.5289   10.5728  -18.7362 C   0  0  0  0  0  0  0  0  0  0  0  0
  -18.3521   11.5470  -19.2559 C   0  0  0  0  0  0  0  0  0  0  0  0
  -18.0879   12.1428  -20.4819 C   0  0  0  0  0  0  0  0  0  0  0  0
  -16.9766   11.7627  -21.2135 C   0  0  0  0  0  0  0  0  0  0  0  0
  -14.3948    9.8878  -21.4641 H   0  0  0  0  0  0  0  0  0  0  0  0
  -20.0111   17.6737  -21.4535 C   0  0  0  0  0  0  0  0  0  0  0  0
  -21.2676   17.7783  -22.1577 C   0  0  0  0  0  0  0  0  0  0  0  0
  -21.2797   18.1716  -23.4793 C   0  0  0  0  0  0  0  0  0  0  0  0
  -22.4547   18.2783  -24.2210 C   0  0  0  0  0  0  0  0  0  0  0  0
  -23.6573   17.9747  -23.6012 C   0  0  0  0  0  0  0  0  0  0  0  0
  -23.6504   17.5842  -22.2912 C   0  0  0  0  0  0  0  0  0  0  0  0
  -22.4791   17.4907  -21.5912 C   0  0  0  0  0  0  0  0  0  0  0  0
  -19.8273   13.5318  -16.2751 C   0  0  0  0  0  0  0  0  0  0  0  0
  -18.6600   13.8211  -16.6123 O   0  0  0  0  0  0  0  0  0  0  0  0
  -20.8523   14.4830  -16.4505 N   0  0  0  0  0  0  0  0  0  0  0  0
  -21.8401   14.2055  -16.0967 H   0  0  0  0  0  0  0  0  0  0  0  0
  -20.0766   12.2038  -15.7326 C   0  0  0  0  0  0  0  0  0  0  0  0
  -21.8075   12.5051  -13.9393 C   0  0  0  0  0  0  0  0  0  0  0  0
  -22.6214   12.7646  -14.8556 O   0  0  0  0  0  0  0  0  0  0  0  0
  -20.4969   12.2149  -14.3266 N   0  0  0  0  0  0  0  0  0  0  0  0
  -19.7753   12.0005  -13.6181 H   0  0  0  0  0  0  0  0  0  0  0  0
  -22.3383   12.5420  -12.5358 C   0  0  0  0  0  0  0  0  0  0  0  0
  -23.9228   14.3992  -11.8398 C   0  0  0  0  0  0  0  0  0  0  0  0
  -24.8595   13.5598  -11.8276 O   0  0  0  0  0  0  0  0  0  0  0  0
  -22.6311   13.9246  -12.1872 N   0  0  0  0  0  0  0  0  0  0  0  0
  -21.8509   14.6135  -12.1900 H   0  0  0  0  0  0  0  0  0  0  0  0
  -24.1469   15.8140  -11.5174 C   0  0  0  0  0  0  0  0  0  0  0  0
  -24.1781   16.0849  -10.1084 N   0  0  0  0  0  0  0  0  0  0  0  0
  -24.5258   15.2442   -9.5918 H   0  0  0  0  0  0  0  0  0  0  0  0
  -24.7913   16.8936   -9.8583 H   0  0  0  0  0  0  0  0  0  0  0  0
  -23.3587   16.8032  -12.2974 C   0  0  0  0  0  0  0  0  0  0  0  0
  -23.4205   16.6301  -14.8308 C   0  0  0  0  0  0  0  0  0  0  0  0
  -23.9524   17.2511  -13.5873 C   0  0  0  0  0  0  0  0  0  0  0  0
  -23.9427   18.7665  -13.7268 C   0  0  0  0  0  0  0  0  0  0  0  0
  -21.4106   11.8528  -11.6019 C   0  0  0  0  0  0  0  0  0  0  0  0
  -21.4691   10.4082  -11.5458 C   0  0  0  0  0  0  0  0  0  0  0  0
  -22.6460    9.7243  -11.4603 C   0  0  0  0  0  0  0  0  0  0  0  0
  -22.6581    8.3252  -11.4240 C   0  0  0  0  0  0  0  0  0  0  0  0
  -21.4902    7.6064  -11.4738 C   0  0  0  0  0  0  0  0  0  0  0  0
  -20.2981    8.2893  -11.5590 C   0  0  0  0  0  0  0  0  0  0  0  0
  -20.2816    9.6889  -11.5949 C   0  0  0  0  0  0  0  0  0  0  0  0
  -20.7235   11.1397  -16.5020 C   0  0  0  0  0  0  0  0  0  0  0  0
  -20.7416    9.7844  -16.0065 C   0  0  0  0  0  0  0  0  0  0  0  0
  -21.9560    9.2137  -15.6054 C   0  0  0  0  0  0  0  0  0  0  0  0
  -22.0088    7.9314  -15.1072 C   0  0  0  0  0  0  0  0  0  0  0  0
  -20.8704    7.1591  -14.9835 C   0  0  0  0  0  0  0  0  0  0  0  0
  -19.6751    7.7111  -15.3743 C   0  0  0  0  0  0  0  0  0  0  0  0
  -19.6448    8.9976  -15.8707 C   0  0  0  0  0  0  0  0  0  0  0  0
  -19.6682   16.6836  -16.6553 C   0  0  0  0  0  0  0  0  0  0  0  0
  -19.9962   17.8493  -15.8575 C   0  0  0  0  0  0  0  0  0  0  0  0
  -19.8440   17.8264  -14.4901 C   0  0  0  0  0  0  0  0  0  0  0  0
  -20.1253   18.9408  -13.7205 C   0  0  0  0  0  0  0  0  0  0  0  0
  -20.5688   20.1201  -14.2648 C   0  0  0  0  0  0  0  0  0  0  0  0
  -20.7238   20.1394  -15.6503 C   0  0  0  0  0  0  0  0  0  0  0  0
  -20.4438   19.0312  -16.4239 C   0  0  0  0  0  0  0  0  0  0  0  0
 54 55  1  0  0  0
 55 56  1  0  0  0
 55 53  1  0  0  0
 53 49  1  0  0  0
 49 50  1  0  0  0
 49 45  1  0  0  0
 45 46  2  0  0  0
 45 47  1  0  0  0
 47 44  1  0  0  0
 44 57  1  0  0  0
 57 58  1  0  0  0
 58 59  2  0  0  0
 59 60  1  0  0  0
 60 61  2  0  0  0
 61 62  1  0  0  0
 62 63  2  0  0  0
 44 40  1  0  0  0
 40 41  2  0  0  0
 40 42  1  0  0  0
 42 39  1  0  0  0
 39 64  1  0  0  0
 64 65  1  0  0  0
 65 66  2  0  0  0
 66 67  1  0  0  0
 67 68  2  0  0  0
 68 69  1  0  0  0
 69 70  2  0  0  0
 39 35  1  0  0  0
 35 36  2  0  0  0
 35 37  1  0  0  0
 37  1  1  0  0  0
  1 71  1  0  0  0
 71 72  1  0  0  0
 72 73  2  0  0  0
 73 74  1  0  0  0
 74 75  2  0  0  0
 75 76  1  0  0  0
 76 77  2  0  0  0
  1  2  1  0  0  0
  2  3  2  0  0  0
  2  4  1  0  0  0
  4  6  1  0  0  0
  6 28  1  0  0  0
 28 29  1  0  0  0
 29 30  2  0  0  0
 30 31  1  0  0  0
 31 32  2  0  0  0
 32 33  1  0  0  0
 33 34  2  0  0  0
  6  7  1  0  0  0
  7  8  2  0  0  0
  7  9  1  0  0  0
  9 11  1  0  0  0
 11 17  1  0  0  0
 17 18  1  0  0  0
 18 19  2  0  0  0
 19 20  1  0  0  0
 20 21  1  0  0  0
 21 22  2  0  0  0
 22 23  1  0  0  0
 23 24  2  0  0  0
 24 25  1  0  0  0
 25 26  2  0  0  0
 11 12  1  0  0  0
 12 13  1  0  0  0
 12 14  2  0  0  0
 63 58  1  0  0  0
 70 65  1  0  0  0
 77 72  1  0  0  0
 34 29  1  0  0  0
 26 18  1  0  0  0
 26 21  1  0  0  0
 50 51  1  0  0  0
 50 52  1  0  0  0
 47 48  1  0  0  0
 42 43  1  0  0  0
 37 38  1  0  0  0
  4  5  1  0  0  0
  9 10  1  0  0  0
 20 27  1  0  0  0
 13 15  1  0  0  0
 13 16  1  0  0  0
M  END
> <minimizedAffinity>
-7.95143

> <CNNscore>
0.2218053937

> <CNNaffinity>
8.0574007034

> <CNN_VS>
1.7871749401

> <CNNaffinity_variance>
0.7767349482

$$$$
[H]c1c([H])c([H])c(C([H])([H])[C@@]([H])(C(=O)N([H])[C@]([H])(C(=O)N([H])[C@]([H])(C(=O)N([H])[H])C([H])([H])c2c([H])n([H])c3c([H])c([H])c([H])c([H])c23)C([H])([H])c2c([H])c([H])c([H])c([H])c2[H])N([H])C(=O)[C@@]([H])(N([H])C(=O)[C@]([H])(N([H])C(=O)[C@@]([H])(N([H])[H])C([H])([H])C([H])(C([H])([H])[H])C([H])([H])[H])C([H])([H])c2c([H])c([H])c([H])c([H])c2[H])C([H])([H])c2c([H])c([H])c([H])c([H])c2[H])c([H])c1[H]


 77 82  0  0  0  0  0  0  0  0999 V2000
  -18.1625   14.3646  -19.8862 C   0  0  0  0  0  0  0  0  0  0  0  0
  -17.9936   15.7255  -20.5337 C   0  0  0  0  0  0  0  0  0  0  0  0
  -17.2610   16.5554  -20.0024 O   0  0  0  0  0  0  0  0  0  0  0  0
  -18.6664   16.0545  -21.7323 N   0  0  0  0  0  0  0  0  0  0  0  0
  -19.2524   15.3138  -22.1784 H   0  0  0  0  0  0  0  0  0  0  0  0
  -18.5381   17.3789  -22.3152 C   0  0  0  0  0  0  0  0  0  0  0  0
  -19.7190   18.1798  -22.1319 C   0  0  0  0  0  0  0  0  0  0  0  0
  -19.9766   19.0669  -23.0267 O   0  0  0  0  0  0  0  0  0  0  0  0
  -20.6492   18.1207  -21.0742 N   0  0  0  0  0  0  0  0  0  0  0  0
  -20.4647   17.3641  -20.3556 H   0  0  0  0  0  0  0  0  0  0  0  0
  -21.7852   18.9410  -20.8708 C   0  0  0  0  0  0  0  0  0  0  0  0
  -21.9644   19.3067  -19.4301 C   0  0  0  0  0  0  0  0  0  0  0  0
  -23.2164   19.6282  -18.8643 N   0  0  0  0  0  0  0  0  0  0  0  0
  -20.9448   19.3238  -18.7062 O   0  0  0  0  0  0  0  0  0  0  0  0
  -23.8793   18.8504  -18.5975 H   0  0  0  0  0  0  0  0  0  0  0  0
  -23.5577   20.5747  -18.6814 H   0  0  0  0  0  0  0  0  0  0  0  0
  -23.0745   18.5474  -21.4967 C   0  0  0  0  0  0  0  0  0  0  0  0
  -23.3449   19.2084  -22.7863 C   0  0  0  0  0  0  0  0  0  0  0  0
  -23.5787   20.6026  -22.9214 C   0  0  0  0  0  0  0  0  0  0  0  0
  -23.7618   20.8874  -24.2116 N   0  0  0  0  0  0  0  0  0  0  0  0
  -23.6668   19.7720  -24.9534 C   0  0  0  0  0  0  0  0  0  0  0  0
  -23.7934   19.5036  -26.2984 C   0  0  0  0  0  0  0  0  0  0  0  0
  -23.6761   18.2332  -26.8197 C   0  0  0  0  0  0  0  0  0  0  0  0
  -23.4203   17.2120  -25.9317 C   0  0  0  0  0  0  0  0  0  0  0  0
  -23.2863   17.4500  -24.5704 C   0  0  0  0  0  0  0  0  0  0  0  0
  -23.4090   18.7361  -24.0749 C   0  0  0  0  0  0  0  0  0  0  0  0
  -23.9575   21.8353  -24.6566 H   0  0  0  0  0  0  0  0  0  0  0  0
  -18.1013   17.3174  -23.7806 C   0  0  0  0  0  0  0  0  0  0  0  0
  -17.1989   16.2431  -24.1228 C   0  0  0  0  0  0  0  0  0  0  0  0
  -17.6850   15.1158  -24.7508 C   0  0  0  0  0  0  0  0  0  0  0  0
  -16.8670   14.0503  -25.1217 C   0  0  0  0  0  0  0  0  0  0  0  0
  -15.5103   14.1319  -24.8473 C   0  0  0  0  0  0  0  0  0  0  0  0
  -15.0237   15.2474  -24.2250 C   0  0  0  0  0  0  0  0  0  0  0  0
  -15.8542   16.2755  -23.8730 C   0  0  0  0  0  0  0  0  0  0  0  0
  -19.2316   13.9883  -17.5929 C   0  0  0  0  0  0  0  0  0  0  0  0
  -18.1721   13.5858  -17.0681 O   0  0  0  0  0  0  0  0  0  0  0  0
  -19.2237   14.3901  -18.9437 N   0  0  0  0  0  0  0  0  0  0  0  0
  -20.1554   14.7795  -19.3415 H   0  0  0  0  0  0  0  0  0  0  0  0
  -20.4393   14.0011  -16.7798 C   0  0  0  0  0  0  0  0  0  0  0  0
  -20.6137   11.8895  -15.4332 C   0  0  0  0  0  0  0  0  0  0  0  0
  -21.0137   11.3291  -16.4797 O   0  0  0  0  0  0  0  0  0  0  0  0
  -20.3091   13.2498  -15.5259 N   0  0  0  0  0  0  0  0  0  0  0  0
  -19.9817   13.7723  -14.6962 H   0  0  0  0  0  0  0  0  0  0  0  0
  -20.5144   11.0321  -14.2053 C   0  0  0  0  0  0  0  0  0  0  0  0
  -19.8661    8.6022  -14.5515 C   0  0  0  0  0  0  0  0  0  0  0  0
  -18.6995    8.8874  -14.1773 O   0  0  0  0  0  0  0  0  0  0  0  0
  -20.8157    9.6567  -14.5747 N   0  0  0  0  0  0  0  0  0  0  0  0
  -21.7848    9.4240  -14.8749 H   0  0  0  0  0  0  0  0  0  0  0  0
  -20.2380    7.2407  -14.9564 C   0  0  0  0  0  0  0  0  0  0  0  0
  -19.1696    6.2910  -14.8300 N   0  0  0  0  0  0  0  0  0  0  0  0
  -18.2491    6.7714  -14.9575 H   0  0  0  0  0  0  0  0  0  0  0  0
  -19.2264    5.5128  -15.5255 H   0  0  0  0  0  0  0  0  0  0  0  0
  -21.5453    6.7371  -14.4609 C   0  0  0  0  0  0  0  0  0  0  0  0
  -22.1121    5.5109  -16.6120 C   0  0  0  0  0  0  0  0  0  0  0  0
  -22.5563    6.3924  -15.4982 C   0  0  0  0  0  0  0  0  0  0  0  0
  -23.2402    7.6283  -16.0646 C   0  0  0  0  0  0  0  0  0  0  0  0
  -21.3591   11.5767  -13.1109 C   0  0  0  0  0  0  0  0  0  0  0  0
  -20.8785   11.4220  -11.7550 C   0  0  0  0  0  0  0  0  0  0  0  0
  -19.7309   10.7484  -11.4557 C   0  0  0  0  0  0  0  0  0  0  0  0
  -19.2937   10.6356  -10.1308 C   0  0  0  0  0  0  0  0  0  0  0  0
  -20.0052   11.1982   -9.1011 C   0  0  0  0  0  0  0  0  0  0  0  0
  -21.1652   11.8787   -9.3948 C   0  0  0  0  0  0  0  0  0  0  0  0
  -21.6063   11.9933  -10.7187 C   0  0  0  0  0  0  0  0  0  0  0  0
  -21.2893   15.1844  -16.6378 C   0  0  0  0  0  0  0  0  0  0  0  0
  -20.8190   16.3421  -15.9158 C   0  0  0  0  0  0  0  0  0  0  0  0
  -21.5339   16.7955  -14.8000 C   0  0  0  0  0  0  0  0  0  0  0  0
  -21.1279   17.9091  -14.0999 C   0  0  0  0  0  0  0  0  0  0  0  0
  -20.0033   18.6214  -14.4684 C   0  0  0  0  0  0  0  0  0  0  0  0
  -19.2965   18.1839  -15.5616 C   0  0  0  0  0  0  0  0  0  0  0  0
  -19.7209   17.0657  -16.2487 C   0  0  0  0  0  0  0  0  0  0  0  0
  -18.2312   13.4007  -21.0229 C   0  0  0  0  0  0  0  0  0  0  0  0
  -17.3439   12.2549  -20.9731 C   0  0  0  0  0  0  0  0  0  0  0  0
  -17.3664   11.3991  -19.8958 C   0  0  0  0  0  0  0  0  0  0  0  0
  -16.5462   10.2862  -19.8491 C   0  0  0  0  0  0  0  0  0  0  0  0
  -15.6709    9.9725  -20.8587 C   0  0  0  0  0  0  0  0  0  0  0  0
  -15.6492   10.8426  -21.9480 C   0  0  0  0  0  0  0  0  0  0  0  0
  -16.4659   11.9540  -22.0010 C   0  0  0  0  0  0  0  0  0  0  0  0
 54 55  1  0  0  0
 55 56  1  0  0  0
 55 53  1  0  0  0
 53 49  1  0  0  0
 49 50  1  0  0  0
 49 45  1  0  0  0
 45 46  2  0  0  0
 45 47  1  0  0  0
 47 44  1  0  0  0
 44 57  1  0  0  0
 57 58  1  0  0  0
 58 59  2  0  0  0
 59 60  1  0  0  0
 60 61  2  0  0  0
 61 62  1  0  0  0
 62 63  2  0  0  0
 44 40  1  0  0  0
 40 41  2  0  0  0
 40 42  1  0  0  0
 42 39  1  0  0  0
 39 64  1  0  0  0
 64 65  1  0  0  0
 65 66  2  0  0  0
 66 67  1  0  0  0
 67 68  2  0  0  0
 68 69  1  0  0  0
 69 70  2  0  0  0
 39 35  1  0  0  0
 35 36  2  0  0  0
 35 37  1  0  0  0
 37  1  1  0  0  0
  1 71  1  0  0  0
 71 72  1  0  0  0
 72 73  2  0  0  0
 73 74  1  0  0  0
 74 75  2  0  0  0
 75 76  1  0  0  0
 76 77  2  0  0  0
  1  2  1  0  0  0
  2  3  2  0  0  0
  2  4  1  0  0  0
  4  6  1  0  0  0
  6 28  1  0  0  0
 28 29  1  0  0  0
 29 30  2  0  0  0
 30 31  1  0  0  0
 31 32  2  0  0  0
 32 33  1  0  0  0
 33 34  2  0  0  0
  6  7  1  0  0  0
  7  8  2  0  0  0
  7  9  1  0  0  0
  9 11  1  0  0  0
 11 17  1  0  0  0
 17 18  1  0  0  0
 18 19  2  0  0  0
 19 20  1  0  0  0
 20 21  1  0  0  0
 21 22  2  0  0  0
 22 23  1  0  0  0
 23 24  2  0  0  0
 24 25  1  0  0  0
 25 26  2  0  0  0
 11 12  1  0  0  0
 12 13  1  0  0  0
 12 14  2  0  0  0
 63 58  1  0  0  0
 70 65  1  0  0  0
 77 72  1  0  0  0
 34 29  1  0  0  0
 26 18  1  0  0  0
 26 21  1  0  0  0
 50 51  1  0  0  0
 50 52  1  0  0  0
 47 48  1  0  0  0
 42 43  1  0  0  0
 37 38  1  0  0  0
  4  5  1  0  0  0
  9 10  1  0  0  0
 20 27  1  0  0  0
 13 15  1  0  0  0
 13 16  1  0  0  0
M  END
> <minimizedAffinity>
-9.61111

> <CNNscore>
0.2075719088

> <CNNaffinity>
7.8556070328

> <CNN_VS>
1.6306033134

> <CNNaffinity_variance>
0.8931581378

$$$$
[H]c1c([H])c([H])c(C([H])([H])[C@@]([H])(C(=O)N([H])[C@]([H])(C(=O)N([H])[C@]([H])(C(=O)N([H])[H])C([H])([H])c2c([H])n([H])c3c([H])c([H])c([H])c([H])c23)C([H])([H])c2c([H])c([H])c([H])c([H])c2[H])N([H])C(=O)[C@@]([H])(N([H])C(=O)[C@]([H])(N([H])C(=O)[C@@]([H])(N([H])[H])C([H])([H])C([H])(C([H])([H])[H])C([H])([H])[H])C([H])([H])c2c([H])c([H])c([H])c([H])c2[H])C([H])([H])c2c([H])c([H])c([H])c([H])c2[H])c([H])c1[H]


 77 82  0  0  0  0  0  0  0  0999 V2000
  -17.8626   15.0291  -19.5158 C   0  0  0  0  0  0  0  0  0  0  0  0
  -17.3663   15.8774  -20.6706 C   0  0  0  0  0  0  0  0  0  0  0  0
  -16.2827   16.4466  -20.5741 O   0  0  0  0  0  0  0  0  0  0  0  0
  -18.1298   16.0263  -21.8507 N   0  0  0  0  0  0  0  0  0  0  0  0
  -19.0293   15.4993  -21.9160 H   0  0  0  0  0  0  0  0  0  0  0  0
  -17.6687   16.8834  -22.9291 C   0  0  0  0  0  0  0  0  0  0  0  0
  -18.3882   18.1275  -22.9921 C   0  0  0  0  0  0  0  0  0  0  0  0
  -18.2806   18.8187  -24.0713 O   0  0  0  0  0  0  0  0  0  0  0  0
  -19.2108   18.7025  -22.0022 N   0  0  0  0  0  0  0  0  0  0  0  0
  -19.3362   18.1180  -21.1273 H   0  0  0  0  0  0  0  0  0  0  0  0
  -19.8807   19.9491  -22.0472 C   0  0  0  0  0  0  0  0  0  0  0  0
  -19.3776   20.8963  -21.0026 C   0  0  0  0  0  0  0  0  0  0  0  0
  -18.4353   21.9120  -21.2697 N   0  0  0  0  0  0  0  0  0  0  0  0
  -19.8239   20.7675  -19.8415 O   0  0  0  0  0  0  0  0  0  0  0  0
  -18.7569   22.8113  -21.7208 H   0  0  0  0  0  0  0  0  0  0  0  0
  -17.4351   21.8606  -21.0627 H   0  0  0  0  0  0  0  0  0  0  0  0
  -21.3650   19.9625  -22.1243 C   0  0  0  0  0  0  0  0  0  0  0  0
  -21.8959   20.1579  -23.4857 C   0  0  0  0  0  0  0  0  0  0  0  0
  -21.8965   21.4091  -24.1572 C   0  0  0  0  0  0  0  0  0  0  0  0
  -22.4162   21.2462  -25.3749 N   0  0  0  0  0  0  0  0  0  0  0  0
  -22.7664   19.9636  -25.5646 C   0  0  0  0  0  0  0  0  0  0  0  0
  -23.3534   19.2757  -26.6035 C   0  0  0  0  0  0  0  0  0  0  0  0
  -23.6428   17.9298  -26.5373 C   0  0  0  0  0  0  0  0  0  0  0  0
  -23.3177   17.2749  -25.3702 C   0  0  0  0  0  0  0  0  0  0  0  0
  -22.7243   17.9398  -24.3055 C   0  0  0  0  0  0  0  0  0  0  0  0
  -22.4450   19.2918  -24.3999 C   0  0  0  0  0  0  0  0  0  0  0  0
  -22.5610   21.9795  -26.1339 H   0  0  0  0  0  0  0  0  0  0  0  0
  -17.6565   16.1522  -24.2734 C   0  0  0  0  0  0  0  0  0  0  0  0
  -16.3550   15.7707  -24.7696 C   0  0  0  0  0  0  0  0  0  0  0  0
  -15.4753   15.1067  -23.9410 C   0  0  0  0  0  0  0  0  0  0  0  0
  -14.2111   14.6972  -24.3607 C   0  0  0  0  0  0  0  0  0  0  0  0
  -13.8273   14.9694  -25.6650 C   0  0  0  0  0  0  0  0  0  0  0  0
  -14.6961   15.6273  -26.4902 C   0  0  0  0  0  0  0  0  0  0  0  0
  -15.9298   16.0167  -26.0464 C   0  0  0  0  0  0  0  0  0  0  0  0
  -19.6985   16.6517  -18.7806 C   0  0  0  0  0  0  0  0  0  0  0  0
  -20.2308   16.6978  -19.9095 O   0  0  0  0  0  0  0  0  0  0  0  0
  -18.5732   15.8271  -18.5812 N   0  0  0  0  0  0  0  0  0  0  0  0
  -18.1758   15.7808  -17.5723 H   0  0  0  0  0  0  0  0  0  0  0  0
  -20.2603   17.4784  -17.7219 C   0  0  0  0  0  0  0  0  0  0  0  0
  -21.1238   15.6604  -16.2212 C   0  0  0  0  0  0  0  0  0  0  0  0
  -19.9600   15.1969  -16.2172 O   0  0  0  0  0  0  0  0  0  0  0  0
  -21.3361   16.8190  -16.9724 N   0  0  0  0  0  0  0  0  0  0  0  0
  -22.2757   17.2470  -17.0233 H   0  0  0  0  0  0  0  0  0  0  0  0
  -22.1502   14.9120  -15.4217 C   0  0  0  0  0  0  0  0  0  0  0  0
  -21.9191   12.4448  -14.8702 C   0  0  0  0  0  0  0  0  0  0  0  0
  -21.8169   12.7528  -13.6549 O   0  0  0  0  0  0  0  0  0  0  0  0
  -22.0945   13.5064  -15.7958 N   0  0  0  0  0  0  0  0  0  0  0  0
  -22.1886   13.2560  -16.8017 H   0  0  0  0  0  0  0  0  0  0  0  0
  -21.8536   11.0497  -15.3233 C   0  0  0  0  0  0  0  0  0  0  0  0
  -23.1403   10.4643  -15.5710 N   0  0  0  0  0  0  0  0  0  0  0  0
  -23.8579   10.9067  -14.9515 H   0  0  0  0  0  0  0  0  0  0  0  0
  -23.1619    9.4327  -15.4042 H   0  0  0  0  0  0  0  0  0  0  0  0
  -20.8465   10.7413  -16.3715 C   0  0  0  0  0  0  0  0  0  0  0  0
  -19.1476    8.8982  -16.7829 C   0  0  0  0  0  0  0  0  0  0  0  0
  -19.6275   10.0136  -15.9224 C   0  0  0  0  0  0  0  0  0  0  0  0
  -19.7435    9.5361  -14.4821 C   0  0  0  0  0  0  0  0  0  0  0  0
  -23.4906   15.5367  -15.5658 C   0  0  0  0  0  0  0  0  0  0  0  0
  -23.7988   16.6631  -14.7117 C   0  0  0  0  0  0  0  0  0  0  0  0
  -24.4020   17.7940  -15.1781 C   0  0  0  0  0  0  0  0  0  0  0  0
  -24.6965   18.8548  -14.3137 C   0  0  0  0  0  0  0  0  0  0  0  0
  -24.3878   18.7856  -12.9784 C   0  0  0  0  0  0  0  0  0  0  0  0
  -23.7778   17.6480  -12.5002 C   0  0  0  0  0  0  0  0  0  0  0  0
  -23.4809   16.5848  -13.3616 C   0  0  0  0  0  0  0  0  0  0  0  0
  -19.4435   18.3517  -16.8775 C   0  0  0  0  0  0  0  0  0  0  0  0
  -20.0072   18.9705  -15.7019 C   0  0  0  0  0  0  0  0  0  0  0  0
  -19.7050   18.4500  -14.4372 C   0  0  0  0  0  0  0  0  0  0  0  0
  -20.2415   19.0004  -13.2951 C   0  0  0  0  0  0  0  0  0  0  0  0
  -21.0960   20.0841  -13.3503 C   0  0  0  0  0  0  0  0  0  0  0  0
  -21.3978   20.6007  -14.5864 C   0  0  0  0  0  0  0  0  0  0  0  0
  -20.8493   20.0340  -15.7180 C   0  0  0  0  0  0  0  0  0  0  0  0
  -18.5595   13.8748  -20.1545 C   0  0  0  0  0  0  0  0  0  0  0  0
  -17.8488   12.6113  -20.1916 C   0  0  0  0  0  0  0  0  0  0  0  0
  -17.2069   12.2034  -21.3384 C   0  0  0  0  0  0  0  0  0  0  0  0
  -16.5008   11.0146  -21.3785 C   0  0  0  0  0  0  0  0  0  0  0  0
  -16.4000   10.1800  -20.2936 C   0  0  0  0  0  0  0  0  0  0  0  0
  -17.0530   10.5952  -19.1339 C   0  0  0  0  0  0  0  0  0  0  0  0
  -17.7582   11.7808  -19.0871 C   0  0  0  0  0  0  0  0  0  0  0  0
 54 55  1  0  0  0
 55 56  1  0  0  0
 55 53  1  0  0  0
 53 49  1  0  0  0
 49 50  1  0  0  0
 49 45  1  0  0  0
 45 46  2  0  0  0
 45 47  1  0  0  0
 47 44  1  0  0  0
 44 57  1  0  0  0
 57 58  1  0  0  0
 58 59  2  0  0  0
 59 60  1  0  0  0
 60 61  2  0  0  0
 61 62  1  0  0  0
 62 63  2  0  0  0
 44 40  1  0  0  0
 40 41  2  0  0  0
 40 42  1  0  0  0
 42 39  1  0  0  0
 39 64  1  0  0  0
 64 65  1  0  0  0
 65 66  2  0  0  0
 66 67  1  0  0  0
 67 68  2  0  0  0
 68 69  1  0  0  0
 69 70  2  0  0  0
 39 35  1  0  0  0
 35 36  2  0  0  0
 35 37  1  0  0  0
 37  1  1  0  0  0
  1 71  1  0  0  0
 71 72  1  0  0  0
 72 73  2  0  0  0
 73 74  1  0  0  0
 74 75  2  0  0  0
 75 76  1  0  0  0
 76 77  2  0  0  0
  1  2  1  0  0  0
  2  3  2  0  0  0
  2  4  1  0  0  0
  4  6  1  0  0  0
  6 28  1  0  0  0
 28 29  1  0  0  0
 29 30  2  0  0  0
 30 31  1  0  0  0
 31 32  2  0  0  0
 32 33  1  0  0  0
 33 34  2  0  0  0
  6  7  1  0  0  0
  7  8  2  0  0  0
  7  9  1  0  0  0
  9 11  1  0  0  0
 11 17  1  0  0  0
 17 18  1  0  0  0
 18 19  2  0  0  0
 19 20  1  0  0  0
 20 21  1  0  0  0
 21 22  2  0  0  0
 22 23  1  0  0  0
 23 24  2  0  0  0
 24 25  1  0  0  0
 25 26  2  0  0  0
 11 12  1  0  0  0
 12 13  1  0  0  0
 12 14  2  0  0  0
 63 58  1  0  0  0
 70 65  1  0  0  0
 77 72  1  0  0  0
 34 29  1  0  0  0
 26 18  1  0  0  0
 26 21  1  0  0  0
 50 51  1  0  0  0
 50 52  1  0  0  0
 47 48  1  0  0  0
 42 43  1  0  0  0
 37 38  1  0  0  0
  4  5  1  0  0  0
  9 10  1  0  0  0
 20 27  1  0  0  0
 13 15  1  0  0  0
 13 16  1  0  0  0
M  END
> <minimizedAffinity>
-9.53038

> <CNNscore>
0.1928978711

> <CNNaffinity>
7.7970795631

> <CNN_VS>
1.5040400028

> <CNNaffinity_variance>
1.6377464533

$$$$
[H]c1c([H])c([H])c(C([H])([H])[C@@]([H])(C(=O)N([H])[C@]([H])(C(=O)N([H])[C@]([H])(C(=O)N([H])[H])C([H])([H])c2c([H])n([H])c3c([H])c([H])c([H])c([H])c23)C([H])([H])c2c([H])c([H])c([H])c([H])c2[H])N([H])C(=O)[C@@]([H])(N([H])C(=O)[C@]([H])(N([H])C(=O)[C@@]([H])(N([H])[H])C([H])([H])C([H])(C([H])([H])[H])C([H])([H])[H])C([H])([H])c2c([H])c([H])c([H])c([H])c2[H])C([H])([H])c2c([H])c([H])c([H])c([H])c2[H])c([H])c1[H]


 77 82  0  0  0  0  0  0  0  0999 V2000
  -18.6551   14.3523  -19.5399 C   0  0  0  0  0  0  0  0  0  0  0  0
  -18.1606   15.3199  -20.5977 C   0  0  0  0  0  0  0  0  0  0  0  0
  -16.9866   15.6789  -20.5800 O   0  0  0  0  0  0  0  0  0  0  0  0
  -19.0271   15.8167  -21.5978 N   0  0  0  0  0  0  0  0  0  0  0  0
  -20.0098   15.4630  -21.6073 H   0  0  0  0  0  0  0  0  0  0  0  0
  -18.5555   16.7833  -22.5742 C   0  0  0  0  0  0  0  0  0  0  0  0
  -19.3043   18.0112  -22.5420 C   0  0  0  0  0  0  0  0  0  0  0  0
  -19.2777   18.7477  -23.5960 O   0  0  0  0  0  0  0  0  0  0  0  0
  -20.0773   18.5259  -21.4814 N   0  0  0  0  0  0  0  0  0  0  0  0
  -20.1364   17.9037  -20.6257 H   0  0  0  0  0  0  0  0  0  0  0  0
  -20.7756   19.7567  -21.4342 C   0  0  0  0  0  0  0  0  0  0  0  0
  -20.4579   20.5367  -20.1964 C   0  0  0  0  0  0  0  0  0  0  0  0
  -20.9181   21.8516  -19.9720 N   0  0  0  0  0  0  0  0  0  0  0  0
  -19.7485   19.9818  -19.3288 O   0  0  0  0  0  0  0  0  0  0  0  0
  -21.9082   22.0037  -19.6370 H   0  0  0  0  0  0  0  0  0  0  0  0
  -20.3674   22.7026  -20.1077 H   0  0  0  0  0  0  0  0  0  0  0  0
  -22.2335   19.7649  -21.7232 C   0  0  0  0  0  0  0  0  0  0  0  0
  -22.5665   20.0300  -23.1347 C   0  0  0  0  0  0  0  0  0  0  0  0
  -22.5935   21.3301  -23.7053 C   0  0  0  0  0  0  0  0  0  0  0  0
  -22.9004   21.2282  -24.9994 N   0  0  0  0  0  0  0  0  0  0  0  0
  -23.0828   19.9407  -25.3353 C   0  0  0  0  0  0  0  0  0  0  0  0
  -23.4290   19.2962  -26.5022 C   0  0  0  0  0  0  0  0  0  0  0  0
  -23.5844   17.9290  -26.5812 C   0  0  0  0  0  0  0  0  0  0  0  0
  -23.3763   17.2064  -25.4273 C   0  0  0  0  0  0  0  0  0  0  0  0
  -23.0253   17.8264  -24.2356 C   0  0  0  0  0  0  0  0  0  0  0  0
  -22.8763   19.2012  -24.1857 C   0  0  0  0  0  0  0  0  0  0  0  0
  -23.0020   22.0091  -25.7167 H   0  0  0  0  0  0  0  0  0  0  0  0
  -18.4839   16.1849  -23.9808 C   0  0  0  0  0  0  0  0  0  0  0  0
  -17.2996   15.4128  -24.2758 C   0  0  0  0  0  0  0  0  0  0  0  0
  -16.0674   15.8615  -23.8495 C   0  0  0  0  0  0  0  0  0  0  0  0
  -14.8880   15.1582  -24.0872 C   0  0  0  0  0  0  0  0  0  0  0  0
  -14.9615   13.9591  -24.7795 C   0  0  0  0  0  0  0  0  0  0  0  0
  -16.1809   13.5102  -25.2040 C   0  0  0  0  0  0  0  0  0  0  0  0
  -17.3197   14.2256  -24.9551 C   0  0  0  0  0  0  0  0  0  0  0  0
  -21.0707   15.0215  -19.0293 C   0  0  0  0  0  0  0  0  0  0  0  0
  -21.5319   14.4669  -20.0490 O   0  0  0  0  0  0  0  0  0  0  0  0
  -19.6882   14.9447  -18.7673 N   0  0  0  0  0  0  0  0  0  0  0  0
  -19.3414   15.3983  -17.8443 H   0  0  0  0  0  0  0  0  0  0  0  0
  -21.9919   15.7463  -18.1655 C   0  0  0  0  0  0  0  0  0  0  0  0
  -21.9541   14.8282  -15.8292 C   0  0  0  0  0  0  0  0  0  0  0  0
  -20.8979   15.4793  -15.6572 O   0  0  0  0  0  0  0  0  0  0  0  0
  -22.5536   14.9240  -17.0875 N   0  0  0  0  0  0  0  0  0  0  0  0
  -23.4227   14.4047  -17.2960 H   0  0  0  0  0  0  0  0  0  0  0  0
  -22.4453   14.0203  -14.6634 C   0  0  0  0  0  0  0  0  0  0  0  0
  -21.7664   11.6170  -14.2077 C   0  0  0  0  0  0  0  0  0  0  0  0
  -21.2632   11.9934  -13.1180 O   0  0  0  0  0  0  0  0  0  0  0  0
  -22.3789   12.6097  -15.0163 N   0  0  0  0  0  0  0  0  0  0  0  0
  -22.8046   12.3018  -15.9148 H   0  0  0  0  0  0  0  0  0  0  0  0
  -21.7206   10.2139  -14.6377 C   0  0  0  0  0  0  0  0  0  0  0  0
  -22.9003    9.4698  -14.2994 N   0  0  0  0  0  0  0  0  0  0  0  0
  -23.3328    9.8633  -13.4319 H   0  0  0  0  0  0  0  0  0  0  0  0
  -22.7134    8.4547  -14.1349 H   0  0  0  0  0  0  0  0  0  0  0  0
  -21.2313    9.9606  -16.0178 C   0  0  0  0  0  0  0  0  0  0  0  0
  -19.6716   11.6645  -17.0744 C   0  0  0  0  0  0  0  0  0  0  0  0
  -19.8386   10.3956  -16.3148 C   0  0  0  0  0  0  0  0  0  0  0  0
  -19.0222    9.2930  -16.9734 C   0  0  0  0  0  0  0  0  0  0  0  0
  -23.7873   14.4850  -14.2266 C   0  0  0  0  0  0  0  0  0  0  0  0
  -24.0520   15.9065  -14.2770 C   0  0  0  0  0  0  0  0  0  0  0  0
  -23.3669   16.8078  -13.5164 C   0  0  0  0  0  0  0  0  0  0  0  0
  -23.6444   18.1767  -13.6077 C   0  0  0  0  0  0  0  0  0  0  0  0
  -24.6095   18.6471  -14.4623 C   0  0  0  0  0  0  0  0  0  0  0  0
  -25.3062   17.7437  -15.2326 C   0  0  0  0  0  0  0  0  0  0  0  0
  -25.0321   16.3735  -15.1438 C   0  0  0  0  0  0  0  0  0  0  0  0
  -21.7708   17.1336  -17.7543 C   0  0  0  0  0  0  0  0  0  0  0  0
  -22.7829   18.1364  -17.9846 C   0  0  0  0  0  0  0  0  0  0  0  0
  -23.8907   17.8263  -18.7833 C   0  0  0  0  0  0  0  0  0  0  0  0
  -24.8648   18.7639  -19.0428 C   0  0  0  0  0  0  0  0  0  0  0  0
  -24.7889   20.0432  -18.5277 C   0  0  0  0  0  0  0  0  0  0  0  0
  -23.7057   20.3558  -17.7436 C   0  0  0  0  0  0  0  0  0  0  0  0
  -22.7412   19.4013  -17.4962 C   0  0  0  0  0  0  0  0  0  0  0  0
  -18.9413   13.0866  -20.2761 C   0  0  0  0  0  0  0  0  0  0  0  0
  -17.8120   12.2309  -20.5847 C   0  0  0  0  0  0  0  0  0  0  0  0
  -17.3729   11.2968  -19.6747 C   0  0  0  0  0  0  0  0  0  0  0  0
  -16.3156   10.4545  -19.9679 C   0  0  0  0  0  0  0  0  0  0  0  0
  -15.6479   10.4990  -21.1662 C   0  0  0  0  0  0  0  0  0  0  0  0
  -16.0940   11.4477  -22.0854 C   0  0  0  0  0  0  0  0  0  0  0  0
  -17.1491   12.2903  -21.7992 C   0  0  0  0  0  0  0  0  0  0  0  0
 54 55  1  0  0  0
 55 56  1  0  0  0
 55 53  1  0  0  0
 53 49  1  0  0  0
 49 50  1  0  0  0
 49 45  1  0  0  0
 45 46  2  0  0  0
 45 47  1  0  0  0
 47 44  1  0  0  0
 44 57  1  0  0  0
 57 58  1  0  0  0
 58 59  2  0  0  0
 59 60  1  0  0  0
 60 61  2  0  0  0
 61 62  1  0  0  0
 62 63  2  0  0  0
 44 40  1  0  0  0
 40 41  2  0  0  0
 40 42  1  0  0  0
 42 39  1  0  0  0
 39 64  1  0  0  0
 64 65  1  0  0  0
 65 66  2  0  0  0
 66 67  1  0  0  0
 67 68  2  0  0  0
 68 69  1  0  0  0
 69 70  2  0  0  0
 39 35  1  0  0  0
 35 36  2  0  0  0
 35 37  1  0  0  0
 37  1  1  0  0  0
  1 71  1  0  0  0
 71 72  1  0  0  0
 72 73  2  0  0  0
 73 74  1  0  0  0
 74 75  2  0  0  0
 75 76  1  0  0  0
 76 77  2  0  0  0
  1  2  1  0  0  0
  2  3  2  0  0  0
  2  4  1  0  0  0
  4  6  1  0  0  0
  6 28  1  0  0  0
 28 29  1  0  0  0
 29 30  2  0  0  0
 30 31  1  0  0  0
 31 32  2  0  0  0
 32 33  1  0  0  0
 33 34  2  0  0  0
  6  7  1  0  0  0
  7  8  2  0  0  0
  7  9  1  0  0  0
  9 11  1  0  0  0
 11 17  1  0  0  0
 17 18  1  0  0  0
 18 19  2  0  0  0
 19 20  1  0  0  0
 20 21  1  0  0  0
 21 22  2  0  0  0
 22 23  1  0  0  0
 23 24  2  0  0  0
 24 25  1  0  0  0
 25 26  2  0  0  0
 11 12  1  0  0  0
 12 13  1  0  0  0
 12 14  2  0  0  0
 63 58  1  0  0  0
 70 65  1  0  0  0
 77 72  1  0  0  0
 34 29  1  0  0  0
 26 18  1  0  0  0
 26 21  1  0  0  0
 50 51  1  0  0  0
 50 52  1  0  0  0
 47 48  1  0  0  0
 42 43  1  0  0  0
 37 38  1  0  0  0
  4  5  1  0  0  0
  9 10  1  0  0  0
 20 27  1  0  0  0
 13 15  1  0  0  0
 13 16  1  0  0  0
M  END
> <minimizedAffinity>
-8.74659

> <CNNscore>
0.1595733017

> <CNNaffinity>
7.5599527359

> <CNN_VS>
1.2063666582

> <CNNaffinity_variance>
2.1238210201

$$$$
[H]c1c([H])c([H])c(C([H])([H])[C@@]([H])(C(=O)N([H])[C@]([H])(C(=O)N([H])[C@]([H])(C(=O)N([H])[H])C([H])([H])c2c([H])n([H])c3c([H])c([H])c([H])c([H])c23)C([H])([H])c2c([H])c([H])c([H])c([H])c2[H])N([H])C(=O)[C@@]([H])(N([H])C(=O)[C@]([H])(N([H])C(=O)[C@@]([H])(N([H])[H])C([H])([H])C([H])(C([H])([H])[H])C([H])([H])[H])C([H])([H])c2c([H])c([H])c([H])c([H])c2[H])C([H])([H])c2c([H])c([H])c([H])c([H])c2[H])c([H])c1[H]


 77 82  0  0  0  0  0  0  0  0999 V2000
  -19.3519   12.4391  -18.4418 C   0  0  0  0  0  0  0  0  0  0  0  0
  -20.0291   12.0835  -17.1324 C   0  0  0  0  0  0  0  0  0  0  0  0
  -20.3885   12.9842  -16.3793 O   0  0  0  0  0  0  0  0  0  0  0  0
  -20.2489   10.7368  -16.7640 N   0  0  0  0  0  0  0  0  0  0  0  0
  -19.9652    9.9958  -17.4433 H   0  0  0  0  0  0  0  0  0  0  0  0
  -20.8511   10.4070  -15.4838 C   0  0  0  0  0  0  0  0  0  0  0  0
  -20.1289    9.3798  -14.7819 C   0  0  0  0  0  0  0  0  0  0  0  0
  -18.8893    9.6017  -14.5207 O   0  0  0  0  0  0  0  0  0  0  0  0
  -20.6119    8.1326  -14.3365 N   0  0  0  0  0  0  0  0  0  0  0  0
  -21.6428    7.9615  -14.5123 H   0  0  0  0  0  0  0  0  0  0  0  0
  -19.8882    7.1032  -13.6873 C   0  0  0  0  0  0  0  0  0  0  0  0
  -19.9792    5.8019  -14.4220 C   0  0  0  0  0  0  0  0  0  0  0  0
  -18.8935    4.9101  -14.5519 N   0  0  0  0  0  0  0  0  0  0  0  0
  -21.0780    5.5057  -14.9405 O   0  0  0  0  0  0  0  0  0  0  0  0
  -18.6493    4.2707  -13.7474 H   0  0  0  0  0  0  0  0  0  0  0  0
  -18.2976    4.8195  -15.3781 H   0  0  0  0  0  0  0  0  0  0  0  0
  -20.0666    6.9153  -12.2237 C   0  0  0  0  0  0  0  0  0  0  0  0
  -18.8256    7.0628  -11.4416 C   0  0  0  0  0  0  0  0  0  0  0  0
  -17.8863    6.0147  -11.2525 C   0  0  0  0  0  0  0  0  0  0  0  0
  -16.8659    6.4742  -10.5265 N   0  0  0  0  0  0  0  0  0  0  0  0
  -17.0602    7.7658  -10.2142 C   0  0  0  0  0  0  0  0  0  0  0  0
  -16.3490    8.6907   -9.4822 C   0  0  0  0  0  0  0  0  0  0  0  0
  -16.7904    9.9806   -9.2799 C   0  0  0  0  0  0  0  0  0  0  0  0
  -17.9961   10.3273   -9.8481 C   0  0  0  0  0  0  0  0  0  0  0  0
  -18.7363    9.4184  -10.5923 C   0  0  0  0  0  0  0  0  0  0  0  0
  -18.2685    8.1296  -10.7790 C   0  0  0  0  0  0  0  0  0  0  0  0
  -15.9953    5.9504  -10.2066 H   0  0  0  0  0  0  0  0  0  0  0  0
  -22.3394   10.0782  -15.6213 C   0  0  0  0  0  0  0  0  0  0  0  0
  -23.2170   10.7316  -14.6786 C   0  0  0  0  0  0  0  0  0  0  0  0
  -22.8333   11.9229  -14.1000 C   0  0  0  0  0  0  0  0  0  0  0  0
  -23.6382   12.6125  -13.1951 C   0  0  0  0  0  0  0  0  0  0  0  0
  -24.8740   12.0758  -12.8674 C   0  0  0  0  0  0  0  0  0  0  0  0
  -25.2587   10.8950  -13.4386 C   0  0  0  0  0  0  0  0  0  0  0  0
  -24.4441   10.2427  -14.3226 C   0  0  0  0  0  0  0  0  0  0  0  0
  -20.4154   14.5731  -19.3687 C   0  0  0  0  0  0  0  0  0  0  0  0
  -21.4179   13.9811  -19.8210 O   0  0  0  0  0  0  0  0  0  0  0  0
  -19.4312   13.8364  -18.6799 N   0  0  0  0  0  0  0  0  0  0  0  0
  -18.6038   14.4008  -18.2616 H   0  0  0  0  0  0  0  0  0  0  0  0
  -20.3022   16.0064  -19.5983 C   0  0  0  0  0  0  0  0  0  0  0  0
  -18.9990   16.6496  -21.6454 C   0  0  0  0  0  0  0  0  0  0  0  0
  -17.9700   16.5864  -20.9338 O   0  0  0  0  0  0  0  0  0  0  0  0
  -20.2150   16.3671  -21.0182 N   0  0  0  0  0  0  0  0  0  0  0  0
  -21.1015   16.4097  -21.5481 H   0  0  0  0  0  0  0  0  0  0  0  0
  -18.8011   17.0257  -23.0849 C   0  0  0  0  0  0  0  0  0  0  0  0
  -19.7823   19.3568  -23.3020 C   0  0  0  0  0  0  0  0  0  0  0  0
  -18.7289   19.8192  -22.7933 O   0  0  0  0  0  0  0  0  0  0  0  0
  -19.8570   17.9497  -23.4720 N   0  0  0  0  0  0  0  0  0  0  0  0
  -20.7230   17.5630  -23.9008 H   0  0  0  0  0  0  0  0  0  0  0  0
  -20.8965   20.2266  -23.6995 C   0  0  0  0  0  0  0  0  0  0  0  0
  -20.6780   20.9092  -24.9428 N   0  0  0  0  0  0  0  0  0  0  0  0
  -19.6541   21.0689  -25.0863 H   0  0  0  0  0  0  0  0  0  0  0  0
  -21.1593   21.8357  -24.9937 H   0  0  0  0  0  0  0  0  0  0  0  0
  -22.2619   19.6560  -23.5644 C   0  0  0  0  0  0  0  0  0  0  0  0
  -24.2867   20.0225  -25.0537 C   0  0  0  0  0  0  0  0  0  0  0  0
  -22.9779   19.3492  -24.8334 C   0  0  0  0  0  0  0  0  0  0  0  0
  -23.1278   17.8517  -25.0588 C   0  0  0  0  0  0  0  0  0  0  0  0
  -18.6978   15.8137  -23.9382 C   0  0  0  0  0  0  0  0  0  0  0  0
  -17.3718   15.3219  -24.2438 C   0  0  0  0  0  0  0  0  0  0  0  0
  -17.1595   14.1761  -24.9526 C   0  0  0  0  0  0  0  0  0  0  0  0
  -15.8593   13.7443  -25.2396 C   0  0  0  0  0  0  0  0  0  0  0  0
  -14.7672   14.4598  -24.8173 C   0  0  0  0  0  0  0  0  0  0  0  0
  -14.9731   15.6167  -24.1003 C   0  0  0  0  0  0  0  0  0  0  0  0
  -16.2720   16.0519  -23.8106 C   0  0  0  0  0  0  0  0  0  0  0  0
  -21.0397   16.9976  -18.8132 C   0  0  0  0  0  0  0  0  0  0  0  0
  -20.6634   18.3903  -18.8517 C   0  0  0  0  0  0  0  0  0  0  0  0
  -21.4022   19.2821  -19.6394 C   0  0  0  0  0  0  0  0  0  0  0  0
  -21.0596   20.6131  -19.7179 C   0  0  0  0  0  0  0  0  0  0  0  0
  -19.9777   21.1207  -19.0255 C   0  0  0  0  0  0  0  0  0  0  0  0
  -19.2476   20.2531  -18.2507 C   0  0  0  0  0  0  0  0  0  0  0  0
  -19.6082   18.9234  -18.1863 C   0  0  0  0  0  0  0  0  0  0  0  0
  -18.0079   11.7955  -18.3702 C   0  0  0  0  0  0  0  0  0  0  0  0
  -17.2957   11.6101  -19.6197 C   0  0  0  0  0  0  0  0  0  0  0  0
  -16.4010   10.5752  -19.7680 C   0  0  0  0  0  0  0  0  0  0  0  0
  -15.7371   10.3696  -20.9639 C   0  0  0  0  0  0  0  0  0  0  0  0
  -15.9256   11.1742  -22.0597 C   0  0  0  0  0  0  0  0  0  0  0  0
  -16.8313   12.2229  -21.9057 C   0  0  0  0  0  0  0  0  0  0  0  0
  -17.4977   12.4328  -20.7153 C   0  0  0  0  0  0  0  0  0  0  0  0
 54 55  1  0  0  0
 55 56  1  0  0  0
 55 53  1  0  0  0
 53 49  1  0  0  0
 49 50  1  0  0  0
 49 45  1  0  0  0
 45 46  2  0  0  0
 45 47  1  0  0  0
 47 44  1  0  0  0
 44 57  1  0  0  0
 57 58  1  0  0  0
 58 59  2  0  0  0
 59 60  1  0  0  0
 60 61  2  0  0  0
 61 62  1  0  0  0
 62 63  2  0  0  0
 44 40  1  0  0  0
 40 41  2  0  0  0
 40 42  1  0  0  0
 42 39  1  0  0  0
 39 64  1  0  0  0
 64 65  1  0  0  0
 65 66  2  0  0  0
 66 67  1  0  0  0
 67 68  2  0  0  0
 68 69  1  0  0  0
 69 70  2  0  0  0
 39 35  1  0  0  0
 35 36  2  0  0  0
 35 37  1  0  0  0
 37  1  1  0  0  0
  1 71  1  0  0  0
 71 72  1  0  0  0
 72 73  2  0  0  0
 73 74  1  0  0  0
 74 75  2  0  0  0
 75 76  1  0  0  0
 76 77  2  0  0  0
  1  2  1  0  0  0
  2  3  2  0  0  0
  2  4  1  0  0  0
  4  6  1  0  0  0
  6 28  1  0  0  0
 28 29  1  0  0  0
 29 30  2  0  0  0
 30 31  1  0  0  0
 31 32  2  0  0  0
 32 33  1  0  0  0
 33 34  2  0  0  0
  6  7  1  0  0  0
  7  8  2  0  0  0
  7  9  1  0  0  0
  9 11  1  0  0  0
 11 17  1  0  0  0
 17 18  1  0  0  0
 18 19  2  0  0  0
 19 20  1  0  0  0
 20 21  1  0  0  0
 21 22  2  0  0  0
 22 23  1  0  0  0
 23 24  2  0  0  0
 24 25  1  0  0  0
 25 26  2  0  0  0
 11 12  1  0  0  0
 12 13  1  0  0  0
 12 14  2  0  0  0
 63 58  1  0  0  0
 70 65  1  0  0  0
 77 72  1  0  0  0
 34 29  1  0  0  0
 26 18  1  0  0  0
 26 21  1  0  0  0
 50 51  1  0  0  0
 50 52  1  0  0  0
 47 48  1  0  0  0
 42 43  1  0  0  0
 37 38  1  0  0  0
  4  5  1  0  0  0
  9 10  1  0  0  0
 20 27  1  0  0  0
 13 15  1  0  0  0
 13 16  1  0  0  0
M  END
> <minimizedAffinity>
-9.44207

> <CNNscore>
0.1456182897

> <CNNaffinity>
7.0964136124

> <CNN_VS>
1.0333676338

> <CNNaffinity_variance>
1.6668905020

$$$$
[H]c1c([H])c([H])c(C([H])([H])[C@@]([H])(C(=O)N([H])[C@]([H])(C(=O)N([H])[C@]([H])(C(=O)N([H])[H])C([H])([H])c2c([H])n([H])c3c([H])c([H])c([H])c([H])c23)C([H])([H])c2c([H])c([H])c([H])c([H])c2[H])N([H])C(=O)[C@@]([H])(N([H])C(=O)[C@]([H])(N([H])C(=O)[C@@]([H])(N([H])[H])C([H])([H])C([H])(C([H])([H])[H])C([H])([H])[H])C([H])([H])c2c([H])c([H])c([H])c([H])c2[H])C([H])([H])c2c([H])c([H])c([H])c([H])c2[H])c([H])c1[H]


 77 82  0  0  0  0  0  0  0  0999 V2000
  -20.0484   16.2558  -17.0240 C   0  0  0  0  0  0  0  0  0  0  0  0
  -18.9047   15.8990  -17.9535 C   0  0  0  0  0  0  0  0  0  0  0  0
  -17.7579   16.2029  -17.6372 O   0  0  0  0  0  0  0  0  0  0  0  0
  -19.1367   15.2281  -19.1758 N   0  0  0  0  0  0  0  0  0  0  0  0
  -20.1190   14.9507  -19.3978 H   0  0  0  0  0  0  0  0  0  0  0  0
  -18.0394   14.9381  -20.0824 C   0  0  0  0  0  0  0  0  0  0  0  0
  -17.6520   16.0816  -20.8644 C   0  0  0  0  0  0  0  0  0  0  0  0
  -16.3930   16.2893  -21.0247 O   0  0  0  0  0  0  0  0  0  0  0  0
  -18.4905   17.0274  -21.4886 N   0  0  0  0  0  0  0  0  0  0  0  0
  -19.5289   16.8382  -21.3947 H   0  0  0  0  0  0  0  0  0  0  0  0
  -18.1076   18.1787  -22.2186 C   0  0  0  0  0  0  0  0  0  0  0  0
  -18.8236   19.4067  -21.7488 C   0  0  0  0  0  0  0  0  0  0  0  0
  -18.1658   20.6199  -21.4545 N   0  0  0  0  0  0  0  0  0  0  0  0
  -20.0651   19.3375  -21.6155 O   0  0  0  0  0  0  0  0  0  0  0  0
  -17.8869   21.2629  -22.2448 H   0  0  0  0  0  0  0  0  0  0  0  0
  -17.9229   20.9491  -20.5173 H   0  0  0  0  0  0  0  0  0  0  0  0
  -18.0685   18.1059  -23.7026 C   0  0  0  0  0  0  0  0  0  0  0  0
  -17.1171   17.1121  -24.2323 C   0  0  0  0  0  0  0  0  0  0  0  0
  -15.7501   17.3940  -24.4939 C   0  0  0  0  0  0  0  0  0  0  0  0
  -15.1568   16.2844  -24.9368 N   0  0  0  0  0  0  0  0  0  0  0  0
  -16.0392   15.2734  -24.9905 C   0  0  0  0  0  0  0  0  0  0  0  0
  -15.9627   13.9566  -25.3871 C   0  0  0  0  0  0  0  0  0  0  0  0
  -17.0496   13.1093  -25.3735 C   0  0  0  0  0  0  0  0  0  0  0  0
  -18.2472   13.6323  -24.9385 C   0  0  0  0  0  0  0  0  0  0  0  0
  -18.3567   14.9551  -24.5312 C   0  0  0  0  0  0  0  0  0  0  0  0
  -17.2483   15.7832  -24.5554 C   0  0  0  0  0  0  0  0  0  0  0  0
  -14.1395   16.1494  -25.2225 H   0  0  0  0  0  0  0  0  0  0  0  0
  -18.3267   13.7118  -20.9518 C   0  0  0  0  0  0  0  0  0  0  0  0
  -17.5362   12.5380  -20.6637 C   0  0  0  0  0  0  0  0  0  0  0  0
  -17.4074   12.1034  -19.3615 C   0  0  0  0  0  0  0  0  0  0  0  0
  -16.6724   10.9707  -19.0164 C   0  0  0  0  0  0  0  0  0  0  0  0
  -16.0484   10.2546  -20.0266 C   0  0  0  0  0  0  0  0  0  0  0  0
  -16.1734   10.6816  -21.3191 C   0  0  0  0  0  0  0  0  0  0  0  0
  -16.9014   11.7986  -21.6239 C   0  0  0  0  0  0  0  0  0  0  0  0
  -20.9683   13.9548  -16.3894 C   0  0  0  0  0  0  0  0  0  0  0  0
  -21.3365   13.6848  -17.5520 O   0  0  0  0  0  0  0  0  0  0  0  0
  -20.3229   15.1818  -16.1372 N   0  0  0  0  0  0  0  0  0  0  0  0
  -19.9764   15.3505  -15.1225 H   0  0  0  0  0  0  0  0  0  0  0  0
  -21.2479   12.9870  -15.3380 C   0  0  0  0  0  0  0  0  0  0  0  0
  -23.0592   14.2233  -14.1160 C   0  0  0  0  0  0  0  0  0  0  0  0
  -23.6785   14.2652  -15.2041 O   0  0  0  0  0  0  0  0  0  0  0  0
  -21.8152   13.5875  -14.1251 N   0  0  0  0  0  0  0  0  0  0  0  0
  -21.2504   13.5264  -13.2614 H   0  0  0  0  0  0  0  0  0  0  0  0
  -23.7270   14.8656  -12.9352 C   0  0  0  0  0  0  0  0  0  0  0  0
  -23.0508   17.3123  -12.9047 C   0  0  0  0  0  0  0  0  0  0  0  0
  -23.9740   17.5506  -13.7252 O   0  0  0  0  0  0  0  0  0  0  0  0
  -22.8955   15.9684  -12.4756 N   0  0  0  0  0  0  0  0  0  0  0  0
  -22.1387   15.7675  -11.7898 H   0  0  0  0  0  0  0  0  0  0  0  0
  -22.1611   18.3711  -12.4115 C   0  0  0  0  0  0  0  0  0  0  0  0
  -21.5036   18.0421  -11.1790 N   0  0  0  0  0  0  0  0  0  0  0  0
  -22.1014   17.3913  -10.6192 H   0  0  0  0  0  0  0  0  0  0  0  0
  -21.2956   18.8785  -10.5876 H   0  0  0  0  0  0  0  0  0  0  0  0
  -21.2655   19.0032  -13.4148 C   0  0  0  0  0  0  0  0  0  0  0  0
  -20.6107   21.2415  -14.4217 C   0  0  0  0  0  0  0  0  0  0  0  0
  -21.6841   20.3377  -13.9257 C   0  0  0  0  0  0  0  0  0  0  0  0
  -22.5616   21.0827  -12.9301 C   0  0  0  0  0  0  0  0  0  0  0  0
  -24.0437   13.8550  -11.8930 C   0  0  0  0  0  0  0  0  0  0  0  0
  -23.0555   13.6260  -10.8613 C   0  0  0  0  0  0  0  0  0  0  0  0
  -22.2075   12.5580  -10.8817 C   0  0  0  0  0  0  0  0  0  0  0  0
  -21.2553   12.3826   -9.8709 C   0  0  0  0  0  0  0  0  0  0  0  0
  -21.1494   13.2777   -8.8362 C   0  0  0  0  0  0  0  0  0  0  0  0
  -22.0024   14.3577   -8.8078 C   0  0  0  0  0  0  0  0  0  0  0  0
  -22.9568   14.5364   -9.8166 C   0  0  0  0  0  0  0  0  0  0  0  0
  -21.7885   11.6539  -15.6083 C   0  0  0  0  0  0  0  0  0  0  0  0
  -20.9042   10.5307  -15.8062 C   0  0  0  0  0  0  0  0  0  0  0  0
  -20.9825    9.4315  -14.9418 C   0  0  0  0  0  0  0  0  0  0  0  0
  -20.1406    8.3519  -15.0863 C   0  0  0  0  0  0  0  0  0  0  0  0
  -19.1885    8.3096  -16.0860 C   0  0  0  0  0  0  0  0  0  0  0  0
  -19.1046    9.3834  -16.9380 C   0  0  0  0  0  0  0  0  0  0  0  0
  -19.9580   10.4548  -16.7754 C   0  0  0  0  0  0  0  0  0  0  0  0
  -19.6840   17.5857  -16.4542 C   0  0  0  0  0  0  0  0  0  0  0  0
  -20.1922   18.7597  -17.1370 C   0  0  0  0  0  0  0  0  0  0  0  0
  -21.5468   18.9510  -17.2853 C   0  0  0  0  0  0  0  0  0  0  0  0
  -22.0455   20.0807  -17.9085 C   0  0  0  0  0  0  0  0  0  0  0  0
  -21.2321   21.0650  -18.4117 C   0  0  0  0  0  0  0  0  0  0  0  0
  -19.8601   20.8673  -18.2615 C   0  0  0  0  0  0  0  0  0  0  0  0
  -19.3563   19.7428  -17.6397 C   0  0  0  0  0  0  0  0  0  0  0  0
 54 55  1  0  0  0
 55 56  1  0  0  0
 55 53  1  0  0  0
 53 49  1  0  0  0
 49 50  1  0  0  0
 49 45  1  0  0  0
 45 46  2  0  0  0
 45 47  1  0  0  0
 47 44  1  0  0  0
 44 57  1  0  0  0
 57 58  1  0  0  0
 58 59  2  0  0  0
 59 60  1  0  0  0
 60 61  2  0  0  0
 61 62  1  0  0  0
 62 63  2  0  0  0
 44 40  1  0  0  0
 40 41  2  0  0  0
 40 42  1  0  0  0
 42 39  1  0  0  0
 39 64  1  0  0  0
 64 65  1  0  0  0
 65 66  2  0  0  0
 66 67  1  0  0  0
 67 68  2  0  0  0
 68 69  1  0  0  0
 69 70  2  0  0  0
 39 35  1  0  0  0
 35 36  2  0  0  0
 35 37  1  0  0  0
 37  1  1  0  0  0
  1 71  1  0  0  0
 71 72  1  0  0  0
 72 73  2  0  0  0
 73 74  1  0  0  0
 74 75  2  0  0  0
 75 76  1  0  0  0
 76 77  2  0  0  0
  1  2  1  0  0  0
  2  3  2  0  0  0
  2  4  1  0  0  0
  4  6  1  0  0  0
  6 28  1  0  0  0
 28 29  1  0  0  0
 29 30  2  0  0  0
 30 31  1  0  0  0
 31 32  2  0  0  0
 32 33  1  0  0  0
 33 34  2  0  0  0
  6  7  1  0  0  0
  7  8  2  0  0  0
  7  9  1  0  0  0
  9 11  1  0  0  0
 11 17  1  0  0  0
 17 18  1  0  0  0
 18 19  2  0  0  0
 19 20  1  0  0  0
 20 21  1  0  0  0
 21 22  2  0  0  0
 22 23  1  0  0  0
 23 24  2  0  0  0
 24 25  1  0  0  0
 25 26  2  0  0  0
 11 12  1  0  0  0
 12 13  1  0  0  0
 12 14  2  0  0  0
 63 58  1  0  0  0
 70 65  1  0  0  0
 77 72  1  0  0  0
 34 29  1  0  0  0
 26 18  1  0  0  0
 26 21  1  0  0  0
 50 51  1  0  0  0
 50 52  1  0  0  0
 47 48  1  0  0  0
 42 43  1  0  0  0
 37 38  1  0  0  0
  4  5  1  0  0  0
  9 10  1  0  0  0
 20 27  1  0  0  0
 13 15  1  0  0  0
 13 16  1  0  0  0
M  END
> <minimizedAffinity>
-8.91561

> <CNNscore>
0.1387348771

> <CNNaffinity>
7.4322648048

> <CNN_VS>
1.0311143398

> <CNNaffinity_variance>
1.7426464558

$$$$
[H]c1c([H])c([H])c(C([H])([H])[C@@]([H])(C(=O)N([H])[C@]([H])(C(=O)N([H])[C@]([H])(C(=O)N([H])[H])C([H])([H])c2c([H])n([H])c3c([H])c([H])c([H])c([H])c23)C([H])([H])c2c([H])c([H])c([H])c([H])c2[H])N([H])C(=O)[C@@]([H])(N([H])C(=O)[C@]([H])(N([H])C(=O)[C@@]([H])(N([H])[H])C([H])([H])C([H])(C([H])([H])[H])C([H])([H])[H])C([H])([H])c2c([H])c([H])c([H])c([H])c2[H])C([H])([H])c2c([H])c([H])c([H])c([H])c2[H])c([H])c1[H]


 77 82  0  0  0  0  0  0  0  0999 V2000
  -18.7243   14.7630  -19.2835 C   0  0  0  0  0  0  0  0  0  0  0  0
  -18.3117   15.8265  -20.2827 C   0  0  0  0  0  0  0  0  0  0  0  0
  -17.3514   16.5480  -20.0281 O   0  0  0  0  0  0  0  0  0  0  0  0
  -19.0145   16.0030  -21.4962 N   0  0  0  0  0  0  0  0  0  0  0  0
  -19.8031   15.3488  -21.6993 H   0  0  0  0  0  0  0  0  0  0  0  0
  -18.6427   17.0592  -22.4216 C   0  0  0  0  0  0  0  0  0  0  0  0
  -19.5436   18.1796  -22.3719 C   0  0  0  0  0  0  0  0  0  0  0  0
  -19.5443   18.9828  -23.3763 O   0  0  0  0  0  0  0  0  0  0  0  0
  -20.4430   18.5219  -21.3417 N   0  0  0  0  0  0  0  0  0  0  0  0
  -20.4765   17.8411  -20.5303 H   0  0  0  0  0  0  0  0  0  0  0  0
  -21.2953   19.6505  -21.2731 C   0  0  0  0  0  0  0  0  0  0  0  0
  -20.9498   20.5475  -20.1253 C   0  0  0  0  0  0  0  0  0  0  0  0
  -19.6906   21.1675  -19.9808 N   0  0  0  0  0  0  0  0  0  0  0  0
  -21.8311   20.7466  -19.2608 O   0  0  0  0  0  0  0  0  0  0  0  0
  -19.4758   22.0397  -20.5366 H   0  0  0  0  0  0  0  0  0  0  0  0
  -18.9378   20.8430  -19.3694 H   0  0  0  0  0  0  0  0  0  0  0  0
  -22.7636   19.4471  -21.3820 C   0  0  0  0  0  0  0  0  0  0  0  0
  -23.1870   18.7606  -22.6160 C   0  0  0  0  0  0  0  0  0  0  0  0
  -23.8071   17.4832  -22.6318 C   0  0  0  0  0  0  0  0  0  0  0  0
  -24.0904   17.1555  -23.8935 N   0  0  0  0  0  0  0  0  0  0  0  0
  -23.6987   18.1321  -24.7280 C   0  0  0  0  0  0  0  0  0  0  0  0
  -23.7295   18.2914  -26.0957 C   0  0  0  0  0  0  0  0  0  0  0  0
  -23.2228   19.4062  -26.7283 C   0  0  0  0  0  0  0  0  0  0  0  0
  -22.6708   20.3835  -25.9303 C   0  0  0  0  0  0  0  0  0  0  0  0
  -22.6255   20.2532  -24.5487 C   0  0  0  0  0  0  0  0  0  0  0  0
  -23.1420   19.1226  -23.9405 C   0  0  0  0  0  0  0  0  0  0  0  0
  -24.5566   16.2690  -24.2560 H   0  0  0  0  0  0  0  0  0  0  0  0
  -18.4539   16.5300  -23.8451 C   0  0  0  0  0  0  0  0  0  0  0  0
  -17.5919   15.3790  -23.9786 C   0  0  0  0  0  0  0  0  0  0  0  0
  -16.3085   15.4243  -23.4762 C   0  0  0  0  0  0  0  0  0  0  0  0
  -15.4309   14.3449  -23.5580 C   0  0  0  0  0  0  0  0  0  0  0  0
  -15.8706   13.1803  -24.1688 C   0  0  0  0  0  0  0  0  0  0  0  0
  -17.1421   13.1307  -24.6682 C   0  0  0  0  0  0  0  0  0  0  0  0
  -17.9782   14.2089  -24.5725 C   0  0  0  0  0  0  0  0  0  0  0  0
  -20.9982   15.7954  -18.7292 C   0  0  0  0  0  0  0  0  0  0  0  0
  -21.3728   15.8252  -19.9204 O   0  0  0  0  0  0  0  0  0  0  0  0
  -19.7332   15.2589  -18.4166 N   0  0  0  0  0  0  0  0  0  0  0  0
  -19.4721   15.2079  -17.3643 H   0  0  0  0  0  0  0  0  0  0  0  0
  -21.8883   16.3429  -17.7153 C   0  0  0  0  0  0  0  0  0  0  0  0
  -23.2142   15.2316  -15.8961 C   0  0  0  0  0  0  0  0  0  0  0  0
  -24.2347   15.7397  -16.4153 O   0  0  0  0  0  0  0  0  0  0  0  0
  -21.9917   15.5069  -16.5136 N   0  0  0  0  0  0  0  0  0  0  0  0
  -21.1115   15.1242  -16.1295 H   0  0  0  0  0  0  0  0  0  0  0  0
  -23.4285   14.3921  -14.6704 C   0  0  0  0  0  0  0  0  0  0  0  0
  -22.3260   12.1545  -14.1993 C   0  0  0  0  0  0  0  0  0  0  0  0
  -21.8563   12.6390  -13.1378 O   0  0  0  0  0  0  0  0  0  0  0  0
  -23.1309   13.0059  -15.0003 N   0  0  0  0  0  0  0  0  0  0  0  0
  -23.5294   12.6070  -15.8752 H   0  0  0  0  0  0  0  0  0  0  0  0
  -22.0530   10.7702  -14.6055 C   0  0  0  0  0  0  0  0  0  0  0  0
  -23.0347   10.2295  -15.5020 N   0  0  0  0  0  0  0  0  0  0  0  0
  -23.9636   10.6768  -15.3245 H   0  0  0  0  0  0  0  0  0  0  0  0
  -23.1516    9.1951  -15.4088 H   0  0  0  0  0  0  0  0  0  0  0  0
  -20.6533   10.4593  -14.9961 C   0  0  0  0  0  0  0  0  0  0  0  0
  -19.2531    9.5968  -16.9320 C   0  0  0  0  0  0  0  0  0  0  0  0
  -20.3559   10.4749  -16.4550 C   0  0  0  0  0  0  0  0  0  0  0  0
  -20.1507   11.8875  -16.9827 C   0  0  0  0  0  0  0  0  0  0  0  0
  -24.7854   14.6153  -14.1077 C   0  0  0  0  0  0  0  0  0  0  0  0
  -25.1472   13.8730  -12.9197 C   0  0  0  0  0  0  0  0  0  0  0  0
  -24.7097   14.2209  -11.6755 C   0  0  0  0  0  0  0  0  0  0  0  0
  -25.0966   13.4838  -10.5503 C   0  0  0  0  0  0  0  0  0  0  0  0
  -25.9240   12.3954  -10.6681 C   0  0  0  0  0  0  0  0  0  0  0  0
  -26.3688   12.0370  -11.9206 C   0  0  0  0  0  0  0  0  0  0  0  0
  -25.9836   12.7714  -13.0488 C   0  0  0  0  0  0  0  0  0  0  0  0
  -21.9616   17.7727  -17.4106 C   0  0  0  0  0  0  0  0  0  0  0  0
  -21.2823   18.3121  -16.2572 C   0  0  0  0  0  0  0  0  0  0  0  0
  -19.9390   17.9850  -16.0334 C   0  0  0  0  0  0  0  0  0  0  0  0
  -19.2647   18.4629  -14.9324 C   0  0  0  0  0  0  0  0  0  0  0  0
  -19.8837   19.2811  -14.0077 C   0  0  0  0  0  0  0  0  0  0  0  0
  -21.2010   19.6067  -14.2193 C   0  0  0  0  0  0  0  0  0  0  0  0
  -21.8576   19.1170  -15.3290 C   0  0  0  0  0  0  0  0  0  0  0  0
  -19.0118   13.5508  -20.1045 C   0  0  0  0  0  0  0  0  0  0  0  0
  -18.0147   12.4980  -20.1013 C   0  0  0  0  0  0  0  0  0  0  0  0
  -17.4066   12.1142  -18.9280 C   0  0  0  0  0  0  0  0  0  0  0  0
  -16.4755   11.0915  -18.9063 C   0  0  0  0  0  0  0  0  0  0  0  0
  -16.1048   10.4077  -20.0371 C   0  0  0  0  0  0  0  0  0  0  0  0
  -16.7214   10.8002  -21.2245 C   0  0  0  0  0  0  0  0  0  0  0  0
  -17.6519   11.8191  -21.2526 C   0  0  0  0  0  0  0  0  0  0  0  0
 54 55  1  0  0  0
 55 56  1  0  0  0
 55 53  1  0  0  0
 53 49  1  0  0  0
 49 50  1  0  0  0
 49 45  1  0  0  0
 45 46  2  0  0  0
 45 47  1  0  0  0
 47 44  1  0  0  0
 44 57  1  0  0  0
 57 58  1  0  0  0
 58 59  2  0  0  0
 59 60  1  0  0  0
 60 61  2  0  0  0
 61 62  1  0  0  0
 62 63  2  0  0  0
 44 40  1  0  0  0
 40 41  2  0  0  0
 40 42  1  0  0  0
 42 39  1  0  0  0
 39 64  1  0  0  0
 64 65  1  0  0  0
 65 66  2  0  0  0
 66 67  1  0  0  0
 67 68  2  0  0  0
 68 69  1  0  0  0
 69 70  2  0  0  0
 39 35  1  0  0  0
 35 36  2  0  0  0
 35 37  1  0  0  0
 37  1  1  0  0  0
  1 71  1  0  0  0
 71 72  1  0  0  0
 72 73  2  0  0  0
 73 74  1  0  0  0
 74 75  2  0  0  0
 75 76  1  0  0  0
 76 77  2  0  0  0
  1  2  1  0  0  0
  2  3  2  0  0  0
  2  4  1  0  0  0
  4  6  1  0  0  0
  6 28  1  0  0  0
 28 29  1  0  0  0
 29 30  2  0  0  0
 30 31  1  0  0  0
 31 32  2  0  0  0
 32 33  1  0  0  0
 33 34  2  0  0  0
  6  7  1  0  0  0
  7  8  2  0  0  0
  7  9  1  0  0  0
  9 11  1  0  0  0
 11 17  1  0  0  0
 17 18  1  0  0  0
 18 19  2  0  0  0
 19 20  1  0  0  0
 20 21  1  0  0  0
 21 22  2  0  0  0
 22 23  1  0  0  0
 23 24  2  0  0  0
 24 25  1  0  0  0
 25 26  2  0  0  0
 11 12  1  0  0  0
 12 13  1  0  0  0
 12 14  2  0  0  0
 63 58  1  0  0  0
 70 65  1  0  0  0
 77 72  1  0  0  0
 34 29  1  0  0  0
 26 18  1  0  0  0
 26 21  1  0  0  0
 50 51  1  0  0  0
 50 52  1  0  0  0
 47 48  1  0  0  0
 42 43  1  0  0  0
 37 38  1  0  0  0
  4  5  1  0  0  0
  9 10  1  0  0  0
 20 27  1  0  0  0
 13 15  1  0  0  0
 13 16  1  0  0  0
M  END
> <minimizedAffinity>
-8.83346

> <CNNscore>
0.1385876983

> <CNNaffinity>
7.4440965652

> <CNN_VS>
1.0316601992

> <CNNaffinity_variance>
1.9034061432

$$$$
[H]c1c([H])c([H])c(C([H])([H])[C@@]([H])(C(=O)N([H])[C@]([H])(C(=O)N([H])[C@]([H])(C(=O)N([H])[H])C([H])([H])c2c([H])n([H])c3c([H])c([H])c([H])c([H])c23)C([H])([H])c2c([H])c([H])c([H])c([H])c2[H])N([H])C(=O)[C@@]([H])(N([H])C(=O)[C@]([H])(N([H])C(=O)[C@@]([H])(N([H])[H])C([H])([H])C([H])(C([H])([H])[H])C([H])([H])[H])C([H])([H])c2c([H])c([H])c([H])c([H])c2[H])C([H])([H])c2c([H])c([H])c([H])c([H])c2[H])c([H])c1[H]


 77 82  0  0  0  0  0  0  0  0999 V2000
  -18.6495   14.0359  -19.0794 C   0  0  0  0  0  0  0  0  0  0  0  0
  -18.4077   15.2695  -19.9275 C   0  0  0  0  0  0  0  0  0  0  0  0
  -17.5540   16.0797  -19.5776 O   0  0  0  0  0  0  0  0  0  0  0  0
  -19.1491   15.5033  -21.1079 N   0  0  0  0  0  0  0  0  0  0  0  0
  -19.8414   14.7767  -21.3975 H   0  0  0  0  0  0  0  0  0  0  0  0
  -18.9454   16.7142  -21.8839 C   0  0  0  0  0  0  0  0  0  0  0  0
  -19.8807   17.7527  -21.5431 C   0  0  0  0  0  0  0  0  0  0  0  0
  -20.9077   17.4178  -20.8453 O   0  0  0  0  0  0  0  0  0  0  0  0
  -19.8191   19.1190  -21.8848 N   0  0  0  0  0  0  0  0  0  0  0  0
  -18.9543   19.4085  -22.4244 H   0  0  0  0  0  0  0  0  0  0  0  0
  -20.7641   20.1311  -21.5887 C   0  0  0  0  0  0  0  0  0  0  0  0
  -20.6298   20.6328  -20.1846 C   0  0  0  0  0  0  0  0  0  0  0  0
  -21.3371   20.0807  -19.0956 N   0  0  0  0  0  0  0  0  0  0  0  0
  -19.8489   21.5887  -19.9838 O   0  0  0  0  0  0  0  0  0  0  0  0
  -20.9910   19.1861  -18.6532 H   0  0  0  0  0  0  0  0  0  0  0  0
  -22.1831   20.4755  -18.6780 H   0  0  0  0  0  0  0  0  0  0  0  0
  -22.1879   19.9109  -21.9540 C   0  0  0  0  0  0  0  0  0  0  0  0
  -22.4804   20.1094  -23.3853 C   0  0  0  0  0  0  0  0  0  0  0  0
  -22.4304   21.3737  -24.0300 C   0  0  0  0  0  0  0  0  0  0  0  0
  -22.7178   21.2117  -25.3225 N   0  0  0  0  0  0  0  0  0  0  0  0
  -22.9590   19.9175  -25.5879 C   0  0  0  0  0  0  0  0  0  0  0  0
  -23.3156   19.2239  -26.7231 C   0  0  0  0  0  0  0  0  0  0  0  0
  -23.5389   17.8639  -26.7268 C   0  0  0  0  0  0  0  0  0  0  0  0
  -23.3896   17.2005  -25.5292 C   0  0  0  0  0  0  0  0  0  0  0  0
  -23.0300   17.8708  -24.3676 C   0  0  0  0  0  0  0  0  0  0  0  0
  -22.8121   19.2370  -24.3935 C   0  0  0  0  0  0  0  0  0  0  0  0
  -22.7660   21.9535  -26.0855 H   0  0  0  0  0  0  0  0  0  0  0  0
  -18.9173   16.4302  -23.3874 C   0  0  0  0  0  0  0  0  0  0  0  0
  -17.8586   15.5599  -23.8430 C   0  0  0  0  0  0  0  0  0  0  0  0
  -18.1448   14.5388  -24.7243 C   0  0  0  0  0  0  0  0  0  0  0  0
  -17.1687   13.6734  -25.2145 C   0  0  0  0  0  0  0  0  0  0  0  0
  -15.8583   13.8507  -24.7973 C   0  0  0  0  0  0  0  0  0  0  0  0
  -15.5697   14.8618  -23.9238 C   0  0  0  0  0  0  0  0  0  0  0  0
  -16.5519   15.6934  -23.4607 C   0  0  0  0  0  0  0  0  0  0  0  0
  -20.9768   14.5593  -18.1554 C   0  0  0  0  0  0  0  0  0  0  0  0
  -21.5309   14.4925  -19.2728 O   0  0  0  0  0  0  0  0  0  0  0  0
  -19.5929   14.3129  -18.0553 N   0  0  0  0  0  0  0  0  0  0  0  0
  -19.1654   14.3327  -17.0579 H   0  0  0  0  0  0  0  0  0  0  0  0
  -21.7937   14.9141  -17.0036 C   0  0  0  0  0  0  0  0  0  0  0  0
  -22.5231   13.8198  -14.8650 C   0  0  0  0  0  0  0  0  0  0  0  0
  -23.6435   14.3489  -15.0495 O   0  0  0  0  0  0  0  0  0  0  0  0
  -21.5418   14.0751  -15.8261 N   0  0  0  0  0  0  0  0  0  0  0  0
  -20.5939   13.6747  -15.7279 H   0  0  0  0  0  0  0  0  0  0  0  0
  -22.3696   12.9793  -13.6310 C   0  0  0  0  0  0  0  0  0  0  0  0
  -20.7857   11.0445  -13.1926 C   0  0  0  0  0  0  0  0  0  0  0  0
  -20.4951   11.5674  -12.0861 O   0  0  0  0  0  0  0  0  0  0  0  0
  -21.7336   11.7235  -14.0017 N   0  0  0  0  0  0  0  0  0  0  0  0
  -21.9843   11.2903  -14.9144 H   0  0  0  0  0  0  0  0  0  0  0  0
  -20.1705    9.7889  -13.6408 C   0  0  0  0  0  0  0  0  0  0  0  0
  -20.3214    8.7091  -12.7076 N   0  0  0  0  0  0  0  0  0  0  0  0
  -20.3784    9.0859  -11.7333 H   0  0  0  0  0  0  0  0  0  0  0  0
  -19.5343    8.0223  -12.7423 H   0  0  0  0  0  0  0  0  0  0  0  0
  -20.4206    9.3966  -15.0521 C   0  0  0  0  0  0  0  0  0  0  0  0
  -19.9398   10.9432  -17.0090 C   0  0  0  0  0  0  0  0  0  0  0  0
  -19.4507    9.9056  -16.0608 C   0  0  0  0  0  0  0  0  0  0  0  0
  -18.7844    8.7775  -16.8349 C   0  0  0  0  0  0  0  0  0  0  0  0
  -23.6705   12.8290  -12.9289 C   0  0  0  0  0  0  0  0  0  0  0  0
  -24.3707   11.5719  -13.0802 C   0  0  0  0  0  0  0  0  0  0  0  0
  -25.1061   11.2705  -14.1886 C   0  0  0  0  0  0  0  0  0  0  0  0
  -25.7554   10.0355  -14.3008 C   0  0  0  0  0  0  0  0  0  0  0  0
  -25.6693    9.0980  -13.3025 C   0  0  0  0  0  0  0  0  0  0  0  0
  -24.9298    9.3951  -12.1801 C   0  0  0  0  0  0  0  0  0  0  0  0
  -24.2794   10.6295  -12.0635 C   0  0  0  0  0  0  0  0  0  0  0  0
  -22.1067   16.2990  -16.6476 C   0  0  0  0  0  0  0  0  0  0  0  0
  -21.1851   17.0785  -15.8565 C   0  0  0  0  0  0  0  0  0  0  0  0
  -19.9763   17.5008  -16.4241 C   0  0  0  0  0  0  0  0  0  0  0  0
  -19.0632   18.2271  -15.6934 C   0  0  0  0  0  0  0  0  0  0  0  0
  -19.3016   18.5673  -14.3761 C   0  0  0  0  0  0  0  0  0  0  0  0
  -20.4844   18.1570  -13.8116 C   0  0  0  0  0  0  0  0  0  0  0  0
  -21.3853   17.4302  -14.5617 C   0  0  0  0  0  0  0  0  0  0  0  0
  -18.9444   12.9466  -20.0552 C   0  0  0  0  0  0  0  0  0  0  0  0
  -17.8415   12.0878  -20.4411 C   0  0  0  0  0  0  0  0  0  0  0  0
  -17.2272   12.2445  -21.6624 C   0  0  0  0  0  0  0  0  0  0  0  0
  -16.1553   11.4515  -22.0308 C   0  0  0  0  0  0  0  0  0  0  0  0
  -15.6470   10.4728  -21.2139 C   0  0  0  0  0  0  0  0  0  0  0  0
  -16.2728   10.3153  -19.9779 C   0  0  0  0  0  0  0  0  0  0  0  0
  -17.3420   11.1040  -19.6040 C   0  0  0  0  0  0  0  0  0  0  0  0
 54 55  1  0  0  0
 55 56  1  0  0  0
 55 53  1  0  0  0
 53 49  1  0  0  0
 49 50  1  0  0  0
 49 45  1  0  0  0
 45 46  2  0  0  0
 45 47  1  0  0  0
 47 44  1  0  0  0
 44 57  1  0  0  0
 57 58  1  0  0  0
 58 59  2  0  0  0
 59 60  1  0  0  0
 60 61  2  0  0  0
 61 62  1  0  0  0
 62 63  2  0  0  0
 44 40  1  0  0  0
 40 41  2  0  0  0
 40 42  1  0  0  0
 42 39  1  0  0  0
 39 64  1  0  0  0
 64 65  1  0  0  0
 65 66  2  0  0  0
 66 67  1  0  0  0
 67 68  2  0  0  0
 68 69  1  0  0  0
 69 70  2  0  0  0
 39 35  1  0  0  0
 35 36  2  0  0  0
 35 37  1  0  0  0
 37  1  1  0  0  0
  1 71  1  0  0  0
 71 72  1  0  0  0
 72 73  2  0  0  0
 73 74  1  0  0  0
 74 75  2  0  0  0
 75 76  1  0  0  0
 76 77  2  0  0  0
  1  2  1  0  0  0
  2  3  2  0  0  0
  2  4  1  0  0  0
  4  6  1  0  0  0
  6 28  1  0  0  0
 28 29  1  0  0  0
 29 30  2  0  0  0
 30 31  1  0  0  0
 31 32  2  0  0  0
 32 33  1  0  0  0
 33 34  2  0  0  0
  6  7  1  0  0  0
  7  8  2  0  0  0
  7  9  1  0  0  0
  9 11  1  0  0  0
 11 17  1  0  0  0
 17 18  1  0  0  0
 18 19  2  0  0  0
 19 20  1  0  0  0
 20 21  1  0  0  0
 21 22  2  0  0  0
 22 23  1  0  0  0
 23 24  2  0  0  0
 24 25  1  0  0  0
 25 26  2  0  0  0
 11 12  1  0  0  0
 12 13  1  0  0  0
 12 14  2  0  0  0
 63 58  1  0  0  0
 70 65  1  0  0  0
 77 72  1  0  0  0
 34 29  1  0  0  0
 26 18  1  0  0  0
 26 21  1  0  0  0
 50 51  1  0  0  0
 50 52  1  0  0  0
 47 48  1  0  0  0
 42 43  1  0  0  0
 37 38  1  0  0  0
  4  5  1  0  0  0
  9 10  1  0  0  0
 20 27  1  0  0  0
 13 15  1  0  0  0
 13 16  1  0  0  0
M  END
> <minimizedAffinity>
-8.98104

> <CNNscore>
0.1365923584

> <CNNaffinity>
7.3407773972

> <CNN_VS>
1.0026941299

> <CNNaffinity_variance>
1.9376192093

$$$$
[H]c1c([H])c([H])c(C([H])([H])[C@@]([H])(C(=O)N([H])[C@]([H])(C(=O)N([H])[C@]([H])(C(=O)N([H])[H])C([H])([H])c2c([H])n([H])c3c([H])c([H])c([H])c([H])c23)C([H])([H])c2c([H])c([H])c([H])c([H])c2[H])N([H])C(=O)[C@@]([H])(N([H])C(=O)[C@]([H])(N([H])C(=O)[C@@]([H])(N([H])[H])C([H])([H])C([H])(C([H])([H])[H])C([H])([H])[H])C([H])([H])c2c([H])c([H])c([H])c([H])c2[H])C([H])([H])c2c([H])c([H])c([H])c([H])c2[H])c([H])c1[H]


 77 82  0  0  0  0  0  0  0  0999 V2000
  -18.7100   13.9073  -17.9151 C   0  0  0  0  0  0  0  0  0  0  0  0
  -18.4394   15.3740  -18.1890 C   0  0  0  0  0  0  0  0  0  0  0  0
  -17.8490   16.0426  -17.3451 O   0  0  0  0  0  0  0  0  0  0  0  0
  -18.8576   15.9831  -19.3939 N   0  0  0  0  0  0  0  0  0  0  0  0
  -19.3239   15.3783  -20.1065 H   0  0  0  0  0  0  0  0  0  0  0  0
  -18.6392   17.4008  -19.6229 C   0  0  0  0  0  0  0  0  0  0  0  0
  -19.8690   18.1323  -19.7710 C   0  0  0  0  0  0  0  0  0  0  0  0
  -20.7723   17.9586  -18.8723 O   0  0  0  0  0  0  0  0  0  0  0  0
  -20.2227   19.0317  -20.7973 N   0  0  0  0  0  0  0  0  0  0  0  0
  -19.4668   19.2104  -21.5182 H   0  0  0  0  0  0  0  0  0  0  0  0
  -21.4511   19.7151  -20.9672 C   0  0  0  0  0  0  0  0  0  0  0  0
  -21.5447   20.9292  -20.0963 C   0  0  0  0  0  0  0  0  0  0  0  0
  -22.7355   21.3297  -19.4539 N   0  0  0  0  0  0  0  0  0  0  0  0
  -20.5081   21.6113  -19.9409 O   0  0  0  0  0  0  0  0  0  0  0  0
  -23.0303   20.8471  -18.5617 H   0  0  0  0  0  0  0  0  0  0  0  0
  -23.3644   22.0674  -19.7797 H   0  0  0  0  0  0  0  0  0  0  0  0
  -22.7148   18.9329  -20.9478 C   0  0  0  0  0  0  0  0  0  0  0  0
  -23.1546   18.4655  -22.2750 C   0  0  0  0  0  0  0  0  0  0  0  0
  -23.8370   17.2389  -22.4902 C   0  0  0  0  0  0  0  0  0  0  0  0
  -24.1187   17.1227  -23.7889 N   0  0  0  0  0  0  0  0  0  0  0  0
  -23.6677   18.1940  -24.4615 C   0  0  0  0  0  0  0  0  0  0  0  0
  -23.6717   18.5619  -25.7888 C   0  0  0  0  0  0  0  0  0  0  0  0
  -23.1017   19.7328  -26.2398 C   0  0  0  0  0  0  0  0  0  0  0  0
  -22.5129   20.5473  -25.2981 C   0  0  0  0  0  0  0  0  0  0  0  0
  -22.4933   20.2053  -23.9526 C   0  0  0  0  0  0  0  0  0  0  0  0
  -23.0735   19.0229  -23.5281 C   0  0  0  0  0  0  0  0  0  0  0  0
  -24.6233   16.3270  -24.2858 H   0  0  0  0  0  0  0  0  0  0  0  0
  -17.6738   17.6491  -20.7841 C   0  0  0  0  0  0  0  0  0  0  0  0
  -17.5197   16.5579  -21.7175 C   0  0  0  0  0  0  0  0  0  0  0  0
  -18.4799   16.3441  -22.6838 C   0  0  0  0  0  0  0  0  0  0  0  0
  -18.3851   15.3197  -23.6238 C   0  0  0  0  0  0  0  0  0  0  0  0
  -17.2786   14.4852  -23.5827 C   0  0  0  0  0  0  0  0  0  0  0  0
  -16.3240   14.6932  -22.6266 C   0  0  0  0  0  0  0  0  0  0  0  0
  -16.4480   15.7076  -21.7176 C   0  0  0  0  0  0  0  0  0  0  0  0
  -21.0673   14.1730  -16.9576 C   0  0  0  0  0  0  0  0  0  0  0  0
  -21.5221   14.7039  -17.9926 O   0  0  0  0  0  0  0  0  0  0  0  0
  -19.7192   13.7634  -16.9271 N   0  0  0  0  0  0  0  0  0  0  0  0
  -19.3828   13.2618  -16.0253 H   0  0  0  0  0  0  0  0  0  0  0  0
  -21.9568   14.0230  -15.8146 C   0  0  0  0  0  0  0  0  0  0  0  0
  -21.2648   11.8490  -14.7670 C   0  0  0  0  0  0  0  0  0  0  0  0
  -21.6954   11.2860  -15.7999 O   0  0  0  0  0  0  0  0  0  0  0  0
  -21.3743   13.2409  -14.7179 N   0  0  0  0  0  0  0  0  0  0  0  0
  -21.0450   13.7646  -13.8898 H   0  0  0  0  0  0  0  0  0  0  0  0
  -20.6872   10.9590  -13.7053 C   0  0  0  0  0  0  0  0  0  0  0  0
  -19.9637    8.6337  -14.4220 C   0  0  0  0  0  0  0  0  0  0  0  0
  -18.7709    9.0330  -14.4212 O   0  0  0  0  0  0  0  0  0  0  0  0
  -20.9629    9.5746  -14.0605 N   0  0  0  0  0  0  0  0  0  0  0  0
  -21.9507    9.2466  -14.0509 H   0  0  0  0  0  0  0  0  0  0  0  0
  -20.3187    7.2565  -14.7871 C   0  0  0  0  0  0  0  0  0  0  0  0
  -19.1847    6.3881  -14.9273 N   0  0  0  0  0  0  0  0  0  0  0  0
  -18.3494    6.9396  -15.2315 H   0  0  0  0  0  0  0  0  0  0  0  0
  -19.3363    5.6223  -15.6223 H   0  0  0  0  0  0  0  0  0  0  0  0
  -21.4494    6.6451  -14.0417 C   0  0  0  0  0  0  0  0  0  0  0  0
  -21.8939    4.2150  -14.6327 C   0  0  0  0  0  0  0  0  0  0  0  0
  -22.2677    5.6475  -14.7848 C   0  0  0  0  0  0  0  0  0  0  0  0
  -22.3875    5.9915  -16.2624 C   0  0  0  0  0  0  0  0  0  0  0  0
  -21.1721   11.3594  -12.3591 C   0  0  0  0  0  0  0  0  0  0  0  0
  -20.5023   10.7894  -11.2102 C   0  0  0  0  0  0  0  0  0  0  0  0
  -21.1525   10.5161  -10.0427 C   0  0  0  0  0  0  0  0  0  0  0  0
  -20.4691    9.9499   -8.9603 C   0  0  0  0  0  0  0  0  0  0  0  0
  -19.1316    9.6553   -9.0443 C   0  0  0  0  0  0  0  0  0  0  0  0
  -18.4679    9.9293  -10.2188 C   0  0  0  0  0  0  0  0  0  0  0  0
  -19.1476   10.4962  -11.3038 C   0  0  0  0  0  0  0  0  0  0  0  0
  -22.8231   15.1010  -15.3350 C   0  0  0  0  0  0  0  0  0  0  0  0
  -23.8391   14.8388  -14.3442 C   0  0  0  0  0  0  0  0  0  0  0  0
  -25.1317   14.4926  -14.7578 C   0  0  0  0  0  0  0  0  0  0  0  0
  -26.1320   14.2567  -13.8419 C   0  0  0  0  0  0  0  0  0  0  0  0
  -25.9019   14.3517  -12.4833 C   0  0  0  0  0  0  0  0  0  0  0  0
  -24.6373   14.6909  -12.0690 C   0  0  0  0  0  0  0  0  0  0  0  0
  -23.6498   14.9229  -13.0035 C   0  0  0  0  0  0  0  0  0  0  0  0
  -18.9246   13.2954  -19.2587 C   0  0  0  0  0  0  0  0  0  0  0  0
  -17.9515   12.3163  -19.7028 C   0  0  0  0  0  0  0  0  0  0  0  0
  -17.1262   11.6899  -18.7971 C   0  0  0  0  0  0  0  0  0  0  0  0
  -16.2140   10.7329  -19.2037 C   0  0  0  0  0  0  0  0  0  0  0  0
  -16.0764   10.3558  -20.5161 C   0  0  0  0  0  0  0  0  0  0  0  0
  -16.9127   10.9937  -21.4314 C   0  0  0  0  0  0  0  0  0  0  0  0
  -17.8257   11.9486  -21.0320 C   0  0  0  0  0  0  0  0  0  0  0  0
 54 55  1  0  0  0
 55 56  1  0  0  0
 55 53  1  0  0  0
 53 49  1  0  0  0
 49 50  1  0  0  0
 49 45  1  0  0  0
 45 46  2  0  0  0
 45 47  1  0  0  0
 47 44  1  0  0  0
 44 57  1  0  0  0
 57 58  1  0  0  0
 58 59  2  0  0  0
 59 60  1  0  0  0
 60 61  2  0  0  0
 61 62  1  0  0  0
 62 63  2  0  0  0
 44 40  1  0  0  0
 40 41  2  0  0  0
 40 42  1  0  0  0
 42 39  1  0  0  0
 39 64  1  0  0  0
 64 65  1  0  0  0
 65 66  2  0  0  0
 66 67  1  0  0  0
 67 68  2  0  0  0
 68 69  1  0  0  0
 69 70  2  0  0  0
 39 35  1  0  0  0
 35 36  2  0  0  0
 35 37  1  0  0  0
 37  1  1  0  0  0
  1 71  1  0  0  0
 71 72  1  0  0  0
 72 73  2  0  0  0
 73 74  1  0  0  0
 74 75  2  0  0  0
 75 76  1  0  0  0
 76 77  2  0  0  0
  1  2  1  0  0  0
  2  3  2  0  0  0
  2  4  1  0  0  0
  4  6  1  0  0  0
  6 28  1  0  0  0
 28 29  1  0  0  0
 29 30  2  0  0  0
 30 31  1  0  0  0
 31 32  2  0  0  0
 32 33  1  0  0  0
 33 34  2  0  0  0
  6  7  1  0  0  0
  7  8  2  0  0  0
  7  9  1  0  0  0
  9 11  1  0  0  0
 11 17  1  0  0  0
 17 18  1  0  0  0
 18 19  2  0  0  0
 19 20  1  0  0  0
 20 21  1  0  0  0
 21 22  2  0  0  0
 22 23  1  0  0  0
 23 24  2  0  0  0
 24 25  1  0  0  0
 25 26  2  0  0  0
 11 12  1  0  0  0
 12 13  1  0  0  0
 12 14  2  0  0  0
 63 58  1  0  0  0
 70 65  1  0  0  0
 77 72  1  0  0  0
 34 29  1  0  0  0
 26 18  1  0  0  0
 26 21  1  0  0  0
 50 51  1  0  0  0
 50 52  1  0  0  0
 47 48  1  0  0  0
 42 43  1  0  0  0
 37 38  1  0  0  0
  4  5  1  0  0  0
  9 10  1  0  0  0
 20 27  1  0  0  0
 13 15  1  0  0  0
 13 16  1  0  0  0
M  END
> <minimizedAffinity>
-8.69025

> <CNNscore>
0.1297291070

> <CNNaffinity>
7.2442750931

> <CNN_VS>
0.9397933483

> <CNNaffinity_variance>
1.5872892141

$$$$
[H]c1c([H])c(C([H])([H])N2C([H])([H])C([H])([H])N(C(=O)OC([H])([H])[H])C([H])([H])C2([H])[H])c([H])c([H])c1-c1c([H])c2c([H])c([H])c([H])c([H])c2n1[H]


 27 30  0  0  0  0  0  0  0  0999 V2000
  -16.1326   11.6150  -21.8485 C   0  0  0  0  0  0  0  0  0  0  0  0
  -17.1619   12.3825  -21.3458 C   0  0  0  0  0  0  0  0  0  0  0  0
  -17.8605   12.0074  -20.2017 C   0  0  0  0  0  0  0  0  0  0  0  0
  -17.5112   10.8357  -19.5559 C   0  0  0  0  0  0  0  0  0  0  0  0
  -16.4897   10.0565  -20.0391 C   0  0  0  0  0  0  0  0  0  0  0  0
  -15.7949   10.4412  -21.1872 C   0  0  0  0  0  0  0  0  0  0  0  0
  -18.2397   10.4324  -18.3516 C   0  0  0  0  0  0  0  0  0  0  0  0
  -19.2110   11.1337  -17.6880 C   0  0  0  0  0  0  0  0  0  0  0  0
  -19.6448   10.4055  -16.5993 C   0  0  0  0  0  0  0  0  0  0  0  0
  -20.5717   10.5845  -15.5932 C   0  0  0  0  0  0  0  0  0  0  0  0
  -20.8012    9.6549  -14.6028 C   0  0  0  0  0  0  0  0  0  0  0  0
  -20.0561    8.4966  -14.6399 C   0  0  0  0  0  0  0  0  0  0  0  0
  -19.1226    8.2879  -15.6317 C   0  0  0  0  0  0  0  0  0  0  0  0
  -18.9050    9.2320  -16.6184 C   0  0  0  0  0  0  0  0  0  0  0  0
  -18.0753    9.2832  -17.6798 N   0  0  0  0  0  0  0  0  0  0  0  0
  -17.4120    8.5137  -17.9119 H   0  0  0  0  0  0  0  0  0  0  0  0
  -15.3834   11.9942  -23.0563 C   0  0  0  0  0  0  0  0  0  0  0  0
  -17.4571   16.4015  -23.9844 C   0  0  0  0  0  0  0  0  0  0  0  0
  -18.7061   16.3423  -24.0953 O   0  0  0  0  0  0  0  0  0  0  0  0
  -16.6440   15.4015  -24.5831 N   0  0  0  0  0  0  0  0  0  0  0  0
  -17.2185   14.2983  -25.3290 C   0  0  0  0  0  0  0  0  0  0  0  0
  -16.7213   12.9870  -24.7723 C   0  0  0  0  0  0  0  0  0  0  0  0
  -15.8220   13.1970  -23.6855 N   0  0  0  0  0  0  0  0  0  0  0  0
  -14.7387   14.0997  -23.9789 C   0  0  0  0  0  0  0  0  0  0  0  0
  -15.1942   15.4300  -24.4802 C   0  0  0  0  0  0  0  0  0  0  0  0
  -16.8522   17.4780  -21.8485 C   0  0  0  0  0  0  0  0  0  0  0  0
  -16.9199   17.4555  -23.2723 O   0  0  0  0  0  0  0  0  0  0  0  0
 26 27  1  0  0  0
 27 18  1  0  0  0
 18 19  2  0  0  0
 18 20  1  0  0  0
 20 21  1  0  0  0
 21 22  1  0  0  0
 22 23  1  0  0  0
 23 17  1  0  0  0
 17  1  1  0  0  0
  1  2  2  0  0  0
  2  3  1  0  0  0
  3  4  2  0  0  0
  4  5  1  0  0  0
  5  6  2  0  0  0
  4  7  1  0  0  0
  7  8  2  0  0  0
  8  9  1  0  0  0
  9 10  2  0  0  0
 10 11  1  0  0  0
 11 12  2  0  0  0
 12 13  1  0  0  0
 13 14  2  0  0  0
 14 15  1  0  0  0
 23 24  1  0  0  0
 24 25  1  0  0  0
 25 20  1  0  0  0
  6  1  1  0  0  0
 15  7  1  0  0  0
 14  9  1  0  0  0
 15 16  1  0  0  0
M  END
> <minimizedAffinity>
-8.77288

> <CNNscore>
0.4250169098

> <CNNaffinity>
5.8530640602

> <CNN_VS>
2.4876511097

> <CNNaffinity_variance>
0.4517470300

$$$$
[H]c1c([H])c(C([H])([H])N2C([H])([H])C([H])([H])N(C(=O)OC([H])([H])[H])C([H])([H])C2([H])[H])c([H])c([H])c1-c1c([H])c2c([H])c([H])c([H])c([H])c2n1[H]


 27 30  0  0  0  0  0  0  0  0999 V2000
  -20.4467   10.0332  -15.6622 C   0  0  0  0  0  0  0  0  0  0  0  0
  -20.4744   11.2803  -16.2498 C   0  0  0  0  0  0  0  0  0  0  0  0
  -19.6858   11.5835  -17.3561 C   0  0  0  0  0  0  0  0  0  0  0  0
  -18.8552   10.6078  -17.8760 C   0  0  0  0  0  0  0  0  0  0  0  0
  -18.8119    9.3596  -17.3066 C   0  0  0  0  0  0  0  0  0  0  0  0
  -19.6067    9.0651  -16.1973 C   0  0  0  0  0  0  0  0  0  0  0  0
  -18.0218   10.9166  -19.0396 C   0  0  0  0  0  0  0  0  0  0  0  0
  -16.8912   10.2645  -19.4547 C   0  0  0  0  0  0  0  0  0  0  0  0
  -16.4023   10.8676  -20.5953 C   0  0  0  0  0  0  0  0  0  0  0  0
  -15.3310   10.6663  -21.4411 C   0  0  0  0  0  0  0  0  0  0  0  0
  -15.0805   11.4529  -22.5438 C   0  0  0  0  0  0  0  0  0  0  0  0
  -15.9573   12.4858  -22.7943 C   0  0  0  0  0  0  0  0  0  0  0  0
  -17.0367   12.7129  -21.9685 C   0  0  0  0  0  0  0  0  0  0  0  0
  -17.2733   11.9132  -20.8655 C   0  0  0  0  0  0  0  0  0  0  0  0
  -18.2288   11.9118  -19.9145 N   0  0  0  0  0  0  0  0  0  0  0  0
  -19.0054   12.6066  -19.8974 H   0  0  0  0  0  0  0  0  0  0  0  0
  -21.2718    9.6942  -14.4926 C   0  0  0  0  0  0  0  0  0  0  0  0
  -20.0110    8.1019   -9.9691 C   0  0  0  0  0  0  0  0  0  0  0  0
  -19.9864    9.0213   -9.1148 O   0  0  0  0  0  0  0  0  0  0  0  0
  -19.4724    8.3242  -11.2653 N   0  0  0  0  0  0  0  0  0  0  0  0
  -18.8866    9.5973  -11.6389 C   0  0  0  0  0  0  0  0  0  0  0  0
  -19.5477   10.1200  -12.8905 C   0  0  0  0  0  0  0  0  0  0  0  0
  -20.5467    9.2171  -13.3605 N   0  0  0  0  0  0  0  0  0  0  0  0
  -20.0903    7.8606  -13.5222 C   0  0  0  0  0  0  0  0  0  0  0  0
  -19.4795    7.2888  -12.2858 C   0  0  0  0  0  0  0  0  0  0  0  0
  -21.7467    6.7915   -8.8044 C   0  0  0  0  0  0  0  0  0  0  0  0
  -20.5708    6.8938   -9.6038 O   0  0  0  0  0  0  0  0  0  0  0  0
 26 27  1  0  0  0
 27 18  1  0  0  0
 18 19  2  0  0  0
 18 20  1  0  0  0
 20 21  1  0  0  0
 21 22  1  0  0  0
 22 23  1  0  0  0
 23 17  1  0  0  0
 17  1  1  0  0  0
  1  2  2  0  0  0
  2  3  1  0  0  0
  3  4  2  0  0  0
  4  5  1  0  0  0
  5  6  2  0  0  0
  4  7  1  0  0  0
  7  8  2  0  0  0
  8  9  1  0  0  0
  9 10  2  0  0  0
 10 11  1  0  0  0
 11 12  2  0  0  0
 12 13  1  0  0  0
 13 14  2  0  0  0
 14 15  1  0  0  0
 23 24  1  0  0  0
 24 25  1  0  0  0
 25 20  1  0  0  0
  6  1  1  0  0  0
 15  7  1  0  0  0
 14  9  1  0  0  0
 15 16  1  0  0  0
M  END
> <minimizedAffinity>
-7.09116

> <CNNscore>
0.4128262997

> <CNNaffinity>
5.0455923080

> <CNN_VS>
2.0829532146

> <CNNaffinity_variance>
0.2787143588

$$$$
[H]c1c([H])c(C([H])([H])N2C([H])([H])C([H])([H])N(C(=O)OC([H])([H])[H])C([H])([H])C2([H])[H])c([H])c([H])c1-c1c([H])c2c([H])c([H])c([H])c([H])c2n1[H]


 27 30  0  0  0  0  0  0  0  0999 V2000
  -16.0181   11.5164  -21.8581 C   0  0  0  0  0  0  0  0  0  0  0  0
  -17.0703   12.2912  -21.4178 C   0  0  0  0  0  0  0  0  0  0  0  0
  -17.7990   11.9543  -20.2806 C   0  0  0  0  0  0  0  0  0  0  0  0
  -17.4567   10.8138  -19.5775 C   0  0  0  0  0  0  0  0  0  0  0  0
  -16.4128   10.0280  -19.9981 C   0  0  0  0  0  0  0  0  0  0  0  0
  -15.6879   10.3744  -21.1398 C   0  0  0  0  0  0  0  0  0  0  0  0
  -18.2167   10.4507  -18.3799 C   0  0  0  0  0  0  0  0  0  0  0  0
  -19.2168   11.1654  -17.7760 C   0  0  0  0  0  0  0  0  0  0  0  0
  -19.6747   10.4770  -16.6714 C   0  0  0  0  0  0  0  0  0  0  0  0
  -20.6343   10.6847  -15.7021 C   0  0  0  0  0  0  0  0  0  0  0  0
  -20.8824    9.7940  -14.6810 C   0  0  0  0  0  0  0  0  0  0  0  0
  -20.1218    8.6456  -14.6469 C   0  0  0  0  0  0  0  0  0  0  0  0
  -19.1557    8.4089  -15.6005 C   0  0  0  0  0  0  0  0  0  0  0  0
  -18.9198    9.3142  -16.6188 C   0  0  0  0  0  0  0  0  0  0  0  0
  -18.0586    9.3329  -17.6559 N   0  0  0  0  0  0  0  0  0  0  0  0
  -17.3787    8.5637  -17.8354 H   0  0  0  0  0  0  0  0  0  0  0  0
  -15.2370   11.8556  -23.0575 C   0  0  0  0  0  0  0  0  0  0  0  0
  -15.6979   15.5883  -26.2886 C   0  0  0  0  0  0  0  0  0  0  0  0
  -14.7109   16.3640  -26.2859 O   0  0  0  0  0  0  0  0  0  0  0  0
  -16.2220   15.1037  -25.0598 N   0  0  0  0  0  0  0  0  0  0  0  0
  -15.6455   15.4815  -23.7838 C   0  0  0  0  0  0  0  0  0  0  0  0
  -15.2895   14.2459  -22.9943 C   0  0  0  0  0  0  0  0  0  0  0  0
  -15.6290   13.0610  -23.7118 N   0  0  0  0  0  0  0  0  0  0  0  0
  -16.9898   13.0228  -24.1822 C   0  0  0  0  0  0  0  0  0  0  0  0
  -17.3630   14.2039  -25.0154 C   0  0  0  0  0  0  0  0  0  0  0  0
  -15.6862   15.6495  -28.7549 C   0  0  0  0  0  0  0  0  0  0  0  0
  -16.2395   15.2345  -27.5084 O   0  0  0  0  0  0  0  0  0  0  0  0
 26 27  1  0  0  0
 27 18  1  0  0  0
 18 19  2  0  0  0
 18 20  1  0  0  0
 20 21  1  0  0  0
 21 22  1  0  0  0
 22 23  1  0  0  0
 23 17  1  0  0  0
 17  1  1  0  0  0
  1  2  2  0  0  0
  2  3  1  0  0  0
  3  4  2  0  0  0
  4  5  1  0  0  0
  5  6  2  0  0  0
  4  7  1  0  0  0
  7  8  2  0  0  0
  8  9  1  0  0  0
  9 10  2  0  0  0
 10 11  1  0  0  0
 11 12  2  0  0  0
 12 13  1  0  0  0
 13 14  2  0  0  0
 14 15  1  0  0  0
 23 24  1  0  0  0
 24 25  1  0  0  0
 25 20  1  0  0  0
  6  1  1  0  0  0
 15  7  1  0  0  0
 14  9  1  0  0  0
 15 16  1  0  0  0
M  END
> <minimizedAffinity>
-8.81105

> <CNNscore>
0.4022467136

> <CNNaffinity>
5.9588022232

> <CNN_VS>
2.3969085217

> <CNNaffinity_variance>
0.1518169194

$$$$
[H]c1c([H])c(C([H])([H])N2C([H])([H])C([H])([H])N(C(=O)OC([H])([H])[H])C([H])([H])C2([H])[H])c([H])c([H])c1-c1c([H])c2c([H])c([H])c([H])c([H])c2n1[H]


 27 30  0  0  0  0  0  0  0  0999 V2000
  -20.7751    9.6852  -15.1758 C   0  0  0  0  0  0  0  0  0  0  0  0
  -19.8821    8.7748  -15.7003 C   0  0  0  0  0  0  0  0  0  0  0  0
  -19.0912    9.0811  -16.8040 C   0  0  0  0  0  0  0  0  0  0  0  0
  -19.2063   10.3299  -17.3866 C   0  0  0  0  0  0  0  0  0  0  0  0
  -20.0890   11.2514  -16.8807 C   0  0  0  0  0  0  0  0  0  0  0  0
  -20.8779   10.9348  -15.7733 C   0  0  0  0  0  0  0  0  0  0  0  0
  -18.3788   10.6620  -18.5478 C   0  0  0  0  0  0  0  0  0  0  0  0
  -18.5141   11.7317  -19.3923 C   0  0  0  0  0  0  0  0  0  0  0  0
  -17.5333   11.6825  -20.3615 C   0  0  0  0  0  0  0  0  0  0  0  0
  -17.1723   12.4553  -21.4459 C   0  0  0  0  0  0  0  0  0  0  0  0
  -16.1092   12.1538  -22.2683 C   0  0  0  0  0  0  0  0  0  0  0  0
  -15.3851   11.0193  -21.9733 C   0  0  0  0  0  0  0  0  0  0  0  0
  -15.7203   10.2267  -20.8971 C   0  0  0  0  0  0  0  0  0  0  0  0
  -16.7910   10.5443  -20.0817 C   0  0  0  0  0  0  0  0  0  0  0  0
  -17.3256    9.9596  -18.9908 N   0  0  0  0  0  0  0  0  0  0  0  0
  -16.9427    9.0820  -18.5793 H   0  0  0  0  0  0  0  0  0  0  0  0
  -21.6197    9.3798  -14.0109 C   0  0  0  0  0  0  0  0  0  0  0  0
  -18.1121    8.1332  -10.7355 C   0  0  0  0  0  0  0  0  0  0  0  0
  -17.3705    7.2048  -11.1404 O   0  0  0  0  0  0  0  0  0  0  0  0
  -19.5152    8.0644  -10.9497 N   0  0  0  0  0  0  0  0  0  0  0  0
  -20.1278    6.9401  -11.6310 C   0  0  0  0  0  0  0  0  0  0  0  0
  -20.9601    7.4322  -12.7893 C   0  0  0  0  0  0  0  0  0  0  0  0
  -20.9235    8.8549  -12.8819 N   0  0  0  0  0  0  0  0  0  0  0  0
  -21.2535    9.5369  -11.6569 C   0  0  0  0  0  0  0  0  0  0  0  0
  -20.4116    9.1161  -10.4982 C   0  0  0  0  0  0  0  0  0  0  0  0
  -16.3314    9.0737   -9.3102 C   0  0  0  0  0  0  0  0  0  0  0  0
  -17.5194    9.1991  -10.0881 O   0  0  0  0  0  0  0  0  0  0  0  0
 26 27  1  0  0  0
 27 18  1  0  0  0
 18 19  2  0  0  0
 18 20  1  0  0  0
 20 21  1  0  0  0
 21 22  1  0  0  0
 22 23  1  0  0  0
 23 17  1  0  0  0
 17  1  1  0  0  0
  1  2  2  0  0  0
  2  3  1  0  0  0
  3  4  2  0  0  0
  4  5  1  0  0  0
  5  6  2  0  0  0
  4  7  1  0  0  0
  7  8  2  0  0  0
  8  9  1  0  0  0
  9 10  2  0  0  0
 10 11  1  0  0  0
 11 12  2  0  0  0
 12 13  1  0  0  0
 13 14  2  0  0  0
 14 15  1  0  0  0
 23 24  1  0  0  0
 24 25  1  0  0  0
 25 20  1  0  0  0
  6  1  1  0  0  0
 15  7  1  0  0  0
 14  9  1  0  0  0
 15 16  1  0  0  0
M  END
> <minimizedAffinity>
-7.57495

> <CNNscore>
0.3952518702

> <CNNaffinity>
5.2022113800

> <CNN_VS>
2.0561838150

> <CNNaffinity_variance>
0.0849740878

$$$$
[H]c1c([H])c(C([H])([H])N2C([H])([H])C([H])([H])N(C(=O)OC([H])([H])[H])C([H])([H])C2([H])[H])c([H])c([H])c1-c1c([H])c2c([H])c([H])c([H])c([H])c2n1[H]


 27 30  0  0  0  0  0  0  0  0999 V2000
  -16.3457   11.7823  -21.8042 C   0  0  0  0  0  0  0  0  0  0  0  0
  -17.4021   12.5238  -21.3188 C   0  0  0  0  0  0  0  0  0  0  0  0
  -18.1000   12.1396  -20.1774 C   0  0  0  0  0  0  0  0  0  0  0  0
  -17.7221   10.9853  -19.5163 C   0  0  0  0  0  0  0  0  0  0  0  0
  -16.6734   10.2321  -19.9821 C   0  0  0  0  0  0  0  0  0  0  0  0
  -15.9796   10.6257  -21.1278 C   0  0  0  0  0  0  0  0  0  0  0  0
  -18.4496   10.5726  -18.3146 C   0  0  0  0  0  0  0  0  0  0  0  0
  -18.3323    9.3918  -17.6307 C   0  0  0  0  0  0  0  0  0  0  0  0
  -19.1942    9.3942  -16.5532 C   0  0  0  0  0  0  0  0  0  0  0  0
  -19.5125    8.5168  -15.5371 C   0  0  0  0  0  0  0  0  0  0  0  0
  -20.4465    8.7948  -14.5635 C   0  0  0  0  0  0  0  0  0  0  0  0
  -21.0810   10.0161  -14.6282 C   0  0  0  0  0  0  0  0  0  0  0  0
  -20.7852   10.9143  -15.6305 C   0  0  0  0  0  0  0  0  0  0  0  0
  -19.8446   10.6188  -16.6001 C   0  0  0  0  0  0  0  0  0  0  0  0
  -19.3740   11.2964  -17.6664 N   0  0  0  0  0  0  0  0  0  0  0  0
  -19.7091   12.2506  -17.9180 H   0  0  0  0  0  0  0  0  0  0  0  0
  -15.5968   12.1715  -23.0089 C   0  0  0  0  0  0  0  0  0  0  0  0
  -17.6194   16.6287  -23.8021 C   0  0  0  0  0  0  0  0  0  0  0  0
  -18.8533   16.5746  -24.0258 O   0  0  0  0  0  0  0  0  0  0  0  0
  -16.7486   15.6756  -24.3962 N   0  0  0  0  0  0  0  0  0  0  0  0
  -17.2464   14.6268  -25.2655 C   0  0  0  0  0  0  0  0  0  0  0  0
  -16.7885   13.2804  -24.7612 C   0  0  0  0  0  0  0  0  0  0  0  0
  -15.9892   13.4149  -23.5878 N   0  0  0  0  0  0  0  0  0  0  0  0
  -14.8922   14.3387  -23.7209 C   0  0  0  0  0  0  0  0  0  0  0  0
  -15.3136   15.7002  -24.1650 C   0  0  0  0  0  0  0  0  0  0  0  0
  -17.2497   17.5705  -21.5520 C   0  0  0  0  0  0  0  0  0  0  0  0
  -17.1553   17.6307  -22.9731 O   0  0  0  0  0  0  0  0  0  0  0  0
 26 27  1  0  0  0
 27 18  1  0  0  0
 18 19  2  0  0  0
 18 20  1  0  0  0
 20 21  1  0  0  0
 21 22  1  0  0  0
 22 23  1  0  0  0
 23 17  1  0  0  0
 17  1  1  0  0  0
  1  2  2  0  0  0
  2  3  1  0  0  0
  3  4  2  0  0  0
  4  5  1  0  0  0
  5  6  2  0  0  0
  4  7  1  0  0  0
  7  8  2  0  0  0
  8  9  1  0  0  0
  9 10  2  0  0  0
 10 11  1  0  0  0
 11 12  2  0  0  0
 12 13  1  0  0  0
 13 14  2  0  0  0
 14 15  1  0  0  0
 23 24  1  0  0  0
 24 25  1  0  0  0
 25 20  1  0  0  0
  6  1  1  0  0  0
 15  7  1  0  0  0
 14  9  1  0  0  0
 15 16  1  0  0  0
M  END
> <minimizedAffinity>
-8.53412

> <CNNscore>
0.3220026791

> <CNNaffinity>
5.6333150864

> <CNN_VS>
1.8139425516

> <CNNaffinity_variance>
0.4821374416

$$$$
[H]c1c([H])c(C([H])([H])N2C([H])([H])C([H])([H])N(C(=O)OC([H])([H])[H])C([H])([H])C2([H])[H])c([H])c([H])c1-c1c([H])c2c([H])c([H])c([H])c([H])c2n1[H]


 27 30  0  0  0  0  0  0  0  0999 V2000
  -21.5848   10.7987  -14.4618 C   0  0  0  0  0  0  0  0  0  0  0  0
  -20.8403    9.6974  -14.8282 C   0  0  0  0  0  0  0  0  0  0  0  0
  -19.9769    9.7303  -15.9196 C   0  0  0  0  0  0  0  0  0  0  0  0
  -19.8654   10.8977  -16.6523 C   0  0  0  0  0  0  0  0  0  0  0  0
  -20.5972   12.0059  -16.3052 C   0  0  0  0  0  0  0  0  0  0  0  0
  -21.4605   11.9630  -15.2088 C   0  0  0  0  0  0  0  0  0  0  0  0
  -18.9599   10.9428  -17.8019 C   0  0  0  0  0  0  0  0  0  0  0  0
  -18.0045   10.0253  -18.1499 C   0  0  0  0  0  0  0  0  0  0  0  0
  -17.3657   10.4373  -19.3014 C   0  0  0  0  0  0  0  0  0  0  0  0
  -16.3542    9.9486  -20.1023 C   0  0  0  0  0  0  0  0  0  0  0  0
  -15.9050   10.5962  -21.2321 C   0  0  0  0  0  0  0  0  0  0  0  0
  -16.5116   11.7895  -21.5585 C   0  0  0  0  0  0  0  0  0  0  0  0
  -17.5246   12.3041  -20.7790 C   0  0  0  0  0  0  0  0  0  0  0  0
  -17.9632   11.6406  -19.6478 C   0  0  0  0  0  0  0  0  0  0  0  0
  -18.9116   11.9111  -18.7286 N   0  0  0  0  0  0  0  0  0  0  0  0
  -19.5049   12.7670  -18.7688 H   0  0  0  0  0  0  0  0  0  0  0  0
  -22.5028   10.7830  -13.3125 C   0  0  0  0  0  0  0  0  0  0  0  0
  -19.2941    9.6271   -9.7133 C   0  0  0  0  0  0  0  0  0  0  0  0
  -19.1799    8.3896   -9.5368 O   0  0  0  0  0  0  0  0  0  0  0  0
  -20.5785   10.1978   -9.9237 N   0  0  0  0  0  0  0  0  0  0  0  0
  -21.7796    9.3851   -9.9414 C   0  0  0  0  0  0  0  0  0  0  0  0
  -22.5412    9.6210  -11.2224 C   0  0  0  0  0  0  0  0  0  0  0  0
  -21.8797   10.5797  -12.0455 N   0  0  0  0  0  0  0  0  0  0  0  0
  -21.5603   11.8147  -11.3768 C   0  0  0  0  0  0  0  0  0  0  0  0
  -20.7577   11.6253  -10.1324 C   0  0  0  0  0  0  0  0  0  0  0  0
  -16.8478    9.8421   -9.4769 C   0  0  0  0  0  0  0  0  0  0  0  0
  -18.1447   10.3922   -9.6948 O   0  0  0  0  0  0  0  0  0  0  0  0
 26 27  1  0  0  0
 27 18  1  0  0  0
 18 19  2  0  0  0
 18 20  1  0  0  0
 20 21  1  0  0  0
 21 22  1  0  0  0
 22 23  1  0  0  0
 23 17  1  0  0  0
 17  1  1  0  0  0
  1  2  2  0  0  0
  2  3  1  0  0  0
  3  4  2  0  0  0
  4  5  1  0  0  0
  5  6  2  0  0  0
  4  7  1  0  0  0
  7  8  2  0  0  0
  8  9  1  0  0  0
  9 10  2  0  0  0
 10 11  1  0  0  0
 11 12  2  0  0  0
 12 13  1  0  0  0
 13 14  2  0  0  0
 14 15  1  0  0  0
 23 24  1  0  0  0
 24 25  1  0  0  0
 25 20  1  0  0  0
  6  1  1  0  0  0
 15  7  1  0  0  0
 14  9  1  0  0  0
 15 16  1  0  0  0
M  END
> <minimizedAffinity>
-7.31630

> <CNNscore>
0.2948270440

> <CNNaffinity>
4.8042058945

> <CNN_VS>
1.4164098501

> <CNNaffinity_variance>
0.2989603877

$$$$
[H]c1c([H])c(C([H])([H])N2C([H])([H])C([H])([H])N(C(=O)OC([H])([H])[H])C([H])([H])C2([H])[H])c([H])c([H])c1-c1c([H])c2c([H])c([H])c([H])c([H])c2n1[H]


 27 30  0  0  0  0  0  0  0  0999 V2000
  -19.4605    9.8338  -16.3240 C   0  0  0  0  0  0  0  0  0  0  0  0
  -19.8101   11.1519  -16.5285 C   0  0  0  0  0  0  0  0  0  0  0  0
  -19.3305   11.8737  -17.6178 C   0  0  0  0  0  0  0  0  0  0  0  0
  -18.4827   11.2506  -18.5151 C   0  0  0  0  0  0  0  0  0  0  0  0
  -18.1217    9.9392  -18.3308 C   0  0  0  0  0  0  0  0  0  0  0  0
  -18.6080    9.2237  -17.2352 C   0  0  0  0  0  0  0  0  0  0  0  0
  -17.9728   12.0010  -19.6643 C   0  0  0  0  0  0  0  0  0  0  0  0
  -17.4941   11.4985  -20.8450 C   0  0  0  0  0  0  0  0  0  0  0  0
  -17.1110   12.5376  -21.6681 C   0  0  0  0  0  0  0  0  0  0  0  0
  -16.5746   12.6528  -22.9339 C   0  0  0  0  0  0  0  0  0  0  0  0
  -16.2831   13.8629  -23.5240 C   0  0  0  0  0  0  0  0  0  0  0  0
  -16.5495   15.0010  -22.7944 C   0  0  0  0  0  0  0  0  0  0  0  0
  -17.0853   14.9193  -21.5275 C   0  0  0  0  0  0  0  0  0  0  0  0
  -17.3717   13.6959  -20.9503 C   0  0  0  0  0  0  0  0  0  0  0  0
  -17.8862   13.3362  -19.7572 N   0  0  0  0  0  0  0  0  0  0  0  0
  -18.1659   14.0318  -19.0333 H   0  0  0  0  0  0  0  0  0  0  0  0
  -19.9562    9.0551  -15.1788 C   0  0  0  0  0  0  0  0  0  0  0  0
  -24.4202    9.0291  -13.0205 C   0  0  0  0  0  0  0  0  0  0  0  0
  -25.2419    8.2793  -13.6022 O   0  0  0  0  0  0  0  0  0  0  0  0
  -23.5532    9.8575  -13.7831 N   0  0  0  0  0  0  0  0  0  0  0  0
  -23.5871    9.8650  -15.2331 C   0  0  0  0  0  0  0  0  0  0  0  0
  -22.2090    9.5869  -15.7810 C   0  0  0  0  0  0  0  0  0  0  0  0
  -21.2628    9.4091  -14.7288 N   0  0  0  0  0  0  0  0  0  0  0  0
  -21.2488   10.4734  -13.7586 C   0  0  0  0  0  0  0  0  0  0  0  0
  -22.5864   10.7410  -13.1521 C   0  0  0  0  0  0  0  0  0  0  0  0
  -24.5510    7.8238  -10.8718 C   0  0  0  0  0  0  0  0  0  0  0  0
  -24.3956    9.0146  -11.6400 O   0  0  0  0  0  0  0  0  0  0  0  0
 26 27  1  0  0  0
 27 18  1  0  0  0
 18 19  2  0  0  0
 18 20  1  0  0  0
 20 21  1  0  0  0
 21 22  1  0  0  0
 22 23  1  0  0  0
 23 17  1  0  0  0
 17  1  1  0  0  0
  1  2  2  0  0  0
  2  3  1  0  0  0
  3  4  2  0  0  0
  4  5  1  0  0  0
  5  6  2  0  0  0
  4  7  1  0  0  0
  7  8  2  0  0  0
  8  9  1  0  0  0
  9 10  2  0  0  0
 10 11  1  0  0  0
 11 12  2  0  0  0
 12 13  1  0  0  0
 13 14  2  0  0  0
 14 15  1  0  0  0
 23 24  1  0  0  0
 24 25  1  0  0  0
 25 20  1  0  0  0
  6  1  1  0  0  0
 15  7  1  0  0  0
 14  9  1  0  0  0
 15 16  1  0  0  0
M  END
> <minimizedAffinity>
-7.32030

> <CNNscore>
0.2872735858

> <CNNaffinity>
5.0943861008

> <CNN_VS>
1.4634826183

> <CNNaffinity_variance>
0.2090560198

$$$$
[H]c1c([H])c(C([H])([H])N2C([H])([H])C([H])([H])N(C(=O)OC([H])([H])[H])C([H])([H])C2([H])[H])c([H])c([H])c1-c1c([H])c2c([H])c([H])c([H])c([H])c2n1[H]


 27 30  0  0  0  0  0  0  0  0999 V2000
  -19.7931    9.9681  -16.5420 C   0  0  0  0  0  0  0  0  0  0  0  0
  -18.7146    9.5287  -17.2802 C   0  0  0  0  0  0  0  0  0  0  0  0
  -18.1527   10.3089  -18.2869 C   0  0  0  0  0  0  0  0  0  0  0  0
  -18.6918   11.5547  -18.5506 C   0  0  0  0  0  0  0  0  0  0  0  0
  -19.7655   12.0118  -17.8278 C   0  0  0  0  0  0  0  0  0  0  0  0
  -20.3220   11.2220  -16.8201 C   0  0  0  0  0  0  0  0  0  0  0  0
  -18.1080   12.3831  -19.6072 C   0  0  0  0  0  0  0  0  0  0  0  0
  -18.0023   13.7482  -19.6367 C   0  0  0  0  0  0  0  0  0  0  0  0
  -17.3897   14.1391  -20.8096 C   0  0  0  0  0  0  0  0  0  0  0  0
  -17.0226   15.3388  -21.3836 C   0  0  0  0  0  0  0  0  0  0  0  0
  -16.4032   15.4314  -22.6105 C   0  0  0  0  0  0  0  0  0  0  0  0
  -16.1475   14.2539  -23.2787 C   0  0  0  0  0  0  0  0  0  0  0  0
  -16.5017   13.0396  -22.7321 C   0  0  0  0  0  0  0  0  0  0  0  0
  -17.1232   12.9650  -21.4990 C   0  0  0  0  0  0  0  0  0  0  0  0
  -17.5665   11.9357  -20.7497 N   0  0  0  0  0  0  0  0  0  0  0  0
  -17.4810   10.9423  -21.0531 H   0  0  0  0  0  0  0  0  0  0  0  0
  -20.4010    9.1581  -15.4751 C   0  0  0  0  0  0  0  0  0  0  0  0
  -21.4380   10.2371  -10.7479 C   0  0  0  0  0  0  0  0  0  0  0  0
  -22.6603   10.4414  -10.5482 O   0  0  0  0  0  0  0  0  0  0  0  0
  -20.8091   10.7735  -11.9039 N   0  0  0  0  0  0  0  0  0  0  0  0
  -21.5443   11.5610  -12.8749 C   0  0  0  0  0  0  0  0  0  0  0  0
  -21.3732   10.9692  -14.2523 C   0  0  0  0  0  0  0  0  0  0  0  0
  -20.5322    9.8179  -14.2172 N   0  0  0  0  0  0  0  0  0  0  0  0
  -19.2662   10.0288  -13.5636 C   0  0  0  0  0  0  0  0  0  0  0  0
  -19.3967   10.5622  -12.1754 C   0  0  0  0  0  0  0  0  0  0  0  0
  -21.1399    8.1710   -9.4330 C   0  0  0  0  0  0  0  0  0  0  0  0
  -20.7470    9.4862   -9.8177 O   0  0  0  0  0  0  0  0  0  0  0  0
 26 27  1  0  0  0
 27 18  1  0  0  0
 18 19  2  0  0  0
 18 20  1  0  0  0
 20 21  1  0  0  0
 21 22  1  0  0  0
 22 23  1  0  0  0
 23 17  1  0  0  0
 17  1  1  0  0  0
  1  2  2  0  0  0
  2  3  1  0  0  0
  3  4  2  0  0  0
  4  5  1  0  0  0
  5  6  2  0  0  0
  4  7  1  0  0  0
  7  8  2  0  0  0
  8  9  1  0  0  0
  9 10  2  0  0  0
 10 11  1  0  0  0
 11 12  2  0  0  0
 12 13  1  0  0  0
 13 14  2  0  0  0
 14 15  1  0  0  0
 23 24  1  0  0  0
 24 25  1  0  0  0
 25 20  1  0  0  0
  6  1  1  0  0  0
 15  7  1  0  0  0
 14  9  1  0  0  0
 15 16  1  0  0  0
M  END
> <minimizedAffinity>
-7.22390

> <CNNscore>
0.2717031538

> <CNNaffinity>
5.0903463364

> <CNN_VS>
1.3830631971

> <CNNaffinity_variance>
0.0840287805

$$$$
[H]c1c([H])c(C([H])([H])N2C([H])([H])C([H])([H])N(C(=O)OC([H])([H])[H])C([H])([H])C2([H])[H])c([H])c([H])c1-c1c([H])c2c([H])c([H])c([H])c([H])c2n1[H]


 27 30  0  0  0  0  0  0  0  0999 V2000
  -18.2467   10.1560  -17.8556 C   0  0  0  0  0  0  0  0  0  0  0  0
  -18.9140   11.3620  -17.8969 C   0  0  0  0  0  0  0  0  0  0  0  0
  -18.7956   12.2248  -18.9828 C   0  0  0  0  0  0  0  0  0  0  0  0
  -17.9882   11.8605  -20.0447 C   0  0  0  0  0  0  0  0  0  0  0  0
  -17.3148   10.6646  -20.0244 C   0  0  0  0  0  0  0  0  0  0  0  0
  -17.4400    9.8060  -18.9307 C   0  0  0  0  0  0  0  0  0  0  0  0
  -17.8571   12.7609  -21.1918 C   0  0  0  0  0  0  0  0  0  0  0  0
  -18.2442   14.0720  -21.2738 C   0  0  0  0  0  0  0  0  0  0  0  0
  -17.9451   14.5648  -22.5274 C   0  0  0  0  0  0  0  0  0  0  0  0
  -18.0923   15.7722  -23.1784 C   0  0  0  0  0  0  0  0  0  0  0  0
  -17.6874   15.9844  -24.4779 C   0  0  0  0  0  0  0  0  0  0  0  0
  -17.1093   14.9233  -25.1399 C   0  0  0  0  0  0  0  0  0  0  0  0
  -16.9482   13.7047  -24.5173 C   0  0  0  0  0  0  0  0  0  0  0  0
  -17.3605   13.5091  -23.2119 C   0  0  0  0  0  0  0  0  0  0  0  0
  -17.3247   12.4472  -22.3821 N   0  0  0  0  0  0  0  0  0  0  0  0
  -16.9286   11.5258  -22.6656 H   0  0  0  0  0  0  0  0  0  0  0  0
  -18.3585    9.2316  -16.7169 C   0  0  0  0  0  0  0  0  0  0  0  0
  -22.8586    7.9856  -15.0489 C   0  0  0  0  0  0  0  0  0  0  0  0
  -23.7470    8.0588  -15.9327 O   0  0  0  0  0  0  0  0  0  0  0  0
  -21.8728    9.0042  -14.9484 N   0  0  0  0  0  0  0  0  0  0  0  0
  -21.8592   10.1426  -15.8469 C   0  0  0  0  0  0  0  0  0  0  0  0
  -20.5088   10.2581  -16.5100 C   0  0  0  0  0  0  0  0  0  0  0  0
  -19.6256    9.2321  -16.0616 N   0  0  0  0  0  0  0  0  0  0  0  0
  -19.5124    9.1321  -14.6292 C   0  0  0  0  0  0  0  0  0  0  0  0
  -20.8258    8.9603  -13.9408 C   0  0  0  0  0  0  0  0  0  0  0  0
  -22.2710    5.6492  -14.5173 C   0  0  0  0  0  0  0  0  0  0  0  0
  -22.8801    6.8980  -14.1984 O   0  0  0  0  0  0  0  0  0  0  0  0
 26 27  1  0  0  0
 27 18  1  0  0  0
 18 19  2  0  0  0
 18 20  1  0  0  0
 20 21  1  0  0  0
 21 22  1  0  0  0
 22 23  1  0  0  0
 23 17  1  0  0  0
 17  1  1  0  0  0
  1  2  2  0  0  0
  2  3  1  0  0  0
  3  4  2  0  0  0
  4  5  1  0  0  0
  5  6  2  0  0  0
  4  7  1  0  0  0
  7  8  2  0  0  0
  8  9  1  0  0  0
  9 10  2  0  0  0
 10 11  1  0  0  0
 11 12  2  0  0  0
 12 13  1  0  0  0
 13 14  2  0  0  0
 14 15  1  0  0  0
 23 24  1  0  0  0
 24 25  1  0  0  0
 25 20  1  0  0  0
  6  1  1  0  0  0
 15  7  1  0  0  0
 14  9  1  0  0  0
 15 16  1  0  0  0
M  END
> <minimizedAffinity>
-8.04667

> <CNNscore>
0.2538067102

> <CNNaffinity>
5.4727325439

> <CNN_VS>
1.3890162706

> <CNNaffinity_variance>
0.0458669886

$$$$
[H]c1nc(O[C@]2([H])C([H])([H])[C@]([H])(N([H])c3nc4c([H])c([H])c([H])c([H])c4s3)C2([H])[H])c(N2C([H])([H])C([H])([H])OC([H])([H])[C@@]2([H])C([H])([H])C([H])([H])[H])nc1[H]


 30 34  0  0  0  0  0  0  0  0999 V2000
  -18.2479   14.1367  -22.6994 O   0  0  0  0  0  0  0  0  0  0  0  0
  -16.1099   13.3613  -23.4813 C   0  0  0  0  0  0  0  0  0  0  0  0
  -15.0762   12.4703  -23.4120 N   0  0  0  0  0  0  0  0  0  0  0  0
  -15.1186   11.4756  -22.5218 C   0  0  0  0  0  0  0  0  0  0  0  0
  -16.1794   11.3151  -21.6623 C   0  0  0  0  0  0  0  0  0  0  0  0
  -17.1788   12.2094  -21.7577 N   0  0  0  0  0  0  0  0  0  0  0  0
  -17.1924   13.2302  -22.6323 C   0  0  0  0  0  0  0  0  0  0  0  0
  -16.8948   14.3476  -25.6025 C   0  0  0  0  0  0  0  0  0  0  0  0
  -16.3554   15.3578  -26.5897 C   0  0  0  0  0  0  0  0  0  0  0  0
  -14.9801   15.3837  -26.5546 O   0  0  0  0  0  0  0  0  0  0  0  0
  -14.4355   15.8386  -25.3807 C   0  0  0  0  0  0  0  0  0  0  0  0
  -15.3174   15.5973  -24.1712 C   0  0  0  0  0  0  0  0  0  0  0  0
  -16.1075   14.4229  -24.4076 N   0  0  0  0  0  0  0  0  0  0  0  0
  -18.2742   12.3446  -25.7800 C   0  0  0  0  0  0  0  0  0  0  0  0
  -16.9514   12.9594  -26.1857 C   0  0  0  0  0  0  0  0  0  0  0  0
  -18.1755   15.2863  -21.9135 C   0  0  0  0  0  0  0  0  0  0  0  0
  -17.1655   15.2158  -20.7595 C   0  0  0  0  0  0  0  0  0  0  0  0
  -18.1463   16.0420  -19.9632 C   0  0  0  0  0  0  0  0  0  0  0  0
  -19.2461   15.4401  -20.8501 C   0  0  0  0  0  0  0  0  0  0  0  0
  -18.2457   15.7274  -18.5782 N   0  0  0  0  0  0  0  0  0  0  0  0
  -18.0971   16.4223  -17.8227 H   0  0  0  0  0  0  0  0  0  0  0  0
  -18.5652   14.3931  -18.1995 C   0  0  0  0  0  0  0  0  0  0  0  0
  -17.9343   13.2835  -18.5368 N   0  0  0  0  0  0  0  0  0  0  0  0
  -18.3532   12.1318  -18.1061 C   0  0  0  0  0  0  0  0  0  0  0  0
  -17.7778   10.8777  -18.3873 C   0  0  0  0  0  0  0  0  0  0  0  0
  -18.3139    9.7429  -17.8733 C   0  0  0  0  0  0  0  0  0  0  0  0
  -19.4240    9.7178  -17.0633 C   0  0  0  0  0  0  0  0  0  0  0  0
  -20.0020   10.9337  -16.7761 C   0  0  0  0  0  0  0  0  0  0  0  0
  -19.4594   12.1169  -17.3001 C   0  0  0  0  0  0  0  0  0  0  0  0
  -19.8324   13.7898  -17.2120 S   0  0  0  0  0  0  0  0  0  0  0  0
 14 15  1  0  0  0
 15  8  1  0  0  0
  8  9  1  0  0  0
  9 10  1  0  0  0
 10 11  1  0  0  0
 11 12  1  0  0  0
 12 13  1  0  0  0
 13  2  1  0  0  0
  2  3  2  0  0  0
  3  4  1  0  0  0
  4  5  2  0  0  0
  5  6  1  0  0  0
  6  7  2  0  0  0
  7  1  1  0  0  0
  1 16  1  0  0  0
 16 17  1  0  0  0
 17 18  1  0  0  0
 18 19  1  0  0  0
 18 20  1  0  0  0
 20 22  1  0  0  0
 22 23  2  0  0  0
 23 24  1  0  0  0
 24 25  2  0  0  0
 25 26  1  0  0  0
 26 27  2  0  0  0
 27 28  1  0  0  0
 28 29  2  0  0  0
 29 30  1  0  0  0
 13  8  1  0  0  0
  7  2  1  0  0  0
 19 16  1  0  0  0
 30 22  1  0  0  0
 29 24  1  0  0  0
 20 21  1  0  0  0
M  END
> <minimizedAffinity>
-8.03664

> <CNNscore>
0.2576830387

> <CNNaffinity>
6.9721169472

> <CNN_VS>
1.7965962887

> <CNNaffinity_variance>
0.0380178541

$$$$
[H]c1nc(O[C@]2([H])C([H])([H])[C@]([H])(N([H])c3nc4c([H])c([H])c([H])c([H])c4s3)C2([H])[H])c(N2C([H])([H])C([H])([H])OC([H])([H])[C@@]2([H])C([H])([H])C([H])([H])[H])nc1[H]


 30 34  0  0  0  0  0  0  0  0999 V2000
  -19.9644    9.2695  -14.7994 O   0  0  0  0  0  0  0  0  0  0  0  0
  -21.9863    8.8392  -13.5704 C   0  0  0  0  0  0  0  0  0  0  0  0
  -23.0382    9.2932  -12.8256 N   0  0  0  0  0  0  0  0  0  0  0  0
  -23.1439   10.5969  -12.5556 C   0  0  0  0  0  0  0  0  0  0  0  0
  -22.2198   11.5092  -13.0069 C   0  0  0  0  0  0  0  0  0  0  0  0
  -21.1981   11.0281  -13.7365 N   0  0  0  0  0  0  0  0  0  0  0  0
  -21.0384    9.7284  -14.0403 C   0  0  0  0  0  0  0  0  0  0  0  0
  -21.1533    6.5923  -12.9824 C   0  0  0  0  0  0  0  0  0  0  0  0
  -20.7431    5.3563  -13.7507 C   0  0  0  0  0  0  0  0  0  0  0  0
  -20.3030    5.6922  -15.0104 O   0  0  0  0  0  0  0  0  0  0  0  0
  -21.2593    6.2191  -15.8408 C   0  0  0  0  0  0  0  0  0  0  0  0
  -22.3705    6.9399  -15.1028 C   0  0  0  0  0  0  0  0  0  0  0  0
  -21.8383    7.4731  -13.8814 N   0  0  0  0  0  0  0  0  0  0  0  0
  -20.2612    7.2310  -10.8047 C   0  0  0  0  0  0  0  0  0  0  0  0
  -19.9834    7.2454  -12.2930 C   0  0  0  0  0  0  0  0  0  0  0  0
  -19.9676    9.5371  -16.1680 C   0  0  0  0  0  0  0  0  0  0  0  0
  -18.8593    8.8348  -16.9648 C   0  0  0  0  0  0  0  0  0  0  0  0
  -18.8057   10.0764  -17.8216 C   0  0  0  0  0  0  0  0  0  0  0  0
  -19.3269   10.8431  -16.5973 C   0  0  0  0  0  0  0  0  0  0  0  0
  -17.5132   10.4656  -18.2744 N   0  0  0  0  0  0  0  0  0  0  0  0
  -16.6388   10.2493  -17.7602 H   0  0  0  0  0  0  0  0  0  0  0  0
  -17.4037   11.1896  -19.4949 C   0  0  0  0  0  0  0  0  0  0  0  0
  -17.9675   12.3423  -19.8050 N   0  0  0  0  0  0  0  0  0  0  0  0
  -17.7687   12.8792  -20.9710 C   0  0  0  0  0  0  0  0  0  0  0  0
  -18.3056   14.0976  -21.4297 C   0  0  0  0  0  0  0  0  0  0  0  0
  -18.0198   14.5508  -22.6756 C   0  0  0  0  0  0  0  0  0  0  0  0
  -17.2116   13.8862  -23.5666 C   0  0  0  0  0  0  0  0  0  0  0  0
  -16.6764   12.6925  -23.1377 C   0  0  0  0  0  0  0  0  0  0  0  0
  -16.9625   12.2100  -21.8516 C   0  0  0  0  0  0  0  0  0  0  0  0
  -16.5346   10.8271  -20.9295 S   0  0  0  0  0  0  0  0  0  0  0  0
 14 15  1  0  0  0
 15  8  1  0  0  0
  8  9  1  0  0  0
  9 10  1  0  0  0
 10 11  1  0  0  0
 11 12  1  0  0  0
 12 13  1  0  0  0
 13  2  1  0  0  0
  2  3  2  0  0  0
  3  4  1  0  0  0
  4  5  2  0  0  0
  5  6  1  0  0  0
  6  7  2  0  0  0
  7  1  1  0  0  0
  1 16  1  0  0  0
 16 17  1  0  0  0
 17 18  1  0  0  0
 18 19  1  0  0  0
 18 20  1  0  0  0
 20 22  1  0  0  0
 22 23  2  0  0  0
 23 24  1  0  0  0
 24 25  2  0  0  0
 25 26  1  0  0  0
 26 27  2  0  0  0
 27 28  1  0  0  0
 28 29  2  0  0  0
 29 30  1  0  0  0
 13  8  1  0  0  0
  7  2  1  0  0  0
 19 16  1  0  0  0
 30 22  1  0  0  0
 29 24  1  0  0  0
 20 21  1  0  0  0
M  END
> <minimizedAffinity>
-6.34340

> <CNNscore>
0.2525525987

> <CNNaffinity>
6.2709341049

> <CNN_VS>
1.5837407112

> <CNNaffinity_variance>
0.2861936092

$$$$
[H]c1nc(O[C@]2([H])C([H])([H])[C@]([H])(N([H])c3nc4c([H])c([H])c([H])c([H])c4s3)C2([H])[H])c(N2C([H])([H])C([H])([H])OC([H])([H])[C@@]2([H])C([H])([H])C([H])([H])[H])nc1[H]


 30 34  0  0  0  0  0  0  0  0999 V2000
  -18.1983   13.4950  -21.4866 O   0  0  0  0  0  0  0  0  0  0  0  0
  -16.2539   12.6719  -22.6380 C   0  0  0  0  0  0  0  0  0  0  0  0
  -15.2794   11.7259  -22.7885 N   0  0  0  0  0  0  0  0  0  0  0  0
  -15.2506   10.6698  -21.9715 C   0  0  0  0  0  0  0  0  0  0  0  0
  -16.1790   10.4993  -20.9722 C   0  0  0  0  0  0  0  0  0  0  0  0
  -17.1234   11.4488  -20.8525 N   0  0  0  0  0  0  0  0  0  0  0  0
  -17.2035   12.5327  -21.6437 C   0  0  0  0  0  0  0  0  0  0  0  0
  -17.2443   13.8323  -24.5773 C   0  0  0  0  0  0  0  0  0  0  0  0
  -16.7892   14.9005  -25.5459 C   0  0  0  0  0  0  0  0  0  0  0  0
  -15.4188   14.8911  -25.6694 O   0  0  0  0  0  0  0  0  0  0  0  0
  -14.7290   15.2439  -24.5374 C   0  0  0  0  0  0  0  0  0  0  0  0
  -15.4741   14.9338  -23.2538 C   0  0  0  0  0  0  0  0  0  0  0  0
  -16.3234   13.7994  -23.4800 N   0  0  0  0  0  0  0  0  0  0  0  0
  -17.4163   12.7265  -26.7438 C   0  0  0  0  0  0  0  0  0  0  0  0
  -17.4119   12.4934  -25.2478 C   0  0  0  0  0  0  0  0  0  0  0  0
  -18.3942   14.0335  -20.2154 C   0  0  0  0  0  0  0  0  0  0  0  0
  -19.7985   14.6008  -19.9649 C   0  0  0  0  0  0  0  0  0  0  0  0
  -19.1276   15.6629  -19.1280 C   0  0  0  0  0  0  0  0  0  0  0  0
  -17.8816   15.4445  -19.9987 C   0  0  0  0  0  0  0  0  0  0  0  0
  -19.6967   16.9659  -19.2015 N   0  0  0  0  0  0  0  0  0  0  0  0
  -19.4538   17.7330  -18.5471 H   0  0  0  0  0  0  0  0  0  0  0  0
  -20.6497   17.2410  -20.2223 C   0  0  0  0  0  0  0  0  0  0  0  0
  -20.4200   17.6761  -21.4474 N   0  0  0  0  0  0  0  0  0  0  0  0
  -21.4056   17.8810  -22.2683 C   0  0  0  0  0  0  0  0  0  0  0  0
  -21.3029   18.3411  -23.5951 C   0  0  0  0  0  0  0  0  0  0  0  0
  -22.4147   18.5147  -24.3522 C   0  0  0  0  0  0  0  0  0  0  0  0
  -23.6913   18.2662  -23.9081 C   0  0  0  0  0  0  0  0  0  0  0  0
  -23.8139   17.8155  -22.6131 C   0  0  0  0  0  0  0  0  0  0  0  0
  -22.6734   17.6308  -21.8169 C   0  0  0  0  0  0  0  0  0  0  0  0
  -22.3606   17.1076  -20.2125 S   0  0  0  0  0  0  0  0  0  0  0  0
 14 15  1  0  0  0
 15  8  1  0  0  0
  8  9  1  0  0  0
  9 10  1  0  0  0
 10 11  1  0  0  0
 11 12  1  0  0  0
 12 13  1  0  0  0
 13  2  1  0  0  0
  2  3  2  0  0  0
  3  4  1  0  0  0
  4  5  2  0  0  0
  5  6  1  0  0  0
  6  7  2  0  0  0
  7  1  1  0  0  0
  1 16  1  0  0  0
 16 17  1  0  0  0
 17 18  1  0  0  0
 18 19  1  0  0  0
 18 20  1  0  0  0
 20 22  1  0  0  0
 22 23  2  0  0  0
 23 24  1  0  0  0
 24 25  2  0  0  0
 25 26  1  0  0  0
 26 27  2  0  0  0
 27 28  1  0  0  0
 28 29  2  0  0  0
 29 30  1  0  0  0
 13  8  1  0  0  0
  7  2  1  0  0  0
 19 16  1  0  0  0
 30 22  1  0  0  0
 29 24  1  0  0  0
 20 21  1  0  0  0
M  END
> <minimizedAffinity>
-7.55367

> <CNNscore>
0.2392192185

> <CNNaffinity>
6.6606841087

> <CNN_VS>
1.5933636427

> <CNNaffinity_variance>
0.1049788371

$$$$
[H]c1nc(O[C@]2([H])C([H])([H])[C@]([H])(N([H])c3nc4c([H])c([H])c([H])c([H])c4s3)C2([H])[H])c(N2C([H])([H])C([H])([H])OC([H])([H])[C@@]2([H])C([H])([H])C([H])([H])[H])nc1[H]


 30 34  0  0  0  0  0  0  0  0999 V2000
  -16.5801   12.6760  -21.5888 O   0  0  0  0  0  0  0  0  0  0  0  0
  -17.5370   14.6839  -22.5034 C   0  0  0  0  0  0  0  0  0  0  0  0
  -18.0585   15.3702  -23.5637 N   0  0  0  0  0  0  0  0  0  0  0  0
  -18.1551   14.7739  -24.7548 C   0  0  0  0  0  0  0  0  0  0  0  0
  -17.7432   13.4776  -24.9534 C   0  0  0  0  0  0  0  0  0  0  0  0
  -17.2352   12.8321  -23.8890 N   0  0  0  0  0  0  0  0  0  0  0  0
  -17.1127   13.3789  -22.6670 C   0  0  0  0  0  0  0  0  0  0  0  0
  -18.4065   15.0253  -20.2196 C   0  0  0  0  0  0  0  0  0  0  0  0
  -18.2938   16.1085  -19.1708 C   0  0  0  0  0  0  0  0  0  0  0  0
  -18.0605   17.3305  -19.7587 O   0  0  0  0  0  0  0  0  0  0  0  0
  -16.8523   17.4488  -20.3975 C   0  0  0  0  0  0  0  0  0  0  0  0
  -16.3125   16.1316  -20.9196 C   0  0  0  0  0  0  0  0  0  0  0  0
  -17.4202   15.2733  -21.2290 N   0  0  0  0  0  0  0  0  0  0  0  0
  -20.6454   14.1794  -19.7529 C   0  0  0  0  0  0  0  0  0  0  0  0
  -19.8035   14.9157  -20.7734 C   0  0  0  0  0  0  0  0  0  0  0  0
  -17.2183   11.5010  -21.1930 C   0  0  0  0  0  0  0  0  0  0  0  0
  -17.9989   11.6037  -19.8752 C   0  0  0  0  0  0  0  0  0  0  0  0
  -17.5714   10.1806  -19.6097 C   0  0  0  0  0  0  0  0  0  0  0  0
  -16.3516   10.4692  -20.4968 C   0  0  0  0  0  0  0  0  0  0  0  0
  -17.2727    9.8623  -18.2544 N   0  0  0  0  0  0  0  0  0  0  0  0
  -16.3075    9.8185  -17.8775 H   0  0  0  0  0  0  0  0  0  0  0  0
  -18.3470    9.5882  -17.3619 C   0  0  0  0  0  0  0  0  0  0  0  0
  -18.5620    8.4848  -16.6696 N   0  0  0  0  0  0  0  0  0  0  0  0
  -19.5976    8.3878  -15.8914 C   0  0  0  0  0  0  0  0  0  0  0  0
  -19.9448    7.2751  -15.1014 C   0  0  0  0  0  0  0  0  0  0  0  0
  -21.0585    7.2999  -14.3279 C   0  0  0  0  0  0  0  0  0  0  0  0
  -21.9141    8.3726  -14.2497 C   0  0  0  0  0  0  0  0  0  0  0  0
  -21.5927    9.4711  -15.0146 C   0  0  0  0  0  0  0  0  0  0  0  0
  -20.4439    9.4612  -15.8202 C   0  0  0  0  0  0  0  0  0  0  0  0
  -19.6822   10.5603  -16.8961 S   0  0  0  0  0  0  0  0  0  0  0  0
 14 15  1  0  0  0
 15  8  1  0  0  0
  8  9  1  0  0  0
  9 10  1  0  0  0
 10 11  1  0  0  0
 11 12  1  0  0  0
 12 13  1  0  0  0
 13  2  1  0  0  0
  2  3  2  0  0  0
  3  4  1  0  0  0
  4  5  2  0  0  0
  5  6  1  0  0  0
  6  7  2  0  0  0
  7  1  1  0  0  0
  1 16  1  0  0  0
 16 17  1  0  0  0
 17 18  1  0  0  0
 18 19  1  0  0  0
 18 20  1  0  0  0
 20 22  1  0  0  0
 22 23  2  0  0  0
 23 24  1  0  0  0
 24 25  2  0  0  0
 25 26  1  0  0  0
 26 27  2  0  0  0
 27 28  1  0  0  0
 28 29  2  0  0  0
 29 30  1  0  0  0
 13  8  1  0  0  0
  7  2  1  0  0  0
 19 16  1  0  0  0
 30 22  1  0  0  0
 29 24  1  0  0  0
 20 21  1  0  0  0
M  END
> <minimizedAffinity>
-7.75323

> <CNNscore>
0.2302511185

> <CNNaffinity>
6.6196913719

> <CNN_VS>
1.5241913795

> <CNNaffinity_variance>
0.0476280563

$$$$
[H]c1nc(O[C@]2([H])C([H])([H])[C@]([H])(N([H])c3nc4c([H])c([H])c([H])c([H])c4s3)C2([H])[H])c(N2C([H])([H])C([H])([H])OC([H])([H])[C@@]2([H])C([H])([H])C([H])([H])[H])nc1[H]


 30 34  0  0  0  0  0  0  0  0999 V2000
  -19.0874   11.7316  -17.9781 O   0  0  0  0  0  0  0  0  0  0  0  0
  -20.6073   11.8197  -16.1165 C   0  0  0  0  0  0  0  0  0  0  0  0
  -21.5085   12.5099  -15.3558 N   0  0  0  0  0  0  0  0  0  0  0  0
  -21.8041   13.7750  -15.6653 C   0  0  0  0  0  0  0  0  0  0  0  0
  -21.2262   14.4146  -16.7361 C   0  0  0  0  0  0  0  0  0  0  0  0
  -20.3443   13.7061  -17.4628 N   0  0  0  0  0  0  0  0  0  0  0  0
  -20.0068   12.4316  -17.2004 C   0  0  0  0  0  0  0  0  0  0  0  0
  -20.0874   10.0549  -14.4721 C   0  0  0  0  0  0  0  0  0  0  0  0
  -19.3000    8.7642  -14.4844 C   0  0  0  0  0  0  0  0  0  0  0  0
  -18.3055    8.8117  -15.4341 O   0  0  0  0  0  0  0  0  0  0  0  0
  -18.7424    8.8718  -16.7331 C   0  0  0  0  0  0  0  0  0  0  0  0
  -20.1015    9.5267  -16.8845 C   0  0  0  0  0  0  0  0  0  0  0  0
  -20.2693   10.4828  -15.8276 N   0  0  0  0  0  0  0  0  0  0  0  0
  -19.3875   10.5600  -12.1915 C   0  0  0  0  0  0  0  0  0  0  0  0
  -19.4429   11.1039  -13.6034 C   0  0  0  0  0  0  0  0  0  0  0  0
  -18.2520   12.4626  -18.8222 C   0  0  0  0  0  0  0  0  0  0  0  0
  -18.8483   12.7830  -20.1999 C   0  0  0  0  0  0  0  0  0  0  0  0
  -17.4527   12.6121  -20.7493 C   0  0  0  0  0  0  0  0  0  0  0  0
  -17.1903   11.6726  -19.5632 C   0  0  0  0  0  0  0  0  0  0  0  0
  -17.3588   12.0060  -22.0342 N   0  0  0  0  0  0  0  0  0  0  0  0
  -17.6119   11.0173  -22.2191 H   0  0  0  0  0  0  0  0  0  0  0  0
  -16.8946   12.7882  -23.1289 C   0  0  0  0  0  0  0  0  0  0  0  0
  -15.7169   13.3687  -23.2664 N   0  0  0  0  0  0  0  0  0  0  0  0
  -15.4426   14.0553  -24.3345 C   0  0  0  0  0  0  0  0  0  0  0  0
  -14.2331   14.7222  -24.6084 C   0  0  0  0  0  0  0  0  0  0  0  0
  -14.0718   15.4085  -25.7671 C   0  0  0  0  0  0  0  0  0  0  0  0
  -15.0380   15.5096  -26.7392 C   0  0  0  0  0  0  0  0  0  0  0  0
  -16.2286   14.8646  -26.4909 C   0  0  0  0  0  0  0  0  0  0  0  0
  -16.4111   14.1504  -25.2970 C   0  0  0  0  0  0  0  0  0  0  0  0
  -17.6762   13.2299  -24.5914 S   0  0  0  0  0  0  0  0  0  0  0  0
 14 15  1  0  0  0
 15  8  1  0  0  0
  8  9  1  0  0  0
  9 10  1  0  0  0
 10 11  1  0  0  0
 11 12  1  0  0  0
 12 13  1  0  0  0
 13  2  1  0  0  0
  2  3  2  0  0  0
  3  4  1  0  0  0
  4  5  2  0  0  0
  5  6  1  0  0  0
  6  7  2  0  0  0
  7  1  1  0  0  0
  1 16  1  0  0  0
 16 17  1  0  0  0
 17 18  1  0  0  0
 18 19  1  0  0  0
 18 20  1  0  0  0
 20 22  1  0  0  0
 22 23  2  0  0  0
 23 24  1  0  0  0
 24 25  2  0  0  0
 25 26  1  0  0  0
 26 27  2  0  0  0
 27 28  1  0  0  0
 28 29  2  0  0  0
 29 30  1  0  0  0
 13  8  1  0  0  0
  7  2  1  0  0  0
 19 16  1  0  0  0
 30 22  1  0  0  0
 29 24  1  0  0  0
 20 21  1  0  0  0
M  END
> <minimizedAffinity>
-8.08471

> <CNNscore>
0.1874807924

> <CNNaffinity>
6.3356428146

> <CNN_VS>
1.1878113747

> <CNNaffinity_variance>
0.2387438118

$$$$
[H]c1nc(O[C@]2([H])C([H])([H])[C@]([H])(N([H])c3nc4c([H])c([H])c([H])c([H])c4s3)C2([H])[H])c(N2C([H])([H])C([H])([H])OC([H])([H])[C@@]2([H])C([H])([H])C([H])([H])[H])nc1[H]


 30 34  0  0  0  0  0  0  0  0999 V2000
  -18.1997   12.7830  -18.5266 O   0  0  0  0  0  0  0  0  0  0  0  0
  -20.0326   13.2635  -17.0456 C   0  0  0  0  0  0  0  0  0  0  0  0
  -21.0161   12.8323  -16.2006 N   0  0  0  0  0  0  0  0  0  0  0  0
  -21.1702   11.5245  -15.9774 C   0  0  0  0  0  0  0  0  0  0  0  0
  -20.3634   10.5858  -16.5755 C   0  0  0  0  0  0  0  0  0  0  0  0
  -19.4063   11.0450  -17.4006 N   0  0  0  0  0  0  0  0  0  0  0  0
  -19.2032   12.3475  -17.6643 C   0  0  0  0  0  0  0  0  0  0  0  0
  -20.7432   15.3545  -18.1461 C   0  0  0  0  0  0  0  0  0  0  0  0
  -20.0552   16.6157  -18.6176 C   0  0  0  0  0  0  0  0  0  0  0  0
  -18.7367   16.3647  -18.9204 O   0  0  0  0  0  0  0  0  0  0  0  0
  -17.9501   16.0130  -17.8530 C   0  0  0  0  0  0  0  0  0  0  0  0
  -18.7159   15.3309  -16.7362 C   0  0  0  0  0  0  0  0  0  0  0  0
  -19.8330   14.6336  -17.3064 N   0  0  0  0  0  0  0  0  0  0  0  0
  -21.6891   15.4864  -20.3898 C   0  0  0  0  0  0  0  0  0  0  0  0
  -21.2657   14.5307  -19.2945 C   0  0  0  0  0  0  0  0  0  0  0  0
  -18.3770   12.5786  -19.8946 C   0  0  0  0  0  0  0  0  0  0  0  0
  -17.5486   11.4303  -20.4876 C   0  0  0  0  0  0  0  0  0  0  0  0
  -17.4210   12.2774  -21.7305 C   0  0  0  0  0  0  0  0  0  0  0  0
  -17.5990   13.4984  -20.8162 C   0  0  0  0  0  0  0  0  0  0  0  0
  -16.1707   12.2055  -22.4078 N   0  0  0  0  0  0  0  0  0  0  0  0
  -15.3908   11.5932  -22.1037 H   0  0  0  0  0  0  0  0  0  0  0  0
  -15.9699   13.0115  -23.5637 C   0  0  0  0  0  0  0  0  0  0  0  0
  -16.6230   12.9590  -24.7098 N   0  0  0  0  0  0  0  0  0  0  0  0
  -16.3187   13.7698  -25.6780 C   0  0  0  0  0  0  0  0  0  0  0  0
  -16.9309   13.8213  -26.9451 C   0  0  0  0  0  0  0  0  0  0  0  0
  -16.5182   14.7195  -27.8737 C   0  0  0  0  0  0  0  0  0  0  0  0
  -15.5045   15.6244  -27.6678 C   0  0  0  0  0  0  0  0  0  0  0  0
  -14.8925   15.5906  -26.4351 C   0  0  0  0  0  0  0  0  0  0  0  0
  -15.3078   14.6673  -25.4636 C   0  0  0  0  0  0  0  0  0  0  0  0
  -14.8520   14.2805  -23.8548 S   0  0  0  0  0  0  0  0  0  0  0  0
 14 15  1  0  0  0
 15  8  1  0  0  0
  8  9  1  0  0  0
  9 10  1  0  0  0
 10 11  1  0  0  0
 11 12  1  0  0  0
 12 13  1  0  0  0
 13  2  1  0  0  0
  2  3  2  0  0  0
  3  4  1  0  0  0
  4  5  2  0  0  0
  5  6  1  0  0  0
  6  7  2  0  0  0
  7  1  1  0  0  0
  1 16  1  0  0  0
 16 17  1  0  0  0
 17 18  1  0  0  0
 18 19  1  0  0  0
 18 20  1  0  0  0
 20 22  1  0  0  0
 22 23  2  0  0  0
 23 24  1  0  0  0
 24 25  2  0  0  0
 25 26  1  0  0  0
 26 27  2  0  0  0
 27 28  1  0  0  0
 28 29  2  0  0  0
 29 30  1  0  0  0
 13  8  1  0  0  0
  7  2  1  0  0  0
 19 16  1  0  0  0
 30 22  1  0  0  0
 29 24  1  0  0  0
 20 21  1  0  0  0
M  END
> <minimizedAffinity>
-8.37794

> <CNNscore>
0.1871390641

> <CNNaffinity>
6.5636320114

> <CNN_VS>
1.2283118963

> <CNNaffinity_variance>
0.1106913090

$$$$
[H]c1nc(O[C@]2([H])C([H])([H])[C@]([H])(N([H])c3nc4c([H])c([H])c([H])c([H])c4s3)C2([H])[H])c(N2C([H])([H])C([H])([H])OC([H])([H])[C@@]2([H])C([H])([H])C([H])([H])[H])nc1[H]


 30 34  0  0  0  0  0  0  0  0999 V2000
  -17.1609   13.1515  -21.1772 O   0  0  0  0  0  0  0  0  0  0  0  0
  -18.1094   14.8150  -22.6322 C   0  0  0  0  0  0  0  0  0  0  0  0
  -18.3400   15.2937  -23.8911 N   0  0  0  0  0  0  0  0  0  0  0  0
  -17.8756   14.6239  -24.9491 C   0  0  0  0  0  0  0  0  0  0  0  0
  -17.1650   13.4549  -24.8137 C   0  0  0  0  0  0  0  0  0  0  0  0
  -16.9566   13.0127  -23.5612 N   0  0  0  0  0  0  0  0  0  0  0  0
  -17.3985   13.6426  -22.4589 C   0  0  0  0  0  0  0  0  0  0  0  0
  -17.9269   16.6698  -21.0151 C   0  0  0  0  0  0  0  0  0  0  0  0
  -18.3329   16.8928  -19.5758 C   0  0  0  0  0  0  0  0  0  0  0  0
  -18.3877   15.6974  -18.8965 O   0  0  0  0  0  0  0  0  0  0  0  0
  -19.3634   14.8309  -19.3193 C   0  0  0  0  0  0  0  0  0  0  0  0
  -19.7332   15.0023  -20.7798 C   0  0  0  0  0  0  0  0  0  0  0  0
  -18.5841   15.4879  -21.4891 N   0  0  0  0  0  0  0  0  0  0  0  0
  -15.8537   17.8549  -20.5219 C   0  0  0  0  0  0  0  0  0  0  0  0
  -16.4300   16.6195  -21.1805 C   0  0  0  0  0  0  0  0  0  0  0  0
  -17.5173   11.8312  -20.9049 C   0  0  0  0  0  0  0  0  0  0  0  0
  -18.4022   11.6449  -19.6644 C   0  0  0  0  0  0  0  0  0  0  0  0
  -17.6578   10.3524  -19.4322 C   0  0  0  0  0  0  0  0  0  0  0  0
  -16.4805   10.9923  -20.1826 C   0  0  0  0  0  0  0  0  0  0  0  0
  -17.3993   10.0179  -18.0727 N   0  0  0  0  0  0  0  0  0  0  0  0
  -16.4464    9.9818  -17.6647 H   0  0  0  0  0  0  0  0  0  0  0  0
  -18.4982    9.7157  -17.2202 C   0  0  0  0  0  0  0  0  0  0  0  0
  -19.6062   10.4132  -17.0507 N   0  0  0  0  0  0  0  0  0  0  0  0
  -20.5237   10.0010  -16.2286 C   0  0  0  0  0  0  0  0  0  0  0  0
  -21.7462   10.6438  -15.9542 C   0  0  0  0  0  0  0  0  0  0  0  0
  -22.6234   10.1073  -15.0699 C   0  0  0  0  0  0  0  0  0  0  0  0
  -22.4050    8.9334  -14.3895 C   0  0  0  0  0  0  0  0  0  0  0  0
  -21.2153    8.2889  -14.6434 C   0  0  0  0  0  0  0  0  0  0  0  0
  -20.2972    8.8310  -15.5555 C   0  0  0  0  0  0  0  0  0  0  0  0
  -18.7518    8.3911  -16.1590 S   0  0  0  0  0  0  0  0  0  0  0  0
 14 15  1  0  0  0
 15  8  1  0  0  0
  8  9  1  0  0  0
  9 10  1  0  0  0
 10 11  1  0  0  0
 11 12  1  0  0  0
 12 13  1  0  0  0
 13  2  1  0  0  0
  2  3  2  0  0  0
  3  4  1  0  0  0
  4  5  2  0  0  0
  5  6  1  0  0  0
  6  7  2  0  0  0
  7  1  1  0  0  0
  1 16  1  0  0  0
 16 17  1  0  0  0
 17 18  1  0  0  0
 18 19  1  0  0  0
 18 20  1  0  0  0
 20 22  1  0  0  0
 22 23  2  0  0  0
 23 24  1  0  0  0
 24 25  2  0  0  0
 25 26  1  0  0  0
 26 27  2  0  0  0
 27 28  1  0  0  0
 28 29  2  0  0  0
 29 30  1  0  0  0
 13  8  1  0  0  0
  7  2  1  0  0  0
 19 16  1  0  0  0
 30 22  1  0  0  0
 29 24  1  0  0  0
 20 21  1  0  0  0
M  END
> <minimizedAffinity>
-7.47799

> <CNNscore>
0.1800491512

> <CNNaffinity>
6.3236513138

> <CNN_VS>
1.1385680437

> <CNNaffinity_variance>
0.1632463187

$$$$
[H]c1nc(O[C@]2([H])C([H])([H])[C@]([H])(N([H])c3nc4c([H])c([H])c([H])c([H])c4s3)C2([H])[H])c(N2C([H])([H])C([H])([H])OC([H])([H])[C@@]2([H])C([H])([H])C([H])([H])[H])nc1[H]


 30 34  0  0  0  0  0  0  0  0999 V2000
  -18.3307   13.7023  -21.8669 O   0  0  0  0  0  0  0  0  0  0  0  0
  -16.3018   12.7797  -22.7703 C   0  0  0  0  0  0  0  0  0  0  0  0
  -15.3435   11.8057  -22.7745 N   0  0  0  0  0  0  0  0  0  0  0  0
  -15.4279   10.7907  -21.9105 C   0  0  0  0  0  0  0  0  0  0  0  0
  -16.4583   10.6907  -21.0061 C   0  0  0  0  0  0  0  0  0  0  0  0
  -17.3835   11.6661  -21.0297 N   0  0  0  0  0  0  0  0  0  0  0  0
  -17.3520   12.7112  -21.8746 C   0  0  0  0  0  0  0  0  0  0  0  0
  -17.1629   13.9382  -24.7715 C   0  0  0  0  0  0  0  0  0  0  0  0
  -16.5983   14.9054  -25.7873 C   0  0  0  0  0  0  0  0  0  0  0  0
  -15.2357   14.7504  -25.8994 O   0  0  0  0  0  0  0  0  0  0  0  0
  -14.5168   15.0865  -24.7805 C   0  0  0  0  0  0  0  0  0  0  0  0
  -15.2933   14.9174  -23.4892 C   0  0  0  0  0  0  0  0  0  0  0  0
  -16.2533   13.8656  -23.6667 N   0  0  0  0  0  0  0  0  0  0  0  0
  -17.3287   12.7237  -26.8796 C   0  0  0  0  0  0  0  0  0  0  0  0
  -17.4644   12.5919  -25.3774 C   0  0  0  0  0  0  0  0  0  0  0  0
  -18.7227   14.2266  -20.6356 C   0  0  0  0  0  0  0  0  0  0  0  0
  -19.6828   15.4214  -20.7198 C   0  0  0  0  0  0  0  0  0  0  0  0
  -18.9733   15.9684  -19.5050 C   0  0  0  0  0  0  0  0  0  0  0  0
  -17.7437   15.1732  -19.9678 C   0  0  0  0  0  0  0  0  0  0  0  0
  -18.8015   17.3813  -19.4673 N   0  0  0  0  0  0  0  0  0  0  0  0
  -18.3613   17.9237  -20.2340 H   0  0  0  0  0  0  0  0  0  0  0  0
  -19.2538   18.0966  -18.3229 C   0  0  0  0  0  0  0  0  0  0  0  0
  -19.1131   17.7636  -17.0532 N   0  0  0  0  0  0  0  0  0  0  0  0
  -19.5861   18.5288  -16.1162 C   0  0  0  0  0  0  0  0  0  0  0  0
  -19.5065   18.2948  -14.7299 C   0  0  0  0  0  0  0  0  0  0  0  0
  -20.0438   19.1764  -13.8504 C   0  0  0  0  0  0  0  0  0  0  0  0
  -20.6888   20.3321  -14.2204 C   0  0  0  0  0  0  0  0  0  0  0  0
  -20.7777   20.5798  -15.5717 C   0  0  0  0  0  0  0  0  0  0  0  0
  -20.2270   19.6776  -16.4945 C   0  0  0  0  0  0  0  0  0  0  0  0
  -20.1057   19.5814  -18.2038 S   0  0  0  0  0  0  0  0  0  0  0  0
 14 15  1  0  0  0
 15  8  1  0  0  0
  8  9  1  0  0  0
  9 10  1  0  0  0
 10 11  1  0  0  0
 11 12  1  0  0  0
 12 13  1  0  0  0
 13  2  1  0  0  0
  2  3  2  0  0  0
  3  4  1  0  0  0
  4  5  2  0  0  0
  5  6  1  0  0  0
  6  7  2  0  0  0
  7  1  1  0  0  0
  1 16  1  0  0  0
 16 17  1  0  0  0
 17 18  1  0  0  0
 18 19  1  0  0  0
 18 20  1  0  0  0
 20 22  1  0  0  0
 22 23  2  0  0  0
 23 24  1  0  0  0
 24 25  2  0  0  0
 25 26  1  0  0  0
 26 27  2  0  0  0
 27 28  1  0  0  0
 28 29  2  0  0  0
 29 30  1  0  0  0
 13  8  1  0  0  0
  7  2  1  0  0  0
 19 16  1  0  0  0
 30 22  1  0  0  0
 29 24  1  0  0  0
 20 21  1  0  0  0
M  END
> <minimizedAffinity>
-7.48001

> <CNNscore>
0.1712934822

> <CNNaffinity>
6.2937917709

> <CNN_VS>
1.0780855417

> <CNNaffinity_variance>
0.1032721251

$$$$
[H]c1nc(O[C@]2([H])C([H])([H])[C@]([H])(N([H])c3nc4c([H])c([H])c([H])c([H])c4s3)C2([H])[H])c(N2C([H])([H])C([H])([H])OC([H])([H])[C@@]2([H])C([H])([H])C([H])([H])[H])nc1[H]


 30 34  0  0  0  0  0  0  0  0999 V2000
  -18.3410   13.4457  -18.7286 O   0  0  0  0  0  0  0  0  0  0  0  0
  -20.3305   14.1088  -17.5514 C   0  0  0  0  0  0  0  0  0  0  0  0
  -21.2972   13.8497  -16.6210 N   0  0  0  0  0  0  0  0  0  0  0  0
  -21.2673   12.7027  -15.9375 C   0  0  0  0  0  0  0  0  0  0  0  0
  -20.2853   11.7623  -16.1398 C   0  0  0  0  0  0  0  0  0  0  0  0
  -19.3503   12.0497  -17.0623 N   0  0  0  0  0  0  0  0  0  0  0  0
  -19.3280   13.1856  -17.7808 C   0  0  0  0  0  0  0  0  0  0  0  0
  -19.5281   16.4210  -17.8649 C   0  0  0  0  0  0  0  0  0  0  0  0
  -20.0568   17.6664  -18.5400 C   0  0  0  0  0  0  0  0  0  0  0  0
  -21.4321   17.6502  -18.5792 O   0  0  0  0  0  0  0  0  0  0  0  0
  -21.9815   16.6669  -19.3621 C   0  0  0  0  0  0  0  0  0  0  0  0
  -21.1079   15.4338  -19.4862 C   0  0  0  0  0  0  0  0  0  0  0  0
  -20.3222   15.3073  -18.2920 N   0  0  0  0  0  0  0  0  0  0  0  0
  -19.1454   18.0132  -16.0581 C   0  0  0  0  0  0  0  0  0  0  0  0
  -19.4749   16.5679  -16.3662 C   0  0  0  0  0  0  0  0  0  0  0  0
  -18.4936   12.8966  -20.0013 C   0  0  0  0  0  0  0  0  0  0  0  0
  -17.5466   11.7307  -20.3182 C   0  0  0  0  0  0  0  0  0  0  0  0
  -17.5084   12.2575  -21.7323 C   0  0  0  0  0  0  0  0  0  0  0  0
  -17.8169   13.6393  -21.1375 C   0  0  0  0  0  0  0  0  0  0  0  0
  -16.2567   12.1526  -22.4026 N   0  0  0  0  0  0  0  0  0  0  0  0
  -15.5008   11.5086  -22.1034 H   0  0  0  0  0  0  0  0  0  0  0  0
  -16.0198   12.9694  -23.5440 C   0  0  0  0  0  0  0  0  0  0  0  0
  -16.6644   12.9561  -24.6961 N   0  0  0  0  0  0  0  0  0  0  0  0
  -16.3255   13.7713  -25.6489 C   0  0  0  0  0  0  0  0  0  0  0  0
  -16.9248   13.8624  -26.9199 C   0  0  0  0  0  0  0  0  0  0  0  0
  -16.4750   14.7608  -27.8309 C   0  0  0  0  0  0  0  0  0  0  0  0
  -15.4341   15.6287  -27.6026 C   0  0  0  0  0  0  0  0  0  0  0  0
  -14.8341   15.5558  -26.3657 C   0  0  0  0  0  0  0  0  0  0  0  0
  -15.2877   14.6317  -25.4123 C   0  0  0  0  0  0  0  0  0  0  0  0
  -14.8586   14.2054  -23.8061 S   0  0  0  0  0  0  0  0  0  0  0  0
 14 15  1  0  0  0
 15  8  1  0  0  0
  8  9  1  0  0  0
  9 10  1  0  0  0
 10 11  1  0  0  0
 11 12  1  0  0  0
 12 13  1  0  0  0
 13  2  1  0  0  0
  2  3  2  0  0  0
  3  4  1  0  0  0
  4  5  2  0  0  0
  5  6  1  0  0  0
  6  7  2  0  0  0
  7  1  1  0  0  0
  1 16  1  0  0  0
 16 17  1  0  0  0
 17 18  1  0  0  0
 18 19  1  0  0  0
 18 20  1  0  0  0
 20 22  1  0  0  0
 22 23  2  0  0  0
 23 24  1  0  0  0
 24 25  2  0  0  0
 25 26  1  0  0  0
 26 27  2  0  0  0
 27 28  1  0  0  0
 28 29  2  0  0  0
 29 30  1  0  0  0
 13  8  1  0  0  0
  7  2  1  0  0  0
 19 16  1  0  0  0
 30 22  1  0  0  0
 29 24  1  0  0  0
 20 21  1  0  0  0
M  END
> <minimizedAffinity>
-8.00514

> <CNNscore>
0.1679342985

> <CNNaffinity>
6.6076841354

> <CNN_VS>
1.1096568108

> <CNNaffinity_variance>
0.2582274079

$$$$
[H]c1nc2c([H])c(OC([H])([H])[H])c(OC([H])([H])[H])c([H])c2c(Oc2c([H])c([H])c(N([H])C(=O)N([H])c3c([H])c([H])c(N4C([H])([H])C([H])([H])N(C([H])([H])[H])C([H])([H])C4([H])[H])c([H])c3[H])c([H])c2[H])c1[H]


 40 44  0  0  0  0  0  0  0  0999 V2000
  -17.0476   10.2362  -19.7511 C   0  0  0  0  0  0  0  0  0  0  0  0
  -17.7271   11.3947  -20.1537 C   0  0  0  0  0  0  0  0  0  0  0  0
  -17.2832   12.1937  -21.1679 C   0  0  0  0  0  0  0  0  0  0  0  0
  -16.1396   11.8606  -21.8176 C   0  0  0  0  0  0  0  0  0  0  0  0
  -15.4553   10.7329  -21.4436 C   0  0  0  0  0  0  0  0  0  0  0  0
  -15.9084    9.9213  -20.4110 C   0  0  0  0  0  0  0  0  0  0  0  0
  -18.8831    9.0269  -16.6655 N   0  0  0  0  0  0  0  0  0  0  0  0
  -18.4472    9.9382  -17.6609 C   0  0  0  0  0  0  0  0  0  0  0  0
  -18.8229   11.1233  -17.6404 O   0  0  0  0  0  0  0  0  0  0  0  0
  -17.5739    9.4985  -18.6924 N   0  0  0  0  0  0  0  0  0  0  0  0
  -18.5103    8.0280  -16.7577 H   0  0  0  0  0  0  0  0  0  0  0  0
  -17.2999    8.4518  -18.6252 H   0  0  0  0  0  0  0  0  0  0  0  0
  -21.2875    9.7365  -13.2662 C   0  0  0  0  0  0  0  0  0  0  0  0
  -21.8609    9.8192  -14.5127 C   0  0  0  0  0  0  0  0  0  0  0  0
  -21.0683    9.5912  -15.6449 C   0  0  0  0  0  0  0  0  0  0  0  0
  -19.7316    9.2846  -15.5821 C   0  0  0  0  0  0  0  0  0  0  0  0
  -19.1988    9.2132  -14.2935 C   0  0  0  0  0  0  0  0  0  0  0  0
  -19.9293    9.4274  -13.1588 C   0  0  0  0  0  0  0  0  0  0  0  0
  -23.9139   10.4813   -9.1727 C   0  0  0  0  0  0  0  0  0  0  0  0
  -23.2200    9.3111   -9.6138 N   0  0  0  0  0  0  0  0  0  0  0  0
  -21.8053    9.4680   -9.7482 C   0  0  0  0  0  0  0  0  0  0  0  0
  -21.4019   10.4451  -10.8539 C   0  0  0  0  0  0  0  0  0  0  0  0
  -22.0215    9.9693  -12.0827 N   0  0  0  0  0  0  0  0  0  0  0  0
  -23.4736    9.7714  -11.9909 C   0  0  0  0  0  0  0  0  0  0  0  0
  -23.7237    8.7797  -10.8701 C   0  0  0  0  0  0  0  0  0  0  0  0
  -15.6731   12.6773  -22.8653 O   0  0  0  0  0  0  0  0  0  0  0  0
  -16.6364   13.2280  -23.6886 C   0  0  0  0  0  0  0  0  0  0  0  0
  -17.2953   12.5087  -24.6777 C   0  0  0  0  0  0  0  0  0  0  0  0
  -18.2322   13.1836  -25.4241 C   0  0  0  0  0  0  0  0  0  0  0  0
  -18.5108   14.4846  -25.2185 N   0  0  0  0  0  0  0  0  0  0  0  0
  -17.8940   15.2137  -24.2710 C   0  0  0  0  0  0  0  0  0  0  0  0
  -18.1782   16.5478  -24.0584 C   0  0  0  0  0  0  0  0  0  0  0  0
  -17.5436   17.2931  -23.0852 C   0  0  0  0  0  0  0  0  0  0  0  0
  -16.5958   16.6539  -22.3130 C   0  0  0  0  0  0  0  0  0  0  0  0
  -16.3117   15.3111  -22.5292 C   0  0  0  0  0  0  0  0  0  0  0  0
  -16.9474   14.5685  -23.5025 C   0  0  0  0  0  0  0  0  0  0  0  0
  -17.8460   18.6401  -22.8870 O   0  0  0  0  0  0  0  0  0  0  0  0
  -19.1384   19.0971  -23.2401 C   0  0  0  0  0  0  0  0  0  0  0  0
  -15.9558   17.3936  -21.3363 O   0  0  0  0  0  0  0  0  0  0  0  0
  -16.2412   17.3509  -19.9724 C   0  0  0  0  0  0  0  0  0  0  0  0
 19 20  1  0  0  0
 20 21  1  0  0  0
 21 22  1  0  0  0
 22 23  1  0  0  0
 23 24  1  0  0  0
 24 25  1  0  0  0
 23 13  1  0  0  0
 13 14  2  0  0  0
 14 15  1  0  0  0
 15 16  2  0  0  0
 16  7  1  0  0  0
  7  8  1  0  0  0
  8  9  2  0  0  0
  8 10  1  0  0  0
 10  1  1  0  0  0
  1  2  2  0  0  0
  2  3  1  0  0  0
  3  4  2  0  0  0
  4 26  1  0  0  0
 26 27  1  0  0  0
 27 28  2  0  0  0
 28 29  1  0  0  0
 29 30  2  0  0  0
 30 31  1  0  0  0
 31 32  2  0  0  0
 32 33  1  0  0  0
 33 37  1  0  0  0
 37 38  1  0  0  0
 33 34  2  0  0  0
 34 39  1  0  0  0
 39 40  1  0  0  0
 34 35  1  0  0  0
 35 36  2  0  0  0
  4  5  1  0  0  0
  5  6  2  0  0  0
 16 17  1  0  0  0
 17 18  2  0  0  0
 25 20  1  0  0  0
 18 13  1  0  0  0
  6  1  1  0  0  0
 36 27  1  0  0  0
 36 31  1  0  0  0
  7 11  1  0  0  0
 10 12  1  0  0  0
M  END
> <minimizedAffinity>
-7.98063

> <CNNscore>
0.2955462933

> <CNNaffinity>
6.6237349510

> <CNN_VS>
1.9576202631

> <CNNaffinity_variance>
0.0433210358

$$$$
[H]c1nc2c([H])c(OC([H])([H])[H])c(OC([H])([H])[H])c([H])c2c(Oc2c([H])c([H])c(N([H])C(=O)N([H])c3c([H])c([H])c(N4C([H])([H])C([H])([H])N(C([H])([H])[H])C([H])([H])C4([H])[H])c([H])c3[H])c([H])c2[H])c1[H]


 40 44  0  0  0  0  0  0  0  0999 V2000
  -20.5665   17.5509  -21.3647 C   0  0  0  0  0  0  0  0  0  0  0  0
  -21.6930   18.2087  -20.8508 C   0  0  0  0  0  0  0  0  0  0  0  0
  -22.4797   19.0251  -21.6115 C   0  0  0  0  0  0  0  0  0  0  0  0
  -22.1659   19.2130  -22.9180 C   0  0  0  0  0  0  0  0  0  0  0  0
  -21.0691   18.5818  -23.4459 C   0  0  0  0  0  0  0  0  0  0  0  0
  -20.2696   17.7516  -22.6700 C   0  0  0  0  0  0  0  0  0  0  0  0
  -19.2621   14.8297  -19.0743 N   0  0  0  0  0  0  0  0  0  0  0  0
  -20.1697   15.4976  -19.9353 C   0  0  0  0  0  0  0  0  0  0  0  0
  -21.2748   14.9937  -20.2018 O   0  0  0  0  0  0  0  0  0  0  0  0
  -19.8185   16.7534  -20.5007 N   0  0  0  0  0  0  0  0  0  0  0  0
  -18.3354   15.3348  -18.8975 H   0  0  0  0  0  0  0  0  0  0  0  0
  -18.8382   17.1124  -20.2088 H   0  0  0  0  0  0  0  0  0  0  0  0
  -19.9333   11.2176  -16.9905 C   0  0  0  0  0  0  0  0  0  0  0  0
  -18.9577   11.2532  -17.9581 C   0  0  0  0  0  0  0  0  0  0  0  0
  -18.7336   12.4459  -18.6576 C   0  0  0  0  0  0  0  0  0  0  0  0
  -19.4416   13.5998  -18.4299 C   0  0  0  0  0  0  0  0  0  0  0  0
  -20.4202   13.5099  -17.4379 C   0  0  0  0  0  0  0  0  0  0  0  0
  -20.6771   12.3708  -16.7284 C   0  0  0  0  0  0  0  0  0  0  0  0
  -20.8504    7.1287  -14.4119 C   0  0  0  0  0  0  0  0  0  0  0  0
  -20.4006    8.4103  -13.9645 N   0  0  0  0  0  0  0  0  0  0  0  0
  -21.3168    9.4827  -14.1990 C   0  0  0  0  0  0  0  0  0  0  0  0
  -21.5363    9.7844  -15.6824 C   0  0  0  0  0  0  0  0  0  0  0  0
  -20.2244   10.0466  -16.2573 N   0  0  0  0  0  0  0  0  0  0  0  0
  -19.2389    8.9829  -16.0259 C   0  0  0  0  0  0  0  0  0  0  0  0
  -19.1166    8.8001  -14.5246 C   0  0  0  0  0  0  0  0  0  0  0  0
  -22.9706   20.0525  -23.7117 O   0  0  0  0  0  0  0  0  0  0  0  0
  -23.0077   19.7674  -25.0630 C   0  0  0  0  0  0  0  0  0  0  0  0
  -23.7036   18.6893  -25.5956 C   0  0  0  0  0  0  0  0  0  0  0  0
  -23.6544   18.5243  -26.9597 C   0  0  0  0  0  0  0  0  0  0  0  0
  -22.9669   19.3616  -27.7587 N   0  0  0  0  0  0  0  0  0  0  0  0
  -22.2814   20.4156  -27.2803 C   0  0  0  0  0  0  0  0  0  0  0  0
  -21.5757   21.2756  -28.0978 C   0  0  0  0  0  0  0  0  0  0  0  0
  -20.8735   22.3563  -27.6036 C   0  0  0  0  0  0  0  0  0  0  0  0
  -20.8965   22.5584  -26.2392 C   0  0  0  0  0  0  0  0  0  0  0  0
  -21.6075   21.6914  -25.4187 C   0  0  0  0  0  0  0  0  0  0  0  0
  -22.3085   20.6120  -25.9151 C   0  0  0  0  0  0  0  0  0  0  0  0
  -20.1671   23.2130  -28.4476 O   0  0  0  0  0  0  0  0  0  0  0  0
  -18.9054   22.7901  -28.9303 C   0  0  0  0  0  0  0  0  0  0  0  0
  -20.1956   23.6386  -25.7366 O   0  0  0  0  0  0  0  0  0  0  0  0
  -19.5302   23.6721  -24.5120 C   0  0  0  0  0  0  0  0  0  0  0  0
 19 20  1  0  0  0
 20 21  1  0  0  0
 21 22  1  0  0  0
 22 23  1  0  0  0
 23 24  1  0  0  0
 24 25  1  0  0  0
 23 13  1  0  0  0
 13 14  2  0  0  0
 14 15  1  0  0  0
 15 16  2  0  0  0
 16  7  1  0  0  0
  7  8  1  0  0  0
  8  9  2  0  0  0
  8 10  1  0  0  0
 10  1  1  0  0  0
  1  2  2  0  0  0
  2  3  1  0  0  0
  3  4  2  0  0  0
  4 26  1  0  0  0
 26 27  1  0  0  0
 27 28  2  0  0  0
 28 29  1  0  0  0
 29 30  2  0  0  0
 30 31  1  0  0  0
 31 32  2  0  0  0
 32 33  1  0  0  0
 33 37  1  0  0  0
 37 38  1  0  0  0
 33 34  2  0  0  0
 34 39  1  0  0  0
 39 40  1  0  0  0
 34 35  1  0  0  0
 35 36  2  0  0  0
  4  5  1  0  0  0
  5  6  2  0  0  0
 16 17  1  0  0  0
 17 18  2  0  0  0
 25 20  1  0  0  0
 18 13  1  0  0  0
  6  1  1  0  0  0
 36 27  1  0  0  0
 36 31  1  0  0  0
  7 11  1  0  0  0
 10 12  1  0  0  0
M  END
> <minimizedAffinity>
-8.40177

> <CNNscore>
0.2258131653

> <CNNaffinity>
5.8749036789

> <CNN_VS>
1.3266305923

> <CNNaffinity_variance>
0.0480583981

$$$$
[H]c1nc2c([H])c(OC([H])([H])[H])c(OC([H])([H])[H])c([H])c2c(Oc2c([H])c([H])c(N([H])C(=O)N([H])c3c([H])c([H])c(N4C([H])([H])C([H])([H])N(C([H])([H])[H])C([H])([H])C4([H])[H])c([H])c3[H])c([H])c2[H])c1[H]


 40 44  0  0  0  0  0  0  0  0999 V2000
  -19.0724    9.2469  -16.0956 C   0  0  0  0  0  0  0  0  0  0  0  0
  -19.4728   10.5350  -15.7130 C   0  0  0  0  0  0  0  0  0  0  0  0
  -20.2995   10.7639  -14.6508 C   0  0  0  0  0  0  0  0  0  0  0  0
  -20.7566    9.7083  -13.9314 C   0  0  0  0  0  0  0  0  0  0  0  0
  -20.3807    8.4378  -14.2844 C   0  0  0  0  0  0  0  0  0  0  0  0
  -19.5396    8.2069  -15.3657 C   0  0  0  0  0  0  0  0  0  0  0  0
  -17.1080    9.7466  -19.2962 N   0  0  0  0  0  0  0  0  0  0  0  0
  -18.0041   10.0616  -18.2430 C   0  0  0  0  0  0  0  0  0  0  0  0
  -18.5876   11.1592  -18.2173 O   0  0  0  0  0  0  0  0  0  0  0  0
  -18.2406    9.1186  -17.2063 N   0  0  0  0  0  0  0  0  0  0  0  0
  -16.6510    8.7805  -19.2413 H   0  0  0  0  0  0  0  0  0  0  0  0
  -17.6898    8.1914  -17.3161 H   0  0  0  0  0  0  0  0  0  0  0  0
  -16.2621   12.2389  -22.5996 C   0  0  0  0  0  0  0  0  0  0  0  0
  -15.3576   11.2619  -22.2575 C   0  0  0  0  0  0  0  0  0  0  0  0
  -15.6285   10.4357  -21.1594 C   0  0  0  0  0  0  0  0  0  0  0  0
  -16.7621   10.5452  -20.3929 C   0  0  0  0  0  0  0  0  0  0  0  0
  -17.6471   11.5525  -20.7824 C   0  0  0  0  0  0  0  0  0  0  0  0
  -17.4285   12.3839  -21.8445 C   0  0  0  0  0  0  0  0  0  0  0  0
  -15.6126   15.3033  -26.3940 C   0  0  0  0  0  0  0  0  0  0  0  0
  -16.2551   15.5285  -25.1363 N   0  0  0  0  0  0  0  0  0  0  0  0
  -15.4011   15.4051  -23.9962 C   0  0  0  0  0  0  0  0  0  0  0  0
  -14.8805   13.9839  -23.7746 C   0  0  0  0  0  0  0  0  0  0  0  0
  -16.0473   13.1175  -23.6838 N   0  0  0  0  0  0  0  0  0  0  0  0
  -16.9687   13.2222  -24.8224 C   0  0  0  0  0  0  0  0  0  0  0  0
  -17.4086   14.6713  -24.9149 C   0  0  0  0  0  0  0  0  0  0  0  0
  -21.6094    9.9331  -12.8338 O   0  0  0  0  0  0  0  0  0  0  0  0
  -21.0132   10.4084  -11.6817 C   0  0  0  0  0  0  0  0  0  0  0  0
  -19.8929    9.8224  -11.1058 C   0  0  0  0  0  0  0  0  0  0  0  0
  -19.4036   10.4006   -9.9583 C   0  0  0  0  0  0  0  0  0  0  0  0
  -19.9732   11.4872   -9.4040 N   0  0  0  0  0  0  0  0  0  0  0  0
  -21.0579   12.0822   -9.9322 C   0  0  0  0  0  0  0  0  0  0  0  0
  -21.6435   13.1965   -9.3657 C   0  0  0  0  0  0  0  0  0  0  0  0
  -22.7566   13.8047   -9.9103 C   0  0  0  0  0  0  0  0  0  0  0  0
  -23.2799   13.2561  -11.0627 C   0  0  0  0  0  0  0  0  0  0  0  0
  -22.6886   12.1344  -11.6309 C   0  0  0  0  0  0  0  0  0  0  0  0
  -21.5762   11.5285  -11.0845 C   0  0  0  0  0  0  0  0  0  0  0  0
  -23.3325   14.9302   -9.3216 O   0  0  0  0  0  0  0  0  0  0  0  0
  -22.6765   16.1757   -9.4703 C   0  0  0  0  0  0  0  0  0  0  0  0
  -24.3946   13.8594  -11.6142 O   0  0  0  0  0  0  0  0  0  0  0  0
  -25.0062   13.4886  -12.8109 C   0  0  0  0  0  0  0  0  0  0  0  0
 19 20  1  0  0  0
 20 21  1  0  0  0
 21 22  1  0  0  0
 22 23  1  0  0  0
 23 24  1  0  0  0
 24 25  1  0  0  0
 23 13  1  0  0  0
 13 14  2  0  0  0
 14 15  1  0  0  0
 15 16  2  0  0  0
 16  7  1  0  0  0
  7  8  1  0  0  0
  8  9  2  0  0  0
  8 10  1  0  0  0
 10  1  1  0  0  0
  1  2  2  0  0  0
  2  3  1  0  0  0
  3  4  2  0  0  0
  4 26  1  0  0  0
 26 27  1  0  0  0
 27 28  2  0  0  0
 28 29  1  0  0  0
 29 30  2  0  0  0
 30 31  1  0  0  0
 31 32  2  0  0  0
 32 33  1  0  0  0
 33 37  1  0  0  0
 37 38  1  0  0  0
 33 34  2  0  0  0
 34 39  1  0  0  0
 39 40  1  0  0  0
 34 35  1  0  0  0
 35 36  2  0  0  0
  4  5  1  0  0  0
  5  6  2  0  0  0
 16 17  1  0  0  0
 17 18  2  0  0  0
 25 20  1  0  0  0
 18 13  1  0  0  0
  6  1  1  0  0  0
 36 27  1  0  0  0
 36 31  1  0  0  0
  7 11  1  0  0  0
 10 12  1  0  0  0
M  END
> <minimizedAffinity>
-8.51543

> <CNNscore>
0.2210476249

> <CNNaffinity>
6.1352300644

> <CNN_VS>
1.3561780453

> <CNNaffinity_variance>
0.0401211828

$$$$
[H]c1nc2c([H])c(OC([H])([H])[H])c(OC([H])([H])[H])c([H])c2c(Oc2c([H])c([H])c(N([H])C(=O)N([H])c3c([H])c([H])c(N4C([H])([H])C([H])([H])N(C([H])([H])[H])C([H])([H])C4([H])[H])c([H])c3[H])c([H])c2[H])c1[H]


 40 44  0  0  0  0  0  0  0  0999 V2000
  -19.1889    8.9670  -15.9808 C   0  0  0  0  0  0  0  0  0  0  0  0
  -20.4580    9.5416  -16.1396 C   0  0  0  0  0  0  0  0  0  0  0  0
  -21.3721    9.5990  -15.1272 C   0  0  0  0  0  0  0  0  0  0  0  0
  -21.0478    9.0814  -13.9156 C   0  0  0  0  0  0  0  0  0  0  0  0
  -19.8133    8.5132  -13.7334 C   0  0  0  0  0  0  0  0  0  0  0  0
  -18.8845    8.4556  -14.7650 C   0  0  0  0  0  0  0  0  0  0  0  0
  -17.2062    9.7388  -19.1154 N   0  0  0  0  0  0  0  0  0  0  0  0
  -18.1333    9.9499  -18.0631 C   0  0  0  0  0  0  0  0  0  0  0  0
  -18.7745   11.0128  -17.9899 O   0  0  0  0  0  0  0  0  0  0  0  0
  -18.3350    8.9418  -17.0819 N   0  0  0  0  0  0  0  0  0  0  0  0
  -16.6996    8.7963  -19.1033 H   0  0  0  0  0  0  0  0  0  0  0  0
  -17.7343    8.0517  -17.2305 H   0  0  0  0  0  0  0  0  0  0  0  0
  -16.4273   12.4750  -22.2373 C   0  0  0  0  0  0  0  0  0  0  0  0
  -15.6123   11.3767  -22.0998 C   0  0  0  0  0  0  0  0  0  0  0  0
  -15.8608   10.4682  -21.0630 C   0  0  0  0  0  0  0  0  0  0  0  0
  -16.8868   10.6119  -20.1622 C   0  0  0  0  0  0  0  0  0  0  0  0
  -17.6840   11.7434  -20.3459 C   0  0  0  0  0  0  0  0  0  0  0  0
  -17.4827   12.6585  -21.3405 C   0  0  0  0  0  0  0  0  0  0  0  0
  -15.7823   15.9021  -25.7084 C   0  0  0  0  0  0  0  0  0  0  0  0
  -15.3088   15.8664  -24.3595 N   0  0  0  0  0  0  0  0  0  0  0  0
  -14.4191   14.7867  -24.0648 C   0  0  0  0  0  0  0  0  0  0  0  0
  -15.0813   13.4103  -24.1473 C   0  0  0  0  0  0  0  0  0  0  0  0
  -16.2267   13.4397  -23.2486 N   0  0  0  0  0  0  0  0  0  0  0  0
  -17.1619   14.5443  -23.4963 C   0  0  0  0  0  0  0  0  0  0  0  0
  -16.3765   15.8366  -23.3727 C   0  0  0  0  0  0  0  0  0  0  0  0
  -21.9829    9.1356  -12.8645 O   0  0  0  0  0  0  0  0  0  0  0  0
  -22.1583   10.3670  -12.2630 C   0  0  0  0  0  0  0  0  0  0  0  0
  -21.1902   10.9740  -11.4729 C   0  0  0  0  0  0  0  0  0  0  0  0
  -21.4991   12.2016  -10.9361 C   0  0  0  0  0  0  0  0  0  0  0  0
  -22.6832   12.8029  -11.1568 N   0  0  0  0  0  0  0  0  0  0  0  0
  -23.6447   12.2469  -11.9157 C   0  0  0  0  0  0  0  0  0  0  0  0
  -24.8595   12.8618  -12.1434 C   0  0  0  0  0  0  0  0  0  0  0  0
  -25.8440   12.2885  -12.9228 C   0  0  0  0  0  0  0  0  0  0  0  0
  -25.5749   11.0560  -13.4808 C   0  0  0  0  0  0  0  0  0  0  0  0
  -24.3514   10.4393  -13.2500 C   0  0  0  0  0  0  0  0  0  0  0  0
  -23.3691   11.0144  -12.4707 C   0  0  0  0  0  0  0  0  0  0  0  0
  -27.0646   12.9273  -13.1401 O   0  0  0  0  0  0  0  0  0  0  0  0
  -28.0121   12.9406  -12.0885 C   0  0  0  0  0  0  0  0  0  0  0  0
  -26.5558   10.4753  -14.2626 O   0  0  0  0  0  0  0  0  0  0  0  0
  -27.0831    9.1975  -14.0820 C   0  0  0  0  0  0  0  0  0  0  0  0
 19 20  1  0  0  0
 20 21  1  0  0  0
 21 22  1  0  0  0
 22 23  1  0  0  0
 23 24  1  0  0  0
 24 25  1  0  0  0
 23 13  1  0  0  0
 13 14  2  0  0  0
 14 15  1  0  0  0
 15 16  2  0  0  0
 16  7  1  0  0  0
  7  8  1  0  0  0
  8  9  2  0  0  0
  8 10  1  0  0  0
 10  1  1  0  0  0
  1  2  2  0  0  0
  2  3  1  0  0  0
  3  4  2  0  0  0
  4 26  1  0  0  0
 26 27  1  0  0  0
 27 28  2  0  0  0
 28 29  1  0  0  0
 29 30  2  0  0  0
 30 31  1  0  0  0
 31 32  2  0  0  0
 32 33  1  0  0  0
 33 37  1  0  0  0
 37 38  1  0  0  0
 33 34  2  0  0  0
 34 39  1  0  0  0
 39 40  1  0  0  0
 34 35  1  0  0  0
 35 36  2  0  0  0
  4  5  1  0  0  0
  5  6  2  0  0  0
 16 17  1  0  0  0
 17 18  2  0  0  0
 25 20  1  0  0  0
 18 13  1  0  0  0
  6  1  1  0  0  0
 36 27  1  0  0  0
 36 31  1  0  0  0
  7 11  1  0  0  0
 10 12  1  0  0  0
M  END
> <minimizedAffinity>
-7.56093

> <CNNscore>
0.2189964056

> <CNNaffinity>
6.3615441322

> <CNN_VS>
1.3931553364

> <CNNaffinity_variance>
0.1109533906

$$$$
[H]c1nc2c([H])c(OC([H])([H])[H])c(OC([H])([H])[H])c([H])c2c(Oc2c([H])c([H])c(N([H])C(=O)N([H])c3c([H])c([H])c(N4C([H])([H])C([H])([H])N(C([H])([H])[H])C([H])([H])C4([H])[H])c([H])c3[H])c([H])c2[H])c1[H]


 40 44  0  0  0  0  0  0  0  0999 V2000
  -18.0589   10.8362  -18.7491 C   0  0  0  0  0  0  0  0  0  0  0  0
  -18.9582   11.8839  -18.5050 C   0  0  0  0  0  0  0  0  0  0  0  0
  -19.1794   12.8884  -19.4027 C   0  0  0  0  0  0  0  0  0  0  0  0
  -18.5061   12.8804  -20.5807 C   0  0  0  0  0  0  0  0  0  0  0  0
  -17.6204   11.8675  -20.8445 C   0  0  0  0  0  0  0  0  0  0  0  0
  -17.3965   10.8463  -19.9296 C   0  0  0  0  0  0  0  0  0  0  0  0
  -18.4801    8.4001  -15.8784 N   0  0  0  0  0  0  0  0  0  0  0  0
  -18.8414    9.4069  -16.8097 C   0  0  0  0  0  0  0  0  0  0  0  0
  -19.9863    9.8920  -16.8030 O   0  0  0  0  0  0  0  0  0  0  0  0
  -17.8911    9.8686  -17.7603 N   0  0  0  0  0  0  0  0  0  0  0  0
  -17.4752    8.0400  -15.9533 H   0  0  0  0  0  0  0  0  0  0  0  0
  -16.9216    9.3892  -17.6870 H   0  0  0  0  0  0  0  0  0  0  0  0
  -20.7819    6.8102  -12.7140 C   0  0  0  0  0  0  0  0  0  0  0  0
  -20.8989    6.2517  -13.9645 C   0  0  0  0  0  0  0  0  0  0  0  0
  -20.1433    6.7777  -15.0202 C   0  0  0  0  0  0  0  0  0  0  0  0
  -19.2786    7.8343  -14.8773 C   0  0  0  0  0  0  0  0  0  0  0  0
  -19.1972    8.3647  -13.5882 C   0  0  0  0  0  0  0  0  0  0  0  0
  -19.9130    7.8879  -12.5264 C   0  0  0  0  0  0  0  0  0  0  0  0
  -23.3532    5.0846   -8.8903 C   0  0  0  0  0  0  0  0  0  0  0  0
  -21.9648    4.9373   -9.1999 N   0  0  0  0  0  0  0  0  0  0  0  0
  -21.2255    6.1606   -9.2358 C   0  0  0  0  0  0  0  0  0  0  0  0
  -21.6493    7.0968  -10.3688 C   0  0  0  0  0  0  0  0  0  0  0  0
  -21.5239    6.3420  -11.6077 N   0  0  0  0  0  0  0  0  0  0  0  0
  -22.2489    5.0651  -11.6144 C   0  0  0  0  0  0  0  0  0  0  0  0
  -21.7228    4.2417  -10.4537 C   0  0  0  0  0  0  0  0  0  0  0  0
  -18.7270   13.9113  -21.5137 O   0  0  0  0  0  0  0  0  0  0  0  0
  -17.7614   14.8975  -21.5775 C   0  0  0  0  0  0  0  0  0  0  0  0
  -17.5403   15.8147  -20.5578 C   0  0  0  0  0  0  0  0  0  0  0  0
  -16.5453   16.7429  -20.7551 C   0  0  0  0  0  0  0  0  0  0  0  0
  -15.8082   16.7752  -21.8811 N   0  0  0  0  0  0  0  0  0  0  0  0
  -15.9926   15.9044  -22.8897 C   0  0  0  0  0  0  0  0  0  0  0  0
  -15.2379   15.9356  -24.0452 C   0  0  0  0  0  0  0  0  0  0  0  0
  -15.4296   15.0404  -25.0782 C   0  0  0  0  0  0  0  0  0  0  0  0
  -16.4188   14.0918  -24.9210 C   0  0  0  0  0  0  0  0  0  0  0  0
  -17.1770   14.0626  -23.7571 C   0  0  0  0  0  0  0  0  0  0  0  0
  -16.9833   14.9584  -22.7261 C   0  0  0  0  0  0  0  0  0  0  0  0
  -14.6556   15.0897  -26.2373 O   0  0  0  0  0  0  0  0  0  0  0  0
  -15.2077   15.7020  -27.3879 C   0  0  0  0  0  0  0  0  0  0  0  0
  -16.6169   13.1917  -25.9512 O   0  0  0  0  0  0  0  0  0  0  0  0
  -17.6593   12.2693  -26.0300 C   0  0  0  0  0  0  0  0  0  0  0  0
 19 20  1  0  0  0
 20 21  1  0  0  0
 21 22  1  0  0  0
 22 23  1  0  0  0
 23 24  1  0  0  0
 24 25  1  0  0  0
 23 13  1  0  0  0
 13 14  2  0  0  0
 14 15  1  0  0  0
 15 16  2  0  0  0
 16  7  1  0  0  0
  7  8  1  0  0  0
  8  9  2  0  0  0
  8 10  1  0  0  0
 10  1  1  0  0  0
  1  2  2  0  0  0
  2  3  1  0  0  0
  3  4  2  0  0  0
  4 26  1  0  0  0
 26 27  1  0  0  0
 27 28  2  0  0  0
 28 29  1  0  0  0
 29 30  2  0  0  0
 30 31  1  0  0  0
 31 32  2  0  0  0
 32 33  1  0  0  0
 33 37  1  0  0  0
 37 38  1  0  0  0
 33 34  2  0  0  0
 34 39  1  0  0  0
 39 40  1  0  0  0
 34 35  1  0  0  0
 35 36  2  0  0  0
  4  5  1  0  0  0
  5  6  2  0  0  0
 16 17  1  0  0  0
 17 18  2  0  0  0
 25 20  1  0  0  0
 18 13  1  0  0  0
  6  1  1  0  0  0
 36 27  1  0  0  0
 36 31  1  0  0  0
  7 11  1  0  0  0
 10 12  1  0  0  0
M  END
> <minimizedAffinity>
-8.50313

> <CNNscore>
0.2143881917

> <CNNaffinity>
6.4407362938

> <CNN_VS>
1.3808177710

> <CNNaffinity_variance>
0.1015750393

$$$$
[H]c1nc2c([H])c(OC([H])([H])[H])c(OC([H])([H])[H])c([H])c2c(Oc2c([H])c([H])c(N([H])C(=O)N([H])c3c([H])c([H])c(N4C([H])([H])C([H])([H])N(C([H])([H])[H])C([H])([H])C4([H])[H])c([H])c3[H])c([H])c2[H])c1[H]


 40 44  0  0  0  0  0  0  0  0999 V2000
  -19.0177    9.3963  -16.4742 C   0  0  0  0  0  0  0  0  0  0  0  0
  -20.0676   10.3240  -16.4192 C   0  0  0  0  0  0  0  0  0  0  0  0
  -20.7968   10.5442  -15.2861 C   0  0  0  0  0  0  0  0  0  0  0  0
  -20.5003    9.8415  -14.1640 C   0  0  0  0  0  0  0  0  0  0  0  0
  -19.4785    8.9277  -14.1906 C   0  0  0  0  0  0  0  0  0  0  0  0
  -18.7377    8.7048  -15.3447 C   0  0  0  0  0  0  0  0  0  0  0  0
  -17.2520    9.8656  -19.7930 N   0  0  0  0  0  0  0  0  0  0  0  0
  -17.9366   10.2333  -18.6067 C   0  0  0  0  0  0  0  0  0  0  0  0
  -18.1830   11.4276  -18.3639 O   0  0  0  0  0  0  0  0  0  0  0  0
  -18.3465    9.2325  -17.6845 N   0  0  0  0  0  0  0  0  0  0  0  0
  -17.0831    8.8170  -19.9235 H   0  0  0  0  0  0  0  0  0  0  0  0
  -18.0899    8.2225  -17.9831 H   0  0  0  0  0  0  0  0  0  0  0  0
  -16.0374   12.4840  -22.8767 C   0  0  0  0  0  0  0  0  0  0  0  0
  -15.1432   11.5506  -22.4090 C   0  0  0  0  0  0  0  0  0  0  0  0
  -15.5369   10.6830  -21.3822 C   0  0  0  0  0  0  0  0  0  0  0  0
  -16.7830   10.7098  -20.8067 C   0  0  0  0  0  0  0  0  0  0  0  0
  -17.6522   11.6758  -21.3176 C   0  0  0  0  0  0  0  0  0  0  0  0
  -17.3161   12.5446  -22.3171 C   0  0  0  0  0  0  0  0  0  0  0  0
  -14.9716   15.6747  -26.4674 C   0  0  0  0  0  0  0  0  0  0  0  0
  -15.8212   15.8310  -25.3276 N   0  0  0  0  0  0  0  0  0  0  0  0
  -15.1565   15.7284  -24.0659 C   0  0  0  0  0  0  0  0  0  0  0  0
  -14.5931   14.3345  -23.7844 C   0  0  0  0  0  0  0  0  0  0  0  0
  -15.7043   13.4004  -23.8979 N   0  0  0  0  0  0  0  0  0  0  0  0
  -16.4345   13.4803  -25.1694 C   0  0  0  0  0  0  0  0  0  0  0  0
  -16.9410   14.9036  -25.3100 C   0  0  0  0  0  0  0  0  0  0  0  0
  -21.2457   10.0611  -12.9900 O   0  0  0  0  0  0  0  0  0  0  0  0
  -20.5975    9.8089  -11.7962 C   0  0  0  0  0  0  0  0  0  0  0  0
  -19.5910   10.6212  -11.2891 C   0  0  0  0  0  0  0  0  0  0  0  0
  -19.0322   10.2507  -10.0887 C   0  0  0  0  0  0  0  0  0  0  0  0
  -19.4313    9.1520   -9.4210 N   0  0  0  0  0  0  0  0  0  0  0  0
  -20.4020    8.3415   -9.8798 C   0  0  0  0  0  0  0  0  0  0  0  0
  -20.8128    7.2144   -9.1968 C   0  0  0  0  0  0  0  0  0  0  0  0
  -21.8093    6.3849   -9.6703 C   0  0  0  0  0  0  0  0  0  0  0  0
  -22.3971    6.7204  -10.8724 C   0  0  0  0  0  0  0  0  0  0  0  0
  -21.9816    7.8554  -11.5578 C   0  0  0  0  0  0  0  0  0  0  0  0
  -20.9855    8.6828  -11.0823 C   0  0  0  0  0  0  0  0  0  0  0  0
  -22.2093    5.2508   -8.9640 O   0  0  0  0  0  0  0  0  0  0  0  0
  -23.0894    5.4181   -7.8680 C   0  0  0  0  0  0  0  0  0  0  0  0
  -23.3958    5.8946  -11.3533 O   0  0  0  0  0  0  0  0  0  0  0  0
  -24.7399    6.2415  -11.4822 C   0  0  0  0  0  0  0  0  0  0  0  0
 19 20  1  0  0  0
 20 21  1  0  0  0
 21 22  1  0  0  0
 22 23  1  0  0  0
 23 24  1  0  0  0
 24 25  1  0  0  0
 23 13  1  0  0  0
 13 14  2  0  0  0
 14 15  1  0  0  0
 15 16  2  0  0  0
 16  7  1  0  0  0
  7  8  1  0  0  0
  8  9  2  0  0  0
  8 10  1  0  0  0
 10  1  1  0  0  0
  1  2  2  0  0  0
  2  3  1  0  0  0
  3  4  2  0  0  0
  4 26  1  0  0  0
 26 27  1  0  0  0
 27 28  2  0  0  0
 28 29  1  0  0  0
 29 30  2  0  0  0
 30 31  1  0  0  0
 31 32  2  0  0  0
 32 33  1  0  0  0
 33 37  1  0  0  0
 37 38  1  0  0  0
 33 34  2  0  0  0
 34 39  1  0  0  0
 39 40  1  0  0  0
 34 35  1  0  0  0
 35 36  2  0  0  0
  4  5  1  0  0  0
  5  6  2  0  0  0
 16 17  1  0  0  0
 17 18  2  0  0  0
 25 20  1  0  0  0
 18 13  1  0  0  0
  6  1  1  0  0  0
 36 27  1  0  0  0
 36 31  1  0  0  0
  7 11  1  0  0  0
 10 12  1  0  0  0
M  END
> <minimizedAffinity>
-7.74609

> <CNNscore>
0.2032602429

> <CNNaffinity>
6.2861123085

> <CNN_VS>
1.2777167559

> <CNNaffinity_variance>
0.0718047097

$$$$
[H]c1nc2c([H])c(OC([H])([H])[H])c(OC([H])([H])[H])c([H])c2c(Oc2c([H])c([H])c(N([H])C(=O)N([H])c3c([H])c([H])c(N4C([H])([H])C([H])([H])N(C([H])([H])[H])C([H])([H])C4([H])[H])c([H])c3[H])c([H])c2[H])c1[H]


 40 44  0  0  0  0  0  0  0  0999 V2000
  -19.0037    9.3361  -16.4596 C   0  0  0  0  0  0  0  0  0  0  0  0
  -19.8157   10.4723  -16.3339 C   0  0  0  0  0  0  0  0  0  0  0  0
  -20.6044   10.6964  -15.2424 C   0  0  0  0  0  0  0  0  0  0  0  0
  -20.6088    9.7884  -14.2342 C   0  0  0  0  0  0  0  0  0  0  0  0
  -19.8242    8.6682  -14.3318 C   0  0  0  0  0  0  0  0  0  0  0  0
  -19.0224    8.4418  -15.4436 C   0  0  0  0  0  0  0  0  0  0  0  0
  -17.1168    9.8405  -19.7058 N   0  0  0  0  0  0  0  0  0  0  0  0
  -17.9072   10.1845  -18.5796 C   0  0  0  0  0  0  0  0  0  0  0  0
  -18.3060   11.3514  -18.4205 O   0  0  0  0  0  0  0  0  0  0  0  0
  -18.2491    9.1913  -17.6222 N   0  0  0  0  0  0  0  0  0  0  0  0
  -16.8184    8.8145  -19.7654 H   0  0  0  0  0  0  0  0  0  0  0  0
  -17.8587    8.2054  -17.8473 H   0  0  0  0  0  0  0  0  0  0  0  0
  -16.0371   12.4509  -22.8458 C   0  0  0  0  0  0  0  0  0  0  0  0
  -15.1342   11.4994  -22.4347 C   0  0  0  0  0  0  0  0  0  0  0  0
  -15.4830   10.6343  -21.3897 C   0  0  0  0  0  0  0  0  0  0  0  0
  -16.6925   10.6807  -20.7422 C   0  0  0  0  0  0  0  0  0  0  0  0
  -17.5725   11.6645  -21.1978 C   0  0  0  0  0  0  0  0  0  0  0  0
  -17.2796   12.5318  -22.2122 C   0  0  0  0  0  0  0  0  0  0  0  0
  -15.1257   15.6404  -26.4798 C   0  0  0  0  0  0  0  0  0  0  0  0
  -15.8821   15.8144  -25.2786 N   0  0  0  0  0  0  0  0  0  0  0  0
  -15.1297   15.6746  -24.0708 C   0  0  0  0  0  0  0  0  0  0  0  0
  -14.5979   14.2585  -23.8436 C   0  0  0  0  0  0  0  0  0  0  0  0
  -15.7477   13.3659  -23.8815 N   0  0  0  0  0  0  0  0  0  0  0  0
  -16.5668   13.4855  -25.0943 C   0  0  0  0  0  0  0  0  0  0  0  0
  -17.0305   14.9274  -25.1851 C   0  0  0  0  0  0  0  0  0  0  0  0
  -21.4183   10.0099  -13.1037 O   0  0  0  0  0  0  0  0  0  0  0  0
  -22.6465    9.3773  -13.0959 C   0  0  0  0  0  0  0  0  0  0  0  0
  -23.6560    9.6615  -14.0070 C   0  0  0  0  0  0  0  0  0  0  0  0
  -24.8290    8.9550  -13.8829 C   0  0  0  0  0  0  0  0  0  0  0  0
  -25.0078    8.0251  -12.9260 N   0  0  0  0  0  0  0  0  0  0  0  0
  -24.0544    7.7225  -12.0265 C   0  0  0  0  0  0  0  0  0  0  0  0
  -24.2355    6.7693  -11.0446 C   0  0  0  0  0  0  0  0  0  0  0  0
  -23.2551    6.4610  -10.1232 C   0  0  0  0  0  0  0  0  0  0  0  0
  -22.0617    7.1472  -10.2122 C   0  0  0  0  0  0  0  0  0  0  0  0
  -21.8820    8.1062  -11.2015 C   0  0  0  0  0  0  0  0  0  0  0  0
  -22.8635    8.4123  -12.1212 C   0  0  0  0  0  0  0  0  0  0  0  0
  -23.4590    5.4941   -9.1390 O   0  0  0  0  0  0  0  0  0  0  0  0
  -23.2865    4.1333   -9.4887 C   0  0  0  0  0  0  0  0  0  0  0  0
  -21.0748    6.8442   -9.2930 O   0  0  0  0  0  0  0  0  0  0  0  0
  -19.7844    7.3717   -9.2883 C   0  0  0  0  0  0  0  0  0  0  0  0
 19 20  1  0  0  0
 20 21  1  0  0  0
 21 22  1  0  0  0
 22 23  1  0  0  0
 23 24  1  0  0  0
 24 25  1  0  0  0
 23 13  1  0  0  0
 13 14  2  0  0  0
 14 15  1  0  0  0
 15 16  2  0  0  0
 16  7  1  0  0  0
  7  8  1  0  0  0
  8  9  2  0  0  0
  8 10  1  0  0  0
 10  1  1  0  0  0
  1  2  2  0  0  0
  2  3  1  0  0  0
  3  4  2  0  0  0
  4 26  1  0  0  0
 26 27  1  0  0  0
 27 28  2  0  0  0
 28 29  1  0  0  0
 29 30  2  0  0  0
 30 31  1  0  0  0
 31 32  2  0  0  0
 32 33  1  0  0  0
 33 37  1  0  0  0
 37 38  1  0  0  0
 33 34  2  0  0  0
 34 39  1  0  0  0
 39 40  1  0  0  0
 34 35  1  0  0  0
 35 36  2  0  0  0
  4  5  1  0  0  0
  5  6  2  0  0  0
 16 17  1  0  0  0
 17 18  2  0  0  0
 25 20  1  0  0  0
 18 13  1  0  0  0
  6  1  1  0  0  0
 36 27  1  0  0  0
 36 31  1  0  0  0
  7 11  1  0  0  0
 10 12  1  0  0  0
M  END
> <minimizedAffinity>
-7.75253

> <CNNscore>
0.2013505101

> <CNNaffinity>
6.2720499039

> <CNN_VS>
1.2628804445

> <CNNaffinity_variance>
0.0755527169

$$$$
[H]c1nc2c([H])c(OC([H])([H])[H])c(OC([H])([H])[H])c([H])c2c(Oc2c([H])c([H])c(N([H])C(=O)N([H])c3c([H])c([H])c(N4C([H])([H])C([H])([H])N(C([H])([H])[H])C([H])([H])C4([H])[H])c([H])c3[H])c([H])c2[H])c1[H]


 40 44  0  0  0  0  0  0  0  0999 V2000
  -19.0336    9.3064  -16.5073 C   0  0  0  0  0  0  0  0  0  0  0  0
  -20.0333   10.2888  -16.5454 C   0  0  0  0  0  0  0  0  0  0  0  0
  -20.9262   10.4704  -15.5287 C   0  0  0  0  0  0  0  0  0  0  0  0
  -20.8503    9.6727  -14.4339 C   0  0  0  0  0  0  0  0  0  0  0  0
  -19.8822    8.7037  -14.3710 C   0  0  0  0  0  0  0  0  0  0  0  0
  -18.9747    8.5203  -15.4068 C   0  0  0  0  0  0  0  0  0  0  0  0
  -16.9843    9.8541  -19.6462 N   0  0  0  0  0  0  0  0  0  0  0  0
  -17.8920   10.1613  -18.6007 C   0  0  0  0  0  0  0  0  0  0  0  0
  -18.4387   11.2767  -18.5463 O   0  0  0  0  0  0  0  0  0  0  0  0
  -18.1826    9.1900  -17.6046 N   0  0  0  0  0  0  0  0  0  0  0  0
  -16.5613    8.8715  -19.6176 H   0  0  0  0  0  0  0  0  0  0  0  0
  -17.6610    8.2490  -17.7373 H   0  0  0  0  0  0  0  0  0  0  0  0
  -15.9885   12.4215  -22.8487 C   0  0  0  0  0  0  0  0  0  0  0  0
  -15.0803   11.4667  -22.4575 C   0  0  0  0  0  0  0  0  0  0  0  0
  -15.4011   10.6157  -21.3922 C   0  0  0  0  0  0  0  0  0  0  0  0
  -16.5879   10.6795  -20.7052 C   0  0  0  0  0  0  0  0  0  0  0  0
  -17.4743   11.6661  -21.1419 C   0  0  0  0  0  0  0  0  0  0  0  0
  -17.2083   12.5200  -22.1749 C   0  0  0  0  0  0  0  0  0  0  0  0
  -15.1727   15.5661  -26.5441 C   0  0  0  0  0  0  0  0  0  0  0  0
  -15.8648   15.7665  -25.3087 N   0  0  0  0  0  0  0  0  0  0  0  0
  -15.0583   15.6135  -24.1381 C   0  0  0  0  0  0  0  0  0  0  0  0
  -14.5531   14.1852  -23.9274 C   0  0  0  0  0  0  0  0  0  0  0  0
  -15.7262   13.3229  -23.9034 N   0  0  0  0  0  0  0  0  0  0  0  0
  -16.6001   13.4574  -25.0757 C   0  0  0  0  0  0  0  0  0  0  0  0
  -17.0300   14.9105  -25.1536 C   0  0  0  0  0  0  0  0  0  0  0  0
  -21.7659    9.8517  -13.3794 O   0  0  0  0  0  0  0  0  0  0  0  0
  -23.0987    9.9382  -13.7330 C   0  0  0  0  0  0  0  0  0  0  0  0
  -23.7513    8.9713  -14.4875 C   0  0  0  0  0  0  0  0  0  0  0  0
  -25.0805    9.1859  -14.7662 C   0  0  0  0  0  0  0  0  0  0  0  0
  -25.7359   10.2797  -14.3344 N   0  0  0  0  0  0  0  0  0  0  0  0
  -25.1384   11.2369  -13.6021 C   0  0  0  0  0  0  0  0  0  0  0  0
  -25.8085   12.3592  -13.1582 C   0  0  0  0  0  0  0  0  0  0  0  0
  -25.1924   13.3396  -12.4068 C   0  0  0  0  0  0  0  0  0  0  0  0
  -23.8580   13.1634  -12.1044 C   0  0  0  0  0  0  0  0  0  0  0  0
  -23.1859   12.0329  -12.5525 C   0  0  0  0  0  0  0  0  0  0  0  0
  -23.8040   11.0545  -13.3033 C   0  0  0  0  0  0  0  0  0  0  0  0
  -25.8884   14.4659  -11.9683 O   0  0  0  0  0  0  0  0  0  0  0  0
  -25.9832   15.5777  -12.8392 C   0  0  0  0  0  0  0  0  0  0  0  0
  -23.2339   14.1408  -11.3523 O   0  0  0  0  0  0  0  0  0  0  0  0
  -22.9740   14.0663   -9.9847 C   0  0  0  0  0  0  0  0  0  0  0  0
 19 20  1  0  0  0
 20 21  1  0  0  0
 21 22  1  0  0  0
 22 23  1  0  0  0
 23 24  1  0  0  0
 24 25  1  0  0  0
 23 13  1  0  0  0
 13 14  2  0  0  0
 14 15  1  0  0  0
 15 16  2  0  0  0
 16  7  1  0  0  0
  7  8  1  0  0  0
  8  9  2  0  0  0
  8 10  1  0  0  0
 10  1  1  0  0  0
  1  2  2  0  0  0
  2  3  1  0  0  0
  3  4  2  0  0  0
  4 26  1  0  0  0
 26 27  1  0  0  0
 27 28  2  0  0  0
 28 29  1  0  0  0
 29 30  2  0  0  0
 30 31  1  0  0  0
 31 32  2  0  0  0
 32 33  1  0  0  0
 33 37  1  0  0  0
 37 38  1  0  0  0
 33 34  2  0  0  0
 34 39  1  0  0  0
 39 40  1  0  0  0
 34 35  1  0  0  0
 35 36  2  0  0  0
  4  5  1  0  0  0
  5  6  2  0  0  0
 16 17  1  0  0  0
 17 18  2  0  0  0
 25 20  1  0  0  0
 18 13  1  0  0  0
  6  1  1  0  0  0
 36 27  1  0  0  0
 36 31  1  0  0  0
  7 11  1  0  0  0
 10 12  1  0  0  0
M  END
> <minimizedAffinity>
-7.99928

> <CNNscore>
0.1922008246

> <CNNaffinity>
6.3027715683

> <CNN_VS>
1.2113978863

> <CNNaffinity_variance>
0.0698847547

$$$$
[H]c1nc2c([H])c(OC([H])([H])[H])c(OC([H])([H])[H])c([H])c2c(Oc2c([H])c([H])c(N([H])C(=O)N([H])c3c([H])c([H])c(N4C([H])([H])C([H])([H])N(C([H])([H])[H])C([H])([H])C4([H])[H])c([H])c3[H])c([H])c2[H])c1[H]


 40 44  0  0  0  0  0  0  0  0999 V2000
  -19.0258    9.2910  -16.3307 C   0  0  0  0  0  0  0  0  0  0  0  0
  -20.1094   10.1806  -16.3519 C   0  0  0  0  0  0  0  0  0  0  0  0
  -20.9172   10.3829  -15.2701 C   0  0  0  0  0  0  0  0  0  0  0  0
  -20.6688    9.6997  -14.1245 C   0  0  0  0  0  0  0  0  0  0  0  0
  -19.6155    8.8230  -14.0768 C   0  0  0  0  0  0  0  0  0  0  0  0
  -18.7947    8.6184  -15.1789 C   0  0  0  0  0  0  0  0  0  0  0  0
  -17.1464    9.7842  -19.5829 N   0  0  0  0  0  0  0  0  0  0  0  0
  -17.9360   10.1316  -18.4572 C   0  0  0  0  0  0  0  0  0  0  0  0
  -18.3385   11.2980  -18.3037 O   0  0  0  0  0  0  0  0  0  0  0  0
  -18.2728    9.1424  -17.4939 N   0  0  0  0  0  0  0  0  0  0  0  0
  -16.8447    8.7590  -19.6376 H   0  0  0  0  0  0  0  0  0  0  0  0
  -17.8795    8.1567  -17.7144 H   0  0  0  0  0  0  0  0  0  0  0  0
  -16.0822   12.3778  -22.7421 C   0  0  0  0  0  0  0  0  0  0  0  0
  -15.1652   11.4501  -22.3086 C   0  0  0  0  0  0  0  0  0  0  0  0
  -15.5089   10.5908  -21.2572 C   0  0  0  0  0  0  0  0  0  0  0  0
  -16.7269   10.6203  -20.6245 C   0  0  0  0  0  0  0  0  0  0  0  0
  -17.6210   11.5803  -21.1027 C   0  0  0  0  0  0  0  0  0  0  0  0
  -17.3336   12.4410  -22.1242 C   0  0  0  0  0  0  0  0  0  0  0  0
  -15.1916   15.5390  -26.4059 C   0  0  0  0  0  0  0  0  0  0  0  0
  -15.9876   15.7037  -25.2292 N   0  0  0  0  0  0  0  0  0  0  0  0
  -15.2648   15.6134  -23.9989 C   0  0  0  0  0  0  0  0  0  0  0  0
  -14.6858   14.2229  -23.7320 C   0  0  0  0  0  0  0  0  0  0  0  0
  -15.7990   13.2859  -23.7856 N   0  0  0  0  0  0  0  0  0  0  0  0
  -16.5876   13.3533  -25.0224 C   0  0  0  0  0  0  0  0  0  0  0  0
  -17.1034   14.7744  -25.1516 C   0  0  0  0  0  0  0  0  0  0  0  0
  -21.4954    9.9010  -13.0027 O   0  0  0  0  0  0  0  0  0  0  0  0
  -22.5232    8.9943  -12.8282 C   0  0  0  0  0  0  0  0  0  0  0  0
  -22.3152    7.6598  -12.5026 C   0  0  0  0  0  0  0  0  0  0  0  0
  -23.4306    6.8689  -12.3590 C   0  0  0  0  0  0  0  0  0  0  0  0
  -24.6769    7.3507  -12.5231 N   0  0  0  0  0  0  0  0  0  0  0  0
  -24.9181    8.6360  -12.8382 C   0  0  0  0  0  0  0  0  0  0  0  0
  -26.1952    9.1323  -13.0069 C   0  0  0  0  0  0  0  0  0  0  0  0
  -26.4393   10.4518  -13.3301 C   0  0  0  0  0  0  0  0  0  0  0  0
  -25.3471   11.2804  -13.4836 C   0  0  0  0  0  0  0  0  0  0  0  0
  -24.0628   10.7785  -13.3134 C   0  0  0  0  0  0  0  0  0  0  0  0
  -23.8216    9.4592  -12.9903 C   0  0  0  0  0  0  0  0  0  0  0  0
  -27.7379   10.9326  -13.4958 O   0  0  0  0  0  0  0  0  0  0  0  0
  -28.4433   10.5709  -14.6686 C   0  0  0  0  0  0  0  0  0  0  0  0
  -25.5833   12.6033  -13.8074 O   0  0  0  0  0  0  0  0  0  0  0  0
  -26.0827   13.5720  -12.9381 C   0  0  0  0  0  0  0  0  0  0  0  0
 19 20  1  0  0  0
 20 21  1  0  0  0
 21 22  1  0  0  0
 22 23  1  0  0  0
 23 24  1  0  0  0
 24 25  1  0  0  0
 23 13  1  0  0  0
 13 14  2  0  0  0
 14 15  1  0  0  0
 15 16  2  0  0  0
 16  7  1  0  0  0
  7  8  1  0  0  0
  8  9  2  0  0  0
  8 10  1  0  0  0
 10  1  1  0  0  0
  1  2  2  0  0  0
  2  3  1  0  0  0
  3  4  2  0  0  0
  4 26  1  0  0  0
 26 27  1  0  0  0
 27 28  2  0  0  0
 28 29  1  0  0  0
 29 30  2  0  0  0
 30 31  1  0  0  0
 31 32  2  0  0  0
 32 33  1  0  0  0
 33 37  1  0  0  0
 37 38  1  0  0  0
 33 34  2  0  0  0
 34 39  1  0  0  0
 39 40  1  0  0  0
 34 35  1  0  0  0
 35 36  2  0  0  0
  4  5  1  0  0  0
  5  6  2  0  0  0
 16 17  1  0  0  0
 17 18  2  0  0  0
 25 20  1  0  0  0
 18 13  1  0  0  0
  6  1  1  0  0  0
 36 27  1  0  0  0
 36 31  1  0  0  0
  7 11  1  0  0  0
 10 12  1  0  0  0
M  END
> <minimizedAffinity>
-7.84467

> <CNNscore>
0.1904171407

> <CNNaffinity>
6.2257113457

> <CNN_VS>
1.1854821444

> <CNNaffinity_variance>
0.0943709165

$$$$
[H]Oc1nc([H])c(C(=O)C([H])([H])C([H])([H])N2C([H])([H])C([H])([H])C([H])([H])C2([H])[H])c([H])c1[H]


 17 18  0  0  0  0  0  0  0  0999 V2000
  -17.4644   13.0862  -22.0398 C   0  0  0  0  0  0  0  0  0  0  0  0
  -18.2082   14.1121  -21.9485 O   0  0  0  0  0  0  0  0  0  0  0  0
  -17.5562    9.4207  -17.7648 O   0  0  0  0  0  0  0  0  0  0  0  0
  -17.5468   10.3461  -18.8160 C   0  0  0  0  0  0  0  0  0  0  0  0
  -18.2367   11.5171  -18.7081 C   0  0  0  0  0  0  0  0  0  0  0  0
  -18.1935   12.3915  -19.7714 C   0  0  0  0  0  0  0  0  0  0  0  0
  -17.4918   12.1356  -20.9238 C   0  0  0  0  0  0  0  0  0  0  0  0
  -16.8081   10.9393  -20.9908 C   0  0  0  0  0  0  0  0  0  0  0  0
  -16.8513   10.0762  -19.9402 N   0  0  0  0  0  0  0  0  0  0  0  0
  -18.3819    9.1698  -17.2544 H   0  0  0  0  0  0  0  0  0  0  0  0
  -16.5981   12.8511  -23.2266 C   0  0  0  0  0  0  0  0  0  0  0  0
  -16.9992   13.8263  -24.2886 C   0  0  0  0  0  0  0  0  0  0  0  0
  -16.0214   14.8561  -24.5240 N   0  0  0  0  0  0  0  0  0  0  0  0
  -14.7171   14.2136  -24.5656 C   0  0  0  0  0  0  0  0  0  0  0  0
  -13.8892   15.0484  -25.5295 C   0  0  0  0  0  0  0  0  0  0  0  0
  -14.9307   15.4485  -26.5502 C   0  0  0  0  0  0  0  0  0  0  0  0
  -16.1983   15.5737  -25.7362 C   0  0  0  0  0  0  0  0  0  0  0  0
  3  4  1  0  0  0
  4  5  2  0  0  0
  5  6  1  0  0  0
  6  7  2  0  0  0
  7  8  1  0  0  0
  8  9  2  0  0  0
  7  1  1  0  0  0
  1  2  2  0  0  0
  1 11  1  0  0  0
 11 12  1  0  0  0
 12 13  1  0  0  0
 13 14  1  0  0  0
 14 15  1  0  0  0
 15 16  1  0  0  0
 16 17  1  0  0  0
  9  4  1  0  0  0
 17 13  1  0  0  0
  3 10  1  0  0  0
M  END
> <minimizedAffinity>
-6.35844

> <CNNscore>
0.7637994885

> <CNNaffinity>
5.2886857986

> <CNN_VS>
4.0394954681

> <CNNaffinity_variance>
0.1266970187

$$$$
[H]Oc1nc([H])c(C(=O)C([H])([H])C([H])([H])N2C([H])([H])C([H])([H])C([H])([H])C2([H])[H])c([H])c1[H]


 17 18  0  0  0  0  0  0  0  0999 V2000
  -16.1449   12.5297  -23.0521 C   0  0  0  0  0  0  0  0  0  0  0  0
  -14.9541   12.4999  -23.4939 O   0  0  0  0  0  0  0  0  0  0  0  0
  -17.1682    9.7591  -18.2566 O   0  0  0  0  0  0  0  0  0  0  0  0
  -16.9297   10.4632  -19.4436 C   0  0  0  0  0  0  0  0  0  0  0  0
  -17.6402   11.5912  -19.7292 C   0  0  0  0  0  0  0  0  0  0  0  0
  -17.3655   12.2450  -20.9098 C   0  0  0  0  0  0  0  0  0  0  0  0
  -16.4155   11.8124  -21.8022 C   0  0  0  0  0  0  0  0  0  0  0  0
  -15.7200   10.6671  -21.4739 C   0  0  0  0  0  0  0  0  0  0  0  0
  -15.9920   10.0220  -20.3076 N   0  0  0  0  0  0  0  0  0  0  0  0
  -18.0857    9.5642  -17.9024 H   0  0  0  0  0  0  0  0  0  0  0  0
  -17.2265   13.2600  -23.7670 C   0  0  0  0  0  0  0  0  0  0  0  0
  -16.8332   13.3688  -25.2069 C   0  0  0  0  0  0  0  0  0  0  0  0
  -16.7059   14.7265  -25.6680 N   0  0  0  0  0  0  0  0  0  0  0  0
  -17.4509   15.5690  -24.7456 C   0  0  0  0  0  0  0  0  0  0  0  0
  -16.7164   16.9001  -24.7356 C   0  0  0  0  0  0  0  0  0  0  0  0
  -15.2789   16.4503  -24.8692 C   0  0  0  0  0  0  0  0  0  0  0  0
  -15.3718   15.2087  -25.7264 C   0  0  0  0  0  0  0  0  0  0  0  0
  3  4  1  0  0  0
  4  5  2  0  0  0
  5  6  1  0  0  0
  6  7  2  0  0  0
  7  8  1  0  0  0
  8  9  2  0  0  0
  7  1  1  0  0  0
  1  2  2  0  0  0
  1 11  1  0  0  0
 11 12  1  0  0  0
 12 13  1  0  0  0
 13 14  1  0  0  0
 14 15  1  0  0  0
 15 16  1  0  0  0
 16 17  1  0  0  0
  9  4  1  0  0  0
 17 13  1  0  0  0
  3 10  1  0  0  0
M  END
> <minimizedAffinity>
-6.45867

> <CNNscore>
0.6954646707

> <CNNaffinity>
5.2285962105

> <CNN_VS>
3.6363039017

> <CNNaffinity_variance>
0.0866235197

$$$$
[H]Oc1nc([H])c(C(=O)C([H])([H])C([H])([H])N2C([H])([H])C([H])([H])C([H])([H])C2([H])[H])c([H])c1[H]


 17 18  0  0  0  0  0  0  0  0999 V2000
  -18.5237   12.5787  -17.8339 C   0  0  0  0  0  0  0  0  0  0  0  0
  -18.0695   13.6409  -17.3051 O   0  0  0  0  0  0  0  0  0  0  0  0
  -15.3149   10.0449  -21.7073 O   0  0  0  0  0  0  0  0  0  0  0  0
  -16.0996   10.6665  -20.7278 C   0  0  0  0  0  0  0  0  0  0  0  0
  -15.7891   10.5283  -19.4074 C   0  0  0  0  0  0  0  0  0  0  0  0
  -16.5939   11.1608  -18.4860 C   0  0  0  0  0  0  0  0  0  0  0  0
  -17.6849   11.9169  -18.8380 C   0  0  0  0  0  0  0  0  0  0  0  0
  -17.9630   12.0302  -20.1844 C   0  0  0  0  0  0  0  0  0  0  0  0
  -17.1675   11.4053  -21.0940 N   0  0  0  0  0  0  0  0  0  0  0  0
  -14.9802    9.1026  -21.6340 H   0  0  0  0  0  0  0  0  0  0  0  0
  -19.8509   12.0223  -17.4557 C   0  0  0  0  0  0  0  0  0  0  0  0
  -19.6405   10.6231  -16.9681 C   0  0  0  0  0  0  0  0  0  0  0  0
  -20.2416   10.3635  -15.6862 N   0  0  0  0  0  0  0  0  0  0  0  0
  -19.4717    9.3042  -15.0532 C   0  0  0  0  0  0  0  0  0  0  0  0
  -19.5621    9.5794  -13.5607 C   0  0  0  0  0  0  0  0  0  0  0  0
  -19.5477   11.0912  -13.5333 C   0  0  0  0  0  0  0  0  0  0  0  0
  -20.2643   11.4779  -14.8069 C   0  0  0  0  0  0  0  0  0  0  0  0
  3  4  1  0  0  0
  4  5  2  0  0  0
  5  6  1  0  0  0
  6  7  2  0  0  0
  7  8  1  0  0  0
  8  9  2  0  0  0
  7  1  1  0  0  0
  1  2  2  0  0  0
  1 11  1  0  0  0
 11 12  1  0  0  0
 12 13  1  0  0  0
 13 14  1  0  0  0
 14 15  1  0  0  0
 15 16  1  0  0  0
 16 17  1  0  0  0
  9  4  1  0  0  0
 17 13  1  0  0  0
  3 10  1  0  0  0
M  END
> <minimizedAffinity>
-5.39554

> <CNNscore>
0.5864363313

> <CNNaffinity>
4.4915256500

> <CNN_VS>
2.6339938641

> <CNNaffinity_variance>
0.0052918019

$$$$
[H]Oc1nc([H])c(C(=O)C([H])([H])C([H])([H])N2C([H])([H])C([H])([H])C([H])([H])C2([H])[H])c([H])c1[H]


 17 18  0  0  0  0  0  0  0  0999 V2000
  -17.0484   12.9628  -21.9084 C   0  0  0  0  0  0  0  0  0  0  0  0
  -16.7565   12.4640  -23.0399 O   0  0  0  0  0  0  0  0  0  0  0  0
  -17.8183    9.3634  -17.6456 O   0  0  0  0  0  0  0  0  0  0  0  0
  -17.6394   10.2739  -18.6947 C   0  0  0  0  0  0  0  0  0  0  0  0
  -18.2033   11.5137  -18.6336 C   0  0  0  0  0  0  0  0  0  0  0  0
  -17.9957   12.3696  -19.6924 C   0  0  0  0  0  0  0  0  0  0  0  0
  -17.2521   12.0298  -20.7958 C   0  0  0  0  0  0  0  0  0  0  0  0
  -16.6999   10.7658  -20.8166 C   0  0  0  0  0  0  0  0  0  0  0  0
  -16.9054    9.9210  -19.7704 N   0  0  0  0  0  0  0  0  0  0  0  0
  -18.6981    9.2078  -17.1905 H   0  0  0  0  0  0  0  0  0  0  0  0
  -17.1800   14.4318  -21.7116 C   0  0  0  0  0  0  0  0  0  0  0  0
  -18.2257   14.9305  -22.6590 C   0  0  0  0  0  0  0  0  0  0  0  0
  -17.7151   15.8330  -23.6573 N   0  0  0  0  0  0  0  0  0  0  0  0
  -16.4403   16.3388  -23.1727 C   0  0  0  0  0  0  0  0  0  0  0  0
  -15.6076   16.5889  -24.4198 C   0  0  0  0  0  0  0  0  0  0  0  0
  -16.0513   15.4498  -25.3099 C   0  0  0  0  0  0  0  0  0  0  0  0
  -17.5005   15.2452  -24.9317 C   0  0  0  0  0  0  0  0  0  0  0  0
  3  4  1  0  0  0
  4  5  2  0  0  0
  5  6  1  0  0  0
  6  7  2  0  0  0
  7  8  1  0  0  0
  8  9  2  0  0  0
  7  1  1  0  0  0
  1  2  2  0  0  0
  1 11  1  0  0  0
 11 12  1  0  0  0
 12 13  1  0  0  0
 13 14  1  0  0  0
 14 15  1  0  0  0
 15 16  1  0  0  0
 16 17  1  0  0  0
  9  4  1  0  0  0
 17 13  1  0  0  0
  3 10  1  0  0  0
M  END
> <minimizedAffinity>
-5.84792

> <CNNscore>
0.5572214723

> <CNNaffinity>
5.0643491745

> <CNN_VS>
2.8219640255

> <CNNaffinity_variance>
0.0630215779

$$$$
[H]Oc1nc([H])c(C(=O)C([H])([H])C([H])([H])N2C([H])([H])C([H])([H])C([H])([H])C2([H])[H])c([H])c1[H]


 17 18  0  0  0  0  0  0  0  0999 V2000
  -17.3424   13.2003  -22.0586 C   0  0  0  0  0  0  0  0  0  0  0  0
  -17.7742   14.3708  -21.8186 O   0  0  0  0  0  0  0  0  0  0  0  0
  -17.5922    9.4672  -17.8490 O   0  0  0  0  0  0  0  0  0  0  0  0
  -17.5158   10.3819  -18.9068 C   0  0  0  0  0  0  0  0  0  0  0  0
  -16.7355   10.1146  -19.9925 C   0  0  0  0  0  0  0  0  0  0  0  0
  -16.6967   11.0482  -21.0043 C   0  0  0  0  0  0  0  0  0  0  0  0
  -17.4037   12.2249  -20.9656 C   0  0  0  0  0  0  0  0  0  0  0  0
  -18.1802   12.4551  -19.8488 C   0  0  0  0  0  0  0  0  0  0  0  0
  -18.2180   11.5325  -18.8499 N   0  0  0  0  0  0  0  0  0  0  0  0
  -16.7950    8.9958  -17.4648 H   0  0  0  0  0  0  0  0  0  0  0  0
  -16.7955   12.8261  -23.3909 C   0  0  0  0  0  0  0  0  0  0  0  0
  -15.4889   13.5342  -23.5666 C   0  0  0  0  0  0  0  0  0  0  0  0
  -15.1470   13.7790  -24.9432 N   0  0  0  0  0  0  0  0  0  0  0  0
  -16.3702   14.1591  -25.6324 C   0  0  0  0  0  0  0  0  0  0  0  0
  -15.9317   15.1142  -26.7309 C   0  0  0  0  0  0  0  0  0  0  0  0
  -14.7988   15.8513  -26.0526 C   0  0  0  0  0  0  0  0  0  0  0  0
  -14.1910   14.8099  -25.1410 C   0  0  0  0  0  0  0  0  0  0  0  0
  3  4  1  0  0  0
  4  5  2  0  0  0
  5  6  1  0  0  0
  6  7  2  0  0  0
  7  8  1  0  0  0
  8  9  2  0  0  0
  7  1  1  0  0  0
  1  2  2  0  0  0
  1 11  1  0  0  0
 11 12  1  0  0  0
 12 13  1  0  0  0
 13 14  1  0  0  0
 14 15  1  0  0  0
 15 16  1  0  0  0
 16 17  1  0  0  0
  9  4  1  0  0  0
 17 13  1  0  0  0
  3 10  1  0  0  0
M  END
> <minimizedAffinity>
-6.68154

> <CNNscore>
0.5429402590

> <CNNaffinity>
5.1883392334

> <CNN_VS>
2.8169581890

> <CNNaffinity_variance>
0.0545052178

$$$$
[H]Oc1nc([H])c(C(=O)C([H])([H])C([H])([H])N2C([H])([H])C([H])([H])C([H])([H])C2([H])[H])c([H])c1[H]


 17 18  0  0  0  0  0  0  0  0999 V2000
  -17.4235   10.8487  -19.3408 C   0  0  0  0  0  0  0  0  0  0  0  0
  -16.7073    9.8688  -19.7162 O   0  0  0  0  0  0  0  0  0  0  0  0
  -20.9832    9.9300  -15.0742 O   0  0  0  0  0  0  0  0  0  0  0  0
  -20.1059   10.1797  -16.1370 C   0  0  0  0  0  0  0  0  0  0  0  0
  -20.0897   11.4006  -16.7436 C   0  0  0  0  0  0  0  0  0  0  0  0
  -19.2074   11.5923  -17.7837 C   0  0  0  0  0  0  0  0  0  0  0  0
  -18.3523   10.6151  -18.2306 C   0  0  0  0  0  0  0  0  0  0  0  0
  -18.4017    9.3950  -17.5887 C   0  0  0  0  0  0  0  0  0  0  0  0
  -19.2734    9.2064  -16.5615 N   0  0  0  0  0  0  0  0  0  0  0  0
  -21.9441   10.2162  -15.0695 H   0  0  0  0  0  0  0  0  0  0  0  0
  -17.3301   12.1819  -19.9952 C   0  0  0  0  0  0  0  0  0  0  0  0
  -17.3934   11.9724  -21.4757 C   0  0  0  0  0  0  0  0  0  0  0  0
  -17.5159   13.1950  -22.2255 N   0  0  0  0  0  0  0  0  0  0  0  0
  -17.2823   14.2947  -21.3025 C   0  0  0  0  0  0  0  0  0  0  0  0
  -16.6508   15.3947  -22.1407 C   0  0  0  0  0  0  0  0  0  0  0  0
  -15.8040   14.5908  -23.1015 C   0  0  0  0  0  0  0  0  0  0  0  0
  -16.6006   13.3220  -23.3034 C   0  0  0  0  0  0  0  0  0  0  0  0
  3  4  1  0  0  0
  4  5  2  0  0  0
  5  6  1  0  0  0
  6  7  2  0  0  0
  7  8  1  0  0  0
  8  9  2  0  0  0
  7  1  1  0  0  0
  1  2  2  0  0  0
  1 11  1  0  0  0
 11 12  1  0  0  0
 12 13  1  0  0  0
 13 14  1  0  0  0
 14 15  1  0  0  0
 15 16  1  0  0  0
 16 17  1  0  0  0
  9  4  1  0  0  0
 17 13  1  0  0  0
  3 10  1  0  0  0
M  END
> <minimizedAffinity>
-5.57554

> <CNNscore>
0.4388558567

> <CNNaffinity>
4.5733313560

> <CNN_VS>
2.0070333481

> <CNNaffinity_variance>
0.0567944646

$$$$
[H]Oc1nc([H])c(C(=O)C([H])([H])C([H])([H])N2C([H])([H])C([H])([H])C([H])([H])C2([H])[H])c([H])c1[H]


 17 18  0  0  0  0  0  0  0  0999 V2000
  -17.1040   13.1114  -22.2271 C   0  0  0  0  0  0  0  0  0  0  0  0
  -16.8224   12.5994  -23.3553 O   0  0  0  0  0  0  0  0  0  0  0  0
  -17.5972    9.5829  -17.8652 O   0  0  0  0  0  0  0  0  0  0  0  0
  -17.4881   10.4751  -18.9394 C   0  0  0  0  0  0  0  0  0  0  0  0
  -18.1406   11.6718  -18.9088 C   0  0  0  0  0  0  0  0  0  0  0  0
  -17.9990   12.5115  -19.9913 C   0  0  0  0  0  0  0  0  0  0  0  0
  -17.2359   12.1967  -21.0888 C   0  0  0  0  0  0  0  0  0  0  0  0
  -16.5932   10.9761  -21.0783 C   0  0  0  0  0  0  0  0  0  0  0  0
  -16.7336   10.1474  -20.0088 N   0  0  0  0  0  0  0  0  0  0  0  0
  -18.4619    9.3762  -17.4018 H   0  0  0  0  0  0  0  0  0  0  0  0
  -17.2936   14.5777  -22.0590 C   0  0  0  0  0  0  0  0  0  0  0  0
  -16.0523   15.2599  -22.5421 C   0  0  0  0  0  0  0  0  0  0  0  0
  -16.2280   16.6668  -22.7908 N   0  0  0  0  0  0  0  0  0  0  0  0
  -17.3145   16.8052  -23.7479 C   0  0  0  0  0  0  0  0  0  0  0  0
  -17.9805   18.1295  -23.4100 C   0  0  0  0  0  0  0  0  0  0  0  0
  -17.8574   18.1509  -21.9030 C   0  0  0  0  0  0  0  0  0  0  0  0
  -16.5523   17.4346  -21.6414 C   0  0  0  0  0  0  0  0  0  0  0  0
  3  4  1  0  0  0
  4  5  2  0  0  0
  5  6  1  0  0  0
  6  7  2  0  0  0
  7  8  1  0  0  0
  8  9  2  0  0  0
  7  1  1  0  0  0
  1  2  2  0  0  0
  1 11  1  0  0  0
 11 12  1  0  0  0
 12 13  1  0  0  0
 13 14  1  0  0  0
 14 15  1  0  0  0
 15 16  1  0  0  0
 16 17  1  0  0  0
  9  4  1  0  0  0
 17 13  1  0  0  0
  3 10  1  0  0  0
M  END
> <minimizedAffinity>
-5.58817

> <CNNscore>
0.4211436808

> <CNNaffinity>
5.0303297043

> <CNN_VS>
2.1184916496

> <CNNaffinity_variance>
0.1558197588

$$$$
[H]Oc1nc([H])c(C(=O)C([H])([H])C([H])([H])N2C([H])([H])C([H])([H])C([H])([H])C2([H])[H])c([H])c1[H]


 17 18  0  0  0  0  0  0  0  0999 V2000
  -17.2458   11.4804  -19.4294 C   0  0  0  0  0  0  0  0  0  0  0  0
  -16.1963   10.8070  -19.6730 O   0  0  0  0  0  0  0  0  0  0  0  0
  -20.7728    9.4731  -15.5243 O   0  0  0  0  0  0  0  0  0  0  0  0
  -19.8852    9.9522  -16.4959 C   0  0  0  0  0  0  0  0  0  0  0  0
  -18.9107    9.1412  -16.9974 C   0  0  0  0  0  0  0  0  0  0  0  0
  -18.0649    9.6629  -17.9510 C   0  0  0  0  0  0  0  0  0  0  0  0
  -18.1612   10.9526  -18.4129 C   0  0  0  0  0  0  0  0  0  0  0  0
  -19.1612   11.7385  -17.8787 C   0  0  0  0  0  0  0  0  0  0  0  0
  -19.9962   11.2224  -16.9369 N   0  0  0  0  0  0  0  0  0  0  0  0
  -20.4882    8.9205  -14.7375 H   0  0  0  0  0  0  0  0  0  0  0  0
  -17.5414   12.7531  -20.1414 C   0  0  0  0  0  0  0  0  0  0  0  0
  -17.6821   12.4424  -21.5986 C   0  0  0  0  0  0  0  0  0  0  0  0
  -17.1164   13.4482  -22.4591 N   0  0  0  0  0  0  0  0  0  0  0  0
  -16.7809   12.8021  -23.7184 C   0  0  0  0  0  0  0  0  0  0  0  0
  -16.9543   13.8770  -24.7794 C   0  0  0  0  0  0  0  0  0  0  0  0
  -18.1411   14.6427  -24.2392 C   0  0  0  0  0  0  0  0  0  0  0  0
  -17.9794   14.5399  -22.7398 C   0  0  0  0  0  0  0  0  0  0  0  0
  3  4  1  0  0  0
  4  5  2  0  0  0
  5  6  1  0  0  0
  6  7  2  0  0  0
  7  8  1  0  0  0
  8  9  2  0  0  0
  7  1  1  0  0  0
  1  2  2  0  0  0
  1 11  1  0  0  0
 11 12  1  0  0  0
 12 13  1  0  0  0
 13 14  1  0  0  0
 14 15  1  0  0  0
 15 16  1  0  0  0
 16 17  1  0  0  0
  9  4  1  0  0  0
 17 13  1  0  0  0
  3 10  1  0  0  0
M  END
> <minimizedAffinity>
-5.81291

> <CNNscore>
0.4210749567

> <CNNaffinity>
4.5853738785

> <CNN_VS>
1.9307861328

> <CNNaffinity_variance>
0.0567232668

$$$$
[H]Oc1nc([H])c(C(=O)C([H])([H])C([H])([H])N2C([H])([H])C([H])([H])C([H])([H])C2([H])[H])c([H])c1[H]


 17 18  0  0  0  0  0  0  0  0999 V2000
  -17.6013   13.3712  -21.1702 C   0  0  0  0  0  0  0  0  0  0  0  0
  -17.3992   13.0630  -22.3861 O   0  0  0  0  0  0  0  0  0  0  0  0
  -17.9182    9.1352  -17.4721 O   0  0  0  0  0  0  0  0  0  0  0  0
  -17.8543   10.2003  -18.3794 C   0  0  0  0  0  0  0  0  0  0  0  0
  -18.5959   11.3256  -18.1728 C   0  0  0  0  0  0  0  0  0  0  0  0
  -18.4954   12.3428  -19.0958 C   0  0  0  0  0  0  0  0  0  0  0  0
  -17.6877   12.2715  -20.2042 C   0  0  0  0  0  0  0  0  0  0  0  0
  -16.9549   11.1152  -20.3746 C   0  0  0  0  0  0  0  0  0  0  0  0
  -17.0547   10.1110  -19.4624 N   0  0  0  0  0  0  0  0  0  0  0  0
  -18.7744    8.7927  -17.0785 H   0  0  0  0  0  0  0  0  0  0  0  0
  -17.7455   14.7870  -20.7356 C   0  0  0  0  0  0  0  0  0  0  0  0
  -19.0277   15.3128  -21.3007 C   0  0  0  0  0  0  0  0  0  0  0  0
  -19.2476   16.7089  -21.0278 N   0  0  0  0  0  0  0  0  0  0  0  0
  -18.5349   17.0280  -19.8006 C   0  0  0  0  0  0  0  0  0  0  0  0
  -18.1134   18.4813  -19.9479 C   0  0  0  0  0  0  0  0  0  0  0  0
  -17.8075   18.5563  -21.4269 C   0  0  0  0  0  0  0  0  0  0  0  0
  -18.7918   17.5892  -22.0442 C   0  0  0  0  0  0  0  0  0  0  0  0
  3  4  1  0  0  0
  4  5  2  0  0  0
  5  6  1  0  0  0
  6  7  2  0  0  0
  7  8  1  0  0  0
  8  9  2  0  0  0
  7  1  1  0  0  0
  1  2  2  0  0  0
  1 11  1  0  0  0
 11 12  1  0  0  0
 12 13  1  0  0  0
 13 14  1  0  0  0
 14 15  1  0  0  0
 15 16  1  0  0  0
 16 17  1  0  0  0
  9  4  1  0  0  0
 17 13  1  0  0  0
  3 10  1  0  0  0
M  END
> <minimizedAffinity>
-5.25061

> <CNNscore>
0.4186851680

> <CNNaffinity>
4.9179754257

> <CNN_VS>
2.0590834618

> <CNNaffinity_variance>
0.1230327338

$$$$
[H]c1c([H])c(C([H])([H])C([H])([H])N([H])C(=O)C([H])([H])[H])c([H])c([H])c1-c1nc2c([H])c([H])c(C(=O)N([H])C([H])([H])C([H])([H])C([H])(C([H])([H])[H])C([H])([H])[H])c([H])c2o1


 31 33  0  0  0  0  0  0  0  0999 V2000
  -16.6329   12.4383  -22.6350 C   0  0  0  0  0  0  0  0  0  0  0  0
  -15.6487   11.4887  -22.5012 C   0  0  0  0  0  0  0  0  0  0  0  0
  -15.6527   10.6357  -21.4065 C   0  0  0  0  0  0  0  0  0  0  0  0
  -16.6497   10.7525  -20.4611 C   0  0  0  0  0  0  0  0  0  0  0  0
  -16.9400   10.1014  -19.3096 N   0  0  0  0  0  0  0  0  0  0  0  0
  -18.0487   10.6216  -18.7572 C   0  0  0  0  0  0  0  0  0  0  0  0
  -18.4437   11.5798  -19.5485 O   0  0  0  0  0  0  0  0  0  0  0  0
  -17.6508   11.7066  -20.5814 C   0  0  0  0  0  0  0  0  0  0  0  0
  -17.6423   12.5461  -21.6641 C   0  0  0  0  0  0  0  0  0  0  0  0
  -18.6841   10.1900  -17.5074 C   0  0  0  0  0  0  0  0  0  0  0  0
  -18.4312    8.9597  -16.9433 C   0  0  0  0  0  0  0  0  0  0  0  0
  -19.0506    8.5700  -15.7482 C   0  0  0  0  0  0  0  0  0  0  0  0
  -19.9306    9.4249  -15.1171 C   0  0  0  0  0  0  0  0  0  0  0  0
  -20.1783   10.6416  -15.6785 C   0  0  0  0  0  0  0  0  0  0  0  0
  -19.5678   11.0251  -16.8559 C   0  0  0  0  0  0  0  0  0  0  0  0
  -20.5597    8.9602  -13.8513 C   0  0  0  0  0  0  0  0  0  0  0  0
  -19.5995    8.2572  -12.9558 C   0  0  0  0  0  0  0  0  0  0  0  0
  -18.8538    9.2344  -12.1950 N   0  0  0  0  0  0  0  0  0  0  0  0
  -19.1515    9.4976  -10.8172 C   0  0  0  0  0  0  0  0  0  0  0  0
  -18.3808   10.4934  -10.0673 C   0  0  0  0  0  0  0  0  0  0  0  0
  -20.0739    8.8834  -10.2282 O   0  0  0  0  0  0  0  0  0  0  0  0
  -18.0838    9.7568  -12.6621 H   0  0  0  0  0  0  0  0  0  0  0  0
  -16.7605   14.7299  -23.6232 N   0  0  0  0  0  0  0  0  0  0  0  0
  -16.6488   13.3356  -23.7813 C   0  0  0  0  0  0  0  0  0  0  0  0
  -16.5579   12.8193  -24.9275 O   0  0  0  0  0  0  0  0  0  0  0  0
  -16.8236   15.1229  -22.6610 H   0  0  0  0  0  0  0  0  0  0  0  0
  -16.7884   15.6758  -24.7028 C   0  0  0  0  0  0  0  0  0  0  0  0
  -15.5221   16.5008  -24.7351 C   0  0  0  0  0  0  0  0  0  0  0  0
  -15.6573   15.5330  -26.9925 C   0  0  0  0  0  0  0  0  0  0  0  0
  -14.7131   16.0536  -25.9548 C   0  0  0  0  0  0  0  0  0  0  0  0
  -13.7860   14.9228  -25.5165 C   0  0  0  0  0  0  0  0  0  0  0  0
 29 30  1  0  0  0
 30 31  1  0  0  0
 30 28  1  0  0  0
 28 27  1  0  0  0
 27 23  1  0  0  0
 23 24  1  0  0  0
 24 25  2  0  0  0
 24  1  1  0  0  0
  1  2  2  0  0  0
  2  3  1  0  0  0
  3  4  2  0  0  0
  4  5  1  0  0  0
  5  6  2  0  0  0
  6  7  1  0  0  0
  7  8  1  0  0  0
  8  9  2  0  0  0
  6 10  1  0  0  0
 10 11  2  0  0  0
 11 12  1  0  0  0
 12 13  2  0  0  0
 13 16  1  0  0  0
 16 17  1  0  0  0
 17 18  1  0  0  0
 18 19  1  0  0  0
 19 20  1  0  0  0
 19 21  2  0  0  0
 13 14  1  0  0  0
 14 15  2  0  0  0
  9  1  1  0  0  0
 15 10  1  0  0  0
  8  4  1  0  0  0
 23 26  1  0  0  0
 18 22  1  0  0  0
M  END
> <minimizedAffinity>
-8.20370

> <CNNscore>
0.8597099781

> <CNNaffinity>
6.6567358971

> <CNN_VS>
5.7228622437

> <CNNaffinity_variance>
0.1395245492

$$$$
[H]c1c([H])c(C([H])([H])C([H])([H])N([H])C(=O)C([H])([H])[H])c([H])c([H])c1-c1nc2c([H])c([H])c(C(=O)N([H])C([H])([H])C([H])([H])C([H])(C([H])([H])[H])C([H])([H])[H])c([H])c2o1


 31 33  0  0  0  0  0  0  0  0999 V2000
  -16.5840   12.3809  -22.4956 C   0  0  0  0  0  0  0  0  0  0  0  0
  -15.6403   11.3921  -22.3542 C   0  0  0  0  0  0  0  0  0  0  0  0
  -15.6965   10.5304  -21.2678 C   0  0  0  0  0  0  0  0  0  0  0  0
  -16.7042   10.6780  -20.3382 C   0  0  0  0  0  0  0  0  0  0  0  0
  -17.0394   10.0288  -19.1980 N   0  0  0  0  0  0  0  0  0  0  0  0
  -18.1362   10.5873  -18.6593 C   0  0  0  0  0  0  0  0  0  0  0  0
  -18.4797   11.5672  -19.4481 O   0  0  0  0  0  0  0  0  0  0  0  0
  -17.6649   11.6718  -20.4663 C   0  0  0  0  0  0  0  0  0  0  0  0
  -17.6050   12.5198  -21.5407 C   0  0  0  0  0  0  0  0  0  0  0  0
  -18.8094   10.1700  -17.4244 C   0  0  0  0  0  0  0  0  0  0  0  0
  -19.7325   10.9683  -16.7872 C   0  0  0  0  0  0  0  0  0  0  0  0
  -20.3625   10.5475  -15.6083 C   0  0  0  0  0  0  0  0  0  0  0  0
  -20.0607    9.3146  -15.0676 C   0  0  0  0  0  0  0  0  0  0  0  0
  -19.1465    8.5273  -15.7012 C   0  0  0  0  0  0  0  0  0  0  0  0
  -18.5261    8.9424  -16.8627 C   0  0  0  0  0  0  0  0  0  0  0  0
  -20.7590    8.9183  -13.8148 C   0  0  0  0  0  0  0  0  0  0  0  0
  -22.0055    8.1446  -14.0711 C   0  0  0  0  0  0  0  0  0  0  0  0
  -21.6624    6.7722  -14.3690 N   0  0  0  0  0  0  0  0  0  0  0  0
  -22.2830    6.0620  -15.4491 C   0  0  0  0  0  0  0  0  0  0  0  0
  -21.9178    4.6709  -15.7310 C   0  0  0  0  0  0  0  0  0  0  0  0
  -23.1475    6.6146  -16.1717 O   0  0  0  0  0  0  0  0  0  0  0  0
  -20.9478    6.2923  -13.7832 H   0  0  0  0  0  0  0  0  0  0  0  0
  -16.8222   14.6608  -23.4902 N   0  0  0  0  0  0  0  0  0  0  0  0
  -16.5452   13.2881  -23.6335 C   0  0  0  0  0  0  0  0  0  0  0  0
  -16.2526   12.8007  -24.7583 O   0  0  0  0  0  0  0  0  0  0  0  0
  -17.0505   15.0312  -22.5442 H   0  0  0  0  0  0  0  0  0  0  0  0
  -16.8089   15.6142  -24.5635 C   0  0  0  0  0  0  0  0  0  0  0  0
  -15.5272   16.4156  -24.5623 C   0  0  0  0  0  0  0  0  0  0  0  0
  -15.7435   15.5685  -26.8614 C   0  0  0  0  0  0  0  0  0  0  0  0
  -14.7666   16.0682  -25.8441 C   0  0  0  0  0  0  0  0  0  0  0  0
  -13.7772   14.9525  -25.5172 C   0  0  0  0  0  0  0  0  0  0  0  0
 29 30  1  0  0  0
 30 31  1  0  0  0
 30 28  1  0  0  0
 28 27  1  0  0  0
 27 23  1  0  0  0
 23 24  1  0  0  0
 24 25  2  0  0  0
 24  1  1  0  0  0
  1  2  2  0  0  0
  2  3  1  0  0  0
  3  4  2  0  0  0
  4  5  1  0  0  0
  5  6  2  0  0  0
  6  7  1  0  0  0
  7  8  1  0  0  0
  8  9  2  0  0  0
  6 10  1  0  0  0
 10 11  2  0  0  0
 11 12  1  0  0  0
 12 13  2  0  0  0
 13 16  1  0  0  0
 16 17  1  0  0  0
 17 18  1  0  0  0
 18 19  1  0  0  0
 19 20  1  0  0  0
 19 21  2  0  0  0
 13 14  1  0  0  0
 14 15  2  0  0  0
  9  1  1  0  0  0
 15 10  1  0  0  0
  8  4  1  0  0  0
 23 26  1  0  0  0
 18 22  1  0  0  0
M  END
> <minimizedAffinity>
-8.14901

> <CNNscore>
0.7718580961

> <CNNaffinity>
6.5458626747

> <CNN_VS>
5.0524768829

> <CNNaffinity_variance>
0.0576496348

$$$$
[H]c1c([H])c(C([H])([H])C([H])([H])N([H])C(=O)C([H])([H])[H])c([H])c([H])c1-c1nc2c([H])c([H])c(C(=O)N([H])C([H])([H])C([H])([H])C([H])(C([H])([H])[H])C([H])([H])[H])c([H])c2o1


 31 33  0  0  0  0  0  0  0  0999 V2000
  -16.8175   13.1820  -22.3678 C   0  0  0  0  0  0  0  0  0  0  0  0
  -16.0035   12.0865  -22.5276 C   0  0  0  0  0  0  0  0  0  0  0  0
  -16.0625   11.0404  -21.6175 C   0  0  0  0  0  0  0  0  0  0  0  0
  -16.9418   11.1138  -20.5579 C   0  0  0  0  0  0  0  0  0  0  0  0
  -17.2423   10.2952  -19.5218 N   0  0  0  0  0  0  0  0  0  0  0  0
  -18.1950   10.8553  -18.7578 C   0  0  0  0  0  0  0  0  0  0  0  0
  -18.4842   12.0025  -19.3062 O   0  0  0  0  0  0  0  0  0  0  0  0
  -17.7705   12.2135  -20.3822 C   0  0  0  0  0  0  0  0  0  0  0  0
  -17.7086   13.2434  -21.2836 C   0  0  0  0  0  0  0  0  0  0  0  0
  -18.7882   10.2816  -17.5450 C   0  0  0  0  0  0  0  0  0  0  0  0
  -18.4605    9.0228  -17.0936 C   0  0  0  0  0  0  0  0  0  0  0  0
  -19.0409    8.4964  -15.9318 C   0  0  0  0  0  0  0  0  0  0  0  0
  -19.9574    9.2426  -15.2199 C   0  0  0  0  0  0  0  0  0  0  0  0
  -20.2791   10.4880  -15.6698 C   0  0  0  0  0  0  0  0  0  0  0  0
  -19.7070   11.0062  -16.8146 C   0  0  0  0  0  0  0  0  0  0  0  0
  -20.5424    8.6349  -13.9941 C   0  0  0  0  0  0  0  0  0  0  0  0
  -19.6980    8.8498  -12.7863 C   0  0  0  0  0  0  0  0  0  0  0  0
  -18.8250    7.7117  -12.6060 N   0  0  0  0  0  0  0  0  0  0  0  0
  -19.1776    6.6268  -11.7373 C   0  0  0  0  0  0  0  0  0  0  0  0
  -18.2753    5.4839  -11.5714 C   0  0  0  0  0  0  0  0  0  0  0  0
  -20.2613    6.6338  -11.1042 O   0  0  0  0  0  0  0  0  0  0  0  0
  -17.9203    7.6833  -13.1206 H   0  0  0  0  0  0  0  0  0  0  0  0
  -15.5541   14.8013  -23.7910 N   0  0  0  0  0  0  0  0  0  0  0  0
  -16.7749   14.2844  -23.3177 C   0  0  0  0  0  0  0  0  0  0  0  0
  -17.8744   14.7631  -23.7055 O   0  0  0  0  0  0  0  0  0  0  0  0
  -14.6647   14.3750  -23.4570 H   0  0  0  0  0  0  0  0  0  0  0  0
  -15.4319   15.8876  -24.7218 C   0  0  0  0  0  0  0  0  0  0  0  0
  -14.9648   15.3954  -26.0726 C   0  0  0  0  0  0  0  0  0  0  0  0
  -16.7396   13.9536  -26.9791 C   0  0  0  0  0  0  0  0  0  0  0  0
  -16.1877   15.3445  -26.9914 C   0  0  0  0  0  0  0  0  0  0  0  0
  -15.7277   15.6826  -28.4072 C   0  0  0  0  0  0  0  0  0  0  0  0
 29 30  1  0  0  0
 30 31  1  0  0  0
 30 28  1  0  0  0
 28 27  1  0  0  0
 27 23  1  0  0  0
 23 24  1  0  0  0
 24 25  2  0  0  0
 24  1  1  0  0  0
  1  2  2  0  0  0
  2  3  1  0  0  0
  3  4  2  0  0  0
  4  5  1  0  0  0
  5  6  2  0  0  0
  6  7  1  0  0  0
  7  8  1  0  0  0
  8  9  2  0  0  0
  6 10  1  0  0  0
 10 11  2  0  0  0
 11 12  1  0  0  0
 12 13  2  0  0  0
 13 16  1  0  0  0
 16 17  1  0  0  0
 17 18  1  0  0  0
 18 19  1  0  0  0
 19 20  1  0  0  0
 19 21  2  0  0  0
 13 14  1  0  0  0
 14 15  2  0  0  0
  9  1  1  0  0  0
 15 10  1  0  0  0
  8  4  1  0  0  0
 23 26  1  0  0  0
 18 22  1  0  0  0
M  END
> <minimizedAffinity>
-7.87626

> <CNNscore>
0.7144528627

> <CNNaffinity>
6.4170980453

> <CNN_VS>
4.5847139359

> <CNNaffinity_variance>
0.1195279211

$$$$
[H]c1c([H])c(C([H])([H])C([H])([H])N([H])C(=O)C([H])([H])[H])c([H])c([H])c1-c1nc2c([H])c([H])c(C(=O)N([H])C([H])([H])C([H])([H])C([H])(C([H])([H])[H])C([H])([H])[H])c([H])c2o1


 31 33  0  0  0  0  0  0  0  0999 V2000
  -16.2570   12.3160  -22.3366 C   0  0  0  0  0  0  0  0  0  0  0  0
  -15.4389   11.2156  -22.2471 C   0  0  0  0  0  0  0  0  0  0  0  0
  -15.6170   10.3011  -21.2186 C   0  0  0  0  0  0  0  0  0  0  0  0
  -16.6182   10.5093  -20.2936 C   0  0  0  0  0  0  0  0  0  0  0  0
  -17.0495    9.8351  -19.2011 N   0  0  0  0  0  0  0  0  0  0  0  0
  -18.0833   10.4852  -18.6412 C   0  0  0  0  0  0  0  0  0  0  0  0
  -18.2939   11.5458  -19.3700 O   0  0  0  0  0  0  0  0  0  0  0  0
  -17.4529   11.6159  -20.3696 C   0  0  0  0  0  0  0  0  0  0  0  0
  -17.2729   12.5156  -21.3871 C   0  0  0  0  0  0  0  0  0  0  0  0
  -18.8247   10.0751  -17.4435 C   0  0  0  0  0  0  0  0  0  0  0  0
  -18.5885    8.8757  -16.8102 C   0  0  0  0  0  0  0  0  0  0  0  0
  -19.3099    8.5061  -15.6671 C   0  0  0  0  0  0  0  0  0  0  0  0
  -20.2756    9.3500  -15.1585 C   0  0  0  0  0  0  0  0  0  0  0  0
  -20.5065   10.5363  -15.7881 C   0  0  0  0  0  0  0  0  0  0  0  0
  -19.7954   10.9000  -16.9143 C   0  0  0  0  0  0  0  0  0  0  0  0
  -21.0112    8.9077  -13.9431 C   0  0  0  0  0  0  0  0  0  0  0  0
  -22.0262    7.8577  -14.2352 C   0  0  0  0  0  0  0  0  0  0  0  0
  -23.3376    8.3490  -13.8767 N   0  0  0  0  0  0  0  0  0  0  0  0
  -24.1823    8.9996  -14.8355 C   0  0  0  0  0  0  0  0  0  0  0  0
  -25.5080    9.4890  -14.4472 C   0  0  0  0  0  0  0  0  0  0  0  0
  -23.8051    9.1626  -16.0214 O   0  0  0  0  0  0  0  0  0  0  0  0
  -23.6726    8.2254  -12.8986 H   0  0  0  0  0  0  0  0  0  0  0  0
  -15.9277   14.6546  -23.1530 N   0  0  0  0  0  0  0  0  0  0  0  0
  -16.0898   13.2808  -23.4138 C   0  0  0  0  0  0  0  0  0  0  0  0
  -16.0941   12.8424  -24.5955 O   0  0  0  0  0  0  0  0  0  0  0  0
  -15.9190   14.9806  -22.1641 H   0  0  0  0  0  0  0  0  0  0  0  0
  -15.7631   15.6644  -24.1601 C   0  0  0  0  0  0  0  0  0  0  0  0
  -16.1821   17.0214  -23.6423 C   0  0  0  0  0  0  0  0  0  0  0  0
  -18.3797   17.3221  -22.5791 C   0  0  0  0  0  0  0  0  0  0  0  0
  -16.9954   16.7953  -22.3657 C   0  0  0  0  0  0  0  0  0  0  0  0
  -16.3331   17.5843  -21.2391 C   0  0  0  0  0  0  0  0  0  0  0  0
 29 30  1  0  0  0
 30 31  1  0  0  0
 30 28  1  0  0  0
 28 27  1  0  0  0
 27 23  1  0  0  0
 23 24  1  0  0  0
 24 25  2  0  0  0
 24  1  1  0  0  0
  1  2  2  0  0  0
  2  3  1  0  0  0
  3  4  2  0  0  0
  4  5  1  0  0  0
  5  6  2  0  0  0
  6  7  1  0  0  0
  7  8  1  0  0  0
  8  9  2  0  0  0
  6 10  1  0  0  0
 10 11  2  0  0  0
 11 12  1  0  0  0
 12 13  2  0  0  0
 13 16  1  0  0  0
 16 17  1  0  0  0
 17 18  1  0  0  0
 18 19  1  0  0  0
 19 20  1  0  0  0
 19 21  2  0  0  0
 13 14  1  0  0  0
 14 15  2  0  0  0
  9  1  1  0  0  0
 15 10  1  0  0  0
  8  4  1  0  0  0
 23 26  1  0  0  0
 18 22  1  0  0  0
M  END
> <minimizedAffinity>
-7.38256

> <CNNscore>
0.5670149326

> <CNNaffinity>
6.3729677200

> <CNN_VS>
3.6135678291

> <CNNaffinity_variance>
0.0732659250

$$$$
[H]c1c([H])c(C([H])([H])C([H])([H])N([H])C(=O)C([H])([H])[H])c([H])c([H])c1-c1nc2c([H])c([H])c(C(=O)N([H])C([H])([H])C([H])([H])C([H])(C([H])([H])[H])C([H])([H])[H])c([H])c2o1


 31 33  0  0  0  0  0  0  0  0999 V2000
  -20.4164    9.9170  -15.1479 C   0  0  0  0  0  0  0  0  0  0  0  0
  -19.5951    8.8182  -15.2284 C   0  0  0  0  0  0  0  0  0  0  0  0
  -18.6992    8.6981  -16.2814 C   0  0  0  0  0  0  0  0  0  0  0  0
  -18.6441    9.6882  -17.2396 C   0  0  0  0  0  0  0  0  0  0  0  0
  -17.9090    9.8768  -18.3612 N   0  0  0  0  0  0  0  0  0  0  0  0
  -18.2574   11.0346  -18.9469 C   0  0  0  0  0  0  0  0  0  0  0  0
  -19.1927   11.5595  -18.2052 O   0  0  0  0  0  0  0  0  0  0  0  0
  -19.4671   10.8040  -17.1730 C   0  0  0  0  0  0  0  0  0  0  0  0
  -20.3497   10.9179  -16.1313 C   0  0  0  0  0  0  0  0  0  0  0  0
  -17.6912   11.5920  -20.1801 C   0  0  0  0  0  0  0  0  0  0  0  0
  -16.6423   10.9932  -20.8411 C   0  0  0  0  0  0  0  0  0  0  0  0
  -16.1185   11.5449  -22.0180 C   0  0  0  0  0  0  0  0  0  0  0  0
  -16.6546   12.7074  -22.5325 C   0  0  0  0  0  0  0  0  0  0  0  0
  -17.6926   13.2971  -21.8755 C   0  0  0  0  0  0  0  0  0  0  0  0
  -18.2083   12.7531  -20.7160 C   0  0  0  0  0  0  0  0  0  0  0  0
  -16.0600   13.2493  -23.7843 C   0  0  0  0  0  0  0  0  0  0  0  0
  -16.9104   14.2937  -24.4199 C   0  0  0  0  0  0  0  0  0  0  0  0
  -16.6825   14.2907  -25.8475 N   0  0  0  0  0  0  0  0  0  0  0  0
  -16.1180   15.4251  -26.5188 C   0  0  0  0  0  0  0  0  0  0  0  0
  -15.8966   15.3974  -27.9673 C   0  0  0  0  0  0  0  0  0  0  0  0
  -15.8034   16.4601  -25.8824 O   0  0  0  0  0  0  0  0  0  0  0  0
  -16.9355   13.4433  -26.3969 H   0  0  0  0  0  0  0  0  0  0  0  0
  -22.7454   10.1180  -14.2652 N   0  0  0  0  0  0  0  0  0  0  0  0
  -21.3560   10.0633  -14.0456 C   0  0  0  0  0  0  0  0  0  0  0  0
  -20.8813   10.1391  -12.8806 O   0  0  0  0  0  0  0  0  0  0  0  0
  -23.1034   10.0423  -15.2400 H   0  0  0  0  0  0  0  0  0  0  0  0
  -23.7314   10.2661  -13.2322 C   0  0  0  0  0  0  0  0  0  0  0  0
  -24.9943   10.8966  -13.7731 C   0  0  0  0  0  0  0  0  0  0  0  0
  -26.0118    8.8431  -12.8798 C   0  0  0  0  0  0  0  0  0  0  0  0
  -26.1702   10.3280  -12.9754 C   0  0  0  0  0  0  0  0  0  0  0  0
  -27.4537   10.6412  -13.7402 C   0  0  0  0  0  0  0  0  0  0  0  0
 29 30  1  0  0  0
 30 31  1  0  0  0
 30 28  1  0  0  0
 28 27  1  0  0  0
 27 23  1  0  0  0
 23 24  1  0  0  0
 24 25  2  0  0  0
 24  1  1  0  0  0
  1  2  2  0  0  0
  2  3  1  0  0  0
  3  4  2  0  0  0
  4  5  1  0  0  0
  5  6  2  0  0  0
  6  7  1  0  0  0
  7  8  1  0  0  0
  8  9  2  0  0  0
  6 10  1  0  0  0
 10 11  2  0  0  0
 11 12  1  0  0  0
 12 13  2  0  0  0
 13 16  1  0  0  0
 16 17  1  0  0  0
 17 18  1  0  0  0
 18 19  1  0  0  0
 19 20  1  0  0  0
 19 21  2  0  0  0
 13 14  1  0  0  0
 14 15  2  0  0  0
  9  1  1  0  0  0
 15 10  1  0  0  0
  8  4  1  0  0  0
 23 26  1  0  0  0
 18 22  1  0  0  0
M  END
> <minimizedAffinity>
-7.06137

> <CNNscore>
0.5170428753

> <CNNaffinity>
6.1027913094

> <CNN_VS>
3.1554048061

> <CNNaffinity_variance>
0.1439431459

$$$$
[H]c1c([H])c(C([H])([H])C([H])([H])N([H])C(=O)C([H])([H])[H])c([H])c([H])c1-c1nc2c([H])c([H])c(C(=O)N([H])C([H])([H])C([H])([H])C([H])(C([H])([H])[H])C([H])([H])[H])c([H])c2o1


 31 33  0  0  0  0  0  0  0  0999 V2000
  -17.1920   12.7196  -21.7538 C   0  0  0  0  0  0  0  0  0  0  0  0
  -18.1324   13.6877  -21.4956 C   0  0  0  0  0  0  0  0  0  0  0  0
  -18.9497   13.5800  -20.3791 C   0  0  0  0  0  0  0  0  0  0  0  0
  -18.8074   12.4966  -19.5381 C   0  0  0  0  0  0  0  0  0  0  0  0
  -19.4228   12.0980  -18.3995 N   0  0  0  0  0  0  0  0  0  0  0  0
  -18.8906   10.9404  -17.9732 C   0  0  0  0  0  0  0  0  0  0  0  0
  -17.9602   10.6216  -18.8295 O   0  0  0  0  0  0  0  0  0  0  0  0
  -17.8627   11.5100  -19.7850 C   0  0  0  0  0  0  0  0  0  0  0  0
  -17.0582   11.6211  -20.8884 C   0  0  0  0  0  0  0  0  0  0  0  0
  -19.2852   10.1883  -16.7771 C   0  0  0  0  0  0  0  0  0  0  0  0
  -18.7721    8.9430  -16.4918 C   0  0  0  0  0  0  0  0  0  0  0  0
  -19.1646    8.2440  -15.3424 C   0  0  0  0  0  0  0  0  0  0  0  0
  -20.0800    8.8030  -14.4745 C   0  0  0  0  0  0  0  0  0  0  0  0
  -20.5855   10.0358  -14.7603 C   0  0  0  0  0  0  0  0  0  0  0  0
  -20.1985   10.7240  -15.8929 C   0  0  0  0  0  0  0  0  0  0  0  0
  -20.4612    8.0173  -13.2698 C   0  0  0  0  0  0  0  0  0  0  0  0
  -19.3259    7.8257  -12.3250 C   0  0  0  0  0  0  0  0  0  0  0  0
  -19.1810    9.0089  -11.5072 N   0  0  0  0  0  0  0  0  0  0  0  0
  -18.1279    9.1281  -10.5413 C   0  0  0  0  0  0  0  0  0  0  0  0
  -18.0023   10.3383   -9.7242 C   0  0  0  0  0  0  0  0  0  0  0  0
  -17.2962    8.2028  -10.3768 O   0  0  0  0  0  0  0  0  0  0  0  0
  -19.8592    9.7901  -11.6256 H   0  0  0  0  0  0  0  0  0  0  0  0
  -16.4204   13.8961  -23.8187 N   0  0  0  0  0  0  0  0  0  0  0  0
  -16.3207   12.8210  -22.9156 C   0  0  0  0  0  0  0  0  0  0  0  0
  -15.4680   11.9087  -23.0866 O   0  0  0  0  0  0  0  0  0  0  0  0
  -17.1296   14.6375  -23.6411 H   0  0  0  0  0  0  0  0  0  0  0  0
  -15.6020   14.0617  -24.9867 C   0  0  0  0  0  0  0  0  0  0  0  0
  -16.4481   14.3430  -26.2073 C   0  0  0  0  0  0  0  0  0  0  0  0
  -15.9804   15.5269  -28.3122 C   0  0  0  0  0  0  0  0  0  0  0  0
  -15.9480   15.6526  -26.8214 C   0  0  0  0  0  0  0  0  0  0  0  0
  -14.5038   15.8620  -26.3730 C   0  0  0  0  0  0  0  0  0  0  0  0
 29 30  1  0  0  0
 30 31  1  0  0  0
 30 28  1  0  0  0
 28 27  1  0  0  0
 27 23  1  0  0  0
 23 24  1  0  0  0
 24 25  2  0  0  0
 24  1  1  0  0  0
  1  2  2  0  0  0
  2  3  1  0  0  0
  3  4  2  0  0  0
  4  5  1  0  0  0
  5  6  2  0  0  0
  6  7  1  0  0  0
  7  8  1  0  0  0
  8  9  2  0  0  0
  6 10  1  0  0  0
 10 11  2  0  0  0
 11 12  1  0  0  0
 12 13  2  0  0  0
 13 16  1  0  0  0
 16 17  1  0  0  0
 17 18  1  0  0  0
 18 19  1  0  0  0
 19 20  1  0  0  0
 19 21  2  0  0  0
 13 14  1  0  0  0
 14 15  2  0  0  0
  9  1  1  0  0  0
 15 10  1  0  0  0
  8  4  1  0  0  0
 23 26  1  0  0  0
 18 22  1  0  0  0
M  END
> <minimizedAffinity>
-8.49719

> <CNNscore>
0.4802638292

> <CNNaffinity>
6.0336141586

> <CNN_VS>
2.8977265358

> <CNNaffinity_variance>
0.1788163483

$$$$
[H]c1c([H])c(C([H])([H])C([H])([H])N([H])C(=O)C([H])([H])[H])c([H])c([H])c1-c1nc2c([H])c([H])c(C(=O)N([H])C([H])([H])C([H])([H])C([H])(C([H])([H])[H])C([H])([H])[H])c([H])c2o1


 31 33  0  0  0  0  0  0  0  0999 V2000
  -20.0003   10.5188  -16.7502 C   0  0  0  0  0  0  0  0  0  0  0  0
  -18.9994    9.6116  -17.0024 C   0  0  0  0  0  0  0  0  0  0  0  0
  -18.0401    9.8879  -17.9663 C   0  0  0  0  0  0  0  0  0  0  0  0
  -18.1034   11.0759  -18.6634 C   0  0  0  0  0  0  0  0  0  0  0  0
  -17.3515   11.6399  -19.6383 N   0  0  0  0  0  0  0  0  0  0  0  0
  -17.8609   12.8369  -19.9740 C   0  0  0  0  0  0  0  0  0  0  0  0
  -18.9115   13.0174  -19.2229 O   0  0  0  0  0  0  0  0  0  0  0  0
  -19.1081   12.0027  -18.4209 C   0  0  0  0  0  0  0  0  0  0  0  0
  -20.0527   11.7251  -17.4681 C   0  0  0  0  0  0  0  0  0  0  0  0
  -17.3322   13.7552  -20.9886 C   0  0  0  0  0  0  0  0  0  0  0  0
  -17.2086   15.1073  -20.7602 C   0  0  0  0  0  0  0  0  0  0  0  0
  -16.7005   15.9645  -21.7455 C   0  0  0  0  0  0  0  0  0  0  0  0
  -16.3144   15.4566  -22.9688 C   0  0  0  0  0  0  0  0  0  0  0  0
  -16.4382   14.1178  -23.1910 C   0  0  0  0  0  0  0  0  0  0  0  0
  -16.9389   13.2737  -22.2199 C   0  0  0  0  0  0  0  0  0  0  0  0
  -15.7820   16.4116  -23.9782 C   0  0  0  0  0  0  0  0  0  0  0  0
  -14.7374   15.8049  -24.8493 C   0  0  0  0  0  0  0  0  0  0  0  0
  -15.0179   16.1322  -26.2291 N   0  0  0  0  0  0  0  0  0  0  0  0
  -15.8736   15.3111  -27.0352 C   0  0  0  0  0  0  0  0  0  0  0  0
  -16.1425   15.6644  -28.4319 C   0  0  0  0  0  0  0  0  0  0  0  0
  -16.4071   14.2778  -26.5631 O   0  0  0  0  0  0  0  0  0  0  0  0
  -14.5866   16.9846  -26.6431 H   0  0  0  0  0  0  0  0  0  0  0  0
  -22.2530   10.9094  -15.7420 N   0  0  0  0  0  0  0  0  0  0  0  0
  -21.0098   10.2491  -15.7366 C   0  0  0  0  0  0  0  0  0  0  0  0
  -20.7324    9.3985  -14.8489 O   0  0  0  0  0  0  0  0  0  0  0  0
  -22.4524   11.5990  -16.4963 H   0  0  0  0  0  0  0  0  0  0  0  0
  -23.2940   10.7009  -14.7755 C   0  0  0  0  0  0  0  0  0  0  0  0
  -24.2598    9.6344  -15.2390 C   0  0  0  0  0  0  0  0  0  0  0  0
  -26.4572   10.7395  -15.2130 C   0  0  0  0  0  0  0  0  0  0  0  0
  -25.5589    9.8168  -14.4508 C   0  0  0  0  0  0  0  0  0  0  0  0
  -25.2106   10.4593  -13.1105 C   0  0  0  0  0  0  0  0  0  0  0  0
 29 30  1  0  0  0
 30 31  1  0  0  0
 30 28  1  0  0  0
 28 27  1  0  0  0
 27 23  1  0  0  0
 23 24  1  0  0  0
 24 25  2  0  0  0
 24  1  1  0  0  0
  1  2  2  0  0  0
  2  3  1  0  0  0
  3  4  2  0  0  0
  4  5  1  0  0  0
  5  6  2  0  0  0
  6  7  1  0  0  0
  7  8  1  0  0  0
  8  9  2  0  0  0
  6 10  1  0  0  0
 10 11  2  0  0  0
 11 12  1  0  0  0
 12 13  2  0  0  0
 13 16  1  0  0  0
 16 17  1  0  0  0
 17 18  1  0  0  0
 18 19  1  0  0  0
 19 20  1  0  0  0
 19 21  2  0  0  0
 13 14  1  0  0  0
 14 15  2  0  0  0
  9  1  1  0  0  0
 15 10  1  0  0  0
  8  4  1  0  0  0
 23 26  1  0  0  0
 18 22  1  0  0  0
M  END
> <minimizedAffinity>
-7.93512

> <CNNscore>
0.4753883183

> <CNNaffinity>
6.1228494644

> <CNN_VS>
2.9107310772

> <CNNaffinity_variance>
0.0895452946

$$$$
[H]c1c([H])c(C([H])([H])C([H])([H])N([H])C(=O)C([H])([H])[H])c([H])c([H])c1-c1nc2c([H])c([H])c(C(=O)N([H])C([H])([H])C([H])([H])C([H])(C([H])([H])[H])C([H])([H])[H])c([H])c2o1


 31 33  0  0  0  0  0  0  0  0999 V2000
  -20.2039    9.7393  -15.8332 C   0  0  0  0  0  0  0  0  0  0  0  0
  -19.2712    8.7811  -16.1500 C   0  0  0  0  0  0  0  0  0  0  0  0
  -18.3818    8.9976  -17.1931 C   0  0  0  0  0  0  0  0  0  0  0  0
  -18.4456   10.1779  -17.9031 C   0  0  0  0  0  0  0  0  0  0  0  0
  -17.7501   10.6916  -18.9454 N   0  0  0  0  0  0  0  0  0  0  0  0
  -18.2279   11.9074  -19.2592 C   0  0  0  0  0  0  0  0  0  0  0  0
  -19.2038   12.1488  -18.4287 O   0  0  0  0  0  0  0  0  0  0  0  0
  -19.3821   11.1555  -17.5961 C   0  0  0  0  0  0  0  0  0  0  0  0
  -20.2576   10.9370  -16.5652 C   0  0  0  0  0  0  0  0  0  0  0  0
  -17.7411   12.7852  -20.3290 C   0  0  0  0  0  0  0  0  0  0  0  0
  -17.6947   14.1542  -20.1897 C   0  0  0  0  0  0  0  0  0  0  0  0
  -17.2253   14.9720  -21.2263 C   0  0  0  0  0  0  0  0  0  0  0  0
  -16.7998   14.4073  -22.4111 C   0  0  0  0  0  0  0  0  0  0  0  0
  -16.8472   13.0521  -22.5452 C   0  0  0  0  0  0  0  0  0  0  0  0
  -17.3098   12.2468  -21.5235 C   0  0  0  0  0  0  0  0  0  0  0  0
  -16.3113   15.3223  -23.4780 C   0  0  0  0  0  0  0  0  0  0  0  0
  -15.2226   14.7212  -24.2974 C   0  0  0  0  0  0  0  0  0  0  0  0
  -15.2164   15.3348  -25.6063 N   0  0  0  0  0  0  0  0  0  0  0  0
  -16.0700   14.8650  -26.6584 C   0  0  0  0  0  0  0  0  0  0  0  0
  -16.0451   15.5040  -27.9771 C   0  0  0  0  0  0  0  0  0  0  0  0
  -16.8521   13.9013  -26.4722 O   0  0  0  0  0  0  0  0  0  0  0  0
  -14.5758   16.1359  -25.7849 H   0  0  0  0  0  0  0  0  0  0  0  0
  -21.0482   10.2725  -13.5426 N   0  0  0  0  0  0  0  0  0  0  0  0
  -21.1389    9.5324  -14.7366 C   0  0  0  0  0  0  0  0  0  0  0  0
  -22.0385    8.6637  -14.8931 O   0  0  0  0  0  0  0  0  0  0  0  0
  -20.2985   10.9893  -13.4515 H   0  0  0  0  0  0  0  0  0  0  0  0
  -21.9279   10.1216  -12.4181 C   0  0  0  0  0  0  0  0  0  0  0  0
  -22.7293   11.3815  -12.1824 C   0  0  0  0  0  0  0  0  0  0  0  0
  -22.7806   13.5417  -13.3576 C   0  0  0  0  0  0  0  0  0  0  0  0
  -22.9236   12.0632  -13.5388 C   0  0  0  0  0  0  0  0  0  0  0  0
  -24.3394   11.7577  -14.0211 C   0  0  0  0  0  0  0  0  0  0  0  0
 29 30  1  0  0  0
 30 31  1  0  0  0
 30 28  1  0  0  0
 28 27  1  0  0  0
 27 23  1  0  0  0
 23 24  1  0  0  0
 24 25  2  0  0  0
 24  1  1  0  0  0
  1  2  2  0  0  0
  2  3  1  0  0  0
  3  4  2  0  0  0
  4  5  1  0  0  0
  5  6  2  0  0  0
  6  7  1  0  0  0
  7  8  1  0  0  0
  8  9  2  0  0  0
  6 10  1  0  0  0
 10 11  2  0  0  0
 11 12  1  0  0  0
 12 13  2  0  0  0
 13 16  1  0  0  0
 16 17  1  0  0  0
 17 18  1  0  0  0
 18 19  1  0  0  0
 19 20  1  0  0  0
 19 21  2  0  0  0
 13 14  1  0  0  0
 14 15  2  0  0  0
  9  1  1  0  0  0
 15 10  1  0  0  0
  8  4  1  0  0  0
 23 26  1  0  0  0
 18 22  1  0  0  0
M  END
> <minimizedAffinity>
-7.54581

> <CNNscore>
0.4598883092

> <CNNaffinity>
6.1548018456

> <CNN_VS>
2.8305213451

> <CNNaffinity_variance>
0.1082092971

$$$$
[H]c1c([H])c(C([H])([H])C([H])([H])N([H])C(=O)C([H])([H])[H])c([H])c([H])c1-c1nc2c([H])c([H])c(C(=O)N([H])C([H])([H])C([H])([H])C([H])(C([H])([H])[H])C([H])([H])[H])c([H])c2o1


 31 33  0  0  0  0  0  0  0  0999 V2000
  -17.4709   12.9821  -21.4527 C   0  0  0  0  0  0  0  0  0  0  0  0
  -16.5773   11.9475  -21.5926 C   0  0  0  0  0  0  0  0  0  0  0  0
  -16.5937   10.8910  -20.6929 C   0  0  0  0  0  0  0  0  0  0  0  0
  -17.5114   10.8925  -19.6637 C   0  0  0  0  0  0  0  0  0  0  0  0
  -17.7888   10.0448  -18.6447 N   0  0  0  0  0  0  0  0  0  0  0  0
  -18.8035   10.5296  -17.9098 C   0  0  0  0  0  0  0  0  0  0  0  0
  -19.1536   11.6593  -18.4592 O   0  0  0  0  0  0  0  0  0  0  0  0
  -18.4204   11.9301  -19.5084 C   0  0  0  0  0  0  0  0  0  0  0  0
  -18.4002   12.9706  -20.3994 C   0  0  0  0  0  0  0  0  0  0  0  0
  -19.3959    9.9040  -16.7224 C   0  0  0  0  0  0  0  0  0  0  0  0
  -20.5425   10.3882  -16.1338 C   0  0  0  0  0  0  0  0  0  0  0  0
  -21.0895    9.7730  -14.9997 C   0  0  0  0  0  0  0  0  0  0  0  0
  -20.4776    8.6629  -14.4548 C   0  0  0  0  0  0  0  0  0  0  0  0
  -19.3430    8.1867  -15.0403 C   0  0  0  0  0  0  0  0  0  0  0  0
  -18.8045    8.7932  -16.1576 C   0  0  0  0  0  0  0  0  0  0  0  0
  -21.1010    8.0497  -13.2509 C   0  0  0  0  0  0  0  0  0  0  0  0
  -21.4551    9.0554  -12.2110 C   0  0  0  0  0  0  0  0  0  0  0  0
  -20.4296    9.0695  -11.1923 N   0  0  0  0  0  0  0  0  0  0  0  0
  -19.3647   10.0295  -11.2140 C   0  0  0  0  0  0  0  0  0  0  0  0
  -18.3367   10.0231  -10.1693 C   0  0  0  0  0  0  0  0  0  0  0  0
  -19.2914   10.8907  -12.1240 O   0  0  0  0  0  0  0  0  0  0  0  0
  -20.4691    8.3647  -10.4270 H   0  0  0  0  0  0  0  0  0  0  0  0
  -16.3699   14.3553  -23.2264 N   0  0  0  0  0  0  0  0  0  0  0  0
  -17.4733   14.0941  -22.3923 C   0  0  0  0  0  0  0  0  0  0  0  0
  -18.5032   14.8193  -22.4351 O   0  0  0  0  0  0  0  0  0  0  0  0
  -15.5394   13.7295  -23.1717 H   0  0  0  0  0  0  0  0  0  0  0  0
  -16.2964   15.4332  -24.1719 C   0  0  0  0  0  0  0  0  0  0  0  0
  -16.6906   14.9699  -25.5557 C   0  0  0  0  0  0  0  0  0  0  0  0
  -16.1205   15.2359  -27.9336 C   0  0  0  0  0  0  0  0  0  0  0  0
  -15.8739   15.7828  -26.5628 C   0  0  0  0  0  0  0  0  0  0  0  0
  -14.3964   15.6112  -26.2191 C   0  0  0  0  0  0  0  0  0  0  0  0
 29 30  1  0  0  0
 30 31  1  0  0  0
 30 28  1  0  0  0
 28 27  1  0  0  0
 27 23  1  0  0  0
 23 24  1  0  0  0
 24 25  2  0  0  0
 24  1  1  0  0  0
  1  2  2  0  0  0
  2  3  1  0  0  0
  3  4  2  0  0  0
  4  5  1  0  0  0
  5  6  2  0  0  0
  6  7  1  0  0  0
  7  8  1  0  0  0
  8  9  2  0  0  0
  6 10  1  0  0  0
 10 11  2  0  0  0
 11 12  1  0  0  0
 12 13  2  0  0  0
 13 16  1  0  0  0
 16 17  1  0  0  0
 17 18  1  0  0  0
 18 19  1  0  0  0
 19 20  1  0  0  0
 19 21  2  0  0  0
 13 14  1  0  0  0
 14 15  2  0  0  0
  9  1  1  0  0  0
 15 10  1  0  0  0
  8  4  1  0  0  0
 23 26  1  0  0  0
 18 22  1  0  0  0
M  END
> <minimizedAffinity>
-7.77173

> <CNNscore>
0.4577210248

> <CNNaffinity>
6.1286172867

> <CNN_VS>
2.8051970005

> <CNNaffinity_variance>
0.1042030826

$$$$
[H]c1c([H])c([H])c(-c2c([H])c([H])c(C([H])([H])[C@@]([H])(C(=O)N([H])[C@]([H])(C(=O)N([H])[C@]([H])(C(=O)N([H])[C@]([H])(C(=O)N([H])[H])C([H])([H])c3c([H])c([H])c([H])c([H])c3[H])C([H])([H])c3c([H])c([H])c([H])c([H])c3[H])C([H])([H])c3c([H])c([H])c([H])c([H])c3[H])N([H])C(=O)C([H])([H])[H])c([H])c2[H])c([H])c1[H]


 60 64  0  0  0  0  0  0  0  0999 V2000
  -19.9480   16.3644  -17.2954 C   0  0  0  0  0  0  0  0  0  0  0  0
  -19.2925   15.0648  -17.2467 C   0  0  0  0  0  0  0  0  0  0  0  0
  -18.1362   14.8746  -16.7153 O   0  0  0  0  0  0  0  0  0  0  0  0
  -19.9172   13.9342  -17.7886 N   0  0  0  0  0  0  0  0  0  0  0  0
  -20.8572   14.0555  -18.2497 H   0  0  0  0  0  0  0  0  0  0  0  0
  -19.4006   12.5577  -17.7830 C   0  0  0  0  0  0  0  0  0  0  0  0
  -18.8150   12.2468  -19.0480 C   0  0  0  0  0  0  0  0  0  0  0  0
  -19.5767   12.4566  -20.1049 O   0  0  0  0  0  0  0  0  0  0  0  0
  -17.5643   11.7537  -19.4272 N   0  0  0  0  0  0  0  0  0  0  0  0
  -16.8308   11.5612  -18.7395 H   0  0  0  0  0  0  0  0  0  0  0  0
  -17.2218   11.5174  -20.8472 C   0  0  0  0  0  0  0  0  0  0  0  0
  -16.1244   10.4779  -20.8852 C   0  0  0  0  0  0  0  0  0  0  0  0
  -15.0744   10.5070  -21.8215 N   0  0  0  0  0  0  0  0  0  0  0  0
  -16.1656    9.5422  -20.0396 O   0  0  0  0  0  0  0  0  0  0  0  0
  -14.2378    9.8944  -21.6466 H   0  0  0  0  0  0  0  0  0  0  0  0
  -15.0653   11.0882  -22.6779 H   0  0  0  0  0  0  0  0  0  0  0  0
  -16.7667   12.8101  -21.4065 C   0  0  0  0  0  0  0  0  0  0  0  0
  -17.2764   13.2298  -22.7001 C   0  0  0  0  0  0  0  0  0  0  0  0
  -18.1838   14.2581  -22.7891 C   0  0  0  0  0  0  0  0  0  0  0  0
  -18.6629   14.7026  -24.0282 C   0  0  0  0  0  0  0  0  0  0  0  0
  -18.2200   14.1029  -25.1719 C   0  0  0  0  0  0  0  0  0  0  0  0
  -17.3109   13.0706  -25.1101 C   0  0  0  0  0  0  0  0  0  0  0  0
  -16.8431   12.6396  -23.8608 C   0  0  0  0  0  0  0  0  0  0  0  0
  -20.4215   11.7362  -17.1312 C   0  0  0  0  0  0  0  0  0  0  0  0
  -20.1193   10.4295  -16.5800 C   0  0  0  0  0  0  0  0  0  0  0  0
  -18.9910    9.7127  -16.9146 C   0  0  0  0  0  0  0  0  0  0  0  0
  -18.7138    8.4718  -16.3801 C   0  0  0  0  0  0  0  0  0  0  0  0
  -19.5914    7.9254  -15.4801 C   0  0  0  0  0  0  0  0  0  0  0  0
  -20.7263    8.6045  -15.1179 C   0  0  0  0  0  0  0  0  0  0  0  0
  -20.9819    9.8576  -15.6743 C   0  0  0  0  0  0  0  0  0  0  0  0
  -19.8742   18.2092  -18.9894 C   0  0  0  0  0  0  0  0  0  0  0  0
  -19.2930   19.0052  -18.1713 O   0  0  0  0  0  0  0  0  0  0  0  0
  -20.2125   16.9008  -18.6065 N   0  0  0  0  0  0  0  0  0  0  0  0
  -20.6806   16.2816  -19.3066 H   0  0  0  0  0  0  0  0  0  0  0  0
  -20.1568   18.7572  -20.3296 C   0  0  0  0  0  0  0  0  0  0  0  0
  -23.5560   20.3425  -21.1565 C   0  0  0  0  0  0  0  0  0  0  0  0
  -22.4077   19.3954  -21.1953 C   0  0  0  0  0  0  0  0  0  0  0  0
  -22.4121   18.4208  -21.9528 O   0  0  0  0  0  0  0  0  0  0  0  0
  -21.3041   19.6472  -20.3350 N   0  0  0  0  0  0  0  0  0  0  0  0
  -21.2746   20.4576  -19.6857 H   0  0  0  0  0  0  0  0  0  0  0  0
  -18.9487   19.5948  -20.7474 C   0  0  0  0  0  0  0  0  0  0  0  0
  -18.0675   18.7838  -21.6475 C   0  0  0  0  0  0  0  0  0  0  0  0
  -17.0752   18.0390  -21.0365 C   0  0  0  0  0  0  0  0  0  0  0  0
  -16.2556   17.2633  -21.8525 C   0  0  0  0  0  0  0  0  0  0  0  0
  -16.4291   17.2426  -23.2027 C   0  0  0  0  0  0  0  0  0  0  0  0
  -17.4254   17.9970  -23.7857 C   0  0  0  0  0  0  0  0  0  0  0  0
  -18.2520   18.7737  -23.0080 C   0  0  0  0  0  0  0  0  0  0  0  0
  -15.5973   16.4228  -24.0637 C   0  0  0  0  0  0  0  0  0  0  0  0
  -15.6246   16.5881  -25.4345 C   0  0  0  0  0  0  0  0  0  0  0  0
  -14.8045   15.7909  -26.1957 C   0  0  0  0  0  0  0  0  0  0  0  0
  -13.9587   14.8389  -25.6674 C   0  0  0  0  0  0  0  0  0  0  0  0
  -13.9327   14.6761  -24.3059 C   0  0  0  0  0  0  0  0  0  0  0  0
  -14.7437   15.4596  -23.5123 C   0  0  0  0  0  0  0  0  0  0  0  0
  -21.0944   16.6016  -16.3539 C   0  0  0  0  0  0  0  0  0  0  0  0
  -20.9800   17.7005  -15.4227 C   0  0  0  0  0  0  0  0  0  0  0  0
  -21.9799   18.5900  -15.1602 C   0  0  0  0  0  0  0  0  0  0  0  0
  -21.8645   19.6467  -14.2896 C   0  0  0  0  0  0  0  0  0  0  0  0
  -20.6646   19.8393  -13.6261 C   0  0  0  0  0  0  0  0  0  0  0  0
  -19.6157   18.9500  -13.8665 C   0  0  0  0  0  0  0  0  0  0  0  0
  -19.7641   17.8955  -14.7486 C   0  0  0  0  0  0  0  0  0  0  0  0
 36 37  1  0  0  0
 37 38  2  0  0  0
 37 39  1  0  0  0
 39 35  1  0  0  0
 35 41  1  0  0  0
 41 42  1  0  0  0
 42 43  2  0  0  0
 43 44  1  0  0  0
 44 45  2  0  0  0
 45 46  1  0  0  0
 46 47  2  0  0  0
 45 48  1  0  0  0
 48 49  2  0  0  0
 49 50  1  0  0  0
 50 51  2  0  0  0
 51 52  1  0  0  0
 52 53  2  0  0  0
 35 31  1  0  0  0
 31 32  2  0  0  0
 31 33  1  0  0  0
 33  1  1  0  0  0
  1 54  1  0  0  0
 54 55  1  0  0  0
 55 56  2  0  0  0
 56 57  1  0  0  0
 57 58  2  0  0  0
 58 59  1  0  0  0
 59 60  2  0  0  0
  1  2  1  0  0  0
  2  3  2  0  0  0
  2  4  1  0  0  0
  4  6  1  0  0  0
  6 24  1  0  0  0
 24 25  1  0  0  0
 25 26  2  0  0  0
 26 27  1  0  0  0
 27 28  2  0  0  0
 28 29  1  0  0  0
 29 30  2  0  0  0
  6  7  1  0  0  0
  7  8  2  0  0  0
  7  9  1  0  0  0
  9 11  1  0  0  0
 11 17  1  0  0  0
 17 18  1  0  0  0
 18 19  2  0  0  0
 19 20  1  0  0  0
 20 21  2  0  0  0
 21 22  1  0  0  0
 22 23  2  0  0  0
 11 12  1  0  0  0
 12 13  1  0  0  0
 12 14  2  0  0  0
 47 42  1  0  0  0
 53 48  1  0  0  0
 60 55  1  0  0  0
 30 25  1  0  0  0
 23 18  1  0  0  0
 39 40  1  0  0  0
 33 34  1  0  0  0
  4  5  1  0  0  0
  9 10  1  0  0  0
 13 15  1  0  0  0
 13 16  1  0  0  0
M  END
> <minimizedAffinity>
-9.56571

> <CNNscore>
0.3485559821

> <CNNaffinity>
7.9258222580

> <CNN_VS>
2.7625927925

> <CNNaffinity_variance>
0.2769903541

$$$$
[H]c1c([H])c([H])c(-c2c([H])c([H])c(C([H])([H])[C@@]([H])(C(=O)N([H])[C@]([H])(C(=O)N([H])[C@]([H])(C(=O)N([H])[C@]([H])(C(=O)N([H])[H])C([H])([H])c3c([H])c([H])c([H])c([H])c3[H])C([H])([H])c3c([H])c([H])c([H])c([H])c3[H])C([H])([H])c3c([H])c([H])c([H])c([H])c3[H])N([H])C(=O)C([H])([H])[H])c([H])c2[H])c([H])c1[H]


 60 64  0  0  0  0  0  0  0  0999 V2000
  -20.0897   17.4332  -17.4646 C   0  0  0  0  0  0  0  0  0  0  0  0
  -19.5108   16.7086  -18.5875 C   0  0  0  0  0  0  0  0  0  0  0  0
  -19.8945   16.8665  -19.8054 O   0  0  0  0  0  0  0  0  0  0  0  0
  -18.4771   15.7862  -18.3797 N   0  0  0  0  0  0  0  0  0  0  0  0
  -18.1500   15.6164  -17.3923 H   0  0  0  0  0  0  0  0  0  0  0  0
  -17.7722   15.0101  -19.4103 C   0  0  0  0  0  0  0  0  0  0  0  0
  -17.3216   15.8740  -20.4547 C   0  0  0  0  0  0  0  0  0  0  0  0
  -16.4303   16.7833  -20.1084 O   0  0  0  0  0  0  0  0  0  0  0  0
  -17.6263   15.9696  -21.8145 N   0  0  0  0  0  0  0  0  0  0  0  0
  -18.2779   15.3223  -22.2666 H   0  0  0  0  0  0  0  0  0  0  0  0
  -16.9952   16.9898  -22.6807 C   0  0  0  0  0  0  0  0  0  0  0  0
  -18.0719   17.5545  -23.5799 C   0  0  0  0  0  0  0  0  0  0  0  0
  -19.3801   17.0383  -23.6251 N   0  0  0  0  0  0  0  0  0  0  0  0
  -17.7711   18.5277  -24.3246 O   0  0  0  0  0  0  0  0  0  0  0  0
  -20.1240   17.6146  -24.0944 H   0  0  0  0  0  0  0  0  0  0  0  0
  -19.6665   16.1250  -23.2311 H   0  0  0  0  0  0  0  0  0  0  0  0
  -15.9385   16.3064  -23.4600 C   0  0  0  0  0  0  0  0  0  0  0  0
  -16.3248   15.2731  -24.4046 C   0  0  0  0  0  0  0  0  0  0  0  0
  -16.7963   14.0626  -23.9561 C   0  0  0  0  0  0  0  0  0  0  0  0
  -17.2070   13.0641  -24.8487 C   0  0  0  0  0  0  0  0  0  0  0  0
  -17.1385   13.2969  -26.1921 C   0  0  0  0  0  0  0  0  0  0  0  0
  -16.6700   14.5013  -26.6674 C   0  0  0  0  0  0  0  0  0  0  0  0
  -16.2634   15.4883  -25.7586 C   0  0  0  0  0  0  0  0  0  0  0  0
  -18.5687   13.8029  -19.6351 C   0  0  0  0  0  0  0  0  0  0  0  0
  -17.9590   12.4940  -19.7671 C   0  0  0  0  0  0  0  0  0  0  0  0
  -17.2868   12.0860  -20.8987 C   0  0  0  0  0  0  0  0  0  0  0  0
  -16.7084   10.8389  -21.0099 C   0  0  0  0  0  0  0  0  0  0  0  0
  -16.8025    9.9669  -19.9566 C   0  0  0  0  0  0  0  0  0  0  0  0
  -17.4615   10.3318  -18.8108 C   0  0  0  0  0  0  0  0  0  0  0  0
  -18.0374   11.5993  -18.7256 C   0  0  0  0  0  0  0  0  0  0  0  0
  -22.5648   17.2239  -17.7943 C   0  0  0  0  0  0  0  0  0  0  0  0
  -22.5177   15.9462  -17.7178 O   0  0  0  0  0  0  0  0  0  0  0  0
  -21.3991   17.9981  -17.6721 N   0  0  0  0  0  0  0  0  0  0  0  0
  -21.4824   19.0382  -17.7347 H   0  0  0  0  0  0  0  0  0  0  0  0
  -23.9016   17.8065  -18.0175 C   0  0  0  0  0  0  0  0  0  0  0  0
  -26.5112   17.4521  -15.2217 C   0  0  0  0  0  0  0  0  0  0  0  0
  -25.7964   17.2154  -16.5063 C   0  0  0  0  0  0  0  0  0  0  0  0
  -26.1970   16.3691  -17.3107 O   0  0  0  0  0  0  0  0  0  0  0  0
  -24.6390   17.9942  -16.7808 N   0  0  0  0  0  0  0  0  0  0  0  0
  -24.2780   18.7110  -16.1214 H   0  0  0  0  0  0  0  0  0  0  0  0
  -23.7022   19.1943  -18.6255 C   0  0  0  0  0  0  0  0  0  0  0  0
  -23.6292   19.0788  -20.1175 C   0  0  0  0  0  0  0  0  0  0  0  0
  -23.8627   17.8257  -20.6542 C   0  0  0  0  0  0  0  0  0  0  0  0
  -23.8177   17.6987  -22.0402 C   0  0  0  0  0  0  0  0  0  0  0  0
  -23.5528   18.7728  -22.8338 C   0  0  0  0  0  0  0  0  0  0  0  0
  -23.3215   20.0105  -22.2716 C   0  0  0  0  0  0  0  0  0  0  0  0
  -23.3588   20.1696  -20.9061 C   0  0  0  0  0  0  0  0  0  0  0  0
  -23.5240   18.6607  -24.2802 C   0  0  0  0  0  0  0  0  0  0  0  0
  -23.4645   19.7899  -25.0731 C   0  0  0  0  0  0  0  0  0  0  0  0
  -23.4265   19.6186  -26.4357 C   0  0  0  0  0  0  0  0  0  0  0  0
  -23.4440   18.3855  -27.0521 C   0  0  0  0  0  0  0  0  0  0  0  0
  -23.5030   17.2652  -26.2632 C   0  0  0  0  0  0  0  0  0  0  0  0
  -23.5429   17.4013  -24.8917 C   0  0  0  0  0  0  0  0  0  0  0  0
  -19.9557   16.8226  -16.0986 C   0  0  0  0  0  0  0  0  0  0  0  0
  -20.4249   17.5945  -14.9708 C   0  0  0  0  0  0  0  0  0  0  0  0
  -21.5810   17.3383  -14.2944 C   0  0  0  0  0  0  0  0  0  0  0  0
  -22.0371   18.0845  -13.2347 C   0  0  0  0  0  0  0  0  0  0  0  0
  -21.2906   19.1707  -12.8103 C   0  0  0  0  0  0  0  0  0  0  0  0
  -20.0998   19.4665  -13.4761 C   0  0  0  0  0  0  0  0  0  0  0  0
  -19.6677   18.6951  -14.5393 C   0  0  0  0  0  0  0  0  0  0  0  0
 36 37  1  0  0  0
 37 38  2  0  0  0
 37 39  1  0  0  0
 39 35  1  0  0  0
 35 41  1  0  0  0
 41 42  1  0  0  0
 42 43  2  0  0  0
 43 44  1  0  0  0
 44 45  2  0  0  0
 45 46  1  0  0  0
 46 47  2  0  0  0
 45 48  1  0  0  0
 48 49  2  0  0  0
 49 50  1  0  0  0
 50 51  2  0  0  0
 51 52  1  0  0  0
 52 53  2  0  0  0
 35 31  1  0  0  0
 31 32  2  0  0  0
 31 33  1  0  0  0
 33  1  1  0  0  0
  1 54  1  0  0  0
 54 55  1  0  0  0
 55 56  2  0  0  0
 56 57  1  0  0  0
 57 58  2  0  0  0
 58 59  1  0  0  0
 59 60  2  0  0  0
  1  2  1  0  0  0
  2  3  2  0  0  0
  2  4  1  0  0  0
  4  6  1  0  0  0
  6 24  1  0  0  0
 24 25  1  0  0  0
 25 26  2  0  0  0
 26 27  1  0  0  0
 27 28  2  0  0  0
 28 29  1  0  0  0
 29 30  2  0  0  0
  6  7  1  0  0  0
  7  8  2  0  0  0
  7  9  1  0  0  0
  9 11  1  0  0  0
 11 17  1  0  0  0
 17 18  1  0  0  0
 18 19  2  0  0  0
 19 20  1  0  0  0
 20 21  2  0  0  0
 21 22  1  0  0  0
 22 23  2  0  0  0
 11 12  1  0  0  0
 12 13  1  0  0  0
 12 14  2  0  0  0
 47 42  1  0  0  0
 53 48  1  0  0  0
 60 55  1  0  0  0
 30 25  1  0  0  0
 23 18  1  0  0  0
 39 40  1  0  0  0
 33 34  1  0  0  0
  4  5  1  0  0  0
  9 10  1  0  0  0
 13 15  1  0  0  0
 13 16  1  0  0  0
M  END
> <minimizedAffinity>
-9.30015

> <CNNscore>
0.3123812079

> <CNNaffinity>
7.5669469833

> <CNN_VS>
2.3637721539

> <CNNaffinity_variance>
0.4478572309

$$$$
[H]c1c([H])c([H])c(-c2c([H])c([H])c(C([H])([H])[C@@]([H])(C(=O)N([H])[C@]([H])(C(=O)N([H])[C@]([H])(C(=O)N([H])[C@]([H])(C(=O)N([H])[H])C([H])([H])c3c([H])c([H])c([H])c([H])c3[H])C([H])([H])c3c([H])c([H])c([H])c([H])c3[H])C([H])([H])c3c([H])c([H])c([H])c([H])c3[H])N([H])C(=O)C([H])([H])[H])c([H])c2[H])c([H])c1[H]


 60 64  0  0  0  0  0  0  0  0999 V2000
  -19.6876   16.3771  -16.8659 C   0  0  0  0  0  0  0  0  0  0  0  0
  -19.0829   15.0622  -17.0284 C   0  0  0  0  0  0  0  0  0  0  0  0
  -17.8933   14.7759  -16.6306 O   0  0  0  0  0  0  0  0  0  0  0  0
  -19.7975   14.0231  -17.6385 N   0  0  0  0  0  0  0  0  0  0  0  0
  -20.7684   14.2262  -17.9945 H   0  0  0  0  0  0  0  0  0  0  0  0
  -19.3379   12.6412  -17.8398 C   0  0  0  0  0  0  0  0  0  0  0  0
  -19.8310   11.8015  -16.7949 C   0  0  0  0  0  0  0  0  0  0  0  0
  -20.3972   12.4193  -15.7756 O   0  0  0  0  0  0  0  0  0  0  0  0
  -19.8491   10.4173  -16.6090 N   0  0  0  0  0  0  0  0  0  0  0  0
  -19.4793    9.7748  -17.3150 H   0  0  0  0  0  0  0  0  0  0  0  0
  -20.4368    9.8052  -15.3968 C   0  0  0  0  0  0  0  0  0  0  0  0
  -19.3857    8.9080  -14.7830 C   0  0  0  0  0  0  0  0  0  0  0  0
  -19.0150    7.6704  -15.3406 N   0  0  0  0  0  0  0  0  0  0  0  0
  -18.8273    9.2924  -13.7187 O   0  0  0  0  0  0  0  0  0  0  0  0
  -18.1324    7.2157  -14.9943 H   0  0  0  0  0  0  0  0  0  0  0  0
  -19.5521    7.1686  -16.0694 H   0  0  0  0  0  0  0  0  0  0  0  0
  -21.6244    9.0349  -15.8297 C   0  0  0  0  0  0  0  0  0  0  0  0
  -22.8132    9.0566  -14.9956 C   0  0  0  0  0  0  0  0  0  0  0  0
  -23.8963    9.8251  -15.3492 C   0  0  0  0  0  0  0  0  0  0  0  0
  -25.0660    9.8350  -14.5785 C   0  0  0  0  0  0  0  0  0  0  0  0
  -25.1331    9.0656  -13.4527 C   0  0  0  0  0  0  0  0  0  0  0  0
  -24.0618    8.2866  -13.0765 C   0  0  0  0  0  0  0  0  0  0  0  0
  -22.8997    8.2901  -13.8606 C   0  0  0  0  0  0  0  0  0  0  0  0
  -17.9279   12.7265  -18.2228 C   0  0  0  0  0  0  0  0  0  0  0  0
  -17.3836   11.9582  -19.3255 C   0  0  0  0  0  0  0  0  0  0  0  0
  -17.4856   12.3525  -20.6419 C   0  0  0  0  0  0  0  0  0  0  0  0
  -16.9602   11.6138  -21.6814 C   0  0  0  0  0  0  0  0  0  0  0  0
  -16.3097   10.4406  -21.3998 C   0  0  0  0  0  0  0  0  0  0  0  0
  -16.1842   10.0108  -20.1037 C   0  0  0  0  0  0  0  0  0  0  0  0
  -16.7254   10.7776  -19.0720 C   0  0  0  0  0  0  0  0  0  0  0  0
  -19.0808   17.4447  -19.0501 C   0  0  0  0  0  0  0  0  0  0  0  0
  -19.5723   16.4701  -19.7204 O   0  0  0  0  0  0  0  0  0  0  0  0
  -19.1173   17.4463  -17.6459 N   0  0  0  0  0  0  0  0  0  0  0  0
  -18.7104   18.2639  -17.1374 H   0  0  0  0  0  0  0  0  0  0  0  0
  -18.4862   18.5367  -19.8439 C   0  0  0  0  0  0  0  0  0  0  0  0
  -19.3731   21.9101  -18.2360 C   0  0  0  0  0  0  0  0  0  0  0  0
  -19.5217   20.6489  -19.0133 C   0  0  0  0  0  0  0  0  0  0  0  0
  -20.5873   20.3654  -19.5682 O   0  0  0  0  0  0  0  0  0  0  0  0
  -18.3993   19.7805  -19.0997 N   0  0  0  0  0  0  0  0  0  0  0  0
  -17.4917   19.9923  -18.6408 H   0  0  0  0  0  0  0  0  0  0  0  0
  -17.0540   18.1282  -20.1864 C   0  0  0  0  0  0  0  0  0  0  0  0
  -17.0661   17.2228  -21.3800 C   0  0  0  0  0  0  0  0  0  0  0  0
  -17.6951   17.7016  -22.5148 C   0  0  0  0  0  0  0  0  0  0  0  0
  -17.7029   16.8840  -23.6420 C   0  0  0  0  0  0  0  0  0  0  0  0
  -17.1111   15.6580  -23.6222 C   0  0  0  0  0  0  0  0  0  0  0  0
  -16.4928   15.2045  -22.4761 C   0  0  0  0  0  0  0  0  0  0  0  0
  -16.4674   15.9877  -21.3458 C   0  0  0  0  0  0  0  0  0  0  0  0
  -17.0920   14.8039  -24.7951 C   0  0  0  0  0  0  0  0  0  0  0  0
  -17.6183   13.5280  -24.7459 C   0  0  0  0  0  0  0  0  0  0  0  0
  -17.5827   12.7722  -25.8927 C   0  0  0  0  0  0  0  0  0  0  0  0
  -17.0528   13.2168  -27.0853 C   0  0  0  0  0  0  0  0  0  0  0  0
  -16.5308   14.4841  -27.1324 C   0  0  0  0  0  0  0  0  0  0  0  0
  -16.5499   15.2694  -25.9992 C   0  0  0  0  0  0  0  0  0  0  0  0
  -21.1873   16.4536  -16.8267 C   0  0  0  0  0  0  0  0  0  0  0  0
  -21.7902   17.2570  -15.7879 C   0  0  0  0  0  0  0  0  0  0  0  0
  -22.0335   18.5945  -15.8972 C   0  0  0  0  0  0  0  0  0  0  0  0
  -22.5884   19.3622  -14.9020 C   0  0  0  0  0  0  0  0  0  0  0  0
  -22.9295   18.7593  -13.7030 C   0  0  0  0  0  0  0  0  0  0  0  0
  -22.6971   17.3912  -13.5510 C   0  0  0  0  0  0  0  0  0  0  0  0
  -22.1374   16.6460  -14.5726 C   0  0  0  0  0  0  0  0  0  0  0  0
 36 37  1  0  0  0
 37 38  2  0  0  0
 37 39  1  0  0  0
 39 35  1  0  0  0
 35 41  1  0  0  0
 41 42  1  0  0  0
 42 43  2  0  0  0
 43 44  1  0  0  0
 44 45  2  0  0  0
 45 46  1  0  0  0
 46 47  2  0  0  0
 45 48  1  0  0  0
 48 49  2  0  0  0
 49 50  1  0  0  0
 50 51  2  0  0  0
 51 52  1  0  0  0
 52 53  2  0  0  0
 35 31  1  0  0  0
 31 32  2  0  0  0
 31 33  1  0  0  0
 33  1  1  0  0  0
  1 54  1  0  0  0
 54 55  1  0  0  0
 55 56  2  0  0  0
 56 57  1  0  0  0
 57 58  2  0  0  0
 58 59  1  0  0  0
 59 60  2  0  0  0
  1  2  1  0  0  0
  2  3  2  0  0  0
  2  4  1  0  0  0
  4  6  1  0  0  0
  6 24  1  0  0  0
 24 25  1  0  0  0
 25 26  2  0  0  0
 26 27  1  0  0  0
 27 28  2  0  0  0
 28 29  1  0  0  0
 29 30  2  0  0  0
  6  7  1  0  0  0
  7  8  2  0  0  0
  7  9  1  0  0  0
  9 11  1  0  0  0
 11 17  1  0  0  0
 17 18  1  0  0  0
 18 19  2  0  0  0
 19 20  1  0  0  0
 20 21  2  0  0  0
 21 22  1  0  0  0
 22 23  2  0  0  0
 11 12  1  0  0  0
 12 13  1  0  0  0
 12 14  2  0  0  0
 47 42  1  0  0  0
 53 48  1  0  0  0
 60 55  1  0  0  0
 30 25  1  0  0  0
 23 18  1  0  0  0
 39 40  1  0  0  0
 33 34  1  0  0  0
  4  5  1  0  0  0
  9 10  1  0  0  0
 13 15  1  0  0  0
 13 16  1  0  0  0
M  END
> <minimizedAffinity>
-9.06069

> <CNNscore>
0.2904148102

> <CNNaffinity>
7.6990752220

> <CNN_VS>
2.2359254360

> <CNNaffinity_variance>
0.3282013237

$$$$
[H]c1c([H])c([H])c(-c2c([H])c([H])c(C([H])([H])[C@@]([H])(C(=O)N([H])[C@]([H])(C(=O)N([H])[C@]([H])(C(=O)N([H])[C@]([H])(C(=O)N([H])[H])C([H])([H])c3c([H])c([H])c([H])c([H])c3[H])C([H])([H])c3c([H])c([H])c([H])c([H])c3[H])C([H])([H])c3c([H])c([H])c([H])c([H])c3[H])N([H])C(=O)C([H])([H])[H])c([H])c2[H])c([H])c1[H]


 60 64  0  0  0  0  0  0  0  0999 V2000
  -19.7599   12.9527  -17.7048 C   0  0  0  0  0  0  0  0  0  0  0  0
  -20.5255   12.4194  -16.5865 C   0  0  0  0  0  0  0  0  0  0  0  0
  -21.2811   13.1423  -15.8369 O   0  0  0  0  0  0  0  0  0  0  0  0
  -20.4718   11.0542  -16.2767 N   0  0  0  0  0  0  0  0  0  0  0  0
  -19.8478   10.4343  -16.8574 H   0  0  0  0  0  0  0  0  0  0  0  0
  -21.2110   10.3662  -15.2082 C   0  0  0  0  0  0  0  0  0  0  0  0
  -20.3529    9.4493  -14.5280 C   0  0  0  0  0  0  0  0  0  0  0  0
  -19.1407    9.3105  -15.0305 O   0  0  0  0  0  0  0  0  0  0  0  0
  -20.5199    8.6384  -13.4029 N   0  0  0  0  0  0  0  0  0  0  0  0
  -21.3902    8.6391  -12.8638 H   0  0  0  0  0  0  0  0  0  0  0  0
  -19.4341    7.7622  -12.9103 C   0  0  0  0  0  0  0  0  0  0  0  0
  -19.6621    6.3837  -13.4886 C   0  0  0  0  0  0  0  0  0  0  0  0
  -19.3011    6.0357  -14.8033 N   0  0  0  0  0  0  0  0  0  0  0  0
  -20.2082    5.5160  -12.7530 O   0  0  0  0  0  0  0  0  0  0  0  0
  -19.2796    5.0155  -15.0574 H   0  0  0  0  0  0  0  0  0  0  0  0
  -19.0565    6.7141  -15.5458 H   0  0  0  0  0  0  0  0  0  0  0  0
  -19.5181    7.7532  -11.4325 C   0  0  0  0  0  0  0  0  0  0  0  0
  -18.4265    8.3295  -10.6672 C   0  0  0  0  0  0  0  0  0  0  0  0
  -18.4717    9.6460  -10.2754 C   0  0  0  0  0  0  0  0  0  0  0  0
  -17.4468   10.2138   -9.5076 C   0  0  0  0  0  0  0  0  0  0  0  0
  -16.3805    9.4447   -9.1400 C   0  0  0  0  0  0  0  0  0  0  0  0
  -16.3111    8.1229   -9.5196 C   0  0  0  0  0  0  0  0  0  0  0  0
  -17.3465    7.5726  -10.2880 C   0  0  0  0  0  0  0  0  0  0  0  0
  -22.5111   10.0028  -15.7735 C   0  0  0  0  0  0  0  0  0  0  0  0
  -23.7502   10.2202  -15.0523 C   0  0  0  0  0  0  0  0  0  0  0  0
  -23.8950   11.1805  -14.0747 C   0  0  0  0  0  0  0  0  0  0  0  0
  -25.0806   11.3791  -13.3986 C   0  0  0  0  0  0  0  0  0  0  0  0
  -26.1606   10.5934  -13.7071 C   0  0  0  0  0  0  0  0  0  0  0  0
  -26.0612    9.6263  -14.6740 C   0  0  0  0  0  0  0  0  0  0  0  0
  -24.8500    9.4469  -15.3419 C   0  0  0  0  0  0  0  0  0  0  0  0
  -20.8307   14.6026  -19.2573 C   0  0  0  0  0  0  0  0  0  0  0  0
  -21.2948   13.6727  -20.0061 O   0  0  0  0  0  0  0  0  0  0  0  0
  -20.0741   14.2985  -18.1134 N   0  0  0  0  0  0  0  0  0  0  0  0
  -19.7191   15.0870  -17.5263 H   0  0  0  0  0  0  0  0  0  0  0  0
  -21.1406   15.9823  -19.6774 C   0  0  0  0  0  0  0  0  0  0  0  0
  -24.2536   17.9722  -18.6281 C   0  0  0  0  0  0  0  0  0  0  0  0
  -23.1957   17.3847  -19.4957 C   0  0  0  0  0  0  0  0  0  0  0  0
  -23.1846   17.5899  -20.7129 O   0  0  0  0  0  0  0  0  0  0  0  0
  -22.1967   16.5813  -18.8810 N   0  0  0  0  0  0  0  0  0  0  0  0
  -22.1829   16.3898  -17.8601 H   0  0  0  0  0  0  0  0  0  0  0  0
  -19.8861   16.8246  -19.4491 C   0  0  0  0  0  0  0  0  0  0  0  0
  -18.8784   16.5164  -20.5141 C   0  0  0  0  0  0  0  0  0  0  0  0
  -17.5715   16.3390  -20.0980 C   0  0  0  0  0  0  0  0  0  0  0  0
  -16.6209   16.0338  -21.0688 C   0  0  0  0  0  0  0  0  0  0  0  0
  -16.9710   15.9156  -22.3792 C   0  0  0  0  0  0  0  0  0  0  0  0
  -18.2815   16.0999  -22.7665 C   0  0  0  0  0  0  0  0  0  0  0  0
  -19.2446   16.4022  -21.8324 C   0  0  0  0  0  0  0  0  0  0  0  0
  -15.9960   15.5767  -23.3990 C   0  0  0  0  0  0  0  0  0  0  0  0
  -15.2785   14.3990  -23.3240 C   0  0  0  0  0  0  0  0  0  0  0  0
  -14.3793   14.1279  -24.3267 C   0  0  0  0  0  0  0  0  0  0  0  0
  -14.1555   14.9641  -25.3998 C   0  0  0  0  0  0  0  0  0  0  0  0
  -14.8689   16.1331  -25.4728 C   0  0  0  0  0  0  0  0  0  0  0  0
  -15.7794   16.4364  -24.4827 C   0  0  0  0  0  0  0  0  0  0  0  0
  -18.2799   12.6960  -17.7207 C   0  0  0  0  0  0  0  0  0  0  0  0
  -17.7101   12.1361  -18.9247 C   0  0  0  0  0  0  0  0  0  0  0  0
  -17.8938   12.6546  -20.1727 C   0  0  0  0  0  0  0  0  0  0  0  0
  -17.3684   12.1107  -21.3198 C   0  0  0  0  0  0  0  0  0  0  0  0
  -16.6004   10.9625  -21.2254 C   0  0  0  0  0  0  0  0  0  0  0  0
  -16.3878   10.4003  -19.9653 C   0  0  0  0  0  0  0  0  0  0  0  0
  -16.9302   10.9727  -18.8294 C   0  0  0  0  0  0  0  0  0  0  0  0
 36 37  1  0  0  0
 37 38  2  0  0  0
 37 39  1  0  0  0
 39 35  1  0  0  0
 35 41  1  0  0  0
 41 42  1  0  0  0
 42 43  2  0  0  0
 43 44  1  0  0  0
 44 45  2  0  0  0
 45 46  1  0  0  0
 46 47  2  0  0  0
 45 48  1  0  0  0
 48 49  2  0  0  0
 49 50  1  0  0  0
 50 51  2  0  0  0
 51 52  1  0  0  0
 52 53  2  0  0  0
 35 31  1  0  0  0
 31 32  2  0  0  0
 31 33  1  0  0  0
 33  1  1  0  0  0
  1 54  1  0  0  0
 54 55  1  0  0  0
 55 56  2  0  0  0
 56 57  1  0  0  0
 57 58  2  0  0  0
 58 59  1  0  0  0
 59 60  2  0  0  0
  1  2  1  0  0  0
  2  3  2  0  0  0
  2  4  1  0  0  0
  4  6  1  0  0  0
  6 24  1  0  0  0
 24 25  1  0  0  0
 25 26  2  0  0  0
 26 27  1  0  0  0
 27 28  2  0  0  0
 28 29  1  0  0  0
 29 30  2  0  0  0
  6  7  1  0  0  0
  7  8  2  0  0  0
  7  9  1  0  0  0
  9 11  1  0  0  0
 11 17  1  0  0  0
 17 18  1  0  0  0
 18 19  2  0  0  0
 19 20  1  0  0  0
 20 21  2  0  0  0
 21 22  1  0  0  0
 22 23  2  0  0  0
 11 12  1  0  0  0
 12 13  1  0  0  0
 12 14  2  0  0  0
 47 42  1  0  0  0
 53 48  1  0  0  0
 60 55  1  0  0  0
 30 25  1  0  0  0
 23 18  1  0  0  0
 39 40  1  0  0  0
 33 34  1  0  0  0
  4  5  1  0  0  0
  9 10  1  0  0  0
 13 15  1  0  0  0
 13 16  1  0  0  0
M  END
> <minimizedAffinity>
-9.54050

> <CNNscore>
0.2662617266

> <CNNaffinity>
6.9714837074

> <CNN_VS>
1.8562393188

> <CNNaffinity_variance>
0.6589134336

$$$$
[H]c1c([H])c([H])c(-c2c([H])c([H])c(C([H])([H])[C@@]([H])(C(=O)N([H])[C@]([H])(C(=O)N([H])[C@]([H])(C(=O)N([H])[C@]([H])(C(=O)N([H])[H])C([H])([H])c3c([H])c([H])c([H])c([H])c3[H])C([H])([H])c3c([H])c([H])c([H])c([H])c3[H])C([H])([H])c3c([H])c([H])c([H])c([H])c3[H])N([H])C(=O)C([H])([H])[H])c([H])c2[H])c([H])c1[H]


 60 64  0  0  0  0  0  0  0  0999 V2000
  -18.7776   16.4767  -18.2179 C   0  0  0  0  0  0  0  0  0  0  0  0
  -18.6445   16.3527  -19.6629 C   0  0  0  0  0  0  0  0  0  0  0  0
  -18.8985   15.2681  -20.3068 O   0  0  0  0  0  0  0  0  0  0  0  0
  -18.2270   17.4456  -20.4334 N   0  0  0  0  0  0  0  0  0  0  0  0
  -17.9913   18.3454  -19.9378 H   0  0  0  0  0  0  0  0  0  0  0  0
  -18.0810   17.4847  -21.8958 C   0  0  0  0  0  0  0  0  0  0  0  0
  -17.1439   16.4953  -22.3234 C   0  0  0  0  0  0  0  0  0  0  0  0
  -15.9308   16.5893  -21.8128 O   0  0  0  0  0  0  0  0  0  0  0  0
  -17.2334   15.4067  -23.1940 N   0  0  0  0  0  0  0  0  0  0  0  0
  -18.1113   15.1613  -23.6600 H   0  0  0  0  0  0  0  0  0  0  0  0
  -16.0721   14.5294  -23.4607 C   0  0  0  0  0  0  0  0  0  0  0  0
  -15.3924   15.0393  -24.7115 C   0  0  0  0  0  0  0  0  0  0  0  0
  -13.9992   15.2103  -24.8102 N   0  0  0  0  0  0  0  0  0  0  0  0
  -16.1171   15.3288  -25.7031 O   0  0  0  0  0  0  0  0  0  0  0  0
  -13.5836   15.3472  -25.7664 H   0  0  0  0  0  0  0  0  0  0  0  0
  -13.3481   15.2148  -24.0055 H   0  0  0  0  0  0  0  0  0  0  0  0
  -16.5961   13.1575  -23.6468 C   0  0  0  0  0  0  0  0  0  0  0  0
  -16.4801   12.2109  -22.5514 C   0  0  0  0  0  0  0  0  0  0  0  0
  -17.5098   12.0564  -21.6545 C   0  0  0  0  0  0  0  0  0  0  0  0
  -17.4340   11.1250  -20.6108 C   0  0  0  0  0  0  0  0  0  0  0  0
  -16.3149   10.3541  -20.4809 C   0  0  0  0  0  0  0  0  0  0  0  0
  -15.2691   10.4892  -21.3664 C   0  0  0  0  0  0  0  0  0  0  0  0
  -15.3635   11.4269  -22.4043 C   0  0  0  0  0  0  0  0  0  0  0  0
  -18.0020   18.8987  -22.2652 C   0  0  0  0  0  0  0  0  0  0  0  0
  -19.1878   19.7163  -22.4323 C   0  0  0  0  0  0  0  0  0  0  0  0
  -19.9042   20.2308  -21.3736 C   0  0  0  0  0  0  0  0  0  0  0  0
  -21.0289   21.0102  -21.5467 C   0  0  0  0  0  0  0  0  0  0  0  0
  -21.4552   21.2874  -22.8196 C   0  0  0  0  0  0  0  0  0  0  0  0
  -20.7717   20.7967  -23.9023 C   0  0  0  0  0  0  0  0  0  0  0  0
  -19.6377   20.0108  -23.6981 C   0  0  0  0  0  0  0  0  0  0  0  0
  -20.4983   18.2557  -17.8269 C   0  0  0  0  0  0  0  0  0  0  0  0
  -19.7692   19.1527  -18.3789 O   0  0  0  0  0  0  0  0  0  0  0  0
  -20.0560   16.9262  -17.7276 N   0  0  0  0  0  0  0  0  0  0  0  0
  -20.6844   16.2241  -17.2751 H   0  0  0  0  0  0  0  0  0  0  0  0
  -21.8034   18.7133  -17.3138 C   0  0  0  0  0  0  0  0  0  0  0  0
  -22.4911   22.4800  -17.6149 C   0  0  0  0  0  0  0  0  0  0  0  0
  -22.0900   21.1743  -17.0224 C   0  0  0  0  0  0  0  0  0  0  0  0
  -21.6909   21.1004  -15.8566 O   0  0  0  0  0  0  0  0  0  0  0  0
  -22.1815   20.0135  -17.8382 N   0  0  0  0  0  0  0  0  0  0  0  0
  -22.5110   20.0464  -18.8228 H   0  0  0  0  0  0  0  0  0  0  0  0
  -22.8603   17.7204  -17.7962 C   0  0  0  0  0  0  0  0  0  0  0  0
  -23.0451   17.8692  -19.2755 C   0  0  0  0  0  0  0  0  0  0  0  0
  -23.9849   18.7942  -19.6927 C   0  0  0  0  0  0  0  0  0  0  0  0
  -24.1607   18.9621  -21.0638 C   0  0  0  0  0  0  0  0  0  0  0  0
  -23.4310   18.2390  -21.9573 C   0  0  0  0  0  0  0  0  0  0  0  0
  -22.5021   17.3217  -21.5135 C   0  0  0  0  0  0  0  0  0  0  0  0
  -22.3042   17.1320  -20.1658 C   0  0  0  0  0  0  0  0  0  0  0  0
  -23.5874   18.4185  -23.3887 C   0  0  0  0  0  0  0  0  0  0  0  0
  -24.1448   19.5753  -23.8969 C   0  0  0  0  0  0  0  0  0  0  0  0
  -24.2542   19.6919  -25.2614 C   0  0  0  0  0  0  0  0  0  0  0  0
  -23.8389   18.7207  -26.1475 C   0  0  0  0  0  0  0  0  0  0  0  0
  -23.2855   17.5726  -25.6412 C   0  0  0  0  0  0  0  0  0  0  0  0
  -23.1612   17.4228  -24.2762 C   0  0  0  0  0  0  0  0  0  0  0  0
  -18.2111   15.3740  -17.3695 C   0  0  0  0  0  0  0  0  0  0  0  0
  -18.9950   14.1686  -17.2266 C   0  0  0  0  0  0  0  0  0  0  0  0
  -18.6130   12.9459  -17.6947 C   0  0  0  0  0  0  0  0  0  0  0  0
  -19.3675   11.8037  -17.5765 C   0  0  0  0  0  0  0  0  0  0  0  0
  -20.5977   11.8765  -16.9453 C   0  0  0  0  0  0  0  0  0  0  0  0
  -21.0254   13.1101  -16.4512 C   0  0  0  0  0  0  0  0  0  0  0  0
  -20.2418   14.2415  -16.5856 C   0  0  0  0  0  0  0  0  0  0  0  0
 36 37  1  0  0  0
 37 38  2  0  0  0
 37 39  1  0  0  0
 39 35  1  0  0  0
 35 41  1  0  0  0
 41 42  1  0  0  0
 42 43  2  0  0  0
 43 44  1  0  0  0
 44 45  2  0  0  0
 45 46  1  0  0  0
 46 47  2  0  0  0
 45 48  1  0  0  0
 48 49  2  0  0  0
 49 50  1  0  0  0
 50 51  2  0  0  0
 51 52  1  0  0  0
 52 53  2  0  0  0
 35 31  1  0  0  0
 31 32  2  0  0  0
 31 33  1  0  0  0
 33  1  1  0  0  0
  1 54  1  0  0  0
 54 55  1  0  0  0
 55 56  2  0  0  0
 56 57  1  0  0  0
 57 58  2  0  0  0
 58 59  1  0  0  0
 59 60  2  0  0  0
  1  2  1  0  0  0
  2  3  2  0  0  0
  2  4  1  0  0  0
  4  6  1  0  0  0
  6 24  1  0  0  0
 24 25  1  0  0  0
 25 26  2  0  0  0
 26 27  1  0  0  0
 27 28  2  0  0  0
 28 29  1  0  0  0
 29 30  2  0  0  0
  6  7  1  0  0  0
  7  8  2  0  0  0
  7  9  1  0  0  0
  9 11  1  0  0  0
 11 17  1  0  0  0
 17 18  1  0  0  0
 18 19  2  0  0  0
 19 20  1  0  0  0
 20 21  2  0  0  0
 21 22  1  0  0  0
 22 23  2  0  0  0
 11 12  1  0  0  0
 12 13  1  0  0  0
 12 14  2  0  0  0
 47 42  1  0  0  0
 53 48  1  0  0  0
 60 55  1  0  0  0
 30 25  1  0  0  0
 23 18  1  0  0  0
 39 40  1  0  0  0
 33 34  1  0  0  0
  4  5  1  0  0  0
  9 10  1  0  0  0
 13 15  1  0  0  0
 13 16  1  0  0  0
M  END
> <minimizedAffinity>
-8.20336

> <CNNscore>
0.2447585911

> <CNNaffinity>
7.6401152611

> <CNN_VS>
1.8699837923

> <CNNaffinity_variance>
0.8398383856

$$$$
[H]c1c([H])c([H])c(-c2c([H])c([H])c(C([H])([H])[C@@]([H])(C(=O)N([H])[C@]([H])(C(=O)N([H])[C@]([H])(C(=O)N([H])[C@]([H])(C(=O)N([H])[H])C([H])([H])c3c([H])c([H])c([H])c([H])c3[H])C([H])([H])c3c([H])c([H])c([H])c([H])c3[H])C([H])([H])c3c([H])c([H])c([H])c([H])c3[H])N([H])C(=O)C([H])([H])[H])c([H])c2[H])c([H])c1[H]


 60 64  0  0  0  0  0  0  0  0999 V2000
  -19.6965   14.2846  -18.0661 C   0  0  0  0  0  0  0  0  0  0  0  0
  -19.9024   14.4084  -19.5025 C   0  0  0  0  0  0  0  0  0  0  0  0
  -20.8671   13.8347  -20.1315 O   0  0  0  0  0  0  0  0  0  0  0  0
  -19.0341   15.1861  -20.2794 N   0  0  0  0  0  0  0  0  0  0  0  0
  -18.2206   15.6555  -19.8012 H   0  0  0  0  0  0  0  0  0  0  0  0
  -19.1329   15.4345  -21.7251 C   0  0  0  0  0  0  0  0  0  0  0  0
  -18.2510   14.5641  -22.4354 C   0  0  0  0  0  0  0  0  0  0  0  0
  -18.5357   14.3661  -23.7085 O   0  0  0  0  0  0  0  0  0  0  0  0
  -17.1079   13.8517  -22.0654 N   0  0  0  0  0  0  0  0  0  0  0  0
  -16.7203   13.9100  -21.1196 H   0  0  0  0  0  0  0  0  0  0  0  0
  -16.3764   13.0029  -23.0317 C   0  0  0  0  0  0  0  0  0  0  0  0
  -15.8943   11.7771  -22.2892 C   0  0  0  0  0  0  0  0  0  0  0  0
  -14.7367   11.0659  -22.6556 N   0  0  0  0  0  0  0  0  0  0  0  0
  -16.5721   11.3779  -21.3025 O   0  0  0  0  0  0  0  0  0  0  0  0
  -14.3427   10.3737  -21.9691 H   0  0  0  0  0  0  0  0  0  0  0  0
  -14.2422   11.1715  -23.5588 H   0  0  0  0  0  0  0  0  0  0  0  0
  -15.2454   13.8062  -23.5482 C   0  0  0  0  0  0  0  0  0  0  0  0
  -15.3386   14.3650  -24.8855 C   0  0  0  0  0  0  0  0  0  0  0  0
  -16.3674   14.0007  -25.7207 C   0  0  0  0  0  0  0  0  0  0  0  0
  -16.4969   14.5525  -27.0018 C   0  0  0  0  0  0  0  0  0  0  0  0
  -15.5830   15.4715  -27.4308 C   0  0  0  0  0  0  0  0  0  0  0  0
  -14.5429   15.8537  -26.6134 C   0  0  0  0  0  0  0  0  0  0  0  0
  -14.4300   15.2901  -25.3347 C   0  0  0  0  0  0  0  0  0  0  0  0
  -19.1572   16.8881  -21.8936 C   0  0  0  0  0  0  0  0  0  0  0  0
  -20.3598   17.5957  -22.2882 C   0  0  0  0  0  0  0  0  0  0  0  0
  -20.4709   18.2918  -23.4722 C   0  0  0  0  0  0  0  0  0  0  0  0
  -21.6222   18.9579  -23.8370 C   0  0  0  0  0  0  0  0  0  0  0  0
  -22.7016   18.9295  -22.9927 C   0  0  0  0  0  0  0  0  0  0  0  0
  -22.6353   18.2480  -21.8047 C   0  0  0  0  0  0  0  0  0  0  0  0
  -21.4583   17.5834  -21.4607 C   0  0  0  0  0  0  0  0  0  0  0  0
  -20.8930   16.3217  -17.2310 C   0  0  0  0  0  0  0  0  0  0  0  0
  -21.9680   16.0065  -17.8521 O   0  0  0  0  0  0  0  0  0  0  0  0
  -19.7520   15.5055  -17.3025 N   0  0  0  0  0  0  0  0  0  0  0  0
  -18.8972   15.7961  -16.7757 H   0  0  0  0  0  0  0  0  0  0  0  0
  -20.9414   17.5763  -16.4565 C   0  0  0  0  0  0  0  0  0  0  0  0
  -21.5772   17.9717  -12.6894 C   0  0  0  0  0  0  0  0  0  0  0  0
  -21.5968   18.2629  -14.1495 C   0  0  0  0  0  0  0  0  0  0  0  0
  -22.1535   19.2730  -14.5893 O   0  0  0  0  0  0  0  0  0  0  0  0
  -20.9537   17.3440  -15.0232 N   0  0  0  0  0  0  0  0  0  0  0  0
  -20.4800   16.4850  -14.6813 H   0  0  0  0  0  0  0  0  0  0  0  0
  -19.6635   18.3558  -16.7646 C   0  0  0  0  0  0  0  0  0  0  0  0
  -19.8806   19.2095  -17.9765 C   0  0  0  0  0  0  0  0  0  0  0  0
  -18.8335   19.2855  -18.8767 C   0  0  0  0  0  0  0  0  0  0  0  0
  -19.0198   20.0591  -20.0195 C   0  0  0  0  0  0  0  0  0  0  0  0
  -20.1927   20.7150  -20.2379 C   0  0  0  0  0  0  0  0  0  0  0  0
  -21.2197   20.6234  -19.3222 C   0  0  0  0  0  0  0  0  0  0  0  0
  -21.0678   19.8675  -18.1833 C   0  0  0  0  0  0  0  0  0  0  0  0
  -20.4096   21.5070  -21.4342 C   0  0  0  0  0  0  0  0  0  0  0  0
  -19.4143   21.6376  -22.3826 C   0  0  0  0  0  0  0  0  0  0  0  0
  -19.6844   22.3898  -23.5001 C   0  0  0  0  0  0  0  0  0  0  0  0
  -20.8905   23.0184  -23.7255 C   0  0  0  0  0  0  0  0  0  0  0  0
  -21.8779   22.8876  -22.7827 C   0  0  0  0  0  0  0  0  0  0  0  0
  -21.6400   22.1400  -21.6488 C   0  0  0  0  0  0  0  0  0  0  0  0
  -20.3858   13.1525  -17.3590 C   0  0  0  0  0  0  0  0  0  0  0  0
  -19.7315   11.8642  -17.3608 C   0  0  0  0  0  0  0  0  0  0  0  0
  -18.6988   11.5300  -18.1866 C   0  0  0  0  0  0  0  0  0  0  0  0
  -18.0899   10.2985  -18.2020 C   0  0  0  0  0  0  0  0  0  0  0  0
  -18.5381    9.3193  -17.3317 C   0  0  0  0  0  0  0  0  0  0  0  0
  -19.5932    9.6215  -16.4690 C   0  0  0  0  0  0  0  0  0  0  0  0
  -20.1846   10.8714  -16.4776 C   0  0  0  0  0  0  0  0  0  0  0  0
 36 37  1  0  0  0
 37 38  2  0  0  0
 37 39  1  0  0  0
 39 35  1  0  0  0
 35 41  1  0  0  0
 41 42  1  0  0  0
 42 43  2  0  0  0
 43 44  1  0  0  0
 44 45  2  0  0  0
 45 46  1  0  0  0
 46 47  2  0  0  0
 45 48  1  0  0  0
 48 49  2  0  0  0
 49 50  1  0  0  0
 50 51  2  0  0  0
 51 52  1  0  0  0
 52 53  2  0  0  0
 35 31  1  0  0  0
 31 32  2  0  0  0
 31 33  1  0  0  0
 33  1  1  0  0  0
  1 54  1  0  0  0
 54 55  1  0  0  0
 55 56  2  0  0  0
 56 57  1  0  0  0
 57 58  2  0  0  0
 58 59  1  0  0  0
 59 60  2  0  0  0
  1  2  1  0  0  0
  2  3  2  0  0  0
  2  4  1  0  0  0
  4  6  1  0  0  0
  6 24  1  0  0  0
 24 25  1  0  0  0
 25 26  2  0  0  0
 26 27  1  0  0  0
 27 28  2  0  0  0
 28 29  1  0  0  0
 29 30  2  0  0  0
  6  7  1  0  0  0
  7  8  2  0  0  0
  7  9  1  0  0  0
  9 11  1  0  0  0
 11 17  1  0  0  0
 17 18  1  0  0  0
 18 19  2  0  0  0
 19 20  1  0  0  0
 20 21  2  0  0  0
 21 22  1  0  0  0
 22 23  2  0  0  0
 11 12  1  0  0  0
 12 13  1  0  0  0
 12 14  2  0  0  0
 47 42  1  0  0  0
 53 48  1  0  0  0
 60 55  1  0  0  0
 30 25  1  0  0  0
 23 18  1  0  0  0
 39 40  1  0  0  0
 33 34  1  0  0  0
  4  5  1  0  0  0
  9 10  1  0  0  0
 13 15  1  0  0  0
 13 16  1  0  0  0
M  END
> <minimizedAffinity>
-8.64267

> <CNNscore>
0.2350197583

> <CNNaffinity>
7.8144426346

> <CNN_VS>
1.8365484476

> <CNNaffinity_variance>
0.3059180975

$$$$
[H]c1c([H])c([H])c(-c2c([H])c([H])c(C([H])([H])[C@@]([H])(C(=O)N([H])[C@]([H])(C(=O)N([H])[C@]([H])(C(=O)N([H])[C@]([H])(C(=O)N([H])[H])C([H])([H])c3c([H])c([H])c([H])c([H])c3[H])C([H])([H])c3c([H])c([H])c([H])c([H])c3[H])C([H])([H])c3c([H])c([H])c([H])c([H])c3[H])N([H])C(=O)C([H])([H])[H])c([H])c2[H])c([H])c1[H]


 60 64  0  0  0  0  0  0  0  0999 V2000
  -18.2164   15.1405  -19.5564 C   0  0  0  0  0  0  0  0  0  0  0  0
  -17.5005   16.2121  -20.2348 C   0  0  0  0  0  0  0  0  0  0  0  0
  -16.6314   16.9618  -19.6533 O   0  0  0  0  0  0  0  0  0  0  0  0
  -17.7333   16.4732  -21.5913 N   0  0  0  0  0  0  0  0  0  0  0  0
  -18.4530   15.8916  -22.0957 H   0  0  0  0  0  0  0  0  0  0  0  0
  -17.0661   17.4903  -22.4171 C   0  0  0  0  0  0  0  0  0  0  0  0
  -18.0099   18.4732  -22.8450 C   0  0  0  0  0  0  0  0  0  0  0  0
  -18.0934   18.6657  -24.1477 O   0  0  0  0  0  0  0  0  0  0  0  0
  -18.9001   19.3050  -22.1618 N   0  0  0  0  0  0  0  0  0  0  0  0
  -18.9945   19.2706  -21.1430 H   0  0  0  0  0  0  0  0  0  0  0  0
  -19.7796   20.2548  -22.8787 C   0  0  0  0  0  0  0  0  0  0  0  0
  -19.5308   21.6308  -22.3032 C   0  0  0  0  0  0  0  0  0  0  0  0
  -18.4755   21.9100  -21.4153 N   0  0  0  0  0  0  0  0  0  0  0  0
  -20.3152   22.5619  -22.6347 O   0  0  0  0  0  0  0  0  0  0  0  0
  -18.2297   22.9171  -21.2393 H   0  0  0  0  0  0  0  0  0  0  0  0
  -17.9210   21.1927  -20.9158 H   0  0  0  0  0  0  0  0  0  0  0  0
  -21.1742   19.8137  -22.6513 C   0  0  0  0  0  0  0  0  0  0  0  0
  -21.9803   19.4279  -23.7961 C   0  0  0  0  0  0  0  0  0  0  0  0
  -22.2590   20.3373  -24.7880 C   0  0  0  0  0  0  0  0  0  0  0  0
  -23.0053   19.9783  -25.9178 C   0  0  0  0  0  0  0  0  0  0  0  0
  -23.4657   18.6987  -26.0376 C   0  0  0  0  0  0  0  0  0  0  0  0
  -23.2002   17.7682  -25.0579 C   0  0  0  0  0  0  0  0  0  0  0  0
  -22.4518   18.1466  -23.9345 C   0  0  0  0  0  0  0  0  0  0  0  0
  -16.1732   16.7661  -23.3227 C   0  0  0  0  0  0  0  0  0  0  0  0
  -16.5136   15.4616  -23.8566 C   0  0  0  0  0  0  0  0  0  0  0  0
  -17.6867   15.2065  -24.5331 C   0  0  0  0  0  0  0  0  0  0  0  0
  -17.9967   13.9614  -25.0389 C   0  0  0  0  0  0  0  0  0  0  0  0
  -17.1066   12.9336  -24.8650 C   0  0  0  0  0  0  0  0  0  0  0  0
  -15.9266   13.1431  -24.1987 C   0  0  0  0  0  0  0  0  0  0  0  0
  -15.6388   14.4124  -23.6973 C   0  0  0  0  0  0  0  0  0  0  0  0
  -19.1599   15.4463  -17.2553 C   0  0  0  0  0  0  0  0  0  0  0  0
  -18.0959   14.9935  -16.7043 O   0  0  0  0  0  0  0  0  0  0  0  0
  -19.2651   15.5413  -18.6528 N   0  0  0  0  0  0  0  0  0  0  0  0
  -20.1486   15.9220  -19.0616 H   0  0  0  0  0  0  0  0  0  0  0  0
  -20.2405   15.8479  -16.3348 C   0  0  0  0  0  0  0  0  0  0  0  0
  -20.3710   19.6192  -15.6193 C   0  0  0  0  0  0  0  0  0  0  0  0
  -20.0198   18.1794  -15.4753 C   0  0  0  0  0  0  0  0  0  0  0  0
  -19.2915   17.7909  -14.5575 O   0  0  0  0  0  0  0  0  0  0  0  0
  -20.5494   17.2638  -16.4254 N   0  0  0  0  0  0  0  0  0  0  0  0
  -21.1623   17.5629  -17.2089 H   0  0  0  0  0  0  0  0  0  0  0  0
  -21.5030   15.0948  -16.7523 C   0  0  0  0  0  0  0  0  0  0  0  0
  -21.3589   13.6461  -16.3984 C   0  0  0  0  0  0  0  0  0  0  0  0
  -21.8576   13.2559  -15.1688 C   0  0  0  0  0  0  0  0  0  0  0  0
  -21.7505   11.9104  -14.8266 C   0  0  0  0  0  0  0  0  0  0  0  0
  -21.1747   11.0153  -15.6756 C   0  0  0  0  0  0  0  0  0  0  0  0
  -20.6837   11.4323  -16.8948 C   0  0  0  0  0  0  0  0  0  0  0  0
  -20.7739   12.7544  -17.2630 C   0  0  0  0  0  0  0  0  0  0  0  0
  -21.0756    9.6065  -15.3424 C   0  0  0  0  0  0  0  0  0  0  0  0
  -22.2054    8.8742  -15.0349 C   0  0  0  0  0  0  0  0  0  0  0  0
  -22.0485    7.5414  -14.7406 C   0  0  0  0  0  0  0  0  0  0  0  0
  -20.8293    6.8977  -14.7361 C   0  0  0  0  0  0  0  0  0  0  0  0
  -19.7084    7.6264  -15.0419 C   0  0  0  0  0  0  0  0  0  0  0  0
  -19.8301    8.9667  -15.3416 C   0  0  0  0  0  0  0  0  0  0  0  0
  -18.6102   13.9415  -20.3713 C   0  0  0  0  0  0  0  0  0  0  0  0
  -17.8638   12.7206  -20.1704 C   0  0  0  0  0  0  0  0  0  0  0  0
  -17.5717   12.1933  -18.9471 C   0  0  0  0  0  0  0  0  0  0  0  0
  -16.8449   11.0431  -18.7556 C   0  0  0  0  0  0  0  0  0  0  0  0
  -16.3688   10.3602  -19.8620 C   0  0  0  0  0  0  0  0  0  0  0  0
  -16.6468   10.8668  -21.1329 C   0  0  0  0  0  0  0  0  0  0  0  0
  -17.3820   12.0271  -21.2919 C   0  0  0  0  0  0  0  0  0  0  0  0
 36 37  1  0  0  0
 37 38  2  0  0  0
 37 39  1  0  0  0
 39 35  1  0  0  0
 35 41  1  0  0  0
 41 42  1  0  0  0
 42 43  2  0  0  0
 43 44  1  0  0  0
 44 45  2  0  0  0
 45 46  1  0  0  0
 46 47  2  0  0  0
 45 48  1  0  0  0
 48 49  2  0  0  0
 49 50  1  0  0  0
 50 51  2  0  0  0
 51 52  1  0  0  0
 52 53  2  0  0  0
 35 31  1  0  0  0
 31 32  2  0  0  0
 31 33  1  0  0  0
 33  1  1  0  0  0
  1 54  1  0  0  0
 54 55  1  0  0  0
 55 56  2  0  0  0
 56 57  1  0  0  0
 57 58  2  0  0  0
 58 59  1  0  0  0
 59 60  2  0  0  0
  1  2  1  0  0  0
  2  3  2  0  0  0
  2  4  1  0  0  0
  4  6  1  0  0  0
  6 24  1  0  0  0
 24 25  1  0  0  0
 25 26  2  0  0  0
 26 27  1  0  0  0
 27 28  2  0  0  0
 28 29  1  0  0  0
 29 30  2  0  0  0
  6  7  1  0  0  0
  7  8  2  0  0  0
  7  9  1  0  0  0
  9 11  1  0  0  0
 11 17  1  0  0  0
 17 18  1  0  0  0
 18 19  2  0  0  0
 19 20  1  0  0  0
 20 21  2  0  0  0
 21 22  1  0  0  0
 22 23  2  0  0  0
 11 12  1  0  0  0
 12 13  1  0  0  0
 12 14  2  0  0  0
 47 42  1  0  0  0
 53 48  1  0  0  0
 60 55  1  0  0  0
 30 25  1  0  0  0
 23 18  1  0  0  0
 39 40  1  0  0  0
 33 34  1  0  0  0
  4  5  1  0  0  0
  9 10  1  0  0  0
 13 15  1  0  0  0
 13 16  1  0  0  0
M  END
> <minimizedAffinity>
-10.01917

> <CNNscore>
0.2344576716

> <CNNaffinity>
7.2827911377

> <CNN_VS>
1.7075062990

> <CNNaffinity_variance>
1.0943821669

$$$$
[H]c1c([H])c([H])c(-c2c([H])c([H])c(C([H])([H])[C@@]([H])(C(=O)N([H])[C@]([H])(C(=O)N([H])[C@]([H])(C(=O)N([H])[C@]([H])(C(=O)N([H])[H])C([H])([H])c3c([H])c([H])c([H])c([H])c3[H])C([H])([H])c3c([H])c([H])c([H])c([H])c3[H])C([H])([H])c3c([H])c([H])c([H])c([H])c3[H])N([H])C(=O)C([H])([H])[H])c([H])c2[H])c([H])c1[H]


 60 64  0  0  0  0  0  0  0  0999 V2000
  -19.9272   14.2219  -17.3991 C   0  0  0  0  0  0  0  0  0  0  0  0
  -19.8207   14.7564  -18.7496 C   0  0  0  0  0  0  0  0  0  0  0  0
  -20.8232   14.8667  -19.5485 O   0  0  0  0  0  0  0  0  0  0  0  0
  -18.5845   15.1903  -19.2456 N   0  0  0  0  0  0  0  0  0  0  0  0
  -17.7370   15.0972  -18.6260 H   0  0  0  0  0  0  0  0  0  0  0  0
  -18.3269   15.7828  -20.5663 C   0  0  0  0  0  0  0  0  0  0  0  0
  -17.8903   14.7760  -21.4805 C   0  0  0  0  0  0  0  0  0  0  0  0
  -18.5228   14.7327  -22.6378 O   0  0  0  0  0  0  0  0  0  0  0  0
  -16.9013   13.7916  -21.4178 N   0  0  0  0  0  0  0  0  0  0  0  0
  -16.2882   13.6962  -20.6035 H   0  0  0  0  0  0  0  0  0  0  0  0
  -16.6643   12.8578  -22.5408 C   0  0  0  0  0  0  0  0  0  0  0  0
  -16.5042   11.4724  -21.9564 C   0  0  0  0  0  0  0  0  0  0  0  0
  -15.2874   10.7662  -21.9829 N   0  0  0  0  0  0  0  0  0  0  0  0
  -17.5154   10.9312  -21.4304 O   0  0  0  0  0  0  0  0  0  0  0  0
  -15.1926    9.9196  -21.3664 H   0  0  0  0  0  0  0  0  0  0  0  0
  -14.4735   11.0176  -22.5710 H   0  0  0  0  0  0  0  0  0  0  0  0
  -15.4311   13.3051  -23.2265 C   0  0  0  0  0  0  0  0  0  0  0  0
  -15.5494   13.9794  -24.5074 C   0  0  0  0  0  0  0  0  0  0  0  0
  -16.5623   13.6493  -25.3755 C   0  0  0  0  0  0  0  0  0  0  0  0
  -16.7165   14.3099  -26.6012 C   0  0  0  0  0  0  0  0  0  0  0  0
  -15.8433   15.3026  -26.9415 C   0  0  0  0  0  0  0  0  0  0  0  0
  -14.8199   15.6526  -26.0895 C   0  0  0  0  0  0  0  0  0  0  0  0
  -14.6818   14.9798  -24.8673 C   0  0  0  0  0  0  0  0  0  0  0  0
  -17.6075   17.0341  -20.3243 C   0  0  0  0  0  0  0  0  0  0  0  0
  -18.1329   18.3169  -20.7499 C   0  0  0  0  0  0  0  0  0  0  0  0
  -18.1814   18.7116  -22.0692 C   0  0  0  0  0  0  0  0  0  0  0  0
  -18.6871   19.9336  -22.4607 C   0  0  0  0  0  0  0  0  0  0  0  0
  -19.1616   20.7931  -21.5043 C   0  0  0  0  0  0  0  0  0  0  0  0
  -19.1335   20.4406  -20.1794 C   0  0  0  0  0  0  0  0  0  0  0  0
  -18.6163   19.1986  -19.8116 C   0  0  0  0  0  0  0  0  0  0  0  0
  -21.5369   15.3511  -15.8459 C   0  0  0  0  0  0  0  0  0  0  0  0
  -22.5233   14.6634  -16.2875 O   0  0  0  0  0  0  0  0  0  0  0  0
  -20.2419   15.1673  -16.3580 N   0  0  0  0  0  0  0  0  0  0  0  0
  -19.4639   15.7449  -15.9657 H   0  0  0  0  0  0  0  0  0  0  0  0
  -21.8560   16.3279  -14.7875 C   0  0  0  0  0  0  0  0  0  0  0  0
  -19.6520   19.0494  -13.2102 C   0  0  0  0  0  0  0  0  0  0  0  0
  -20.7997   18.1231  -13.4145 C   0  0  0  0  0  0  0  0  0  0  0  0
  -21.7547   18.1113  -12.6325 O   0  0  0  0  0  0  0  0  0  0  0  0
  -20.7647   17.2529  -14.5383 N   0  0  0  0  0  0  0  0  0  0  0  0
  -19.9731   17.2395  -15.2108 H   0  0  0  0  0  0  0  0  0  0  0  0
  -23.0383   17.1642  -15.2755 C   0  0  0  0  0  0  0  0  0  0  0  0
  -22.8297   17.5306  -16.7132 C   0  0  0  0  0  0  0  0  0  0  0  0
  -23.8410   17.1895  -17.5928 C   0  0  0  0  0  0  0  0  0  0  0  0
  -23.6763   17.5365  -18.9313 C   0  0  0  0  0  0  0  0  0  0  0  0
  -22.5580   18.1879  -19.3536 C   0  0  0  0  0  0  0  0  0  0  0  0
  -21.5640   18.5139  -18.4551 C   0  0  0  0  0  0  0  0  0  0  0  0
  -21.6958   18.1855  -17.1261 C   0  0  0  0  0  0  0  0  0  0  0  0
  -22.3819   18.5753  -20.7408 C   0  0  0  0  0  0  0  0  0  0  0  0
  -21.8681   17.6833  -21.6615 C   0  0  0  0  0  0  0  0  0  0  0  0
  -21.7374   18.1046  -22.9626 C   0  0  0  0  0  0  0  0  0  0  0  0
  -22.0903   19.3644  -23.3975 C   0  0  0  0  0  0  0  0  0  0  0  0
  -22.6005   20.2489  -22.4820 C   0  0  0  0  0  0  0  0  0  0  0  0
  -22.7445   19.8587  -21.1674 C   0  0  0  0  0  0  0  0  0  0  0  0
  -20.6672   12.9271  -17.2192 C   0  0  0  0  0  0  0  0  0  0  0  0
  -19.8976   11.7047  -17.2578 C   0  0  0  0  0  0  0  0  0  0  0  0
  -18.8112   11.5079  -18.0584 C   0  0  0  0  0  0  0  0  0  0  0  0
  -18.0915   10.3386  -18.1096 C   0  0  0  0  0  0  0  0  0  0  0  0
  -18.4771    9.2796  -17.3053 C   0  0  0  0  0  0  0  0  0  0  0  0
  -19.5842    9.4407  -16.4703 C   0  0  0  0  0  0  0  0  0  0  0  0
  -20.2872   10.6311  -16.4415 C   0  0  0  0  0  0  0  0  0  0  0  0
 36 37  1  0  0  0
 37 38  2  0  0  0
 37 39  1  0  0  0
 39 35  1  0  0  0
 35 41  1  0  0  0
 41 42  1  0  0  0
 42 43  2  0  0  0
 43 44  1  0  0  0
 44 45  2  0  0  0
 45 46  1  0  0  0
 46 47  2  0  0  0
 45 48  1  0  0  0
 48 49  2  0  0  0
 49 50  1  0  0  0
 50 51  2  0  0  0
 51 52  1  0  0  0
 52 53  2  0  0  0
 35 31  1  0  0  0
 31 32  2  0  0  0
 31 33  1  0  0  0
 33  1  1  0  0  0
  1 54  1  0  0  0
 54 55  1  0  0  0
 55 56  2  0  0  0
 56 57  1  0  0  0
 57 58  2  0  0  0
 58 59  1  0  0  0
 59 60  2  0  0  0
  1  2  1  0  0  0
  2  3  2  0  0  0
  2  4  1  0  0  0
  4  6  1  0  0  0
  6 24  1  0  0  0
 24 25  1  0  0  0
 25 26  2  0  0  0
 26 27  1  0  0  0
 27 28  2  0  0  0
 28 29  1  0  0  0
 29 30  2  0  0  0
  6  7  1  0  0  0
  7  8  2  0  0  0
  7  9  1  0  0  0
  9 11  1  0  0  0
 11 17  1  0  0  0
 17 18  1  0  0  0
 18 19  2  0  0  0
 19 20  1  0  0  0
 20 21  2  0  0  0
 21 22  1  0  0  0
 22 23  2  0  0  0
 11 12  1  0  0  0
 12 13  1  0  0  0
 12 14  2  0  0  0
 47 42  1  0  0  0
 53 48  1  0  0  0
 60 55  1  0  0  0
 30 25  1  0  0  0
 23 18  1  0  0  0
 39 40  1  0  0  0
 33 34  1  0  0  0
  4  5  1  0  0  0
  9 10  1  0  0  0
 13 15  1  0  0  0
 13 16  1  0  0  0
M  END
> <minimizedAffinity>
-8.52937

> <CNNscore>
0.2200793028

> <CNNaffinity>
7.7780351639

> <CNN_VS>
1.7117846012

> <CNNaffinity_variance>
0.2571529448

$$$$
[H]c1c([H])c([H])c(-c2c([H])c([H])c(C([H])([H])[C@@]([H])(C(=O)N([H])[C@]([H])(C(=O)N([H])[C@]([H])(C(=O)N([H])[C@]([H])(C(=O)N([H])[H])C([H])([H])c3c([H])c([H])c([H])c([H])c3[H])C([H])([H])c3c([H])c([H])c([H])c([H])c3[H])C([H])([H])c3c([H])c([H])c([H])c([H])c3[H])N([H])C(=O)C([H])([H])[H])c([H])c2[H])c([H])c1[H]


 60 64  0  0  0  0  0  0  0  0999 V2000
  -19.8472   16.1895  -16.9765 C   0  0  0  0  0  0  0  0  0  0  0  0
  -19.2551   14.8605  -17.0405 C   0  0  0  0  0  0  0  0  0  0  0  0
  -18.1160   14.5670  -16.5191 O   0  0  0  0  0  0  0  0  0  0  0  0
  -19.9262   13.8151  -17.6880 N   0  0  0  0  0  0  0  0  0  0  0  0
  -20.8534   14.0232  -18.1439 H   0  0  0  0  0  0  0  0  0  0  0  0
  -19.4760   12.4203  -17.8030 C   0  0  0  0  0  0  0  0  0  0  0  0
  -20.0575   11.6285  -16.7663 C   0  0  0  0  0  0  0  0  0  0  0  0
  -19.9147   10.3222  -16.8876 O   0  0  0  0  0  0  0  0  0  0  0  0
  -20.7684   11.9448  -15.6064 N   0  0  0  0  0  0  0  0  0  0  0  0
  -20.9481   12.9150  -15.3333 H   0  0  0  0  0  0  0  0  0  0  0  0
  -21.2683   10.8942  -14.6922 C   0  0  0  0  0  0  0  0  0  0  0  0
  -22.7765   10.8752  -14.7997 C   0  0  0  0  0  0  0  0  0  0  0  0
  -23.4745    9.9661  -15.6160 N   0  0  0  0  0  0  0  0  0  0  0  0
  -23.4285   11.7219  -14.1289 O   0  0  0  0  0  0  0  0  0  0  0  0
  -24.5103    9.8619  -15.4679 H   0  0  0  0  0  0  0  0  0  0  0  0
  -23.0418    9.3902  -16.3594 H   0  0  0  0  0  0  0  0  0  0  0  0
  -20.8244   11.2568  -13.3275 C   0  0  0  0  0  0  0  0  0  0  0  0
  -19.9804   10.3274  -12.5973 C   0  0  0  0  0  0  0  0  0  0  0  0
  -19.6585   10.5664  -11.2829 C   0  0  0  0  0  0  0  0  0  0  0  0
  -18.8746    9.6668  -10.5489 C   0  0  0  0  0  0  0  0  0  0  0  0
  -18.4205    8.5286  -11.1505 C   0  0  0  0  0  0  0  0  0  0  0  0
  -18.7289    8.2654  -12.4664 C   0  0  0  0  0  0  0  0  0  0  0  0
  -19.5146    9.1778  -13.1845 C   0  0  0  0  0  0  0  0  0  0  0  0
  -18.0406   12.4716  -18.0844 C   0  0  0  0  0  0  0  0  0  0  0  0
  -17.4813   11.9583  -19.3199 C   0  0  0  0  0  0  0  0  0  0  0  0
  -17.7862   12.4784  -20.5590 C   0  0  0  0  0  0  0  0  0  0  0  0
  -17.2443   11.9827  -21.7264 C   0  0  0  0  0  0  0  0  0  0  0  0
  -16.3670   10.9317  -21.6574 C   0  0  0  0  0  0  0  0  0  0  0  0
  -16.0346   10.3841  -20.4450 C   0  0  0  0  0  0  0  0  0  0  0  0
  -16.5979   10.9049  -19.2802 C   0  0  0  0  0  0  0  0  0  0  0  0
  -21.0290   16.7854  -19.1041 C   0  0  0  0  0  0  0  0  0  0  0  0
  -22.0129   16.0113  -18.8334 O   0  0  0  0  0  0  0  0  0  0  0  0
  -19.9437   16.9095  -18.2211 N   0  0  0  0  0  0  0  0  0  0  0  0
  -19.1639   17.5568  -18.4773 H   0  0  0  0  0  0  0  0  0  0  0  0
  -21.1180   17.5165  -20.3823 C   0  0  0  0  0  0  0  0  0  0  0  0
  -24.0513   19.9837  -20.6280 C   0  0  0  0  0  0  0  0  0  0  0  0
  -23.2678   18.7245  -20.7600 C   0  0  0  0  0  0  0  0  0  0  0  0
  -23.7643   17.7170  -21.2721 O   0  0  0  0  0  0  0  0  0  0  0  0
  -21.9294   18.7164  -20.2804 N   0  0  0  0  0  0  0  0  0  0  0  0
  -21.4871   19.5482  -19.8428 H   0  0  0  0  0  0  0  0  0  0  0  0
  -19.7062   17.9705  -20.7511 C   0  0  0  0  0  0  0  0  0  0  0  0
  -19.1721   17.0977  -21.8454 C   0  0  0  0  0  0  0  0  0  0  0  0
  -19.7282   17.2670  -23.1003 C   0  0  0  0  0  0  0  0  0  0  0  0
  -19.2344   16.4787  -24.1366 C   0  0  0  0  0  0  0  0  0  0  0  0
  -18.2400   15.5752  -23.9168 C   0  0  0  0  0  0  0  0  0  0  0  0
  -17.7051   15.4255  -22.6547 C   0  0  0  0  0  0  0  0  0  0  0  0
  -18.1704   16.1888  -21.6095 C   0  0  0  0  0  0  0  0  0  0  0  0
  -17.7002   14.7623  -24.9908 C   0  0  0  0  0  0  0  0  0  0  0  0
  -18.0061   13.4184  -25.0790 C   0  0  0  0  0  0  0  0  0  0  0  0
  -17.4751   12.7046  -26.1259 C   0  0  0  0  0  0  0  0  0  0  0  0
  -16.6572   13.2549  -27.0897 C   0  0  0  0  0  0  0  0  0  0  0  0
  -16.3546   14.5896  -27.0007 C   0  0  0  0  0  0  0  0  0  0  0  0
  -16.8704   15.3355  -25.9621 C   0  0  0  0  0  0  0  0  0  0  0  0
  -21.0793   16.3629  -16.1348 C   0  0  0  0  0  0  0  0  0  0  0  0
  -20.9807   17.2119  -14.9697 C   0  0  0  0  0  0  0  0  0  0  0  0
  -21.9915   17.4061  -14.0750 C   0  0  0  0  0  0  0  0  0  0  0  0
  -21.9043   18.2290  -12.9782 C   0  0  0  0  0  0  0  0  0  0  0  0
  -20.7237   18.9148  -12.7481 C   0  0  0  0  0  0  0  0  0  0  0  0
  -19.6641   18.7430  -13.6406 C   0  0  0  0  0  0  0  0  0  0  0  0
  -19.7835   17.9065  -14.7352 C   0  0  0  0  0  0  0  0  0  0  0  0
 36 37  1  0  0  0
 37 38  2  0  0  0
 37 39  1  0  0  0
 39 35  1  0  0  0
 35 41  1  0  0  0
 41 42  1  0  0  0
 42 43  2  0  0  0
 43 44  1  0  0  0
 44 45  2  0  0  0
 45 46  1  0  0  0
 46 47  2  0  0  0
 45 48  1  0  0  0
 48 49  2  0  0  0
 49 50  1  0  0  0
 50 51  2  0  0  0
 51 52  1  0  0  0
 52 53  2  0  0  0
 35 31  1  0  0  0
 31 32  2  0  0  0
 31 33  1  0  0  0
 33  1  1  0  0  0
  1 54  1  0  0  0
 54 55  1  0  0  0
 55 56  2  0  0  0
 56 57  1  0  0  0
 57 58  2  0  0  0
 58 59  1  0  0  0
 59 60  2  0  0  0
  1  2  1  0  0  0
  2  3  2  0  0  0
  2  4  1  0  0  0
  4  6  1  0  0  0
  6 24  1  0  0  0
 24 25  1  0  0  0
 25 26  2  0  0  0
 26 27  1  0  0  0
 27 28  2  0  0  0
 28 29  1  0  0  0
 29 30  2  0  0  0
  6  7  1  0  0  0
  7  8  2  0  0  0
  7  9  1  0  0  0
  9 11  1  0  0  0
 11 17  1  0  0  0
 17 18  1  0  0  0
 18 19  2  0  0  0
 19 20  1  0  0  0
 20 21  2  0  0  0
 21 22  1  0  0  0
 22 23  2  0  0  0
 11 12  1  0  0  0
 12 13  1  0  0  0
 12 14  2  0  0  0
 47 42  1  0  0  0
 53 48  1  0  0  0
 60 55  1  0  0  0
 30 25  1  0  0  0
 23 18  1  0  0  0
 39 40  1  0  0  0
 33 34  1  0  0  0
  4  5  1  0  0  0
  9 10  1  0  0  0
 13 15  1  0  0  0
 13 16  1  0  0  0
M  END
> <minimizedAffinity>
-9.01107

> <CNNscore>
0.2062477916

> <CNNaffinity>
7.2977094650

> <CNN_VS>
1.5051364899

> <CNNaffinity_variance>
0.5482475758

$$$$
[H]c1nc2c([H])c(OC([H])([H])C([H])([H])C([H])([H])N3C([H])([H])C([H])([H])OC([H])([H])C3([H])[H])c(OC([H])([H])[H])c([H])c2c(Oc2c([H])c([H])c(N([H])C(=O)N([H])c3c([H])c([H])c(N4C([H])([H])C([H])([H])N(C([H])([H])[H])C([H])([H])C4([H])[H])c([H])c3[H])c([H])c2[H])c1[H]


 48 53  0  0  0  0  0  0  0  0999 V2000
  -17.4224   12.5154  -21.5423 C   0  0  0  0  0  0  0  0  0  0  0  0
  -16.5696   12.7190  -22.6726 C   0  0  0  0  0  0  0  0  0  0  0  0
  -16.7929   13.9536  -23.3865 C   0  0  0  0  0  0  0  0  0  0  0  0
  -17.6549   14.8248  -23.0775 C   0  0  0  0  0  0  0  0  0  0  0  0
  -18.4754   14.6007  -21.9931 C   0  0  0  0  0  0  0  0  0  0  0  0
  -18.4143   13.5223  -21.2245 C   0  0  0  0  0  0  0  0  0  0  0  0
  -17.7560   10.1920  -18.8629 N   0  0  0  0  0  0  0  0  0  0  0  0
  -16.8614   10.4102  -19.9791 C   0  0  0  0  0  0  0  0  0  0  0  0
  -15.9012    9.5842  -20.0587 O   0  0  0  0  0  0  0  0  0  0  0  0
  -17.1502   11.4809  -20.7706 N   0  0  0  0  0  0  0  0  0  0  0  0
  -16.8066    9.2435  -18.4662 H   0  0  0  0  0  0  0  0  0  0  0  0
  -16.3292   10.9130  -21.7501 H   0  0  0  0  0  0  0  0  0  0  0  0
  -19.9113    9.6945  -15.3997 C   0  0  0  0  0  0  0  0  0  0  0  0
  -19.1683    8.7026  -15.8553 C   0  0  0  0  0  0  0  0  0  0  0  0
  -18.4891    8.8190  -17.0124 C   0  0  0  0  0  0  0  0  0  0  0  0
  -18.4733    9.8969  -17.8206 C   0  0  0  0  0  0  0  0  0  0  0  0
  -19.3388   11.0135  -17.2892 C   0  0  0  0  0  0  0  0  0  0  0  0
  -20.0104   10.8789  -16.1322 C   0  0  0  0  0  0  0  0  0  0  0  0
  -23.5036    8.9716  -11.9925 C   0  0  0  0  0  0  0  0  0  0  0  0
  -22.0719    9.1840  -11.7512 N   0  0  0  0  0  0  0  0  0  0  0  0
  -21.7591   10.5051  -12.3310 C   0  0  0  0  0  0  0  0  0  0  0  0
  -21.7526   10.4250  -13.8246 C   0  0  0  0  0  0  0  0  0  0  0  0
  -20.5431    9.6369  -14.1519 N   0  0  0  0  0  0  0  0  0  0  0  0
  -20.0793    8.7533  -13.1069 C   0  0  0  0  0  0  0  0  0  0  0  0
  -21.3462    8.1515  -12.4722 C   0  0  0  0  0  0  0  0  0  0  0  0
  -17.9348   16.0928  -23.6744 O   0  0  0  0  0  0  0  0  0  0  0  0
  -17.9987   17.1784  -22.7484 C   0  0  0  0  0  0  0  0  0  0  0  0
  -16.9625   17.3981  -21.8696 C   0  0  0  0  0  0  0  0  0  0  0  0
  -17.0910   18.4818  -20.9550 C   0  0  0  0  0  0  0  0  0  0  0  0
  -18.1713   19.2086  -20.9817 N   0  0  0  0  0  0  0  0  0  0  0  0
  -19.1886   19.0174  -21.8185 C   0  0  0  0  0  0  0  0  0  0  0  0
  -20.3125   19.7611  -21.7759 C   0  0  0  0  0  0  0  0  0  0  0  0
  -21.3732   19.6078  -22.5608 C   0  0  0  0  0  0  0  0  0  0  0  0
  -21.3838   18.5545  -23.5798 C   0  0  0  0  0  0  0  0  0  0  0  0
  -20.2187   17.7650  -23.6175 C   0  0  0  0  0  0  0  0  0  0  0  0
  -19.1486   17.9773  -22.7695 C   0  0  0  0  0  0  0  0  0  0  0  0
  -22.4215   18.5357  -24.2434 O   0  0  0  0  0  0  0  0  0  0  0  0
  -23.5365   18.5048  -24.9499 C   0  0  0  0  0  0  0  0  0  0  0  0
  -22.5217   20.3660  -22.4922 O   0  0  0  0  0  0  0  0  0  0  0  0
  -22.7674   21.7096  -22.5149 C   0  0  0  0  0  0  0  0  0  0  0  0
  -24.1322   22.1806  -22.7716 C   0  0  0  0  0  0  0  0  0  0  0  0
  -24.9900   22.2618  -21.5162 C   0  0  0  0  0  0  0  0  0  0  0  0
  -25.8807   23.2514  -21.2644 N   0  0  0  0  0  0  0  0  0  0  0  0
  -27.2542   23.0492  -21.0166 C   0  0  0  0  0  0  0  0  0  0  0  0
  -28.1242   24.0390  -21.7700 C   0  0  0  0  0  0  0  0  0  0  0  0
  -27.7153   25.3619  -21.5918 O   0  0  0  0  0  0  0  0  0  0  0  0
  -26.4283   25.4652  -22.1326 C   0  0  0  0  0  0  0  0  0  0  0  0
  -25.5085   24.6309  -21.2441 C   0  0  0  0  0  0  0  0  0  0  0  0
 19 20  1  0  0  0
 20 21  1  0  0  0
 21 22  1  0  0  0
 22 23  1  0  0  0
 23 24  1  0  0  0
 24 25  1  0  0  0
 23 13  1  0  0  0
 13 14  2  0  0  0
 14 15  1  0  0  0
 15 16  2  0  0  0
 16  7  1  0  0  0
  7  8  1  0  0  0
  8  9  2  0  0  0
  8 10  1  0  0  0
 10  1  1  0  0  0
  1  2  2  0  0  0
  2  3  1  0  0  0
  3  4  2  0  0  0
  4 26  1  0  0  0
 26 27  1  0  0  0
 27 28  2  0  0  0
 28 29  1  0  0  0
 29 30  2  0  0  0
 30 31  1  0  0  0
 31 32  2  0  0  0
 32 33  1  0  0  0
 33 39  1  0  0  0
 39 40  1  0  0  0
 40 41  1  0  0  0
 41 42  1  0  0  0
 42 43  1  0  0  0
 43 44  1  0  0  0
 44 45  1  0  0  0
 45 46  1  0  0  0
 46 47  1  0  0  0
 47 48  1  0  0  0
 33 34  2  0  0  0
 34 37  1  0  0  0
 37 38  1  0  0  0
 34 35  1  0  0  0
 35 36  2  0  0  0
  4  5  1  0  0  0
  5  6  2  0  0  0
 16 17  1  0  0  0
 17 18  2  0  0  0
 25 20  1  0  0  0
 18 13  1  0  0  0
  6  1  1  0  0  0
 36 27  1  0  0  0
 36 31  1  0  0  0
 48 43  1  0  0  0
  7 11  1  0  0  0
 10 12  1  0  0  0
M  END
> <minimizedAffinity>
-8.24748

> <CNNscore>
0.4168230593

> <CNNaffinity>
6.8303284645

> <CNN_VS>
2.8470385075

> <CNNaffinity_variance>
0.0691839606

$$$$
[H]c1nc2c([H])c(OC([H])([H])C([H])([H])C([H])([H])N3C([H])([H])C([H])([H])OC([H])([H])C3([H])[H])c(OC([H])([H])[H])c([H])c2c(Oc2c([H])c([H])c(N([H])C(=O)N([H])c3c([H])c([H])c(N4C([H])([H])C([H])([H])N(C([H])([H])[H])C([H])([H])C4([H])[H])c([H])c3[H])c([H])c2[H])c1[H]


 48 53  0  0  0  0  0  0  0  0999 V2000
  -17.4642   12.5256  -21.5108 C   0  0  0  0  0  0  0  0  0  0  0  0
  -16.6564   12.6980  -22.6789 C   0  0  0  0  0  0  0  0  0  0  0  0
  -16.8804   13.9313  -23.3948 C   0  0  0  0  0  0  0  0  0  0  0  0
  -17.7068   14.8262  -23.0576 C   0  0  0  0  0  0  0  0  0  0  0  0
  -18.4848   14.6321  -21.9367 C   0  0  0  0  0  0  0  0  0  0  0  0
  -18.4166   13.5594  -21.1607 C   0  0  0  0  0  0  0  0  0  0  0  0
  -17.7620   10.2120  -18.8188 N   0  0  0  0  0  0  0  0  0  0  0  0
  -16.8871   10.4214  -19.9521 C   0  0  0  0  0  0  0  0  0  0  0  0
  -15.9337    9.5892  -20.0472 O   0  0  0  0  0  0  0  0  0  0  0  0
  -17.1840   11.4916  -20.7412 N   0  0  0  0  0  0  0  0  0  0  0  0
  -16.8112    9.2587  -18.4370 H   0  0  0  0  0  0  0  0  0  0  0  0
  -16.3850   10.9157  -21.7342 H   0  0  0  0  0  0  0  0  0  0  0  0
  -19.8734    9.7461  -15.3243 C   0  0  0  0  0  0  0  0  0  0  0  0
  -19.1030    8.7655  -15.7580 C   0  0  0  0  0  0  0  0  0  0  0  0
  -18.4369    8.8701  -16.9238 C   0  0  0  0  0  0  0  0  0  0  0  0
  -18.4614    9.9244  -17.7623 C   0  0  0  0  0  0  0  0  0  0  0  0
  -19.3577   11.0280  -17.2552 C   0  0  0  0  0  0  0  0  0  0  0  0
  -20.0157   10.9054  -16.0891 C   0  0  0  0  0  0  0  0  0  0  0  0
  -20.4353    9.1297  -10.3907 C   0  0  0  0  0  0  0  0  0  0  0  0
  -21.3811    9.7456  -11.3284 N   0  0  0  0  0  0  0  0  0  0  0  0
  -21.7042    8.6986  -12.3177 C   0  0  0  0  0  0  0  0  0  0  0  0
  -20.5446    8.4817  -13.2373 C   0  0  0  0  0  0  0  0  0  0  0  0
  -20.4933    9.7044  -14.0699 N   0  0  0  0  0  0  0  0  0  0  0  0
  -21.0851   10.8817  -13.4767 C   0  0  0  0  0  0  0  0  0  0  0  0
  -20.6947   10.8439  -11.9880 C   0  0  0  0  0  0  0  0  0  0  0  0
  -17.9814   16.0953  -23.6545 O   0  0  0  0  0  0  0  0  0  0  0  0
  -18.0259   17.1835  -22.7305 C   0  0  0  0  0  0  0  0  0  0  0  0
  -16.9804   17.3934  -21.8603 C   0  0  0  0  0  0  0  0  0  0  0  0
  -17.0896   18.4804  -20.9471 C   0  0  0  0  0  0  0  0  0  0  0  0
  -18.1619   19.2193  -20.9670 N   0  0  0  0  0  0  0  0  0  0  0  0
  -19.1877   19.0378  -21.7955 C   0  0  0  0  0  0  0  0  0  0  0  0
  -20.3028   19.7942  -21.7457 C   0  0  0  0  0  0  0  0  0  0  0  0
  -21.3713   19.6512  -22.5220 C   0  0  0  0  0  0  0  0  0  0  0  0
  -21.4016   18.5959  -23.5385 C   0  0  0  0  0  0  0  0  0  0  0  0
  -20.2459   17.7933  -23.5835 C   0  0  0  0  0  0  0  0  0  0  0  0
  -19.1668   17.9953  -22.7444 C   0  0  0  0  0  0  0  0  0  0  0  0
  -22.4447   18.5874  -24.1940 O   0  0  0  0  0  0  0  0  0  0  0  0
  -23.5680   18.5849  -24.8879 C   0  0  0  0  0  0  0  0  0  0  0  0
  -22.5106   20.4225  -22.4461 O   0  0  0  0  0  0  0  0  0  0  0  0
  -22.8018   21.7112  -22.7933 C   0  0  0  0  0  0  0  0  0  0  0  0
  -22.0685   22.3348  -23.8994 C   0  0  0  0  0  0  0  0  0  0  0  0
  -20.8292   23.0967  -23.4498 C   0  0  0  0  0  0  0  0  0  0  0  0
  -20.6331   24.4217  -23.6544 N   0  0  0  0  0  0  0  0  0  0  0  0
  -21.3214   25.1950  -24.6121 C   0  0  0  0  0  0  0  0  0  0  0  0
  -20.3920   26.1203  -25.3767 C   0  0  0  0  0  0  0  0  0  0  0  0
  -19.5713   26.8755  -24.5370 O   0  0  0  0  0  0  0  0  0  0  0  0
  -18.7576   25.9713  -23.8444 C   0  0  0  0  0  0  0  0  0  0  0  0
  -19.6726   25.1779  -22.9144 C   0  0  0  0  0  0  0  0  0  0  0  0
 19 20  1  0  0  0
 20 21  1  0  0  0
 21 22  1  0  0  0
 22 23  1  0  0  0
 23 24  1  0  0  0
 24 25  1  0  0  0
 23 13  1  0  0  0
 13 14  2  0  0  0
 14 15  1  0  0  0
 15 16  2  0  0  0
 16  7  1  0  0  0
  7  8  1  0  0  0
  8  9  2  0  0  0
  8 10  1  0  0  0
 10  1  1  0  0  0
  1  2  2  0  0  0
  2  3  1  0  0  0
  3  4  2  0  0  0
  4 26  1  0  0  0
 26 27  1  0  0  0
 27 28  2  0  0  0
 28 29  1  0  0  0
 29 30  2  0  0  0
 30 31  1  0  0  0
 31 32  2  0  0  0
 32 33  1  0  0  0
 33 39  1  0  0  0
 39 40  1  0  0  0
 40 41  1  0  0  0
 41 42  1  0  0  0
 42 43  1  0  0  0
 43 44  1  0  0  0
 44 45  1  0  0  0
 45 46  1  0  0  0
 46 47  1  0  0  0
 47 48  1  0  0  0
 33 34  2  0  0  0
 34 37  1  0  0  0
 37 38  1  0  0  0
 34 35  1  0  0  0
 35 36  2  0  0  0
  4  5  1  0  0  0
  5  6  2  0  0  0
 16 17  1  0  0  0
 17 18  2  0  0  0
 25 20  1  0  0  0
 18 13  1  0  0  0
  6  1  1  0  0  0
 36 27  1  0  0  0
 36 31  1  0  0  0
 48 43  1  0  0  0
  7 11  1  0  0  0
 10 12  1  0  0  0
M  END
> <minimizedAffinity>
-8.88882

> <CNNscore>
0.3646581769

> <CNNaffinity>
7.0035829544

> <CNN_VS>
2.5539138317

> <CNNaffinity_variance>
0.0246937070

$$$$
[H]c1nc2c([H])c(OC([H])([H])C([H])([H])C([H])([H])N3C([H])([H])C([H])([H])OC([H])([H])C3([H])[H])c(OC([H])([H])[H])c([H])c2c(Oc2c([H])c([H])c(N([H])C(=O)N([H])c3c([H])c([H])c(N4C([H])([H])C([H])([H])N(C([H])([H])[H])C([H])([H])C4([H])[H])c([H])c3[H])c([H])c2[H])c1[H]


 48 53  0  0  0  0  0  0  0  0999 V2000
  -17.1996   12.4813  -21.6561 C   0  0  0  0  0  0  0  0  0  0  0  0
  -16.2873   12.6789  -22.7402 C   0  0  0  0  0  0  0  0  0  0  0  0
  -16.4049   13.9536  -23.4075 C   0  0  0  0  0  0  0  0  0  0  0  0
  -17.2261   14.8625  -23.0962 C   0  0  0  0  0  0  0  0  0  0  0  0
  -18.1053   14.6445  -22.0576 C   0  0  0  0  0  0  0  0  0  0  0  0
  -18.1426   13.5333  -21.3355 C   0  0  0  0  0  0  0  0  0  0  0  0
  -17.6960   10.1480  -19.0109 N   0  0  0  0  0  0  0  0  0  0  0  0
  -16.8352   10.2819  -20.1662 C   0  0  0  0  0  0  0  0  0  0  0  0
  -15.9919    9.3446  -20.3111 O   0  0  0  0  0  0  0  0  0  0  0  0
  -17.0238   11.4009  -20.9203 N   0  0  0  0  0  0  0  0  0  0  0  0
  -16.8562    9.0779  -18.6820 H   0  0  0  0  0  0  0  0  0  0  0  0
  -16.3287   10.7607  -21.9514 H   0  0  0  0  0  0  0  0  0  0  0  0
  -19.8058    9.8712  -15.4954 C   0  0  0  0  0  0  0  0  0  0  0  0
  -19.0313    8.8708  -15.8733 C   0  0  0  0  0  0  0  0  0  0  0  0
  -18.3655    8.9122  -17.0432 C   0  0  0  0  0  0  0  0  0  0  0  0
  -18.3943    9.9175  -17.9398 C   0  0  0  0  0  0  0  0  0  0  0  0
  -19.2951   11.0443  -17.4956 C   0  0  0  0  0  0  0  0  0  0  0  0
  -19.9527   10.9850  -16.3243 C   0  0  0  0  0  0  0  0  0  0  0  0
  -20.3352    9.6893  -10.5232 C   0  0  0  0  0  0  0  0  0  0  0  0
  -21.3263   10.1274  -11.5126 N   0  0  0  0  0  0  0  0  0  0  0  0
  -21.5531    8.9655  -12.3946 C   0  0  0  0  0  0  0  0  0  0  0  0
  -20.3748    8.7616  -13.2932 C   0  0  0  0  0  0  0  0  0  0  0  0
  -20.4255    9.8978  -14.2406 N   0  0  0  0  0  0  0  0  0  0  0  0
  -21.1195   11.0714  -13.7620 C   0  0  0  0  0  0  0  0  0  0  0  0
  -20.7343   11.2118  -12.2781 C   0  0  0  0  0  0  0  0  0  0  0  0
  -17.4032   16.1690  -23.6475 O   0  0  0  0  0  0  0  0  0  0  0  0
  -17.6262   17.1927  -22.6768 C   0  0  0  0  0  0  0  0  0  0  0  0
  -16.6341   17.5232  -21.7819 C   0  0  0  0  0  0  0  0  0  0  0  0
  -16.9206   18.5361  -20.8229 C   0  0  0  0  0  0  0  0  0  0  0  0
  -18.0956   19.0979  -20.8267 N   0  0  0  0  0  0  0  0  0  0  0  0
  -19.0731   18.7965  -21.6784 C   0  0  0  0  0  0  0  0  0  0  0  0
  -20.2936   19.3656  -21.6124 C   0  0  0  0  0  0  0  0  0  0  0  0
  -21.3197   19.0931  -22.4110 C   0  0  0  0  0  0  0  0  0  0  0  0
  -21.1751   18.0944  -23.4738 C   0  0  0  0  0  0  0  0  0  0  0  0
  -19.9071   17.4859  -23.5365 C   0  0  0  0  0  0  0  0  0  0  0  0
  -18.8804   17.8154  -22.6723 C   0  0  0  0  0  0  0  0  0  0  0  0
  -22.1982   17.9530  -24.1453 O   0  0  0  0  0  0  0  0  0  0  0  0
  -23.2979   17.8129  -24.8626 C   0  0  0  0  0  0  0  0  0  0  0  0
  -22.5668   19.6719  -22.3187 O   0  0  0  0  0  0  0  0  0  0  0  0
  -23.6300   19.4925  -21.4799 C   0  0  0  0  0  0  0  0  0  0  0  0
  -23.9975   18.1317  -21.0755 C   0  0  0  0  0  0  0  0  0  0  0  0
  -23.5780   17.7898  -19.6523 C   0  0  0  0  0  0  0  0  0  0  0  0
  -22.5023   17.0287  -19.3368 N   0  0  0  0  0  0  0  0  0  0  0  0
  -21.7355   16.2996  -20.2691 C   0  0  0  0  0  0  0  0  0  0  0  0
  -21.4158   14.8993  -19.7779 C   0  0  0  0  0  0  0  0  0  0  0  0
  -20.8816   14.8885  -18.4881 O   0  0  0  0  0  0  0  0  0  0  0  0
  -21.8684   15.3977  -17.6359 C   0  0  0  0  0  0  0  0  0  0  0  0
  -22.0415   16.8722  -17.9933 C   0  0  0  0  0  0  0  0  0  0  0  0
 19 20  1  0  0  0
 20 21  1  0  0  0
 21 22  1  0  0  0
 22 23  1  0  0  0
 23 24  1  0  0  0
 24 25  1  0  0  0
 23 13  1  0  0  0
 13 14  2  0  0  0
 14 15  1  0  0  0
 15 16  2  0  0  0
 16  7  1  0  0  0
  7  8  1  0  0  0
  8  9  2  0  0  0
  8 10  1  0  0  0
 10  1  1  0  0  0
  1  2  2  0  0  0
  2  3  1  0  0  0
  3  4  2  0  0  0
  4 26  1  0  0  0
 26 27  1  0  0  0
 27 28  2  0  0  0
 28 29  1  0  0  0
 29 30  2  0  0  0
 30 31  1  0  0  0
 31 32  2  0  0  0
 32 33  1  0  0  0
 33 39  1  0  0  0
 39 40  1  0  0  0
 40 41  1  0  0  0
 41 42  1  0  0  0
 42 43  1  0  0  0
 43 44  1  0  0  0
 44 45  1  0  0  0
 45 46  1  0  0  0
 46 47  1  0  0  0
 47 48  1  0  0  0
 33 34  2  0  0  0
 34 37  1  0  0  0
 37 38  1  0  0  0
 34 35  1  0  0  0
 35 36  2  0  0  0
  4  5  1  0  0  0
  5  6  2  0  0  0
 16 17  1  0  0  0
 17 18  2  0  0  0
 25 20  1  0  0  0
 18 13  1  0  0  0
  6  1  1  0  0  0
 36 27  1  0  0  0
 36 31  1  0  0  0
 48 43  1  0  0  0
  7 11  1  0  0  0
 10 12  1  0  0  0
M  END
> <minimizedAffinity>
-8.73164

> <CNNscore>
0.3362044394

> <CNNaffinity>
7.0722565651

> <CNN_VS>
2.3777241707

> <CNNaffinity_variance>
0.4614138603

$$$$
[H]c1nc2c([H])c(OC([H])([H])C([H])([H])C([H])([H])N3C([H])([H])C([H])([H])OC([H])([H])C3([H])[H])c(OC([H])([H])[H])c([H])c2c(Oc2c([H])c([H])c(N([H])C(=O)N([H])c3c([H])c([H])c(N4C([H])([H])C([H])([H])N(C([H])([H])[H])C([H])([H])C4([H])[H])c([H])c3[H])c([H])c2[H])c1[H]


 48 53  0  0  0  0  0  0  0  0999 V2000
  -17.3366   12.6075  -21.6711 C   0  0  0  0  0  0  0  0  0  0  0  0
  -16.4340   12.8877  -22.7450 C   0  0  0  0  0  0  0  0  0  0  0  0
  -16.6449   14.1570  -23.3994 C   0  0  0  0  0  0  0  0  0  0  0  0
  -17.5366   14.9958  -23.0853 C   0  0  0  0  0  0  0  0  0  0  0  0
  -18.4044   14.6984  -22.0568 C   0  0  0  0  0  0  0  0  0  0  0  0
  -18.3609   13.5794  -21.3472 C   0  0  0  0  0  0  0  0  0  0  0  0
  -17.6607   10.2211  -19.0466 N   0  0  0  0  0  0  0  0  0  0  0  0
  -16.8143   10.4259  -20.2021 C   0  0  0  0  0  0  0  0  0  0  0  0
  -15.9074    9.5518  -20.3571 O   0  0  0  0  0  0  0  0  0  0  0  0
  -17.0833   11.5355  -20.9455 N   0  0  0  0  0  0  0  0  0  0  0  0
  -16.7467    9.2100  -18.7290 H   0  0  0  0  0  0  0  0  0  0  0  0
  -16.3472   10.9554  -21.9837 H   0  0  0  0  0  0  0  0  0  0  0  0
  -19.7207    9.7589  -15.5210 C   0  0  0  0  0  0  0  0  0  0  0  0
  -18.9140    8.8000  -15.9371 C   0  0  0  0  0  0  0  0  0  0  0  0
  -18.2629    8.9018  -17.1116 C   0  0  0  0  0  0  0  0  0  0  0  0
  -18.3385    9.9322  -17.9764 C   0  0  0  0  0  0  0  0  0  0  0  0
  -19.2754   11.0106  -17.4889 C   0  0  0  0  0  0  0  0  0  0  0  0
  -19.9176   10.8911  -16.3137 C   0  0  0  0  0  0  0  0  0  0  0  0
  -20.4248   10.5649  -10.6332 C   0  0  0  0  0  0  0  0  0  0  0  0
  -21.3965   10.0476  -11.6033 N   0  0  0  0  0  0  0  0  0  0  0  0
  -20.8036    8.8080  -12.1429 C   0  0  0  0  0  0  0  0  0  0  0  0
  -19.6753    9.1358  -13.0686 C   0  0  0  0  0  0  0  0  0  0  0  0
  -20.3275    9.7240  -14.2601 N   0  0  0  0  0  0  0  0  0  0  0  0
  -21.6252   10.3150  -14.0261 C   0  0  0  0  0  0  0  0  0  0  0  0
  -21.5226   11.0303  -12.6667 C   0  0  0  0  0  0  0  0  0  0  0  0
  -17.8103   16.2910  -23.6240 O   0  0  0  0  0  0  0  0  0  0  0  0
  -17.9698   17.3157  -22.6419 C   0  0  0  0  0  0  0  0  0  0  0  0
  -16.9649   17.5652  -21.7351 C   0  0  0  0  0  0  0  0  0  0  0  0
  -17.1884   18.5837  -20.7655 C   0  0  0  0  0  0  0  0  0  0  0  0
  -18.3213   19.2260  -20.7711 N   0  0  0  0  0  0  0  0  0  0  0  0
  -19.3101   19.0041  -21.6341 C   0  0  0  0  0  0  0  0  0  0  0  0
  -20.4886   19.6560  -21.5702 C   0  0  0  0  0  0  0  0  0  0  0  0
  -21.5242   19.4656  -22.3801 C   0  0  0  0  0  0  0  0  0  0  0  0
  -21.4403   18.4724  -23.4546 C   0  0  0  0  0  0  0  0  0  0  0  0
  -20.2173   17.7778  -23.5153 C   0  0  0  0  0  0  0  0  0  0  0  0
  -19.1777   18.0242  -22.6391 C   0  0  0  0  0  0  0  0  0  0  0  0
  -22.4650   18.4110  -24.1358 O   0  0  0  0  0  0  0  0  0  0  0  0
  -23.5683   18.3380  -24.8574 C   0  0  0  0  0  0  0  0  0  0  0  0
  -22.7287   20.1287  -22.2900 O   0  0  0  0  0  0  0  0  0  0  0  0
  -23.1013   21.4332  -22.4499 C   0  0  0  0  0  0  0  0  0  0  0  0
  -23.1670   21.9954  -23.8026 C   0  0  0  0  0  0  0  0  0  0  0  0
  -21.8756   22.6738  -24.2389 C   0  0  0  0  0  0  0  0  0  0  0  0
  -21.0227   22.1672  -25.1619 N   0  0  0  0  0  0  0  0  0  0  0  0
  -19.6167   22.2380  -25.0778 C   0  0  0  0  0  0  0  0  0  0  0  0
  -18.9824   22.6277  -26.4008 C   0  0  0  0  0  0  0  0  0  0  0  0
  -19.4379   21.8506  -27.4674 O   0  0  0  0  0  0  0  0  0  0  0  0
  -20.8102   22.0967  -27.5919 C   0  0  0  0  0  0  0  0  0  0  0  0
  -21.4772   21.5132  -26.3484 C   0  0  0  0  0  0  0  0  0  0  0  0
 19 20  1  0  0  0
 20 21  1  0  0  0
 21 22  1  0  0  0
 22 23  1  0  0  0
 23 24  1  0  0  0
 24 25  1  0  0  0
 23 13  1  0  0  0
 13 14  2  0  0  0
 14 15  1  0  0  0
 15 16  2  0  0  0
 16  7  1  0  0  0
  7  8  1  0  0  0
  8  9  2  0  0  0
  8 10  1  0  0  0
 10  1  1  0  0  0
  1  2  2  0  0  0
  2  3  1  0  0  0
  3  4  2  0  0  0
  4 26  1  0  0  0
 26 27  1  0  0  0
 27 28  2  0  0  0
 28 29  1  0  0  0
 29 30  2  0  0  0
 30 31  1  0  0  0
 31 32  2  0  0  0
 32 33  1  0  0  0
 33 39  1  0  0  0
 39 40  1  0  0  0
 40 41  1  0  0  0
 41 42  1  0  0  0
 42 43  1  0  0  0
 43 44  1  0  0  0
 44 45  1  0  0  0
 45 46  1  0  0  0
 46 47  1  0  0  0
 47 48  1  0  0  0
 33 34  2  0  0  0
 34 37  1  0  0  0
 37 38  1  0  0  0
 34 35  1  0  0  0
 35 36  2  0  0  0
  4  5  1  0  0  0
  5  6  2  0  0  0
 16 17  1  0  0  0
 17 18  2  0  0  0
 25 20  1  0  0  0
 18 13  1  0  0  0
  6  1  1  0  0  0
 36 27  1  0  0  0
 36 31  1  0  0  0
 48 43  1  0  0  0
  7 11  1  0  0  0
 10 12  1  0  0  0
M  END
> <minimizedAffinity>
-9.08477

> <CNNscore>
0.3058942258

> <CNNaffinity>
7.1087846756

> <CNN_VS>
2.1745362282

> <CNNaffinity_variance>
0.0260602590

$$$$
[H]c1nc2c([H])c(OC([H])([H])C([H])([H])C([H])([H])N3C([H])([H])C([H])([H])OC([H])([H])C3([H])[H])c(OC([H])([H])[H])c([H])c2c(Oc2c([H])c([H])c(N([H])C(=O)N([H])c3c([H])c([H])c(N4C([H])([H])C([H])([H])N(C([H])([H])[H])C([H])([H])C4([H])[H])c([H])c3[H])c([H])c2[H])c1[H]


 48 53  0  0  0  0  0  0  0  0999 V2000
  -17.6888   10.6730  -19.0151 C   0  0  0  0  0  0  0  0  0  0  0  0
  -18.2742   11.8842  -19.5018 C   0  0  0  0  0  0  0  0  0  0  0  0
  -17.6355   12.4397  -20.6711 C   0  0  0  0  0  0  0  0  0  0  0  0
  -16.6397   11.9344  -21.2629 C   0  0  0  0  0  0  0  0  0  0  0  0
  -16.0831   10.7749  -20.7679 C   0  0  0  0  0  0  0  0  0  0  0  0
  -16.5358   10.1284  -19.7026 C   0  0  0  0  0  0  0  0  0  0  0  0
  -19.5536   10.2296  -16.0128 N   0  0  0  0  0  0  0  0  0  0  0  0
  -18.9951    9.3940  -17.0536 C   0  0  0  0  0  0  0  0  0  0  0  0
  -19.1744    8.1486  -16.8875 O   0  0  0  0  0  0  0  0  0  0  0  0
  -18.3323   10.0480  -18.0481 N   0  0  0  0  0  0  0  0  0  0  0  0
  -19.7953    9.0158  -15.3596 H   0  0  0  0  0  0  0  0  0  0  0  0
  -18.4576    8.8903  -18.8228 H   0  0  0  0  0  0  0  0  0  0  0  0
  -21.2349   11.8167  -12.6155 C   0  0  0  0  0  0  0  0  0  0  0  0
  -21.7078   12.1588  -13.7999 C   0  0  0  0  0  0  0  0  0  0  0  0
  -21.1467   11.6930  -14.9322 C   0  0  0  0  0  0  0  0  0  0  0  0
  -20.0876   10.8640  -15.0126 C   0  0  0  0  0  0  0  0  0  0  0  0
  -19.5542   10.4960  -13.6493 C   0  0  0  0  0  0  0  0  0  0  0  0
  -20.1269   10.9716  -12.5297 C   0  0  0  0  0  0  0  0  0  0  0  0
  -22.0336   14.2350   -8.3086 C   0  0  0  0  0  0  0  0  0  0  0  0
  -22.9804   13.3958   -9.0519 N   0  0  0  0  0  0  0  0  0  0  0  0
  -22.3581   12.0592   -9.1272 C   0  0  0  0  0  0  0  0  0  0  0  0
  -21.2201   12.0735  -10.0979 C   0  0  0  0  0  0  0  0  0  0  0  0
  -21.8619   12.2035  -11.4254 N   0  0  0  0  0  0  0  0  0  0  0  0
  -23.1730   12.8112  -11.4214 C   0  0  0  0  0  0  0  0  0  0  0  0
  -23.1049   13.9513  -10.3891 C   0  0  0  0  0  0  0  0  0  0  0  0
  -15.9568   12.3636  -22.4427 O   0  0  0  0  0  0  0  0  0  0  0  0
  -16.8017   12.9586  -23.4287 C   0  0  0  0  0  0  0  0  0  0  0  0
  -17.2564   12.2104  -24.4906 C   0  0  0  0  0  0  0  0  0  0  0  0
  -18.0776   12.8623  -25.4540 C   0  0  0  0  0  0  0  0  0  0  0  0
  -18.3573   14.1247  -25.2977 N   0  0  0  0  0  0  0  0  0  0  0  0
  -17.9297   14.8720  -24.2827 C   0  0  0  0  0  0  0  0  0  0  0  0
  -18.1992   16.1897  -24.1882 C   0  0  0  0  0  0  0  0  0  0  0  0
  -17.7833   16.9981  -23.2195 C   0  0  0  0  0  0  0  0  0  0  0  0
  -16.9543   16.4712  -22.1318 C   0  0  0  0  0  0  0  0  0  0  0  0
  -16.6569   15.0990  -22.2347 C   0  0  0  0  0  0  0  0  0  0  0  0
  -17.1216   14.3129  -23.2717 C   0  0  0  0  0  0  0  0  0  0  0  0
  -16.6534   17.3259  -21.2972 O   0  0  0  0  0  0  0  0  0  0  0  0
  -16.3412   18.2480  -20.4052 C   0  0  0  0  0  0  0  0  0  0  0  0
  -18.0536   18.3473  -23.1474 O   0  0  0  0  0  0  0  0  0  0  0  0
  -19.1835   19.0937  -23.3275 C   0  0  0  0  0  0  0  0  0  0  0  0
  -20.4334   18.6591  -22.6960 C   0  0  0  0  0  0  0  0  0  0  0  0
  -21.3108   17.8144  -23.6099 C   0  0  0  0  0  0  0  0  0  0  0  0
  -22.5247   18.2009  -24.0716 N   0  0  0  0  0  0  0  0  0  0  0  0
  -23.2274   17.5593  -25.1125 C   0  0  0  0  0  0  0  0  0  0  0  0
  -23.8278   18.5495  -26.0939 C   0  0  0  0  0  0  0  0  0  0  0  0
  -24.5623   19.5559  -25.4641 O   0  0  0  0  0  0  0  0  0  0  0  0
  -23.6645   20.2750  -24.6664 C   0  0  0  0  0  0  0  0  0  0  0  0
  -23.2181   19.3355  -23.5485 C   0  0  0  0  0  0  0  0  0  0  0  0
 19 20  1  0  0  0
 20 21  1  0  0  0
 21 22  1  0  0  0
 22 23  1  0  0  0
 23 24  1  0  0  0
 24 25  1  0  0  0
 23 13  1  0  0  0
 13 14  2  0  0  0
 14 15  1  0  0  0
 15 16  2  0  0  0
 16  7  1  0  0  0
  7  8  1  0  0  0
  8  9  2  0  0  0
  8 10  1  0  0  0
 10  1  1  0  0  0
  1  2  2  0  0  0
  2  3  1  0  0  0
  3  4  2  0  0  0
  4 26  1  0  0  0
 26 27  1  0  0  0
 27 28  2  0  0  0
 28 29  1  0  0  0
 29 30  2  0  0  0
 30 31  1  0  0  0
 31 32  2  0  0  0
 32 33  1  0  0  0
 33 39  1  0  0  0
 39 40  1  0  0  0
 40 41  1  0  0  0
 41 42  1  0  0  0
 42 43  1  0  0  0
 43 44  1  0  0  0
 44 45  1  0  0  0
 45 46  1  0  0  0
 46 47  1  0  0  0
 47 48  1  0  0  0
 33 34  2  0  0  0
 34 37  1  0  0  0
 37 38  1  0  0  0
 34 35  1  0  0  0
 35 36  2  0  0  0
  4  5  1  0  0  0
  5  6  2  0  0  0
 16 17  1  0  0  0
 17 18  2  0  0  0
 25 20  1  0  0  0
 18 13  1  0  0  0
  6  1  1  0  0  0
 36 27  1  0  0  0
 36 31  1  0  0  0
 48 43  1  0  0  0
  7 11  1  0  0  0
 10 12  1  0  0  0
M  END
> <minimizedAffinity>
-9.15928

> <CNNscore>
0.2011864632

> <CNNaffinity>
6.5883169174

> <CNN_VS>
1.3254802227

> <CNNaffinity_variance>
0.2986977100

$$$$
[H]c1nc2c([H])c(OC([H])([H])C([H])([H])C([H])([H])N3C([H])([H])C([H])([H])OC([H])([H])C3([H])[H])c(OC([H])([H])[H])c([H])c2c(Oc2c([H])c([H])c(N([H])C(=O)N([H])c3c([H])c([H])c(N4C([H])([H])C([H])([H])N(C([H])([H])[H])C([H])([H])C4([H])[H])c([H])c3[H])c([H])c2[H])c1[H]


 48 53  0  0  0  0  0  0  0  0999 V2000
  -18.4998   10.8523  -18.1034 C   0  0  0  0  0  0  0  0  0  0  0  0
  -18.3165    9.4851  -17.7244 C   0  0  0  0  0  0  0  0  0  0  0  0
  -19.1275    9.0497  -16.6124 C   0  0  0  0  0  0  0  0  0  0  0  0
  -19.9553    9.7744  -15.9905 C   0  0  0  0  0  0  0  0  0  0  0  0
  -20.1049   11.0927  -16.3636 C   0  0  0  0  0  0  0  0  0  0  0  0
  -19.4412   11.6637  -17.3590 C   0  0  0  0  0  0  0  0  0  0  0  0
  -17.6394   12.9608  -20.8423 N   0  0  0  0  0  0  0  0  0  0  0  0
  -17.2737   11.6500  -20.3506 C   0  0  0  0  0  0  0  0  0  0  0  0
  -16.4311   11.0299  -21.0691 O   0  0  0  0  0  0  0  0  0  0  0  0
  -17.8991   11.2488  -19.2086 N   0  0  0  0  0  0  0  0  0  0  0  0
  -16.8998   12.5914  -21.9715 H   0  0  0  0  0  0  0  0  0  0  0  0
  -16.8974   10.2842  -19.0602 H   0  0  0  0  0  0  0  0  0  0  0  0
  -18.8172   16.6188  -22.2980 C   0  0  0  0  0  0  0  0  0  0  0  0
  -18.3982   15.6867  -23.1342 C   0  0  0  0  0  0  0  0  0  0  0  0
  -17.9605   14.4956  -22.6831 C   0  0  0  0  0  0  0  0  0  0  0  0
  -17.8908   14.1099  -21.3940 C   0  0  0  0  0  0  0  0  0  0  0  0
  -18.3612   15.1937  -20.4545 C   0  0  0  0  0  0  0  0  0  0  0  0
  -18.7940   16.3772  -20.9232 C   0  0  0  0  0  0  0  0  0  0  0  0
  -21.3205   20.9500  -22.2001 C   0  0  0  0  0  0  0  0  0  0  0  0
  -20.4392   20.4503  -23.2615 N   0  0  0  0  0  0  0  0  0  0  0  0
  -21.0375   19.1788  -23.7140 C   0  0  0  0  0  0  0  0  0  0  0  0
  -20.8225   18.1127  -22.6870 C   0  0  0  0  0  0  0  0  0  0  0  0
  -19.3721   17.8233  -22.7458 N   0  0  0  0  0  0  0  0  0  0  0  0
  -18.5475   18.8963  -23.2526 C   0  0  0  0  0  0  0  0  0  0  0  0
  -19.1378   20.1924  -22.6680 C   0  0  0  0  0  0  0  0  0  0  0  0
  -20.8381    9.4462  -14.9156 O   0  0  0  0  0  0  0  0  0  0  0  0
  -20.2140    9.4086  -13.6314 C   0  0  0  0  0  0  0  0  0  0  0  0
  -19.2682    8.4487  -13.3514 C   0  0  0  0  0  0  0  0  0  0  0  0
  -18.6958    8.4464  -12.0476 C   0  0  0  0  0  0  0  0  0  0  0  0
  -19.0885    9.3365  -11.1817 N   0  0  0  0  0  0  0  0  0  0  0  0
  -20.0018   10.2738  -11.4248 C   0  0  0  0  0  0  0  0  0  0  0  0
  -20.4181   11.1427  -10.4817 C   0  0  0  0  0  0  0  0  0  0  0  0
  -21.3419   12.0828  -10.6480 C   0  0  0  0  0  0  0  0  0  0  0  0
  -22.0039   12.2370  -11.9464 C   0  0  0  0  0  0  0  0  0  0  0  0
  -21.5839   11.3214  -12.9299 C   0  0  0  0  0  0  0  0  0  0  0  0
  -20.6161   10.3646  -12.6905 C   0  0  0  0  0  0  0  0  0  0  0  0
  -22.8262   13.1543  -11.9626 O   0  0  0  0  0  0  0  0  0  0  0  0
  -23.7042   14.1399  -11.9915 C   0  0  0  0  0  0  0  0  0  0  0  0
  -21.7684   12.9520   -9.6676 O   0  0  0  0  0  0  0  0  0  0  0  0
  -21.1207   13.7495   -8.7674 C   0  0  0  0  0  0  0  0  0  0  0  0
  -21.0992   13.3585   -7.3543 C   0  0  0  0  0  0  0  0  0  0  0  0
  -22.3358   12.5819   -6.9229 C   0  0  0  0  0  0  0  0  0  0  0  0
  -22.3225   11.2861   -6.5271 N   0  0  0  0  0  0  0  0  0  0  0  0
  -21.4601   10.2985   -7.0466 C   0  0  0  0  0  0  0  0  0  0  0  0
  -22.1862    8.9963   -7.3321 C   0  0  0  0  0  0  0  0  0  0  0  0
  -22.9495    8.5553   -6.2495 O   0  0  0  0  0  0  0  0  0  0  0  0
  -23.9348    9.5242   -6.0261 C   0  0  0  0  0  0  0  0  0  0  0  0
  -23.2162   10.7785   -5.5344 C   0  0  0  0  0  0  0  0  0  0  0  0
 19 20  1  0  0  0
 20 21  1  0  0  0
 21 22  1  0  0  0
 22 23  1  0  0  0
 23 24  1  0  0  0
 24 25  1  0  0  0
 23 13  1  0  0  0
 13 14  2  0  0  0
 14 15  1  0  0  0
 15 16  2  0  0  0
 16  7  1  0  0  0
  7  8  1  0  0  0
  8  9  2  0  0  0
  8 10  1  0  0  0
 10  1  1  0  0  0
  1  2  2  0  0  0
  2  3  1  0  0  0
  3  4  2  0  0  0
  4 26  1  0  0  0
 26 27  1  0  0  0
 27 28  2  0  0  0
 28 29  1  0  0  0
 29 30  2  0  0  0
 30 31  1  0  0  0
 31 32  2  0  0  0
 32 33  1  0  0  0
 33 39  1  0  0  0
 39 40  1  0  0  0
 40 41  1  0  0  0
 41 42  1  0  0  0
 42 43  1  0  0  0
 43 44  1  0  0  0
 44 45  1  0  0  0
 45 46  1  0  0  0
 46 47  1  0  0  0
 47 48  1  0  0  0
 33 34  2  0  0  0
 34 37  1  0  0  0
 37 38  1  0  0  0
 34 35  1  0  0  0
 35 36  2  0  0  0
  4  5  1  0  0  0
  5  6  2  0  0  0
 16 17  1  0  0  0
 17 18  2  0  0  0
 25 20  1  0  0  0
 18 13  1  0  0  0
  6  1  1  0  0  0
 36 27  1  0  0  0
 36 31  1  0  0  0
 48 43  1  0  0  0
  7 11  1  0  0  0
 10 12  1  0  0  0
M  END
> <minimizedAffinity>
-7.73763

> <CNNscore>
0.2003439814

> <CNNaffinity>
6.3677520752

> <CNN_VS>
1.2757408619

> <CNNaffinity_variance>
0.0167906955

$$$$
[H]c1nc2c([H])c(OC([H])([H])C([H])([H])C([H])([H])N3C([H])([H])C([H])([H])OC([H])([H])C3([H])[H])c(OC([H])([H])[H])c([H])c2c(Oc2c([H])c([H])c(N([H])C(=O)N([H])c3c([H])c([H])c(N4C([H])([H])C([H])([H])N(C([H])([H])[H])C([H])([H])C4([H])[H])c([H])c3[H])c([H])c2[H])c1[H]


 48 53  0  0  0  0  0  0  0  0999 V2000
  -18.4774   10.8181  -18.1402 C   0  0  0  0  0  0  0  0  0  0  0  0
  -18.2452    9.4683  -17.7269 C   0  0  0  0  0  0  0  0  0  0  0  0
  -19.0971    9.0063  -16.6570 C   0  0  0  0  0  0  0  0  0  0  0  0
  -19.9977    9.6947  -16.0979 C   0  0  0  0  0  0  0  0  0  0  0  0
  -20.1940   10.9974  -16.5025 C   0  0  0  0  0  0  0  0  0  0  0  0
  -19.5030   11.5886  -17.4671 C   0  0  0  0  0  0  0  0  0  0  0  0
  -17.5488   12.9416  -20.8451 N   0  0  0  0  0  0  0  0  0  0  0  0
  -17.1632   11.6475  -20.3253 C   0  0  0  0  0  0  0  0  0  0  0  0
  -16.2621   11.0543  -20.9938 O   0  0  0  0  0  0  0  0  0  0  0  0
  -17.8335   11.2301  -19.2151 N   0  0  0  0  0  0  0  0  0  0  0  0
  -16.7377   12.5930  -21.9310 H   0  0  0  0  0  0  0  0  0  0  0  0
  -16.8073   10.3029  -19.0070 H   0  0  0  0  0  0  0  0  0  0  0  0
  -18.7262   16.5888  -22.3278 C   0  0  0  0  0  0  0  0  0  0  0  0
  -18.4427   15.6050  -23.1616 C   0  0  0  0  0  0  0  0  0  0  0  0
  -18.0081   14.4139  -22.7074 C   0  0  0  0  0  0  0  0  0  0  0  0
  -17.8115   14.0779  -21.4176 C   0  0  0  0  0  0  0  0  0  0  0  0
  -18.1280   15.2197  -20.4824 C   0  0  0  0  0  0  0  0  0  0  0  0
  -18.5601   16.4023  -20.9542 C   0  0  0  0  0  0  0  0  0  0  0  0
  -21.2054   20.9330  -22.1948 C   0  0  0  0  0  0  0  0  0  0  0  0
  -20.3311   20.4346  -23.2626 N   0  0  0  0  0  0  0  0  0  0  0  0
  -20.9380   19.1691  -23.7201 C   0  0  0  0  0  0  0  0  0  0  0  0
  -20.7249   18.0959  -22.7001 C   0  0  0  0  0  0  0  0  0  0  0  0
  -19.2762   17.7989  -22.7664 N   0  0  0  0  0  0  0  0  0  0  0  0
  -18.4479   18.8704  -23.2702 C   0  0  0  0  0  0  0  0  0  0  0  0
  -19.0288   20.1662  -22.6757 C   0  0  0  0  0  0  0  0  0  0  0  0
  -20.9245    9.3352  -15.0712 O   0  0  0  0  0  0  0  0  0  0  0  0
  -20.6820    9.9645  -13.8121 C   0  0  0  0  0  0  0  0  0  0  0  0
  -19.5408    9.6696  -13.1014 C   0  0  0  0  0  0  0  0  0  0  0  0
  -19.3628   10.3108  -11.8426 C   0  0  0  0  0  0  0  0  0  0  0  0
  -20.2768   11.1350  -11.4166 N   0  0  0  0  0  0  0  0  0  0  0  0
  -21.3898   11.4365  -12.0815 C   0  0  0  0  0  0  0  0  0  0  0  0
  -22.3360   12.2547  -11.5785 C   0  0  0  0  0  0  0  0  0  0  0  0
  -23.4788   12.5764  -12.1748 C   0  0  0  0  0  0  0  0  0  0  0  0
  -23.7968   12.0237  -13.4944 C   0  0  0  0  0  0  0  0  0  0  0  0
  -22.8189   11.1561  -14.0166 C   0  0  0  0  0  0  0  0  0  0  0  0
  -21.6491   10.8618  -13.3425 C   0  0  0  0  0  0  0  0  0  0  0  0
  -24.8787   12.4163  -13.9338 O   0  0  0  0  0  0  0  0  0  0  0  0
  -26.0324   12.8444  -14.4124 C   0  0  0  0  0  0  0  0  0  0  0  0
  -24.4436   13.4012  -11.6386 O   0  0  0  0  0  0  0  0  0  0  0  0
  -25.4674   13.2051  -10.7558 C   0  0  0  0  0  0  0  0  0  0  0  0
  -25.3603   13.7634   -9.4041 C   0  0  0  0  0  0  0  0  0  0  0  0
  -24.3834   13.0078   -8.5135 C   0  0  0  0  0  0  0  0  0  0  0  0
  -23.3193   13.5756   -7.8959 N   0  0  0  0  0  0  0  0  0  0  0  0
  -22.4067   14.4531   -8.5171 C   0  0  0  0  0  0  0  0  0  0  0  0
  -20.9669   14.1266   -8.1639 C   0  0  0  0  0  0  0  0  0  0  0  0
  -20.7649   13.9953   -6.7887 O   0  0  0  0  0  0  0  0  0  0  0  0
  -21.5386   12.9078   -6.3669 C   0  0  0  0  0  0  0  0  0  0  0  0
  -23.0006   13.3185   -6.5269 C   0  0  0  0  0  0  0  0  0  0  0  0
 19 20  1  0  0  0
 20 21  1  0  0  0
 21 22  1  0  0  0
 22 23  1  0  0  0
 23 24  1  0  0  0
 24 25  1  0  0  0
 23 13  1  0  0  0
 13 14  2  0  0  0
 14 15  1  0  0  0
 15 16  2  0  0  0
 16  7  1  0  0  0
  7  8  1  0  0  0
  8  9  2  0  0  0
  8 10  1  0  0  0
 10  1  1  0  0  0
  1  2  2  0  0  0
  2  3  1  0  0  0
  3  4  2  0  0  0
  4 26  1  0  0  0
 26 27  1  0  0  0
 27 28  2  0  0  0
 28 29  1  0  0  0
 29 30  2  0  0  0
 30 31  1  0  0  0
 31 32  2  0  0  0
 32 33  1  0  0  0
 33 39  1  0  0  0
 39 40  1  0  0  0
 40 41  1  0  0  0
 41 42  1  0  0  0
 42 43  1  0  0  0
 43 44  1  0  0  0
 44 45  1  0  0  0
 45 46  1  0  0  0
 46 47  1  0  0  0
 47 48  1  0  0  0
 33 34  2  0  0  0
 34 37  1  0  0  0
 37 38  1  0  0  0
 34 35  1  0  0  0
 35 36  2  0  0  0
  4  5  1  0  0  0
  5  6  2  0  0  0
 16 17  1  0  0  0
 17 18  2  0  0  0
 25 20  1  0  0  0
 18 13  1  0  0  0
  6  1  1  0  0  0
 36 27  1  0  0  0
 36 31  1  0  0  0
 48 43  1  0  0  0
  7 11  1  0  0  0
 10 12  1  0  0  0
M  END
> <minimizedAffinity>
-7.41473

> <CNNscore>
0.1653082073

> <CNNaffinity>
6.5310578346

> <CNN_VS>
1.0796374083

> <CNNaffinity_variance>
0.0715810061

$$$$
[H]c1nc2c([H])c(OC([H])([H])C([H])([H])C([H])([H])N3C([H])([H])C([H])([H])OC([H])([H])C3([H])[H])c(OC([H])([H])[H])c([H])c2c(Oc2c([H])c([H])c(N([H])C(=O)N([H])c3c([H])c([H])c(N4C([H])([H])C([H])([H])N(C([H])([H])[H])C([H])([H])C4([H])[H])c([H])c3[H])c([H])c2[H])c1[H]


 48 53  0  0  0  0  0  0  0  0999 V2000
  -18.4729   10.8278  -18.1616 C   0  0  0  0  0  0  0  0  0  0  0  0
  -18.2798    9.4590  -17.7934 C   0  0  0  0  0  0  0  0  0  0  0  0
  -19.0921    9.0073  -16.6890 C   0  0  0  0  0  0  0  0  0  0  0  0
  -19.9288    9.7199  -16.0646 C   0  0  0  0  0  0  0  0  0  0  0  0
  -20.0877   11.0400  -16.4272 C   0  0  0  0  0  0  0  0  0  0  0  0
  -19.4243   11.6250  -17.4147 C   0  0  0  0  0  0  0  0  0  0  0  0
  -17.6170   12.9672  -20.8779 N   0  0  0  0  0  0  0  0  0  0  0  0
  -17.2433   11.6550  -20.3963 C   0  0  0  0  0  0  0  0  0  0  0  0
  -16.3929   11.0478  -21.1166 O   0  0  0  0  0  0  0  0  0  0  0  0
  -17.8705   11.2388  -19.2606 N   0  0  0  0  0  0  0  0  0  0  0  0
  -16.8698   12.6135  -22.0071 H   0  0  0  0  0  0  0  0  0  0  0  0
  -16.8620   10.2806  -19.1164 H   0  0  0  0  0  0  0  0  0  0  0  0
  -18.8183   16.6275  -22.3084 C   0  0  0  0  0  0  0  0  0  0  0  0
  -18.3815   15.7083  -23.1497 C   0  0  0  0  0  0  0  0  0  0  0  0
  -17.9359   14.5173  -22.7062 C   0  0  0  0  0  0  0  0  0  0  0  0
  -17.8749   14.1192  -21.4205 C   0  0  0  0  0  0  0  0  0  0  0  0
  -18.3657   15.1885  -20.4748 C   0  0  0  0  0  0  0  0  0  0  0  0
  -18.8061   16.3722  -20.9358 C   0  0  0  0  0  0  0  0  0  0  0  0
  -21.2409   21.0029  -22.1582 C   0  0  0  0  0  0  0  0  0  0  0  0
  -20.4370   20.4632  -23.2607 N   0  0  0  0  0  0  0  0  0  0  0  0
  -21.0831   19.1921  -23.6433 C   0  0  0  0  0  0  0  0  0  0  0  0
  -20.8202   18.1468  -22.6062 C   0  0  0  0  0  0  0  0  0  0  0  0
  -19.3813   17.8307  -22.7495 N   0  0  0  0  0  0  0  0  0  0  0  0
  -18.5736   18.8770  -23.3334 C   0  0  0  0  0  0  0  0  0  0  0  0
  -19.1048   20.1965  -22.7445 C   0  0  0  0  0  0  0  0  0  0  0  0
  -20.8136    9.3751  -14.9967 O   0  0  0  0  0  0  0  0  0  0  0  0
  -20.1988    9.3486  -13.7077 C   0  0  0  0  0  0  0  0  0  0  0  0
  -19.2622    8.3852  -13.4093 C   0  0  0  0  0  0  0  0  0  0  0  0
  -18.6991    8.3946  -12.1015 C   0  0  0  0  0  0  0  0  0  0  0  0
  -19.0911    9.2981  -11.2494 N   0  0  0  0  0  0  0  0  0  0  0  0
  -19.9957   10.2391  -11.5103 C   0  0  0  0  0  0  0  0  0  0  0  0
  -20.4122   11.1224  -10.5808 C   0  0  0  0  0  0  0  0  0  0  0  0
  -21.3278   12.0672  -10.7651 C   0  0  0  0  0  0  0  0  0  0  0  0
  -21.9795   12.2105  -12.0699 C   0  0  0  0  0  0  0  0  0  0  0  0
  -21.5594   11.2799  -13.0392 C   0  0  0  0  0  0  0  0  0  0  0  0
  -20.6005   10.3189  -12.7814 C   0  0  0  0  0  0  0  0  0  0  0  0
  -22.7948   13.1334  -12.1032 O   0  0  0  0  0  0  0  0  0  0  0  0
  -23.6608   14.1292  -12.1454 C   0  0  0  0  0  0  0  0  0  0  0  0
  -21.7547   12.9514   -9.7984 O   0  0  0  0  0  0  0  0  0  0  0  0
  -22.6795   12.8782   -8.7956 C   0  0  0  0  0  0  0  0  0  0  0  0
  -23.3855   11.6133   -8.5677 C   0  0  0  0  0  0  0  0  0  0  0  0
  -24.6002   11.4282   -9.4670 C   0  0  0  0  0  0  0  0  0  0  0  0
  -24.8844   10.2861  -10.1385 N   0  0  0  0  0  0  0  0  0  0  0  0
  -23.9190    9.3733  -10.6114 C   0  0  0  0  0  0  0  0  0  0  0  0
  -24.2143    8.9085  -12.0259 C   0  0  0  0  0  0  0  0  0  0  0  0
  -25.5275    8.4617  -12.1842 O   0  0  0  0  0  0  0  0  0  0  0  0
  -26.3617    9.5587  -11.9394 C   0  0  0  0  0  0  0  0  0  0  0  0
  -26.2219    9.8966  -10.4568 C   0  0  0  0  0  0  0  0  0  0  0  0
 19 20  1  0  0  0
 20 21  1  0  0  0
 21 22  1  0  0  0
 22 23  1  0  0  0
 23 24  1  0  0  0
 24 25  1  0  0  0
 23 13  1  0  0  0
 13 14  2  0  0  0
 14 15  1  0  0  0
 15 16  2  0  0  0
 16  7  1  0  0  0
  7  8  1  0  0  0
  8  9  2  0  0  0
  8 10  1  0  0  0
 10  1  1  0  0  0
  1  2  2  0  0  0
  2  3  1  0  0  0
  3  4  2  0  0  0
  4 26  1  0  0  0
 26 27  1  0  0  0
 27 28  2  0  0  0
 28 29  1  0  0  0
 29 30  2  0  0  0
 30 31  1  0  0  0
 31 32  2  0  0  0
 32 33  1  0  0  0
 33 39  1  0  0  0
 39 40  1  0  0  0
 40 41  1  0  0  0
 41 42  1  0  0  0
 42 43  1  0  0  0
 43 44  1  0  0  0
 44 45  1  0  0  0
 45 46  1  0  0  0
 46 47  1  0  0  0
 47 48  1  0  0  0
 33 34  2  0  0  0
 34 37  1  0  0  0
 37 38  1  0  0  0
 34 35  1  0  0  0
 35 36  2  0  0  0
  4  5  1  0  0  0
  5  6  2  0  0  0
 16 17  1  0  0  0
 17 18  2  0  0  0
 25 20  1  0  0  0
 18 13  1  0  0  0
  6  1  1  0  0  0
 36 27  1  0  0  0
 36 31  1  0  0  0
 48 43  1  0  0  0
  7 11  1  0  0  0
 10 12  1  0  0  0
M  END
> <minimizedAffinity>
-7.14594

> <CNNscore>
0.1516175568

> <CNNaffinity>
6.4360342026

> <CNN_VS>
0.9758157730

> <CNNaffinity_variance>
0.0309859160

$$$$
[H]c1nc2c([H])c(OC([H])([H])C([H])([H])C([H])([H])N3C([H])([H])C([H])([H])OC([H])([H])C3([H])[H])c(OC([H])([H])[H])c([H])c2c(Oc2c([H])c([H])c(N([H])C(=O)N([H])c3c([H])c([H])c(N4C([H])([H])C([H])([H])N(C([H])([H])[H])C([H])([H])C4([H])[H])c([H])c3[H])c([H])c2[H])c1[H]


 48 53  0  0  0  0  0  0  0  0999 V2000
  -18.5312   10.7422  -18.0816 C   0  0  0  0  0  0  0  0  0  0  0  0
  -18.2394    9.4143  -17.6366 C   0  0  0  0  0  0  0  0  0  0  0  0
  -19.0741    8.9384  -16.5592 C   0  0  0  0  0  0  0  0  0  0  0  0
  -20.0075    9.5974  -16.0191 C   0  0  0  0  0  0  0  0  0  0  0  0
  -20.2613   10.8802  -16.4542 C   0  0  0  0  0  0  0  0  0  0  0  0
  -19.5937   11.4803  -17.4299 C   0  0  0  0  0  0  0  0  0  0  0  0
  -17.6334   12.8805  -20.7853 N   0  0  0  0  0  0  0  0  0  0  0  0
  -17.2468   11.5805  -20.2811 C   0  0  0  0  0  0  0  0  0  0  0  0
  -16.3597   10.9873  -20.9680 O   0  0  0  0  0  0  0  0  0  0  0  0
  -17.9020   11.1586  -19.1635 N   0  0  0  0  0  0  0  0  0  0  0  0
  -16.8415   12.5354  -21.8864 H   0  0  0  0  0  0  0  0  0  0  0  0
  -16.8777   10.2244  -18.9783 H   0  0  0  0  0  0  0  0  0  0  0  0
  -18.8671   16.5028  -22.2831 C   0  0  0  0  0  0  0  0  0  0  0  0
  -18.3854   15.5866  -23.1027 C   0  0  0  0  0  0  0  0  0  0  0  0
  -17.9286   14.4089  -22.6357 C   0  0  0  0  0  0  0  0  0  0  0  0
  -17.8988   14.0224  -21.3453 C   0  0  0  0  0  0  0  0  0  0  0  0
  -18.4408   15.0883  -20.4243 C   0  0  0  0  0  0  0  0  0  0  0  0
  -18.8917   16.2587  -20.9087 C   0  0  0  0  0  0  0  0  0  0  0  0
  -21.3803   20.8293  -22.2434 C   0  0  0  0  0  0  0  0  0  0  0  0
  -20.5350   20.2959  -23.3177 N   0  0  0  0  0  0  0  0  0  0  0  0
  -21.1445   19.0085  -23.7057 C   0  0  0  0  0  0  0  0  0  0  0  0
  -20.8900   17.9783  -22.6515 C   0  0  0  0  0  0  0  0  0  0  0  0
  -19.4415   17.6903  -22.7515 N   0  0  0  0  0  0  0  0  0  0  0  0
  -18.6389   18.7474  -23.3229 C   0  0  0  0  0  0  0  0  0  0  0  0
  -19.2128   20.0611  -22.7620 C   0  0  0  0  0  0  0  0  0  0  0  0
  -20.9216    9.2195  -14.9875 O   0  0  0  0  0  0  0  0  0  0  0  0
  -20.7096    7.9076  -14.4643 C   0  0  0  0  0  0  0  0  0  0  0  0
  -21.1924    6.8091  -15.1386 C   0  0  0  0  0  0  0  0  0  0  0  0
  -20.9700    5.5280  -14.5584 C   0  0  0  0  0  0  0  0  0  0  0  0
  -20.3326    5.4476  -13.4255 N   0  0  0  0  0  0  0  0  0  0  0  0
  -19.8572    6.4923  -12.7516 C   0  0  0  0  0  0  0  0  0  0  0  0
  -19.2498    6.3677  -11.5544 C   0  0  0  0  0  0  0  0  0  0  0  0
  -18.7770    7.3671  -10.8177 C   0  0  0  0  0  0  0  0  0  0  0  0
  -18.8986    8.7481  -11.2930 C   0  0  0  0  0  0  0  0  0  0  0  0
  -19.5465    8.8845  -12.5354 C   0  0  0  0  0  0  0  0  0  0  0  0
  -20.0170    7.8007  -13.2519 C   0  0  0  0  0  0  0  0  0  0  0  0
  -18.4060    9.5699  -10.5186 O   0  0  0  0  0  0  0  0  0  0  0  0
  -17.8714   10.4418   -9.6835 C   0  0  0  0  0  0  0  0  0  0  0  0
  -18.1739    7.2235   -9.5872 O   0  0  0  0  0  0  0  0  0  0  0  0
  -17.9729    6.1599   -8.7538 C   0  0  0  0  0  0  0  0  0  0  0  0
  -16.7086    5.4212   -8.8326 C   0  0  0  0  0  0  0  0  0  0  0  0
  -16.8799    3.9754   -9.2785 C   0  0  0  0  0  0  0  0  0  0  0  0
  -16.4268    3.4823  -10.4564 N   0  0  0  0  0  0  0  0  0  0  0  0
  -16.3405    4.2215  -11.6543 C   0  0  0  0  0  0  0  0  0  0  0  0
  -16.8495    3.4367  -12.8499 C   0  0  0  0  0  0  0  0  0  0  0  0
  -16.2847    2.1631  -12.9397 O   0  0  0  0  0  0  0  0  0  0  0  0
  -16.6853    1.4601  -11.7976 C   0  0  0  0  0  0  0  0  0  0  0  0
  -16.0004    2.1267  -10.6068 C   0  0  0  0  0  0  0  0  0  0  0  0
 19 20  1  0  0  0
 20 21  1  0  0  0
 21 22  1  0  0  0
 22 23  1  0  0  0
 23 24  1  0  0  0
 24 25  1  0  0  0
 23 13  1  0  0  0
 13 14  2  0  0  0
 14 15  1  0  0  0
 15 16  2  0  0  0
 16  7  1  0  0  0
  7  8  1  0  0  0
  8  9  2  0  0  0
  8 10  1  0  0  0
 10  1  1  0  0  0
  1  2  2  0  0  0
  2  3  1  0  0  0
  3  4  2  0  0  0
  4 26  1  0  0  0
 26 27  1  0  0  0
 27 28  2  0  0  0
 28 29  1  0  0  0
 29 30  2  0  0  0
 30 31  1  0  0  0
 31 32  2  0  0  0
 32 33  1  0  0  0
 33 39  1  0  0  0
 39 40  1  0  0  0
 40 41  1  0  0  0
 41 42  1  0  0  0
 42 43  1  0  0  0
 43 44  1  0  0  0
 44 45  1  0  0  0
 45 46  1  0  0  0
 46 47  1  0  0  0
 47 48  1  0  0  0
 33 34  2  0  0  0
 34 37  1  0  0  0
 37 38  1  0  0  0
 34 35  1  0  0  0
 35 36  2  0  0  0
  4  5  1  0  0  0
  5  6  2  0  0  0
 16 17  1  0  0  0
 17 18  2  0  0  0
 25 20  1  0  0  0
 18 13  1  0  0  0
  6  1  1  0  0  0
 36 27  1  0  0  0
 36 31  1  0  0  0
 48 43  1  0  0  0
  7 11  1  0  0  0
 10 12  1  0  0  0
M  END
> <minimizedAffinity>
-7.98029

> <CNNscore>
0.1428183466

> <CNNaffinity>
6.5143928528

> <CNN_VS>
0.9303748012

> <CNNaffinity_variance>
0.0634575933

$$$$
[H]c1nc(N([H])c2c([H])c([H])c(N3C([H])([H])C([H])([H])C([H])(N4C([H])([H])C([H])([H])OC([H])([H])C4([H])[H])C([H])([H])C3([H])[H])c([H])c2OC([H])([H])[H])nc(N([H])c2c([H])c([H])c([H])c([H])c2S(=O)(=O)C([H])(C([H])([H])[H])C([H])([H])[H])c1Cl


 43 47  0  0  0  0  0  0  0  0999 V2000
  -18.2481    9.9084  -17.9560 N   0  0  0  0  0  0  0  0  0  0  0  0
  -17.8194    8.9209  -17.7710 H   0  0  0  0  0  0  0  0  0  0  0  0
  -17.7307   10.5413  -19.1021 C   0  0  0  0  0  0  0  0  0  0  0  0
  -16.7120    9.8869  -19.7666 N   0  0  0  0  0  0  0  0  0  0  0  0
  -16.1418   10.3306  -20.8674 C   0  0  0  0  0  0  0  0  0  0  0  0
  -16.5677   11.5199  -21.4150 C   0  0  0  0  0  0  0  0  0  0  0  0
  -15.8699   12.1723  -22.8698 Cl  0  0  0  0  0  0  0  0  0  0  0  0
  -17.6031   12.2373  -20.7893 C   0  0  0  0  0  0  0  0  0  0  0  0
  -18.1115   11.6820  -19.6623 N   0  0  0  0  0  0  0  0  0  0  0  0
  -17.9874   13.4518  -21.3627 N   0  0  0  0  0  0  0  0  0  0  0  0
  -17.4671   13.7107  -22.2585 H   0  0  0  0  0  0  0  0  0  0  0  0
  -18.9588   14.3992  -20.9836 C   0  0  0  0  0  0  0  0  0  0  0  0
  -20.0632   14.0809  -20.2371 C   0  0  0  0  0  0  0  0  0  0  0  0
  -21.0166   15.0343  -19.9492 C   0  0  0  0  0  0  0  0  0  0  0  0
  -20.9020   16.3277  -20.3929 C   0  0  0  0  0  0  0  0  0  0  0  0
  -19.7900   16.6691  -21.1502 C   0  0  0  0  0  0  0  0  0  0  0  0
  -18.8328   15.7249  -21.4432 C   0  0  0  0  0  0  0  0  0  0  0  0
  -17.4681   16.2514  -22.3778 S   0  0  0  0  0  0  0  0  0  0  0  0
  -16.9964   17.6337  -22.0447 O   0  0  0  0  0  0  0  0  0  0  0  0
  -16.2818   15.3450  -22.0259 O   0  0  0  0  0  0  0  0  0  0  0  0
  -17.7583   16.1129  -24.1052 C   0  0  0  0  0  0  0  0  0  0  0  0
  -16.5276   16.6602  -24.8731 C   0  0  0  0  0  0  0  0  0  0  0  0
  -18.0612   14.7092  -24.5538 C   0  0  0  0  0  0  0  0  0  0  0  0
  -19.6429    9.3903  -16.0850 C   0  0  0  0  0  0  0  0  0  0  0  0
  -20.5443    9.8028  -15.1329 C   0  0  0  0  0  0  0  0  0  0  0  0
  -21.0276   11.1059  -15.0657 C   0  0  0  0  0  0  0  0  0  0  0  0
  -20.5756   12.0017  -15.9959 C   0  0  0  0  0  0  0  0  0  0  0  0
  -19.6545   11.6206  -16.9843 C   0  0  0  0  0  0  0  0  0  0  0  0
  -19.1969   10.3267  -17.0230 C   0  0  0  0  0  0  0  0  0  0  0  0
  -21.9707   11.5213  -14.0878 N   0  0  0  0  0  0  0  0  0  0  0  0
  -21.5401   11.8284  -12.7216 C   0  0  0  0  0  0  0  0  0  0  0  0
  -22.6213   12.6570  -12.0298 C   0  0  0  0  0  0  0  0  0  0  0  0
  -23.0771   13.7461  -12.9565 C   0  0  0  0  0  0  0  0  0  0  0  0
  -23.8880   13.0818  -14.0488 C   0  0  0  0  0  0  0  0  0  0  0  0
  -23.3752   11.6837  -14.3440 C   0  0  0  0  0  0  0  0  0  0  0  0
  -23.9251   14.6917  -12.2837 N   0  0  0  0  0  0  0  0  0  0  0  0
  -23.5895   16.0571  -12.7076 C   0  0  0  0  0  0  0  0  0  0  0  0
  -24.5824   16.9695  -12.0086 C   0  0  0  0  0  0  0  0  0  0  0  0
  -24.4439   16.9100  -10.6265 O   0  0  0  0  0  0  0  0  0  0  0  0
  -24.7763   15.6134  -10.2517 C   0  0  0  0  0  0  0  0  0  0  0  0
  -23.7351   14.6873  -10.8439 C   0  0  0  0  0  0  0  0  0  0  0  0
  -19.6213    7.1458  -15.1957 C   0  0  0  0  0  0  0  0  0  0  0  0
  -19.1659    8.0918  -16.1468 O   0  0  0  0  0  0  0  0  0  0  0  0
 42 43  1  0  0  0
 43 24  1  0  0  0
 24 25  2  0  0  0
 25 26  1  0  0  0
 26 27  2  0  0  0
 27 28  1  0  0  0
 28 29  2  0  0  0
 29  1  1  0  0  0
  1  3  1  0  0  0
  3  4  2  0  0  0
  4  5  1  0  0  0
  5  6  2  0  0  0
  6  7  1  0  0  0
  6  8  1  0  0  0
  8 10  1  0  0  0
 10 12  1  0  0  0
 12 13  2  0  0  0
 13 14  1  0  0  0
 14 15  2  0  0  0
 15 16  1  0  0  0
 16 17  2  0  0  0
 17 18  1  0  0  0
 18 19  2  0  0  0
 18 20  2  0  0  0
 18 21  1  0  0  0
 21 22  1  0  0  0
 21 23  1  0  0  0
  8  9  2  0  0  0
 26 30  1  0  0  0
 30 31  1  0  0  0
 31 32  1  0  0  0
 32 33  1  0  0  0
 33 34  1  0  0  0
 34 35  1  0  0  0
 33 36  1  0  0  0
 36 37  1  0  0  0
 37 38  1  0  0  0
 38 39  1  0  0  0
 39 40  1  0  0  0
 40 41  1  0  0  0
 29 24  1  0  0  0
  9  3  1  0  0  0
 35 30  1  0  0  0
 41 36  1  0  0  0
 17 12  1  0  0  0
  1  2  1  0  0  0
 10 11  1  0  0  0
M  END
> <minimizedAffinity>
-7.88972

> <CNNscore>
0.6358951926

> <CNNaffinity>
7.6944069862

> <CNN_VS>
4.8928365707

> <CNNaffinity_variance>
0.0561556816

$$$$
[H]c1nc(N([H])c2c([H])c([H])c(N3C([H])([H])C([H])([H])C([H])(N4C([H])([H])C([H])([H])OC([H])([H])C4([H])[H])C([H])([H])C3([H])[H])c([H])c2OC([H])([H])[H])nc(N([H])c2c([H])c([H])c([H])c([H])c2S(=O)(=O)C([H])(C([H])([H])[H])C([H])([H])[H])c1Cl


 43 47  0  0  0  0  0  0  0  0999 V2000
  -17.0378   12.0310  -19.5694 N   0  0  0  0  0  0  0  0  0  0  0  0
  -15.9622   11.9818  -19.3851 H   0  0  0  0  0  0  0  0  0  0  0  0
  -17.3812   12.7982  -20.6987 C   0  0  0  0  0  0  0  0  0  0  0  0
  -16.9574   12.3236  -21.9245 N   0  0  0  0  0  0  0  0  0  0  0  0
  -17.2203   12.9074  -23.0751 C   0  0  0  0  0  0  0  0  0  0  0  0
  -17.9636   14.0663  -23.0888 C   0  0  0  0  0  0  0  0  0  0  0  0
  -18.3584   14.8960  -24.5669 Cl  0  0  0  0  0  0  0  0  0  0  0  0
  -18.4281   14.6037  -21.8750 C   0  0  0  0  0  0  0  0  0  0  0  0
  -18.0941   13.9156  -20.7561 N   0  0  0  0  0  0  0  0  0  0  0  0
  -19.1564   15.7945  -21.9309 N   0  0  0  0  0  0  0  0  0  0  0  0
  -19.9986   15.7761  -22.5871 H   0  0  0  0  0  0  0  0  0  0  0  0
  -18.9943   17.0225  -21.2595 C   0  0  0  0  0  0  0  0  0  0  0  0
  -17.8762   17.8043  -21.3892 C   0  0  0  0  0  0  0  0  0  0  0  0
  -17.7411   18.9656  -20.6586 C   0  0  0  0  0  0  0  0  0  0  0  0
  -18.7089   19.3834  -19.7803 C   0  0  0  0  0  0  0  0  0  0  0  0
  -19.8489   18.6048  -19.6357 C   0  0  0  0  0  0  0  0  0  0  0  0
  -19.9934   17.4439  -20.3602 C   0  0  0  0  0  0  0  0  0  0  0  0
  -21.4624   16.5487  -20.1277 S   0  0  0  0  0  0  0  0  0  0  0  0
  -21.2900   15.0624  -20.2019 O   0  0  0  0  0  0  0  0  0  0  0  0
  -21.9474   16.8085  -18.6959 O   0  0  0  0  0  0  0  0  0  0  0  0
  -22.7309   17.0646  -21.2284 C   0  0  0  0  0  0  0  0  0  0  0  0
  -23.8126   17.8380  -20.4312 C   0  0  0  0  0  0  0  0  0  0  0  0
  -22.2312   17.9093  -22.3689 C   0  0  0  0  0  0  0  0  0  0  0  0
  -18.7236   12.0812  -17.8753 C   0  0  0  0  0  0  0  0  0  0  0  0
  -19.5394   11.4053  -16.9996 C   0  0  0  0  0  0  0  0  0  0  0  0
  -19.5101   10.0216  -16.8559 C   0  0  0  0  0  0  0  0  0  0  0  0
  -18.6244    9.3197  -17.6272 C   0  0  0  0  0  0  0  0  0  0  0  0
  -17.7744    9.9721  -18.5341 C   0  0  0  0  0  0  0  0  0  0  0  0
  -17.8283   11.3390  -18.6520 C   0  0  0  0  0  0  0  0  0  0  0  0
  -20.3460    9.3312  -15.9378 N   0  0  0  0  0  0  0  0  0  0  0  0
  -20.0545    7.9454  -15.5625 C   0  0  0  0  0  0  0  0  0  0  0  0
  -20.7998    7.6083  -14.2722 C   0  0  0  0  0  0  0  0  0  0  0  0
  -20.6155    8.7273  -13.2890 C   0  0  0  0  0  0  0  0  0  0  0  0
  -21.4387    9.8937  -13.7926 C   0  0  0  0  0  0  0  0  0  0  0  0
  -21.5006    9.9114  -15.3093 C   0  0  0  0  0  0  0  0  0  0  0  0
  -21.1003    8.3692  -11.9842 N   0  0  0  0  0  0  0  0  0  0  0  0
  -21.5994    9.5628  -11.2892 C   0  0  0  0  0  0  0  0  0  0  0  0
  -22.1572    9.0741   -9.9637 C   0  0  0  0  0  0  0  0  0  0  0  0
  -21.1654    8.5074   -9.1712 O   0  0  0  0  0  0  0  0  0  0  0  0
  -20.7186    7.3771   -9.8457 C   0  0  0  0  0  0  0  0  0  0  0  0
  -20.0550    7.8428  -11.1245 C   0  0  0  0  0  0  0  0  0  0  0  0
  -19.3721   14.2365  -17.0017 C   0  0  0  0  0  0  0  0  0  0  0  0
  -18.7572   13.4586  -18.0136 O   0  0  0  0  0  0  0  0  0  0  0  0
 42 43  1  0  0  0
 43 24  1  0  0  0
 24 25  2  0  0  0
 25 26  1  0  0  0
 26 27  2  0  0  0
 27 28  1  0  0  0
 28 29  2  0  0  0
 29  1  1  0  0  0
  1  3  1  0  0  0
  3  4  2  0  0  0
  4  5  1  0  0  0
  5  6  2  0  0  0
  6  7  1  0  0  0
  6  8  1  0  0  0
  8 10  1  0  0  0
 10 12  1  0  0  0
 12 13  2  0  0  0
 13 14  1  0  0  0
 14 15  2  0  0  0
 15 16  1  0  0  0
 16 17  2  0  0  0
 17 18  1  0  0  0
 18 19  2  0  0  0
 18 20  2  0  0  0
 18 21  1  0  0  0
 21 22  1  0  0  0
 21 23  1  0  0  0
  8  9  2  0  0  0
 26 30  1  0  0  0
 30 31  1  0  0  0
 31 32  1  0  0  0
 32 33  1  0  0  0
 33 34  1  0  0  0
 34 35  1  0  0  0
 33 36  1  0  0  0
 36 37  1  0  0  0
 37 38  1  0  0  0
 38 39  1  0  0  0
 39 40  1  0  0  0
 40 41  1  0  0  0
 29 24  1  0  0  0
  9  3  1  0  0  0
 35 30  1  0  0  0
 41 36  1  0  0  0
 17 12  1  0  0  0
  1  2  1  0  0  0
 10 11  1  0  0  0
M  END
> <minimizedAffinity>
-7.62451

> <CNNscore>
0.2967585325

> <CNNaffinity>
7.1946663857

> <CNN_VS>
2.1350786686

> <CNNaffinity_variance>
0.0248016454

$$$$
[H]c1nc(N([H])c2c([H])c([H])c(N3C([H])([H])C([H])([H])C([H])(N4C([H])([H])C([H])([H])OC([H])([H])C4([H])[H])C([H])([H])C3([H])[H])c([H])c2OC([H])([H])[H])nc(N([H])c2c([H])c([H])c([H])c([H])c2S(=O)(=O)C([H])(C([H])([H])[H])C([H])([H])[H])c1Cl


 43 47  0  0  0  0  0  0  0  0999 V2000
  -17.0680   12.0757  -19.3643 N   0  0  0  0  0  0  0  0  0  0  0  0
  -16.0088   12.0685  -19.0975 H   0  0  0  0  0  0  0  0  0  0  0  0
  -17.3496   12.8085  -20.5328 C   0  0  0  0  0  0  0  0  0  0  0  0
  -17.0244   12.2106  -21.7346 N   0  0  0  0  0  0  0  0  0  0  0  0
  -17.2490   12.7503  -22.9144 C   0  0  0  0  0  0  0  0  0  0  0  0
  -17.8457   13.9891  -22.9864 C   0  0  0  0  0  0  0  0  0  0  0  0
  -18.1813   14.7687  -24.5058 Cl  0  0  0  0  0  0  0  0  0  0  0  0
  -18.2041   14.6536  -21.7997 C   0  0  0  0  0  0  0  0  0  0  0  0
  -17.9225   13.9997  -20.6464 N   0  0  0  0  0  0  0  0  0  0  0  0
  -18.7832   15.9195  -21.9163 N   0  0  0  0  0  0  0  0  0  0  0  0
  -18.3288   16.5568  -22.6426 H   0  0  0  0  0  0  0  0  0  0  0  0
  -19.8801   16.5104  -21.2587 C   0  0  0  0  0  0  0  0  0  0  0  0
  -20.7696   15.7970  -20.4983 C   0  0  0  0  0  0  0  0  0  0  0  0
  -21.8632   16.4148  -19.9298 C   0  0  0  0  0  0  0  0  0  0  0  0
  -22.1053   17.7547  -20.0993 C   0  0  0  0  0  0  0  0  0  0  0  0
  -21.2152   18.4939  -20.8659 C   0  0  0  0  0  0  0  0  0  0  0  0
  -20.1207   17.8868  -21.4378 C   0  0  0  0  0  0  0  0  0  0  0  0
  -19.0532   18.8973  -22.3612 S   0  0  0  0  0  0  0  0  0  0  0  0
  -17.6433   18.9194  -21.8551 O   0  0  0  0  0  0  0  0  0  0  0  0
  -18.9466   18.3012  -23.7705 O   0  0  0  0  0  0  0  0  0  0  0  0
  -19.6649   20.5372  -22.5145 C   0  0  0  0  0  0  0  0  0  0  0  0
  -18.9550   21.4440  -21.4765 C   0  0  0  0  0  0  0  0  0  0  0  0
  -19.5036   21.1130  -23.8951 C   0  0  0  0  0  0  0  0  0  0  0  0
  -18.9072   12.0906  -17.8373 C   0  0  0  0  0  0  0  0  0  0  0  0
  -19.7639   11.4014  -17.0125 C   0  0  0  0  0  0  0  0  0  0  0  0
  -19.6720   10.0282  -16.8069 C   0  0  0  0  0  0  0  0  0  0  0  0
  -18.6797    9.3511  -17.4617 C   0  0  0  0  0  0  0  0  0  0  0  0
  -17.7848   10.0177  -18.3134 C   0  0  0  0  0  0  0  0  0  0  0  0
  -17.9027   11.3735  -18.4949 C   0  0  0  0  0  0  0  0  0  0  0  0
  -20.5519    9.3250  -15.9411 N   0  0  0  0  0  0  0  0  0  0  0  0
  -20.2035    7.9892  -15.4505 C   0  0  0  0  0  0  0  0  0  0  0  0
  -21.0605    7.6652  -14.2279 C   0  0  0  0  0  0  0  0  0  0  0  0
  -21.0681    8.8473  -13.3031 C   0  0  0  0  0  0  0  0  0  0  0  0
  -21.9133    9.9156  -13.9636 C   0  0  0  0  0  0  0  0  0  0  0  0
  -21.8081    9.8455  -15.4765 C   0  0  0  0  0  0  0  0  0  0  0  0
  -21.6670    8.5239  -12.0372 N   0  0  0  0  0  0  0  0  0  0  0  0
  -22.8347    9.3824  -11.8003 C   0  0  0  0  0  0  0  0  0  0  0  0
  -23.4395    8.9155  -10.4877 C   0  0  0  0  0  0  0  0  0  0  0  0
  -22.5590    9.0976   -9.4274 O   0  0  0  0  0  0  0  0  0  0  0  0
  -21.4705    8.2682   -9.6710 C   0  0  0  0  0  0  0  0  0  0  0  0
  -20.7787    8.7793  -10.9170 C   0  0  0  0  0  0  0  0  0  0  0  0
  -18.7065   14.3324  -16.9638 C   0  0  0  0  0  0  0  0  0  0  0  0
  -19.0036   13.4573  -18.0376 O   0  0  0  0  0  0  0  0  0  0  0  0
 42 43  1  0  0  0
 43 24  1  0  0  0
 24 25  2  0  0  0
 25 26  1  0  0  0
 26 27  2  0  0  0
 27 28  1  0  0  0
 28 29  2  0  0  0
 29  1  1  0  0  0
  1  3  1  0  0  0
  3  4  2  0  0  0
  4  5  1  0  0  0
  5  6  2  0  0  0
  6  7  1  0  0  0
  6  8  1  0  0  0
  8 10  1  0  0  0
 10 12  1  0  0  0
 12 13  2  0  0  0
 13 14  1  0  0  0
 14 15  2  0  0  0
 15 16  1  0  0  0
 16 17  2  0  0  0
 17 18  1  0  0  0
 18 19  2  0  0  0
 18 20  2  0  0  0
 18 21  1  0  0  0
 21 22  1  0  0  0
 21 23  1  0  0  0
  8  9  2  0  0  0
 26 30  1  0  0  0
 30 31  1  0  0  0
 31 32  1  0  0  0
 32 33  1  0  0  0
 33 34  1  0  0  0
 34 35  1  0  0  0
 33 36  1  0  0  0
 36 37  1  0  0  0
 37 38  1  0  0  0
 38 39  1  0  0  0
 39 40  1  0  0  0
 40 41  1  0  0  0
 29 24  1  0  0  0
  9  3  1  0  0  0
 35 30  1  0  0  0
 41 36  1  0  0  0
 17 12  1  0  0  0
  1  2  1  0  0  0
 10 11  1  0  0  0
M  END
> <minimizedAffinity>
-7.71678

> <CNNscore>
0.2482603639

> <CNNaffinity>
7.1054410934

> <CNN_VS>
1.7639993429

> <CNNaffinity_variance>
0.0423875526

$$$$
[H]c1nc(N([H])c2c([H])c([H])c(N3C([H])([H])C([H])([H])C([H])(N4C([H])([H])C([H])([H])OC([H])([H])C4([H])[H])C([H])([H])C3([H])[H])c([H])c2OC([H])([H])[H])nc(N([H])c2c([H])c([H])c([H])c([H])c2S(=O)(=O)C([H])(C([H])([H])[H])C([H])([H])[H])c1Cl


 43 47  0  0  0  0  0  0  0  0999 V2000
  -17.4922   13.5267  -20.6473 N   0  0  0  0  0  0  0  0  0  0  0  0
  -16.7176   13.0859  -21.2788 H   0  0  0  0  0  0  0  0  0  0  0  0
  -17.7670   14.8737  -20.9503 C   0  0  0  0  0  0  0  0  0  0  0  0
  -16.7124   15.7601  -20.8522 N   0  0  0  0  0  0  0  0  0  0  0  0
  -16.7973   17.0447  -21.1284 C   0  0  0  0  0  0  0  0  0  0  0  0
  -18.0016   17.5666  -21.5446 C   0  0  0  0  0  0  0  0  0  0  0  0
  -18.1959   19.2518  -21.9336 Cl  0  0  0  0  0  0  0  0  0  0  0  0
  -19.1168   16.7185  -21.6674 C   0  0  0  0  0  0  0  0  0  0  0  0
  -18.9080   15.4163  -21.3547 N   0  0  0  0  0  0  0  0  0  0  0  0
  -20.3258   17.2927  -22.0675 N   0  0  0  0  0  0  0  0  0  0  0  0
  -20.3766   17.5602  -23.1000 H   0  0  0  0  0  0  0  0  0  0  0  0
  -21.5104   17.5694  -21.3567 C   0  0  0  0  0  0  0  0  0  0  0  0
  -21.7445   17.1129  -20.0859 C   0  0  0  0  0  0  0  0  0  0  0  0
  -22.9485   17.3584  -19.4607 C   0  0  0  0  0  0  0  0  0  0  0  0
  -23.9525   18.0617  -20.0771 C   0  0  0  0  0  0  0  0  0  0  0  0
  -23.7337   18.5325  -21.3644 C   0  0  0  0  0  0  0  0  0  0  0  0
  -22.5355   18.2928  -21.9972 C   0  0  0  0  0  0  0  0  0  0  0  0
  -22.3473   18.9393  -23.5971 S   0  0  0  0  0  0  0  0  0  0  0  0
  -21.0329   19.6193  -23.8303 O   0  0  0  0  0  0  0  0  0  0  0  0
  -22.3514   17.7628  -24.5812 O   0  0  0  0  0  0  0  0  0  0  0  0
  -23.6677   20.0126  -24.0348 C   0  0  0  0  0  0  0  0  0  0  0  0
  -23.1291   21.4621  -24.1472 C   0  0  0  0  0  0  0  0  0  0  0  0
  -24.3626   19.6224  -25.3110 C   0  0  0  0  0  0  0  0  0  0  0  0
  -17.3468   11.4795  -19.4215 C   0  0  0  0  0  0  0  0  0  0  0  0
  -17.8407   10.6507  -18.4425 C   0  0  0  0  0  0  0  0  0  0  0  0
  -18.9837   10.9491  -17.7071 C   0  0  0  0  0  0  0  0  0  0  0  0
  -19.6314   12.1220  -17.9843 C   0  0  0  0  0  0  0  0  0  0  0  0
  -19.1591   12.9963  -18.9758 C   0  0  0  0  0  0  0  0  0  0  0  0
  -18.0280   12.6724  -19.6836 C   0  0  0  0  0  0  0  0  0  0  0  0
  -19.4968   10.0804  -16.7069 N   0  0  0  0  0  0  0  0  0  0  0  0
  -18.7571    8.8784  -16.3140 C   0  0  0  0  0  0  0  0  0  0  0  0
  -19.2728    8.3928  -14.9604 C   0  0  0  0  0  0  0  0  0  0  0  0
  -19.3907    9.5632  -14.0283 C   0  0  0  0  0  0  0  0  0  0  0  0
  -20.5720   10.3834  -14.5013 C   0  0  0  0  0  0  0  0  0  0  0  0
  -20.7332   10.3006  -16.0086 C   0  0  0  0  0  0  0  0  0  0  0  0
  -19.6524    9.1404  -12.6797 N   0  0  0  0  0  0  0  0  0  0  0  0
  -19.3860   10.2431  -11.7472 C   0  0  0  0  0  0  0  0  0  0  0  0
  -19.7635    9.7280  -10.3692 C   0  0  0  0  0  0  0  0  0  0  0  0
  -18.9671    8.6530   -9.9911 O   0  0  0  0  0  0  0  0  0  0  0  0
  -19.2457    7.6226  -10.8815 C   0  0  0  0  0  0  0  0  0  0  0  0
  -18.7756    8.0649  -12.2511 C   0  0  0  0  0  0  0  0  0  0  0  0
  -16.1471    9.9462  -20.8493 C   0  0  0  0  0  0  0  0  0  0  0  0
  -16.2090   11.1769  -20.1502 O   0  0  0  0  0  0  0  0  0  0  0  0
 42 43  1  0  0  0
 43 24  1  0  0  0
 24 25  2  0  0  0
 25 26  1  0  0  0
 26 27  2  0  0  0
 27 28  1  0  0  0
 28 29  2  0  0  0
 29  1  1  0  0  0
  1  3  1  0  0  0
  3  4  2  0  0  0
  4  5  1  0  0  0
  5  6  2  0  0  0
  6  7  1  0  0  0
  6  8  1  0  0  0
  8 10  1  0  0  0
 10 12  1  0  0  0
 12 13  2  0  0  0
 13 14  1  0  0  0
 14 15  2  0  0  0
 15 16  1  0  0  0
 16 17  2  0  0  0
 17 18  1  0  0  0
 18 19  2  0  0  0
 18 20  2  0  0  0
 18 21  1  0  0  0
 21 22  1  0  0  0
 21 23  1  0  0  0
  8  9  2  0  0  0
 26 30  1  0  0  0
 30 31  1  0  0  0
 31 32  1  0  0  0
 32 33  1  0  0  0
 33 34  1  0  0  0
 34 35  1  0  0  0
 33 36  1  0  0  0
 36 37  1  0  0  0
 37 38  1  0  0  0
 38 39  1  0  0  0
 39 40  1  0  0  0
 40 41  1  0  0  0
 29 24  1  0  0  0
  9  3  1  0  0  0
 35 30  1  0  0  0
 41 36  1  0  0  0
 17 12  1  0  0  0
  1  2  1  0  0  0
 10 11  1  0  0  0
M  END
> <minimizedAffinity>
-8.43541

> <CNNscore>
0.1836688370

> <CNNaffinity>
6.8996033669

> <CNN_VS>
1.2672420740

> <CNNaffinity_variance>
0.1083614454

$$$$
[H]c1nc(N([H])c2c([H])c([H])c(N3C([H])([H])C([H])([H])C([H])(N4C([H])([H])C([H])([H])OC([H])([H])C4([H])[H])C([H])([H])C3([H])[H])c([H])c2OC([H])([H])[H])nc(N([H])c2c([H])c([H])c([H])c([H])c2S(=O)(=O)C([H])(C([H])([H])[H])C([H])([H])[H])c1Cl


 43 47  0  0  0  0  0  0  0  0999 V2000
  -17.4555   13.8862  -20.5471 N   0  0  0  0  0  0  0  0  0  0  0  0
  -16.6922   13.4934  -21.2226 H   0  0  0  0  0  0  0  0  0  0  0  0
  -17.7193   15.2567  -20.7314 C   0  0  0  0  0  0  0  0  0  0  0  0
  -16.6306   16.0723  -20.9700 N   0  0  0  0  0  0  0  0  0  0  0  0
  -16.7109   17.3679  -21.1908 C   0  0  0  0  0  0  0  0  0  0  0  0
  -17.9460   17.9766  -21.1906 C   0  0  0  0  0  0  0  0  0  0  0  0
  -18.1382   19.6821  -21.4788 Cl  0  0  0  0  0  0  0  0  0  0  0  0
  -19.0972   17.2036  -20.9555 C   0  0  0  0  0  0  0  0  0  0  0  0
  -18.8895   15.8817  -20.7402 N   0  0  0  0  0  0  0  0  0  0  0  0
  -20.3280   17.8643  -20.9380 N   0  0  0  0  0  0  0  0  0  0  0  0
  -20.5516   18.3744  -20.0269 H   0  0  0  0  0  0  0  0  0  0  0  0
  -21.3312   17.9991  -21.9179 C   0  0  0  0  0  0  0  0  0  0  0  0
  -21.0653   18.0271  -23.2620 C   0  0  0  0  0  0  0  0  0  0  0  0
  -22.0783   18.2266  -24.1757 C   0  0  0  0  0  0  0  0  0  0  0  0
  -23.3810   18.4041  -23.7829 C   0  0  0  0  0  0  0  0  0  0  0  0
  -23.6699   18.3785  -22.4255 C   0  0  0  0  0  0  0  0  0  0  0  0
  -22.6660   18.1801  -21.5055 C   0  0  0  0  0  0  0  0  0  0  0  0
  -23.1277   18.1428  -19.8326 S   0  0  0  0  0  0  0  0  0  0  0  0
  -24.5612   17.7729  -19.6028 O   0  0  0  0  0  0  0  0  0  0  0  0
  -22.3282   17.0253  -19.1509 O   0  0  0  0  0  0  0  0  0  0  0  0
  -22.7547   19.6505  -19.0112 C   0  0  0  0  0  0  0  0  0  0  0  0
  -21.5914   19.4124  -18.0143 C   0  0  0  0  0  0  0  0  0  0  0  0
  -22.4067   20.7757  -19.9474 C   0  0  0  0  0  0  0  0  0  0  0  0
  -17.5362   11.6382  -19.7383 C   0  0  0  0  0  0  0  0  0  0  0  0
  -18.0225   10.7244  -18.8339 C   0  0  0  0  0  0  0  0  0  0  0  0
  -18.9420   11.0581  -17.8443 C   0  0  0  0  0  0  0  0  0  0  0  0
  -19.3700   12.3562  -17.7840 C   0  0  0  0  0  0  0  0  0  0  0  0
  -18.8972   13.3201  -18.6885 C   0  0  0  0  0  0  0  0  0  0  0  0
  -17.9899   12.9583  -19.6534 C   0  0  0  0  0  0  0  0  0  0  0  0
  -19.4515   10.1048  -16.9223 N   0  0  0  0  0  0  0  0  0  0  0  0
  -18.7749    8.8197  -16.7301 C   0  0  0  0  0  0  0  0  0  0  0  0
  -19.2382    8.2018  -15.4119 C   0  0  0  0  0  0  0  0  0  0  0  0
  -19.2153    9.2518  -14.3396 C   0  0  0  0  0  0  0  0  0  0  0  0
  -20.3634   10.1963  -14.6261 C   0  0  0  0  0  0  0  0  0  0  0  0
  -20.6234   10.3124  -16.1172 C   0  0  0  0  0  0  0  0  0  0  0  0
  -19.4216    8.6810  -13.0367 N   0  0  0  0  0  0  0  0  0  0  0  0
  -20.8067    8.2104  -12.9084 C   0  0  0  0  0  0  0  0  0  0  0  0
  -20.9036    7.5589  -11.5399 C   0  0  0  0  0  0  0  0  0  0  0  0
  -20.6729    8.4763  -10.5211 O   0  0  0  0  0  0  0  0  0  0  0  0
  -19.3553    8.8971  -10.6594 C   0  0  0  0  0  0  0  0  0  0  0  0
  -19.2531    9.6505  -11.9687 C   0  0  0  0  0  0  0  0  0  0  0  0
  -16.0303   10.0126  -20.6968 C   0  0  0  0  0  0  0  0  0  0  0  0
  -16.6214   11.2998  -20.7212 O   0  0  0  0  0  0  0  0  0  0  0  0
 42 43  1  0  0  0
 43 24  1  0  0  0
 24 25  2  0  0  0
 25 26  1  0  0  0
 26 27  2  0  0  0
 27 28  1  0  0  0
 28 29  2  0  0  0
 29  1  1  0  0  0
  1  3  1  0  0  0
  3  4  2  0  0  0
  4  5  1  0  0  0
  5  6  2  0  0  0
  6  7  1  0  0  0
  6  8  1  0  0  0
  8 10  1  0  0  0
 10 12  1  0  0  0
 12 13  2  0  0  0
 13 14  1  0  0  0
 14 15  2  0  0  0
 15 16  1  0  0  0
 16 17  2  0  0  0
 17 18  1  0  0  0
 18 19  2  0  0  0
 18 20  2  0  0  0
 18 21  1  0  0  0
 21 22  1  0  0  0
 21 23  1  0  0  0
  8  9  2  0  0  0
 26 30  1  0  0  0
 30 31  1  0  0  0
 31 32  1  0  0  0
 32 33  1  0  0  0
 33 34  1  0  0  0
 34 35  1  0  0  0
 33 36  1  0  0  0
 36 37  1  0  0  0
 37 38  1  0  0  0
 38 39  1  0  0  0
 39 40  1  0  0  0
 40 41  1  0  0  0
 29 24  1  0  0  0
  9  3  1  0  0  0
 35 30  1  0  0  0
 41 36  1  0  0  0
 17 12  1  0  0  0
  1  2  1  0  0  0
 10 11  1  0  0  0
M  END
> <minimizedAffinity>
-7.97198

> <CNNscore>
0.1647212505

> <CNNaffinity>
6.8952989578

> <CNN_VS>
1.1358022690

> <CNNaffinity_variance>
0.2042244375

$$$$
[H]c1nc(N([H])c2c([H])c([H])c(N3C([H])([H])C([H])([H])C([H])(N4C([H])([H])C([H])([H])OC([H])([H])C4([H])[H])C([H])([H])C3([H])[H])c([H])c2OC([H])([H])[H])nc(N([H])c2c([H])c([H])c([H])c([H])c2S(=O)(=O)C([H])(C([H])([H])[H])C([H])([H])[H])c1Cl


 43 47  0  0  0  0  0  0  0  0999 V2000
  -17.2936   12.0361  -21.8300 N   0  0  0  0  0  0  0  0  0  0  0  0
  -17.0665   11.1601  -22.4418 H   0  0  0  0  0  0  0  0  0  0  0  0
  -16.9674   13.2567  -22.4510 C   0  0  0  0  0  0  0  0  0  0  0  0
  -16.0431   13.2048  -23.4758 N   0  0  0  0  0  0  0  0  0  0  0  0
  -15.6535   14.2506  -24.1747 C   0  0  0  0  0  0  0  0  0  0  0  0
  -16.1847   15.4883  -23.8888 C   0  0  0  0  0  0  0  0  0  0  0  0
  -15.7265   16.9184  -24.7684 Cl  0  0  0  0  0  0  0  0  0  0  0  0
  -17.1328   15.6119  -22.8573 C   0  0  0  0  0  0  0  0  0  0  0  0
  -17.4547   14.4665  -22.2082 N   0  0  0  0  0  0  0  0  0  0  0  0
  -17.6273   16.8891  -22.5823 N   0  0  0  0  0  0  0  0  0  0  0  0
  -16.8811   17.6293  -22.3939 H   0  0  0  0  0  0  0  0  0  0  0  0
  -18.9427   17.3907  -22.5259 C   0  0  0  0  0  0  0  0  0  0  0  0
  -19.7308   17.5504  -23.6357 C   0  0  0  0  0  0  0  0  0  0  0  0
  -20.9879   18.1070  -23.5318 C   0  0  0  0  0  0  0  0  0  0  0  0
  -21.4977   18.5203  -22.3268 C   0  0  0  0  0  0  0  0  0  0  0  0
  -20.7142   18.3663  -21.1914 C   0  0  0  0  0  0  0  0  0  0  0  0
  -19.4581   17.8120  -21.2844 C   0  0  0  0  0  0  0  0  0  0  0  0
  -18.5621   17.6408  -19.8076 S   0  0  0  0  0  0  0  0  0  0  0  0
  -17.0857   17.8433  -19.9621 O   0  0  0  0  0  0  0  0  0  0  0  0
  -19.0064   18.7603  -18.8578 O   0  0  0  0  0  0  0  0  0  0  0  0
  -18.8808   16.1047  -19.0166 C   0  0  0  0  0  0  0  0  0  0  0  0
  -18.1031   16.0516  -17.6764 C   0  0  0  0  0  0  0  0  0  0  0  0
  -20.3427   15.8453  -18.7728 C   0  0  0  0  0  0  0  0  0  0  0  0
  -17.3941   10.6134  -19.9116 C   0  0  0  0  0  0  0  0  0  0  0  0
  -17.8946   10.3533  -18.6581 C   0  0  0  0  0  0  0  0  0  0  0  0
  -18.8229   11.1781  -18.0303 C   0  0  0  0  0  0  0  0  0  0  0  0
  -19.2451   12.2911  -18.7047 C   0  0  0  0  0  0  0  0  0  0  0  0
  -18.7579   12.5927  -19.9862 C   0  0  0  0  0  0  0  0  0  0  0  0
  -17.8421   11.7583  -20.5780 C   0  0  0  0  0  0  0  0  0  0  0  0
  -19.3469   10.8949  -16.7405 N   0  0  0  0  0  0  0  0  0  0  0  0
  -19.9052   11.9665  -15.9120 C   0  0  0  0  0  0  0  0  0  0  0  0
  -20.7794   11.3520  -14.8202 C   0  0  0  0  0  0  0  0  0  0  0  0
  -21.6684   10.3073  -15.4293 C   0  0  0  0  0  0  0  0  0  0  0  0
  -20.7847    9.1286  -15.7783 C   0  0  0  0  0  0  0  0  0  0  0  0
  -19.3868    9.5810  -16.1601 C   0  0  0  0  0  0  0  0  0  0  0  0
  -22.6673    9.8561  -14.4995 N   0  0  0  0  0  0  0  0  0  0  0  0
  -22.3065    8.5313  -13.9788 C   0  0  0  0  0  0  0  0  0  0  0  0
  -23.3718    8.1782  -12.9554 C   0  0  0  0  0  0  0  0  0  0  0  0
  -24.6278    8.0740  -13.5422 O   0  0  0  0  0  0  0  0  0  0  0  0
  -24.9485    9.3406  -14.0165 C   0  0  0  0  0  0  0  0  0  0  0  0
  -23.9677    9.6752  -15.1203 C   0  0  0  0  0  0  0  0  0  0  0  0
  -15.2350   10.3364  -20.9560 C   0  0  0  0  0  0  0  0  0  0  0  0
  -16.4706    9.7885  -20.5314 O   0  0  0  0  0  0  0  0  0  0  0  0
 42 43  1  0  0  0
 43 24  1  0  0  0
 24 25  2  0  0  0
 25 26  1  0  0  0
 26 27  2  0  0  0
 27 28  1  0  0  0
 28 29  2  0  0  0
 29  1  1  0  0  0
  1  3  1  0  0  0
  3  4  2  0  0  0
  4  5  1  0  0  0
  5  6  2  0  0  0
  6  7  1  0  0  0
  6  8  1  0  0  0
  8 10  1  0  0  0
 10 12  1  0  0  0
 12 13  2  0  0  0
 13 14  1  0  0  0
 14 15  2  0  0  0
 15 16  1  0  0  0
 16 17  2  0  0  0
 17 18  1  0  0  0
 18 19  2  0  0  0
 18 20  2  0  0  0
 18 21  1  0  0  0
 21 22  1  0  0  0
 21 23  1  0  0  0
  8  9  2  0  0  0
 26 30  1  0  0  0
 30 31  1  0  0  0
 31 32  1  0  0  0
 32 33  1  0  0  0
 33 34  1  0  0  0
 34 35  1  0  0  0
 33 36  1  0  0  0
 36 37  1  0  0  0
 37 38  1  0  0  0
 38 39  1  0  0  0
 39 40  1  0  0  0
 40 41  1  0  0  0
 29 24  1  0  0  0
  9  3  1  0  0  0
 35 30  1  0  0  0
 41 36  1  0  0  0
 17 12  1  0  0  0
  1  2  1  0  0  0
 10 11  1  0  0  0
M  END
> <minimizedAffinity>
-8.12201

> <CNNscore>
0.1563900262

> <CNNaffinity>
7.5486297607

> <CNN_VS>
1.1805304289

> <CNNaffinity_variance>
0.1666423976

$$$$
[H]c1nc(N([H])c2c([H])c([H])c(N3C([H])([H])C([H])([H])C([H])(N4C([H])([H])C([H])([H])OC([H])([H])C4([H])[H])C([H])([H])C3([H])[H])c([H])c2OC([H])([H])[H])nc(N([H])c2c([H])c([H])c([H])c([H])c2S(=O)(=O)C([H])(C([H])([H])[H])C([H])([H])[H])c1Cl


 43 47  0  0  0  0  0  0  0  0999 V2000
  -18.9637   13.1087  -19.7811 N   0  0  0  0  0  0  0  0  0  0  0  0
  -19.2293   12.6766  -20.7485 H   0  0  0  0  0  0  0  0  0  0  0  0
  -18.3724   14.3827  -19.8766 C   0  0  0  0  0  0  0  0  0  0  0  0
  -17.3182   14.5137  -20.7591 N   0  0  0  0  0  0  0  0  0  0  0  0
  -16.6781   15.6419  -20.9852 C   0  0  0  0  0  0  0  0  0  0  0  0
  -17.0622   16.7811  -20.3139 C   0  0  0  0  0  0  0  0  0  0  0  0
  -16.2716   18.3119  -20.5593 Cl  0  0  0  0  0  0  0  0  0  0  0  0
  -18.1303   16.7182  -19.4009 C   0  0  0  0  0  0  0  0  0  0  0  0
  -18.7109   15.5027  -19.2514 N   0  0  0  0  0  0  0  0  0  0  0  0
  -18.4712   17.8904  -18.7218 N   0  0  0  0  0  0  0  0  0  0  0  0
  -18.0226   18.7797  -19.1066 H   0  0  0  0  0  0  0  0  0  0  0  0
  -19.3220   18.1209  -17.6228 C   0  0  0  0  0  0  0  0  0  0  0  0
  -19.0504   17.6678  -16.3582 C   0  0  0  0  0  0  0  0  0  0  0  0
  -19.9494   17.8653  -15.3318 C   0  0  0  0  0  0  0  0  0  0  0  0
  -21.1409   18.5161  -15.5301 C   0  0  0  0  0  0  0  0  0  0  0  0
  -21.4335   18.9827  -16.8042 C   0  0  0  0  0  0  0  0  0  0  0  0
  -20.5430   18.7906  -17.8356 C   0  0  0  0  0  0  0  0  0  0  0  0
  -20.9872   19.4280  -19.3879 S   0  0  0  0  0  0  0  0  0  0  0  0
  -20.8627   18.4438  -20.5105 O   0  0  0  0  0  0  0  0  0  0  0  0
  -22.4811   19.7726  -19.3426 O   0  0  0  0  0  0  0  0  0  0  0  0
  -20.1064   20.8983  -19.7742 C   0  0  0  0  0  0  0  0  0  0  0  0
  -19.4341   21.4415  -18.4870 C   0  0  0  0  0  0  0  0  0  0  0  0
  -19.0753   20.7158  -20.8545 C   0  0  0  0  0  0  0  0  0  0  0  0
  -18.5112   11.1396  -18.5035 C   0  0  0  0  0  0  0  0  0  0  0  0
  -18.7600   10.3680  -17.3936 C   0  0  0  0  0  0  0  0  0  0  0  0
  -19.7171   10.7029  -16.4408 C   0  0  0  0  0  0  0  0  0  0  0  0
  -20.4325   11.8532  -16.6335 C   0  0  0  0  0  0  0  0  0  0  0  0
  -20.2084   12.6694  -17.7535 C   0  0  0  0  0  0  0  0  0  0  0  0
  -19.2563   12.3105  -18.6753 C   0  0  0  0  0  0  0  0  0  0  0  0
  -19.9791    9.8926  -15.3037 N   0  0  0  0  0  0  0  0  0  0  0  0
  -19.1893    8.6846  -15.0524 C   0  0  0  0  0  0  0  0  0  0  0  0
  -19.3567    8.2714  -13.5912 C   0  0  0  0  0  0  0  0  0  0  0  0
  -19.2114    9.4821  -12.7160 C   0  0  0  0  0  0  0  0  0  0  0  0
  -20.4567   10.3196  -12.9157 C   0  0  0  0  0  0  0  0  0  0  0  0
  -20.9945   10.1806  -14.3285 C   0  0  0  0  0  0  0  0  0  0  0  0
  -19.1332    9.1232  -11.3264 N   0  0  0  0  0  0  0  0  0  0  0  0
  -18.2756    7.9427  -11.1604 C   0  0  0  0  0  0  0  0  0  0  0  0
  -18.1926    7.6912   -9.6649 C   0  0  0  0  0  0  0  0  0  0  0  0
  -19.4389    7.3869   -9.1292 O   0  0  0  0  0  0  0  0  0  0  0  0
  -20.2256    8.5215   -9.2899 C   0  0  0  0  0  0  0  0  0  0  0  0
  -20.4197    8.7341  -10.7764 C   0  0  0  0  0  0  0  0  0  0  0  0
  -16.1858   10.9164  -19.1133 C   0  0  0  0  0  0  0  0  0  0  0  0
  -17.5574   10.8007  -19.4484 O   0  0  0  0  0  0  0  0  0  0  0  0
 42 43  1  0  0  0
 43 24  1  0  0  0
 24 25  2  0  0  0
 25 26  1  0  0  0
 26 27  2  0  0  0
 27 28  1  0  0  0
 28 29  2  0  0  0
 29  1  1  0  0  0
  1  3  1  0  0  0
  3  4  2  0  0  0
  4  5  1  0  0  0
  5  6  2  0  0  0
  6  7  1  0  0  0
  6  8  1  0  0  0
  8 10  1  0  0  0
 10 12  1  0  0  0
 12 13  2  0  0  0
 13 14  1  0  0  0
 14 15  2  0  0  0
 15 16  1  0  0  0
 16 17  2  0  0  0
 17 18  1  0  0  0
 18 19  2  0  0  0
 18 20  2  0  0  0
 18 21  1  0  0  0
 21 22  1  0  0  0
 21 23  1  0  0  0
  8  9  2  0  0  0
 26 30  1  0  0  0
 30 31  1  0  0  0
 31 32  1  0  0  0
 32 33  1  0  0  0
 33 34  1  0  0  0
 34 35  1  0  0  0
 33 36  1  0  0  0
 36 37  1  0  0  0
 37 38  1  0  0  0
 38 39  1  0  0  0
 39 40  1  0  0  0
 40 41  1  0  0  0
 29 24  1  0  0  0
  9  3  1  0  0  0
 35 30  1  0  0  0
 41 36  1  0  0  0
 17 12  1  0  0  0
  1  2  1  0  0  0
 10 11  1  0  0  0
M  END
> <minimizedAffinity>
-7.38652

> <CNNscore>
0.1414850056

> <CNNaffinity>
6.8029723167

> <CNN_VS>
0.9625185728

> <CNNaffinity_variance>
0.2279445231

$$$$
[H]c1nc(N([H])c2c([H])c([H])c(N3C([H])([H])C([H])([H])C([H])(N4C([H])([H])C([H])([H])OC([H])([H])C4([H])[H])C([H])([H])C3([H])[H])c([H])c2OC([H])([H])[H])nc(N([H])c2c([H])c([H])c([H])c([H])c2S(=O)(=O)C([H])(C([H])([H])[H])C([H])([H])[H])c1Cl


 43 47  0  0  0  0  0  0  0  0999 V2000
  -17.3465   13.3309  -20.8124 N   0  0  0  0  0  0  0  0  0  0  0  0
  -16.4734   12.8948  -21.3030 H   0  0  0  0  0  0  0  0  0  0  0  0
  -17.6796   14.6125  -21.2904 C   0  0  0  0  0  0  0  0  0  0  0  0
  -16.8927   15.1210  -22.3051 N   0  0  0  0  0  0  0  0  0  0  0  0
  -17.0893   16.2895  -22.8793 C   0  0  0  0  0  0  0  0  0  0  0  0
  -18.1392   17.0770  -22.4629 C   0  0  0  0  0  0  0  0  0  0  0  0
  -18.4699   18.6311  -23.1732 Cl  0  0  0  0  0  0  0  0  0  0  0  0
  -18.9813   16.6186  -21.4339 C   0  0  0  0  0  0  0  0  0  0  0  0
  -18.6796   15.4015  -20.9195 N   0  0  0  0  0  0  0  0  0  0  0  0
  -20.0188   17.4593  -21.0236 N   0  0  0  0  0  0  0  0  0  0  0  0
  -20.9681   17.2507  -21.4658 H   0  0  0  0  0  0  0  0  0  0  0  0
  -20.0483   18.5311  -20.1098 C   0  0  0  0  0  0  0  0  0  0  0  0
  -19.1291   18.6830  -19.1047 C   0  0  0  0  0  0  0  0  0  0  0  0
  -19.2425   19.7150  -18.1975 C   0  0  0  0  0  0  0  0  0  0  0  0
  -20.2689   20.6234  -18.2611 C   0  0  0  0  0  0  0  0  0  0  0  0
  -21.2095   20.4860  -19.2726 C   0  0  0  0  0  0  0  0  0  0  0  0
  -21.1054   19.4594  -20.1830 C   0  0  0  0  0  0  0  0  0  0  0  0
  -22.3167   19.3821  -21.4239 S   0  0  0  0  0  0  0  0  0  0  0  0
  -22.8564   20.7180  -21.8346 O   0  0  0  0  0  0  0  0  0  0  0  0
  -21.6537   18.8290  -22.6917 O   0  0  0  0  0  0  0  0  0  0  0  0
  -23.6362   18.3053  -20.9921 C   0  0  0  0  0  0  0  0  0  0  0  0
  -23.6315   17.0858  -21.9494 C   0  0  0  0  0  0  0  0  0  0  0  0
  -23.5875   17.8369  -19.5631 C   0  0  0  0  0  0  0  0  0  0  0  0
  -17.2597   11.3672  -19.4521 C   0  0  0  0  0  0  0  0  0  0  0  0
  -17.8014   10.5998  -18.4487 C   0  0  0  0  0  0  0  0  0  0  0  0
  -18.9814   10.9381  -17.7935 C   0  0  0  0  0  0  0  0  0  0  0  0
  -19.6168   12.0872  -18.1781 C   0  0  0  0  0  0  0  0  0  0  0  0
  -19.0960   12.8990  -19.1981 C   0  0  0  0  0  0  0  0  0  0  0  0
  -17.9292   12.5370  -19.8248 C   0  0  0  0  0  0  0  0  0  0  0  0
  -19.5433   10.1322  -16.7673 N   0  0  0  0  0  0  0  0  0  0  0  0
  -18.8702    8.9064  -16.3307 C   0  0  0  0  0  0  0  0  0  0  0  0
  -19.4153    8.4948  -14.9642 C   0  0  0  0  0  0  0  0  0  0  0  0
  -19.4734    9.7006  -14.0723 C   0  0  0  0  0  0  0  0  0  0  0  0
  -20.6077   10.5662  -14.5784 C   0  0  0  0  0  0  0  0  0  0  0  0
  -20.7683   10.4414  -16.0828 C   0  0  0  0  0  0  0  0  0  0  0  0
  -19.7615    9.3380  -12.7117 N   0  0  0  0  0  0  0  0  0  0  0  0
  -18.6959    8.4752  -12.1857 C   0  0  0  0  0  0  0  0  0  0  0  0
  -19.0478    8.2127  -10.7318 C   0  0  0  0  0  0  0  0  0  0  0  0
  -20.2480    7.5210  -10.6146 O   0  0  0  0  0  0  0  0  0  0  0  0
  -21.2384    8.3619  -11.1088 C   0  0  0  0  0  0  0  0  0  0  0  0
  -20.9770    8.5529  -12.5879 C   0  0  0  0  0  0  0  0  0  0  0  0
  -16.0949    9.9444  -21.0168 C   0  0  0  0  0  0  0  0  0  0  0  0
  -16.0850   11.0250  -20.1007 O   0  0  0  0  0  0  0  0  0  0  0  0
 42 43  1  0  0  0
 43 24  1  0  0  0
 24 25  2  0  0  0
 25 26  1  0  0  0
 26 27  2  0  0  0
 27 28  1  0  0  0
 28 29  2  0  0  0
 29  1  1  0  0  0
  1  3  1  0  0  0
  3  4  2  0  0  0
  4  5  1  0  0  0
  5  6  2  0  0  0
  6  7  1  0  0  0
  6  8  1  0  0  0
  8 10  1  0  0  0
 10 12  1  0  0  0
 12 13  2  0  0  0
 13 14  1  0  0  0
 14 15  2  0  0  0
 15 16  1  0  0  0
 16 17  2  0  0  0
 17 18  1  0  0  0
 18 19  2  0  0  0
 18 20  2  0  0  0
 18 21  1  0  0  0
 21 22  1  0  0  0
 21 23  1  0  0  0
  8  9  2  0  0  0
 26 30  1  0  0  0
 30 31  1  0  0  0
 31 32  1  0  0  0
 32 33  1  0  0  0
 33 34  1  0  0  0
 34 35  1  0  0  0
 33 36  1  0  0  0
 36 37  1  0  0  0
 37 38  1  0  0  0
 38 39  1  0  0  0
 39 40  1  0  0  0
 40 41  1  0  0  0
 29 24  1  0  0  0
  9  3  1  0  0  0
 35 30  1  0  0  0
 41 36  1  0  0  0
 17 12  1  0  0  0
  1  2  1  0  0  0
 10 11  1  0  0  0
M  END
> <minimizedAffinity>
-7.66107

> <CNNscore>
0.0972888172

> <CNNaffinity>
6.9825921059

> <CNN_VS>
0.6793281436

> <CNNaffinity_variance>
0.0960772783

$$$$
[H]c1nc(N([H])c2c([H])c([H])c(N3C([H])([H])C([H])([H])C([H])(N4C([H])([H])C([H])([H])OC([H])([H])C4([H])[H])C([H])([H])C3([H])[H])c([H])c2OC([H])([H])[H])nc(N([H])c2c([H])c([H])c([H])c([H])c2S(=O)(=O)C([H])(C([H])([H])[H])C([H])([H])[H])c1Cl


 43 47  0  0  0  0  0  0  0  0999 V2000
  -17.3335   12.7528  -21.0211 N   0  0  0  0  0  0  0  0  0  0  0  0
  -16.6496   12.0356  -21.4806 H   0  0  0  0  0  0  0  0  0  0  0  0
  -17.3521   14.0049  -21.6643 C   0  0  0  0  0  0  0  0  0  0  0  0
  -16.4942   14.1663  -22.7346 N   0  0  0  0  0  0  0  0  0  0  0  0
  -16.4117   15.2636  -23.4578 C   0  0  0  0  0  0  0  0  0  0  0  0
  -17.2203   16.3352  -23.1518 C   0  0  0  0  0  0  0  0  0  0  0  0
  -17.1758   17.8185  -24.0610 Cl  0  0  0  0  0  0  0  0  0  0  0  0
  -18.1186   16.2374  -22.0740 C   0  0  0  0  0  0  0  0  0  0  0  0
  -18.1133   15.0596  -21.4033 N   0  0  0  0  0  0  0  0  0  0  0  0
  -18.9022   17.3562  -21.7809 N   0  0  0  0  0  0  0  0  0  0  0  0
  -18.4233   18.0947  -21.1763 H   0  0  0  0  0  0  0  0  0  0  0  0
  -20.2153   17.7026  -22.1557 C   0  0  0  0  0  0  0  0  0  0  0  0
  -20.6130   17.8257  -23.4615 C   0  0  0  0  0  0  0  0  0  0  0  0
  -21.8937   18.2309  -23.7717 C   0  0  0  0  0  0  0  0  0  0  0  0
  -22.8143   18.5253  -22.7978 C   0  0  0  0  0  0  0  0  0  0  0  0
  -22.4301   18.4061  -21.4694 C   0  0  0  0  0  0  0  0  0  0  0  0
  -21.1541   18.0025  -21.1491 C   0  0  0  0  0  0  0  0  0  0  0  0
  -20.7732   17.8625  -19.4613 S   0  0  0  0  0  0  0  0  0  0  0  0
  -21.9643   17.9521  -18.5570 O   0  0  0  0  0  0  0  0  0  0  0  0
  -20.2143   16.4542  -19.2226 O   0  0  0  0  0  0  0  0  0  0  0  0
  -19.5490   19.0199  -18.9628 C   0  0  0  0  0  0  0  0  0  0  0  0
  -19.8686   20.4008  -19.5911 C   0  0  0  0  0  0  0  0  0  0  0  0
  -19.4188   19.1526  -17.4698 C   0  0  0  0  0  0  0  0  0  0  0  0
  -17.4586   11.2207  -19.1905 C   0  0  0  0  0  0  0  0  0  0  0  0
  -18.1079   10.7768  -18.0633 C   0  0  0  0  0  0  0  0  0  0  0  0
  -19.2978   11.3365  -17.6081 C   0  0  0  0  0  0  0  0  0  0  0  0
  -19.8303   12.3721  -18.3263 C   0  0  0  0  0  0  0  0  0  0  0  0
  -19.1980   12.8555  -19.4827 C   0  0  0  0  0  0  0  0  0  0  0  0
  -18.0245   12.2812  -19.9051 C   0  0  0  0  0  0  0  0  0  0  0  0
  -19.9711   10.8625  -16.4504 N   0  0  0  0  0  0  0  0  0  0  0  0
  -21.3726   11.2137  -16.2082 C   0  0  0  0  0  0  0  0  0  0  0  0
  -21.9629   10.2435  -15.1863 C   0  0  0  0  0  0  0  0  0  0  0  0
  -21.5730    8.8416  -15.5542 C   0  0  0  0  0  0  0  0  0  0  0  0
  -20.0960    8.7035  -15.2522 C   0  0  0  0  0  0  0  0  0  0  0  0
  -19.3655   10.0183  -15.4578 C   0  0  0  0  0  0  0  0  0  0  0  0
  -22.2823    7.8717  -14.7653 N   0  0  0  0  0  0  0  0  0  0  0  0
  -22.5927    8.4302  -13.4431 C   0  0  0  0  0  0  0  0  0  0  0  0
  -23.4034    7.3694  -12.7192 C   0  0  0  0  0  0  0  0  0  0  0  0
  -22.6646    6.2078  -12.5245 O   0  0  0  0  0  0  0  0  0  0  0  0
  -22.3937    5.6956  -13.7880 C   0  0  0  0  0  0  0  0  0  0  0  0
  -21.4912    6.6840  -14.4959 C   0  0  0  0  0  0  0  0  0  0  0  0
  -16.3200    9.6960  -20.6765 C   0  0  0  0  0  0  0  0  0  0  0  0
  -16.2748   10.6592  -19.6386 O   0  0  0  0  0  0  0  0  0  0  0  0
 42 43  1  0  0  0
 43 24  1  0  0  0
 24 25  2  0  0  0
 25 26  1  0  0  0
 26 27  2  0  0  0
 27 28  1  0  0  0
 28 29  2  0  0  0
 29  1  1  0  0  0
  1  3  1  0  0  0
  3  4  2  0  0  0
  4  5  1  0  0  0
  5  6  2  0  0  0
  6  7  1  0  0  0
  6  8  1  0  0  0
  8 10  1  0  0  0
 10 12  1  0  0  0
 12 13  2  0  0  0
 13 14  1  0  0  0
 14 15  2  0  0  0
 15 16  1  0  0  0
 16 17  2  0  0  0
 17 18  1  0  0  0
 18 19  2  0  0  0
 18 20  2  0  0  0
 18 21  1  0  0  0
 21 22  1  0  0  0
 21 23  1  0  0  0
  8  9  2  0  0  0
 26 30  1  0  0  0
 30 31  1  0  0  0
 31 32  1  0  0  0
 32 33  1  0  0  0
 33 34  1  0  0  0
 34 35  1  0  0  0
 33 36  1  0  0  0
 36 37  1  0  0  0
 37 38  1  0  0  0
 38 39  1  0  0  0
 39 40  1  0  0  0
 40 41  1  0  0  0
 29 24  1  0  0  0
  9  3  1  0  0  0
 35 30  1  0  0  0
 41 36  1  0  0  0
 17 12  1  0  0  0
  1  2  1  0  0  0
 10 11  1  0  0  0
M  END
> <minimizedAffinity>
-7.26103

> <CNNscore>
0.0970839709

> <CNNaffinity>
7.0834717751

> <CNN_VS>
0.6876915693

> <CNNaffinity_variance>
0.1302318275

$$$$
[H]OC1([H])C([H])([H])C([H])([H])N(c2c([H])c3c([H])c(Sc4c([H])c([H])c([H])c([H])c4[H])c([H])nc3n2[H])C([H])([H])C1([H])[H]


 25 28  0  0  0  0  0  0  0  0999 V2000
  -18.4187   10.4450  -18.1443 C   0  0  0  0  0  0  0  0  0  0  0  0
  -18.5681   11.4960  -19.0227 C   0  0  0  0  0  0  0  0  0  0  0  0
  -17.6168   11.4378  -20.0169 C   0  0  0  0  0  0  0  0  0  0  0  0
  -17.2929   12.2004  -21.1340 C   0  0  0  0  0  0  0  0  0  0  0  0
  -16.2430   11.8620  -21.9614 C   0  0  0  0  0  0  0  0  0  0  0  0
  -15.5296   10.7225  -21.6194 C   0  0  0  0  0  0  0  0  0  0  0  0
  -15.8386    9.9810  -20.5394 N   0  0  0  0  0  0  0  0  0  0  0  0
  -16.8699   10.3153  -19.7285 C   0  0  0  0  0  0  0  0  0  0  0  0
  -17.3603    9.7352  -18.6100 N   0  0  0  0  0  0  0  0  0  0  0  0
  -16.9718    8.8694  -18.1791 H   0  0  0  0  0  0  0  0  0  0  0  0
  -21.7165    9.7178  -14.2207 O   0  0  0  0  0  0  0  0  0  0  0  0
  -20.3123    9.8027  -14.3638 C   0  0  0  0  0  0  0  0  0  0  0  0
  -20.0108   11.1316  -15.0166 C   0  0  0  0  0  0  0  0  0  0  0  0
  -20.2615   10.9758  -16.4972 C   0  0  0  0  0  0  0  0  0  0  0  0
  -19.1750   10.1158  -16.9892 N   0  0  0  0  0  0  0  0  0  0  0  0
  -18.8930    8.9234  -16.2616 C   0  0  0  0  0  0  0  0  0  0  0  0
  -19.8504    8.6310  -15.1617 C   0  0  0  0  0  0  0  0  0  0  0  0
  -22.0906   10.6324  -14.1331 H   0  0  0  0  0  0  0  0  0  0  0  0
  -15.7993   12.8357  -23.4083 S   0  0  0  0  0  0  0  0  0  0  0  0
  -16.6696   14.3900  -23.3591 C   0  0  0  0  0  0  0  0  0  0  0  0
  -17.8665   14.6148  -24.0067 C   0  0  0  0  0  0  0  0  0  0  0  0
  -18.4956   15.8536  -23.9279 C   0  0  0  0  0  0  0  0  0  0  0  0
  -17.9338   16.8796  -23.2006 C   0  0  0  0  0  0  0  0  0  0  0  0
  -16.7394   16.6690  -22.5491 C   0  0  0  0  0  0  0  0  0  0  0  0
  -16.1115   15.4213  -22.6321 C   0  0  0  0  0  0  0  0  0  0  0  0
 11 12  1  0  0  0
 12 13  1  0  0  0
 13 14  1  0  0  0
 14 15  1  0  0  0
 15 16  1  0  0  0
 16 17  1  0  0  0
 15  1  1  0  0  0
  1  2  2  0  0  0
  2  3  1  0  0  0
  3  4  2  0  0  0
  4  5  1  0  0  0
  5 19  1  0  0  0
 19 20  1  0  0  0
 20 21  2  0  0  0
 21 22  1  0  0  0
 22 23  2  0  0  0
 23 24  1  0  0  0
 24 25  2  0  0  0
  5  6  2  0  0  0
  6  7  1  0  0  0
  7  8  2  0  0  0
  8  9  1  0  0  0
 17 12  1  0  0  0
  9  1  1  0  0  0
  8  3  1  0  0  0
 25 20  1  0  0  0
 11 18  1  0  0  0
  9 10  1  0  0  0
M  END
> <minimizedAffinity>
-7.90086

> <CNNscore>
0.9529566169

> <CNNaffinity>
6.6881957054

> <CNN_VS>
6.3735604286

> <CNNaffinity_variance>
0.1188058034

$$$$
[H]OC1([H])C([H])([H])C([H])([H])N(c2c([H])c3c([H])c(Sc4c([H])c([H])c([H])c([H])c4[H])c([H])nc3n2[H])C([H])([H])C1([H])[H]


 25 28  0  0  0  0  0  0  0  0999 V2000
  -18.4009   10.3940  -18.0715 C   0  0  0  0  0  0  0  0  0  0  0  0
  -18.5590   11.4574  -18.9333 C   0  0  0  0  0  0  0  0  0  0  0  0
  -17.6281   11.4042  -19.9470 C   0  0  0  0  0  0  0  0  0  0  0  0
  -17.3201   12.1785  -21.0606 C   0  0  0  0  0  0  0  0  0  0  0  0
  -16.2898   11.8422  -21.9130 C   0  0  0  0  0  0  0  0  0  0  0  0
  -15.5793   10.6927  -21.5998 C   0  0  0  0  0  0  0  0  0  0  0  0
  -15.8729    9.9399  -20.5234 N   0  0  0  0  0  0  0  0  0  0  0  0
  -16.8851   10.2721  -19.6878 C   0  0  0  0  0  0  0  0  0  0  0  0
  -17.3580    9.6817  -18.5672 N   0  0  0  0  0  0  0  0  0  0  0  0
  -16.9683    8.8072  -18.1551 H   0  0  0  0  0  0  0  0  0  0  0  0
  -20.4576    8.7607  -13.6103 O   0  0  0  0  0  0  0  0  0  0  0  0
  -20.9368    9.0137  -14.9164 C   0  0  0  0  0  0  0  0  0  0  0  0
  -20.1184    8.1667  -15.8628 C   0  0  0  0  0  0  0  0  0  0  0  0
  -18.8066    8.8791  -16.0888 C   0  0  0  0  0  0  0  0  0  0  0  0
  -19.1369   10.0562  -16.9057 N   0  0  0  0  0  0  0  0  0  0  0  0
  -20.2369   10.8621  -16.4921 C   0  0  0  0  0  0  0  0  0  0  0  0
  -20.8256   10.4766  -15.1818 C   0  0  0  0  0  0  0  0  0  0  0  0
  -20.0875    7.8412  -13.5718 H   0  0  0  0  0  0  0  0  0  0  0  0
  -15.8668   12.8308  -23.3560 S   0  0  0  0  0  0  0  0  0  0  0  0
  -16.6538   14.4243  -23.2269 C   0  0  0  0  0  0  0  0  0  0  0  0
  -16.1804   15.4466  -22.4311 C   0  0  0  0  0  0  0  0  0  0  0  0
  -16.8431   16.6691  -22.3751 C   0  0  0  0  0  0  0  0  0  0  0  0
  -17.9858   16.8810  -23.1146 C   0  0  0  0  0  0  0  0  0  0  0  0
  -18.4694   15.8692  -23.9133 C   0  0  0  0  0  0  0  0  0  0  0  0
  -17.7987   14.6422  -23.9653 C   0  0  0  0  0  0  0  0  0  0  0  0
 11 12  1  0  0  0
 12 13  1  0  0  0
 13 14  1  0  0  0
 14 15  1  0  0  0
 15 16  1  0  0  0
 16 17  1  0  0  0
 15  1  1  0  0  0
  1  2  2  0  0  0
  2  3  1  0  0  0
  3  4  2  0  0  0
  4  5  1  0  0  0
  5 19  1  0  0  0
 19 20  1  0  0  0
 20 21  2  0  0  0
 21 22  1  0  0  0
 22 23  2  0  0  0
 23 24  1  0  0  0
 24 25  2  0  0  0
  5  6  2  0  0  0
  6  7  1  0  0  0
  7  8  2  0  0  0
  8  9  1  0  0  0
 17 12  1  0  0  0
  9  1  1  0  0  0
  8  3  1  0  0  0
 25 20  1  0  0  0
 11 18  1  0  0  0
  9 10  1  0  0  0
M  END
> <minimizedAffinity>
-7.96693

> <CNNscore>
0.9493033886

> <CNNaffinity>
6.6813483238

> <CNN_VS>
6.3426265717

> <CNNaffinity_variance>
0.1115634665

$$$$
[H]OC1([H])C([H])([H])C([H])([H])N(c2c([H])c3c([H])c(Sc4c([H])c([H])c([H])c([H])c4[H])c([H])nc3n2[H])C([H])([H])C1([H])[H]


 25 28  0  0  0  0  0  0  0  0999 V2000
  -16.2568   12.9403  -23.4498 C   0  0  0  0  0  0  0  0  0  0  0  0
  -17.2512   12.9732  -22.4966 C   0  0  0  0  0  0  0  0  0  0  0  0
  -17.0461   11.9978  -21.5462 C   0  0  0  0  0  0  0  0  0  0  0  0
  -17.6986   11.5752  -20.3929 C   0  0  0  0  0  0  0  0  0  0  0  0
  -17.2189   10.5304  -19.6316 C   0  0  0  0  0  0  0  0  0  0  0  0
  -16.0529    9.9257  -20.0779 C   0  0  0  0  0  0  0  0  0  0  0  0
  -15.4174   10.3304  -21.1933 N   0  0  0  0  0  0  0  0  0  0  0  0
  -15.8905   11.3565  -21.9391 C   0  0  0  0  0  0  0  0  0  0  0  0
  -15.4329   11.9298  -23.0749 N   0  0  0  0  0  0  0  0  0  0  0  0
  -14.5715   11.6288  -23.5786 H   0  0  0  0  0  0  0  0  0  0  0  0
  -14.8477   15.9780  -27.3978 O   0  0  0  0  0  0  0  0  0  0  0  0
  -16.0013   15.8282  -26.5939 C   0  0  0  0  0  0  0  0  0  0  0  0
  -15.5690   16.0064  -25.1572 C   0  0  0  0  0  0  0  0  0  0  0  0
  -14.9523   14.7046  -24.7052 C   0  0  0  0  0  0  0  0  0  0  0  0
  -16.0727   13.7589  -24.5947 N   0  0  0  0  0  0  0  0  0  0  0  0
  -16.9880   13.6861  -25.6846 C   0  0  0  0  0  0  0  0  0  0  0  0
  -16.5972   14.4903  -26.8730 C   0  0  0  0  0  0  0  0  0  0  0  0
  -14.2061   16.5786  -26.9378 H   0  0  0  0  0  0  0  0  0  0  0  0
  -18.0482    9.9602  -18.1398 S   0  0  0  0  0  0  0  0  0  0  0  0
  -19.0917   11.2622  -17.5144 C   0  0  0  0  0  0  0  0  0  0  0  0
  -18.8237   12.6041  -17.6875 C   0  0  0  0  0  0  0  0  0  0  0  0
  -19.6809   13.5724  -17.1732 C   0  0  0  0  0  0  0  0  0  0  0  0
  -20.8145   13.2079  -16.4807 C   0  0  0  0  0  0  0  0  0  0  0  0
  -21.0942   11.8720  -16.3006 C   0  0  0  0  0  0  0  0  0  0  0  0
  -20.2285   10.9030  -16.8200 C   0  0  0  0  0  0  0  0  0  0  0  0
 11 12  1  0  0  0
 12 13  1  0  0  0
 13 14  1  0  0  0
 14 15  1  0  0  0
 15 16  1  0  0  0
 16 17  1  0  0  0
 15  1  1  0  0  0
  1  2  2  0  0  0
  2  3  1  0  0  0
  3  4  2  0  0  0
  4  5  1  0  0  0
  5 19  1  0  0  0
 19 20  1  0  0  0
 20 21  2  0  0  0
 21 22  1  0  0  0
 22 23  2  0  0  0
 23 24  1  0  0  0
 24 25  2  0  0  0
  5  6  2  0  0  0
  6  7  1  0  0  0
  7  8  2  0  0  0
  8  9  1  0  0  0
 17 12  1  0  0  0
  9  1  1  0  0  0
  8  3  1  0  0  0
 25 20  1  0  0  0
 11 18  1  0  0  0
  9 10  1  0  0  0
M  END
> <minimizedAffinity>
-8.67926

> <CNNscore>
0.9486070871

> <CNNaffinity>
6.8543715477

> <CNN_VS>
6.5021052361

> <CNNaffinity_variance>
0.0177619644

$$$$
[H]OC1([H])C([H])([H])C([H])([H])N(c2c([H])c3c([H])c(Sc4c([H])c([H])c([H])c([H])c4[H])c([H])nc3n2[H])C([H])([H])C1([H])[H]


 25 28  0  0  0  0  0  0  0  0999 V2000
  -16.1843   13.2052  -23.7661 C   0  0  0  0  0  0  0  0  0  0  0  0
  -17.1776   13.2300  -22.8114 C   0  0  0  0  0  0  0  0  0  0  0  0
  -16.9639   12.2554  -21.8621 C   0  0  0  0  0  0  0  0  0  0  0  0
  -17.6118   11.8271  -20.7083 C   0  0  0  0  0  0  0  0  0  0  0  0
  -17.1233   10.7852  -19.9485 C   0  0  0  0  0  0  0  0  0  0  0  0
  -15.9536   10.1894  -20.3970 C   0  0  0  0  0  0  0  0  0  0  0  0
  -15.3227   10.5996  -21.5129 N   0  0  0  0  0  0  0  0  0  0  0  0
  -15.8043   11.6228  -22.2572 C   0  0  0  0  0  0  0  0  0  0  0  0
  -15.3525   12.2003  -23.3931 N   0  0  0  0  0  0  0  0  0  0  0  0
  -14.4896   11.9061  -23.8983 H   0  0  0  0  0  0  0  0  0  0  0  0
  -16.3038   16.3190  -27.9000 O   0  0  0  0  0  0  0  0  0  0  0  0
  -15.5799   15.1657  -27.5186 C   0  0  0  0  0  0  0  0  0  0  0  0
  -16.5917   14.0875  -27.2077 C   0  0  0  0  0  0  0  0  0  0  0  0
  -17.1192   14.3491  -25.8175 C   0  0  0  0  0  0  0  0  0  0  0  0
  -16.0078   14.0260  -24.9106 N   0  0  0  0  0  0  0  0  0  0  0  0
  -14.7246   14.5647  -25.2173 C   0  0  0  0  0  0  0  0  0  0  0  0
  -14.7128   15.5185  -26.3582 C   0  0  0  0  0  0  0  0  0  0  0  0
  -17.1668   16.0429  -28.3038 H   0  0  0  0  0  0  0  0  0  0  0  0
  -17.9463   10.2078  -18.4560 S   0  0  0  0  0  0  0  0  0  0  0  0
  -18.8883   11.5457  -17.7502 C   0  0  0  0  0  0  0  0  0  0  0  0
  -20.1246   11.3805  -17.1614 C   0  0  0  0  0  0  0  0  0  0  0  0
  -20.8090   12.4686  -16.6281 C   0  0  0  0  0  0  0  0  0  0  0  0
  -20.2635   13.7324  -16.6785 C   0  0  0  0  0  0  0  0  0  0  0  0
  -19.0302   13.9116  -17.2633 C   0  0  0  0  0  0  0  0  0  0  0  0
  -18.3469   12.8138  -17.7979 C   0  0  0  0  0  0  0  0  0  0  0  0
 11 12  1  0  0  0
 12 13  1  0  0  0
 13 14  1  0  0  0
 14 15  1  0  0  0
 15 16  1  0  0  0
 16 17  1  0  0  0
 15  1  1  0  0  0
  1  2  2  0  0  0
  2  3  1  0  0  0
  3  4  2  0  0  0
  4  5  1  0  0  0
  5 19  1  0  0  0
 19 20  1  0  0  0
 20 21  2  0  0  0
 21 22  1  0  0  0
 22 23  2  0  0  0
 23 24  1  0  0  0
 24 25  2  0  0  0
  5  6  2  0  0  0
  6  7  1  0  0  0
  7  8  2  0  0  0
  8  9  1  0  0  0
 17 12  1  0  0  0
  9  1  1  0  0  0
  8  3  1  0  0  0
 25 20  1  0  0  0
 11 18  1  0  0  0
  9 10  1  0  0  0
M  END
> <minimizedAffinity>
-8.54309

> <CNNscore>
0.9250853658

> <CNNaffinity>
6.8365159035

> <CNN_VS>
6.3243608475

> <CNNaffinity_variance>
0.0215997566

$$$$
[H]OC1([H])C([H])([H])C([H])([H])N(c2c([H])c3c([H])c(Sc4c([H])c([H])c([H])c([H])c4[H])c([H])nc3n2[H])C([H])([H])C1([H])[H]


 25 28  0  0  0  0  0  0  0  0999 V2000
  -18.8356   10.1570  -17.1236 C   0  0  0  0  0  0  0  0  0  0  0  0
  -19.1185   11.3114  -17.8208 C   0  0  0  0  0  0  0  0  0  0  0  0
  -18.3449   11.3950  -18.9572 C   0  0  0  0  0  0  0  0  0  0  0  0
  -18.2030   12.3004  -20.0033 C   0  0  0  0  0  0  0  0  0  0  0  0
  -17.3073   12.0859  -21.0295 C   0  0  0  0  0  0  0  0  0  0  0  0
  -16.5576   10.9207  -20.9612 C   0  0  0  0  0  0  0  0  0  0  0  0
  -16.6907   10.0412  -19.9511 N   0  0  0  0  0  0  0  0  0  0  0  0
  -17.5709   10.2541  -18.9446 C   0  0  0  0  0  0  0  0  0  0  0  0
  -17.8751    9.5273  -17.8459 N   0  0  0  0  0  0  0  0  0  0  0  0
  -17.4286    8.6178  -17.6015 H   0  0  0  0  0  0  0  0  0  0  0  0
  -21.3286    9.0076  -12.7346 O   0  0  0  0  0  0  0  0  0  0  0  0
  -20.0059    8.8720  -13.2160 C   0  0  0  0  0  0  0  0  0  0  0  0
  -19.5347   10.2502  -13.6177 C   0  0  0  0  0  0  0  0  0  0  0  0
  -20.1155   10.5483  -14.9790 C   0  0  0  0  0  0  0  0  0  0  0  0
  -19.3937    9.6709  -15.9125 N   0  0  0  0  0  0  0  0  0  0  0  0
  -19.2632    8.2957  -15.5624 C   0  0  0  0  0  0  0  0  0  0  0  0
  -20.0146    7.8958  -14.3429 C   0  0  0  0  0  0  0  0  0  0  0  0
  -21.4451    9.9166  -12.3549 H   0  0  0  0  0  0  0  0  0  0  0  0
  -17.0998   13.2450  -22.3903 S   0  0  0  0  0  0  0  0  0  0  0  0
  -17.4632   14.8930  -21.8180 C   0  0  0  0  0  0  0  0  0  0  0  0
  -18.7203   15.4584  -21.8693 C   0  0  0  0  0  0  0  0  0  0  0  0
  -18.9373   16.7522  -21.4049 C   0  0  0  0  0  0  0  0  0  0  0  0
  -17.8991   17.4932  -20.8848 C   0  0  0  0  0  0  0  0  0  0  0  0
  -16.6392   16.9412  -20.8275 C   0  0  0  0  0  0  0  0  0  0  0  0
  -16.4272   15.6398  -21.2961 C   0  0  0  0  0  0  0  0  0  0  0  0
 11 12  1  0  0  0
 12 13  1  0  0  0
 13 14  1  0  0  0
 14 15  1  0  0  0
 15 16  1  0  0  0
 16 17  1  0  0  0
 15  1  1  0  0  0
  1  2  2  0  0  0
  2  3  1  0  0  0
  3  4  2  0  0  0
  4  5  1  0  0  0
  5 19  1  0  0  0
 19 20  1  0  0  0
 20 21  2  0  0  0
 21 22  1  0  0  0
 22 23  2  0  0  0
 23 24  1  0  0  0
 24 25  2  0  0  0
  5  6  2  0  0  0
  6  7  1  0  0  0
  7  8  2  0  0  0
  8  9  1  0  0  0
 17 12  1  0  0  0
  9  1  1  0  0  0
  8  3  1  0  0  0
 25 20  1  0  0  0
 11 18  1  0  0  0
  9 10  1  0  0  0
M  END
> <minimizedAffinity>
-7.37603

> <CNNscore>
0.8603503108

> <CNNaffinity>
6.2806825638

> <CNN_VS>
5.4035873413

> <CNNaffinity_variance>
0.1059006304

$$$$
[H]OC1([H])C([H])([H])C([H])([H])N(c2c([H])c3c([H])c(Sc4c([H])c([H])c([H])c([H])c4[H])c([H])nc3n2[H])C([H])([H])C1([H])[H]


 25 28  0  0  0  0  0  0  0  0999 V2000
  -18.9025   10.9339  -17.8755 C   0  0  0  0  0  0  0  0  0  0  0  0
  -19.3834   12.1606  -18.2783 C   0  0  0  0  0  0  0  0  0  0  0  0
  -18.7521   12.5761  -19.4297 C   0  0  0  0  0  0  0  0  0  0  0  0
  -18.8243   13.6884  -20.2616 C   0  0  0  0  0  0  0  0  0  0  0  0
  -18.0278   13.8078  -21.3808 C   0  0  0  0  0  0  0  0  0  0  0  0
  -17.1531   12.7606  -21.6308 C   0  0  0  0  0  0  0  0  0  0  0  0
  -17.0789   11.6820  -20.8290 N   0  0  0  0  0  0  0  0  0  0  0  0
  -17.8620   11.5671  -19.7305 C   0  0  0  0  0  0  0  0  0  0  0  0
  -17.9638   10.5963  -18.7951 N   0  0  0  0  0  0  0  0  0  0  0  0
  -17.3972    9.7215  -18.7928 H   0  0  0  0  0  0  0  0  0  0  0  0
  -20.8821    8.4706  -13.7751 O   0  0  0  0  0  0  0  0  0  0  0  0
  -19.5895    8.8513  -14.2038 C   0  0  0  0  0  0  0  0  0  0  0  0
  -19.6146   10.3464  -14.4205 C   0  0  0  0  0  0  0  0  0  0  0  0
  -20.2532   10.5982  -15.7651 C   0  0  0  0  0  0  0  0  0  0  0  0
  -19.2691   10.1404  -16.7571 N   0  0  0  0  0  0  0  0  0  0  0  0
  -18.6791    8.8580  -16.5618 C   0  0  0  0  0  0  0  0  0  0  0  0
  -19.2569    8.0785  -15.4346 C   0  0  0  0  0  0  0  0  0  0  0  0
  -21.3045    9.2318  -13.2993 H   0  0  0  0  0  0  0  0  0  0  0  0
  -18.0972   15.2395  -22.4689 S   0  0  0  0  0  0  0  0  0  0  0  0
  -16.8327   15.0909  -23.7156 C   0  0  0  0  0  0  0  0  0  0  0  0
  -15.4950   15.3281  -23.4773 C   0  0  0  0  0  0  0  0  0  0  0  0
  -14.5567   15.1939  -24.4963 C   0  0  0  0  0  0  0  0  0  0  0  0
  -14.9472   14.8211  -25.7636 C   0  0  0  0  0  0  0  0  0  0  0  0
  -16.2793   14.5812  -26.0154 C   0  0  0  0  0  0  0  0  0  0  0  0
  -17.2180   14.7178  -24.9868 C   0  0  0  0  0  0  0  0  0  0  0  0
 11 12  1  0  0  0
 12 13  1  0  0  0
 13 14  1  0  0  0
 14 15  1  0  0  0
 15 16  1  0  0  0
 16 17  1  0  0  0
 15  1  1  0  0  0
  1  2  2  0  0  0
  2  3  1  0  0  0
  3  4  2  0  0  0
  4  5  1  0  0  0
  5 19  1  0  0  0
 19 20  1  0  0  0
 20 21  2  0  0  0
 21 22  1  0  0  0
 22 23  2  0  0  0
 23 24  1  0  0  0
 24 25  2  0  0  0
  5  6  2  0  0  0
  6  7  1  0  0  0
  7  8  2  0  0  0
  8  9  1  0  0  0
 17 12  1  0  0  0
  9  1  1  0  0  0
  8  3  1  0  0  0
 25 20  1  0  0  0
 11 18  1  0  0  0
  9 10  1  0  0  0
M  END
> <minimizedAffinity>
-7.60331

> <CNNscore>
0.6245396137

> <CNNaffinity>
6.1575045586

> <CNN_VS>
3.8456056118

> <CNNaffinity_variance>
0.1331034750

$$$$
[H]OC1([H])C([H])([H])C([H])([H])N(c2c([H])c3c([H])c(Sc4c([H])c([H])c([H])c([H])c4[H])c([H])nc3n2[H])C([H])([H])C1([H])[H]


 25 28  0  0  0  0  0  0  0  0999 V2000
  -17.4303   12.9143  -21.7153 C   0  0  0  0  0  0  0  0  0  0  0  0
  -18.4361   13.2021  -20.8185 C   0  0  0  0  0  0  0  0  0  0  0  0
  -18.4612   12.2735  -19.8017 C   0  0  0  0  0  0  0  0  0  0  0  0
  -19.2280   12.0640  -18.6604 C   0  0  0  0  0  0  0  0  0  0  0  0
  -18.9899   11.0020  -17.8137 C   0  0  0  0  0  0  0  0  0  0  0  0
  -17.9466   10.1566  -18.1617 C   0  0  0  0  0  0  0  0  0  0  0  0
  -17.2015   10.3545  -19.2650 N   0  0  0  0  0  0  0  0  0  0  0  0
  -17.4373   11.3980  -20.0949 C   0  0  0  0  0  0  0  0  0  0  0  0
  -16.8331   11.7935  -21.2379 N   0  0  0  0  0  0  0  0  0  0  0  0
  -16.0272   11.2997  -21.6773 H   0  0  0  0  0  0  0  0  0  0  0  0
  -15.6015   14.7957  -26.1779 O   0  0  0  0  0  0  0  0  0  0  0  0
  -15.9401   15.3309  -24.9136 C   0  0  0  0  0  0  0  0  0  0  0  0
  -15.1270   14.5846  -23.8818 C   0  0  0  0  0  0  0  0  0  0  0  0
  -15.8168   13.2656  -23.6295 C   0  0  0  0  0  0  0  0  0  0  0  0
  -17.0464   13.6016  -22.8964 N   0  0  0  0  0  0  0  0  0  0  0  0
  -17.8559   14.6565  -23.4090 C   0  0  0  0  0  0  0  0  0  0  0  0
  -17.4123   15.1910  -24.7240 C   0  0  0  0  0  0  0  0  0  0  0  0
  -14.6719   14.4507  -26.1469 H   0  0  0  0  0  0  0  0  0  0  0  0
  -19.9718   10.7050  -16.3352 S   0  0  0  0  0  0  0  0  0  0  0  0
  -20.8698   12.1869  -15.9195 C   0  0  0  0  0  0  0  0  0  0  0  0
  -21.6247   12.3253  -14.7734 C   0  0  0  0  0  0  0  0  0  0  0  0
  -22.3027   13.5112  -14.5076 C   0  0  0  0  0  0  0  0  0  0  0  0
  -22.2322   14.5703  -15.3855 C   0  0  0  0  0  0  0  0  0  0  0  0
  -21.4823   14.4460  -16.5333 C   0  0  0  0  0  0  0  0  0  0  0  0
  -20.8029   13.2510  -16.7952 C   0  0  0  0  0  0  0  0  0  0  0  0
 11 12  1  0  0  0
 12 13  1  0  0  0
 13 14  1  0  0  0
 14 15  1  0  0  0
 15 16  1  0  0  0
 16 17  1  0  0  0
 15  1  1  0  0  0
  1  2  2  0  0  0
  2  3  1  0  0  0
  3  4  2  0  0  0
  4  5  1  0  0  0
  5 19  1  0  0  0
 19 20  1  0  0  0
 20 21  2  0  0  0
 21 22  1  0  0  0
 22 23  2  0  0  0
 23 24  1  0  0  0
 24 25  2  0  0  0
  5  6  2  0  0  0
  6  7  1  0  0  0
  7  8  2  0  0  0
  8  9  1  0  0  0
 17 12  1  0  0  0
  9  1  1  0  0  0
  8  3  1  0  0  0
 25 20  1  0  0  0
 11 18  1  0  0  0
  9 10  1  0  0  0
M  END
> <minimizedAffinity>
-7.46140

> <CNNscore>
0.5917595625

> <CNNaffinity>
6.1540460587

> <CNN_VS>
3.6417155266

> <CNNaffinity_variance>
0.1550519764

$$$$
[H]OC1([H])C([H])([H])C([H])([H])N(c2c([H])c3c([H])c(Sc4c([H])c([H])c([H])c([H])c4[H])c([H])nc3n2[H])C([H])([H])C1([H])[H]


 25 28  0  0  0  0  0  0  0  0999 V2000
  -18.6757   11.1870  -18.2654 C   0  0  0  0  0  0  0  0  0  0  0  0
  -19.2445   12.3630  -18.7035 C   0  0  0  0  0  0  0  0  0  0  0  0
  -18.6448   12.7888  -19.8680 C   0  0  0  0  0  0  0  0  0  0  0  0
  -18.7975   13.8677  -20.7324 C   0  0  0  0  0  0  0  0  0  0  0  0
  -18.0116   14.0112  -21.8563 C   0  0  0  0  0  0  0  0  0  0  0  0
  -17.0630   13.0233  -22.0767 C   0  0  0  0  0  0  0  0  0  0  0  0
  -16.9108   11.9773  -21.2434 N   0  0  0  0  0  0  0  0  0  0  0  0
  -17.6836   11.8386  -20.1405 C   0  0  0  0  0  0  0  0  0  0  0  0
  -17.7148   10.8912  -19.1764 N   0  0  0  0  0  0  0  0  0  0  0  0
  -17.0861   10.0604  -19.1493 H   0  0  0  0  0  0  0  0  0  0  0  0
  -19.1543    7.9340  -14.2668 O   0  0  0  0  0  0  0  0  0  0  0  0
  -20.0389    8.5814  -15.1601 C   0  0  0  0  0  0  0  0  0  0  0  0
  -19.6238    8.1905  -16.5593 C   0  0  0  0  0  0  0  0  0  0  0  0
  -18.4408    9.0490  -16.9370 C   0  0  0  0  0  0  0  0  0  0  0  0
  -18.9839   10.4026  -17.1232 N   0  0  0  0  0  0  0  0  0  0  0  0
  -19.8463   10.9154  -16.1111 C   0  0  0  0  0  0  0  0  0  0  0  0
  -19.9688   10.0492  -14.9084 C   0  0  0  0  0  0  0  0  0  0  0  0
  -18.8285    7.0944  -14.6827 H   0  0  0  0  0  0  0  0  0  0  0  0
  -18.1845   15.4011  -22.9862 S   0  0  0  0  0  0  0  0  0  0  0  0
  -17.5426   14.9419  -24.5838 C   0  0  0  0  0  0  0  0  0  0  0  0
  -17.8195   13.7395  -25.2003 C   0  0  0  0  0  0  0  0  0  0  0  0
  -17.2856   13.4422  -26.4506 C   0  0  0  0  0  0  0  0  0  0  0  0
  -16.4695   14.3446  -27.0965 C   0  0  0  0  0  0  0  0  0  0  0  0
  -16.1849   15.5486  -26.4927 C   0  0  0  0  0  0  0  0  0  0  0  0
  -16.7246   15.8418  -25.2354 C   0  0  0  0  0  0  0  0  0  0  0  0
 11 12  1  0  0  0
 12 13  1  0  0  0
 13 14  1  0  0  0
 14 15  1  0  0  0
 15 16  1  0  0  0
 16 17  1  0  0  0
 15  1  1  0  0  0
  1  2  2  0  0  0
  2  3  1  0  0  0
  3  4  2  0  0  0
  4  5  1  0  0  0
  5 19  1  0  0  0
 19 20  1  0  0  0
 20 21  2  0  0  0
 21 22  1  0  0  0
 22 23  2  0  0  0
 23 24  1  0  0  0
 24 25  2  0  0  0
  5  6  2  0  0  0
  6  7  1  0  0  0
  7  8  2  0  0  0
  8  9  1  0  0  0
 17 12  1  0  0  0
  9  1  1  0  0  0
  8  3  1  0  0  0
 25 20  1  0  0  0
 11 18  1  0  0  0
  9 10  1  0  0  0
M  END
> <minimizedAffinity>
-8.01960

> <CNNscore>
0.5334494710

> <CNNaffinity>
6.2000317574

> <CNN_VS>
3.3074035645

> <CNNaffinity_variance>
0.2630047500

$$$$
[H]OC1([H])C([H])([H])C([H])([H])N(c2c([H])c3c([H])c(Sc4c([H])c([H])c([H])c([H])c4[H])c([H])nc3n2[H])C([H])([H])C1([H])[H]


 25 28  0  0  0  0  0  0  0  0999 V2000
  -17.2407   13.4271  -22.2330 C   0  0  0  0  0  0  0  0  0  0  0  0
  -18.0942   14.0043  -21.3182 C   0  0  0  0  0  0  0  0  0  0  0  0
  -18.2771   13.1756  -20.2335 C   0  0  0  0  0  0  0  0  0  0  0  0
  -19.0018   13.2293  -19.0476 C   0  0  0  0  0  0  0  0  0  0  0  0
  -18.9713   12.1972  -18.1336 C   0  0  0  0  0  0  0  0  0  0  0  0
  -18.1804   11.1056  -18.4610 C   0  0  0  0  0  0  0  0  0  0  0  0
  -17.4772   11.0483  -19.6073 N   0  0  0  0  0  0  0  0  0  0  0  0
  -17.5088   12.0629  -20.5032 C   0  0  0  0  0  0  0  0  0  0  0  0
  -16.8980   12.2283  -21.6979 N   0  0  0  0  0  0  0  0  0  0  0  0
  -16.2596   11.5285  -22.1328 H   0  0  0  0  0  0  0  0  0  0  0  0
  -16.1738   15.7002  -26.7600 O   0  0  0  0  0  0  0  0  0  0  0  0
  -16.0235   14.4042  -26.2146 C   0  0  0  0  0  0  0  0  0  0  0  0
  -17.3926   13.9476  -25.7678 C   0  0  0  0  0  0  0  0  0  0  0  0
  -17.6725   14.5951  -24.4330 C   0  0  0  0  0  0  0  0  0  0  0  0
  -16.7767   13.9255  -23.4784 N   0  0  0  0  0  0  0  0  0  0  0  0
  -15.4065   13.7838  -23.8433 C   0  0  0  0  0  0  0  0  0  0  0  0
  -15.0298   14.4744  -25.1054 C   0  0  0  0  0  0  0  0  0  0  0  0
  -17.0893   15.7931  -27.1306 H   0  0  0  0  0  0  0  0  0  0  0  0
  -19.9051   12.2394  -16.5959 S   0  0  0  0  0  0  0  0  0  0  0  0
  -20.3877   10.5812  -16.1568 C   0  0  0  0  0  0  0  0  0  0  0  0
  -19.5131    9.5150  -16.1261 C   0  0  0  0  0  0  0  0  0  0  0  0
  -19.9549    8.2431  -15.7740 C   0  0  0  0  0  0  0  0  0  0  0  0
  -21.2756    8.0252  -15.4491 C   0  0  0  0  0  0  0  0  0  0  0  0
  -22.1594    9.0805  -15.4754 C   0  0  0  0  0  0  0  0  0  0  0  0
  -21.7094   10.3570  -15.8304 C   0  0  0  0  0  0  0  0  0  0  0  0
 11 12  1  0  0  0
 12 13  1  0  0  0
 13 14  1  0  0  0
 14 15  1  0  0  0
 15 16  1  0  0  0
 16 17  1  0  0  0
 15  1  1  0  0  0
  1  2  2  0  0  0
  2  3  1  0  0  0
  3  4  2  0  0  0
  4  5  1  0  0  0
  5 19  1  0  0  0
 19 20  1  0  0  0
 20 21  2  0  0  0
 21 22  1  0  0  0
 22 23  2  0  0  0
 23 24  1  0  0  0
 24 25  2  0  0  0
  5  6  2  0  0  0
  6  7  1  0  0  0
  7  8  2  0  0  0
  8  9  1  0  0  0
 17 12  1  0  0  0
  9  1  1  0  0  0
  8  3  1  0  0  0
 25 20  1  0  0  0
 11 18  1  0  0  0
  9 10  1  0  0  0
M  END
> <minimizedAffinity>
-7.84802

> <CNNscore>
0.4849553406

> <CNNaffinity>
6.1171245575

> <CNN_VS>
2.9665322304

> <CNNaffinity_variance>
0.1265299618

$$$$
[H]c1c([H])c([H])c(C([H])([H])[C@@]2([H])C(=O)N([H])[C@@]([H])(C([H])([H])c3c([H])c([H])c([H])c([H])c3[H])C(=O)N([H])[C@]([H])([C@@]([H])(C([H])([H])[H])C([H])([H])C([H])([H])[H])C(=O)N([H])[C@@]([H])(C([H])([H])c3c([H])c([H])c([H])c([H])c3[H])C(=O)N3C([H])([H])C([H])([H])C([H])([H])[C@]3([H])C(=O)N([H])[C@@]([H])(C([H])([H])c3c([H])c([H])c([H])c([H])c3[H])C(=O)N2[H])c([H])c1[H]


 64 69  0  0  0  0  0  0  0  0999 V2000
  -17.8530   10.3373  -19.3751 C   0  0  0  0  0  0  0  0  0  0  0  0
  -17.8730   10.5432  -17.9413 N   0  0  0  0  0  0  0  0  0  0  0  0
  -17.7113    9.6646  -16.8972 C   0  0  0  0  0  0  0  0  0  0  0  0
  -16.6863    9.8524  -16.1292 O   0  0  0  0  0  0  0  0  0  0  0  0
  -18.5664    8.4916  -16.5046 C   0  0  0  0  0  0  0  0  0  0  0  0
  -18.6039    8.2926  -15.0926 N   0  0  0  0  0  0  0  0  0  0  0  0
  -19.1640    8.9919  -14.0459 C   0  0  0  0  0  0  0  0  0  0  0  0
  -19.7680    8.2794  -13.1384 O   0  0  0  0  0  0  0  0  0  0  0  0
  -19.2265   10.4356  -13.7230 C   0  0  0  0  0  0  0  0  0  0  0  0
  -20.6376   10.8291  -13.6381 N   0  0  0  0  0  0  0  0  0  0  0  0
  -21.2409   12.0493  -13.8598 C   0  0  0  0  0  0  0  0  0  0  0  0
  -21.8484   12.5751  -12.8458 O   0  0  0  0  0  0  0  0  0  0  0  0
  -21.3325   12.8958  -15.0636 C   0  0  0  0  0  0  0  0  0  0  0  0
  -20.1383   12.9198  -15.8776 N   0  0  0  0  0  0  0  0  0  0  0  0
  -19.3976   14.0521  -16.2728 C   0  0  0  0  0  0  0  0  0  0  0  0
  -18.1568   13.9677  -16.1108 O   0  0  0  0  0  0  0  0  0  0  0  0
  -19.9558   15.2603  -16.8337 C   0  0  0  0  0  0  0  0  0  0  0  0
  -18.9741   16.4043  -16.9781 C   0  0  0  0  0  0  0  0  0  0  0  0
  -19.7815   17.3494  -17.8800 C   0  0  0  0  0  0  0  0  0  0  0  0
  -21.0119   16.5549  -18.2776 C   0  0  0  0  0  0  0  0  0  0  0  0
  -20.4707   15.1917  -18.1787 N   0  0  0  0  0  0  0  0  0  0  0  0
  -20.4639   14.1589  -19.0984 C   0  0  0  0  0  0  0  0  0  0  0  0
  -21.5899   13.7650  -19.5797 O   0  0  0  0  0  0  0  0  0  0  0  0
  -19.3004   13.3892  -19.6509 C   0  0  0  0  0  0  0  0  0  0  0  0
  -19.7359   12.0487  -19.8803 N   0  0  0  0  0  0  0  0  0  0  0  0
  -19.0151   10.8748  -20.0852 C   0  0  0  0  0  0  0  0  0  0  0  0
  -19.4391   10.1333  -21.0604 O   0  0  0  0  0  0  0  0  0  0  0  0
  -18.0305   11.5706  -17.6624 H   0  0  0  0  0  0  0  0  0  0  0  0
  -18.0746    7.3916  -14.7797 H   0  0  0  0  0  0  0  0  0  0  0  0
  -21.2641   10.0121  -13.3458 H   0  0  0  0  0  0  0  0  0  0  0  0
  -19.8624   11.9303  -16.1751 H   0  0  0  0  0  0  0  0  0  0  0  0
  -20.8052   11.9083  -19.9065 H   0  0  0  0  0  0  0  0  0  0  0  0
  -16.6005   10.9251  -19.9901 C   0  0  0  0  0  0  0  0  0  0  0  0
  -15.4685   11.0627  -19.0037 C   0  0  0  0  0  0  0  0  0  0  0  0
  -14.7615   10.6034  -21.6612 C   0  0  0  0  0  0  0  0  0  0  0  0
  -16.1555   10.2180  -21.2306 C   0  0  0  0  0  0  0  0  0  0  0  0
  -19.8624    8.4633  -17.2435 C   0  0  0  0  0  0  0  0  0  0  0  0
  -20.6954    7.2652  -16.9742 C   0  0  0  0  0  0  0  0  0  0  0  0
  -21.2928    7.0057  -15.7681 C   0  0  0  0  0  0  0  0  0  0  0  0
  -22.0690    5.8983  -15.5088 C   0  0  0  0  0  0  0  0  0  0  0  0
  -22.2800    4.9774  -16.4922 C   0  0  0  0  0  0  0  0  0  0  0  0
  -21.6982    5.1974  -17.7238 C   0  0  0  0  0  0  0  0  0  0  0  0
  -20.9231    6.3098  -17.9702 C   0  0  0  0  0  0  0  0  0  0  0  0
  -18.5567   10.7412  -12.3622 C   0  0  0  0  0  0  0  0  0  0  0  0
  -19.3007   10.0270  -11.3050 C   0  0  0  0  0  0  0  0  0  0  0  0
  -18.6719    9.0212  -10.5508 C   0  0  0  0  0  0  0  0  0  0  0  0
  -19.3275    8.3494   -9.5530 C   0  0  0  0  0  0  0  0  0  0  0  0
  -20.6356    8.6203   -9.2338 C   0  0  0  0  0  0  0  0  0  0  0  0
  -21.2870    9.5998   -9.9501 C   0  0  0  0  0  0  0  0  0  0  0  0
  -20.6067   10.2754  -10.9625 C   0  0  0  0  0  0  0  0  0  0  0  0
  -22.5574   12.5213  -15.8747 C   0  0  0  0  0  0  0  0  0  0  0  0
  -23.2485   11.3566  -15.2754 C   0  0  0  0  0  0  0  0  0  0  0  0
  -24.0570   11.4082  -14.1601 C   0  0  0  0  0  0  0  0  0  0  0  0
  -24.6820   10.2831  -13.6548 C   0  0  0  0  0  0  0  0  0  0  0  0
  -24.5185    9.0545  -14.2543 C   0  0  0  0  0  0  0  0  0  0  0  0
  -23.7122    8.9831  -15.3723 C   0  0  0  0  0  0  0  0  0  0  0  0
  -23.1026   10.0957  -15.8600 C   0  0  0  0  0  0  0  0  0  0  0  0
  -18.8057   14.0806  -20.9395 C   0  0  0  0  0  0  0  0  0  0  0  0
  -18.2265   15.3852  -20.7497 C   0  0  0  0  0  0  0  0  0  0  0  0
  -18.8057   16.5022  -21.2985 C   0  0  0  0  0  0  0  0  0  0  0  0
  -18.2840   17.7698  -21.1373 C   0  0  0  0  0  0  0  0  0  0  0  0
  -17.1454   17.9166  -20.4015 C   0  0  0  0  0  0  0  0  0  0  0  0
  -16.5261   16.8383  -19.8316 C   0  0  0  0  0  0  0  0  0  0  0  0
  -17.0829   15.5633  -20.0151 C   0  0  0  0  0  0  0  0  0  0  0  0
 35 36  1  0  0  0
 36 33  1  0  0  0
 33 34  1  0  0  0
 33  1  1  0  0  0
  1  2  1  0  0  0
  2  3  1  0  0  0
  3  4  2  0  0  0
  3  5  1  0  0  0
  5 37  1  0  0  0
 37 38  1  0  0  0
 38 39  2  0  0  0
 39 40  1  0  0  0
 40 41  2  0  0  0
 41 42  1  0  0  0
 42 43  2  0  0  0
  5  6  1  0  0  0
  6  7  1  0  0  0
  7  8  2  0  0  0
  7  9  1  0  0  0
  9 44  1  0  0  0
 44 45  1  0  0  0
 45 46  2  0  0  0
 46 47  1  0  0  0
 47 48  2  0  0  0
 48 49  1  0  0  0
 49 50  2  0  0  0
  9 10  1  0  0  0
 10 11  1  0  0  0
 11 12  2  0  0  0
 11 13  1  0  0  0
 13 51  1  0  0  0
 51 52  1  0  0  0
 52 53  2  0  0  0
 53 54  1  0  0  0
 54 55  2  0  0  0
 55 56  1  0  0  0
 56 57  2  0  0  0
 13 14  1  0  0  0
 14 15  1  0  0  0
 15 16  2  0  0  0
 15 17  1  0  0  0
 17 18  1  0  0  0
 18 19  1  0  0  0
 19 20  1  0  0  0
 20 21  1  0  0  0
 21 22  1  0  0  0
 22 23  2  0  0  0
 22 24  1  0  0  0
 24 58  1  0  0  0
 58 59  1  0  0  0
 59 60  2  0  0  0
 60 61  1  0  0  0
 61 62  2  0  0  0
 62 63  1  0  0  0
 63 64  2  0  0  0
 24 25  1  0  0  0
 25 26  1  0  0  0
 26 27  2  0  0  0
 26  1  1  0  0  0
 43 38  1  0  0  0
 50 45  1  0  0  0
 57 52  1  0  0  0
 21 17  1  0  0  0
 64 59  1  0  0  0
  2 28  1  0  0  0
  6 29  1  0  0  0
 10 30  1  0  0  0
 14 31  1  0  0  0
 25 32  1  0  0  0
M  END
> <minimizedAffinity>
4.80010

> <CNNscore>
0.5065498352

> <CNNaffinity>
7.5534467697

> <CNN_VS>
3.8261971474

> <CNNaffinity_variance>
0.5109822750

$$$$
[H]c1c([H])c([H])c(C([H])([H])[C@@]2([H])C(=O)N([H])[C@@]([H])(C([H])([H])c3c([H])c([H])c([H])c([H])c3[H])C(=O)N([H])[C@]([H])([C@@]([H])(C([H])([H])[H])C([H])([H])C([H])([H])[H])C(=O)N([H])[C@@]([H])(C([H])([H])c3c([H])c([H])c([H])c([H])c3[H])C(=O)N3C([H])([H])C([H])([H])C([H])([H])[C@]3([H])C(=O)N([H])[C@@]([H])(C([H])([H])c3c([H])c([H])c([H])c([H])c3[H])C(=O)N2[H])c([H])c1[H]


 64 69  0  0  0  0  0  0  0  0999 V2000
  -20.9217   10.8927  -14.5969 C   0  0  0  0  0  0  0  0  0  0  0  0
  -21.0274   12.2017  -13.9854 N   0  0  0  0  0  0  0  0  0  0  0  0
  -21.6612   12.6180  -12.8394 C   0  0  0  0  0  0  0  0  0  0  0  0
  -20.9116   13.0936  -11.8972 O   0  0  0  0  0  0  0  0  0  0  0  0
  -23.1282   12.6038  -12.5093 C   0  0  0  0  0  0  0  0  0  0  0  0
  -23.5130   13.7052  -11.6885 N   0  0  0  0  0  0  0  0  0  0  0  0
  -23.6220   15.0618  -11.9032 C   0  0  0  0  0  0  0  0  0  0  0  0
  -24.6812   15.6370  -11.4102 O   0  0  0  0  0  0  0  0  0  0  0  0
  -22.7571   16.0398  -12.6018 C   0  0  0  0  0  0  0  0  0  0  0  0
  -23.5365   16.6574  -13.6808 N   0  0  0  0  0  0  0  0  0  0  0  0
  -23.1278   17.2078  -14.8774 C   0  0  0  0  0  0  0  0  0  0  0  0
  -23.3817   18.4659  -15.0400 O   0  0  0  0  0  0  0  0  0  0  0  0
  -22.4389   16.6240  -16.0430 C   0  0  0  0  0  0  0  0  0  0  0  0
  -21.4232   15.6483  -15.7182 N   0  0  0  0  0  0  0  0  0  0  0  0
  -20.0663   15.6698  -16.0992 C   0  0  0  0  0  0  0  0  0  0  0  0
  -19.2443   15.4509  -15.1776 O   0  0  0  0  0  0  0  0  0  0  0  0
  -19.5787   15.9180  -17.4359 C   0  0  0  0  0  0  0  0  0  0  0  0
  -18.0784   16.0948  -17.5405 C   0  0  0  0  0  0  0  0  0  0  0  0
  -17.8933   15.9936  -19.0617 C   0  0  0  0  0  0  0  0  0  0  0  0
  -19.2556   15.5914  -19.5958 C   0  0  0  0  0  0  0  0  0  0  0  0
  -19.7853   14.8850  -18.4204 N   0  0  0  0  0  0  0  0  0  0  0  0
  -20.3219   13.6160  -18.3013 C   0  0  0  0  0  0  0  0  0  0  0  0
  -21.3280   13.3086  -19.0415 O   0  0  0  0  0  0  0  0  0  0  0  0
  -19.8989   12.4881  -17.4066 C   0  0  0  0  0  0  0  0  0  0  0  0
  -21.0729   11.7644  -17.0355 N   0  0  0  0  0  0  0  0  0  0  0  0
  -21.2971   10.8477  -16.0114 C   0  0  0  0  0  0  0  0  0  0  0  0
  -21.9447    9.7807  -16.3617 O   0  0  0  0  0  0  0  0  0  0  0  0
  -20.5021   12.9677  -14.5290 H   0  0  0  0  0  0  0  0  0  0  0  0
  -23.7775   13.4029  -10.6743 H   0  0  0  0  0  0  0  0  0  0  0  0
  -24.5839   16.6712  -13.4608 H   0  0  0  0  0  0  0  0  0  0  0  0
  -21.8340   14.8547  -15.1306 H   0  0  0  0  0  0  0  0  0  0  0  0
  -21.9412   11.9465  -17.6491 H   0  0  0  0  0  0  0  0  0  0  0  0
  -19.5196   10.3392  -14.4545 C   0  0  0  0  0  0  0  0  0  0  0  0
  -18.9938   10.4221  -13.0438 C   0  0  0  0  0  0  0  0  0  0  0  0
  -18.4065    8.9004  -16.1777 C   0  0  0  0  0  0  0  0  0  0  0  0
  -19.3623    8.9601  -15.0114 C   0  0  0  0  0  0  0  0  0  0  0  0
  -23.9736   12.2979  -13.7001 C   0  0  0  0  0  0  0  0  0  0  0  0
  -24.1124   10.8509  -13.9979 C   0  0  0  0  0  0  0  0  0  0  0  0
  -23.8345    9.8558  -13.0971 C   0  0  0  0  0  0  0  0  0  0  0  0
  -23.9619    8.5107  -13.3628 C   0  0  0  0  0  0  0  0  0  0  0  0
  -24.3905    8.1037  -14.5918 C   0  0  0  0  0  0  0  0  0  0  0  0
  -24.6827    9.0712  -15.5310 C   0  0  0  0  0  0  0  0  0  0  0  0
  -24.5506   10.4143  -15.2524 C   0  0  0  0  0  0  0  0  0  0  0  0
  -22.2823   17.1601  -11.6461 C   0  0  0  0  0  0  0  0  0  0  0  0
  -21.5764   18.1845  -12.4421 C   0  0  0  0  0  0  0  0  0  0  0  0
  -22.0552   19.5054  -12.4831 C   0  0  0  0  0  0  0  0  0  0  0  0
  -21.4169   20.4837  -13.1988 C   0  0  0  0  0  0  0  0  0  0  0  0
  -20.2739   20.2290  -13.9165 C   0  0  0  0  0  0  0  0  0  0  0  0
  -19.7726   18.9463  -13.9015 C   0  0  0  0  0  0  0  0  0  0  0  0
  -20.4329   17.9611  -13.1683 C   0  0  0  0  0  0  0  0  0  0  0  0
  -23.4516   16.0737  -17.0279 C   0  0  0  0  0  0  0  0  0  0  0  0
  -23.5785   16.9646  -18.2042 C   0  0  0  0  0  0  0  0  0  0  0  0
  -24.4934   17.9890  -18.3218 C   0  0  0  0  0  0  0  0  0  0  0  0
  -24.5545   18.7922  -19.4456 C   0  0  0  0  0  0  0  0  0  0  0  0
  -23.6931   18.5965  -20.5017 C   0  0  0  0  0  0  0  0  0  0  0  0
  -22.7701   17.5752  -20.4022 C   0  0  0  0  0  0  0  0  0  0  0  0
  -22.7193   16.7918  -19.2927 C   0  0  0  0  0  0  0  0  0  0  0  0
  -18.8728   11.6101  -18.1543 C   0  0  0  0  0  0  0  0  0  0  0  0
  -18.4613   12.1109  -19.4402 C   0  0  0  0  0  0  0  0  0  0  0  0
  -17.1486   12.4247  -19.6893 C   0  0  0  0  0  0  0  0  0  0  0  0
  -16.7134   12.9039  -20.9084 C   0  0  0  0  0  0  0  0  0  0  0  0
  -17.6278   13.0719  -21.9059 C   0  0  0  0  0  0  0  0  0  0  0  0
  -18.9491   12.7751  -21.7132 C   0  0  0  0  0  0  0  0  0  0  0  0
  -19.3580   12.2898  -20.4616 C   0  0  0  0  0  0  0  0  0  0  0  0
 35 36  1  0  0  0
 36 33  1  0  0  0
 33 34  1  0  0  0
 33  1  1  0  0  0
  1  2  1  0  0  0
  2  3  1  0  0  0
  3  4  2  0  0  0
  3  5  1  0  0  0
  5 37  1  0  0  0
 37 38  1  0  0  0
 38 39  2  0  0  0
 39 40  1  0  0  0
 40 41  2  0  0  0
 41 42  1  0  0  0
 42 43  2  0  0  0
  5  6  1  0  0  0
  6  7  1  0  0  0
  7  8  2  0  0  0
  7  9  1  0  0  0
  9 44  1  0  0  0
 44 45  1  0  0  0
 45 46  2  0  0  0
 46 47  1  0  0  0
 47 48  2  0  0  0
 48 49  1  0  0  0
 49 50  2  0  0  0
  9 10  1  0  0  0
 10 11  1  0  0  0
 11 12  2  0  0  0
 11 13  1  0  0  0
 13 51  1  0  0  0
 51 52  1  0  0  0
 52 53  2  0  0  0
 53 54  1  0  0  0
 54 55  2  0  0  0
 55 56  1  0  0  0
 56 57  2  0  0  0
 13 14  1  0  0  0
 14 15  1  0  0  0
 15 16  2  0  0  0
 15 17  1  0  0  0
 17 18  1  0  0  0
 18 19  1  0  0  0
 19 20  1  0  0  0
 20 21  1  0  0  0
 21 22  1  0  0  0
 22 23  2  0  0  0
 22 24  1  0  0  0
 24 58  1  0  0  0
 58 59  1  0  0  0
 59 60  2  0  0  0
 60 61  1  0  0  0
 61 62  2  0  0  0
 62 63  1  0  0  0
 63 64  2  0  0  0
 24 25  1  0  0  0
 25 26  1  0  0  0
 26 27  2  0  0  0
 26  1  1  0  0  0
 43 38  1  0  0  0
 50 45  1  0  0  0
 57 52  1  0  0  0
 21 17  1  0  0  0
 64 59  1  0  0  0
  2 28  1  0  0  0
  6 29  1  0  0  0
 10 30  1  0  0  0
 14 31  1  0  0  0
 25 32  1  0  0  0
M  END
> <minimizedAffinity>
-1.50227

> <CNNscore>
0.4418616593

> <CNNaffinity>
7.5056238174

> <CNN_VS>
3.3164474964

> <CNNaffinity_variance>
0.7295060158

$$$$
[H]c1c([H])c([H])c(C([H])([H])[C@@]2([H])C(=O)N([H])[C@@]([H])(C([H])([H])c3c([H])c([H])c([H])c([H])c3[H])C(=O)N([H])[C@]([H])([C@@]([H])(C([H])([H])[H])C([H])([H])C([H])([H])[H])C(=O)N([H])[C@@]([H])(C([H])([H])c3c([H])c([H])c([H])c([H])c3[H])C(=O)N3C([H])([H])C([H])([H])C([H])([H])[C@]3([H])C(=O)N([H])[C@@]([H])(C([H])([H])c3c([H])c([H])c([H])c([H])c3[H])C(=O)N2[H])c([H])c1[H]


 64 69  0  0  0  0  0  0  0  0999 V2000
  -20.1402   13.1415  -18.9427 C   0  0  0  0  0  0  0  0  0  0  0  0
  -19.7499   14.5098  -18.6708 N   0  0  0  0  0  0  0  0  0  0  0  0
  -20.3922   15.5177  -17.9927 C   0  0  0  0  0  0  0  0  0  0  0  0
  -19.8174   15.9586  -16.9199 O   0  0  0  0  0  0  0  0  0  0  0  0
  -21.6919   16.2004  -18.3184 C   0  0  0  0  0  0  0  0  0  0  0  0
  -21.6939   17.5766  -17.9426 N   0  0  0  0  0  0  0  0  0  0  0  0
  -21.0418   18.6946  -18.4150 C   0  0  0  0  0  0  0  0  0  0  0  0
  -21.7616   19.7743  -18.5252 O   0  0  0  0  0  0  0  0  0  0  0  0
  -19.6440   18.9367  -18.8391 C   0  0  0  0  0  0  0  0  0  0  0  0
  -19.6567   19.3867  -20.2357 N   0  0  0  0  0  0  0  0  0  0  0  0
  -18.6997   19.2698  -21.2219 C   0  0  0  0  0  0  0  0  0  0  0  0
  -18.2303   20.3799  -21.6921 O   0  0  0  0  0  0  0  0  0  0  0  0
  -18.0904   18.0912  -21.8650 C   0  0  0  0  0  0  0  0  0  0  0  0
  -17.8446   16.9778  -20.9767 N   0  0  0  0  0  0  0  0  0  0  0  0
  -16.6162   16.3267  -20.7443 C   0  0  0  0  0  0  0  0  0  0  0  0
  -16.3237   16.1426  -19.5386 O   0  0  0  0  0  0  0  0  0  0  0  0
  -15.7052   15.8728  -21.7691 C   0  0  0  0  0  0  0  0  0  0  0  0
  -14.3628   15.3946  -21.2570 C   0  0  0  0  0  0  0  0  0  0  0  0
  -13.8195   14.6984  -22.5134 C   0  0  0  0  0  0  0  0  0  0  0  0
  -14.9762   14.7053  -23.4957 C   0  0  0  0  0  0  0  0  0  0  0  0
  -16.1037   14.7300  -22.5527 N   0  0  0  0  0  0  0  0  0  0  0  0
  -17.2106   13.9069  -22.4541 C   0  0  0  0  0  0  0  0  0  0  0  0
  -17.9694   13.7811  -23.4852 O   0  0  0  0  0  0  0  0  0  0  0  0
  -17.6902   13.0994  -21.2839 C   0  0  0  0  0  0  0  0  0  0  0  0
  -19.1175   13.0791  -21.3260 N   0  0  0  0  0  0  0  0  0  0  0  0
  -20.0570   12.7515  -20.3515 C   0  0  0  0  0  0  0  0  0  0  0  0
  -21.0168   11.9776  -20.7523 O   0  0  0  0  0  0  0  0  0  0  0  0
  -18.7801   14.7606  -19.0644 H   0  0  0  0  0  0  0  0  0  0  0  0
  -22.3560   17.7826  -17.1006 H   0  0  0  0  0  0  0  0  0  0  0  0
  -20.5680   19.8889  -20.4863 H   0  0  0  0  0  0  0  0  0  0  0  0
  -18.7475   16.6740  -20.4907 H   0  0  0  0  0  0  0  0  0  0  0  0
  -19.5560   13.3590  -22.2710 H   0  0  0  0  0  0  0  0  0  0  0  0
  -19.3149   12.1696  -18.1261 C   0  0  0  0  0  0  0  0  0  0  0  0
  -18.2630   12.8498  -17.2870 C   0  0  0  0  0  0  0  0  0  0  0  0
  -20.8693   11.9159  -16.1773 C   0  0  0  0  0  0  0  0  0  0  0  0
  -20.1386   11.2292  -17.3051 C   0  0  0  0  0  0  0  0  0  0  0  0
  -22.1876   15.8534  -19.6823 C   0  0  0  0  0  0  0  0  0  0  0  0
  -22.7751   16.9930  -20.4292 C   0  0  0  0  0  0  0  0  0  0  0  0
  -23.9144   17.6515  -20.0455 C   0  0  0  0  0  0  0  0  0  0  0  0
  -24.4663   18.7110  -20.7303 C   0  0  0  0  0  0  0  0  0  0  0  0
  -23.8678   19.1631  -21.8692 C   0  0  0  0  0  0  0  0  0  0  0  0
  -22.7176   18.5305  -22.2936 C   0  0  0  0  0  0  0  0  0  0  0  0
  -22.1756   17.4707  -21.5991 C   0  0  0  0  0  0  0  0  0  0  0  0
  -18.9748   20.0377  -17.9825 C   0  0  0  0  0  0  0  0  0  0  0  0
  -19.3741   19.8407  -16.5744 C   0  0  0  0  0  0  0  0  0  0  0  0
  -18.9347   18.7103  -15.8638 C   0  0  0  0  0  0  0  0  0  0  0  0
  -19.2735   18.5039  -14.5526 C   0  0  0  0  0  0  0  0  0  0  0  0
  -20.0616   19.3894  -13.8588 C   0  0  0  0  0  0  0  0  0  0  0  0
  -20.5124   20.5102  -14.5201 C   0  0  0  0  0  0  0  0  0  0  0  0
  -20.1590   20.7070  -15.8545 C   0  0  0  0  0  0  0  0  0  0  0  0
  -18.9048   17.6755  -23.0743 C   0  0  0  0  0  0  0  0  0  0  0  0
  -18.0283   17.1284  -24.1354 C   0  0  0  0  0  0  0  0  0  0  0  0
  -18.3509   16.0683  -24.9552 C   0  0  0  0  0  0  0  0  0  0  0  0
  -17.4896   15.6105  -25.9352 C   0  0  0  0  0  0  0  0  0  0  0  0
  -16.2628   16.2040  -26.1313 C   0  0  0  0  0  0  0  0  0  0  0  0
  -15.9220   17.2671  -25.3196 C   0  0  0  0  0  0  0  0  0  0  0  0
  -16.7767   17.7084  -24.3594 C   0  0  0  0  0  0  0  0  0  0  0  0
  -17.0747   11.6858  -21.3616 C   0  0  0  0  0  0  0  0  0  0  0  0
  -16.8586   11.0423  -20.0916 C   0  0  0  0  0  0  0  0  0  0  0  0
  -17.6035    9.9524  -19.7158 C   0  0  0  0  0  0  0  0  0  0  0  0
  -17.4252    9.3058  -18.5095 C   0  0  0  0  0  0  0  0  0  0  0  0
  -16.4684    9.7708  -17.6567 C   0  0  0  0  0  0  0  0  0  0  0  0
  -15.6968   10.8532  -17.9797 C   0  0  0  0  0  0  0  0  0  0  0  0
  -15.9041   11.4875  -19.2142 C   0  0  0  0  0  0  0  0  0  0  0  0
 35 36  1  0  0  0
 36 33  1  0  0  0
 33 34  1  0  0  0
 33  1  1  0  0  0
  1  2  1  0  0  0
  2  3  1  0  0  0
  3  4  2  0  0  0
  3  5  1  0  0  0
  5 37  1  0  0  0
 37 38  1  0  0  0
 38 39  2  0  0  0
 39 40  1  0  0  0
 40 41  2  0  0  0
 41 42  1  0  0  0
 42 43  2  0  0  0
  5  6  1  0  0  0
  6  7  1  0  0  0
  7  8  2  0  0  0
  7  9  1  0  0  0
  9 44  1  0  0  0
 44 45  1  0  0  0
 45 46  2  0  0  0
 46 47  1  0  0  0
 47 48  2  0  0  0
 48 49  1  0  0  0
 49 50  2  0  0  0
  9 10  1  0  0  0
 10 11  1  0  0  0
 11 12  2  0  0  0
 11 13  1  0  0  0
 13 51  1  0  0  0
 51 52  1  0  0  0
 52 53  2  0  0  0
 53 54  1  0  0  0
 54 55  2  0  0  0
 55 56  1  0  0  0
 56 57  2  0  0  0
 13 14  1  0  0  0
 14 15  1  0  0  0
 15 16  2  0  0  0
 15 17  1  0  0  0
 17 18  1  0  0  0
 18 19  1  0  0  0
 19 20  1  0  0  0
 20 21  1  0  0  0
 21 22  1  0  0  0
 22 23  2  0  0  0
 22 24  1  0  0  0
 24 58  1  0  0  0
 58 59  1  0  0  0
 59 60  2  0  0  0
 60 61  1  0  0  0
 61 62  2  0  0  0
 62 63  1  0  0  0
 63 64  2  0  0  0
 24 25  1  0  0  0
 25 26  1  0  0  0
 26 27  2  0  0  0
 26  1  1  0  0  0
 43 38  1  0  0  0
 50 45  1  0  0  0
 57 52  1  0  0  0
 21 17  1  0  0  0
 64 59  1  0  0  0
  2 28  1  0  0  0
  6 29  1  0  0  0
 10 30  1  0  0  0
 14 31  1  0  0  0
 25 32  1  0  0  0
M  END
> <minimizedAffinity>
3.56680

> <CNNscore>
0.4063405693

> <CNNaffinity>
7.8127236366

> <CNN_VS>
3.1746265888

> <CNNaffinity_variance>
0.8095607758

$$$$
[H]c1c([H])c([H])c(C([H])([H])[C@@]2([H])C(=O)N([H])[C@@]([H])(C([H])([H])c3c([H])c([H])c([H])c([H])c3[H])C(=O)N([H])[C@]([H])([C@@]([H])(C([H])([H])[H])C([H])([H])C([H])([H])[H])C(=O)N([H])[C@@]([H])(C([H])([H])c3c([H])c([H])c([H])c([H])c3[H])C(=O)N3C([H])([H])C([H])([H])C([H])([H])[C@]3([H])C(=O)N([H])[C@@]([H])(C([H])([H])c3c([H])c([H])c([H])c([H])c3[H])C(=O)N2[H])c([H])c1[H]


 64 69  0  0  0  0  0  0  0  0999 V2000
  -20.7163   16.8316  -17.9372 C   0  0  0  0  0  0  0  0  0  0  0  0
  -19.5940   16.9196  -18.8488 N   0  0  0  0  0  0  0  0  0  0  0  0
  -19.2767   17.8508  -19.8083 C   0  0  0  0  0  0  0  0  0  0  0  0
  -18.1868   18.5260  -19.6292 O   0  0  0  0  0  0  0  0  0  0  0  0
  -20.0229   18.2102  -21.0634 C   0  0  0  0  0  0  0  0  0  0  0  0
  -19.1501   18.5783  -22.1300 N   0  0  0  0  0  0  0  0  0  0  0  0
  -18.2580   17.8814  -22.9155 C   0  0  0  0  0  0  0  0  0  0  0  0
  -18.2737   18.1613  -24.1872 O   0  0  0  0  0  0  0  0  0  0  0  0
  -17.2480   16.8435  -22.6075 C   0  0  0  0  0  0  0  0  0  0  0  0
  -17.5741   15.6386  -23.3788 N   0  0  0  0  0  0  0  0  0  0  0  0
  -17.3075   14.3107  -23.1190 C   0  0  0  0  0  0  0  0  0  0  0  0
  -16.5560   13.7033  -23.9794 O   0  0  0  0  0  0  0  0  0  0  0  0
  -17.7257   13.4213  -22.0198 C   0  0  0  0  0  0  0  0  0  0  0  0
  -17.7755   14.0504  -20.7194 N   0  0  0  0  0  0  0  0  0  0  0  0
  -17.1032   13.6445  -19.5489 C   0  0  0  0  0  0  0  0  0  0  0  0
  -16.5022   14.5547  -18.9296 O   0  0  0  0  0  0  0  0  0  0  0  0
  -17.0641   12.2956  -19.0341 C   0  0  0  0  0  0  0  0  0  0  0  0
  -16.1040   12.0846  -17.8822 C   0  0  0  0  0  0  0  0  0  0  0  0
  -16.5609   10.7031  -17.3909 C   0  0  0  0  0  0  0  0  0  0  0  0
  -17.8162   10.3998  -18.1879 C   0  0  0  0  0  0  0  0  0  0  0  0
  -18.2766   11.7694  -18.4581 N   0  0  0  0  0  0  0  0  0  0  0  0
  -19.5034   12.3661  -18.2308 C   0  0  0  0  0  0  0  0  0  0  0  0
  -20.5489   11.8247  -18.7491 O   0  0  0  0  0  0  0  0  0  0  0  0
  -19.8254   13.5998  -17.4398 C   0  0  0  0  0  0  0  0  0  0  0  0
  -20.9256   14.2497  -18.0775 N   0  0  0  0  0  0  0  0  0  0  0  0
  -21.4180   15.5466  -17.9552 C   0  0  0  0  0  0  0  0  0  0  0  0
  -22.7062   15.6363  -17.8405 O   0  0  0  0  0  0  0  0  0  0  0  0
  -18.8890   16.1148  -18.7328 H   0  0  0  0  0  0  0  0  0  0  0  0
  -19.2053   19.6404  -22.3723 H   0  0  0  0  0  0  0  0  0  0  0  0
  -18.0938   15.8718  -24.2850 H   0  0  0  0  0  0  0  0  0  0  0  0
  -18.4216   14.9025  -20.7349 H   0  0  0  0  0  0  0  0  0  0  0  0
  -21.4824   13.6407  -18.7724 H   0  0  0  0  0  0  0  0  0  0  0  0
  -20.2845   17.1228  -16.5155 C   0  0  0  0  0  0  0  0  0  0  0  0
  -18.7863   17.1789  -16.3545 C   0  0  0  0  0  0  0  0  0  0  0  0
  -22.1279   17.9987  -15.0619 C   0  0  0  0  0  0  0  0  0  0  0  0
  -20.9384   18.3329  -15.9283 C   0  0  0  0  0  0  0  0  0  0  0  0
  -21.1193   17.2445  -21.3665 C   0  0  0  0  0  0  0  0  0  0  0  0
  -22.0729   17.7063  -22.4053 C   0  0  0  0  0  0  0  0  0  0  0  0
  -23.1865   18.4598  -22.1389 C   0  0  0  0  0  0  0  0  0  0  0  0
  -24.0762   18.8949  -23.0955 C   0  0  0  0  0  0  0  0  0  0  0  0
  -23.8684   18.5752  -24.4048 C   0  0  0  0  0  0  0  0  0  0  0  0
  -22.7591   17.8180  -24.7204 C   0  0  0  0  0  0  0  0  0  0  0  0
  -21.8765   17.3885  -23.7532 C   0  0  0  0  0  0  0  0  0  0  0  0
  -15.8250   17.3020  -23.0059 C   0  0  0  0  0  0  0  0  0  0  0  0
  -15.4301   16.5839  -24.2345 C   0  0  0  0  0  0  0  0  0  0  0  0
  -16.1302   16.7939  -25.4352 C   0  0  0  0  0  0  0  0  0  0  0  0
  -15.7814   16.1562  -26.5964 C   0  0  0  0  0  0  0  0  0  0  0  0
  -14.7288   15.2757  -26.6527 C   0  0  0  0  0  0  0  0  0  0  0  0
  -14.0172   15.0429  -25.4967 C   0  0  0  0  0  0  0  0  0  0  0  0
  -14.3837   15.6996  -24.3226 C   0  0  0  0  0  0  0  0  0  0  0  0
  -19.0365   12.7426  -22.3657 C   0  0  0  0  0  0  0  0  0  0  0  0
  -18.9076   11.2704  -22.2693 C   0  0  0  0  0  0  0  0  0  0  0  0
  -19.7990   10.3647  -22.8033 C   0  0  0  0  0  0  0  0  0  0  0  0
  -19.6159    8.9992  -22.6858 C   0  0  0  0  0  0  0  0  0  0  0  0
  -18.5229    8.4872  -22.0233 C   0  0  0  0  0  0  0  0  0  0  0  0
  -17.6193    9.3789  -21.4816 C   0  0  0  0  0  0  0  0  0  0  0  0
  -17.8097   10.7191  -21.6032 C   0  0  0  0  0  0  0  0  0  0  0  0
  -20.1386   13.1963  -15.9831 C   0  0  0  0  0  0  0  0  0  0  0  0
  -20.6009   11.8436  -15.8092 C   0  0  0  0  0  0  0  0  0  0  0  0
  -19.7265   10.8325  -15.4979 C   0  0  0  0  0  0  0  0  0  0  0  0
  -20.1298    9.5245  -15.3199 C   0  0  0  0  0  0  0  0  0  0  0  0
  -21.4530    9.2265  -15.4595 C   0  0  0  0  0  0  0  0  0  0  0  0
  -22.3686   10.1946  -15.7688 C   0  0  0  0  0  0  0  0  0  0  0  0
  -21.9249   11.5144  -15.9431 C   0  0  0  0  0  0  0  0  0  0  0  0
 35 36  1  0  0  0
 36 33  1  0  0  0
 33 34  1  0  0  0
 33  1  1  0  0  0
  1  2  1  0  0  0
  2  3  1  0  0  0
  3  4  2  0  0  0
  3  5  1  0  0  0
  5 37  1  0  0  0
 37 38  1  0  0  0
 38 39  2  0  0  0
 39 40  1  0  0  0
 40 41  2  0  0  0
 41 42  1  0  0  0
 42 43  2  0  0  0
  5  6  1  0  0  0
  6  7  1  0  0  0
  7  8  2  0  0  0
  7  9  1  0  0  0
  9 44  1  0  0  0
 44 45  1  0  0  0
 45 46  2  0  0  0
 46 47  1  0  0  0
 47 48  2  0  0  0
 48 49  1  0  0  0
 49 50  2  0  0  0
  9 10  1  0  0  0
 10 11  1  0  0  0
 11 12  2  0  0  0
 11 13  1  0  0  0
 13 51  1  0  0  0
 51 52  1  0  0  0
 52 53  2  0  0  0
 53 54  1  0  0  0
 54 55  2  0  0  0
 55 56  1  0  0  0
 56 57  2  0  0  0
 13 14  1  0  0  0
 14 15  1  0  0  0
 15 16  2  0  0  0
 15 17  1  0  0  0
 17 18  1  0  0  0
 18 19  1  0  0  0
 19 20  1  0  0  0
 20 21  1  0  0  0
 21 22  1  0  0  0
 22 23  2  0  0  0
 22 24  1  0  0  0
 24 58  1  0  0  0
 58 59  1  0  0  0
 59 60  2  0  0  0
 60 61  1  0  0  0
 61 62  2  0  0  0
 62 63  1  0  0  0
 63 64  2  0  0  0
 24 25  1  0  0  0
 25 26  1  0  0  0
 26 27  2  0  0  0
 26  1  1  0  0  0
 43 38  1  0  0  0
 50 45  1  0  0  0
 57 52  1  0  0  0
 21 17  1  0  0  0
 64 59  1  0  0  0
  2 28  1  0  0  0
  6 29  1  0  0  0
 10 30  1  0  0  0
 14 31  1  0  0  0
 25 32  1  0  0  0
M  END
> <minimizedAffinity>
8.23175

> <CNNscore>
0.4041136205

> <CNNaffinity>
7.9070653915

> <CNN_VS>
3.1953527927

> <CNNaffinity_variance>
0.6512360573

$$$$
[H]c1c([H])c([H])c(C([H])([H])[C@@]2([H])C(=O)N([H])[C@@]([H])(C([H])([H])c3c([H])c([H])c([H])c([H])c3[H])C(=O)N([H])[C@]([H])([C@@]([H])(C([H])([H])[H])C([H])([H])C([H])([H])[H])C(=O)N([H])[C@@]([H])(C([H])([H])c3c([H])c([H])c([H])c([H])c3[H])C(=O)N3C([H])([H])C([H])([H])C([H])([H])[C@]3([H])C(=O)N([H])[C@@]([H])(C([H])([H])c3c([H])c([H])c([H])c([H])c3[H])C(=O)N2[H])c([H])c1[H]


 64 69  0  0  0  0  0  0  0  0999 V2000
  -20.8380   17.0123  -19.8749 C   0  0  0  0  0  0  0  0  0  0  0  0
  -20.6020   15.6164  -19.5679 N   0  0  0  0  0  0  0  0  0  0  0  0
  -20.6202   14.9353  -18.3746 C   0  0  0  0  0  0  0  0  0  0  0  0
  -21.5167   14.0107  -18.2434 O   0  0  0  0  0  0  0  0  0  0  0  0
  -19.7342   15.1071  -17.1718 C   0  0  0  0  0  0  0  0  0  0  0  0
  -19.4904   13.8759  -16.4939 N   0  0  0  0  0  0  0  0  0  0  0  0
  -18.7703   12.7430  -16.8045 C   0  0  0  0  0  0  0  0  0  0  0  0
  -18.0492   12.2407  -15.8435 O   0  0  0  0  0  0  0  0  0  0  0  0
  -18.6386   11.9468  -18.0459 C   0  0  0  0  0  0  0  0  0  0  0  0
  -17.2248   11.9340  -18.4384 N   0  0  0  0  0  0  0  0  0  0  0  0
  -16.6425   11.7982  -19.6812 C   0  0  0  0  0  0  0  0  0  0  0  0
  -15.8831   10.7632  -19.8425 O   0  0  0  0  0  0  0  0  0  0  0  0
  -16.7179   12.6281  -20.8975 C   0  0  0  0  0  0  0  0  0  0  0  0
  -18.0193   13.2003  -21.1587 N   0  0  0  0  0  0  0  0  0  0  0  0
  -18.7931   13.0618  -22.3287 C   0  0  0  0  0  0  0  0  0  0  0  0
  -19.9972   12.7622  -22.1460 O   0  0  0  0  0  0  0  0  0  0  0  0
  -18.3060   13.2374  -23.6771 C   0  0  0  0  0  0  0  0  0  0  0  0
  -19.2807   12.8279  -24.7612 C   0  0  0  0  0  0  0  0  0  0  0  0
  -18.6020   13.4473  -25.9918 C   0  0  0  0  0  0  0  0  0  0  0  0
  -17.4567   14.2716  -25.4334 C   0  0  0  0  0  0  0  0  0  0  0  0
  -17.9979   14.5803  -24.1020 N   0  0  0  0  0  0  0  0  0  0  0  0
  -18.1570   15.7926  -23.4558 C   0  0  0  0  0  0  0  0  0  0  0  0
  -17.1211   16.5387  -23.2978 O   0  0  0  0  0  0  0  0  0  0  0  0
  -19.4013   16.4058  -22.8838 C   0  0  0  0  0  0  0  0  0  0  0  0
  -19.0251   17.1513  -21.7253 N   0  0  0  0  0  0  0  0  0  0  0  0
  -19.7862   17.6486  -20.6704 C   0  0  0  0  0  0  0  0  0  0  0  0
  -19.5232   18.8723  -20.3327 O   0  0  0  0  0  0  0  0  0  0  0  0
  -20.3891   15.0206  -20.4385 H   0  0  0  0  0  0  0  0  0  0  0  0
  -19.9810   13.8260  -15.5209 H   0  0  0  0  0  0  0  0  0  0  0  0
  -16.5742   12.0407  -17.5952 H   0  0  0  0  0  0  0  0  0  0  0  0
  -18.3514   13.7830  -20.3257 H   0  0  0  0  0  0  0  0  0  0  0  0
  -17.9739   17.3792  -21.6437 H   0  0  0  0  0  0  0  0  0  0  0  0
  -22.1588   17.1941  -20.5924 C   0  0  0  0  0  0  0  0  0  0  0  0
  -22.6829   15.9153  -21.1952 C   0  0  0  0  0  0  0  0  0  0  0  0
  -22.7522   18.1260  -18.3434 C   0  0  0  0  0  0  0  0  0  0  0  0
  -23.2027   17.8688  -19.7605 C   0  0  0  0  0  0  0  0  0  0  0  0
  -18.5629   15.9878  -17.4525 C   0  0  0  0  0  0  0  0  0  0  0  0
  -17.9909   15.8319  -18.8127 C   0  0  0  0  0  0  0  0  0  0  0  0
  -18.4213   14.8986  -19.7198 C   0  0  0  0  0  0  0  0  0  0  0  0
  -17.8988   14.7472  -20.9847 C   0  0  0  0  0  0  0  0  0  0  0  0
  -16.8858   15.5614  -21.3977 C   0  0  0  0  0  0  0  0  0  0  0  0
  -16.4202   16.5165  -20.5178 C   0  0  0  0  0  0  0  0  0  0  0  0
  -16.9518   16.6575  -19.2542 C   0  0  0  0  0  0  0  0  0  0  0  0
  -19.0940   10.4838  -17.8315 C   0  0  0  0  0  0  0  0  0  0  0  0
  -19.9253   10.4278  -16.6120 C   0  0  0  0  0  0  0  0  0  0  0  0
  -21.1821   11.0565  -16.5806 C   0  0  0  0  0  0  0  0  0  0  0  0
  -21.9853   11.0116  -15.4717 C   0  0  0  0  0  0  0  0  0  0  0  0
  -21.6078   10.3504  -14.3286 C   0  0  0  0  0  0  0  0  0  0  0  0
  -20.3828    9.7211  -14.3196 C   0  0  0  0  0  0  0  0  0  0  0  0
  -19.5763    9.7751  -15.4558 C   0  0  0  0  0  0  0  0  0  0  0  0
  -15.6330   13.6869  -20.8766 C   0  0  0  0  0  0  0  0  0  0  0  0
  -15.0347   13.8530  -22.2211 C   0  0  0  0  0  0  0  0  0  0  0  0
  -14.8080   12.8282  -23.1148 C   0  0  0  0  0  0  0  0  0  0  0  0
  -14.2529   13.0516  -24.3613 C   0  0  0  0  0  0  0  0  0  0  0  0
  -13.9019   14.3215  -24.7612 C   0  0  0  0  0  0  0  0  0  0  0  0
  -14.1212   15.3606  -23.8796 C   0  0  0  0  0  0  0  0  0  0  0  0
  -14.6674   15.1290  -22.6568 C   0  0  0  0  0  0  0  0  0  0  0  0
  -20.0713   17.2840  -23.9622 C   0  0  0  0  0  0  0  0  0  0  0  0
  -20.3836   18.6277  -23.5491 C   0  0  0  0  0  0  0  0  0  0  0  0
  -21.6568   18.9725  -23.1696 C   0  0  0  0  0  0  0  0  0  0  0  0
  -21.9960   20.2476  -22.7643 C   0  0  0  0  0  0  0  0  0  0  0  0
  -21.0238   21.2034  -22.7405 C   0  0  0  0  0  0  0  0  0  0  0  0
  -19.7380   20.9156  -23.1081 C   0  0  0  0  0  0  0  0  0  0  0  0
  -19.4271   19.6091  -23.5150 C   0  0  0  0  0  0  0  0  0  0  0  0
 35 36  1  0  0  0
 36 33  1  0  0  0
 33 34  1  0  0  0
 33  1  1  0  0  0
  1  2  1  0  0  0
  2  3  1  0  0  0
  3  4  2  0  0  0
  3  5  1  0  0  0
  5 37  1  0  0  0
 37 38  1  0  0  0
 38 39  2  0  0  0
 39 40  1  0  0  0
 40 41  2  0  0  0
 41 42  1  0  0  0
 42 43  2  0  0  0
  5  6  1  0  0  0
  6  7  1  0  0  0
  7  8  2  0  0  0
  7  9  1  0  0  0
  9 44  1  0  0  0
 44 45  1  0  0  0
 45 46  2  0  0  0
 46 47  1  0  0  0
 47 48  2  0  0  0
 48 49  1  0  0  0
 49 50  2  0  0  0
  9 10  1  0  0  0
 10 11  1  0  0  0
 11 12  2  0  0  0
 11 13  1  0  0  0
 13 51  1  0  0  0
 51 52  1  0  0  0
 52 53  2  0  0  0
 53 54  1  0  0  0
 54 55  2  0  0  0
 55 56  1  0  0  0
 56 57  2  0  0  0
 13 14  1  0  0  0
 14 15  1  0  0  0
 15 16  2  0  0  0
 15 17  1  0  0  0
 17 18  1  0  0  0
 18 19  1  0  0  0
 19 20  1  0  0  0
 20 21  1  0  0  0
 21 22  1  0  0  0
 22 23  2  0  0  0
 22 24  1  0  0  0
 24 58  1  0  0  0
 58 59  1  0  0  0
 59 60  2  0  0  0
 60 61  1  0  0  0
 61 62  2  0  0  0
 62 63  1  0  0  0
 63 64  2  0  0  0
 24 25  1  0  0  0
 25 26  1  0  0  0
 26 27  2  0  0  0
 26  1  1  0  0  0
 43 38  1  0  0  0
 50 45  1  0  0  0
 57 52  1  0  0  0
 21 17  1  0  0  0
 64 59  1  0  0  0
  2 28  1  0  0  0
  6 29  1  0  0  0
 10 30  1  0  0  0
 14 31  1  0  0  0
 25 32  1  0  0  0
M  END
> <minimizedAffinity>
4.10465

> <CNNscore>
0.4006547630

> <CNNaffinity>
7.8125686646

> <CNN_VS>
3.1301429272

> <CNNaffinity_variance>
0.4488554001

$$$$
[H]c1c([H])c([H])c(C([H])([H])[C@@]2([H])C(=O)N([H])[C@@]([H])(C([H])([H])c3c([H])c([H])c([H])c([H])c3[H])C(=O)N([H])[C@]([H])([C@@]([H])(C([H])([H])[H])C([H])([H])C([H])([H])[H])C(=O)N([H])[C@@]([H])(C([H])([H])c3c([H])c([H])c([H])c([H])c3[H])C(=O)N3C([H])([H])C([H])([H])C([H])([H])[C@]3([H])C(=O)N([H])[C@@]([H])(C([H])([H])c3c([H])c([H])c([H])c([H])c3[H])C(=O)N2[H])c([H])c1[H]


 64 69  0  0  0  0  0  0  0  0999 V2000
  -18.5931   12.4227  -17.5501 C   0  0  0  0  0  0  0  0  0  0  0  0
  -19.1715   13.3987  -16.6493 N   0  0  0  0  0  0  0  0  0  0  0  0
  -19.7778   13.2542  -15.4246 C   0  0  0  0  0  0  0  0  0  0  0  0
  -19.1940   13.8144  -14.4141 O   0  0  0  0  0  0  0  0  0  0  0  0
  -21.0465   12.5265  -15.0753 C   0  0  0  0  0  0  0  0  0  0  0  0
  -21.7611   13.1559  -14.0131 N   0  0  0  0  0  0  0  0  0  0  0  0
  -22.4632   14.3364  -13.9047 C   0  0  0  0  0  0  0  0  0  0  0  0
  -23.5979   14.2723  -13.2689 O   0  0  0  0  0  0  0  0  0  0  0  0
  -22.1898   15.7134  -14.3756 C   0  0  0  0  0  0  0  0  0  0  0  0
  -23.2829   16.1228  -15.2647 N   0  0  0  0  0  0  0  0  0  0  0  0
  -23.2968   17.0230  -16.3095 C   0  0  0  0  0  0  0  0  0  0  0  0
  -24.0804   18.0429  -16.1700 O   0  0  0  0  0  0  0  0  0  0  0  0
  -22.5721   17.0495  -17.5933 C   0  0  0  0  0  0  0  0  0  0  0  0
  -21.2063   16.5814  -17.5258 N   0  0  0  0  0  0  0  0  0  0  0  0
  -20.0455   17.2768  -17.9206 C   0  0  0  0  0  0  0  0  0  0  0  0
  -19.1033   17.2661  -17.0929 O   0  0  0  0  0  0  0  0  0  0  0  0
  -19.8768   17.9756  -19.1734 C   0  0  0  0  0  0  0  0  0  0  0  0
  -18.6200   18.8152  -19.2664 C   0  0  0  0  0  0  0  0  0  0  0  0
  -18.5960   19.1112  -20.7731 C   0  0  0  0  0  0  0  0  0  0  0  0
  -19.7107   18.2626  -21.3565 C   0  0  0  0  0  0  0  0  0  0  0  0
  -19.7414   17.1767  -20.3660 N   0  0  0  0  0  0  0  0  0  0  0  0
  -19.6669   15.8060  -20.5332 C   0  0  0  0  0  0  0  0  0  0  0  0
  -20.5278   15.2389  -21.3027 O   0  0  0  0  0  0  0  0  0  0  0  0
  -18.6982   14.8292  -19.9341 C   0  0  0  0  0  0  0  0  0  0  0  0
  -19.3969   13.6029  -19.7159 N   0  0  0  0  0  0  0  0  0  0  0  0
  -19.0825   12.4984  -18.9280 C   0  0  0  0  0  0  0  0  0  0  0  0
  -19.2507   11.3485  -19.5024 O   0  0  0  0  0  0  0  0  0  0  0  0
  -19.0933   14.4091  -17.0115 H   0  0  0  0  0  0  0  0  0  0  0  0
  -21.7459   12.5728  -13.0913 H   0  0  0  0  0  0  0  0  0  0  0  0
  -24.2009   15.6274  -15.0250 H   0  0  0  0  0  0  0  0  0  0  0  0
  -21.1648   15.5889  -17.1297 H   0  0  0  0  0  0  0  0  0  0  0  0
  -20.3275   13.4997  -20.2516 H   0  0  0  0  0  0  0  0  0  0  0  0
  -17.0831   12.5312  -17.5704 C   0  0  0  0  0  0  0  0  0  0  0  0
  -16.4249   11.4429  -18.3804 C   0  0  0  0  0  0  0  0  0  0  0  0
  -17.2515   15.0060  -17.2167 C   0  0  0  0  0  0  0  0  0  0  0  0
  -16.5865   13.8829  -17.9742 C   0  0  0  0  0  0  0  0  0  0  0  0
  -21.8188   12.1216  -16.2861 C   0  0  0  0  0  0  0  0  0  0  0  0
  -22.5645   10.8472  -16.1395 C   0  0  0  0  0  0  0  0  0  0  0  0
  -22.0196    9.6119  -16.3767 C   0  0  0  0  0  0  0  0  0  0  0  0
  -22.7022    8.4238  -16.2416 C   0  0  0  0  0  0  0  0  0  0  0  0
  -24.0077    8.4370  -15.8475 C   0  0  0  0  0  0  0  0  0  0  0  0
  -24.5982    9.6585  -15.5970 C   0  0  0  0  0  0  0  0  0  0  0  0
  -23.9038   10.8407  -15.7363 C   0  0  0  0  0  0  0  0  0  0  0  0
  -22.1255   16.7130  -13.1965 C   0  0  0  0  0  0  0  0  0  0  0  0
  -21.4721   17.9504  -13.6688 C   0  0  0  0  0  0  0  0  0  0  0  0
  -22.1689   19.1710  -13.6537 C   0  0  0  0  0  0  0  0  0  0  0  0
  -21.5886   20.3399  -14.0702 C   0  0  0  0  0  0  0  0  0  0  0  0
  -20.2938   20.3850  -14.5262 C   0  0  0  0  0  0  0  0  0  0  0  0
  -19.5770   19.2094  -14.5563 C   0  0  0  0  0  0  0  0  0  0  0  0
  -20.1808   18.0275  -14.1289 C   0  0  0  0  0  0  0  0  0  0  0  0
  -23.3652   16.3158  -18.6569 C   0  0  0  0  0  0  0  0  0  0  0  0
  -23.5354   17.1603  -19.8616 C   0  0  0  0  0  0  0  0  0  0  0  0
  -23.9828   18.4641  -19.8531 C   0  0  0  0  0  0  0  0  0  0  0  0
  -24.1114   19.2028  -21.0149 C   0  0  0  0  0  0  0  0  0  0  0  0
  -23.7931   18.6570  -22.2382 C   0  0  0  0  0  0  0  0  0  0  0  0
  -23.3436   17.3524  -22.2666 C   0  0  0  0  0  0  0  0  0  0  0  0
  -23.2213   16.6358  -21.1182 C   0  0  0  0  0  0  0  0  0  0  0  0
  -17.4950   14.6645  -20.8871 C   0  0  0  0  0  0  0  0  0  0  0  0
  -17.8341   14.4985  -22.2768 C   0  0  0  0  0  0  0  0  0  0  0  0
  -17.8400   13.2556  -22.8591 C   0  0  0  0  0  0  0  0  0  0  0  0
  -18.1621   13.0538  -24.1860 C   0  0  0  0  0  0  0  0  0  0  0  0
  -18.4880   14.1361  -24.9487 C   0  0  0  0  0  0  0  0  0  0  0  0
  -18.4985   15.3979  -24.4205 C   0  0  0  0  0  0  0  0  0  0  0  0
  -18.1659   15.5678  -23.0678 C   0  0  0  0  0  0  0  0  0  0  0  0
 35 36  1  0  0  0
 36 33  1  0  0  0
 33 34  1  0  0  0
 33  1  1  0  0  0
  1  2  1  0  0  0
  2  3  1  0  0  0
  3  4  2  0  0  0
  3  5  1  0  0  0
  5 37  1  0  0  0
 37 38  1  0  0  0
 38 39  2  0  0  0
 39 40  1  0  0  0
 40 41  2  0  0  0
 41 42  1  0  0  0
 42 43  2  0  0  0
  5  6  1  0  0  0
  6  7  1  0  0  0
  7  8  2  0  0  0
  7  9  1  0  0  0
  9 44  1  0  0  0
 44 45  1  0  0  0
 45 46  2  0  0  0
 46 47  1  0  0  0
 47 48  2  0  0  0
 48 49  1  0  0  0
 49 50  2  0  0  0
  9 10  1  0  0  0
 10 11  1  0  0  0
 11 12  2  0  0  0
 11 13  1  0  0  0
 13 51  1  0  0  0
 51 52  1  0  0  0
 52 53  2  0  0  0
 53 54  1  0  0  0
 54 55  2  0  0  0
 55 56  1  0  0  0
 56 57  2  0  0  0
 13 14  1  0  0  0
 14 15  1  0  0  0
 15 16  2  0  0  0
 15 17  1  0  0  0
 17 18  1  0  0  0
 18 19  1  0  0  0
 19 20  1  0  0  0
 20 21  1  0  0  0
 21 22  1  0  0  0
 22 23  2  0  0  0
 22 24  1  0  0  0
 24 58  1  0  0  0
 58 59  1  0  0  0
 59 60  2  0  0  0
 60 61  1  0  0  0
 61 62  2  0  0  0
 62 63  1  0  0  0
 63 64  2  0  0  0
 24 25  1  0  0  0
 25 26  1  0  0  0
 26 27  2  0  0  0
 26  1  1  0  0  0
 43 38  1  0  0  0
 50 45  1  0  0  0
 57 52  1  0  0  0
 21 17  1  0  0  0
 64 59  1  0  0  0
  2 28  1  0  0  0
  6 29  1  0  0  0
 10 30  1  0  0  0
 14 31  1  0  0  0
 25 32  1  0  0  0
M  END
> <minimizedAffinity>
4.54610

> <CNNscore>
0.3993383050

> <CNNaffinity>
7.2812719345

> <CNN_VS>
2.9076907635

> <CNNaffinity_variance>
1.1228253841

$$$$
[H]c1c([H])c([H])c(C([H])([H])[C@@]2([H])C(=O)N([H])[C@@]([H])(C([H])([H])c3c([H])c([H])c([H])c([H])c3[H])C(=O)N([H])[C@]([H])([C@@]([H])(C([H])([H])[H])C([H])([H])C([H])([H])[H])C(=O)N([H])[C@@]([H])(C([H])([H])c3c([H])c([H])c([H])c([H])c3[H])C(=O)N3C([H])([H])C([H])([H])C([H])([H])[C@]3([H])C(=O)N([H])[C@@]([H])(C([H])([H])c3c([H])c([H])c([H])c([H])c3[H])C(=O)N2[H])c([H])c1[H]


 64 69  0  0  0  0  0  0  0  0999 V2000
  -18.1724   12.9358  -18.3839 C   0  0  0  0  0  0  0  0  0  0  0  0
  -18.2879   14.3209  -17.9758 N   0  0  0  0  0  0  0  0  0  0  0  0
  -18.6586   14.8851  -16.7789 C   0  0  0  0  0  0  0  0  0  0  0  0
  -17.7626   15.5859  -16.1611 O   0  0  0  0  0  0  0  0  0  0  0  0
  -19.9794   14.8086  -16.0640 C   0  0  0  0  0  0  0  0  0  0  0  0
  -20.2824   16.0054  -15.3492 N   0  0  0  0  0  0  0  0  0  0  0  0
  -20.6167   17.2859  -15.7324 C   0  0  0  0  0  0  0  0  0  0  0  0
  -21.5814   17.8508  -15.0645 O   0  0  0  0  0  0  0  0  0  0  0  0
  -20.0912   18.1887  -16.7819 C   0  0  0  0  0  0  0  0  0  0  0  0
  -21.1919   18.5312  -17.6898 N   0  0  0  0  0  0  0  0  0  0  0  0
  -21.1748   18.8859  -19.0224 C   0  0  0  0  0  0  0  0  0  0  0  0
  -21.6220   20.0674  -19.3014 O   0  0  0  0  0  0  0  0  0  0  0  0
  -20.7345   18.1587  -20.2272 C   0  0  0  0  0  0  0  0  0  0  0  0
  -19.5523   17.3473  -20.0447 N   0  0  0  0  0  0  0  0  0  0  0  0
  -18.3510   17.4124  -20.7791 C   0  0  0  0  0  0  0  0  0  0  0  0
  -17.3009   17.4352  -20.0936 O   0  0  0  0  0  0  0  0  0  0  0  0
  -18.2546   17.4521  -22.2197 C   0  0  0  0  0  0  0  0  0  0  0  0
  -16.8658   17.7318  -22.7544 C   0  0  0  0  0  0  0  0  0  0  0  0
  -17.0610   17.3701  -24.2342 C   0  0  0  0  0  0  0  0  0  0  0  0
  -18.4505   16.7644  -24.3089 C   0  0  0  0  0  0  0  0  0  0  0  0
  -18.5688   16.2430  -22.9396 N   0  0  0  0  0  0  0  0  0  0  0  0
  -18.8889   14.9767  -22.4851 C   0  0  0  0  0  0  0  0  0  0  0  0
  -20.0015   14.4560  -22.8671 O   0  0  0  0  0  0  0  0  0  0  0  0
  -18.1108   14.0708  -21.5766 C   0  0  0  0  0  0  0  0  0  0  0  0
  -19.0485   13.3313  -20.7934 N   0  0  0  0  0  0  0  0  0  0  0  0
  -18.8852   12.6017  -19.6185 C   0  0  0  0  0  0  0  0  0  0  0  0
  -19.4569   11.4382  -19.6108 O   0  0  0  0  0  0  0  0  0  0  0  0
  -18.0212   15.0159  -18.7530 H   0  0  0  0  0  0  0  0  0  0  0  0
  -20.2396   15.8725  -14.2674 H   0  0  0  0  0  0  0  0  0  0  0  0
  -22.1419   18.4972  -17.1980 H   0  0  0  0  0  0  0  0  0  0  0  0
  -19.6945   16.6430  -19.2526 H   0  0  0  0  0  0  0  0  0  0  0  0
  -20.0601   13.3249  -21.1680 H   0  0  0  0  0  0  0  0  0  0  0  0
  -16.7206   12.5369  -18.5449 C   0  0  0  0  0  0  0  0  0  0  0  0
  -15.8446   13.0360  -17.4237 C   0  0  0  0  0  0  0  0  0  0  0  0
  -16.0299   10.7535  -20.1637 C   0  0  0  0  0  0  0  0  0  0  0  0
  -16.5253   11.0720  -18.7744 C   0  0  0  0  0  0  0  0  0  0  0  0
  -21.0523   14.2206  -16.9181 C   0  0  0  0  0  0  0  0  0  0  0  0
  -21.6598   12.9816  -16.3726 C   0  0  0  0  0  0  0  0  0  0  0  0
  -22.7193   12.9693  -15.5030 C   0  0  0  0  0  0  0  0  0  0  0  0
  -23.2913   11.8254  -14.9928 C   0  0  0  0  0  0  0  0  0  0  0  0
  -22.7987   10.6062  -15.3541 C   0  0  0  0  0  0  0  0  0  0  0  0
  -21.7321   10.5697  -16.2284 C   0  0  0  0  0  0  0  0  0  0  0  0
  -21.1684   11.7221  -16.7315 C   0  0  0  0  0  0  0  0  0  0  0  0
  -19.5385   19.5005  -16.1757 C   0  0  0  0  0  0  0  0  0  0  0  0
  -20.5691   20.0747  -15.2873 C   0  0  0  0  0  0  0  0  0  0  0  0
  -20.3479   20.1524  -13.9014 C   0  0  0  0  0  0  0  0  0  0  0  0
  -21.2757   20.6926  -13.0504 C   0  0  0  0  0  0  0  0  0  0  0  0
  -22.4740   21.1880  -13.5033 C   0  0  0  0  0  0  0  0  0  0  0  0
  -22.7286   21.1303  -14.8556 C   0  0  0  0  0  0  0  0  0  0  0  0
  -21.7746   20.5781  -15.7094 C   0  0  0  0  0  0  0  0  0  0  0  0
  -21.8839   17.3549  -20.8024 C   0  0  0  0  0  0  0  0  0  0  0  0
  -22.3820   17.9712  -22.0536 C   0  0  0  0  0  0  0  0  0  0  0  0
  -22.4724   19.3276  -22.2822 C   0  0  0  0  0  0  0  0  0  0  0  0
  -22.9389   19.8401  -23.4787 C   0  0  0  0  0  0  0  0  0  0  0  0
  -23.3349   19.0045  -24.4988 C   0  0  0  0  0  0  0  0  0  0  0  0
  -23.2518   17.6430  -24.2882 C   0  0  0  0  0  0  0  0  0  0  0  0
  -22.7918   17.1506  -23.1079 C   0  0  0  0  0  0  0  0  0  0  0  0
  -17.2032   13.1599  -22.4309 C   0  0  0  0  0  0  0  0  0  0  0  0
  -16.7924   13.7172  -23.6936 C   0  0  0  0  0  0  0  0  0  0  0  0
  -17.5821   13.5963  -24.8098 C   0  0  0  0  0  0  0  0  0  0  0  0
  -17.2261   14.1187  -26.0368 C   0  0  0  0  0  0  0  0  0  0  0  0
  -16.0397   14.7825  -26.1424 C   0  0  0  0  0  0  0  0  0  0  0  0
  -15.2135   14.9330  -25.0627 C   0  0  0  0  0  0  0  0  0  0  0  0
  -15.6056   14.3896  -23.8297 C   0  0  0  0  0  0  0  0  0  0  0  0
 35 36  1  0  0  0
 36 33  1  0  0  0
 33 34  1  0  0  0
 33  1  1  0  0  0
  1  2  1  0  0  0
  2  3  1  0  0  0
  3  4  2  0  0  0
  3  5  1  0  0  0
  5 37  1  0  0  0
 37 38  1  0  0  0
 38 39  2  0  0  0
 39 40  1  0  0  0
 40 41  2  0  0  0
 41 42  1  0  0  0
 42 43  2  0  0  0
  5  6  1  0  0  0
  6  7  1  0  0  0
  7  8  2  0  0  0
  7  9  1  0  0  0
  9 44  1  0  0  0
 44 45  1  0  0  0
 45 46  2  0  0  0
 46 47  1  0  0  0
 47 48  2  0  0  0
 48 49  1  0  0  0
 49 50  2  0  0  0
  9 10  1  0  0  0
 10 11  1  0  0  0
 11 12  2  0  0  0
 11 13  1  0  0  0
 13 51  1  0  0  0
 51 52  1  0  0  0
 52 53  2  0  0  0
 53 54  1  0  0  0
 54 55  2  0  0  0
 55 56  1  0  0  0
 56 57  2  0  0  0
 13 14  1  0  0  0
 14 15  1  0  0  0
 15 16  2  0  0  0
 15 17  1  0  0  0
 17 18  1  0  0  0
 18 19  1  0  0  0
 19 20  1  0  0  0
 20 21  1  0  0  0
 21 22  1  0  0  0
 22 23  2  0  0  0
 22 24  1  0  0  0
 24 58  1  0  0  0
 58 59  1  0  0  0
 59 60  2  0  0  0
 60 61  1  0  0  0
 61 62  2  0  0  0
 62 63  1  0  0  0
 63 64  2  0  0  0
 24 25  1  0  0  0
 25 26  1  0  0  0
 26 27  2  0  0  0
 26  1  1  0  0  0
 43 38  1  0  0  0
 50 45  1  0  0  0
 57 52  1  0  0  0
 21 17  1  0  0  0
 64 59  1  0  0  0
  2 28  1  0  0  0
  6 29  1  0  0  0
 10 30  1  0  0  0
 14 31  1  0  0  0
 25 32  1  0  0  0
M  END
> <minimizedAffinity>
0.52101

> <CNNscore>
0.3941478133

> <CNNaffinity>
7.8532981873

> <CNN_VS>
3.0953602791

> <CNNaffinity_variance>
0.8403199911

$$$$
[H]c1c([H])c([H])c(C([H])([H])[C@@]2([H])C(=O)N([H])[C@@]([H])(C([H])([H])c3c([H])c([H])c([H])c([H])c3[H])C(=O)N([H])[C@]([H])([C@@]([H])(C([H])([H])[H])C([H])([H])C([H])([H])[H])C(=O)N([H])[C@@]([H])(C([H])([H])c3c([H])c([H])c([H])c([H])c3[H])C(=O)N3C([H])([H])C([H])([H])C([H])([H])[C@]3([H])C(=O)N([H])[C@@]([H])(C([H])([H])c3c([H])c([H])c([H])c([H])c3[H])C(=O)N2[H])c([H])c1[H]


 64 69  0  0  0  0  0  0  0  0999 V2000
  -18.5835   13.5986  -20.7821 C   0  0  0  0  0  0  0  0  0  0  0  0
  -19.5509   14.6225  -21.1200 N   0  0  0  0  0  0  0  0  0  0  0  0
  -19.9457   15.1309  -22.3341 C   0  0  0  0  0  0  0  0  0  0  0  0
  -21.1817   14.9451  -22.6711 O   0  0  0  0  0  0  0  0  0  0  0  0
  -19.1385   15.8881  -23.3521 C   0  0  0  0  0  0  0  0  0  0  0  0
  -19.9130   16.8660  -24.0441 N   0  0  0  0  0  0  0  0  0  0  0  0
  -20.4856   18.0638  -23.6757 C   0  0  0  0  0  0  0  0  0  0  0  0
  -20.3571   19.0450  -24.5222 O   0  0  0  0  0  0  0  0  0  0  0  0
  -21.2444   18.4864  -22.4764 C   0  0  0  0  0  0  0  0  0  0  0  0
  -20.5264   19.5990  -21.8442 N   0  0  0  0  0  0  0  0  0  0  0  0
  -20.4944   20.0103  -20.5282 C   0  0  0  0  0  0  0  0  0  0  0  0
  -20.9433   21.2009  -20.2942 O   0  0  0  0  0  0  0  0  0  0  0  0
  -20.0330   19.3381  -19.2996 C   0  0  0  0  0  0  0  0  0  0  0  0
  -20.3252   17.9239  -19.2387 N   0  0  0  0  0  0  0  0  0  0  0  0
  -21.0380   17.2426  -18.2315 C   0  0  0  0  0  0  0  0  0  0  0  0
  -21.9257   16.4553  -18.6382 O   0  0  0  0  0  0  0  0  0  0  0  0
  -20.8192   17.3867  -16.8111 C   0  0  0  0  0  0  0  0  0  0  0  0
  -21.8530   16.7065  -15.9384 C   0  0  0  0  0  0  0  0  0  0  0  0
  -21.1472   16.7661  -14.5758 C   0  0  0  0  0  0  0  0  0  0  0  0
  -19.7551   17.2889  -14.8787 C   0  0  0  0  0  0  0  0  0  0  0  0
  -19.6100   16.8222  -16.2651 N   0  0  0  0  0  0  0  0  0  0  0  0
  -18.6121   16.0727  -16.8609 C   0  0  0  0  0  0  0  0  0  0  0  0
  -17.4028   16.5063  -16.7937 O   0  0  0  0  0  0  0  0  0  0  0  0
  -18.7183   14.7751  -17.6067 C   0  0  0  0  0  0  0  0  0  0  0  0
  -17.7309   14.7851  -18.6385 N   0  0  0  0  0  0  0  0  0  0  0  0
  -17.5935   14.0007  -19.7810 C   0  0  0  0  0  0  0  0  0  0  0  0
  -16.3965   13.5533  -19.9992 O   0  0  0  0  0  0  0  0  0  0  0  0
  -20.0467   15.0382  -20.2600 H   0  0  0  0  0  0  0  0  0  0  0  0
  -20.0853   16.6050  -25.0891 H   0  0  0  0  0  0  0  0  0  0  0  0
  -19.9555   20.1616  -22.5534 H   0  0  0  0  0  0  0  0  0  0  0  0
  -19.9118   17.4146  -20.0833 H   0  0  0  0  0  0  0  0  0  0  0  0
  -16.9486   15.5186  -18.5223 H   0  0  0  0  0  0  0  0  0  0  0  0
  -19.2722   12.3403  -20.2977 C   0  0  0  0  0  0  0  0  0  0  0  0
  -20.3998   11.9020  -21.1977 C   0  0  0  0  0  0  0  0  0  0  0  0
  -18.5625   10.5661  -18.6769 C   0  0  0  0  0  0  0  0  0  0  0  0
  -18.3301   11.2122  -20.0207 C   0  0  0  0  0  0  0  0  0  0  0  0
  -17.8074   16.3056  -22.8225 C   0  0  0  0  0  0  0  0  0  0  0  0
  -16.6599   15.9329  -23.6862 C   0  0  0  0  0  0  0  0  0  0  0  0
  -15.3685   15.8302  -23.2381 C   0  0  0  0  0  0  0  0  0  0  0  0
  -14.2974   15.4831  -24.0307 C   0  0  0  0  0  0  0  0  0  0  0  0
  -14.4955   15.2165  -25.3533 C   0  0  0  0  0  0  0  0  0  0  0  0
  -15.7799   15.3070  -25.8489 C   0  0  0  0  0  0  0  0  0  0  0  0
  -16.8434   15.6557  -25.0449 C   0  0  0  0  0  0  0  0  0  0  0  0
  -22.6642   18.9762  -22.8480 C   0  0  0  0  0  0  0  0  0  0  0  0
  -23.3415   19.4229  -21.6140 C   0  0  0  0  0  0  0  0  0  0  0  0
  -23.7943   20.7481  -21.4931 C   0  0  0  0  0  0  0  0  0  0  0  0
  -24.4397   21.1918  -20.3691 C   0  0  0  0  0  0  0  0  0  0  0  0
  -24.6801   20.3673  -19.2972 C   0  0  0  0  0  0  0  0  0  0  0  0
  -24.2518   19.0608  -19.3769 C   0  0  0  0  0  0  0  0  0  0  0  0
  -23.5968   18.6234  -20.5275 C   0  0  0  0  0  0  0  0  0  0  0  0
  -18.5604   19.6176  -19.0719 C   0  0  0  0  0  0  0  0  0  0  0  0
  -17.7241   18.5576  -19.6805 C   0  0  0  0  0  0  0  0  0  0  0  0
  -18.1520   17.2761  -19.9543 C   0  0  0  0  0  0  0  0  0  0  0  0
  -17.3221   16.3338  -20.5332 C   0  0  0  0  0  0  0  0  0  0  0  0
  -16.0216   16.6443  -20.8619 C   0  0  0  0  0  0  0  0  0  0  0  0
  -15.5750   17.9227  -20.5949 C   0  0  0  0  0  0  0  0  0  0  0  0
  -16.3998   18.8407  -20.0254 C   0  0  0  0  0  0  0  0  0  0  0  0
  -18.5276   13.6074  -16.6151 C   0  0  0  0  0  0  0  0  0  0  0  0
  -19.7379   12.9293  -16.2290 C   0  0  0  0  0  0  0  0  0  0  0  0
  -19.7204   11.6074  -15.8601 C   0  0  0  0  0  0  0  0  0  0  0  0
  -20.8572   10.9226  -15.4805 C   0  0  0  0  0  0  0  0  0  0  0  0
  -22.0465   11.5893  -15.4724 C   0  0  0  0  0  0  0  0  0  0  0  0
  -22.1225   12.9073  -15.8305 C   0  0  0  0  0  0  0  0  0  0  0  0
  -20.9477   13.5737  -16.2112 C   0  0  0  0  0  0  0  0  0  0  0  0
 35 36  1  0  0  0
 36 33  1  0  0  0
 33 34  1  0  0  0
 33  1  1  0  0  0
  1  2  1  0  0  0
  2  3  1  0  0  0
  3  4  2  0  0  0
  3  5  1  0  0  0
  5 37  1  0  0  0
 37 38  1  0  0  0
 38 39  2  0  0  0
 39 40  1  0  0  0
 40 41  2  0  0  0
 41 42  1  0  0  0
 42 43  2  0  0  0
  5  6  1  0  0  0
  6  7  1  0  0  0
  7  8  2  0  0  0
  7  9  1  0  0  0
  9 44  1  0  0  0
 44 45  1  0  0  0
 45 46  2  0  0  0
 46 47  1  0  0  0
 47 48  2  0  0  0
 48 49  1  0  0  0
 49 50  2  0  0  0
  9 10  1  0  0  0
 10 11  1  0  0  0
 11 12  2  0  0  0
 11 13  1  0  0  0
 13 51  1  0  0  0
 51 52  1  0  0  0
 52 53  2  0  0  0
 53 54  1  0  0  0
 54 55  2  0  0  0
 55 56  1  0  0  0
 56 57  2  0  0  0
 13 14  1  0  0  0
 14 15  1  0  0  0
 15 16  2  0  0  0
 15 17  1  0  0  0
 17 18  1  0  0  0
 18 19  1  0  0  0
 19 20  1  0  0  0
 20 21  1  0  0  0
 21 22  1  0  0  0
 22 23  2  0  0  0
 22 24  1  0  0  0
 24 58  1  0  0  0
 58 59  1  0  0  0
 59 60  2  0  0  0
 60 61  1  0  0  0
 61 62  2  0  0  0
 62 63  1  0  0  0
 63 64  2  0  0  0
 24 25  1  0  0  0
 25 26  1  0  0  0
 26 27  2  0  0  0
 26  1  1  0  0  0
 43 38  1  0  0  0
 50 45  1  0  0  0
 57 52  1  0  0  0
 21 17  1  0  0  0
 64 59  1  0  0  0
  2 28  1  0  0  0
  6 29  1  0  0  0
 10 30  1  0  0  0
 14 31  1  0  0  0
 25 32  1  0  0  0
M  END
> <minimizedAffinity>
4.17502

> <CNNscore>
0.3904859424

> <CNNaffinity>
7.4400925636

> <CNN_VS>
2.9052515030

> <CNNaffinity_variance>
0.5668994188

$$$$
[H]c1c([H])c([H])c(C([H])([H])[C@@]2([H])C(=O)N([H])[C@@]([H])(C([H])([H])c3c([H])c([H])c([H])c([H])c3[H])C(=O)N([H])[C@]([H])([C@@]([H])(C([H])([H])[H])C([H])([H])C([H])([H])[H])C(=O)N([H])[C@@]([H])(C([H])([H])c3c([H])c([H])c([H])c([H])c3[H])C(=O)N3C([H])([H])C([H])([H])C([H])([H])[C@]3([H])C(=O)N([H])[C@@]([H])(C([H])([H])c3c([H])c([H])c([H])c([H])c3[H])C(=O)N2[H])c([H])c1[H]


 64 69  0  0  0  0  0  0  0  0999 V2000
  -22.9071   19.3421  -18.3454 C   0  0  0  0  0  0  0  0  0  0  0  0
  -21.6918   19.3610  -19.1336 N   0  0  0  0  0  0  0  0  0  0  0  0
  -21.3859   19.9984  -20.3120 C   0  0  0  0  0  0  0  0  0  0  0  0
  -20.4496   20.8912  -20.2671 O   0  0  0  0  0  0  0  0  0  0  0  0
  -21.9894   19.8090  -21.6762 C   0  0  0  0  0  0  0  0  0  0  0  0
  -21.0387   19.9945  -22.7234 N   0  0  0  0  0  0  0  0  0  0  0  0
  -19.9465   19.2755  -23.1578 C   0  0  0  0  0  0  0  0  0  0  0  0
  -19.8213   19.1464  -24.4476 O   0  0  0  0  0  0  0  0  0  0  0  0
  -18.8446   18.5937  -22.4414 C   0  0  0  0  0  0  0  0  0  0  0  0
  -18.8677   17.1721  -22.8044 N   0  0  0  0  0  0  0  0  0  0  0  0
  -18.4412   16.0631  -22.1044 C   0  0  0  0  0  0  0  0  0  0  0  0
  -17.4894   15.3780  -22.6508 O   0  0  0  0  0  0  0  0  0  0  0  0
  -18.8724   15.4880  -20.8170 C   0  0  0  0  0  0  0  0  0  0  0  0
  -19.2049   16.4615  -19.8016 N   0  0  0  0  0  0  0  0  0  0  0  0
  -18.6544   16.5677  -18.5084 C   0  0  0  0  0  0  0  0  0  0  0  0
  -18.2955   17.7204  -18.1686 O   0  0  0  0  0  0  0  0  0  0  0  0
  -18.4838   15.4732  -17.5815 C   0  0  0  0  0  0  0  0  0  0  0  0
  -17.6790   15.8105  -16.3439 C   0  0  0  0  0  0  0  0  0  0  0  0
  -17.9850   14.5837  -15.4722 C   0  0  0  0  0  0  0  0  0  0  0  0
  -19.0508   13.8181  -16.2343 C   0  0  0  0  0  0  0  0  0  0  0  0
  -19.6717   14.9259  -16.9747 N   0  0  0  0  0  0  0  0  0  0  0  0
  -20.9951   15.3174  -17.0627 C   0  0  0  0  0  0  0  0  0  0  0  0
  -21.8597   14.4547  -17.4665 O   0  0  0  0  0  0  0  0  0  0  0  0
  -21.6130   16.6480  -16.7476 C   0  0  0  0  0  0  0  0  0  0  0  0
  -22.6961   16.8501  -17.6562 N   0  0  0  0  0  0  0  0  0  0  0  0
  -23.3937   18.0034  -18.0061 C   0  0  0  0  0  0  0  0  0  0  0  0
  -24.6834   17.8759  -18.0406 O   0  0  0  0  0  0  0  0  0  0  0  0
  -20.8961   18.7801  -18.7006 H   0  0  0  0  0  0  0  0  0  0  0  0
  -21.2203   20.9012  -23.3019 H   0  0  0  0  0  0  0  0  0  0  0  0
  -19.2807   17.0145  -23.7791 H   0  0  0  0  0  0  0  0  0  0  0  0
  -19.9648   17.1285  -20.1503 H   0  0  0  0  0  0  0  0  0  0  0  0
  -23.0470   15.9638  -18.1613 H   0  0  0  0  0  0  0  0  0  0  0  0
  -22.7345   20.1292  -17.0635 C   0  0  0  0  0  0  0  0  0  0  0  0
  -23.8082   19.8397  -16.0452 C   0  0  0  0  0  0  0  0  0  0  0  0
  -20.4929   21.1998  -16.7361 C   0  0  0  0  0  0  0  0  0  0  0  0
  -21.3703   20.0027  -16.4637 C   0  0  0  0  0  0  0  0  0  0  0  0
  -22.8696   18.6061  -21.7440 C   0  0  0  0  0  0  0  0  0  0  0  0
  -23.2464   18.1991  -23.1202 C   0  0  0  0  0  0  0  0  0  0  0  0
  -23.6981   19.0700  -24.0775 C   0  0  0  0  0  0  0  0  0  0  0  0
  -24.0482   18.7028  -25.3576 C   0  0  0  0  0  0  0  0  0  0  0  0
  -23.9519   17.3957  -25.7344 C   0  0  0  0  0  0  0  0  0  0  0  0
  -23.5012   16.4828  -24.8033 C   0  0  0  0  0  0  0  0  0  0  0  0
  -23.1543   16.8634  -23.5250 C   0  0  0  0  0  0  0  0  0  0  0  0
  -17.4662   19.1722  -22.8405 C   0  0  0  0  0  0  0  0  0  0  0  0
  -16.7034   18.1194  -23.5412 C   0  0  0  0  0  0  0  0  0  0  0  0
  -16.9105   17.8862  -24.9118 C   0  0  0  0  0  0  0  0  0  0  0  0
  -16.2097   16.9284  -25.5960 C   0  0  0  0  0  0  0  0  0  0  0  0
  -15.2659   16.1421  -24.9816 C   0  0  0  0  0  0  0  0  0  0  0  0
  -15.0335   16.3400  -23.6386 C   0  0  0  0  0  0  0  0  0  0  0  0
  -15.7542   17.3188  -22.9555 C   0  0  0  0  0  0  0  0  0  0  0  0
  -20.0000   14.4989  -21.0372 C   0  0  0  0  0  0  0  0  0  0  0  0
  -19.6074   13.1448  -20.5838 C   0  0  0  0  0  0  0  0  0  0  0  0
  -18.8852   12.2412  -21.3335 C   0  0  0  0  0  0  0  0  0  0  0  0
  -18.5424   10.9931  -20.8473 C   0  0  0  0  0  0  0  0  0  0  0  0
  -18.9139   10.6016  -19.5807 C   0  0  0  0  0  0  0  0  0  0  0  0
  -19.6379   11.4930  -18.8150 C   0  0  0  0  0  0  0  0  0  0  0  0
  -19.9694   12.7173  -19.3035 C   0  0  0  0  0  0  0  0  0  0  0  0
  -22.0675   16.6553  -15.2723 C   0  0  0  0  0  0  0  0  0  0  0  0
  -22.7067   15.4455  -14.8235 C   0  0  0  0  0  0  0  0  0  0  0  0
  -21.9735   14.4139  -14.2923 C   0  0  0  0  0  0  0  0  0  0  0  0
  -22.5482   13.2403  -13.8480 C   0  0  0  0  0  0  0  0  0  0  0  0
  -23.9014   13.1018  -13.9415 C   0  0  0  0  0  0  0  0  0  0  0  0
  -24.6813   14.0977  -14.4623 C   0  0  0  0  0  0  0  0  0  0  0  0
  -24.0649   15.2781  -14.9049 C   0  0  0  0  0  0  0  0  0  0  0  0
 35 36  1  0  0  0
 36 33  1  0  0  0
 33 34  1  0  0  0
 33  1  1  0  0  0
  1  2  1  0  0  0
  2  3  1  0  0  0
  3  4  2  0  0  0
  3  5  1  0  0  0
  5 37  1  0  0  0
 37 38  1  0  0  0
 38 39  2  0  0  0
 39 40  1  0  0  0
 40 41  2  0  0  0
 41 42  1  0  0  0
 42 43  2  0  0  0
  5  6  1  0  0  0
  6  7  1  0  0  0
  7  8  2  0  0  0
  7  9  1  0  0  0
  9 44  1  0  0  0
 44 45  1  0  0  0
 45 46  2  0  0  0
 46 47  1  0  0  0
 47 48  2  0  0  0
 48 49  1  0  0  0
 49 50  2  0  0  0
  9 10  1  0  0  0
 10 11  1  0  0  0
 11 12  2  0  0  0
 11 13  1  0  0  0
 13 51  1  0  0  0
 51 52  1  0  0  0
 52 53  2  0  0  0
 53 54  1  0  0  0
 54 55  2  0  0  0
 55 56  1  0  0  0
 56 57  2  0  0  0
 13 14  1  0  0  0
 14 15  1  0  0  0
 15 16  2  0  0  0
 15 17  1  0  0  0
 17 18  1  0  0  0
 18 19  1  0  0  0
 19 20  1  0  0  0
 20 21  1  0  0  0
 21 22  1  0  0  0
 22 23  2  0  0  0
 22 24  1  0  0  0
 24 58  1  0  0  0
 58 59  1  0  0  0
 59 60  2  0  0  0
 60 61  1  0  0  0
 61 62  2  0  0  0
 62 63  1  0  0  0
 63 64  2  0  0  0
 24 25  1  0  0  0
 25 26  1  0  0  0
 26 27  2  0  0  0
 26  1  1  0  0  0
 43 38  1  0  0  0
 50 45  1  0  0  0
 57 52  1  0  0  0
 21 17  1  0  0  0
 64 59  1  0  0  0
  2 28  1  0  0  0
  6 29  1  0  0  0
 10 30  1  0  0  0
 14 31  1  0  0  0
 25 32  1  0  0  0
M  END
> <minimizedAffinity>
4.59503

> <CNNscore>
0.3902912140

> <CNNaffinity>
7.2920975685

> <CNN_VS>
2.8460416794

> <CNNaffinity_variance>
1.5578256845

$$$$
[H]c1c([H])c([H])c(C2=C(N([H])c3c([H])c([H])c(N(C(=O)C([H])([H])N4C([H])([H])C([H])([H])N(C([H])([H])[H])C([H])([H])C4([H])[H])C([H])([H])[H])c([H])c3[H])C(=O)c3c([H])c(C(=O)OC([H])([H])[H])c([H])c([H])c32)c([H])c1[H]


 40 44  0  0  0  0  0  0  0  0999 V2000
  -16.9556   11.6509  -20.5560 C   0  0  0  0  0  0  0  0  0  0  0  0
  -17.2070   12.9879  -20.7514 C   0  0  0  0  0  0  0  0  0  0  0  0
  -18.1568   13.6258  -19.9684 C   0  0  0  0  0  0  0  0  0  0  0  0
  -18.8736   12.9673  -18.9845 C   0  0  0  0  0  0  0  0  0  0  0  0
  -19.9112   13.3545  -18.0215 C   0  0  0  0  0  0  0  0  0  0  0  0
  -20.2915   12.3446  -17.2750 C   0  0  0  0  0  0  0  0  0  0  0  0
  -19.4852   11.1875  -17.7284 C   0  0  0  0  0  0  0  0  0  0  0  0
  -19.5541   10.0275  -17.2584 O   0  0  0  0  0  0  0  0  0  0  0  0
  -18.6131   11.6244  -18.7976 C   0  0  0  0  0  0  0  0  0  0  0  0
  -17.6653   10.9919  -19.5805 C   0  0  0  0  0  0  0  0  0  0  0  0
  -20.4387   14.7103  -17.9465 C   0  0  0  0  0  0  0  0  0  0  0  0
  -21.3865   15.0730  -18.9084 C   0  0  0  0  0  0  0  0  0  0  0  0
  -21.9233   16.3241  -18.8651 C   0  0  0  0  0  0  0  0  0  0  0  0
  -21.5329   17.2294  -17.8770 C   0  0  0  0  0  0  0  0  0  0  0  0
  -20.6063   16.9038  -16.9215 C   0  0  0  0  0  0  0  0  0  0  0  0
  -20.0669   15.6140  -16.9816 C   0  0  0  0  0  0  0  0  0  0  0  0
  -15.9641   10.9449  -21.3497 C   0  0  0  0  0  0  0  0  0  0  0  0
  -15.3116    9.9957  -20.8186 O   0  0  0  0  0  0  0  0  0  0  0  0
  -14.7494   12.2623  -23.0299 C   0  0  0  0  0  0  0  0  0  0  0  0
  -15.6712   11.2327  -22.6618 O   0  0  0  0  0  0  0  0  0  0  0  0
  -21.2675   12.2981  -16.2269 N   0  0  0  0  0  0  0  0  0  0  0  0
  -22.1701   12.8350  -16.3349 H   0  0  0  0  0  0  0  0  0  0  0  0
  -21.0931   11.5629  -15.0358 C   0  0  0  0  0  0  0  0  0  0  0  0
  -19.9431   11.7134  -14.2909 C   0  0  0  0  0  0  0  0  0  0  0  0
  -19.7402   11.0191  -13.1222 C   0  0  0  0  0  0  0  0  0  0  0  0
  -20.6911   10.1171  -12.6185 C   0  0  0  0  0  0  0  0  0  0  0  0
  -21.8262    9.9913  -13.3856 C   0  0  0  0  0  0  0  0  0  0  0  0
  -22.0474   10.6789  -14.5613 C   0  0  0  0  0  0  0  0  0  0  0  0
  -20.4522    9.4314  -11.4015 N   0  0  0  0  0  0  0  0  0  0  0  0
  -21.1134    9.9705  -10.1959 C   0  0  0  0  0  0  0  0  0  0  0  0
  -19.6338    8.2958  -11.3384 C   0  0  0  0  0  0  0  0  0  0  0  0
  -19.4737    7.7649  -10.2143 O   0  0  0  0  0  0  0  0  0  0  0  0
  -18.9861    7.7360  -12.5206 C   0  0  0  0  0  0  0  0  0  0  0  0
  -19.9117    6.9577  -13.3191 N   0  0  0  0  0  0  0  0  0  0  0  0
  -19.8482    7.2139  -14.7214 C   0  0  0  0  0  0  0  0  0  0  0  0
  -21.0620    6.5040  -15.3406 C   0  0  0  0  0  0  0  0  0  0  0  0
  -20.7666    5.0841  -15.2944 N   0  0  0  0  0  0  0  0  0  0  0  0
  -21.9830    4.3711  -15.0571 C   0  0  0  0  0  0  0  0  0  0  0  0
  -19.7454    4.7325  -14.3568 C   0  0  0  0  0  0  0  0  0  0  0  0
  -19.7951    5.5224  -13.0619 C   0  0  0  0  0  0  0  0  0  0  0  0
 19 20  1  0  0  0
 20 17  1  0  0  0
 17 18  2  0  0  0
 17  1  1  0  0  0
  1  2  2  0  0  0
  2  3  1  0  0  0
  3  4  2  0  0  0
  4  5  1  0  0  0
  5  6  2  0  0  0
  6 21  1  0  0  0
 21 23  1  0  0  0
 23 24  2  0  0  0
 24 25  1  0  0  0
 25 26  2  0  0  0
 26 27  1  0  0  0
 27 28  2  0  0  0
 26 29  1  0  0  0
 29 30  1  0  0  0
 29 31  1  0  0  0
 31 32  2  0  0  0
 31 33  1  0  0  0
 33 34  1  0  0  0
 34 35  1  0  0  0
 35 36  1  0  0  0
 36 37  1  0  0  0
 37 38  1  0  0  0
 37 39  1  0  0  0
 39 40  1  0  0  0
  6  7  1  0  0  0
  7  8  2  0  0  0
  7  9  1  0  0  0
  9 10  2  0  0  0
  5 11  1  0  0  0
 11 12  2  0  0  0
 12 13  1  0  0  0
 13 14  2  0  0  0
 14 15  1  0  0  0
 15 16  2  0  0  0
 10  1  1  0  0  0
 16 11  1  0  0  0
  9  4  1  0  0  0
 28 23  1  0  0  0
 40 34  1  0  0  0
 21 22  1  0  0  0
M  END
> <minimizedAffinity>
-7.19077

> <CNNscore>
0.3426172435

> <CNNaffinity>
6.6681962013

> <CNN_VS>
2.2846391201

> <CNNaffinity_variance>
0.1775682271

$$$$
[H]c1c([H])c([H])c(C2=C(N([H])c3c([H])c([H])c(N(C(=O)C([H])([H])N4C([H])([H])C([H])([H])N(C([H])([H])[H])C([H])([H])C4([H])[H])C([H])([H])[H])c([H])c3[H])C(=O)c3c([H])c(C(=O)OC([H])([H])[H])c([H])c([H])c32)c([H])c1[H]


 40 44  0  0  0  0  0  0  0  0999 V2000
  -16.7964   11.6027  -20.9234 C   0  0  0  0  0  0  0  0  0  0  0  0
  -15.9890   11.5186  -22.0325 C   0  0  0  0  0  0  0  0  0  0  0  0
  -16.0886   12.4820  -23.0244 C   0  0  0  0  0  0  0  0  0  0  0  0
  -16.9772   13.5402  -22.9470 C   0  0  0  0  0  0  0  0  0  0  0  0
  -17.3068   14.6836  -23.8060 C   0  0  0  0  0  0  0  0  0  0  0  0
  -18.2500   15.4336  -23.2868 C   0  0  0  0  0  0  0  0  0  0  0  0
  -18.6050   14.7936  -21.9988 C   0  0  0  0  0  0  0  0  0  0  0  0
  -19.4733   15.2112  -21.1970 O   0  0  0  0  0  0  0  0  0  0  0  0
  -17.7835   13.6142  -21.8286 C   0  0  0  0  0  0  0  0  0  0  0  0
  -17.6813   12.6514  -20.8418 C   0  0  0  0  0  0  0  0  0  0  0  0
  -16.6485   14.9134  -25.0850 C   0  0  0  0  0  0  0  0  0  0  0  0
  -15.4962   15.7051  -25.0687 C   0  0  0  0  0  0  0  0  0  0  0  0
  -14.8350   15.9301  -26.2380 C   0  0  0  0  0  0  0  0  0  0  0  0
  -15.3008   15.3797  -27.4332 C   0  0  0  0  0  0  0  0  0  0  0  0
  -16.4269   14.6005  -27.4815 C   0  0  0  0  0  0  0  0  0  0  0  0
  -17.0919   14.3798  -26.2703 C   0  0  0  0  0  0  0  0  0  0  0  0
  -16.7203   10.6183  -19.8573 C   0  0  0  0  0  0  0  0  0  0  0  0
  -16.0722    9.5458  -20.0539 O   0  0  0  0  0  0  0  0  0  0  0  0
  -18.2471    9.8111  -18.1105 C   0  0  0  0  0  0  0  0  0  0  0  0
  -17.3102   10.7619  -18.6239 O   0  0  0  0  0  0  0  0  0  0  0  0
  -18.8532   16.6290  -23.7971 N   0  0  0  0  0  0  0  0  0  0  0  0
  -19.1774   16.6580  -24.8014 H   0  0  0  0  0  0  0  0  0  0  0  0
  -19.0453   17.7929  -23.0235 C   0  0  0  0  0  0  0  0  0  0  0  0
  -18.0254   18.2742  -22.2311 C   0  0  0  0  0  0  0  0  0  0  0  0
  -18.1730   19.4081  -21.4687 C   0  0  0  0  0  0  0  0  0  0  0  0
  -19.3698   20.1425  -21.4522 C   0  0  0  0  0  0  0  0  0  0  0  0
  -20.3660   19.6350  -22.2539 C   0  0  0  0  0  0  0  0  0  0  0  0
  -20.2368   18.4984  -23.0254 C   0  0  0  0  0  0  0  0  0  0  0  0
  -19.4783   21.3157  -20.6648 N   0  0  0  0  0  0  0  0  0  0  0  0
  -18.6850   22.4827  -21.1009 C   0  0  0  0  0  0  0  0  0  0  0  0
  -20.2981   21.3740  -19.5299 C   0  0  0  0  0  0  0  0  0  0  0  0
  -20.3193   22.4525  -18.8915 O   0  0  0  0  0  0  0  0  0  0  0  0
  -21.1042   20.2386  -19.0923 C   0  0  0  0  0  0  0  0  0  0  0  0
  -20.2970   19.2336  -18.4301 N   0  0  0  0  0  0  0  0  0  0  0  0
  -20.2109   19.3788  -17.0133 C   0  0  0  0  0  0  0  0  0  0  0  0
  -19.1210   18.4004  -16.5491 C   0  0  0  0  0  0  0  0  0  0  0  0
  -19.6932   17.0723  -16.6674 N   0  0  0  0  0  0  0  0  0  0  0  0
  -18.6608   16.1622  -17.0550 C   0  0  0  0  0  0  0  0  0  0  0  0
  -20.8264   17.0023  -17.5371 C   0  0  0  0  0  0  0  0  0  0  0  0
  -20.7121   17.8737  -18.7744 C   0  0  0  0  0  0  0  0  0  0  0  0
 19 20  1  0  0  0
 20 17  1  0  0  0
 17 18  2  0  0  0
 17  1  1  0  0  0
  1  2  2  0  0  0
  2  3  1  0  0  0
  3  4  2  0  0  0
  4  5  1  0  0  0
  5  6  2  0  0  0
  6 21  1  0  0  0
 21 23  1  0  0  0
 23 24  2  0  0  0
 24 25  1  0  0  0
 25 26  2  0  0  0
 26 27  1  0  0  0
 27 28  2  0  0  0
 26 29  1  0  0  0
 29 30  1  0  0  0
 29 31  1  0  0  0
 31 32  2  0  0  0
 31 33  1  0  0  0
 33 34  1  0  0  0
 34 35  1  0  0  0
 35 36  1  0  0  0
 36 37  1  0  0  0
 37 38  1  0  0  0
 37 39  1  0  0  0
 39 40  1  0  0  0
  6  7  1  0  0  0
  7  8  2  0  0  0
  7  9  1  0  0  0
  9 10  2  0  0  0
  5 11  1  0  0  0
 11 12  2  0  0  0
 12 13  1  0  0  0
 13 14  2  0  0  0
 14 15  1  0  0  0
 15 16  2  0  0  0
 10  1  1  0  0  0
 16 11  1  0  0  0
  9  4  1  0  0  0
 28 23  1  0  0  0
 40 34  1  0  0  0
 21 22  1  0  0  0
M  END
> <minimizedAffinity>
-9.23998

> <CNNscore>
0.3142375350

> <CNNaffinity>
6.9816007614

> <CNN_VS>
2.1938810349

> <CNNaffinity_variance>
0.1095494181

$$$$
[H]c1c([H])c([H])c(C2=C(N([H])c3c([H])c([H])c(N(C(=O)C([H])([H])N4C([H])([H])C([H])([H])N(C([H])([H])[H])C([H])([H])C4([H])[H])C([H])([H])[H])c([H])c3[H])C(=O)c3c([H])c(C(=O)OC([H])([H])[H])c([H])c([H])c32)c([H])c1[H]


 40 44  0  0  0  0  0  0  0  0999 V2000
  -20.2163    9.4093  -15.6411 C   0  0  0  0  0  0  0  0  0  0  0  0
  -19.3732    8.8147  -16.5491 C   0  0  0  0  0  0  0  0  0  0  0  0
  -18.7878    9.5839  -17.5430 C   0  0  0  0  0  0  0  0  0  0  0  0
  -19.0174   10.9433  -17.6636 C   0  0  0  0  0  0  0  0  0  0  0  0
  -18.5598   11.9960  -18.5782 C   0  0  0  0  0  0  0  0  0  0  0  0
  -19.0725   13.1660  -18.2780 C   0  0  0  0  0  0  0  0  0  0  0  0
  -19.9326   12.9329  -17.0945 C   0  0  0  0  0  0  0  0  0  0  0  0
  -20.6021   13.8108  -16.5010 O   0  0  0  0  0  0  0  0  0  0  0  0
  -19.8665   11.5297  -16.7462 C   0  0  0  0  0  0  0  0  0  0  0  0
  -20.4483   10.7592  -15.7567 C   0  0  0  0  0  0  0  0  0  0  0  0
  -17.6526   11.7267  -19.6856 C   0  0  0  0  0  0  0  0  0  0  0  0
  -16.5923   10.8506  -19.4343 C   0  0  0  0  0  0  0  0  0  0  0  0
  -15.7303   10.5526  -20.4459 C   0  0  0  0  0  0  0  0  0  0  0  0
  -15.9023   11.1134  -21.7124 C   0  0  0  0  0  0  0  0  0  0  0  0
  -16.9308   11.9754  -21.9894 C   0  0  0  0  0  0  0  0  0  0  0  0
  -17.8065   12.2687  -20.9381 C   0  0  0  0  0  0  0  0  0  0  0  0
  -20.8458    8.6419  -14.5798 C   0  0  0  0  0  0  0  0  0  0  0  0
  -22.1119    8.5832  -14.5294 O   0  0  0  0  0  0  0  0  0  0  0  0
  -19.0926    8.5553  -12.8615 C   0  0  0  0  0  0  0  0  0  0  0  0
  -20.1601    7.9591  -13.6033 O   0  0  0  0  0  0  0  0  0  0  0  0
  -18.8836   14.4374  -18.9114 N   0  0  0  0  0  0  0  0  0  0  0  0
  -17.9058   14.7607  -19.1434 H   0  0  0  0  0  0  0  0  0  0  0  0
  -19.9462   15.3005  -19.2518 C   0  0  0  0  0  0  0  0  0  0  0  0
  -19.9772   16.5881  -18.7607 C   0  0  0  0  0  0  0  0  0  0  0  0
  -20.9924   17.4597  -19.0751 C   0  0  0  0  0  0  0  0  0  0  0  0
  -22.0560   17.0907  -19.9143 C   0  0  0  0  0  0  0  0  0  0  0  0
  -21.9937   15.8001  -20.3868 C   0  0  0  0  0  0  0  0  0  0  0  0
  -20.9837   14.9108  -20.0819 C   0  0  0  0  0  0  0  0  0  0  0  0
  -23.0764   18.0229  -20.2278 N   0  0  0  0  0  0  0  0  0  0  0  0
  -24.2244   18.0859  -19.3009 C   0  0  0  0  0  0  0  0  0  0  0  0
  -23.0045   18.8492  -21.3571 C   0  0  0  0  0  0  0  0  0  0  0  0
  -23.9614   19.6338  -21.5566 O   0  0  0  0  0  0  0  0  0  0  0  0
  -21.8705   18.8160  -22.2756 C   0  0  0  0  0  0  0  0  0  0  0  0
  -22.2917   18.5441  -23.6352 N   0  0  0  0  0  0  0  0  0  0  0  0
  -23.4231   17.6817  -23.7460 C   0  0  0  0  0  0  0  0  0  0  0  0
  -23.5368   17.3154  -25.2338 C   0  0  0  0  0  0  0  0  0  0  0  0
  -24.0171   18.5072  -25.9079 N   0  0  0  0  0  0  0  0  0  0  0  0
  -23.4168   18.5732  -27.2038 C   0  0  0  0  0  0  0  0  0  0  0  0
  -23.8251   19.7135  -25.1640 C   0  0  0  0  0  0  0  0  0  0  0  0
  -22.5134   19.7695  -24.4028 C   0  0  0  0  0  0  0  0  0  0  0  0
 19 20  1  0  0  0
 20 17  1  0  0  0
 17 18  2  0  0  0
 17  1  1  0  0  0
  1  2  2  0  0  0
  2  3  1  0  0  0
  3  4  2  0  0  0
  4  5  1  0  0  0
  5  6  2  0  0  0
  6 21  1  0  0  0
 21 23  1  0  0  0
 23 24  2  0  0  0
 24 25  1  0  0  0
 25 26  2  0  0  0
 26 27  1  0  0  0
 27 28  2  0  0  0
 26 29  1  0  0  0
 29 30  1  0  0  0
 29 31  1  0  0  0
 31 32  2  0  0  0
 31 33  1  0  0  0
 33 34  1  0  0  0
 34 35  1  0  0  0
 35 36  1  0  0  0
 36 37  1  0  0  0
 37 38  1  0  0  0
 37 39  1  0  0  0
 39 40  1  0  0  0
  6  7  1  0  0  0
  7  8  2  0  0  0
  7  9  1  0  0  0
  9 10  2  0  0  0
  5 11  1  0  0  0
 11 12  2  0  0  0
 12 13  1  0  0  0
 13 14  2  0  0  0
 14 15  1  0  0  0
 15 16  2  0  0  0
 10  1  1  0  0  0
 16 11  1  0  0  0
  9  4  1  0  0  0
 28 23  1  0  0  0
 40 34  1  0  0  0
 21 22  1  0  0  0
M  END
> <minimizedAffinity>
-9.36440

> <CNNscore>
0.2704228461

> <CNNaffinity>
6.1905364990

> <CNN_VS>
1.6740624905

> <CNNaffinity_variance>
0.1370230168

$$$$
[H]c1c([H])c([H])c(C2=C(N([H])c3c([H])c([H])c(N(C(=O)C([H])([H])N4C([H])([H])C([H])([H])N(C([H])([H])[H])C([H])([H])C4([H])[H])C([H])([H])[H])c([H])c3[H])C(=O)c3c([H])c(C(=O)OC([H])([H])[H])c([H])c([H])c32)c([H])c1[H]


 40 44  0  0  0  0  0  0  0  0999 V2000
  -17.3694   13.4824  -22.9300 C   0  0  0  0  0  0  0  0  0  0  0  0
  -18.1704   14.5905  -22.7900 C   0  0  0  0  0  0  0  0  0  0  0  0
  -18.7283   14.8780  -21.5539 C   0  0  0  0  0  0  0  0  0  0  0  0
  -18.5118   14.0882  -20.4382 C   0  0  0  0  0  0  0  0  0  0  0  0
  -18.9477   14.1290  -19.0374 C   0  0  0  0  0  0  0  0  0  0  0  0
  -18.4651   13.1261  -18.3424 C   0  0  0  0  0  0  0  0  0  0  0  0
  -17.6476   12.3380  -19.2938 C   0  0  0  0  0  0  0  0  0  0  0  0
  -17.0148   11.2931  -19.0130 O   0  0  0  0  0  0  0  0  0  0  0  0
  -17.7060   12.9775  -20.5909 C   0  0  0  0  0  0  0  0  0  0  0  0
  -17.1516   12.6941  -21.8252 C   0  0  0  0  0  0  0  0  0  0  0  0
  -19.8254   15.1720  -18.5238 C   0  0  0  0  0  0  0  0  0  0  0  0
  -21.1953   14.8928  -18.5076 C   0  0  0  0  0  0  0  0  0  0  0  0
  -22.0527   15.8303  -18.0165 C   0  0  0  0  0  0  0  0  0  0  0  0
  -21.5715   17.0500  -17.5381 C   0  0  0  0  0  0  0  0  0  0  0  0
  -20.2352   17.3530  -17.5413 C   0  0  0  0  0  0  0  0  0  0  0  0
  -19.3699   16.3773  -18.0486 C   0  0  0  0  0  0  0  0  0  0  0  0
  -16.7594   13.1477  -24.2057 C   0  0  0  0  0  0  0  0  0  0  0  0
  -17.5057   12.8364  -25.1829 O   0  0  0  0  0  0  0  0  0  0  0  0
  -14.6131   14.3305  -24.3734 C   0  0  0  0  0  0  0  0  0  0  0  0
  -15.4049   13.1416  -24.4412 O   0  0  0  0  0  0  0  0  0  0  0  0
  -18.6450   12.8016  -16.9583 N   0  0  0  0  0  0  0  0  0  0  0  0
  -17.9950   13.2197  -16.2392 H   0  0  0  0  0  0  0  0  0  0  0  0
  -19.6589   11.9409  -16.4881 C   0  0  0  0  0  0  0  0  0  0  0  0
  -19.6064   10.5919  -16.7660 C   0  0  0  0  0  0  0  0  0  0  0  0
  -20.5722    9.7216  -16.3199 C   0  0  0  0  0  0  0  0  0  0  0  0
  -21.6676   10.1547  -15.5556 C   0  0  0  0  0  0  0  0  0  0  0  0
  -21.6888   11.5057  -15.2964 C   0  0  0  0  0  0  0  0  0  0  0  0
  -20.7294   12.3945  -15.7360 C   0  0  0  0  0  0  0  0  0  0  0  0
  -22.6349    9.2243  -15.1007 N   0  0  0  0  0  0  0  0  0  0  0  0
  -24.0087    9.3903  -15.6170 C   0  0  0  0  0  0  0  0  0  0  0  0
  -22.3106    8.1937  -14.2085 C   0  0  0  0  0  0  0  0  0  0  0  0
  -23.2372    7.4272  -13.8549 O   0  0  0  0  0  0  0  0  0  0  0  0
  -20.9558    8.0007  -13.7007 C   0  0  0  0  0  0  0  0  0  0  0  0
  -20.7254    8.7625  -12.4896 N   0  0  0  0  0  0  0  0  0  0  0  0
  -20.8598    8.0144  -11.2820 C   0  0  0  0  0  0  0  0  0  0  0  0
  -20.8412    9.0412  -10.1392 C   0  0  0  0  0  0  0  0  0  0  0  0
  -19.4710    9.5075  -10.0371 N   0  0  0  0  0  0  0  0  0  0  0  0
  -19.4842   10.8901   -9.6728 C   0  0  0  0  0  0  0  0  0  0  0  0
  -18.6859    9.2673  -11.2082 C   0  0  0  0  0  0  0  0  0  0  0  0
  -19.4407    9.4619  -12.5104 C   0  0  0  0  0  0  0  0  0  0  0  0
 19 20  1  0  0  0
 20 17  1  0  0  0
 17 18  2  0  0  0
 17  1  1  0  0  0
  1  2  2  0  0  0
  2  3  1  0  0  0
  3  4  2  0  0  0
  4  5  1  0  0  0
  5  6  2  0  0  0
  6 21  1  0  0  0
 21 23  1  0  0  0
 23 24  2  0  0  0
 24 25  1  0  0  0
 25 26  2  0  0  0
 26 27  1  0  0  0
 27 28  2  0  0  0
 26 29  1  0  0  0
 29 30  1  0  0  0
 29 31  1  0  0  0
 31 32  2  0  0  0
 31 33  1  0  0  0
 33 34  1  0  0  0
 34 35  1  0  0  0
 35 36  1  0  0  0
 36 37  1  0  0  0
 37 38  1  0  0  0
 37 39  1  0  0  0
 39 40  1  0  0  0
  6  7  1  0  0  0
  7  8  2  0  0  0
  7  9  1  0  0  0
  9 10  2  0  0  0
  5 11  1  0  0  0
 11 12  2  0  0  0
 12 13  1  0  0  0
 13 14  2  0  0  0
 14 15  1  0  0  0
 15 16  2  0  0  0
 10  1  1  0  0  0
 16 11  1  0  0  0
  9  4  1  0  0  0
 28 23  1  0  0  0
 40 34  1  0  0  0
 21 22  1  0  0  0
M  END
> <minimizedAffinity>
-8.35387

> <CNNscore>
0.2221967578

> <CNNaffinity>
6.4476966858

> <CNN_VS>
1.4326572418

> <CNNaffinity_variance>
0.2549726367

$$$$
[H]c1c([H])c([H])c(C2=C(N([H])c3c([H])c([H])c(N(C(=O)C([H])([H])N4C([H])([H])C([H])([H])N(C([H])([H])[H])C([H])([H])C4([H])[H])C([H])([H])[H])c([H])c3[H])C(=O)c3c([H])c(C(=O)OC([H])([H])[H])c([H])c([H])c32)c([H])c1[H]


 40 44  0  0  0  0  0  0  0  0999 V2000
  -19.9577    9.1824  -15.7260 C   0  0  0  0  0  0  0  0  0  0  0  0
  -19.1618    8.6161  -16.6928 C   0  0  0  0  0  0  0  0  0  0  0  0
  -18.5993    9.4206  -17.6719 C   0  0  0  0  0  0  0  0  0  0  0  0
  -18.8061   10.7882  -17.7202 C   0  0  0  0  0  0  0  0  0  0  0  0
  -18.3627   11.8744  -18.6019 C   0  0  0  0  0  0  0  0  0  0  0  0
  -18.8401   13.0380  -18.2280 C   0  0  0  0  0  0  0  0  0  0  0  0
  -19.6590   12.7650  -17.0241 C   0  0  0  0  0  0  0  0  0  0  0  0
  -20.2878   13.6259  -16.3648 O   0  0  0  0  0  0  0  0  0  0  0  0
  -19.6078   11.3459  -16.7442 C   0  0  0  0  0  0  0  0  0  0  0  0
  -20.1669   10.5403  -15.7697 C   0  0  0  0  0  0  0  0  0  0  0  0
  -17.5038   11.6412  -19.7552 C   0  0  0  0  0  0  0  0  0  0  0  0
  -16.4543   10.7327  -19.5873 C   0  0  0  0  0  0  0  0  0  0  0  0
  -15.6376   10.4672  -20.6445 C   0  0  0  0  0  0  0  0  0  0  0  0
  -15.8447   11.0924  -21.8751 C   0  0  0  0  0  0  0  0  0  0  0  0
  -16.8637   11.9874  -22.0705 C   0  0  0  0  0  0  0  0  0  0  0  0
  -17.6926   12.2466  -20.9734 C   0  0  0  0  0  0  0  0  0  0  0  0
  -20.5616    8.3773  -14.6779 C   0  0  0  0  0  0  0  0  0  0  0  0
  -21.8169    8.1959  -14.6861 O   0  0  0  0  0  0  0  0  0  0  0  0
  -19.0343    8.5328  -12.7603 C   0  0  0  0  0  0  0  0  0  0  0  0
  -19.8621    7.7836  -13.6540 O   0  0  0  0  0  0  0  0  0  0  0  0
  -18.6501   14.3342  -18.8085 N   0  0  0  0  0  0  0  0  0  0  0  0
  -17.6701   14.6821  -18.9905 H   0  0  0  0  0  0  0  0  0  0  0  0
  -19.7142   15.1910  -19.1598 C   0  0  0  0  0  0  0  0  0  0  0  0
  -20.8120   14.6939  -19.8287 C   0  0  0  0  0  0  0  0  0  0  0  0
  -21.8705   15.4963  -20.1820 C   0  0  0  0  0  0  0  0  0  0  0  0
  -21.8961   16.8679  -19.8825 C   0  0  0  0  0  0  0  0  0  0  0  0
  -20.7859   17.3308  -19.2147 C   0  0  0  0  0  0  0  0  0  0  0  0
  -19.7139   16.5412  -18.8524 C   0  0  0  0  0  0  0  0  0  0  0  0
  -23.0127   17.6595  -20.2498 N   0  0  0  0  0  0  0  0  0  0  0  0
  -24.0116   17.9267  -19.1952 C   0  0  0  0  0  0  0  0  0  0  0  0
  -23.1661   18.1696  -21.5458 C   0  0  0  0  0  0  0  0  0  0  0  0
  -24.1931   18.8496  -21.7777 O   0  0  0  0  0  0  0  0  0  0  0  0
  -22.1819   17.9329  -22.5974 C   0  0  0  0  0  0  0  0  0  0  0  0
  -21.3172   19.0801  -22.7883 N   0  0  0  0  0  0  0  0  0  0  0  0
  -20.0307   18.7725  -23.3232 C   0  0  0  0  0  0  0  0  0  0  0  0
  -19.1977   20.0575  -23.1981 C   0  0  0  0  0  0  0  0  0  0  0  0
  -19.7136   20.9726  -24.1990 N   0  0  0  0  0  0  0  0  0  0  0  0
  -19.6412   22.3039  -23.6825 C   0  0  0  0  0  0  0  0  0  0  0  0
  -21.0264   20.6467  -24.6638 C   0  0  0  0  0  0  0  0  0  0  0  0
  -21.9561   20.1304  -23.5811 C   0  0  0  0  0  0  0  0  0  0  0  0
 19 20  1  0  0  0
 20 17  1  0  0  0
 17 18  2  0  0  0
 17  1  1  0  0  0
  1  2  2  0  0  0
  2  3  1  0  0  0
  3  4  2  0  0  0
  4  5  1  0  0  0
  5  6  2  0  0  0
  6 21  1  0  0  0
 21 23  1  0  0  0
 23 24  2  0  0  0
 24 25  1  0  0  0
 25 26  2  0  0  0
 26 27  1  0  0  0
 27 28  2  0  0  0
 26 29  1  0  0  0
 29 30  1  0  0  0
 29 31  1  0  0  0
 31 32  2  0  0  0
 31 33  1  0  0  0
 33 34  1  0  0  0
 34 35  1  0  0  0
 35 36  1  0  0  0
 36 37  1  0  0  0
 37 38  1  0  0  0
 37 39  1  0  0  0
 39 40  1  0  0  0
  6  7  1  0  0  0
  7  8  2  0  0  0
  7  9  1  0  0  0
  9 10  2  0  0  0
  5 11  1  0  0  0
 11 12  2  0  0  0
 12 13  1  0  0  0
 13 14  2  0  0  0
 14 15  1  0  0  0
 15 16  2  0  0  0
 10  1  1  0  0  0
 16 11  1  0  0  0
  9  4  1  0  0  0
 28 23  1  0  0  0
 40 34  1  0  0  0
 21 22  1  0  0  0
M  END
> <minimizedAffinity>
-8.99320

> <CNNscore>
0.1888951957

> <CNNaffinity>
6.1265163422

> <CNN_VS>
1.1572694778

> <CNNaffinity_variance>
0.2817644477

$$$$
[H]c1c([H])c([H])c(C2=C(N([H])c3c([H])c([H])c(N(C(=O)C([H])([H])N4C([H])([H])C([H])([H])N(C([H])([H])[H])C([H])([H])C4([H])[H])C([H])([H])[H])c([H])c3[H])C(=O)c3c([H])c(C(=O)OC([H])([H])[H])c([H])c([H])c32)c([H])c1[H]


 40 44  0  0  0  0  0  0  0  0999 V2000
  -20.1232    9.2386  -15.6906 C   0  0  0  0  0  0  0  0  0  0  0  0
  -19.3430    8.6249  -16.6412 C   0  0  0  0  0  0  0  0  0  0  0  0
  -18.7108    9.3939  -17.6061 C   0  0  0  0  0  0  0  0  0  0  0  0
  -18.8317   10.7716  -17.6560 C   0  0  0  0  0  0  0  0  0  0  0  0
  -18.3029   11.8290  -18.5258 C   0  0  0  0  0  0  0  0  0  0  0  0
  -18.7156   13.0196  -18.1598 C   0  0  0  0  0  0  0  0  0  0  0  0
  -19.5758   12.7969  -16.9744 C   0  0  0  0  0  0  0  0  0  0  0  0
  -20.1642   13.6945  -16.3271 O   0  0  0  0  0  0  0  0  0  0  0  0
  -19.6183   11.3771  -16.6965 C   0  0  0  0  0  0  0  0  0  0  0  0
  -20.2471   10.6069  -15.7359 C   0  0  0  0  0  0  0  0  0  0  0  0
  -17.4353   11.5440  -19.6607 C   0  0  0  0  0  0  0  0  0  0  0  0
  -17.7213   12.2094  -20.8567 C   0  0  0  0  0  0  0  0  0  0  0  0
  -16.9242   11.9902  -21.9392 C   0  0  0  0  0  0  0  0  0  0  0  0
  -15.8400   11.1150  -21.8559 C   0  0  0  0  0  0  0  0  0  0  0  0
  -15.5347   10.4481  -20.6984 C   0  0  0  0  0  0  0  0  0  0  0  0
  -16.3642   10.6868  -19.5970 C   0  0  0  0  0  0  0  0  0  0  0  0
  -20.7983    8.4716  -14.6574 C   0  0  0  0  0  0  0  0  0  0  0  0
  -20.5760    7.2258  -14.5703 O   0  0  0  0  0  0  0  0  0  0  0  0
  -21.3298    9.2065  -12.3746 C   0  0  0  0  0  0  0  0  0  0  0  0
  -21.6798    9.0033  -13.7462 O   0  0  0  0  0  0  0  0  0  0  0  0
  -18.4333   14.3021  -18.7333 N   0  0  0  0  0  0  0  0  0  0  0  0
  -17.4397   14.6587  -18.7418 H   0  0  0  0  0  0  0  0  0  0  0  0
  -19.4219   15.1337  -19.2999 C   0  0  0  0  0  0  0  0  0  0  0  0
  -20.6149   14.5957  -19.7327 C   0  0  0  0  0  0  0  0  0  0  0  0
  -21.6039   15.3749  -20.2839 C   0  0  0  0  0  0  0  0  0  0  0  0
  -21.4579   16.7629  -20.4381 C   0  0  0  0  0  0  0  0  0  0  0  0
  -20.2565   17.2666  -19.9958 C   0  0  0  0  0  0  0  0  0  0  0  0
  -19.2520   16.5007  -19.4407 C   0  0  0  0  0  0  0  0  0  0  0  0
  -22.5068   17.5348  -20.9969 N   0  0  0  0  0  0  0  0  0  0  0  0
  -22.4066   17.8454  -22.4373 C   0  0  0  0  0  0  0  0  0  0  0  0
  -23.5898   17.9814  -20.2281 C   0  0  0  0  0  0  0  0  0  0  0  0
  -24.4627   18.6677  -20.8094 O   0  0  0  0  0  0  0  0  0  0  0  0
  -23.7174   17.6701  -18.8077 C   0  0  0  0  0  0  0  0  0  0  0  0
  -23.0502   18.6568  -17.9822 N   0  0  0  0  0  0  0  0  0  0  0  0
  -23.9129   19.6471  -17.4247 C   0  0  0  0  0  0  0  0  0  0  0  0
  -22.9956   20.7221  -16.8217 C   0  0  0  0  0  0  0  0  0  0  0  0
  -22.4193   20.1370  -15.6255 N   0  0  0  0  0  0  0  0  0  0  0  0
  -21.0819   20.6207  -15.4781 C   0  0  0  0  0  0  0  0  0  0  0  0
  -22.4818   18.7086  -15.5884 C   0  0  0  0  0  0  0  0  0  0  0  0
  -22.2393   18.0431  -16.9306 C   0  0  0  0  0  0  0  0  0  0  0  0
 19 20  1  0  0  0
 20 17  1  0  0  0
 17 18  2  0  0  0
 17  1  1  0  0  0
  1  2  2  0  0  0
  2  3  1  0  0  0
  3  4  2  0  0  0
  4  5  1  0  0  0
  5  6  2  0  0  0
  6 21  1  0  0  0
 21 23  1  0  0  0
 23 24  2  0  0  0
 24 25  1  0  0  0
 25 26  2  0  0  0
 26 27  1  0  0  0
 27 28  2  0  0  0
 26 29  1  0  0  0
 29 30  1  0  0  0
 29 31  1  0  0  0
 31 32  2  0  0  0
 31 33  1  0  0  0
 33 34  1  0  0  0
 34 35  1  0  0  0
 35 36  1  0  0  0
 36 37  1  0  0  0
 37 38  1  0  0  0
 37 39  1  0  0  0
 39 40  1  0  0  0
  6  7  1  0  0  0
  7  8  2  0  0  0
  7  9  1  0  0  0
  9 10  2  0  0  0
  5 11  1  0  0  0
 11 12  2  0  0  0
 12 13  1  0  0  0
 13 14  2  0  0  0
 14 15  1  0  0  0
 15 16  2  0  0  0
 10  1  1  0  0  0
 16 11  1  0  0  0
  9  4  1  0  0  0
 28 23  1  0  0  0
 40 34  1  0  0  0
 21 22  1  0  0  0
M  END
> <minimizedAffinity>
-8.14330

> <CNNscore>
0.1831653118

> <CNNaffinity>
5.9188456535

> <CNN_VS>
1.0841271877

> <CNNaffinity_variance>
0.3686658740

$$$$
[H]c1c([H])c([H])c(C2=C(N([H])c3c([H])c([H])c(N(C(=O)C([H])([H])N4C([H])([H])C([H])([H])N(C([H])([H])[H])C([H])([H])C4([H])[H])C([H])([H])[H])c([H])c3[H])C(=O)c3c([H])c(C(=O)OC([H])([H])[H])c([H])c([H])c32)c([H])c1[H]


 40 44  0  0  0  0  0  0  0  0999 V2000
  -19.6961    9.0353  -15.7390 C   0  0  0  0  0  0  0  0  0  0  0  0
  -18.7525    8.5944  -16.6357 C   0  0  0  0  0  0  0  0  0  0  0  0
  -18.3507    9.4269  -17.6690 C   0  0  0  0  0  0  0  0  0  0  0  0
  -18.8644   10.7005  -17.8406 C   0  0  0  0  0  0  0  0  0  0  0  0
  -18.6471   11.7861  -18.8041 C   0  0  0  0  0  0  0  0  0  0  0  0
  -19.3943   12.8327  -18.5432 C   0  0  0  0  0  0  0  0  0  0  0  0
  -20.1769   12.4736  -17.3376 C   0  0  0  0  0  0  0  0  0  0  0  0
  -21.0132   13.2145  -16.7693 O   0  0  0  0  0  0  0  0  0  0  0  0
  -19.8120   11.1324  -16.9342 C   0  0  0  0  0  0  0  0  0  0  0  0
  -20.2101   10.2993  -15.9052 C   0  0  0  0  0  0  0  0  0  0  0  0
  -17.7113   11.6678  -19.9142 C   0  0  0  0  0  0  0  0  0  0  0  0
  -16.6654   10.7523  -19.7633 C   0  0  0  0  0  0  0  0  0  0  0  0
  -15.7776   10.5925  -20.7839 C   0  0  0  0  0  0  0  0  0  0  0  0
  -15.9096   11.3313  -21.9607 C   0  0  0  0  0  0  0  0  0  0  0  0
  -16.9233   12.2361  -22.1382 C   0  0  0  0  0  0  0  0  0  0  0  0
  -17.8258   12.3857  -21.0793 C   0  0  0  0  0  0  0  0  0  0  0  0
  -20.1408    8.1981  -14.6377 C   0  0  0  0  0  0  0  0  0  0  0  0
  -20.3796    8.7344  -13.5133 O   0  0  0  0  0  0  0  0  0  0  0  0
  -21.4348    6.2612  -15.4172 C   0  0  0  0  0  0  0  0  0  0  0  0
  -20.3268    6.8385  -14.7215 O   0  0  0  0  0  0  0  0  0  0  0  0
  -19.4841   14.0869  -19.2302 N   0  0  0  0  0  0  0  0  0  0  0  0
  -19.4042   14.1083  -20.2826 H   0  0  0  0  0  0  0  0  0  0  0  0
  -19.6777   15.3200  -18.5729 C   0  0  0  0  0  0  0  0  0  0  0  0
  -18.6885   15.8366  -17.7639 C   0  0  0  0  0  0  0  0  0  0  0  0
  -18.8382   17.0375  -17.1124 C   0  0  0  0  0  0  0  0  0  0  0  0
  -20.0059   17.8081  -17.2325 C   0  0  0  0  0  0  0  0  0  0  0  0
  -20.9718   17.2639  -18.0470 C   0  0  0  0  0  0  0  0  0  0  0  0
  -20.8401   16.0601  -18.7084 C   0  0  0  0  0  0  0  0  0  0  0  0
  -20.1166   19.0491  -16.5571 N   0  0  0  0  0  0  0  0  0  0  0  0
  -19.9808   20.2670  -17.3815 C   0  0  0  0  0  0  0  0  0  0  0  0
  -20.3469   19.1244  -15.1771 C   0  0  0  0  0  0  0  0  0  0  0  0
  -20.4183   20.2676  -14.6682 O   0  0  0  0  0  0  0  0  0  0  0  0
  -20.5025   17.9336  -14.3473 C   0  0  0  0  0  0  0  0  0  0  0  0
  -21.8944   17.5530  -14.2142 N   0  0  0  0  0  0  0  0  0  0  0  0
  -22.8142   18.4226  -14.8728 C   0  0  0  0  0  0  0  0  0  0  0  0
  -24.2136   18.0046  -14.3956 C   0  0  0  0  0  0  0  0  0  0  0  0
  -24.5004   16.7388  -15.0443 N   0  0  0  0  0  0  0  0  0  0  0  0
  -25.2643   15.9280  -14.1480 C   0  0  0  0  0  0  0  0  0  0  0  0
  -23.3401   16.0576  -15.5295 C   0  0  0  0  0  0  0  0  0  0  0  0
  -22.1315   16.1672  -14.6182 C   0  0  0  0  0  0  0  0  0  0  0  0
 19 20  1  0  0  0
 20 17  1  0  0  0
 17 18  2  0  0  0
 17  1  1  0  0  0
  1  2  2  0  0  0
  2  3  1  0  0  0
  3  4  2  0  0  0
  4  5  1  0  0  0
  5  6  2  0  0  0
  6 21  1  0  0  0
 21 23  1  0  0  0
 23 24  2  0  0  0
 24 25  1  0  0  0
 25 26  2  0  0  0
 26 27  1  0  0  0
 27 28  2  0  0  0
 26 29  1  0  0  0
 29 30  1  0  0  0
 29 31  1  0  0  0
 31 32  2  0  0  0
 31 33  1  0  0  0
 33 34  1  0  0  0
 34 35  1  0  0  0
 35 36  1  0  0  0
 36 37  1  0  0  0
 37 38  1  0  0  0
 37 39  1  0  0  0
 39 40  1  0  0  0
  6  7  1  0  0  0
  7  8  2  0  0  0
  7  9  1  0  0  0
  9 10  2  0  0  0
  5 11  1  0  0  0
 11 12  2  0  0  0
 12 13  1  0  0  0
 13 14  2  0  0  0
 14 15  1  0  0  0
 15 16  2  0  0  0
 10  1  1  0  0  0
 16 11  1  0  0  0
  9  4  1  0  0  0
 28 23  1  0  0  0
 40 34  1  0  0  0
 21 22  1  0  0  0
M  END
> <minimizedAffinity>
-8.23213

> <CNNscore>
0.1783712655

> <CNNaffinity>
5.9880032539

> <CNN_VS>
1.0680876970

> <CNNaffinity_variance>
0.3547085822

$$$$
[H]c1c([H])c([H])c(C2=C(N([H])c3c([H])c([H])c(N(C(=O)C([H])([H])N4C([H])([H])C([H])([H])N(C([H])([H])[H])C([H])([H])C4([H])[H])C([H])([H])[H])c([H])c3[H])C(=O)c3c([H])c(C(=O)OC([H])([H])[H])c([H])c([H])c32)c([H])c1[H]


 40 44  0  0  0  0  0  0  0  0999 V2000
  -20.4359    8.7280  -15.8769 C   0  0  0  0  0  0  0  0  0  0  0  0
  -21.1647    9.8633  -15.6144 C   0  0  0  0  0  0  0  0  0  0  0  0
  -20.8117   11.0576  -16.2237 C   0  0  0  0  0  0  0  0  0  0  0  0
  -19.7432   11.1595  -17.0973 C   0  0  0  0  0  0  0  0  0  0  0  0
  -19.1396   12.2471  -17.8763 C   0  0  0  0  0  0  0  0  0  0  0  0
  -18.1081   11.8376  -18.5763 C   0  0  0  0  0  0  0  0  0  0  0  0
  -17.9745   10.3919  -18.2815 C   0  0  0  0  0  0  0  0  0  0  0  0
  -17.1002    9.6324  -18.7609 O   0  0  0  0  0  0  0  0  0  0  0  0
  -19.0181   10.0128  -17.3531 C   0  0  0  0  0  0  0  0  0  0  0  0
  -19.3731    8.8239  -16.7434 C   0  0  0  0  0  0  0  0  0  0  0  0
  -19.6500   13.6110  -17.8368 C   0  0  0  0  0  0  0  0  0  0  0  0
  -20.7312   13.9049  -18.6732 C   0  0  0  0  0  0  0  0  0  0  0  0
  -21.2554   15.1619  -18.6547 C   0  0  0  0  0  0  0  0  0  0  0  0
  -20.7214   16.1406  -17.8150 C   0  0  0  0  0  0  0  0  0  0  0  0
  -19.6622   15.8834  -16.9847 C   0  0  0  0  0  0  0  0  0  0  0  0
  -19.1378   14.5865  -17.0169 C   0  0  0  0  0  0  0  0  0  0  0  0
  -20.7751    7.4544  -15.2651 C   0  0  0  0  0  0  0  0  0  0  0  0
  -20.9066    6.4316  -16.0035 O   0  0  0  0  0  0  0  0  0  0  0  0
  -19.9871    7.6375  -12.9457 C   0  0  0  0  0  0  0  0  0  0  0  0
  -20.9694    7.2676  -13.9170 O   0  0  0  0  0  0  0  0  0  0  0  0
  -17.2512   12.5727  -19.4587 N   0  0  0  0  0  0  0  0  0  0  0  0
  -16.2554   12.2521  -19.6005 H   0  0  0  0  0  0  0  0  0  0  0  0
  -17.6657   13.7214  -20.1648 C   0  0  0  0  0  0  0  0  0  0  0  0
  -18.4133   13.5948  -21.3159 C   0  0  0  0  0  0  0  0  0  0  0  0
  -18.8404   14.6906  -22.0271 C   0  0  0  0  0  0  0  0  0  0  0  0
  -18.5411   16.0018  -21.6236 C   0  0  0  0  0  0  0  0  0  0  0  0
  -17.7945   16.0919  -20.4716 C   0  0  0  0  0  0  0  0  0  0  0  0
  -17.3563   15.0041  -19.7448 C   0  0  0  0  0  0  0  0  0  0  0  0
  -19.0128   17.1068  -22.3753 N   0  0  0  0  0  0  0  0  0  0  0  0
  -20.4387   17.4570  -22.2158 C   0  0  0  0  0  0  0  0  0  0  0  0
  -18.1731   17.8373  -23.2265 C   0  0  0  0  0  0  0  0  0  0  0  0
  -18.6850   18.7911  -23.8584 O   0  0  0  0  0  0  0  0  0  0  0  0
  -16.7573   17.5196  -23.3846 C   0  0  0  0  0  0  0  0  0  0  0  0
  -16.4869   16.9082  -24.6704 N   0  0  0  0  0  0  0  0  0  0  0  0
  -15.1784   16.3549  -24.8023 C   0  0  0  0  0  0  0  0  0  0  0  0
  -15.0100   16.0063  -26.2892 C   0  0  0  0  0  0  0  0  0  0  0  0
  -15.8402   14.8403  -26.5275 N   0  0  0  0  0  0  0  0  0  0  0  0
  -16.3879   14.9301  -27.8451 C   0  0  0  0  0  0  0  0  0  0  0  0
  -16.8516   14.6342  -25.5375 C   0  0  0  0  0  0  0  0  0  0  0  0
  -17.4955   15.9131  -25.0344 C   0  0  0  0  0  0  0  0  0  0  0  0
 19 20  1  0  0  0
 20 17  1  0  0  0
 17 18  2  0  0  0
 17  1  1  0  0  0
  1  2  2  0  0  0
  2  3  1  0  0  0
  3  4  2  0  0  0
  4  5  1  0  0  0
  5  6  2  0  0  0
  6 21  1  0  0  0
 21 23  1  0  0  0
 23 24  2  0  0  0
 24 25  1  0  0  0
 25 26  2  0  0  0
 26 27  1  0  0  0
 27 28  2  0  0  0
 26 29  1  0  0  0
 29 30  1  0  0  0
 29 31  1  0  0  0
 31 32  2  0  0  0
 31 33  1  0  0  0
 33 34  1  0  0  0
 34 35  1  0  0  0
 35 36  1  0  0  0
 36 37  1  0  0  0
 37 38  1  0  0  0
 37 39  1  0  0  0
 39 40  1  0  0  0
  6  7  1  0  0  0
  7  8  2  0  0  0
  7  9  1  0  0  0
  9 10  2  0  0  0
  5 11  1  0  0  0
 11 12  2  0  0  0
 12 13  1  0  0  0
 13 14  2  0  0  0
 14 15  1  0  0  0
 15 16  2  0  0  0
 10  1  1  0  0  0
 16 11  1  0  0  0
  9  4  1  0  0  0
 28 23  1  0  0  0
 40 34  1  0  0  0
 21 22  1  0  0  0
M  END
> <minimizedAffinity>
-8.67232

> <CNNscore>
0.1688866019

> <CNNaffinity>
6.8021407127

> <CNN_VS>
1.1487904787

> <CNNaffinity_variance>
0.1703675091

$$$$
[H]c1c([H])c([H])c(C2=C(N([H])c3c([H])c([H])c(N(C(=O)C([H])([H])N4C([H])([H])C([H])([H])N(C([H])([H])[H])C([H])([H])C4([H])[H])C([H])([H])[H])c([H])c3[H])C(=O)c3c([H])c(C(=O)OC([H])([H])[H])c([H])c([H])c32)c([H])c1[H]


 40 44  0  0  0  0  0  0  0  0999 V2000
  -20.2400    9.1806  -15.6171 C   0  0  0  0  0  0  0  0  0  0  0  0
  -19.4154    8.6152  -16.5602 C   0  0  0  0  0  0  0  0  0  0  0  0
  -18.8364    9.4183  -17.5307 C   0  0  0  0  0  0  0  0  0  0  0  0
  -19.0544   10.7836  -17.5936 C   0  0  0  0  0  0  0  0  0  0  0  0
  -18.5993   11.8679  -18.4717 C   0  0  0  0  0  0  0  0  0  0  0  0
  -19.0963   13.0295  -18.1177 C   0  0  0  0  0  0  0  0  0  0  0  0
  -19.9421   12.7570  -16.9323 C   0  0  0  0  0  0  0  0  0  0  0  0
  -20.5946   13.6165  -16.2946 O   0  0  0  0  0  0  0  0  0  0  0  0
  -19.8848   11.3404  -16.6414 C   0  0  0  0  0  0  0  0  0  0  0  0
  -20.4604   10.5362  -15.6753 C   0  0  0  0  0  0  0  0  0  0  0  0
  -17.7103   11.6349  -19.6019 C   0  0  0  0  0  0  0  0  0  0  0  0
  -18.0754   12.2125  -20.8218 C   0  0  0  0  0  0  0  0  0  0  0  0
  -17.2636   12.0390  -21.9017 C   0  0  0  0  0  0  0  0  0  0  0  0
  -16.0870   11.2962  -21.7923 C   0  0  0  0  0  0  0  0  0  0  0  0
  -15.7027   10.7176  -20.6112 C   0  0  0  0  0  0  0  0  0  0  0  0
  -16.5487   10.9076  -19.5129 C   0  0  0  0  0  0  0  0  0  0  0  0
  -20.8621    8.3770  -14.5785 C   0  0  0  0  0  0  0  0  0  0  0  0
  -20.5763    8.6100  -13.3649 O   0  0  0  0  0  0  0  0  0  0  0  0
  -22.1965    6.4753  -13.7805 C   0  0  0  0  0  0  0  0  0  0  0  0
  -21.7565    7.3600  -14.8144 O   0  0  0  0  0  0  0  0  0  0  0  0
  -18.9039   14.3235  -18.7023 N   0  0  0  0  0  0  0  0  0  0  0  0
  -17.9606   14.5760  -19.1033 H   0  0  0  0  0  0  0  0  0  0  0  0
  -19.9190   15.3002  -18.7772 C   0  0  0  0  0  0  0  0  0  0  0  0
  -19.9727   16.3163  -17.8474 C   0  0  0  0  0  0  0  0  0  0  0  0
  -20.9426   17.2890  -17.8916 C   0  0  0  0  0  0  0  0  0  0  0  0
  -21.9345   17.3054  -18.8854 C   0  0  0  0  0  0  0  0  0  0  0  0
  -21.8514   16.2782  -19.7968 C   0  0  0  0  0  0  0  0  0  0  0  0
  -20.8860   15.2928  -19.7683 C   0  0  0  0  0  0  0  0  0  0  0  0
  -22.9088   18.3343  -18.9067 N   0  0  0  0  0  0  0  0  0  0  0  0
  -24.3193   17.9144  -18.7821 C   0  0  0  0  0  0  0  0  0  0  0  0
  -22.5585   19.6849  -19.0355 C   0  0  0  0  0  0  0  0  0  0  0  0
  -23.4921   20.5210  -19.0555 O   0  0  0  0  0  0  0  0  0  0  0  0
  -21.1701   20.1226  -19.1413 C   0  0  0  0  0  0  0  0  0  0  0  0
  -20.8344   20.5128  -20.4960 N   0  0  0  0  0  0  0  0  0  0  0  0
  -20.3487   21.8480  -20.6272 C   0  0  0  0  0  0  0  0  0  0  0  0
  -20.3082   22.1416  -22.1348 C   0  0  0  0  0  0  0  0  0  0  0  0
  -19.1947   21.3776  -22.6655 N   0  0  0  0  0  0  0  0  0  0  0  0
  -19.5334   20.9278  -23.9798 C   0  0  0  0  0  0  0  0  0  0  0  0
  -18.7717   20.3030  -21.8217 C   0  0  0  0  0  0  0  0  0  0  0  0
  -19.9092   19.5740  -21.1304 C   0  0  0  0  0  0  0  0  0  0  0  0
 19 20  1  0  0  0
 20 17  1  0  0  0
 17 18  2  0  0  0
 17  1  1  0  0  0
  1  2  2  0  0  0
  2  3  1  0  0  0
  3  4  2  0  0  0
  4  5  1  0  0  0
  5  6  2  0  0  0
  6 21  1  0  0  0
 21 23  1  0  0  0
 23 24  2  0  0  0
 24 25  1  0  0  0
 25 26  2  0  0  0
 26 27  1  0  0  0
 27 28  2  0  0  0
 26 29  1  0  0  0
 29 30  1  0  0  0
 29 31  1  0  0  0
 31 32  2  0  0  0
 31 33  1  0  0  0
 33 34  1  0  0  0
 34 35  1  0  0  0
 35 36  1  0  0  0
 36 37  1  0  0  0
 37 38  1  0  0  0
 37 39  1  0  0  0
 39 40  1  0  0  0
  6  7  1  0  0  0
  7  8  2  0  0  0
  7  9  1  0  0  0
  9 10  2  0  0  0
  5 11  1  0  0  0
 11 12  2  0  0  0
 12 13  1  0  0  0
 13 14  2  0  0  0
 14 15  1  0  0  0
 15 16  2  0  0  0
 10  1  1  0  0  0
 16 11  1  0  0  0
  9  4  1  0  0  0
 28 23  1  0  0  0
 40 34  1  0  0  0
 21 22  1  0  0  0
M  END
> <minimizedAffinity>
-8.01124

> <CNNscore>
0.1666318029

> <CNNaffinity>
6.1123495102

> <CNN_VS>
1.0185117722

> <CNNaffinity_variance>
0.2031697333

$$$$
[H]c1c([H])c([N+](=O)[O-])c([H])c(C([H])([H])Oc2c([H])c([H])c3c(c2[H])C([H])([H])C([H])([H])N3S(=O)(=O)C([H])([H])[H])c1[H]


 24 26  0  0  0  0  0  0  0  0999 V2000
  -18.3850   12.0293  -19.1482 N   0  0  0  0  0  0  0  0  0  0  0  0
  -19.4628   12.4723  -18.2736 C   0  0  0  0  0  0  0  0  0  0  0  0
  -19.5289   13.9371  -18.5684 C   0  0  0  0  0  0  0  0  0  0  0  0
  -18.9802   14.0443  -19.9357 C   0  0  0  0  0  0  0  0  0  0  0  0
  -19.0601   15.0726  -20.8486 C   0  0  0  0  0  0  0  0  0  0  0  0
  -18.4539   14.9435  -22.0956 C   0  0  0  0  0  0  0  0  0  0  0  0
  -17.7771   13.7820  -22.4034 C   0  0  0  0  0  0  0  0  0  0  0  0
  -17.6794   12.7252  -21.5008 C   0  0  0  0  0  0  0  0  0  0  0  0
  -18.2898   12.8810  -20.2729 C   0  0  0  0  0  0  0  0  0  0  0  0
  -18.1462    9.5463  -17.6814 C   0  0  0  0  0  0  0  0  0  0  0  0
  -17.4020   10.6763  -18.8298 S   0  0  0  0  0  0  0  0  0  0  0  0
  -16.0397   11.0219  -18.3705 O   0  0  0  0  0  0  0  0  0  0  0  0
  -17.2511    9.9134  -20.1377 O   0  0  0  0  0  0  0  0  0  0  0  0
  -18.5474   15.9903  -22.9970 O   0  0  0  0  0  0  0  0  0  0  0  0
  -17.4579   16.8441  -23.2792 C   0  0  0  0  0  0  0  0  0  0  0  0
  -16.4696   16.1802  -24.1675 C   0  0  0  0  0  0  0  0  0  0  0  0
  -15.1951   15.8737  -23.7442 C   0  0  0  0  0  0  0  0  0  0  0  0
  -14.2941   15.2620  -24.5724 C   0  0  0  0  0  0  0  0  0  0  0  0
  -14.6843   14.9510  -25.8568 C   0  0  0  0  0  0  0  0  0  0  0  0
  -15.9504   15.2439  -26.3101 C   0  0  0  0  0  0  0  0  0  0  0  0
  -16.8354   15.8534  -25.4718 C   0  0  0  0  0  0  0  0  0  0  0  0
  -16.3091   14.9062  -27.6386 N   0  0  0  0  0  0  0  0  0  0  0  0
  -16.0629   15.8081  -28.6647 O   0  0  0  0  0  0  0  0  0  0  0  0
  -16.8398   13.8234  -27.9171 O   0  0  0  0  0  0  0  0  0  0  0  0
 10 11  1  0  0  0
 11 12  2  0  0  0
 11 13  2  0  0  0
 11  1  1  0  0  0
  1  2  1  0  0  0
  2  3  1  0  0  0
  3  4  1  0  0  0
  4  5  2  0  0  0
  5  6  1  0  0  0
  6 14  1  0  0  0
 14 15  1  0  0  0
 15 16  1  0  0  0
 16 17  2  0  0  0
 17 18  1  0  0  0
 18 19  2  0  0  0
 19 20  1  0  0  0
 20 21  2  0  0  0
 20 22  1  0  0  0
 22 23  1  0  0  0
 22 24  2  0  0  0
  6  7  2  0  0  0
  7  8  1  0  0  0
  8  9  2  0  0  0
  9  1  1  0  0  0
  9  4  1  0  0  0
 21 16  1  0  0  0
M  CHG 1  22   1
M  CHG 1  23  -1
M  END
> <minimizedAffinity>
-7.54280

> <CNNscore>
0.4514148533

> <CNNaffinity>
6.1185412407

> <CNN_VS>
2.7620003223

> <CNNaffinity_variance>
0.1134718508

$$$$
[H]c1c([H])c([N+](=O)[O-])c([H])c(C([H])([H])Oc2c([H])c([H])c3c(c2[H])C([H])([H])C([H])([H])N3S(=O)(=O)C([H])([H])[H])c1[H]


 24 26  0  0  0  0  0  0  0  0999 V2000
  -19.0763   10.4787  -17.3856 N   0  0  0  0  0  0  0  0  0  0  0  0
  -19.9377   11.6446  -17.2391 C   0  0  0  0  0  0  0  0  0  0  0  0
  -19.1509   12.7099  -17.9340 C   0  0  0  0  0  0  0  0  0  0  0  0
  -18.3108   11.9584  -18.8888 C   0  0  0  0  0  0  0  0  0  0  0  0
  -17.6120   12.3933  -19.9931 C   0  0  0  0  0  0  0  0  0  0  0  0
  -16.8786   11.4857  -20.7531 C   0  0  0  0  0  0  0  0  0  0  0  0
  -16.8603   10.1556  -20.3894 C   0  0  0  0  0  0  0  0  0  0  0  0
  -17.5570    9.6864  -19.2779 C   0  0  0  0  0  0  0  0  0  0  0  0
  -18.2751   10.6081  -18.5436 C   0  0  0  0  0  0  0  0  0  0  0  0
  -19.8819    9.5404  -14.7694 C   0  0  0  0  0  0  0  0  0  0  0  0
  -19.0630    9.1680  -16.2993 S   0  0  0  0  0  0  0  0  0  0  0  0
  -17.7117    8.6369  -16.0199 O   0  0  0  0  0  0  0  0  0  0  0  0
  -19.8596    8.0429  -16.9435 O   0  0  0  0  0  0  0  0  0  0  0  0
  -16.1840   11.9460  -21.8590 O   0  0  0  0  0  0  0  0  0  0  0  0
  -16.8365   12.4750  -22.9947 C   0  0  0  0  0  0  0  0  0  0  0  0
  -16.2497   13.7801  -23.3936 C   0  0  0  0  0  0  0  0  0  0  0  0
  -15.0142   13.8735  -23.9957 C   0  0  0  0  0  0  0  0  0  0  0  0
  -14.4849   15.0818  -24.3584 C   0  0  0  0  0  0  0  0  0  0  0  0
  -15.2155   16.2234  -24.1098 C   0  0  0  0  0  0  0  0  0  0  0  0
  -16.4528   16.1638  -23.5100 C   0  0  0  0  0  0  0  0  0  0  0  0
  -16.9652   14.9518  -23.1552 C   0  0  0  0  0  0  0  0  0  0  0  0
  -17.1696   17.3629  -23.2733 N   0  0  0  0  0  0  0  0  0  0  0  0
  -17.1198   17.9541  -22.0183 O   0  0  0  0  0  0  0  0  0  0  0  0
  -17.8451   17.9058  -24.1568 O   0  0  0  0  0  0  0  0  0  0  0  0
 10 11  1  0  0  0
 11 12  2  0  0  0
 11 13  2  0  0  0
 11  1  1  0  0  0
  1  2  1  0  0  0
  2  3  1  0  0  0
  3  4  1  0  0  0
  4  5  2  0  0  0
  5  6  1  0  0  0
  6 14  1  0  0  0
 14 15  1  0  0  0
 15 16  1  0  0  0
 16 17  2  0  0  0
 17 18  1  0  0  0
 18 19  2  0  0  0
 19 20  1  0  0  0
 20 21  2  0  0  0
 20 22  1  0  0  0
 22 23  1  0  0  0
 22 24  2  0  0  0
  6  7  2  0  0  0
  7  8  1  0  0  0
  8  9  2  0  0  0
  9  1  1  0  0  0
  9  4  1  0  0  0
 21 16  1  0  0  0
M  CHG 1  22   1
M  CHG 1  23  -1
M  END
> <minimizedAffinity>
-7.20743

> <CNNscore>
0.3664388955

> <CNNaffinity>
5.6514921188

> <CNN_VS>
2.0709264278

> <CNNaffinity_variance>
0.1597073227

$$$$
[H]c1c([H])c([N+](=O)[O-])c([H])c(C([H])([H])Oc2c([H])c([H])c3c(c2[H])C([H])([H])C([H])([H])N3S(=O)(=O)C([H])([H])[H])c1[H]


 24 26  0  0  0  0  0  0  0  0999 V2000
  -17.3199   16.6636  -22.2910 N   0  0  0  0  0  0  0  0  0  0  0  0
  -16.1167   17.1771  -21.6495 C   0  0  0  0  0  0  0  0  0  0  0  0
  -16.5542   17.3254  -20.2269 C   0  0  0  0  0  0  0  0  0  0  0  0
  -17.6533   16.3473  -20.0947 C   0  0  0  0  0  0  0  0  0  0  0  0
  -18.2404   15.8152  -18.9681 C   0  0  0  0  0  0  0  0  0  0  0  0
  -19.2776   14.8945  -19.0938 C   0  0  0  0  0  0  0  0  0  0  0  0
  -19.7069   14.5244  -20.3510 C   0  0  0  0  0  0  0  0  0  0  0  0
  -19.1326   15.0455  -21.5084 C   0  0  0  0  0  0  0  0  0  0  0  0
  -18.1069   15.9557  -21.3535 C   0  0  0  0  0  0  0  0  0  0  0  0
  -17.6299   15.3968  -24.8741 C   0  0  0  0  0  0  0  0  0  0  0  0
  -17.6919   16.9015  -23.9351 S   0  0  0  0  0  0  0  0  0  0  0  0
  -16.8585   17.9298  -24.5940 O   0  0  0  0  0  0  0  0  0  0  0  0
  -19.1331   17.3849  -24.0039 O   0  0  0  0  0  0  0  0  0  0  0  0
  -19.8525   14.3732  -17.9472 O   0  0  0  0  0  0  0  0  0  0  0  0
  -19.1061   13.6531  -16.9880 C   0  0  0  0  0  0  0  0  0  0  0  0
  -18.7917   12.2830  -17.4682 C   0  0  0  0  0  0  0  0  0  0  0  0
  -19.3224   11.1594  -16.8739 C   0  0  0  0  0  0  0  0  0  0  0  0
  -19.0249    9.9029  -17.3259 C   0  0  0  0  0  0  0  0  0  0  0  0
  -18.1732    9.7733  -18.4014 C   0  0  0  0  0  0  0  0  0  0  0  0
  -17.6265   10.8760  -19.0173 C   0  0  0  0  0  0  0  0  0  0  0  0
  -17.9336   12.1204  -18.5541 C   0  0  0  0  0  0  0  0  0  0  0  0
  -16.7555   10.6963  -20.1203 N   0  0  0  0  0  0  0  0  0  0  0  0
  -15.8778    9.6209  -20.1317 O   0  0  0  0  0  0  0  0  0  0  0  0
  -16.7513   11.4738  -21.0832 O   0  0  0  0  0  0  0  0  0  0  0  0
 10 11  1  0  0  0
 11 12  2  0  0  0
 11 13  2  0  0  0
 11  1  1  0  0  0
  1  2  1  0  0  0
  2  3  1  0  0  0
  3  4  1  0  0  0
  4  5  2  0  0  0
  5  6  1  0  0  0
  6 14  1  0  0  0
 14 15  1  0  0  0
 15 16  1  0  0  0
 16 17  2  0  0  0
 17 18  1  0  0  0
 18 19  2  0  0  0
 19 20  1  0  0  0
 20 21  2  0  0  0
 20 22  1  0  0  0
 22 23  1  0  0  0
 22 24  2  0  0  0
  6  7  2  0  0  0
  7  8  1  0  0  0
  8  9  2  0  0  0
  9  1  1  0  0  0
  9  4  1  0  0  0
 21 16  1  0  0  0
M  CHG 1  22   1
M  CHG 1  23  -1
M  END
> <minimizedAffinity>
-7.07421

> <CNNscore>
0.3227714300

> <CNNaffinity>
5.6814298630

> <CNN_VS>
1.8338032961

> <CNNaffinity_variance>
0.3407784104

$$$$
[H]c1c([H])c([N+](=O)[O-])c([H])c(C([H])([H])Oc2c([H])c([H])c3c(c2[H])C([H])([H])C([H])([H])N3S(=O)(=O)C([H])([H])[H])c1[H]


 24 26  0  0  0  0  0  0  0  0999 V2000
  -17.2754   15.3356  -23.7172 N   0  0  0  0  0  0  0  0  0  0  0  0
  -16.6124   14.6777  -24.8354 C   0  0  0  0  0  0  0  0  0  0  0  0
  -15.9578   13.5076  -24.1724 C   0  0  0  0  0  0  0  0  0  0  0  0
  -16.7871   13.2761  -22.9720 C   0  0  0  0  0  0  0  0  0  0  0  0
  -16.8677   12.1782  -22.1442 C   0  0  0  0  0  0  0  0  0  0  0  0
  -17.7361   12.1909  -21.0558 C   0  0  0  0  0  0  0  0  0  0  0  0
  -18.5091   13.3079  -20.8181 C   0  0  0  0  0  0  0  0  0  0  0  0
  -18.4492   14.4330  -21.6377 C   0  0  0  0  0  0  0  0  0  0  0  0
  -17.5799   14.3923  -22.7087 C   0  0  0  0  0  0  0  0  0  0  0  0
  -19.3562   17.3393  -23.5467 C   0  0  0  0  0  0  0  0  0  0  0  0
  -17.6178   17.0024  -23.6664 S   0  0  0  0  0  0  0  0  0  0  0  0
  -17.0432   17.7653  -24.7951 O   0  0  0  0  0  0  0  0  0  0  0  0
  -16.9911   17.5509  -22.3929 O   0  0  0  0  0  0  0  0  0  0  0  0
  -17.8001   11.0757  -20.2375 O   0  0  0  0  0  0  0  0  0  0  0  0
  -17.3413   11.0916  -18.9015 C   0  0  0  0  0  0  0  0  0  0  0  0
  -18.4609   10.8945  -17.9453 C   0  0  0  0  0  0  0  0  0  0  0  0
  -19.3825   11.8842  -17.6835 C   0  0  0  0  0  0  0  0  0  0  0  0
  -20.4093   11.6899  -16.8005 C   0  0  0  0  0  0  0  0  0  0  0  0
  -20.5117   10.4711  -16.1657 C   0  0  0  0  0  0  0  0  0  0  0  0
  -19.6071    9.4620  -16.4055 C   0  0  0  0  0  0  0  0  0  0  0  0
  -18.5903    9.6725  -17.2883 C   0  0  0  0  0  0  0  0  0  0  0  0
  -19.7504    8.2244  -15.7305 N   0  0  0  0  0  0  0  0  0  0  0  0
  -19.3352    8.1122  -14.4107 O   0  0  0  0  0  0  0  0  0  0  0  0
  -20.2381    7.2307  -16.2840 O   0  0  0  0  0  0  0  0  0  0  0  0
 10 11  1  0  0  0
 11 12  2  0  0  0
 11 13  2  0  0  0
 11  1  1  0  0  0
  1  2  1  0  0  0
  2  3  1  0  0  0
  3  4  1  0  0  0
  4  5  2  0  0  0
  5  6  1  0  0  0
  6 14  1  0  0  0
 14 15  1  0  0  0
 15 16  1  0  0  0
 16 17  2  0  0  0
 17 18  1  0  0  0
 18 19  2  0  0  0
 19 20  1  0  0  0
 20 21  2  0  0  0
 20 22  1  0  0  0
 22 23  1  0  0  0
 22 24  2  0  0  0
  6  7  2  0  0  0
  7  8  1  0  0  0
  8  9  2  0  0  0
  9  1  1  0  0  0
  9  4  1  0  0  0
 21 16  1  0  0  0
M  CHG 1  22   1
M  CHG 1  23  -1
M  END
> <minimizedAffinity>
-7.64957

> <CNNscore>
0.3083071113

> <CNNaffinity>
5.6098179817

> <CNN_VS>
1.7295467854

> <CNNaffinity_variance>
0.0891665071

$$$$
[H]c1c([H])c([N+](=O)[O-])c([H])c(C([H])([H])Oc2c([H])c([H])c3c(c2[H])C([H])([H])C([H])([H])N3S(=O)(=O)C([H])([H])[H])c1[H]


 24 26  0  0  0  0  0  0  0  0999 V2000
  -18.4782   12.7060  -18.6187 N   0  0  0  0  0  0  0  0  0  0  0  0
  -17.7865   11.5102  -19.0820 C   0  0  0  0  0  0  0  0  0  0  0  0
  -17.5863   11.8025  -20.5351 C   0  0  0  0  0  0  0  0  0  0  0  0
  -17.5938   13.2782  -20.5999 C   0  0  0  0  0  0  0  0  0  0  0  0
  -17.1636   14.1275  -21.5952 C   0  0  0  0  0  0  0  0  0  0  0  0
  -17.2736   15.5057  -21.4285 C   0  0  0  0  0  0  0  0  0  0  0  0
  -17.8148   16.0065  -20.2632 C   0  0  0  0  0  0  0  0  0  0  0  0
  -18.2585   15.1724  -19.2392 C   0  0  0  0  0  0  0  0  0  0  0  0
  -18.1370   13.8113  -19.4318 C   0  0  0  0  0  0  0  0  0  0  0  0
  -21.0488   13.5955  -17.6316 C   0  0  0  0  0  0  0  0  0  0  0  0
  -19.5376   12.7313  -17.2863 S   0  0  0  0  0  0  0  0  0  0  0  0
  -18.9311   13.2708  -16.0505 O   0  0  0  0  0  0  0  0  0  0  0  0
  -19.9302   11.2898  -16.9975 O   0  0  0  0  0  0  0  0  0  0  0  0
  -16.8345   16.3398  -22.4427 O   0  0  0  0  0  0  0  0  0  0  0  0
  -17.6264   16.6343  -23.5748 C   0  0  0  0  0  0  0  0  0  0  0  0
  -17.1503   15.8949  -24.7720 C   0  0  0  0  0  0  0  0  0  0  0  0
  -16.2922   16.4615  -25.6887 C   0  0  0  0  0  0  0  0  0  0  0  0
  -15.8610   15.7696  -26.7874 C   0  0  0  0  0  0  0  0  0  0  0  0
  -16.3032   14.4771  -26.9685 C   0  0  0  0  0  0  0  0  0  0  0  0
  -17.1606   13.8825  -26.0709 C   0  0  0  0  0  0  0  0  0  0  0  0
  -17.5802   14.5861  -24.9818 C   0  0  0  0  0  0  0  0  0  0  0  0
  -17.5900   12.5512  -26.2963 N   0  0  0  0  0  0  0  0  0  0  0  0
  -16.9235   11.7648  -27.2260 O   0  0  0  0  0  0  0  0  0  0  0  0
  -18.5488   12.0616  -25.6860 O   0  0  0  0  0  0  0  0  0  0  0  0
 10 11  1  0  0  0
 11 12  2  0  0  0
 11 13  2  0  0  0
 11  1  1  0  0  0
  1  2  1  0  0  0
  2  3  1  0  0  0
  3  4  1  0  0  0
  4  5  2  0  0  0
  5  6  1  0  0  0
  6 14  1  0  0  0
 14 15  1  0  0  0
 15 16  1  0  0  0
 16 17  2  0  0  0
 17 18  1  0  0  0
 18 19  2  0  0  0
 19 20  1  0  0  0
 20 21  2  0  0  0
 20 22  1  0  0  0
 22 23  1  0  0  0
 22 24  2  0  0  0
  6  7  2  0  0  0
  7  8  1  0  0  0
  8  9  2  0  0  0
  9  1  1  0  0  0
  9  4  1  0  0  0
 21 16  1  0  0  0
M  CHG 1  22   1
M  CHG 1  23  -1
M  END
> <minimizedAffinity>
-7.32445

> <CNNscore>
0.3031532466

> <CNNaffinity>
5.9791440964

> <CNN_VS>
1.8125969172

> <CNNaffinity_variance>
0.0771177858

$$$$
[H]c1c([H])c([N+](=O)[O-])c([H])c(C([H])([H])Oc2c([H])c([H])c3c(c2[H])C([H])([H])C([H])([H])N3S(=O)(=O)C([H])([H])[H])c1[H]


 24 26  0  0  0  0  0  0  0  0999 V2000
  -20.1686    9.9692  -16.1153 N   0  0  0  0  0  0  0  0  0  0  0  0
  -21.3431   10.8314  -16.1007 C   0  0  0  0  0  0  0  0  0  0  0  0
  -20.8069   12.1076  -16.6670 C   0  0  0  0  0  0  0  0  0  0  0  0
  -19.6554   11.6720  -17.4835 C   0  0  0  0  0  0  0  0  0  0  0  0
  -18.9600   12.3381  -18.4683 C   0  0  0  0  0  0  0  0  0  0  0  0
  -17.8925   11.7139  -19.1086 C   0  0  0  0  0  0  0  0  0  0  0  0
  -17.5422   10.4299  -18.7473 C   0  0  0  0  0  0  0  0  0  0  0  0
  -18.2267    9.7313  -17.7551 C   0  0  0  0  0  0  0  0  0  0  0  0
  -19.2801   10.3746  -17.1378 C   0  0  0  0  0  0  0  0  0  0  0  0
  -21.3123    8.4282  -13.9495 C   0  0  0  0  0  0  0  0  0  0  0  0
  -19.9337    8.6700  -15.0406 S   0  0  0  0  0  0  0  0  0  0  0  0
  -18.6883    8.7665  -14.2493 O   0  0  0  0  0  0  0  0  0  0  0  0
  -19.8310    7.4054  -15.8806 O   0  0  0  0  0  0  0  0  0  0  0  0
  -17.2083   12.4031  -20.0956 O   0  0  0  0  0  0  0  0  0  0  0  0
  -17.0782   11.9069  -21.4118 C   0  0  0  0  0  0  0  0  0  0  0  0
  -17.4128   12.9494  -22.4157 C   0  0  0  0  0  0  0  0  0  0  0  0
  -17.9766   14.1546  -22.0592 C   0  0  0  0  0  0  0  0  0  0  0  0
  -18.2801   15.1066  -22.9937 C   0  0  0  0  0  0  0  0  0  0  0  0
  -18.0101   14.8402  -24.3184 C   0  0  0  0  0  0  0  0  0  0  0  0
  -17.4471   13.6460  -24.7071 C   0  0  0  0  0  0  0  0  0  0  0  0
  -17.1511   12.7087  -23.7631 C   0  0  0  0  0  0  0  0  0  0  0  0
  -17.1863   13.4142  -26.0804 N   0  0  0  0  0  0  0  0  0  0  0  0
  -17.3883   12.1477  -26.6116 O   0  0  0  0  0  0  0  0  0  0  0  0
  -16.7806   14.3121  -26.8292 O   0  0  0  0  0  0  0  0  0  0  0  0
 10 11  1  0  0  0
 11 12  2  0  0  0
 11 13  2  0  0  0
 11  1  1  0  0  0
  1  2  1  0  0  0
  2  3  1  0  0  0
  3  4  1  0  0  0
  4  5  2  0  0  0
  5  6  1  0  0  0
  6 14  1  0  0  0
 14 15  1  0  0  0
 15 16  1  0  0  0
 16 17  2  0  0  0
 17 18  1  0  0  0
 18 19  2  0  0  0
 19 20  1  0  0  0
 20 21  2  0  0  0
 20 22  1  0  0  0
 22 23  1  0  0  0
 22 24  2  0  0  0
  6  7  2  0  0  0
  7  8  1  0  0  0
  8  9  2  0  0  0
  9  1  1  0  0  0
  9  4  1  0  0  0
 21 16  1  0  0  0
M  CHG 1  22   1
M  CHG 1  23  -1
M  END
> <minimizedAffinity>
-8.50875

> <CNNscore>
0.2917226851

> <CNNaffinity>
5.4466638565

> <CNN_VS>
1.5889153481

> <CNNaffinity_variance>
0.1372239292

$$$$
[H]c1c([H])c([N+](=O)[O-])c([H])c(C([H])([H])Oc2c([H])c([H])c3c(c2[H])C([H])([H])C([H])([H])N3S(=O)(=O)C([H])([H])[H])c1[H]


 24 26  0  0  0  0  0  0  0  0999 V2000
  -18.3611   12.1139  -19.3152 N   0  0  0  0  0  0  0  0  0  0  0  0
  -19.4627   12.4764  -18.4332 C   0  0  0  0  0  0  0  0  0  0  0  0
  -19.5710   13.9521  -18.6508 C   0  0  0  0  0  0  0  0  0  0  0  0
  -19.0094   14.1490  -20.0029 C   0  0  0  0  0  0  0  0  0  0  0  0
  -19.1104   15.2216  -20.8610 C   0  0  0  0  0  0  0  0  0  0  0  0
  -18.4854   15.1779  -22.1046 C   0  0  0  0  0  0  0  0  0  0  0  0
  -17.7690   14.0558  -22.4643 C   0  0  0  0  0  0  0  0  0  0  0  0
  -17.6492   12.9558  -21.6177 C   0  0  0  0  0  0  0  0  0  0  0  0
  -18.2790   13.0270  -20.3918 C   0  0  0  0  0  0  0  0  0  0  0  0
  -18.0404    9.5896  -17.9373 C   0  0  0  0  0  0  0  0  0  0  0  0
  -17.3403   10.7765  -19.0556 S   0  0  0  0  0  0  0  0  0  0  0  0
  -15.9811   11.1411  -18.6018 O   0  0  0  0  0  0  0  0  0  0  0  0
  -17.1877   10.0624  -20.3906 O   0  0  0  0  0  0  0  0  0  0  0  0
  -18.6007   16.2681  -22.9504 O   0  0  0  0  0  0  0  0  0  0  0  0
  -18.6512   17.5954  -22.4696 C   0  0  0  0  0  0  0  0  0  0  0  0
  -19.7635   18.3536  -23.0977 C   0  0  0  0  0  0  0  0  0  0  0  0
  -19.6390   19.6800  -23.4480 C   0  0  0  0  0  0  0  0  0  0  0  0
  -20.6712   20.3671  -24.0260 C   0  0  0  0  0  0  0  0  0  0  0  0
  -21.8571   19.7045  -24.2573 C   0  0  0  0  0  0  0  0  0  0  0  0
  -22.0134   18.3796  -23.9190 C   0  0  0  0  0  0  0  0  0  0  0  0
  -20.9748   17.7102  -23.3440 C   0  0  0  0  0  0  0  0  0  0  0  0
  -23.2503   17.7375  -24.1750 N   0  0  0  0  0  0  0  0  0  0  0  0
  -24.1360   17.5158  -23.1294 O   0  0  0  0  0  0  0  0  0  0  0  0
  -23.5701   17.3643  -25.3107 O   0  0  0  0  0  0  0  0  0  0  0  0
 10 11  1  0  0  0
 11 12  2  0  0  0
 11 13  2  0  0  0
 11  1  1  0  0  0
  1  2  1  0  0  0
  2  3  1  0  0  0
  3  4  1  0  0  0
  4  5  2  0  0  0
  5  6  1  0  0  0
  6 14  1  0  0  0
 14 15  1  0  0  0
 15 16  1  0  0  0
 16 17  2  0  0  0
 17 18  1  0  0  0
 18 19  2  0  0  0
 19 20  1  0  0  0
 20 21  2  0  0  0
 20 22  1  0  0  0
 22 23  1  0  0  0
 22 24  2  0  0  0
  6  7  2  0  0  0
  7  8  1  0  0  0
  8  9  2  0  0  0
  9  1  1  0  0  0
  9  4  1  0  0  0
 21 16  1  0  0  0
M  CHG 1  22   1
M  CHG 1  23  -1
M  END
> <minimizedAffinity>
-6.74123

> <CNNscore>
0.2819533944

> <CNNaffinity>
5.3807129860

> <CNN_VS>
1.5171103477

> <CNNaffinity_variance>
0.0872405618

$$$$
[H]c1c([H])c([N+](=O)[O-])c([H])c(C([H])([H])Oc2c([H])c([H])c3c(c2[H])C([H])([H])C([H])([H])N3S(=O)(=O)C([H])([H])[H])c1[H]


 24 26  0  0  0  0  0  0  0  0999 V2000
  -16.9892   13.2387  -21.9310 N   0  0  0  0  0  0  0  0  0  0  0  0
  -17.5961   14.5431  -21.7001 C   0  0  0  0  0  0  0  0  0  0  0  0
  -18.7935   14.1943  -20.8745 C   0  0  0  0  0  0  0  0  0  0  0  0
  -18.4136   12.9224  -20.2263 C   0  0  0  0  0  0  0  0  0  0  0  0
  -18.9648   12.2770  -19.1415 C   0  0  0  0  0  0  0  0  0  0  0  0
  -18.4275   11.0687  -18.7050 C   0  0  0  0  0  0  0  0  0  0  0  0
  -17.3446   10.5297  -19.3673 C   0  0  0  0  0  0  0  0  0  0  0  0
  -16.7660   11.1593  -20.4672 C   0  0  0  0  0  0  0  0  0  0  0  0
  -17.3191   12.3552  -20.8774 C   0  0  0  0  0  0  0  0  0  0  0  0
  -14.8702   14.1557  -23.6753 C   0  0  0  0  0  0  0  0  0  0  0  0
  -16.0275   12.8678  -23.2858 S   0  0  0  0  0  0  0  0  0  0  0  0
  -16.8055   12.5206  -24.4942 O   0  0  0  0  0  0  0  0  0  0  0  0
  -15.1959   11.6456  -22.9249 O   0  0  0  0  0  0  0  0  0  0  0  0
  -18.9983   10.4382  -17.6124 O   0  0  0  0  0  0  0  0  0  0  0  0
  -18.5585    9.1767  -17.1533 C   0  0  0  0  0  0  0  0  0  0  0  0
  -19.3547    8.7216  -15.9846 C   0  0  0  0  0  0  0  0  0  0  0  0
  -20.3199    7.7447  -16.0924 C   0  0  0  0  0  0  0  0  0  0  0  0
  -21.0463    7.3343  -15.0081 C   0  0  0  0  0  0  0  0  0  0  0  0
  -20.7961    7.9204  -13.7863 C   0  0  0  0  0  0  0  0  0  0  0  0
  -19.8385    8.8989  -13.6455 C   0  0  0  0  0  0  0  0  0  0  0  0
  -19.1239    9.2957  -14.7361 C   0  0  0  0  0  0  0  0  0  0  0  0
  -19.6142    9.4743  -12.3703 N   0  0  0  0  0  0  0  0  0  0  0  0
  -19.2660   10.8147  -12.2755 O   0  0  0  0  0  0  0  0  0  0  0  0
  -19.7193    8.8150  -11.3282 O   0  0  0  0  0  0  0  0  0  0  0  0
 10 11  1  0  0  0
 11 12  2  0  0  0
 11 13  2  0  0  0
 11  1  1  0  0  0
  1  2  1  0  0  0
  2  3  1  0  0  0
  3  4  1  0  0  0
  4  5  2  0  0  0
  5  6  1  0  0  0
  6 14  1  0  0  0
 14 15  1  0  0  0
 15 16  1  0  0  0
 16 17  2  0  0  0
 17 18  1  0  0  0
 18 19  2  0  0  0
 19 20  1  0  0  0
 20 21  2  0  0  0
 20 22  1  0  0  0
 22 23  1  0  0  0
 22 24  2  0  0  0
  6  7  2  0  0  0
  7  8  1  0  0  0
  8  9  2  0  0  0
  9  1  1  0  0  0
  9  4  1  0  0  0
 21 16  1  0  0  0
M  CHG 1  22   1
M  CHG 1  23  -1
M  END
> <minimizedAffinity>
-7.11382

> <CNNscore>
0.2819265723

> <CNNaffinity>
5.2878522873

> <CNN_VS>
1.4907860756

> <CNNaffinity_variance>
0.2934654355

$$$$
[H]c1c([H])c([N+](=O)[O-])c([H])c(C([H])([H])Oc2c([H])c([H])c3c(c2[H])C([H])([H])C([H])([H])N3S(=O)(=O)C([H])([H])[H])c1[H]


 24 26  0  0  0  0  0  0  0  0999 V2000
  -17.2156   14.3810  -23.5162 N   0  0  0  0  0  0  0  0  0  0  0  0
  -17.5835   15.7586  -23.2167 C   0  0  0  0  0  0  0  0  0  0  0  0
  -18.4992   15.5951  -22.0455 C   0  0  0  0  0  0  0  0  0  0  0  0
  -18.0728   14.3152  -21.4435 C   0  0  0  0  0  0  0  0  0  0  0  0
  -18.3283   13.7895  -20.1964 C   0  0  0  0  0  0  0  0  0  0  0  0
  -17.8114   12.5443  -19.8479 C   0  0  0  0  0  0  0  0  0  0  0  0
  -17.0461   11.8486  -20.7601 C   0  0  0  0  0  0  0  0  0  0  0  0
  -16.7709   12.3546  -22.0286 C   0  0  0  0  0  0  0  0  0  0  0  0
  -17.2960   13.5906  -22.3464 C   0  0  0  0  0  0  0  0  0  0  0  0
  -17.8304   12.5640  -25.6828 C   0  0  0  0  0  0  0  0  0  0  0  0
  -16.7600   13.8370  -25.0636 S   0  0  0  0  0  0  0  0  0  0  0  0
  -15.3546   13.3856  -25.1487 O   0  0  0  0  0  0  0  0  0  0  0  0
  -16.9079   15.0152  -26.0152 O   0  0  0  0  0  0  0  0  0  0  0  0
  -18.0815   12.0360  -18.5886 O   0  0  0  0  0  0  0  0  0  0  0  0
  -19.3904   11.7069  -18.1714 C   0  0  0  0  0  0  0  0  0  0  0  0
  -19.3717   10.6712  -17.1066 C   0  0  0  0  0  0  0  0  0  0  0  0
  -18.7168    9.4698  -17.2657 C   0  0  0  0  0  0  0  0  0  0  0  0
  -18.7071    8.5242  -16.2770 C   0  0  0  0  0  0  0  0  0  0  0  0
  -19.3718    8.7932  -15.1004 C   0  0  0  0  0  0  0  0  0  0  0  0
  -20.0354    9.9839  -14.9103 C   0  0  0  0  0  0  0  0  0  0  0  0
  -20.0350   10.9149  -15.9056 C   0  0  0  0  0  0  0  0  0  0  0  0
  -20.7058   10.2186  -13.6842 N   0  0  0  0  0  0  0  0  0  0  0  0
  -21.0524    9.1441  -12.8766 O   0  0  0  0  0  0  0  0  0  0  0  0
  -20.9953   11.3609  -13.3060 O   0  0  0  0  0  0  0  0  0  0  0  0
 10 11  1  0  0  0
 11 12  2  0  0  0
 11 13  2  0  0  0
 11  1  1  0  0  0
  1  2  1  0  0  0
  2  3  1  0  0  0
  3  4  1  0  0  0
  4  5  2  0  0  0
  5  6  1  0  0  0
  6 14  1  0  0  0
 14 15  1  0  0  0
 15 16  1  0  0  0
 16 17  2  0  0  0
 17 18  1  0  0  0
 18 19  2  0  0  0
 19 20  1  0  0  0
 20 21  2  0  0  0
 20 22  1  0  0  0
 22 23  1  0  0  0
 22 24  2  0  0  0
  6  7  2  0  0  0
  7  8  1  0  0  0
  8  9  2  0  0  0
  9  1  1  0  0  0
  9  4  1  0  0  0
 21 16  1  0  0  0
M  CHG 1  22   1
M  CHG 1  23  -1
M  END
> <minimizedAffinity>
-7.33279

> <CNNscore>
0.2618460059

> <CNNaffinity>
5.4517941475

> <CNN_VS>
1.4275305271

> <CNNaffinity_variance>
0.1608150303

$$$$
[H]OC(=O)[C@@]1([H])N(C(=O)C([H])([H])N([H])C(=O)c2c([H])c(F)c(Cl)c([H])c2Cl)C([H])([H])C([H])([H])C1([H])[H]


 25 26  0  0  0  0  0  0  0  0999 V2000
  -17.6637   14.3988  -21.3678 N   0  0  0  0  0  0  0  0  0  0  0  0
  -17.0773   13.5059  -22.2827 C   0  0  0  0  0  0  0  0  0  0  0  0
  -16.6504   12.3581  -21.9472 O   0  0  0  0  0  0  0  0  0  0  0  0
  -17.9786   15.3348  -21.7657 H   0  0  0  0  0  0  0  0  0  0  0  0
  -16.9188   13.8485  -23.7047 C   0  0  0  0  0  0  0  0  0  0  0  0
  -17.3204   12.9315  -24.6427 C   0  0  0  0  0  0  0  0  0  0  0  0
  -17.1772   13.2406  -25.9802 C   0  0  0  0  0  0  0  0  0  0  0  0
  -17.5716   12.3396  -26.9132 F   0  0  0  0  0  0  0  0  0  0  0  0
  -16.6328   14.4664  -26.3348 C   0  0  0  0  0  0  0  0  0  0  0  0
  -16.4484   14.8645  -28.0418 Cl  0  0  0  0  0  0  0  0  0  0  0  0
  -16.2287   15.3891  -25.4010 C   0  0  0  0  0  0  0  0  0  0  0  0
  -16.3850   15.0501  -24.0742 C   0  0  0  0  0  0  0  0  0  0  0  0
  -15.8933   16.1738  -22.8479 Cl  0  0  0  0  0  0  0  0  0  0  0  0
  -17.8528   14.1280  -19.9854 C   0  0  0  0  0  0  0  0  0  0  0  0
  -19.4191   16.0691  -18.2343 C   0  0  0  0  0  0  0  0  0  0  0  0
  -20.5323   17.0840  -18.3980 C   0  0  0  0  0  0  0  0  0  0  0  0
  -21.7554   16.2805  -18.0927 C   0  0  0  0  0  0  0  0  0  0  0  0
  -21.3695   14.8565  -18.4937 C   0  0  0  0  0  0  0  0  0  0  0  0
  -19.9873   14.9078  -18.8530 N   0  0  0  0  0  0  0  0  0  0  0  0
  -19.2827   13.9932  -19.6687 C   0  0  0  0  0  0  0  0  0  0  0  0
  -19.9201   12.9941  -20.1587 O   0  0  0  0  0  0  0  0  0  0  0  0
  -18.5386   14.5962  -16.4781 O   0  0  0  0  0  0  0  0  0  0  0  0
  -19.0748   15.8405  -16.8171 C   0  0  0  0  0  0  0  0  0  0  0  0
  -19.2244   16.6673  -15.9017 O   0  0  0  0  0  0  0  0  0  0  0  0
  -18.8871   14.0478  -15.7052 H   0  0  0  0  0  0  0  0  0  0  0  0
 22 23  1  0  0  0
 23 24  2  0  0  0
 23 15  1  0  0  0
 15 16  1  0  0  0
 16 17  1  0  0  0
 17 18  1  0  0  0
 18 19  1  0  0  0
 19 20  1  0  0  0
 20 21  2  0  0  0
 20 14  1  0  0  0
 14  1  1  0  0  0
  1  2  1  0  0  0
  2  3  2  0  0  0
  2  5  1  0  0  0
  5  6  2  0  0  0
  6  7  1  0  0  0
  7  8  1  0  0  0
  7  9  2  0  0  0
  9 10  1  0  0  0
  9 11  1  0  0  0
 11 12  2  0  0  0
 12 13  1  0  0  0
 19 15  1  0  0  0
 12  5  1  0  0  0
 22 25  1  0  0  0
  1  4  1  0  0  0
M  END
> <minimizedAffinity>
-7.26317

> <CNNscore>
0.3826318681

> <CNNaffinity>
5.6531958580

> <CNN_VS>
2.1630928516

> <CNNaffinity_variance>
0.0752180144

$$$$
[H]OC(=O)[C@@]1([H])N(C(=O)C([H])([H])N([H])C(=O)c2c([H])c(F)c(Cl)c([H])c2Cl)C([H])([H])C([H])([H])C1([H])[H]


 25 26  0  0  0  0  0  0  0  0999 V2000
  -18.0682   12.9053  -20.4551 N   0  0  0  0  0  0  0  0  0  0  0  0
  -18.2733   13.9839  -21.3342 C   0  0  0  0  0  0  0  0  0  0  0  0
  -19.2702   14.7651  -21.2445 O   0  0  0  0  0  0  0  0  0  0  0  0
  -17.1990   12.3167  -20.6332 H   0  0  0  0  0  0  0  0  0  0  0  0
  -17.3344   14.2800  -22.4275 C   0  0  0  0  0  0  0  0  0  0  0  0
  -17.4151   13.5310  -23.5740 C   0  0  0  0  0  0  0  0  0  0  0  0
  -16.5401   13.7986  -24.6074 C   0  0  0  0  0  0  0  0  0  0  0  0
  -16.6136   13.0627  -25.7435 F   0  0  0  0  0  0  0  0  0  0  0  0
  -15.6076   14.8146  -24.4558 C   0  0  0  0  0  0  0  0  0  0  0  0
  -14.4887   15.1592  -25.7732 Cl  0  0  0  0  0  0  0  0  0  0  0  0
  -15.5213   15.5684  -23.3107 C   0  0  0  0  0  0  0  0  0  0  0  0
  -16.4091   15.2761  -22.2977 C   0  0  0  0  0  0  0  0  0  0  0  0
  -16.3497   16.1932  -20.8267 Cl  0  0  0  0  0  0  0  0  0  0  0  0
  -18.9307   12.5692  -19.3764 C   0  0  0  0  0  0  0  0  0  0  0  0
  -20.1964   11.4070  -16.8595 C   0  0  0  0  0  0  0  0  0  0  0  0
  -21.0211   10.1966  -16.4716 C   0  0  0  0  0  0  0  0  0  0  0  0
  -19.9788    9.2123  -16.0481 C   0  0  0  0  0  0  0  0  0  0  0  0
  -18.7475    9.6063  -16.8643 C   0  0  0  0  0  0  0  0  0  0  0  0
  -19.1009   10.8037  -17.5597 N   0  0  0  0  0  0  0  0  0  0  0  0
  -18.4970   11.3224  -18.7278 C   0  0  0  0  0  0  0  0  0  0  0  0
  -17.5212   10.6753  -19.2507 O   0  0  0  0  0  0  0  0  0  0  0  0
  -19.0025   13.3358  -15.9195 O   0  0  0  0  0  0  0  0  0  0  0  0
  -19.7544   12.1826  -15.6837 C   0  0  0  0  0  0  0  0  0  0  0  0
  -19.9982   11.8908  -14.5008 O   0  0  0  0  0  0  0  0  0  0  0  0
  -18.1376   13.5277  -15.4350 H   0  0  0  0  0  0  0  0  0  0  0  0
 22 23  1  0  0  0
 23 24  2  0  0  0
 23 15  1  0  0  0
 15 16  1  0  0  0
 16 17  1  0  0  0
 17 18  1  0  0  0
 18 19  1  0  0  0
 19 20  1  0  0  0
 20 21  2  0  0  0
 20 14  1  0  0  0
 14  1  1  0  0  0
  1  2  1  0  0  0
  2  3  2  0  0  0
  2  5  1  0  0  0
  5  6  2  0  0  0
  6  7  1  0  0  0
  7  8  1  0  0  0
  7  9  2  0  0  0
  9 10  1  0  0  0
  9 11  1  0  0  0
 11 12  2  0  0  0
 12 13  1  0  0  0
 19 15  1  0  0  0
 12  5  1  0  0  0
 22 25  1  0  0  0
  1  4  1  0  0  0
M  END
> <minimizedAffinity>
-6.95917

> <CNNscore>
0.3728421032

> <CNNaffinity>
5.4729032516

> <CNN_VS>
2.0405287743

> <CNNaffinity_variance>
0.1749702394

$$$$
[H]OC(=O)[C@@]1([H])N(C(=O)C([H])([H])N([H])C(=O)c2c([H])c(F)c(Cl)c([H])c2Cl)C([H])([H])C([H])([H])C1([H])[H]


 25 26  0  0  0  0  0  0  0  0999 V2000
  -17.1398   14.2212  -22.7039 N   0  0  0  0  0  0  0  0  0  0  0  0
  -16.3216   13.5750  -23.6479 C   0  0  0  0  0  0  0  0  0  0  0  0
  -15.7171   12.4854  -23.4038 O   0  0  0  0  0  0  0  0  0  0  0  0
  -17.5897   15.1322  -23.0221 H   0  0  0  0  0  0  0  0  0  0  0  0
  -16.1107   14.1268  -24.9954 C   0  0  0  0  0  0  0  0  0  0  0  0
  -15.1324   15.0736  -25.1640 C   0  0  0  0  0  0  0  0  0  0  0  0
  -14.9243   15.5993  -26.4231 C   0  0  0  0  0  0  0  0  0  0  0  0
  -13.9595   16.5355  -26.5979 F   0  0  0  0  0  0  0  0  0  0  0  0
  -15.7090   15.1554  -27.4777 C   0  0  0  0  0  0  0  0  0  0  0  0
  -15.4462   15.8244  -29.0869 Cl  0  0  0  0  0  0  0  0  0  0  0  0
  -16.6901   14.2077  -27.3159 C   0  0  0  0  0  0  0  0  0  0  0  0
  -16.8728   13.7028  -26.0465 C   0  0  0  0  0  0  0  0  0  0  0  0
  -18.0965   12.5033  -25.7786 Cl  0  0  0  0  0  0  0  0  0  0  0  0
  -17.3907   13.7394  -21.3904 C   0  0  0  0  0  0  0  0  0  0  0  0
  -18.8894   13.6653  -18.7379 C   0  0  0  0  0  0  0  0  0  0  0  0
  -18.5584   13.6513  -17.2593 C   0  0  0  0  0  0  0  0  0  0  0  0
  -18.5926   15.1025  -16.9023 C   0  0  0  0  0  0  0  0  0  0  0  0
  -18.2147   15.8104  -18.2037 C   0  0  0  0  0  0  0  0  0  0  0  0
  -18.1272   14.7883  -19.1987 N   0  0  0  0  0  0  0  0  0  0  0  0
  -17.4239   14.8471  -20.4235 C   0  0  0  0  0  0  0  0  0  0  0  0
  -16.7814   15.9196  -20.7088 O   0  0  0  0  0  0  0  0  0  0  0  0
  -20.7278   14.2381  -20.2615 O   0  0  0  0  0  0  0  0  0  0  0  0
  -20.3357   13.8267  -18.9856 C   0  0  0  0  0  0  0  0  0  0  0  0
  -21.2321   13.6258  -18.1489 O   0  0  0  0  0  0  0  0  0  0  0  0
  -21.3788   14.9954  -20.4110 H   0  0  0  0  0  0  0  0  0  0  0  0
 22 23  1  0  0  0
 23 24  2  0  0  0
 23 15  1  0  0  0
 15 16  1  0  0  0
 16 17  1  0  0  0
 17 18  1  0  0  0
 18 19  1  0  0  0
 19 20  1  0  0  0
 20 21  2  0  0  0
 20 14  1  0  0  0
 14  1  1  0  0  0
  1  2  1  0  0  0
  2  3  2  0  0  0
  2  5  1  0  0  0
  5  6  2  0  0  0
  6  7  1  0  0  0
  7  8  1  0  0  0
  7  9  2  0  0  0
  9 10  1  0  0  0
  9 11  1  0  0  0
 11 12  2  0  0  0
 12 13  1  0  0  0
 19 15  1  0  0  0
 12  5  1  0  0  0
 22 25  1  0  0  0
  1  4  1  0  0  0
M  END
> <minimizedAffinity>
-7.55574

> <CNNscore>
0.3547988236

> <CNNaffinity>
5.6754636765

> <CNN_VS>
2.0136477947

> <CNNaffinity_variance>
0.0518380292

$$$$
[H]OC(=O)[C@@]1([H])N(C(=O)C([H])([H])N([H])C(=O)c2c([H])c(F)c(Cl)c([H])c2Cl)C([H])([H])C([H])([H])C1([H])[H]


 25 26  0  0  0  0  0  0  0  0999 V2000
  -16.8368   12.9966  -22.0705 N   0  0  0  0  0  0  0  0  0  0  0  0
  -17.6949   12.1365  -21.3620 C   0  0  0  0  0  0  0  0  0  0  0  0
  -17.8304   10.9076  -21.6514 O   0  0  0  0  0  0  0  0  0  0  0  0
  -16.8116   14.0080  -21.7387 H   0  0  0  0  0  0  0  0  0  0  0  0
  -18.5007   12.6111  -20.2262 C   0  0  0  0  0  0  0  0  0  0  0  0
  -19.6367   13.3327  -20.4920 C   0  0  0  0  0  0  0  0  0  0  0  0
  -20.4017   13.7838  -19.4354 C   0  0  0  0  0  0  0  0  0  0  0  0
  -21.5256   14.4977  -19.6899 F   0  0  0  0  0  0  0  0  0  0  0  0
  -19.9996   13.4944  -18.1395 C   0  0  0  0  0  0  0  0  0  0  0  0
  -20.9739   14.0687  -16.7878 Cl  0  0  0  0  0  0  0  0  0  0  0  0
  -18.8634   12.7724  -17.8662 C   0  0  0  0  0  0  0  0  0  0  0  0
  -18.1217   12.3366  -18.9431 C   0  0  0  0  0  0  0  0  0  0  0  0
  -16.6763   11.4199  -18.6624 Cl  0  0  0  0  0  0  0  0  0  0  0  0
  -16.0274   12.6016  -23.1701 C   0  0  0  0  0  0  0  0  0  0  0  0
  -15.0768   15.0443  -24.7247 C   0  0  0  0  0  0  0  0  0  0  0  0
  -14.3857   15.3412  -26.0401 C   0  0  0  0  0  0  0  0  0  0  0  0
  -15.5344   15.5602  -26.9713 C   0  0  0  0  0  0  0  0  0  0  0  0
  -16.6566   14.7082  -26.3778 C   0  0  0  0  0  0  0  0  0  0  0  0
  -16.1523   14.1944  -25.1433 N   0  0  0  0  0  0  0  0  0  0  0  0
  -16.6114   13.0570  -24.4408 C   0  0  0  0  0  0  0  0  0  0  0  0
  -17.5866   12.3861  -24.9341 O   0  0  0  0  0  0  0  0  0  0  0  0
  -16.1474   16.1272  -22.7985 O   0  0  0  0  0  0  0  0  0  0  0  0
  -15.5554   16.2700  -24.0555 C   0  0  0  0  0  0  0  0  0  0  0  0
  -15.4737   17.4188  -24.5219 O   0  0  0  0  0  0  0  0  0  0  0  0
  -17.0332   16.5517  -22.5648 H   0  0  0  0  0  0  0  0  0  0  0  0
 22 23  1  0  0  0
 23 24  2  0  0  0
 23 15  1  0  0  0
 15 16  1  0  0  0
 16 17  1  0  0  0
 17 18  1  0  0  0
 18 19  1  0  0  0
 19 20  1  0  0  0
 20 21  2  0  0  0
 20 14  1  0  0  0
 14  1  1  0  0  0
  1  2  1  0  0  0
  2  3  2  0  0  0
  2  5  1  0  0  0
  5  6  2  0  0  0
  6  7  1  0  0  0
  7  8  1  0  0  0
  7  9  2  0  0  0
  9 10  1  0  0  0
  9 11  1  0  0  0
 11 12  2  0  0  0
 12 13  1  0  0  0
 19 15  1  0  0  0
 12  5  1  0  0  0
 22 25  1  0  0  0
  1  4  1  0  0  0
M  END
> <minimizedAffinity>
-7.39280

> <CNNscore>
0.3507231176

> <CNNaffinity>
5.8758759499

> <CNN_VS>
2.0608055592

> <CNNaffinity_variance>
0.1457029432

$$$$
[H]OC(=O)[C@@]1([H])N(C(=O)C([H])([H])N([H])C(=O)c2c([H])c(F)c(Cl)c([H])c2Cl)C([H])([H])C([H])([H])C1([H])[H]


 25 26  0  0  0  0  0  0  0  0999 V2000
  -17.1537   14.4779  -20.7180 N   0  0  0  0  0  0  0  0  0  0  0  0
  -17.5229   13.1681  -21.0735 C   0  0  0  0  0  0  0  0  0  0  0  0
  -17.6745   12.7988  -22.2788 O   0  0  0  0  0  0  0  0  0  0  0  0
  -17.0628   14.6703  -19.6747 H   0  0  0  0  0  0  0  0  0  0  0  0
  -17.7602   12.1290  -20.0593 C   0  0  0  0  0  0  0  0  0  0  0  0
  -18.7460   12.3417  -19.1294 C   0  0  0  0  0  0  0  0  0  0  0  0
  -18.9789   11.3747  -18.1725 C   0  0  0  0  0  0  0  0  0  0  0  0
  -19.9513   11.5776  -17.2500 F   0  0  0  0  0  0  0  0  0  0  0  0
  -18.2106   10.2194  -18.1800 C   0  0  0  0  0  0  0  0  0  0  0  0
  -18.5051    8.9824  -16.9596 Cl  0  0  0  0  0  0  0  0  0  0  0  0
  -17.2220   10.0000  -19.1080 C   0  0  0  0  0  0  0  0  0  0  0  0
  -17.0146   10.9848  -20.0498 C   0  0  0  0  0  0  0  0  0  0  0  0
  -15.7802   10.7657  -21.2485 Cl  0  0  0  0  0  0  0  0  0  0  0  0
  -16.9032   15.5249  -21.6460 C   0  0  0  0  0  0  0  0  0  0  0  0
  -19.1684   17.5284  -22.0234 C   0  0  0  0  0  0  0  0  0  0  0  0
  -20.2909   18.1252  -21.1989 C   0  0  0  0  0  0  0  0  0  0  0  0
  -19.6711   19.3727  -20.6564 C   0  0  0  0  0  0  0  0  0  0  0  0
  -18.1807   19.0401  -20.5809 C   0  0  0  0  0  0  0  0  0  0  0  0
  -18.0328   17.7500  -21.1774 N   0  0  0  0  0  0  0  0  0  0  0  0
  -16.9704   16.8374  -20.9857 C   0  0  0  0  0  0  0  0  0  0  0  0
  -16.0152   17.1681  -20.1966 O   0  0  0  0  0  0  0  0  0  0  0  0
  -17.8547   17.9474  -24.0551 O   0  0  0  0  0  0  0  0  0  0  0  0
  -19.0287   18.1869  -23.3373 C   0  0  0  0  0  0  0  0  0  0  0  0
  -19.8726   18.9375  -23.8552 O   0  0  0  0  0  0  0  0  0  0  0  0
  -17.3064   18.6914  -24.4618 H   0  0  0  0  0  0  0  0  0  0  0  0
 22 23  1  0  0  0
 23 24  2  0  0  0
 23 15  1  0  0  0
 15 16  1  0  0  0
 16 17  1  0  0  0
 17 18  1  0  0  0
 18 19  1  0  0  0
 19 20  1  0  0  0
 20 21  2  0  0  0
 20 14  1  0  0  0
 14  1  1  0  0  0
  1  2  1  0  0  0
  2  3  2  0  0  0
  2  5  1  0  0  0
  5  6  2  0  0  0
  6  7  1  0  0  0
  7  8  1  0  0  0
  7  9  2  0  0  0
  9 10  1  0  0  0
  9 11  1  0  0  0
 11 12  2  0  0  0
 12 13  1  0  0  0
 19 15  1  0  0  0
 12  5  1  0  0  0
 22 25  1  0  0  0
  1  4  1  0  0  0
M  END
> <minimizedAffinity>
-6.96499

> <CNNscore>
0.3213058412

> <CNNaffinity>
5.6328678131

> <CNN_VS>
1.8098733425

> <CNNaffinity_variance>
0.1015130132

$$$$
[H]OC(=O)[C@@]1([H])N(C(=O)C([H])([H])N([H])C(=O)c2c([H])c(F)c(Cl)c([H])c2Cl)C([H])([H])C([H])([H])C1([H])[H]


 25 26  0  0  0  0  0  0  0  0999 V2000
  -18.6833   14.7298  -22.1241 N   0  0  0  0  0  0  0  0  0  0  0  0
  -17.5209   14.1697  -22.6838 C   0  0  0  0  0  0  0  0  0  0  0  0
  -16.7906   13.3368  -22.0634 O   0  0  0  0  0  0  0  0  0  0  0  0
  -19.2107   15.4212  -22.7385 H   0  0  0  0  0  0  0  0  0  0  0  0
  -17.0709   14.5172  -24.0408 C   0  0  0  0  0  0  0  0  0  0  0  0
  -17.3460   13.6420  -25.0606 C   0  0  0  0  0  0  0  0  0  0  0  0
  -16.9293   13.9561  -26.3385 C   0  0  0  0  0  0  0  0  0  0  0  0
  -17.1973   13.0962  -27.3516 F   0  0  0  0  0  0  0  0  0  0  0  0
  -16.2466   15.1448  -26.5523 C   0  0  0  0  0  0  0  0  0  0  0  0
  -15.7130   15.5492  -28.1827 Cl  0  0  0  0  0  0  0  0  0  0  0  0
  -15.9679   16.0256  -25.5358 C   0  0  0  0  0  0  0  0  0  0  0  0
  -16.3973   15.6826  -24.2719 C   0  0  0  0  0  0  0  0  0  0  0  0
  -16.0754   16.7543  -22.9466 Cl  0  0  0  0  0  0  0  0  0  0  0  0
  -19.1764   14.4323  -20.8246 C   0  0  0  0  0  0  0  0  0  0  0  0
  -20.9902   16.8810  -20.7837 C   0  0  0  0  0  0  0  0  0  0  0  0
  -21.9957   17.5200  -19.8475 C   0  0  0  0  0  0  0  0  0  0  0  0
  -21.1576   18.4918  -19.0808 C   0  0  0  0  0  0  0  0  0  0  0  0
  -19.7649   17.8611  -19.0868 C   0  0  0  0  0  0  0  0  0  0  0  0
  -19.8576   16.7059  -19.9229 N   0  0  0  0  0  0  0  0  0  0  0  0
  -19.0020   15.5808  -19.9225 C   0  0  0  0  0  0  0  0  0  0  0  0
  -18.0229   15.5574  -19.0946 O   0  0  0  0  0  0  0  0  0  0  0  0
  -21.6927   18.5971  -22.3932 O   0  0  0  0  0  0  0  0  0  0  0  0
  -20.6863   17.7376  -21.9469 C   0  0  0  0  0  0  0  0  0  0  0  0
  -19.6061   17.7545  -22.5608 O   0  0  0  0  0  0  0  0  0  0  0  0
  -21.9621   18.6588  -23.3644 H   0  0  0  0  0  0  0  0  0  0  0  0
 22 23  1  0  0  0
 23 24  2  0  0  0
 23 15  1  0  0  0
 15 16  1  0  0  0
 16 17  1  0  0  0
 17 18  1  0  0  0
 18 19  1  0  0  0
 19 20  1  0  0  0
 20 21  2  0  0  0
 20 14  1  0  0  0
 14  1  1  0  0  0
  1  2  1  0  0  0
  2  3  2  0  0  0
  2  5  1  0  0  0
  5  6  2  0  0  0
  6  7  1  0  0  0
  7  8  1  0  0  0
  7  9  2  0  0  0
  9 10  1  0  0  0
  9 11  1  0  0  0
 11 12  2  0  0  0
 12 13  1  0  0  0
 19 15  1  0  0  0
 12  5  1  0  0  0
 22 25  1  0  0  0
  1  4  1  0  0  0
M  END
> <minimizedAffinity>
-6.57293

> <CNNscore>
0.3018169701

> <CNNaffinity>
5.4073247910

> <CNN_VS>
1.6320223808

> <CNNaffinity_variance>
0.2013796568

$$$$
[H]OC(=O)[C@@]1([H])N(C(=O)C([H])([H])N([H])C(=O)c2c([H])c(F)c(Cl)c([H])c2Cl)C([H])([H])C([H])([H])C1([H])[H]


 25 26  0  0  0  0  0  0  0  0999 V2000
  -17.4762   13.7981  -23.2991 N   0  0  0  0  0  0  0  0  0  0  0  0
  -17.3274   13.8441  -21.9012 C   0  0  0  0  0  0  0  0  0  0  0  0
  -16.8585   12.8759  -21.2266 O   0  0  0  0  0  0  0  0  0  0  0  0
  -17.8861   14.6692  -23.7537 H   0  0  0  0  0  0  0  0  0  0  0  0
  -17.7101   15.0314  -21.1212 C   0  0  0  0  0  0  0  0  0  0  0  0
  -16.8623   16.1098  -21.1211 C   0  0  0  0  0  0  0  0  0  0  0  0
  -17.2096   17.2300  -20.3934 C   0  0  0  0  0  0  0  0  0  0  0  0
  -16.3769   18.2998  -20.3883 F   0  0  0  0  0  0  0  0  0  0  0  0
  -18.4029   17.2315  -19.6858 C   0  0  0  0  0  0  0  0  0  0  0  0
  -18.8497   18.6602  -18.7554 Cl  0  0  0  0  0  0  0  0  0  0  0  0
  -19.2565   16.1553  -19.6815 C   0  0  0  0  0  0  0  0  0  0  0  0
  -18.8807   15.0525  -20.4179 C   0  0  0  0  0  0  0  0  0  0  0  0
  -19.9168   13.6619  -20.4519 Cl  0  0  0  0  0  0  0  0  0  0  0  0
  -17.1204   12.6874  -24.1116 C   0  0  0  0  0  0  0  0  0  0  0  0
  -15.9264   15.1911  -25.3739 C   0  0  0  0  0  0  0  0  0  0  0  0
  -14.8237   15.5406  -26.3525 C   0  0  0  0  0  0  0  0  0  0  0  0
  -15.5473   15.5823  -27.6599 C   0  0  0  0  0  0  0  0  0  0  0  0
  -16.7090   14.6068  -27.4686 C   0  0  0  0  0  0  0  0  0  0  0  0
  -16.6596   14.1968  -26.1005 N   0  0  0  0  0  0  0  0  0  0  0  0
  -17.2226   13.0282  -25.5387 C   0  0  0  0  0  0  0  0  0  0  0  0
  -17.8552   12.2224  -26.3100 O   0  0  0  0  0  0  0  0  0  0  0  0
  -16.2221   17.6267  -25.2769 O   0  0  0  0  0  0  0  0  0  0  0  0
  -16.7569   16.3610  -25.0262 C   0  0  0  0  0  0  0  0  0  0  0  0
  -17.8940   16.3091  -24.5279 O   0  0  0  0  0  0  0  0  0  0  0  0
  -16.2219   18.3622  -24.5850 H   0  0  0  0  0  0  0  0  0  0  0  0
 22 23  1  0  0  0
 23 24  2  0  0  0
 23 15  1  0  0  0
 15 16  1  0  0  0
 16 17  1  0  0  0
 17 18  1  0  0  0
 18 19  1  0  0  0
 19 20  1  0  0  0
 20 21  2  0  0  0
 20 14  1  0  0  0
 14  1  1  0  0  0
  1  2  1  0  0  0
  2  3  2  0  0  0
  2  5  1  0  0  0
  5  6  2  0  0  0
  6  7  1  0  0  0
  7  8  1  0  0  0
  7  9  2  0  0  0
  9 10  1  0  0  0
  9 11  1  0  0  0
 11 12  2  0  0  0
 12 13  1  0  0  0
 19 15  1  0  0  0
 12  5  1  0  0  0
 22 25  1  0  0  0
  1  4  1  0  0  0
M  END
> <minimizedAffinity>
-7.87958

> <CNNscore>
0.3008768857

> <CNNaffinity>
5.7600049973

> <CNN_VS>
1.7330523729

> <CNNaffinity_variance>
0.3670598269

$$$$
[H]OC(=O)[C@@]1([H])N(C(=O)C([H])([H])N([H])C(=O)c2c([H])c(F)c(Cl)c([H])c2Cl)C([H])([H])C([H])([H])C1([H])[H]


 25 26  0  0  0  0  0  0  0  0999 V2000
  -17.1090   13.8505  -22.5125 N   0  0  0  0  0  0  0  0  0  0  0  0
  -16.2244   13.3349  -23.4768 C   0  0  0  0  0  0  0  0  0  0  0  0
  -15.5060   12.3081  -23.2727 O   0  0  0  0  0  0  0  0  0  0  0  0
  -17.6544   14.7197  -22.7969 H   0  0  0  0  0  0  0  0  0  0  0  0
  -16.0726   13.9599  -24.8001 C   0  0  0  0  0  0  0  0  0  0  0  0
  -15.0711   14.8814  -24.9724 C   0  0  0  0  0  0  0  0  0  0  0  0
  -14.9178   15.4751  -26.2090 C   0  0  0  0  0  0  0  0  0  0  0  0
  -13.9305   16.3868  -26.3871 F   0  0  0  0  0  0  0  0  0  0  0  0
  -15.7793   15.1227  -27.2379 C   0  0  0  0  0  0  0  0  0  0  0  0
  -15.5866   15.8787  -28.8183 Cl  0  0  0  0  0  0  0  0  0  0  0  0
  -16.7840   14.2009  -27.0723 C   0  0  0  0  0  0  0  0  0  0  0  0
  -16.9105   13.6265  -25.8257 C   0  0  0  0  0  0  0  0  0  0  0  0
  -18.1605   12.4551  -25.5543 Cl  0  0  0  0  0  0  0  0  0  0  0  0
  -17.3082   13.2922  -21.2207 C   0  0  0  0  0  0  0  0  0  0  0  0
  -18.3919   16.1062  -20.7801 C   0  0  0  0  0  0  0  0  0  0  0  0
  -19.4502   17.0102  -21.3790 C   0  0  0  0  0  0  0  0  0  0  0  0
  -20.6417   16.7333  -20.5199 C   0  0  0  0  0  0  0  0  0  0  0  0
  -20.4283   15.2950  -20.0475 C   0  0  0  0  0  0  0  0  0  0  0  0
  -19.1381   14.9092  -20.5257 N   0  0  0  0  0  0  0  0  0  0  0  0
  -18.6584   13.5941  -20.7219 C   0  0  0  0  0  0  0  0  0  0  0  0
  -19.4380   12.6122  -20.4520 O   0  0  0  0  0  0  0  0  0  0  0  0
  -17.0910   17.8699  -19.6727 O   0  0  0  0  0  0  0  0  0  0  0  0
  -17.8019   16.6737  -19.5516 C   0  0  0  0  0  0  0  0  0  0  0  0
  -17.8873   16.1714  -18.4183 O   0  0  0  0  0  0  0  0  0  0  0  0
  -16.1706   17.9962  -19.2771 H   0  0  0  0  0  0  0  0  0  0  0  0
 22 23  1  0  0  0
 23 24  2  0  0  0
 23 15  1  0  0  0
 15 16  1  0  0  0
 16 17  1  0  0  0
 17 18  1  0  0  0
 18 19  1  0  0  0
 19 20  1  0  0  0
 20 21  2  0  0  0
 20 14  1  0  0  0
 14  1  1  0  0  0
  1  2  1  0  0  0
  2  3  2  0  0  0
  2  5  1  0  0  0
  5  6  2  0  0  0
  6  7  1  0  0  0
  7  8  1  0  0  0
  7  9  2  0  0  0
  9 10  1  0  0  0
  9 11  1  0  0  0
 11 12  2  0  0  0
 12 13  1  0  0  0
 19 15  1  0  0  0
 12  5  1  0  0  0
 22 25  1  0  0  0
  1  4  1  0  0  0
M  END
> <minimizedAffinity>
-7.77431

> <CNNscore>
0.2979990542

> <CNNaffinity>
5.6452398300

> <CNN_VS>
1.6822761297

> <CNNaffinity_variance>
0.1521345824

$$$$
[H]OC(=O)[C@@]1([H])N(C(=O)C([H])([H])N([H])C(=O)c2c([H])c(F)c(Cl)c([H])c2Cl)C([H])([H])C([H])([H])C1([H])[H]


 25 26  0  0  0  0  0  0  0  0999 V2000
  -18.6210   12.5945  -20.3003 N   0  0  0  0  0  0  0  0  0  0  0  0
  -18.5384   12.6371  -18.8969 C   0  0  0  0  0  0  0  0  0  0  0  0
  -18.1621   13.6694  -18.2605 O   0  0  0  0  0  0  0  0  0  0  0  0
  -18.9443   11.6713  -20.7210 H   0  0  0  0  0  0  0  0  0  0  0  0
  -18.8870   11.4742  -18.0658 C   0  0  0  0  0  0  0  0  0  0  0  0
  -19.9472   11.5869  -17.2025 C   0  0  0  0  0  0  0  0  0  0  0  0
  -20.2847   10.5032  -16.4172 C   0  0  0  0  0  0  0  0  0  0  0  0
  -21.3310   10.6068  -15.5615 F   0  0  0  0  0  0  0  0  0  0  0  0
  -19.5433    9.3354  -16.5244 C   0  0  0  0  0  0  0  0  0  0  0  0
  -19.9714    7.9496  -15.5231 Cl  0  0  0  0  0  0  0  0  0  0  0  0
  -18.4807    9.2157  -17.3866 C   0  0  0  0  0  0  0  0  0  0  0  0
  -18.1694   10.3157  -18.1566 C   0  0  0  0  0  0  0  0  0  0  0  0
  -16.8380   10.2262  -19.2646 Cl  0  0  0  0  0  0  0  0  0  0  0  0
  -18.3065   13.6819  -21.1599 C   0  0  0  0  0  0  0  0  0  0  0  0
  -16.8768   15.6413  -23.0049 C   0  0  0  0  0  0  0  0  0  0  0  0
  -15.4860   16.2192  -23.1708 C   0  0  0  0  0  0  0  0  0  0  0  0
  -14.8599   15.2874  -24.1579 C   0  0  0  0  0  0  0  0  0  0  0  0
  -15.5807   13.9604  -23.9194 C   0  0  0  0  0  0  0  0  0  0  0  0
  -16.6070   14.2342  -22.9635 N   0  0  0  0  0  0  0  0  0  0  0  0
  -17.2557   13.3058  -22.1176 C   0  0  0  0  0  0  0  0  0  0  0  0
  -16.9125   12.0721  -22.1867 O   0  0  0  0  0  0  0  0  0  0  0  0
  -17.6442   17.2967  -24.6481 O   0  0  0  0  0  0  0  0  0  0  0  0
  -17.7722   16.0104  -24.1191 C   0  0  0  0  0  0  0  0  0  0  0  0
  -18.6310   15.2674  -24.6236 O   0  0  0  0  0  0  0  0  0  0  0  0
  -18.4376   17.9030  -24.7975 H   0  0  0  0  0  0  0  0  0  0  0  0
 22 23  1  0  0  0
 23 24  2  0  0  0
 23 15  1  0  0  0
 15 16  1  0  0  0
 16 17  1  0  0  0
 17 18  1  0  0  0
 18 19  1  0  0  0
 19 20  1  0  0  0
 20 21  2  0  0  0
 20 14  1  0  0  0
 14  1  1  0  0  0
  1  2  1  0  0  0
  2  3  2  0  0  0
  2  5  1  0  0  0
  5  6  2  0  0  0
  6  7  1  0  0  0
  7  8  1  0  0  0
  7  9  2  0  0  0
  9 10  1  0  0  0
  9 11  1  0  0  0
 11 12  2  0  0  0
 12 13  1  0  0  0
 19 15  1  0  0  0
 12  5  1  0  0  0
 22 25  1  0  0  0
  1  4  1  0  0  0
M  END
> <minimizedAffinity>
-7.41887

> <CNNscore>
0.2963918447

> <CNNaffinity>
5.6064019203

> <CNN_VS>
1.6616917849

> <CNNaffinity_variance>
0.1307303905

$$$$
[H]O[C@]([H])(C([H])([H])[H])[C@]([H])(c1c([H])c([H])c(-c2c([H])c([H])c(C#N)c([H])c2[H])c([H])c1[H])N([H])c1c([H])c([H])c(C(F)(F)F)c([H])c1[H]


 31 33  0  0  0  0  0  0  0  0999 V2000
  -19.5463   19.4109  -17.5554 C   0  0  0  0  0  0  0  0  0  0  0  0
  -19.0470   18.0437  -17.9671 C   0  0  0  0  0  0  0  0  0  0  0  0
  -19.1564   16.9298  -17.1890 C   0  0  0  0  0  0  0  0  0  0  0  0
  -18.7869   15.6536  -17.6005 C   0  0  0  0  0  0  0  0  0  0  0  0
  -18.2885   15.4897  -18.8489 C   0  0  0  0  0  0  0  0  0  0  0  0
  -18.1558   16.5957  -19.6709 C   0  0  0  0  0  0  0  0  0  0  0  0
  -18.5283   17.8707  -19.2346 C   0  0  0  0  0  0  0  0  0  0  0  0
  -17.9881   14.1437  -19.4155 C   0  0  0  0  0  0  0  0  0  0  0  0
  -17.7212   13.8925  -20.7244 C   0  0  0  0  0  0  0  0  0  0  0  0
  -17.3232   12.6557  -21.1744 C   0  0  0  0  0  0  0  0  0  0  0  0
  -17.1902   11.6042  -20.2456 C   0  0  0  0  0  0  0  0  0  0  0  0
  -17.4574   11.8824  -18.9370 C   0  0  0  0  0  0  0  0  0  0  0  0
  -17.8479   13.0991  -18.4776 C   0  0  0  0  0  0  0  0  0  0  0  0
  -16.7182   10.2966  -20.6718 C   0  0  0  0  0  0  0  0  0  0  0  0
  -16.3751    9.2704  -21.0530 N   0  0  0  0  0  0  0  0  0  0  0  0
  -21.5071   20.3402  -18.8757 C   0  0  0  0  0  0  0  0  0  0  0  0
  -20.0325   20.1127  -18.8416 C   0  0  0  0  0  0  0  0  0  0  0  0
  -19.2472   21.2034  -19.1886 O   0  0  0  0  0  0  0  0  0  0  0  0
  -19.2333   21.8338  -18.4758 H   0  0  0  0  0  0  0  0  0  0  0  0
  -20.6872   19.2258  -16.7561 N   0  0  0  0  0  0  0  0  0  0  0  0
  -21.5965   19.0578  -17.3199 H   0  0  0  0  0  0  0  0  0  0  0  0
  -20.8368   19.2459  -15.3362 C   0  0  0  0  0  0  0  0  0  0  0  0
  -21.9712   19.6280  -14.6979 C   0  0  0  0  0  0  0  0  0  0  0  0
  -22.0884   19.5386  -13.2993 C   0  0  0  0  0  0  0  0  0  0  0  0
  -21.0438   19.0666  -12.5248 C   0  0  0  0  0  0  0  0  0  0  0  0
  -19.9025   18.6896  -13.1615 C   0  0  0  0  0  0  0  0  0  0  0  0
  -19.8042   18.7747  -14.5294 C   0  0  0  0  0  0  0  0  0  0  0  0
  -21.2083   18.8653  -11.0482 C   0  0  0  0  0  0  0  0  0  0  0  0
  -21.4096   20.0492  -10.3840 F   0  0  0  0  0  0  0  0  0  0  0  0
  -20.0187   18.2612  -10.5833 F   0  0  0  0  0  0  0  0  0  0  0  0
  -22.2573   17.9449  -10.8371 F   0  0  0  0  0  0  0  0  0  0  0  0
 16 17  1  0  0  0
 17 18  1  0  0  0
 17  1  1  0  0  0
  1 20  1  0  0  0
 20 22  1  0  0  0
 22 23  2  0  0  0
 23 24  1  0  0  0
 24 25  2  0  0  0
 25 26  1  0  0  0
 26 27  2  0  0  0
 25 28  1  0  0  0
 28 29  1  0  0  0
 28 30  1  0  0  0
 28 31  1  0  0  0
  1  2  1  0  0  0
  2  3  2  0  0  0
  3  4  1  0  0  0
  4  5  2  0  0  0
  5  6  1  0  0  0
  6  7  2  0  0  0
  5  8  1  0  0  0
  8  9  2  0  0  0
  9 10  1  0  0  0
 10 11  2  0  0  0
 11 12  1  0  0  0
 12 13  2  0  0  0
 11 14  1  0  0  0
 14 15  3  0  0  0
 27 22  1  0  0  0
  7  2  1  0  0  0
 13  8  1  0  0  0
 18 19  1  0  0  0
 20 21  1  0  0  0
M  END
> <minimizedAffinity>
-6.22868

> <CNNscore>
0.3769656718

> <CNNaffinity>
5.4232573509

> <CNN_VS>
2.0443818569

> <CNNaffinity_variance>
0.3478315771

$$$$
[H]O[C@]([H])(C([H])([H])[H])[C@]([H])(c1c([H])c([H])c(-c2c([H])c([H])c(C#N)c([H])c2[H])c([H])c1[H])N([H])c1c([H])c([H])c(C(F)(F)F)c([H])c1[H]


 31 33  0  0  0  0  0  0  0  0999 V2000
  -17.8266   15.9740  -21.3887 C   0  0  0  0  0  0  0  0  0  0  0  0
  -17.9947   14.8447  -20.3966 C   0  0  0  0  0  0  0  0  0  0  0  0
  -18.4249   15.0182  -19.1148 C   0  0  0  0  0  0  0  0  0  0  0  0
  -18.6729   13.9749  -18.2290 C   0  0  0  0  0  0  0  0  0  0  0  0
  -18.4827   12.7022  -18.6508 C   0  0  0  0  0  0  0  0  0  0  0  0
  -18.0414   12.4810  -19.9442 C   0  0  0  0  0  0  0  0  0  0  0  0
  -17.7927   13.5452  -20.8162 C   0  0  0  0  0  0  0  0  0  0  0  0
  -18.8452   11.5236  -17.8128 C   0  0  0  0  0  0  0  0  0  0  0  0
  -19.8689   11.4897  -16.9192 C   0  0  0  0  0  0  0  0  0  0  0  0
  -20.2431   10.3391  -16.2659 C   0  0  0  0  0  0  0  0  0  0  0  0
  -19.5368    9.1479  -16.5272 C   0  0  0  0  0  0  0  0  0  0  0  0
  -18.5178    9.2058  -17.4324 C   0  0  0  0  0  0  0  0  0  0  0  0
  -18.1392   10.3333  -18.0875 C   0  0  0  0  0  0  0  0  0  0  0  0
  -19.9365    7.8986  -15.8995 C   0  0  0  0  0  0  0  0  0  0  0  0
  -20.2221    6.8867  -15.4407 N   0  0  0  0  0  0  0  0  0  0  0  0
  -16.0524   17.5497  -20.4829 C   0  0  0  0  0  0  0  0  0  0  0  0
  -17.5104   17.2431  -20.5685 C   0  0  0  0  0  0  0  0  0  0  0  0
  -18.3321   18.3130  -20.8955 O   0  0  0  0  0  0  0  0  0  0  0  0
  -18.2520   18.5130  -21.8224 H   0  0  0  0  0  0  0  0  0  0  0  0
  -16.6772   15.7049  -22.1511 N   0  0  0  0  0  0  0  0  0  0  0  0
  -15.7567   15.7248  -21.5807 H   0  0  0  0  0  0  0  0  0  0  0  0
  -16.5327   15.4345  -23.5456 C   0  0  0  0  0  0  0  0  0  0  0  0
  -17.3786   14.6488  -24.2579 C   0  0  0  0  0  0  0  0  0  0  0  0
  -17.2364   14.4943  -25.6485 C   0  0  0  0  0  0  0  0  0  0  0  0
  -16.2197   15.1320  -26.3366 C   0  0  0  0  0  0  0  0  0  0  0  0
  -15.3655   15.9146  -25.6238 C   0  0  0  0  0  0  0  0  0  0  0  0
  -15.5207   16.0631  -24.2666 C   0  0  0  0  0  0  0  0  0  0  0  0
  -16.1359   15.0580  -27.8317 C   0  0  0  0  0  0  0  0  0  0  0  0
  -16.7828   16.1051  -28.4386 F   0  0  0  0  0  0  0  0  0  0  0  0
  -16.7455   13.8424  -28.2153 F   0  0  0  0  0  0  0  0  0  0  0  0
  -14.7754   14.9802  -28.1994 F   0  0  0  0  0  0  0  0  0  0  0  0
 16 17  1  0  0  0
 17 18  1  0  0  0
 17  1  1  0  0  0
  1 20  1  0  0  0
 20 22  1  0  0  0
 22 23  2  0  0  0
 23 24  1  0  0  0
 24 25  2  0  0  0
 25 26  1  0  0  0
 26 27  2  0  0  0
 25 28  1  0  0  0
 28 29  1  0  0  0
 28 30  1  0  0  0
 28 31  1  0  0  0
  1  2  1  0  0  0
  2  3  2  0  0  0
  3  4  1  0  0  0
  4  5  2  0  0  0
  5  6  1  0  0  0
  6  7  2  0  0  0
  5  8  1  0  0  0
  8  9  2  0  0  0
  9 10  1  0  0  0
 10 11  2  0  0  0
 11 12  1  0  0  0
 12 13  2  0  0  0
 11 14  1  0  0  0
 14 15  3  0  0  0
 27 22  1  0  0  0
  7  2  1  0  0  0
 13  8  1  0  0  0
 18 19  1  0  0  0
 20 21  1  0  0  0
M  END
> <minimizedAffinity>
-9.31372

> <CNNscore>
0.2907496989

> <CNNaffinity>
5.8630342484

> <CNN_VS>
1.7046754360

> <CNNaffinity_variance>
0.3670944273

$$$$
[H]O[C@]([H])(C([H])([H])[H])[C@]([H])(c1c([H])c([H])c(-c2c([H])c([H])c(C#N)c([H])c2[H])c([H])c1[H])N([H])c1c([H])c([H])c(C(F)(F)F)c([H])c1[H]


 31 33  0  0  0  0  0  0  0  0999 V2000
  -20.7298    9.9220  -14.7138 C   0  0  0  0  0  0  0  0  0  0  0  0
  -19.9436   10.3381  -15.9371 C   0  0  0  0  0  0  0  0  0  0  0  0
  -19.1200    9.5021  -16.6306 C   0  0  0  0  0  0  0  0  0  0  0  0
  -18.4704    9.8512  -17.8099 C   0  0  0  0  0  0  0  0  0  0  0  0
  -18.6590   11.0933  -18.3153 C   0  0  0  0  0  0  0  0  0  0  0  0
  -19.4840   11.9762  -17.6398 C   0  0  0  0  0  0  0  0  0  0  0  0
  -20.1227   11.6062  -16.4525 C   0  0  0  0  0  0  0  0  0  0  0  0
  -18.1060   11.5073  -19.6365 C   0  0  0  0  0  0  0  0  0  0  0  0
  -18.4794   12.6201  -20.3220 C   0  0  0  0  0  0  0  0  0  0  0  0
  -17.8476   13.0266  -21.4736 C   0  0  0  0  0  0  0  0  0  0  0  0
  -16.7737   12.2594  -21.9677 C   0  0  0  0  0  0  0  0  0  0  0  0
  -16.4134   11.1508  -21.2589 C   0  0  0  0  0  0  0  0  0  0  0  0
  -17.0255   10.7389  -20.1189 C   0  0  0  0  0  0  0  0  0  0  0  0
  -16.0436   12.6854  -23.1508 C   0  0  0  0  0  0  0  0  0  0  0  0
  -15.4548   13.0671  -24.0584 N   0  0  0  0  0  0  0  0  0  0  0  0
  -19.2995    8.4930  -13.1764 C   0  0  0  0  0  0  0  0  0  0  0  0
  -20.2433    8.5074  -14.3324 C   0  0  0  0  0  0  0  0  0  0  0  0
  -21.2751    7.5805  -14.2785 O   0  0  0  0  0  0  0  0  0  0  0  0
  -21.9334    7.8630  -13.6520 H   0  0  0  0  0  0  0  0  0  0  0  0
  -20.3498   10.7646  -13.6552 N   0  0  0  0  0  0  0  0  0  0  0  0
  -19.2784   10.8393  -13.5156 H   0  0  0  0  0  0  0  0  0  0  0  0
  -21.1452   11.5105  -12.7335 C   0  0  0  0  0  0  0  0  0  0  0  0
  -20.9866   11.4686  -11.3869 C   0  0  0  0  0  0  0  0  0  0  0  0
  -21.7404   12.2966  -10.5359 C   0  0  0  0  0  0  0  0  0  0  0  0
  -22.6788   13.1764  -11.0447 C   0  0  0  0  0  0  0  0  0  0  0  0
  -22.8452   13.2154  -12.3941 C   0  0  0  0  0  0  0  0  0  0  0  0
  -22.0965   12.4065  -13.2146 C   0  0  0  0  0  0  0  0  0  0  0  0
  -23.4003   14.1376  -10.1483 C   0  0  0  0  0  0  0  0  0  0  0  0
  -24.3112   14.9009  -10.8346 F   0  0  0  0  0  0  0  0  0  0  0  0
  -22.4189   14.9775   -9.5758 F   0  0  0  0  0  0  0  0  0  0  0  0
  -23.9941   13.4074   -9.0965 F   0  0  0  0  0  0  0  0  0  0  0  0
 16 17  1  0  0  0
 17 18  1  0  0  0
 17  1  1  0  0  0
  1 20  1  0  0  0
 20 22  1  0  0  0
 22 23  2  0  0  0
 23 24  1  0  0  0
 24 25  2  0  0  0
 25 26  1  0  0  0
 26 27  2  0  0  0
 25 28  1  0  0  0
 28 29  1  0  0  0
 28 30  1  0  0  0
 28 31  1  0  0  0
  1  2  1  0  0  0
  2  3  2  0  0  0
  3  4  1  0  0  0
  4  5  2  0  0  0
  5  6  1  0  0  0
  6  7  2  0  0  0
  5  8  1  0  0  0
  8  9  2  0  0  0
  9 10  1  0  0  0
 10 11  2  0  0  0
 11 12  1  0  0  0
 12 13  2  0  0  0
 11 14  1  0  0  0
 14 15  3  0  0  0
 27 22  1  0  0  0
  7  2  1  0  0  0
 13  8  1  0  0  0
 18 19  1  0  0  0
 20 21  1  0  0  0
M  END
> <minimizedAffinity>
-7.21759

> <CNNscore>
0.2423693240

> <CNNaffinity>
5.2402749062

> <CNN_VS>
1.2700818777

> <CNNaffinity_variance>
0.1881848723

$$$$
[H]O[C@]([H])(C([H])([H])[H])[C@]([H])(c1c([H])c([H])c(-c2c([H])c([H])c(C#N)c([H])c2[H])c([H])c1[H])N([H])c1c([H])c([H])c(C(F)(F)F)c([H])c1[H]


 31 33  0  0  0  0  0  0  0  0999 V2000
  -16.5451   11.8839  -20.8283 C   0  0  0  0  0  0  0  0  0  0  0  0
  -17.5627   11.9861  -19.7139 C   0  0  0  0  0  0  0  0  0  0  0  0
  -18.6147   12.8530  -19.7239 C   0  0  0  0  0  0  0  0  0  0  0  0
  -19.6063   12.8849  -18.7490 C   0  0  0  0  0  0  0  0  0  0  0  0
  -19.5389   12.0057  -17.7213 C   0  0  0  0  0  0  0  0  0  0  0  0
  -18.4839   11.1108  -17.6697 C   0  0  0  0  0  0  0  0  0  0  0  0
  -17.4947   11.1000  -18.6576 C   0  0  0  0  0  0  0  0  0  0  0  0
  -20.6232   11.8847  -16.7052 C   0  0  0  0  0  0  0  0  0  0  0  0
  -21.1432   10.7110  -16.2584 C   0  0  0  0  0  0  0  0  0  0  0  0
  -22.0504   10.6485  -15.2270 C   0  0  0  0  0  0  0  0  0  0  0  0
  -22.4627   11.8466  -14.6101 C   0  0  0  0  0  0  0  0  0  0  0  0
  -21.9221   13.0110  -15.0717 C   0  0  0  0  0  0  0  0  0  0  0  0
  -21.0233   13.0879  -16.0865 C   0  0  0  0  0  0  0  0  0  0  0  0
  -23.3773   11.8194  -13.4799 C   0  0  0  0  0  0  0  0  0  0  0  0
  -24.1333   11.8280  -12.6170 N   0  0  0  0  0  0  0  0  0  0  0  0
  -17.1617    9.4819  -21.3777 C   0  0  0  0  0  0  0  0  0  0  0  0
  -16.0981   10.4075  -20.8883 C   0  0  0  0  0  0  0  0  0  0  0  0
  -14.8475   10.2477  -21.4689 O   0  0  0  0  0  0  0  0  0  0  0  0
  -14.8494   10.6087  -22.3494 H   0  0  0  0  0  0  0  0  0  0  0  0
  -17.2109   12.1401  -22.0391 N   0  0  0  0  0  0  0  0  0  0  0  0
  -18.1485   11.6087  -22.1463 H   0  0  0  0  0  0  0  0  0  0  0  0
  -16.8390   12.9637  -23.1446 C   0  0  0  0  0  0  0  0  0  0  0  0
  -15.5559   13.2127  -23.5078 C   0  0  0  0  0  0  0  0  0  0  0  0
  -15.2542   13.9577  -24.6619 C   0  0  0  0  0  0  0  0  0  0  0  0
  -16.2591   14.4717  -25.4617 C   0  0  0  0  0  0  0  0  0  0  0  0
  -17.5468   14.2298  -25.0960 C   0  0  0  0  0  0  0  0  0  0  0  0
  -17.8273   13.4937  -23.9702 C   0  0  0  0  0  0  0  0  0  0  0  0
  -15.9389   15.1679  -26.7503 C   0  0  0  0  0  0  0  0  0  0  0  0
  -16.4321   14.4937  -27.8391 F   0  0  0  0  0  0  0  0  0  0  0  0
  -14.5304   15.2370  -26.8381 F   0  0  0  0  0  0  0  0  0  0  0  0
  -16.4206   16.4923  -26.6740 F   0  0  0  0  0  0  0  0  0  0  0  0
 16 17  1  0  0  0
 17 18  1  0  0  0
 17  1  1  0  0  0
  1 20  1  0  0  0
 20 22  1  0  0  0
 22 23  2  0  0  0
 23 24  1  0  0  0
 24 25  2  0  0  0
 25 26  1  0  0  0
 26 27  2  0  0  0
 25 28  1  0  0  0
 28 29  1  0  0  0
 28 30  1  0  0  0
 28 31  1  0  0  0
  1  2  1  0  0  0
  2  3  2  0  0  0
  3  4  1  0  0  0
  4  5  2  0  0  0
  5  6  1  0  0  0
  6  7  2  0  0  0
  5  8  1  0  0  0
  8  9  2  0  0  0
  9 10  1  0  0  0
 10 11  2  0  0  0
 11 12  1  0  0  0
 12 13  2  0  0  0
 11 14  1  0  0  0
 14 15  3  0  0  0
 27 22  1  0  0  0
  7  2  1  0  0  0
 13  8  1  0  0  0
 18 19  1  0  0  0
 20 21  1  0  0  0
M  END
> <minimizedAffinity>
-8.05980

> <CNNscore>
0.2286188602

> <CNNaffinity>
5.7959771156

> <CNN_VS>
1.3250696659

> <CNNaffinity_variance>
0.1390585005

$$$$
[H]O[C@]([H])(C([H])([H])[H])[C@]([H])(c1c([H])c([H])c(-c2c([H])c([H])c(C#N)c([H])c2[H])c([H])c1[H])N([H])c1c([H])c([H])c(C(F)(F)F)c([H])c1[H]


 31 33  0  0  0  0  0  0  0  0999 V2000
  -21.5034   10.1347  -14.7833 C   0  0  0  0  0  0  0  0  0  0  0  0
  -20.5113   10.4720  -15.8742 C   0  0  0  0  0  0  0  0  0  0  0  0
  -19.6590    9.5659  -16.4316 C   0  0  0  0  0  0  0  0  0  0  0  0
  -18.8134    9.8472  -17.4995 C   0  0  0  0  0  0  0  0  0  0  0  0
  -18.8272   11.0924  -18.0318 C   0  0  0  0  0  0  0  0  0  0  0  0
  -19.6746   12.0451  -17.4925 C   0  0  0  0  0  0  0  0  0  0  0  0
  -20.5123   11.7421  -16.4149 C   0  0  0  0  0  0  0  0  0  0  0  0
  -18.0504   11.4436  -19.2549 C   0  0  0  0  0  0  0  0  0  0  0  0
  -17.0459   10.6937  -19.7805 C   0  0  0  0  0  0  0  0  0  0  0  0
  -16.4481   10.9950  -20.9815 C   0  0  0  0  0  0  0  0  0  0  0  0
  -16.8885   12.1272  -21.6956 C   0  0  0  0  0  0  0  0  0  0  0  0
  -17.9021   12.8602  -21.1510 C   0  0  0  0  0  0  0  0  0  0  0  0
  -18.5040   12.5732  -19.9681 C   0  0  0  0  0  0  0  0  0  0  0  0
  -16.3210   12.4483  -22.9954 C   0  0  0  0  0  0  0  0  0  0  0  0
  -15.8911   12.7522  -24.0146 N   0  0  0  0  0  0  0  0  0  0  0  0
  -23.2615    8.4333  -15.4655 C   0  0  0  0  0  0  0  0  0  0  0  0
  -22.8559    9.8695  -15.4786 C   0  0  0  0  0  0  0  0  0  0  0  0
  -23.8389   10.7758  -15.1056 O   0  0  0  0  0  0  0  0  0  0  0  0
  -23.9631   10.7507  -14.1624 H   0  0  0  0  0  0  0  0  0  0  0  0
  -21.1109    8.9119  -14.2126 N   0  0  0  0  0  0  0  0  0  0  0  0
  -21.5782    8.0458  -14.6645 H   0  0  0  0  0  0  0  0  0  0  0  0
  -20.2208    8.6380  -13.1303 C   0  0  0  0  0  0  0  0  0  0  0  0
  -19.6361    7.4330  -12.9148 C   0  0  0  0  0  0  0  0  0  0  0  0
  -18.6964    7.2503  -11.8845 C   0  0  0  0  0  0  0  0  0  0  0  0
  -18.3440    8.2937  -11.0475 C   0  0  0  0  0  0  0  0  0  0  0  0
  -18.9341    9.5013  -11.2565 C   0  0  0  0  0  0  0  0  0  0  0  0
  -19.8448    9.6681  -12.2718 C   0  0  0  0  0  0  0  0  0  0  0  0
  -17.2612    8.1289  -10.0236 C   0  0  0  0  0  0  0  0  0  0  0  0
  -16.3695    7.1442  -10.3675 F   0  0  0  0  0  0  0  0  0  0  0  0
  -17.8964    7.7853   -8.8091 F   0  0  0  0  0  0  0  0  0  0  0  0
  -16.6347    9.3789   -9.8311 F   0  0  0  0  0  0  0  0  0  0  0  0
 16 17  1  0  0  0
 17 18  1  0  0  0
 17  1  1  0  0  0
  1 20  1  0  0  0
 20 22  1  0  0  0
 22 23  2  0  0  0
 23 24  1  0  0  0
 24 25  2  0  0  0
 25 26  1  0  0  0
 26 27  2  0  0  0
 25 28  1  0  0  0
 28 29  1  0  0  0
 28 30  1  0  0  0
 28 31  1  0  0  0
  1  2  1  0  0  0
  2  3  2  0  0  0
  3  4  1  0  0  0
  4  5  2  0  0  0
  5  6  1  0  0  0
  6  7  2  0  0  0
  5  8  1  0  0  0
  8  9  2  0  0  0
  9 10  1  0  0  0
 10 11  2  0  0  0
 11 12  1  0  0  0
 12 13  2  0  0  0
 11 14  1  0  0  0
 14 15  3  0  0  0
 27 22  1  0  0  0
  7  2  1  0  0  0
 13  8  1  0  0  0
 18 19  1  0  0  0
 20 21  1  0  0  0
M  END
> <minimizedAffinity>
-8.33313

> <CNNscore>
0.2247026414

> <CNNaffinity>
5.0832834244

> <CNN_VS>
1.1422271729

> <CNNaffinity_variance>
0.2989186049

$$$$
[H]O[C@]([H])(C([H])([H])[H])[C@]([H])(c1c([H])c([H])c(-c2c([H])c([H])c(C#N)c([H])c2[H])c([H])c1[H])N([H])c1c([H])c([H])c(C(F)(F)F)c([H])c1[H]


 31 33  0  0  0  0  0  0  0  0999 V2000
  -16.8090   12.5104  -20.8822 C   0  0  0  0  0  0  0  0  0  0  0  0
  -18.0325   13.3810  -20.7003 C   0  0  0  0  0  0  0  0  0  0  0  0
  -19.2421   12.9123  -20.2817 C   0  0  0  0  0  0  0  0  0  0  0  0
  -20.3427   13.7218  -20.0208 C   0  0  0  0  0  0  0  0  0  0  0  0
  -20.2212   15.0605  -20.1851 C   0  0  0  0  0  0  0  0  0  0  0  0
  -19.0110   15.5784  -20.6138 C   0  0  0  0  0  0  0  0  0  0  0  0
  -17.9191   14.7455  -20.8759 C   0  0  0  0  0  0  0  0  0  0  0  0
  -21.3062   16.0104  -19.8069 C   0  0  0  0  0  0  0  0  0  0  0  0
  -22.0922   16.6842  -20.6878 C   0  0  0  0  0  0  0  0  0  0  0  0
  -23.1634   17.4487  -20.2891 C   0  0  0  0  0  0  0  0  0  0  0  0
  -23.4578   17.5430  -18.9142 C   0  0  0  0  0  0  0  0  0  0  0  0
  -22.6587   16.8527  -18.0504 C   0  0  0  0  0  0  0  0  0  0  0  0
  -21.6000   16.0915  -18.4294 C   0  0  0  0  0  0  0  0  0  0  0  0
  -24.6146   18.2953  -18.4558 C   0  0  0  0  0  0  0  0  0  0  0  0
  -25.5037   18.8933  -18.0459 N   0  0  0  0  0  0  0  0  0  0  0  0
  -16.5561    9.9942  -20.6455 C   0  0  0  0  0  0  0  0  0  0  0  0
  -17.0190   11.2591  -20.0028 C   0  0  0  0  0  0  0  0  0  0  0  0
  -16.6122   11.4506  -18.6896 O   0  0  0  0  0  0  0  0  0  0  0  0
  -15.6933   11.6970  -18.6665 H   0  0  0  0  0  0  0  0  0  0  0  0
  -16.8019   12.0566  -22.2122 N   0  0  0  0  0  0  0  0  0  0  0  0
  -16.9722   10.9920  -22.3144 H   0  0  0  0  0  0  0  0  0  0  0  0
  -16.5866   12.7666  -23.4322 C   0  0  0  0  0  0  0  0  0  0  0  0
  -17.5193   12.8983  -24.4084 C   0  0  0  0  0  0  0  0  0  0  0  0
  -17.2789   13.6875  -25.5474 C   0  0  0  0  0  0  0  0  0  0  0  0
  -16.0757   14.3492  -25.7154 C   0  0  0  0  0  0  0  0  0  0  0  0
  -15.1358   14.2130  -24.7416 C   0  0  0  0  0  0  0  0  0  0  0  0
  -15.3868   13.4452  -23.6301 C   0  0  0  0  0  0  0  0  0  0  0  0
  -15.8620   15.2791  -26.8719 C   0  0  0  0  0  0  0  0  0  0  0  0
  -14.5304   15.5017  -27.1177 F   0  0  0  0  0  0  0  0  0  0  0  0
  -16.4889   16.4999  -26.5356 F   0  0  0  0  0  0  0  0  0  0  0  0
  -16.5366   14.7561  -27.9960 F   0  0  0  0  0  0  0  0  0  0  0  0
 16 17  1  0  0  0
 17 18  1  0  0  0
 17  1  1  0  0  0
  1 20  1  0  0  0
 20 22  1  0  0  0
 22 23  2  0  0  0
 23 24  1  0  0  0
 24 25  2  0  0  0
 25 26  1  0  0  0
 26 27  2  0  0  0
 25 28  1  0  0  0
 28 29  1  0  0  0
 28 30  1  0  0  0
 28 31  1  0  0  0
  1  2  1  0  0  0
  2  3  2  0  0  0
  3  4  1  0  0  0
  4  5  2  0  0  0
  5  6  1  0  0  0
  6  7  2  0  0  0
  5  8  1  0  0  0
  8  9  2  0  0  0
  9 10  1  0  0  0
 10 11  2  0  0  0
 11 12  1  0  0  0
 12 13  2  0  0  0
 11 14  1  0  0  0
 14 15  3  0  0  0
 27 22  1  0  0  0
  7  2  1  0  0  0
 13  8  1  0  0  0
 18 19  1  0  0  0
 20 21  1  0  0  0
M  END
> <minimizedAffinity>
-8.53999

> <CNNscore>
0.2020355761

> <CNNaffinity>
5.8305153847

> <CNN_VS>
1.1779714823

> <CNNaffinity_variance>
0.2852198184

$$$$
[H]O[C@]([H])(C([H])([H])[H])[C@]([H])(c1c([H])c([H])c(-c2c([H])c([H])c(C#N)c([H])c2[H])c([H])c1[H])N([H])c1c([H])c([H])c(C(F)(F)F)c([H])c1[H]


 31 33  0  0  0  0  0  0  0  0999 V2000
  -16.8812   12.5146  -20.8170 C   0  0  0  0  0  0  0  0  0  0  0  0
  -17.9818   13.5031  -20.5013 C   0  0  0  0  0  0  0  0  0  0  0  0
  -17.8036   14.8542  -20.4742 C   0  0  0  0  0  0  0  0  0  0  0  0
  -18.8313   15.7711  -20.2796 C   0  0  0  0  0  0  0  0  0  0  0  0
  -20.0928   15.3099  -20.1075 C   0  0  0  0  0  0  0  0  0  0  0  0
  -20.3176   13.9440  -20.1230 C   0  0  0  0  0  0  0  0  0  0  0  0
  -19.2687   13.0398  -20.3145 C   0  0  0  0  0  0  0  0  0  0  0  0
  -21.2687   16.2223  -20.0209 C   0  0  0  0  0  0  0  0  0  0  0  0
  -22.0162   16.4242  -18.9036 C   0  0  0  0  0  0  0  0  0  0  0  0
  -23.0098   17.3725  -18.8394 C   0  0  0  0  0  0  0  0  0  0  0  0
  -23.2690   18.1645  -19.9759 C   0  0  0  0  0  0  0  0  0  0  0  0
  -22.5015   17.9476  -21.0828 C   0  0  0  0  0  0  0  0  0  0  0  0
  -21.5152   17.0176  -21.1599 C   0  0  0  0  0  0  0  0  0  0  0  0
  -24.2728   19.2155  -19.9312 C   0  0  0  0  0  0  0  0  0  0  0  0
  -25.0261   20.0805  -19.9078 N   0  0  0  0  0  0  0  0  0  0  0  0
  -16.6574    9.9966  -20.5702 C   0  0  0  0  0  0  0  0  0  0  0  0
  -17.1448   11.2641  -19.9511 C   0  0  0  0  0  0  0  0  0  0  0  0
  -16.8057   11.4520  -18.6183 O   0  0  0  0  0  0  0  0  0  0  0  0
  -15.8876   11.6924  -18.5472 H   0  0  0  0  0  0  0  0  0  0  0  0
  -17.0438   12.1069  -22.1520 N   0  0  0  0  0  0  0  0  0  0  0  0
  -17.4128   11.0945  -22.2607 H   0  0  0  0  0  0  0  0  0  0  0  0
  -16.7813   12.8018  -23.3714 C   0  0  0  0  0  0  0  0  0  0  0  0
  -17.7183   13.0495  -24.3206 C   0  0  0  0  0  0  0  0  0  0  0  0
  -17.4198   13.8194  -25.4591 C   0  0  0  0  0  0  0  0  0  0  0  0
  -16.1541   14.3423  -25.6545 C   0  0  0  0  0  0  0  0  0  0  0  0
  -15.2105   14.0893  -24.7080 C   0  0  0  0  0  0  0  0  0  0  0  0
  -15.5178   13.3422  -23.5965 C   0  0  0  0  0  0  0  0  0  0  0  0
  -15.8666   15.2552  -26.8086 C   0  0  0  0  0  0  0  0  0  0  0  0
  -16.4414   16.4908  -26.6465 F   0  0  0  0  0  0  0  0  0  0  0  0
  -16.3991   14.6360  -27.9616 F   0  0  0  0  0  0  0  0  0  0  0  0
  -14.4677   15.3309  -26.9804 F   0  0  0  0  0  0  0  0  0  0  0  0
 16 17  1  0  0  0
 17 18  1  0  0  0
 17  1  1  0  0  0
  1 20  1  0  0  0
 20 22  1  0  0  0
 22 23  2  0  0  0
 23 24  1  0  0  0
 24 25  2  0  0  0
 25 26  1  0  0  0
 26 27  2  0  0  0
 25 28  1  0  0  0
 28 29  1  0  0  0
 28 30  1  0  0  0
 28 31  1  0  0  0
  1  2  1  0  0  0
  2  3  2  0  0  0
  3  4  1  0  0  0
  4  5  2  0  0  0
  5  6  1  0  0  0
  6  7  2  0  0  0
  5  8  1  0  0  0
  8  9  2  0  0  0
  9 10  1  0  0  0
 10 11  2  0  0  0
 11 12  1  0  0  0
 12 13  2  0  0  0
 11 14  1  0  0  0
 14 15  3  0  0  0
 27 22  1  0  0  0
  7  2  1  0  0  0
 13  8  1  0  0  0
 18 19  1  0  0  0
 20 21  1  0  0  0
M  END
> <minimizedAffinity>
-8.35037

> <CNNscore>
0.1907212138

> <CNNaffinity>
5.7669820786

> <CNN_VS>
1.0998858213

> <CNNaffinity_variance>
0.3363607526

$$$$
[H]O[C@]([H])(C([H])([H])[H])[C@]([H])(c1c([H])c([H])c(-c2c([H])c([H])c(C#N)c([H])c2[H])c([H])c1[H])N([H])c1c([H])c([H])c(C(F)(F)F)c([H])c1[H]


 31 33  0  0  0  0  0  0  0  0999 V2000
  -17.0766   11.9301  -20.0602 C   0  0  0  0  0  0  0  0  0  0  0  0
  -17.9473   11.4412  -18.9240 C   0  0  0  0  0  0  0  0  0  0  0  0
  -18.8882   12.2086  -18.3044 C   0  0  0  0  0  0  0  0  0  0  0  0
  -19.7565   11.7364  -17.3257 C   0  0  0  0  0  0  0  0  0  0  0  0
  -19.6773   10.4360  -16.9560 C   0  0  0  0  0  0  0  0  0  0  0  0
  -18.7320    9.6223  -17.5568 C   0  0  0  0  0  0  0  0  0  0  0  0
  -17.8651   10.1194  -18.5345 C   0  0  0  0  0  0  0  0  0  0  0  0
  -20.6500    9.8167  -16.0111 C   0  0  0  0  0  0  0  0  0  0  0  0
  -20.3844    8.7533  -15.2072 C   0  0  0  0  0  0  0  0  0  0  0  0
  -21.2731    8.3012  -14.2604 C   0  0  0  0  0  0  0  0  0  0  0  0
  -22.5102    8.9610  -14.1184 C   0  0  0  0  0  0  0  0  0  0  0  0
  -22.7510   10.0293  -14.9319 C   0  0  0  0  0  0  0  0  0  0  0  0
  -21.8822   10.4890  -15.8687 C   0  0  0  0  0  0  0  0  0  0  0  0
  -23.4541    8.5493  -13.0917 C   0  0  0  0  0  0  0  0  0  0  0  0
  -24.2346    8.2142  -12.3206 N   0  0  0  0  0  0  0  0  0  0  0  0
  -15.6780   10.9382  -21.9340 C   0  0  0  0  0  0  0  0  0  0  0  0
  -16.3377   10.6947  -20.6176 C   0  0  0  0  0  0  0  0  0  0  0  0
  -15.5573   10.0587  -19.6620 O   0  0  0  0  0  0  0  0  0  0  0  0
  -14.9197   10.6682  -19.3048 H   0  0  0  0  0  0  0  0  0  0  0  0
  -17.9258   12.3743  -21.0881 N   0  0  0  0  0  0  0  0  0  0  0  0
  -18.5176   11.5879  -21.5401 H   0  0  0  0  0  0  0  0  0  0  0  0
  -18.1122   13.6792  -21.6369 C   0  0  0  0  0  0  0  0  0  0  0  0
  -18.6332   14.7251  -20.9478 C   0  0  0  0  0  0  0  0  0  0  0  0
  -18.7066   16.0101  -21.5147 C   0  0  0  0  0  0  0  0  0  0  0  0
  -18.2583   16.2485  -22.8015 C   0  0  0  0  0  0  0  0  0  0  0  0
  -17.7421   15.2000  -23.4976 C   0  0  0  0  0  0  0  0  0  0  0  0
  -17.6691   13.9513  -22.9288 C   0  0  0  0  0  0  0  0  0  0  0  0
  -18.2323   17.6380  -23.3640 C   0  0  0  0  0  0  0  0  0  0  0  0
  -19.4671   18.0394  -23.8085 F   0  0  0  0  0  0  0  0  0  0  0  0
  -17.3244   17.6236  -24.4465 F   0  0  0  0  0  0  0  0  0  0  0  0
  -17.7047   18.5065  -22.3845 F   0  0  0  0  0  0  0  0  0  0  0  0
 16 17  1  0  0  0
 17 18  1  0  0  0
 17  1  1  0  0  0
  1 20  1  0  0  0
 20 22  1  0  0  0
 22 23  2  0  0  0
 23 24  1  0  0  0
 24 25  2  0  0  0
 25 26  1  0  0  0
 26 27  2  0  0  0
 25 28  1  0  0  0
 28 29  1  0  0  0
 28 30  1  0  0  0
 28 31  1  0  0  0
  1  2  1  0  0  0
  2  3  2  0  0  0
  3  4  1  0  0  0
  4  5  2  0  0  0
  5  6  1  0  0  0
  6  7  2  0  0  0
  5  8  1  0  0  0
  8  9  2  0  0  0
  9 10  1  0  0  0
 10 11  2  0  0  0
 11 12  1  0  0  0
 12 13  2  0  0  0
 11 14  1  0  0  0
 14 15  3  0  0  0
 27 22  1  0  0  0
  7  2  1  0  0  0
 13  8  1  0  0  0
 18 19  1  0  0  0
 20 21  1  0  0  0
M  END
> <minimizedAffinity>
-7.77976

> <CNNscore>
0.1839171052

> <CNNaffinity>
5.5866799355

> <CNN_VS>
1.0274859667

> <CNNaffinity_variance>
0.1103054658

$$$$
[H]O[C@]([H])(C([H])([H])[H])[C@]([H])(c1c([H])c([H])c(-c2c([H])c([H])c(C#N)c([H])c2[H])c([H])c1[H])N([H])c1c([H])c([H])c(C(F)(F)F)c([H])c1[H]


 31 33  0  0  0  0  0  0  0  0999 V2000
  -17.0877   12.4577  -20.4108 C   0  0  0  0  0  0  0  0  0  0  0  0
  -18.2573   13.1946  -19.7967 C   0  0  0  0  0  0  0  0  0  0  0  0
  -18.1300   14.1571  -18.8399 C   0  0  0  0  0  0  0  0  0  0  0  0
  -19.1919   14.9046  -18.3415 C   0  0  0  0  0  0  0  0  0  0  0  0
  -20.4349   14.6765  -18.8281 C   0  0  0  0  0  0  0  0  0  0  0  0
  -20.6098   13.7040  -19.7977 C   0  0  0  0  0  0  0  0  0  0  0  0
  -19.5288   12.9602  -20.2803 C   0  0  0  0  0  0  0  0  0  0  0  0
  -21.6058   15.5161  -18.4451 C   0  0  0  0  0  0  0  0  0  0  0  0
  -22.2753   15.4259  -17.2655 C   0  0  0  0  0  0  0  0  0  0  0  0
  -23.2660   16.3096  -16.9074 C   0  0  0  0  0  0  0  0  0  0  0  0
  -23.6061   17.3477  -17.7977 C   0  0  0  0  0  0  0  0  0  0  0  0
  -22.9160   17.4213  -18.9722 C   0  0  0  0  0  0  0  0  0  0  0  0
  -21.9335   16.5583  -19.3378 C   0  0  0  0  0  0  0  0  0  0  0  0
  -24.6088   18.3356  -17.4328 C   0  0  0  0  0  0  0  0  0  0  0  0
  -25.4376   19.0768  -17.1501 N   0  0  0  0  0  0  0  0  0  0  0  0
  -16.6831    9.9767  -20.7741 C   0  0  0  0  0  0  0  0  0  0  0  0
  -17.0902   11.0373  -19.8063 C   0  0  0  0  0  0  0  0  0  0  0  0
  -16.4794   10.9821  -18.5611 O   0  0  0  0  0  0  0  0  0  0  0  0
  -15.5819   11.2919  -18.6252 H   0  0  0  0  0  0  0  0  0  0  0  0
  -17.3550   12.2996  -21.7814 N   0  0  0  0  0  0  0  0  0  0  0  0
  -17.9788   11.4448  -22.0120 H   0  0  0  0  0  0  0  0  0  0  0  0
  -16.9207   13.0669  -22.9046 C   0  0  0  0  0  0  0  0  0  0  0  0
  -15.6593   13.0363  -23.4025 C   0  0  0  0  0  0  0  0  0  0  0  0
  -15.3160   13.7451  -24.5677 C   0  0  0  0  0  0  0  0  0  0  0  0
  -16.2537   14.5077  -25.2408 C   0  0  0  0  0  0  0  0  0  0  0  0
  -17.5176   14.5460  -24.7397 C   0  0  0  0  0  0  0  0  0  0  0  0
  -17.8414   13.8424  -23.6047 C   0  0  0  0  0  0  0  0  0  0  0  0
  -15.9174   15.1708  -26.5428 C   0  0  0  0  0  0  0  0  0  0  0  0
  -14.5627   15.2696  -26.7384 F   0  0  0  0  0  0  0  0  0  0  0  0
  -16.4822   16.4652  -26.4997 F   0  0  0  0  0  0  0  0  0  0  0  0
  -16.5611   14.4658  -27.5823 F   0  0  0  0  0  0  0  0  0  0  0  0
 16 17  1  0  0  0
 17 18  1  0  0  0
 17  1  1  0  0  0
  1 20  1  0  0  0
 20 22  1  0  0  0
 22 23  2  0  0  0
 23 24  1  0  0  0
 24 25  2  0  0  0
 25 26  1  0  0  0
 26 27  2  0  0  0
 25 28  1  0  0  0
 28 29  1  0  0  0
 28 30  1  0  0  0
 28 31  1  0  0  0
  1  2  1  0  0  0
  2  3  2  0  0  0
  3  4  1  0  0  0
  4  5  2  0  0  0
  5  6  1  0  0  0
  6  7  2  0  0  0
  5  8  1  0  0  0
  8  9  2  0  0  0
  9 10  1  0  0  0
 10 11  2  0  0  0
 11 12  1  0  0  0
 12 13  2  0  0  0
 11 14  1  0  0  0
 14 15  3  0  0  0
 27 22  1  0  0  0
  7  2  1  0  0  0
 13  8  1  0  0  0
 18 19  1  0  0  0
 20 21  1  0  0  0
M  END
> <minimizedAffinity>
-7.73291

> <CNNscore>
0.1779282540

> <CNNaffinity>
5.7517018318

> <CNN_VS>
1.0233902931

> <CNNaffinity_variance>
0.2759615779

$$$$
[H]c1nc2c(c([H])c1[H])c(=NC([H])([H])C([H])([H])C([H])([H])n1c(SC([H])([H])C([H])([H])C#N)nc3c([H])c([H])c([H])c([H])c3c1=O)n(C1([H])C([H])([H])C([H])([H])C([H])([H])C([H])([H])C1([H])[H])c(=O)n2C([H])([H])[H]


 38 42  0  0  0  0  0  0  0  0999 V2000
  -16.0604   10.1205  -20.4807 C   0  0  0  0  0  0  0  0  0  0  0  0
  -16.7857   11.3478  -20.7992 N   0  0  0  0  0  0  0  0  0  0  0  0
  -17.7337   11.8057  -19.9685 C   0  0  0  0  0  0  0  0  0  0  0  0
  -17.9958   11.1150  -18.8497 N   0  0  0  0  0  0  0  0  0  0  0  0
  -18.9298   11.5185  -17.9798 C   0  0  0  0  0  0  0  0  0  0  0  0
  -19.6292   12.6754  -18.2582 C   0  0  0  0  0  0  0  0  0  0  0  0
  -19.3704   13.3915  -19.3996 C   0  0  0  0  0  0  0  0  0  0  0  0
  -18.4072   12.9654  -20.2860 C   0  0  0  0  0  0  0  0  0  0  0  0
  -18.1577   13.6894  -21.4232 C   0  0  0  0  0  0  0  0  0  0  0  0
  -18.6959   14.7073  -21.7752 N   0  0  0  0  0  0  0  0  0  0  0  0
  -17.1699   13.1711  -22.2440 N   0  0  0  0  0  0  0  0  0  0  0  0
  -16.5223   12.0411  -21.9226 C   0  0  0  0  0  0  0  0  0  0  0  0
  -15.6082   11.5189  -22.6355 O   0  0  0  0  0  0  0  0  0  0  0  0
  -16.8704   13.8840  -23.4329 C   0  0  0  0  0  0  0  0  0  0  0  0
  -17.1954   13.2027  -24.7130 C   0  0  0  0  0  0  0  0  0  0  0  0
  -17.0841   14.1471  -25.9113 C   0  0  0  0  0  0  0  0  0  0  0  0
  -16.2562   15.3630  -25.5962 C   0  0  0  0  0  0  0  0  0  0  0  0
  -15.0628   14.8389  -24.8738 C   0  0  0  0  0  0  0  0  0  0  0  0
  -15.4887   14.4902  -23.4500 C   0  0  0  0  0  0  0  0  0  0  0  0
  -19.4859   15.7811  -21.8350 C   0  0  0  0  0  0  0  0  0  0  0  0
  -20.5178   15.8861  -20.6957 C   0  0  0  0  0  0  0  0  0  0  0  0
  -20.7071   17.3340  -20.3040 C   0  0  0  0  0  0  0  0  0  0  0  0
  -21.0150   18.1290  -21.4694 N   0  0  0  0  0  0  0  0  0  0  0  0
  -20.1424   19.0533  -21.9124 C   0  0  0  0  0  0  0  0  0  0  0  0
  -20.4831   19.7637  -23.0022 N   0  0  0  0  0  0  0  0  0  0  0  0
  -21.6201   19.6233  -23.6791 C   0  0  0  0  0  0  0  0  0  0  0  0
  -21.9365   20.3658  -24.7888 C   0  0  0  0  0  0  0  0  0  0  0  0
  -23.1140   20.2176  -25.4866 C   0  0  0  0  0  0  0  0  0  0  0  0
  -24.0039   19.2692  -25.0279 C   0  0  0  0  0  0  0  0  0  0  0  0
  -23.7199   18.5029  -23.9142 C   0  0  0  0  0  0  0  0  0  0  0  0
  -22.5255   18.6867  -23.2459 C   0  0  0  0  0  0  0  0  0  0  0  0
  -22.1760   17.9549  -22.1242 C   0  0  0  0  0  0  0  0  0  0  0  0
  -23.0288   17.0907  -21.7373 O   0  0  0  0  0  0  0  0  0  0  0  0
  -18.5758   19.3255  -21.0727 S   0  0  0  0  0  0  0  0  0  0  0  0
  -17.3569   18.2089  -21.7794 C   0  0  0  0  0  0  0  0  0  0  0  0
  -16.3010   17.8101  -20.7809 C   0  0  0  0  0  0  0  0  0  0  0  0
  -16.9741   17.0593  -19.7093 C   0  0  0  0  0  0  0  0  0  0  0  0
  -17.5076   16.4775  -18.8484 N   0  0  0  0  0  0  0  0  0  0  0  0
  1  2  1  0  0  0
  2  3  1  0  0  0
  3  4  2  0  0  0
  4  5  1  0  0  0
  5  6  2  0  0  0
  6  7  1  0  0  0
  7  8  2  0  0  0
  8  9  1  0  0  0
  9 10  2  0  0  0
 10 20  1  0  0  0
 20 21  1  0  0  0
 21 22  1  0  0  0
 22 23  1  0  0  0
 23 24  1  0  0  0
 24 34  1  0  0  0
 34 35  1  0  0  0
 35 36  1  0  0  0
 36 37  1  0  0  0
 37 38  3  0  0  0
 24 25  2  0  0  0
 25 26  1  0  0  0
 26 27  2  0  0  0
 27 28  1  0  0  0
 28 29  2  0  0  0
 29 30  1  0  0  0
 30 31  2  0  0  0
 31 32  1  0  0  0
 32 33  2  0  0  0
  9 11  1  0  0  0
 11 14  1  0  0  0
 14 15  1  0  0  0
 15 16  1  0  0  0
 16 17  1  0  0  0
 17 18  1  0  0  0
 18 19  1  0  0  0
 11 12  1  0  0  0
 12 13  2  0  0  0
 12  2  1  0  0  0
  8  3  1  0  0  0
 32 23  1  0  0  0
 19 14  1  0  0  0
 31 26  1  0  0  0
M  END
> <minimizedAffinity>
-8.84823

> <CNNscore>
0.3833222091

> <CNNaffinity>
7.6899900436

> <CNN_VS>
2.9477438927

> <CNNaffinity_variance>
0.0743373185

$$$$
[H]c1nc2c(c([H])c1[H])c(=NC([H])([H])C([H])([H])C([H])([H])n1c(SC([H])([H])C([H])([H])C#N)nc3c([H])c([H])c([H])c([H])c3c1=O)n(C1([H])C([H])([H])C([H])([H])C([H])([H])C([H])([H])C1([H])[H])c(=O)n2C([H])([H])[H]


 38 42  0  0  0  0  0  0  0  0999 V2000
  -17.0188   10.5287  -19.8518 C   0  0  0  0  0  0  0  0  0  0  0  0
  -17.7310   11.7998  -19.9562 N   0  0  0  0  0  0  0  0  0  0  0  0
  -18.6548   12.1321  -19.0425 C   0  0  0  0  0  0  0  0  0  0  0  0
  -18.9050   11.2764  -18.0413 N   0  0  0  0  0  0  0  0  0  0  0  0
  -19.8149   11.5486  -17.0978 C   0  0  0  0  0  0  0  0  0  0  0  0
  -20.5015   12.7435  -17.1742 C   0  0  0  0  0  0  0  0  0  0  0  0
  -20.2546   13.6279  -18.1938 C   0  0  0  0  0  0  0  0  0  0  0  0
  -19.3163   13.3356  -19.1577 C   0  0  0  0  0  0  0  0  0  0  0  0
  -19.0785   14.2273  -20.1716 C   0  0  0  0  0  0  0  0  0  0  0  0
  -19.6077   15.2946  -20.3463 N   0  0  0  0  0  0  0  0  0  0  0  0
  -18.1158   13.8334  -21.0859 N   0  0  0  0  0  0  0  0  0  0  0  0
  -17.4795   12.6588  -20.9616 C   0  0  0  0  0  0  0  0  0  0  0  0
  -16.5884   12.2449  -21.7683 O   0  0  0  0  0  0  0  0  0  0  0  0
  -17.8291   14.7216  -22.1537 C   0  0  0  0  0  0  0  0  0  0  0  0
  -17.9345   14.1623  -23.5264 C   0  0  0  0  0  0  0  0  0  0  0  0
  -17.8681   15.2522  -24.5980 C   0  0  0  0  0  0  0  0  0  0  0  0
  -17.2676   16.5264  -24.0699 C   0  0  0  0  0  0  0  0  0  0  0  0
  -16.0739   16.0944  -23.2894 C   0  0  0  0  0  0  0  0  0  0  0  0
  -16.5611   15.5170  -21.9630 C   0  0  0  0  0  0  0  0  0  0  0  0
  -20.3818   16.3740  -20.2180 C   0  0  0  0  0  0  0  0  0  0  0  0
  -21.8863   16.1166  -20.4285 C   0  0  0  0  0  0  0  0  0  0  0  0
  -22.6622   17.3971  -20.2189 C   0  0  0  0  0  0  0  0  0  0  0  0
  -22.6122   18.2105  -21.4110 N   0  0  0  0  0  0  0  0  0  0  0  0
  -21.9219   19.3661  -21.4177 C   0  0  0  0  0  0  0  0  0  0  0  0
  -21.9110   20.0816  -22.5563 N   0  0  0  0  0  0  0  0  0  0  0  0
  -22.5321   19.7346  -23.6808 C   0  0  0  0  0  0  0  0  0  0  0  0
  -22.5003   20.4893  -24.8264 C   0  0  0  0  0  0  0  0  0  0  0  0
  -23.1443   20.1270  -25.9880 C   0  0  0  0  0  0  0  0  0  0  0  0
  -23.8498   18.9422  -25.9748 C   0  0  0  0  0  0  0  0  0  0  0  0
  -23.9045   18.1560  -24.8403 C   0  0  0  0  0  0  0  0  0  0  0  0
  -23.2425   18.5601  -23.6976 C   0  0  0  0  0  0  0  0  0  0  0  0
  -23.2545   17.8227  -22.5264 C   0  0  0  0  0  0  0  0  0  0  0  0
  -23.9190   16.7359  -22.5613 O   0  0  0  0  0  0  0  0  0  0  0  0
  -21.0455   19.9298  -19.9523 S   0  0  0  0  0  0  0  0  0  0  0  0
  -19.4349   20.5452  -20.4615 C   0  0  0  0  0  0  0  0  0  0  0  0
  -18.5735   19.4637  -21.0607 C   0  0  0  0  0  0  0  0  0  0  0  0
  -18.6569   19.5987  -22.5235 C   0  0  0  0  0  0  0  0  0  0  0  0
  -18.7318   19.6907  -23.6854 N   0  0  0  0  0  0  0  0  0  0  0  0
  1  2  1  0  0  0
  2  3  1  0  0  0
  3  4  2  0  0  0
  4  5  1  0  0  0
  5  6  2  0  0  0
  6  7  1  0  0  0
  7  8  2  0  0  0
  8  9  1  0  0  0
  9 10  2  0  0  0
 10 20  1  0  0  0
 20 21  1  0  0  0
 21 22  1  0  0  0
 22 23  1  0  0  0
 23 24  1  0  0  0
 24 34  1  0  0  0
 34 35  1  0  0  0
 35 36  1  0  0  0
 36 37  1  0  0  0
 37 38  3  0  0  0
 24 25  2  0  0  0
 25 26  1  0  0  0
 26 27  2  0  0  0
 27 28  1  0  0  0
 28 29  2  0  0  0
 29 30  1  0  0  0
 30 31  2  0  0  0
 31 32  1  0  0  0
 32 33  2  0  0  0
  9 11  1  0  0  0
 11 14  1  0  0  0
 14 15  1  0  0  0
 15 16  1  0  0  0
 16 17  1  0  0  0
 17 18  1  0  0  0
 18 19  1  0  0  0
 11 12  1  0  0  0
 12 13  2  0  0  0
 12  2  1  0  0  0
  8  3  1  0  0  0
 32 23  1  0  0  0
 19 14  1  0  0  0
 31 26  1  0  0  0
M  END
> <minimizedAffinity>
-8.32952

> <CNNscore>
0.3396123052

> <CNNaffinity>
7.3088483810

> <CNN_VS>
2.4821748734

> <CNNaffinity_variance>
0.1857789308

$$$$
[H]c1nc2c(c([H])c1[H])c(=NC([H])([H])C([H])([H])C([H])([H])n1c(SC([H])([H])C([H])([H])C#N)nc3c([H])c([H])c([H])c([H])c3c1=O)n(C1([H])C([H])([H])C([H])([H])C([H])([H])C([H])([H])C1([H])[H])c(=O)n2C([H])([H])[H]


 38 42  0  0  0  0  0  0  0  0999 V2000
  -15.6844   10.3461  -21.1960 C   0  0  0  0  0  0  0  0  0  0  0  0
  -16.3462   11.5962  -21.5608 N   0  0  0  0  0  0  0  0  0  0  0  0
  -17.3440   12.0766  -20.8044 C   0  0  0  0  0  0  0  0  0  0  0  0
  -17.7145   11.3870  -19.7160 N   0  0  0  0  0  0  0  0  0  0  0  0
  -18.7030   11.8124  -18.9199 C   0  0  0  0  0  0  0  0  0  0  0  0
  -19.3443   12.9911  -19.2432 C   0  0  0  0  0  0  0  0  0  0  0  0
  -18.9745   13.7063  -20.3542 C   0  0  0  0  0  0  0  0  0  0  0  0
  -17.9562   13.2576  -21.1647 C   0  0  0  0  0  0  0  0  0  0  0  0
  -17.5959   13.9810  -22.2721 C   0  0  0  0  0  0  0  0  0  0  0  0
  -18.0747   15.0165  -22.6572 N   0  0  0  0  0  0  0  0  0  0  0  0
  -16.5610   13.4390  -23.0160 N   0  0  0  0  0  0  0  0  0  0  0  0
  -15.9740   12.2884  -22.6537 C   0  0  0  0  0  0  0  0  0  0  0  0
  -15.0213   11.7441  -23.2959 O   0  0  0  0  0  0  0  0  0  0  0  0
  -16.1470   14.1501  -24.1711 C   0  0  0  0  0  0  0  0  0  0  0  0
  -16.5630   13.5848  -25.4810 C   0  0  0  0  0  0  0  0  0  0  0  0
  -16.2994   14.5539  -26.6351 C   0  0  0  0  0  0  0  0  0  0  0  0
  -15.2974   15.6130  -26.2646 C   0  0  0  0  0  0  0  0  0  0  0  0
  -14.2038   14.8802  -25.5662 C   0  0  0  0  0  0  0  0  0  0  0  0
  -14.6886   14.5374  -24.1599 C   0  0  0  0  0  0  0  0  0  0  0  0
  -18.8261   16.1134  -22.7706 C   0  0  0  0  0  0  0  0  0  0  0  0
  -18.0834   17.4346  -22.4937 C   0  0  0  0  0  0  0  0  0  0  0  0
  -18.9305   18.3275  -21.6157 C   0  0  0  0  0  0  0  0  0  0  0  0
  -20.2225   18.5428  -22.2237 N   0  0  0  0  0  0  0  0  0  0  0  0
  -21.3194   17.9476  -21.7195 C   0  0  0  0  0  0  0  0  0  0  0  0
  -22.4953   18.1851  -22.3273 N   0  0  0  0  0  0  0  0  0  0  0  0
  -22.6590   18.9657  -23.3925 C   0  0  0  0  0  0  0  0  0  0  0  0
  -23.8750   19.1867  -23.9887 C   0  0  0  0  0  0  0  0  0  0  0  0
  -24.0404   19.9951  -25.0907 C   0  0  0  0  0  0  0  0  0  0  0  0
  -22.9129   20.6021  -25.6026 C   0  0  0  0  0  0  0  0  0  0  0  0
  -21.6720   20.4033  -25.0292 C   0  0  0  0  0  0  0  0  0  0  0  0
  -21.5544   19.5834  -23.9242 C   0  0  0  0  0  0  0  0  0  0  0  0
  -20.3435   19.3398  -23.2995 C   0  0  0  0  0  0  0  0  0  0  0  0
  -19.3299   19.9216  -23.8073 O   0  0  0  0  0  0  0  0  0  0  0  0
  -21.2118   16.8725  -20.2822 S   0  0  0  0  0  0  0  0  0  0  0  0
  -21.1701   17.9034  -18.8099 C   0  0  0  0  0  0  0  0  0  0  0  0
  -20.4534   17.2353  -17.6651 C   0  0  0  0  0  0  0  0  0  0  0  0
  -19.1067   16.8803  -18.1399 C   0  0  0  0  0  0  0  0  0  0  0  0
  -18.0448   16.5919  -18.5315 N   0  0  0  0  0  0  0  0  0  0  0  0
  1  2  1  0  0  0
  2  3  1  0  0  0
  3  4  2  0  0  0
  4  5  1  0  0  0
  5  6  2  0  0  0
  6  7  1  0  0  0
  7  8  2  0  0  0
  8  9  1  0  0  0
  9 10  2  0  0  0
 10 20  1  0  0  0
 20 21  1  0  0  0
 21 22  1  0  0  0
 22 23  1  0  0  0
 23 24  1  0  0  0
 24 34  1  0  0  0
 34 35  1  0  0  0
 35 36  1  0  0  0
 36 37  1  0  0  0
 37 38  3  0  0  0
 24 25  2  0  0  0
 25 26  1  0  0  0
 26 27  2  0  0  0
 27 28  1  0  0  0
 28 29  2  0  0  0
 29 30  1  0  0  0
 30 31  2  0  0  0
 31 32  1  0  0  0
 32 33  2  0  0  0
  9 11  1  0  0  0
 11 14  1  0  0  0
 14 15  1  0  0  0
 15 16  1  0  0  0
 16 17  1  0  0  0
 17 18  1  0  0  0
 18 19  1  0  0  0
 11 12  1  0  0  0
 12 13  2  0  0  0
 12  2  1  0  0  0
  8  3  1  0  0  0
 32 23  1  0  0  0
 19 14  1  0  0  0
 31 26  1  0  0  0
M  END
> <minimizedAffinity>
-9.10027

> <CNNscore>
0.3202244639

> <CNNaffinity>
7.7537322044

> <CNN_VS>
2.4829347134

> <CNNaffinity_variance>
0.1707146317

$$$$
[H]c1nc2c(c([H])c1[H])c(=NC([H])([H])C([H])([H])C([H])([H])n1c(SC([H])([H])C([H])([H])C#N)nc3c([H])c([H])c([H])c([H])c3c1=O)n(C1([H])C([H])([H])C([H])([H])C([H])([H])C([H])([H])C1([H])[H])c(=O)n2C([H])([H])[H]


 38 42  0  0  0  0  0  0  0  0999 V2000
  -18.0097   10.4438  -17.8477 C   0  0  0  0  0  0  0  0  0  0  0  0
  -18.2769   11.7049  -18.5349 N   0  0  0  0  0  0  0  0  0  0  0  0
  -17.8034   11.9118  -19.7724 C   0  0  0  0  0  0  0  0  0  0  0  0
  -17.0859   10.9415  -20.3564 N   0  0  0  0  0  0  0  0  0  0  0  0
  -16.5852   11.0858  -21.5895 C   0  0  0  0  0  0  0  0  0  0  0  0
  -16.8238   12.2684  -22.2600 C   0  0  0  0  0  0  0  0  0  0  0  0
  -17.5567   13.2692  -21.6735 C   0  0  0  0  0  0  0  0  0  0  0  0
  -18.0660   13.1079  -20.4047 C   0  0  0  0  0  0  0  0  0  0  0  0
  -18.7967   14.1151  -19.8292 C   0  0  0  0  0  0  0  0  0  0  0  0
  -19.0718   15.1850  -20.3082 N   0  0  0  0  0  0  0  0  0  0  0  0
  -19.2605   13.8477  -18.5520 N   0  0  0  0  0  0  0  0  0  0  0  0
  -18.9974   12.6789  -17.9483 C   0  0  0  0  0  0  0  0  0  0  0  0
  -19.3961   12.3777  -16.7792 O   0  0  0  0  0  0  0  0  0  0  0  0
  -20.0252   14.8562  -17.9121 C   0  0  0  0  0  0  0  0  0  0  0  0
  -19.3899   15.5324  -16.7513 C   0  0  0  0  0  0  0  0  0  0  0  0
  -20.1748   16.7674  -16.3050 C   0  0  0  0  0  0  0  0  0  0  0  0
  -21.5910   16.7492  -16.8123 C   0  0  0  0  0  0  0  0  0  0  0  0
  -22.0706   15.3603  -16.5639 C   0  0  0  0  0  0  0  0  0  0  0  0
  -21.4490   14.4505  -17.6203 C   0  0  0  0  0  0  0  0  0  0  0  0
  -19.1740   16.2272  -21.1354 C   0  0  0  0  0  0  0  0  0  0  0  0
  -19.0206   17.6034  -20.4598 C   0  0  0  0  0  0  0  0  0  0  0  0
  -17.7526   18.2734  -20.9381 C   0  0  0  0  0  0  0  0  0  0  0  0
  -17.3593   17.7378  -22.2202 N   0  0  0  0  0  0  0  0  0  0  0  0
  -17.9317   18.1906  -23.3512 C   0  0  0  0  0  0  0  0  0  0  0  0
  -17.5255   17.6547  -24.5158 N   0  0  0  0  0  0  0  0  0  0  0  0
  -16.5983   16.7080  -24.6371 C   0  0  0  0  0  0  0  0  0  0  0  0
  -16.2069   16.1825  -25.8428 C   0  0  0  0  0  0  0  0  0  0  0  0
  -15.2471   15.2031  -25.9644 C   0  0  0  0  0  0  0  0  0  0  0  0
  -14.6644   14.7433  -24.8021 C   0  0  0  0  0  0  0  0  0  0  0  0
  -15.0327   15.2484  -23.5702 C   0  0  0  0  0  0  0  0  0  0  0  0
  -16.0006   16.2307  -23.4972 C   0  0  0  0  0  0  0  0  0  0  0  0
  -16.4178   16.7815  -22.2979 C   0  0  0  0  0  0  0  0  0  0  0  0
  -15.8518   16.3258  -21.2510 O   0  0  0  0  0  0  0  0  0  0  0  0
  -19.1957   19.4685  -23.3021 S   0  0  0  0  0  0  0  0  0  0  0  0
  -20.7960   18.6874  -23.5490 C   0  0  0  0  0  0  0  0  0  0  0  0
  -21.7808   19.0486  -22.4672 C   0  0  0  0  0  0  0  0  0  0  0  0
  -22.9791   18.2198  -22.6724 C   0  0  0  0  0  0  0  0  0  0  0  0
  -23.9345   17.5717  -22.8493 N   0  0  0  0  0  0  0  0  0  0  0  0
  1  2  1  0  0  0
  2  3  1  0  0  0
  3  4  2  0  0  0
  4  5  1  0  0  0
  5  6  2  0  0  0
  6  7  1  0  0  0
  7  8  2  0  0  0
  8  9  1  0  0  0
  9 10  2  0  0  0
 10 20  1  0  0  0
 20 21  1  0  0  0
 21 22  1  0  0  0
 22 23  1  0  0  0
 23 24  1  0  0  0
 24 34  1  0  0  0
 34 35  1  0  0  0
 35 36  1  0  0  0
 36 37  1  0  0  0
 37 38  3  0  0  0
 24 25  2  0  0  0
 25 26  1  0  0  0
 26 27  2  0  0  0
 27 28  1  0  0  0
 28 29  2  0  0  0
 29 30  1  0  0  0
 30 31  2  0  0  0
 31 32  1  0  0  0
 32 33  2  0  0  0
  9 11  1  0  0  0
 11 14  1  0  0  0
 14 15  1  0  0  0
 15 16  1  0  0  0
 16 17  1  0  0  0
 17 18  1  0  0  0
 18 19  1  0  0  0
 11 12  1  0  0  0
 12 13  2  0  0  0
 12  2  1  0  0  0
  8  3  1  0  0  0
 32 23  1  0  0  0
 19 14  1  0  0  0
 31 26  1  0  0  0
M  END
> <minimizedAffinity>
-8.38160

> <CNNscore>
0.2763656676

> <CNNaffinity>
7.5974721909

> <CNN_VS>
2.0996804237

> <CNNaffinity_variance>
0.1207680479

$$$$
[H]c1nc2c(c([H])c1[H])c(=NC([H])([H])C([H])([H])C([H])([H])n1c(SC([H])([H])C([H])([H])C#N)nc3c([H])c([H])c([H])c([H])c3c1=O)n(C1([H])C([H])([H])C([H])([H])C([H])([H])C([H])([H])C1([H])[H])c(=O)n2C([H])([H])[H]


 38 42  0  0  0  0  0  0  0  0999 V2000
  -16.5081   10.1664  -20.8671 C   0  0  0  0  0  0  0  0  0  0  0  0
  -17.2617   11.2759  -20.2882 N   0  0  0  0  0  0  0  0  0  0  0  0
  -17.9590   11.0993  -19.1563 C   0  0  0  0  0  0  0  0  0  0  0  0
  -17.9469    9.8909  -18.5761 N   0  0  0  0  0  0  0  0  0  0  0  0
  -18.6221    9.6495  -17.4457 C   0  0  0  0  0  0  0  0  0  0  0  0
  -19.3421   10.6817  -16.8788 C   0  0  0  0  0  0  0  0  0  0  0  0
  -19.3626   11.9231  -17.4627 C   0  0  0  0  0  0  0  0  0  0  0  0
  -18.6638   12.1579  -18.6253 C   0  0  0  0  0  0  0  0  0  0  0  0
  -18.6921   13.4026  -19.1993 C   0  0  0  0  0  0  0  0  0  0  0  0
  -19.2780   14.3775  -18.8041 N   0  0  0  0  0  0  0  0  0  0  0  0
  -17.9551   13.5282  -20.3652 N   0  0  0  0  0  0  0  0  0  0  0  0
  -17.2737   12.4892  -20.8711 C   0  0  0  0  0  0  0  0  0  0  0  0
  -16.5809   12.5448  -21.9357 O   0  0  0  0  0  0  0  0  0  0  0  0
  -17.9482   14.7972  -20.9981 C   0  0  0  0  0  0  0  0  0  0  0  0
  -18.4895   14.8502  -22.3811 C   0  0  0  0  0  0  0  0  0  0  0  0
  -18.6819   16.2875  -22.8685 C   0  0  0  0  0  0  0  0  0  0  0  0
  -17.8787   17.2695  -22.0601 C   0  0  0  0  0  0  0  0  0  0  0  0
  -16.5339   16.6428  -21.9195 C   0  0  0  0  0  0  0  0  0  0  0  0
  -16.6370   15.5339  -20.8756 C   0  0  0  0  0  0  0  0  0  0  0  0
  -20.0325   15.2121  -18.0866 C   0  0  0  0  0  0  0  0  0  0  0  0
  -21.4850   15.3538  -18.5807 C   0  0  0  0  0  0  0  0  0  0  0  0
  -21.9845   16.7560  -18.3161 C   0  0  0  0  0  0  0  0  0  0  0  0
  -21.4886   17.6604  -19.3267 N   0  0  0  0  0  0  0  0  0  0  0  0
  -20.5846   18.6059  -19.0092 C   0  0  0  0  0  0  0  0  0  0  0  0
  -20.1590   19.4195  -19.9917 N   0  0  0  0  0  0  0  0  0  0  0  0
  -20.5637   19.3623  -21.2580 C   0  0  0  0  0  0  0  0  0  0  0  0
  -20.1084   20.2093  -22.2367 C   0  0  0  0  0  0  0  0  0  0  0  0
  -20.5295   20.1470  -23.5460 C   0  0  0  0  0  0  0  0  0  0  0  0
  -21.4557   19.1764  -23.8650 C   0  0  0  0  0  0  0  0  0  0  0  0
  -21.9370   18.3059  -22.9066 C   0  0  0  0  0  0  0  0  0  0  0  0
  -21.4855   18.4061  -21.6054 C   0  0  0  0  0  0  0  0  0  0  0  0
  -21.9243   17.5680  -20.5950 C   0  0  0  0  0  0  0  0  0  0  0  0
  -22.7795   16.6872  -20.9366 O   0  0  0  0  0  0  0  0  0  0  0  0
  -19.9696   18.7715  -17.3276 S   0  0  0  0  0  0  0  0  0  0  0  0
  -21.1923   19.6743  -16.3673 C   0  0  0  0  0  0  0  0  0  0  0  0
  -20.6100   20.2590  -15.1065 C   0  0  0  0  0  0  0  0  0  0  0  0
  -19.9822   19.1557  -14.3623 C   0  0  0  0  0  0  0  0  0  0  0  0
  -19.4686   18.2886  -13.7721 N   0  0  0  0  0  0  0  0  0  0  0  0
  1  2  1  0  0  0
  2  3  1  0  0  0
  3  4  2  0  0  0
  4  5  1  0  0  0
  5  6  2  0  0  0
  6  7  1  0  0  0
  7  8  2  0  0  0
  8  9  1  0  0  0
  9 10  2  0  0  0
 10 20  1  0  0  0
 20 21  1  0  0  0
 21 22  1  0  0  0
 22 23  1  0  0  0
 23 24  1  0  0  0
 24 34  1  0  0  0
 34 35  1  0  0  0
 35 36  1  0  0  0
 36 37  1  0  0  0
 37 38  3  0  0  0
 24 25  2  0  0  0
 25 26  1  0  0  0
 26 27  2  0  0  0
 27 28  1  0  0  0
 28 29  2  0  0  0
 29 30  1  0  0  0
 30 31  2  0  0  0
 31 32  1  0  0  0
 32 33  2  0  0  0
  9 11  1  0  0  0
 11 14  1  0  0  0
 14 15  1  0  0  0
 15 16  1  0  0  0
 16 17  1  0  0  0
 17 18  1  0  0  0
 18 19  1  0  0  0
 11 12  1  0  0  0
 12 13  2  0  0  0
 12  2  1  0  0  0
  8  3  1  0  0  0
 32 23  1  0  0  0
 19 14  1  0  0  0
 31 26  1  0  0  0
M  END
> <minimizedAffinity>
-7.54365

> <CNNscore>
0.2641297877

> <CNNaffinity>
7.1476159096

> <CNN_VS>
1.8878983259

> <CNNaffinity_variance>
0.2341676205

$$$$
[H]c1nc2c(c([H])c1[H])c(=NC([H])([H])C([H])([H])C([H])([H])n1c(SC([H])([H])C([H])([H])C#N)nc3c([H])c([H])c([H])c([H])c3c1=O)n(C1([H])C([H])([H])C([H])([H])C([H])([H])C([H])([H])C1([H])[H])c(=O)n2C([H])([H])[H]


 38 42  0  0  0  0  0  0  0  0999 V2000
  -15.7209   10.2912  -20.1752 C   0  0  0  0  0  0  0  0  0  0  0  0
  -16.8946   11.1564  -20.0867 N   0  0  0  0  0  0  0  0  0  0  0  0
  -17.1731   12.0181  -21.0758 C   0  0  0  0  0  0  0  0  0  0  0  0
  -16.3550   12.0646  -22.1368 N   0  0  0  0  0  0  0  0  0  0  0  0
  -16.5772   12.9025  -23.1569 C   0  0  0  0  0  0  0  0  0  0  0  0
  -17.6799   13.7306  -23.0970 C   0  0  0  0  0  0  0  0  0  0  0  0
  -18.5250   13.6927  -22.0168 C   0  0  0  0  0  0  0  0  0  0  0  0
  -18.2849   12.8262  -20.9744 C   0  0  0  0  0  0  0  0  0  0  0  0
  -19.1365   12.7976  -19.9004 C   0  0  0  0  0  0  0  0  0  0  0  0
  -20.1248   13.4647  -19.7324 N   0  0  0  0  0  0  0  0  0  0  0  0
  -18.8013   11.8900  -18.9095 N   0  0  0  0  0  0  0  0  0  0  0  0
  -17.7159   11.1095  -19.0212 C   0  0  0  0  0  0  0  0  0  0  0  0
  -17.3590   10.2596  -18.1456 O   0  0  0  0  0  0  0  0  0  0  0  0
  -19.6519   11.8181  -17.7770 C   0  0  0  0  0  0  0  0  0  0  0  0
  -19.4129   12.8191  -16.7049 C   0  0  0  0  0  0  0  0  0  0  0  0
  -20.5356   12.8276  -15.6657 C   0  0  0  0  0  0  0  0  0  0  0  0
  -21.3482   11.5621  -15.7030 C   0  0  0  0  0  0  0  0  0  0  0  0
  -20.3453   10.4636  -15.7921 C   0  0  0  0  0  0  0  0  0  0  0  0
  -19.8147   10.4240  -17.2228 C   0  0  0  0  0  0  0  0  0  0  0  0
  -21.1150   14.3451  -19.8904 C   0  0  0  0  0  0  0  0  0  0  0  0
  -21.2794   15.3451  -18.7299 C   0  0  0  0  0  0  0  0  0  0  0  0
  -21.0568   16.7547  -19.2291 C   0  0  0  0  0  0  0  0  0  0  0  0
  -19.8092   16.8359  -19.9517 N   0  0  0  0  0  0  0  0  0  0  0  0
  -18.6373   16.7038  -19.3029 C   0  0  0  0  0  0  0  0  0  0  0  0
  -17.5079   16.7884  -20.0280 N   0  0  0  0  0  0  0  0  0  0  0  0
  -17.4588   16.9935  -21.3418 C   0  0  0  0  0  0  0  0  0  0  0  0
  -16.2873   17.0747  -22.0516 C   0  0  0  0  0  0  0  0  0  0  0  0
  -16.2406   17.2870  -23.4110 C   0  0  0  0  0  0  0  0  0  0  0  0
  -17.4445   17.4216  -24.0701 C   0  0  0  0  0  0  0  0  0  0  0  0
  -18.6439   17.3456  -23.3891 C   0  0  0  0  0  0  0  0  0  0  0  0
  -18.6416   17.1313  -22.0248 C   0  0  0  0  0  0  0  0  0  0  0  0
  -19.8048   17.0444  -21.2797 C   0  0  0  0  0  0  0  0  0  0  0  0
  -20.8924   17.1748  -21.9310 O   0  0  0  0  0  0  0  0  0  0  0  0
  -18.5882   16.4236  -17.5274 S   0  0  0  0  0  0  0  0  0  0  0  0
  -19.2214   17.8930  -16.7078 C   0  0  0  0  0  0  0  0  0  0  0  0
  -20.2631   17.5638  -15.6698 C   0  0  0  0  0  0  0  0  0  0  0  0
  -19.7442   18.0187  -14.3702 C   0  0  0  0  0  0  0  0  0  0  0  0
  -19.3164   18.3734  -13.3429 N   0  0  0  0  0  0  0  0  0  0  0  0
  1  2  1  0  0  0
  2  3  1  0  0  0
  3  4  2  0  0  0
  4  5  1  0  0  0
  5  6  2  0  0  0
  6  7  1  0  0  0
  7  8  2  0  0  0
  8  9  1  0  0  0
  9 10  2  0  0  0
 10 20  1  0  0  0
 20 21  1  0  0  0
 21 22  1  0  0  0
 22 23  1  0  0  0
 23 24  1  0  0  0
 24 34  1  0  0  0
 34 35  1  0  0  0
 35 36  1  0  0  0
 36 37  1  0  0  0
 37 38  3  0  0  0
 24 25  2  0  0  0
 25 26  1  0  0  0
 26 27  2  0  0  0
 27 28  1  0  0  0
 28 29  2  0  0  0
 29 30  1  0  0  0
 30 31  2  0  0  0
 31 32  1  0  0  0
 32 33  2  0  0  0
  9 11  1  0  0  0
 11 14  1  0  0  0
 14 15  1  0  0  0
 15 16  1  0  0  0
 16 17  1  0  0  0
 17 18  1  0  0  0
 18 19  1  0  0  0
 11 12  1  0  0  0
 12 13  2  0  0  0
 12  2  1  0  0  0
  8  3  1  0  0  0
 32 23  1  0  0  0
 19 14  1  0  0  0
 31 26  1  0  0  0
M  END
> <minimizedAffinity>
-8.05252

> <CNNscore>
0.2547026873

> <CNNaffinity>
7.3240189552

> <CNN_VS>
1.8654472828

> <CNNaffinity_variance>
0.0797829181

$$$$
[H]c1nc2c(c([H])c1[H])c(=NC([H])([H])C([H])([H])C([H])([H])n1c(SC([H])([H])C([H])([H])C#N)nc3c([H])c([H])c([H])c([H])c3c1=O)n(C1([H])C([H])([H])C([H])([H])C([H])([H])C([H])([H])C1([H])[H])c(=O)n2C([H])([H])[H]


 38 42  0  0  0  0  0  0  0  0999 V2000
  -17.0016   10.5434  -19.8983 C   0  0  0  0  0  0  0  0  0  0  0  0
  -17.1985   11.9269  -20.3236 N   0  0  0  0  0  0  0  0  0  0  0  0
  -17.7624   12.8145  -19.4912 C   0  0  0  0  0  0  0  0  0  0  0  0
  -18.1369   12.4033  -18.2714 N   0  0  0  0  0  0  0  0  0  0  0  0
  -18.7053   13.2394  -17.3940 C   0  0  0  0  0  0  0  0  0  0  0  0
  -18.9022   14.5522  -17.7721 C   0  0  0  0  0  0  0  0  0  0  0  0
  -18.5233   14.9856  -19.0175 C   0  0  0  0  0  0  0  0  0  0  0  0
  -17.9398   14.1153  -19.9104 C   0  0  0  0  0  0  0  0  0  0  0  0
  -17.5655   14.5601  -21.1520 C   0  0  0  0  0  0  0  0  0  0  0  0
  -17.6829   15.6730  -21.5965 N   0  0  0  0  0  0  0  0  0  0  0  0
  -16.9890   13.6024  -21.9694 N   0  0  0  0  0  0  0  0  0  0  0  0
  -16.8223   12.3395  -21.5485 C   0  0  0  0  0  0  0  0  0  0  0  0
  -16.3001   11.4190  -22.2530 O   0  0  0  0  0  0  0  0  0  0  0  0
  -16.5806   14.0114  -23.2645 C   0  0  0  0  0  0  0  0  0  0  0  0
  -17.2322   13.3267  -24.4112 C   0  0  0  0  0  0  0  0  0  0  0  0
  -16.9239   14.0148  -25.7423 C   0  0  0  0  0  0  0  0  0  0  0  0
  -15.7118   14.9012  -25.6516 C   0  0  0  0  0  0  0  0  0  0  0  0
  -14.7003   14.0949  -24.9117 C   0  0  0  0  0  0  0  0  0  0  0  0
  -15.0837   14.0979  -23.4341 C   0  0  0  0  0  0  0  0  0  0  0  0
  -17.9675   16.9688  -21.7402 C   0  0  0  0  0  0  0  0  0  0  0  0
  -19.4289   17.2686  -22.1251 C   0  0  0  0  0  0  0  0  0  0  0  0
  -19.8170   18.6469  -21.6400 C   0  0  0  0  0  0  0  0  0  0  0  0
  -21.0667   18.5877  -20.9190 N   0  0  0  0  0  0  0  0  0  0  0  0
  -22.2014   19.0377  -21.4862 C   0  0  0  0  0  0  0  0  0  0  0  0
  -23.3349   18.9570  -20.7671 N   0  0  0  0  0  0  0  0  0  0  0  0
  -23.4220   18.4652  -19.5337 C   0  0  0  0  0  0  0  0  0  0  0  0
  -24.5965   18.3977  -18.8274 C   0  0  0  0  0  0  0  0  0  0  0  0
  -24.6826   17.8882  -17.5513 C   0  0  0  0  0  0  0  0  0  0  0  0
  -23.5168   17.4289  -16.9756 C   0  0  0  0  0  0  0  0  0  0  0  0
  -22.3156   17.4805  -17.6559 C   0  0  0  0  0  0  0  0  0  0  0  0
  -22.2776   18.0004  -18.9347 C   0  0  0  0  0  0  0  0  0  0  0  0
  -21.1102   18.0828  -19.6739 C   0  0  0  0  0  0  0  0  0  0  0  0
  -20.0587   17.6466  -19.1013 O   0  0  0  0  0  0  0  0  0  0  0  0
  -22.1973   19.7221  -23.1490 S   0  0  0  0  0  0  0  0  0  0  0  0
  -22.7459   18.4422  -24.2860 C   0  0  0  0  0  0  0  0  0  0  0  0
  -23.9578   18.8621  -25.0770 C   0  0  0  0  0  0  0  0  0  0  0  0
  -23.7142   18.4913  -26.4799 C   0  0  0  0  0  0  0  0  0  0  0  0
  -23.5206   18.2140  -27.5979 N   0  0  0  0  0  0  0  0  0  0  0  0
  1  2  1  0  0  0
  2  3  1  0  0  0
  3  4  2  0  0  0
  4  5  1  0  0  0
  5  6  2  0  0  0
  6  7  1  0  0  0
  7  8  2  0  0  0
  8  9  1  0  0  0
  9 10  2  0  0  0
 10 20  1  0  0  0
 20 21  1  0  0  0
 21 22  1  0  0  0
 22 23  1  0  0  0
 23 24  1  0  0  0
 24 34  1  0  0  0
 34 35  1  0  0  0
 35 36  1  0  0  0
 36 37  1  0  0  0
 37 38  3  0  0  0
 24 25  2  0  0  0
 25 26  1  0  0  0
 26 27  2  0  0  0
 27 28  1  0  0  0
 28 29  2  0  0  0
 29 30  1  0  0  0
 30 31  2  0  0  0
 31 32  1  0  0  0
 32 33  2  0  0  0
  9 11  1  0  0  0
 11 14  1  0  0  0
 14 15  1  0  0  0
 15 16  1  0  0  0
 16 17  1  0  0  0
 17 18  1  0  0  0
 18 19  1  0  0  0
 11 12  1  0  0  0
 12 13  2  0  0  0
 12  2  1  0  0  0
  8  3  1  0  0  0
 32 23  1  0  0  0
 19 14  1  0  0  0
 31 26  1  0  0  0
M  END
> <minimizedAffinity>
-7.82219

> <CNNscore>
0.2360128760

> <CNNaffinity>
7.3576583862

> <CNN_VS>
1.7365021706

> <CNNaffinity_variance>
0.1820023954

$$$$
[H]c1nc2c(c([H])c1[H])c(=NC([H])([H])C([H])([H])C([H])([H])n1c(SC([H])([H])C([H])([H])C#N)nc3c([H])c([H])c([H])c([H])c3c1=O)n(C1([H])C([H])([H])C([H])([H])C([H])([H])C([H])([H])C1([H])[H])c(=O)n2C([H])([H])[H]


 38 42  0  0  0  0  0  0  0  0999 V2000
  -15.4247    9.9636  -21.1668 C   0  0  0  0  0  0  0  0  0  0  0  0
  -16.1436   11.2238  -21.3362 N   0  0  0  0  0  0  0  0  0  0  0  0
  -17.0723   11.5957  -20.4431 C   0  0  0  0  0  0  0  0  0  0  0  0
  -17.3213   10.7892  -19.4015 N   0  0  0  0  0  0  0  0  0  0  0  0
  -18.2359   11.1026  -18.4756 C   0  0  0  0  0  0  0  0  0  0  0  0
  -18.9288   12.2883  -18.6133 C   0  0  0  0  0  0  0  0  0  0  0  0
  -18.6833   13.1225  -19.6746 C   0  0  0  0  0  0  0  0  0  0  0  0
  -17.7400   12.7883  -20.6199 C   0  0  0  0  0  0  0  0  0  0  0  0
  -17.5037   13.6300  -21.6759 C   0  0  0  0  0  0  0  0  0  0  0  0
  -18.0382   14.6843  -21.9049 N   0  0  0  0  0  0  0  0  0  0  0  0
  -16.5356   13.1968  -22.5665 N   0  0  0  0  0  0  0  0  0  0  0  0
  -15.8934   12.0335  -22.3821 C   0  0  0  0  0  0  0  0  0  0  0  0
  -14.9971   11.5852  -23.1646 O   0  0  0  0  0  0  0  0  0  0  0  0
  -16.2502   14.0327  -23.6761 C   0  0  0  0  0  0  0  0  0  0  0  0
  -16.7088   13.5492  -25.0044 C   0  0  0  0  0  0  0  0  0  0  0  0
  -16.5918   14.6296  -26.0812 C   0  0  0  0  0  0  0  0  0  0  0  0
  -15.6469   15.7283  -25.6774 C   0  0  0  0  0  0  0  0  0  0  0  0
  -14.4600   15.0264  -25.1123 C   0  0  0  0  0  0  0  0  0  0  0  0
  -14.8260   14.5297  -23.7161 C   0  0  0  0  0  0  0  0  0  0  0  0
  -18.8187   15.7643  -21.8328 C   0  0  0  0  0  0  0  0  0  0  0  0
  -18.2483   16.9158  -20.9827 C   0  0  0  0  0  0  0  0  0  0  0  0
  -19.0544   17.0667  -19.7126 C   0  0  0  0  0  0  0  0  0  0  0  0
  -20.3483   17.6353  -20.0085 N   0  0  0  0  0  0  0  0  0  0  0  0
  -21.4735   16.9711  -19.6851 C   0  0  0  0  0  0  0  0  0  0  0  0
  -22.6497   17.5499  -19.9851 N   0  0  0  0  0  0  0  0  0  0  0  0
  -22.7880   18.7326  -20.5790 C   0  0  0  0  0  0  0  0  0  0  0  0
  -24.0052   19.2947  -20.8710 C   0  0  0  0  0  0  0  0  0  0  0  0
  -24.1443   20.5187  -21.4857 C   0  0  0  0  0  0  0  0  0  0  0  0
  -22.9879   21.1943  -21.8145 C   0  0  0  0  0  0  0  0  0  0  0  0
  -21.7448   20.6601  -21.5362 C   0  0  0  0  0  0  0  0  0  0  0  0
  -21.6543   19.4284  -20.9182 C   0  0  0  0  0  0  0  0  0  0  0  0
  -20.4430   18.8338  -20.6099 C   0  0  0  0  0  0  0  0  0  0  0  0
  -19.4022   19.4946  -20.9324 O   0  0  0  0  0  0  0  0  0  0  0  0
  -21.4017   15.3651  -18.8795 S   0  0  0  0  0  0  0  0  0  0  0  0
  -22.1692   15.5126  -17.2605 C   0  0  0  0  0  0  0  0  0  0  0  0
  -21.5102   14.6286  -16.2334 C   0  0  0  0  0  0  0  0  0  0  0  0
  -22.3617   14.6429  -15.0334 C   0  0  0  0  0  0  0  0  0  0  0  0
  -23.0467   14.6676  -14.0878 N   0  0  0  0  0  0  0  0  0  0  0  0
  1  2  1  0  0  0
  2  3  1  0  0  0
  3  4  2  0  0  0
  4  5  1  0  0  0
  5  6  2  0  0  0
  6  7  1  0  0  0
  7  8  2  0  0  0
  8  9  1  0  0  0
  9 10  2  0  0  0
 10 20  1  0  0  0
 20 21  1  0  0  0
 21 22  1  0  0  0
 22 23  1  0  0  0
 23 24  1  0  0  0
 24 34  1  0  0  0
 34 35  1  0  0  0
 35 36  1  0  0  0
 36 37  1  0  0  0
 37 38  3  0  0  0
 24 25  2  0  0  0
 25 26  1  0  0  0
 26 27  2  0  0  0
 27 28  1  0  0  0
 28 29  2  0  0  0
 29 30  1  0  0  0
 30 31  2  0  0  0
 31 32  1  0  0  0
 32 33  2  0  0  0
  9 11  1  0  0  0
 11 14  1  0  0  0
 14 15  1  0  0  0
 15 16  1  0  0  0
 16 17  1  0  0  0
 17 18  1  0  0  0
 18 19  1  0  0  0
 11 12  1  0  0  0
 12 13  2  0  0  0
 12  2  1  0  0  0
  8  3  1  0  0  0
 32 23  1  0  0  0
 19 14  1  0  0  0
 31 26  1  0  0  0
M  END
> <minimizedAffinity>
-7.94368

> <CNNscore>
0.2233016342

> <CNNaffinity>
7.5245370865

> <CNN_VS>
1.6802414656

> <CNNaffinity_variance>
0.0489385761

$$$$
[H]c1nc2c(c([H])c1[H])c(=NC([H])([H])C([H])([H])C([H])([H])n1c(SC([H])([H])C([H])([H])C#N)nc3c([H])c([H])c([H])c([H])c3c1=O)n(C1([H])C([H])([H])C([H])([H])C([H])([H])C([H])([H])C1([H])[H])c(=O)n2C([H])([H])[H]


 38 42  0  0  0  0  0  0  0  0999 V2000
  -15.8357   16.3264  -26.8111 C   0  0  0  0  0  0  0  0  0  0  0  0
  -16.4823   15.8091  -25.6077 N   0  0  0  0  0  0  0  0  0  0  0  0
  -16.9524   14.5534  -25.5817 C   0  0  0  0  0  0  0  0  0  0  0  0
  -16.8151   13.7931  -26.6773 N   0  0  0  0  0  0  0  0  0  0  0  0
  -17.2630   12.5321  -26.7158 C   0  0  0  0  0  0  0  0  0  0  0  0
  -17.8778   12.0200  -25.5912 C   0  0  0  0  0  0  0  0  0  0  0  0
  -18.0244   12.7877  -24.4635 C   0  0  0  0  0  0  0  0  0  0  0  0
  -17.5594   14.0831  -24.4372 C   0  0  0  0  0  0  0  0  0  0  0  0
  -17.7118   14.8404  -23.3046 C   0  0  0  0  0  0  0  0  0  0  0  0
  -18.2263   14.5099  -22.2673 N   0  0  0  0  0  0  0  0  0  0  0  0
  -17.2084   16.1279  -23.3872 N   0  0  0  0  0  0  0  0  0  0  0  0
  -16.6200   16.5727  -24.5078 C   0  0  0  0  0  0  0  0  0  0  0  0
  -16.1401   17.7424  -24.6419 O   0  0  0  0  0  0  0  0  0  0  0  0
  -17.3377   16.9529  -22.2409 C   0  0  0  0  0  0  0  0  0  0  0  0
  -17.9515   18.2895  -22.4530 C   0  0  0  0  0  0  0  0  0  0  0  0
  -18.2855   18.9850  -21.1319 C   0  0  0  0  0  0  0  0  0  0  0  0
  -17.5250   18.3948  -19.9759 C   0  0  0  0  0  0  0  0  0  0  0  0
  -16.1281   18.2427  -20.4722 C   0  0  0  0  0  0  0  0  0  0  0  0
  -16.0866   17.0321  -21.4010 C   0  0  0  0  0  0  0  0  0  0  0  0
  -18.8441   13.8126  -21.3119 C   0  0  0  0  0  0  0  0  0  0  0  0
  -20.0072   14.5528  -20.6239 C   0  0  0  0  0  0  0  0  0  0  0  0
  -19.4917   15.3275  -19.4324 C   0  0  0  0  0  0  0  0  0  0  0  0
  -20.3112   15.0622  -18.2734 N   0  0  0  0  0  0  0  0  0  0  0  0
  -19.9291   14.1445  -17.3657 C   0  0  0  0  0  0  0  0  0  0  0  0
  -20.7325   13.9400  -16.3068 N   0  0  0  0  0  0  0  0  0  0  0  0
  -21.8799   14.5766  -16.0860 C   0  0  0  0  0  0  0  0  0  0  0  0
  -22.6765   14.3431  -14.9935 C   0  0  0  0  0  0  0  0  0  0  0  0
  -23.8632   15.0038  -14.7684 C   0  0  0  0  0  0  0  0  0  0  0  0
  -24.2492   15.9426  -15.7019 C   0  0  0  0  0  0  0  0  0  0  0  0
  -23.4733   16.2047  -16.8143 C   0  0  0  0  0  0  0  0  0  0  0  0
  -22.2900   15.5168  -16.9983 C   0  0  0  0  0  0  0  0  0  0  0  0
  -21.4640   15.7284  -18.0887 C   0  0  0  0  0  0  0  0  0  0  0  0
  -21.8613   16.6045  -18.9244 O   0  0  0  0  0  0  0  0  0  0  0  0
  -18.3962   13.2262  -17.5659 S   0  0  0  0  0  0  0  0  0  0  0  0
  -18.7669   11.6931  -18.4285 C   0  0  0  0  0  0  0  0  0  0  0  0
  -17.5713   10.7795  -18.5088 C   0  0  0  0  0  0  0  0  0  0  0  0
  -17.1276   10.7625  -19.9116 C   0  0  0  0  0  0  0  0  0  0  0  0
  -16.7846   10.7636  -21.0281 N   0  0  0  0  0  0  0  0  0  0  0  0
  1  2  1  0  0  0
  2  3  1  0  0  0
  3  4  2  0  0  0
  4  5  1  0  0  0
  5  6  2  0  0  0
  6  7  1  0  0  0
  7  8  2  0  0  0
  8  9  1  0  0  0
  9 10  2  0  0  0
 10 20  1  0  0  0
 20 21  1  0  0  0
 21 22  1  0  0  0
 22 23  1  0  0  0
 23 24  1  0  0  0
 24 34  1  0  0  0
 34 35  1  0  0  0
 35 36  1  0  0  0
 36 37  1  0  0  0
 37 38  3  0  0  0
 24 25  2  0  0  0
 25 26  1  0  0  0
 26 27  2  0  0  0
 27 28  1  0  0  0
 28 29  2  0  0  0
 29 30  1  0  0  0
 30 31  2  0  0  0
 31 32  1  0  0  0
 32 33  2  0  0  0
  9 11  1  0  0  0
 11 14  1  0  0  0
 14 15  1  0  0  0
 15 16  1  0  0  0
 16 17  1  0  0  0
 17 18  1  0  0  0
 18 19  1  0  0  0
 11 12  1  0  0  0
 12 13  2  0  0  0
 12  2  1  0  0  0
  8  3  1  0  0  0
 32 23  1  0  0  0
 19 14  1  0  0  0
 31 26  1  0  0  0
M  END
> <minimizedAffinity>
-6.93014

> <CNNscore>
0.2015018761

> <CNNaffinity>
7.5525412560

> <CNN_VS>
1.5218511820

> <CNNaffinity_variance>
0.1592534781

$$$$
[H]ON([H])C(=O)C([H])([H])C([H])([H])C([H])([H])C([H])([H])C([H])([H])C([H])(c1c([H])c([H])c([H])c(F)c1[H])c1c([H])c([H])c([H])c(F)c1[H]


 26 27  0  0  0  0  0  0  0  0999 V2000
  -17.4592   14.0622  -21.5242 C   0  0  0  0  0  0  0  0  0  0  0  0
  -17.3396   12.7485  -20.8679 C   0  0  0  0  0  0  0  0  0  0  0  0
  -17.8892   12.5789  -19.6192 C   0  0  0  0  0  0  0  0  0  0  0  0
  -17.8126   11.3980  -18.9125 C   0  0  0  0  0  0  0  0  0  0  0  0
  -17.1590   10.3278  -19.4676 C   0  0  0  0  0  0  0  0  0  0  0  0
  -16.6103   10.5073  -20.7217 C   0  0  0  0  0  0  0  0  0  0  0  0
  -15.9606    9.4522  -21.2799 F   0  0  0  0  0  0  0  0  0  0  0  0
  -16.6809   11.6781  -21.4331 C   0  0  0  0  0  0  0  0  0  0  0  0
  -16.9137   14.1215  -22.8779 C   0  0  0  0  0  0  0  0  0  0  0  0
  -17.6613   13.8591  -23.9709 C   0  0  0  0  0  0  0  0  0  0  0  0
  -17.0453   13.9274  -25.2262 C   0  0  0  0  0  0  0  0  0  0  0  0
  -15.7154   14.2509  -25.3796 C   0  0  0  0  0  0  0  0  0  0  0  0
  -14.9644   14.5170  -24.2530 C   0  0  0  0  0  0  0  0  0  0  0  0
  -13.6516   14.8368  -24.4001 F   0  0  0  0  0  0  0  0  0  0  0  0
  -15.5827   14.4461  -23.0220 C   0  0  0  0  0  0  0  0  0  0  0  0
  -18.8149   14.6181  -21.3186 C   0  0  0  0  0  0  0  0  0  0  0  0
  -18.9460   15.8986  -20.5868 C   0  0  0  0  0  0  0  0  0  0  0  0
  -17.5739   16.3945  -20.1473 C   0  0  0  0  0  0  0  0  0  0  0  0
  -16.9972   17.3996  -21.0673 C   0  0  0  0  0  0  0  0  0  0  0  0
  -17.9307   18.3150  -21.7601 C   0  0  0  0  0  0  0  0  0  0  0  0
  -16.8310   17.5978  -25.2929 O   0  0  0  0  0  0  0  0  0  0  0  0
  -16.8213   17.6761  -23.9450 N   0  0  0  0  0  0  0  0  0  0  0  0
  -17.9493   18.2330  -23.2337 C   0  0  0  0  0  0  0  0  0  0  0  0
  -18.9193   18.6346  -23.8830 O   0  0  0  0  0  0  0  0  0  0  0  0
  -16.5373   16.7103  -25.5686 H   0  0  0  0  0  0  0  0  0  0  0  0
  -15.9820   17.3247  -23.4463 H   0  0  0  0  0  0  0  0  0  0  0  0
 21 22  1  0  0  0
 22 23  1  0  0  0
 23 24  2  0  0  0
 23 20  1  0  0  0
 20 19  1  0  0  0
 19 18  1  0  0  0
 18 17  1  0  0  0
 17 16  1  0  0  0
 16  1  1  0  0  0
  1  2  1  0  0  0
  2  3  2  0  0  0
  3  4  1  0  0  0
  4  5  2  0  0  0
  5  6  1  0  0  0
  6  7  1  0  0  0
  6  8  2  0  0  0
  1  9  1  0  0  0
  9 10  2  0  0  0
 10 11  1  0  0  0
 11 12  2  0  0  0
 12 13  1  0  0  0
 13 14  1  0  0  0
 13 15  2  0  0  0
  8  2  1  0  0  0
 15  9  1  0  0  0
 21 25  1  0  0  0
 22 26  1  0  0  0
M  END
> <minimizedAffinity>
-7.93197

> <CNNscore>
0.5103382468

> <CNNaffinity>
6.3639559746

> <CNN_VS>
3.2477700710

> <CNNaffinity_variance>
0.3566000164

$$$$
[H]ON([H])C(=O)C([H])([H])C([H])([H])C([H])([H])C([H])([H])C([H])([H])C([H])(c1c([H])c([H])c([H])c(F)c1[H])c1c([H])c([H])c([H])c(F)c1[H]


 26 27  0  0  0  0  0  0  0  0999 V2000
  -17.8533   13.8587  -21.9596 C   0  0  0  0  0  0  0  0  0  0  0  0
  -16.9934   14.0221  -23.1447 C   0  0  0  0  0  0  0  0  0  0  0  0
  -15.7515   14.5908  -22.9894 C   0  0  0  0  0  0  0  0  0  0  0  0
  -14.8817   14.8077  -24.0364 C   0  0  0  0  0  0  0  0  0  0  0  0
  -15.2576   14.4438  -25.3040 C   0  0  0  0  0  0  0  0  0  0  0  0
  -16.5063   13.8734  -25.4506 C   0  0  0  0  0  0  0  0  0  0  0  0
  -16.8875   13.5095  -26.7033 F   0  0  0  0  0  0  0  0  0  0  0  0
  -17.3791   13.6535  -24.4154 C   0  0  0  0  0  0  0  0  0  0  0  0
  -17.4677   12.7661  -21.0700 C   0  0  0  0  0  0  0  0  0  0  0  0
  -17.7147   12.7927  -19.7431 C   0  0  0  0  0  0  0  0  0  0  0  0
  -17.2939   11.7043  -18.9696 C   0  0  0  0  0  0  0  0  0  0  0  0
  -16.6435   10.6191  -19.5138 C   0  0  0  0  0  0  0  0  0  0  0  0
  -16.3988   10.6063  -20.8717 C   0  0  0  0  0  0  0  0  0  0  0  0
  -15.7574    9.5371  -21.4127 F   0  0  0  0  0  0  0  0  0  0  0  0
  -16.8180   11.6846  -21.6229 C   0  0  0  0  0  0  0  0  0  0  0  0
  -18.1238   15.1727  -21.3356 C   0  0  0  0  0  0  0  0  0  0  0  0
  -19.5335   15.5775  -21.1324 C   0  0  0  0  0  0  0  0  0  0  0  0
  -19.7615   15.9725  -19.6785 C   0  0  0  0  0  0  0  0  0  0  0  0
  -18.5210   16.3891  -18.9881 C   0  0  0  0  0  0  0  0  0  0  0  0
  -18.5343   16.4240  -17.5090 C   0  0  0  0  0  0  0  0  0  0  0  0
  -20.7121   13.9290  -15.7098 O   0  0  0  0  0  0  0  0  0  0  0  0
  -20.3124   15.0598  -16.3299 N   0  0  0  0  0  0  0  0  0  0  0  0
  -18.9632   15.1842  -16.8323 C   0  0  0  0  0  0  0  0  0  0  0  0
  -18.1858   14.2370  -16.6829 O   0  0  0  0  0  0  0  0  0  0  0  0
  -21.5761   13.6518  -16.0655 H   0  0  0  0  0  0  0  0  0  0  0  0
  -21.0042   15.8267  -16.4301 H   0  0  0  0  0  0  0  0  0  0  0  0
 21 22  1  0  0  0
 22 23  1  0  0  0
 23 24  2  0  0  0
 23 20  1  0  0  0
 20 19  1  0  0  0
 19 18  1  0  0  0
 18 17  1  0  0  0
 17 16  1  0  0  0
 16  1  1  0  0  0
  1  2  1  0  0  0
  2  3  2  0  0  0
  3  4  1  0  0  0
  4  5  2  0  0  0
  5  6  1  0  0  0
  6  7  1  0  0  0
  6  8  2  0  0  0
  1  9  1  0  0  0
  9 10  2  0  0  0
 10 11  1  0  0  0
 11 12  2  0  0  0
 12 13  1  0  0  0
 13 14  1  0  0  0
 13 15  2  0  0  0
  8  2  1  0  0  0
 15  9  1  0  0  0
 21 25  1  0  0  0
 22 26  1  0  0  0
M  END
> <minimizedAffinity>
-7.85586

> <CNNscore>
0.3832603693

> <CNNaffinity>
6.2695593834

> <CNN_VS>
2.4028737545

> <CNNaffinity_variance>
0.1132761016

$$$$
[H]ON([H])C(=O)C([H])([H])C([H])([H])C([H])([H])C([H])([H])C([H])([H])C([H])(c1c([H])c([H])c([H])c(F)c1[H])c1c([H])c([H])c([H])c(F)c1[H]


 26 27  0  0  0  0  0  0  0  0999 V2000
  -17.8928   13.9296  -21.9333 C   0  0  0  0  0  0  0  0  0  0  0  0
  -17.0524   14.0913  -23.1326 C   0  0  0  0  0  0  0  0  0  0  0  0
  -17.5888   13.7942  -24.3630 C   0  0  0  0  0  0  0  0  0  0  0  0
  -16.8802   13.8908  -25.5412 C   0  0  0  0  0  0  0  0  0  0  0  0
  -15.5726   14.3026  -25.5031 C   0  0  0  0  0  0  0  0  0  0  0  0
  -15.0423   14.5987  -24.2632 C   0  0  0  0  0  0  0  0  0  0  0  0
  -13.7471   15.0076  -24.2155 F   0  0  0  0  0  0  0  0  0  0  0  0
  -15.7389   14.5058  -23.0852 C   0  0  0  0  0  0  0  0  0  0  0  0
  -17.5059   12.8247  -21.0597 C   0  0  0  0  0  0  0  0  0  0  0  0
  -17.7776   12.8192  -19.7374 C   0  0  0  0  0  0  0  0  0  0  0  0
  -17.3535   11.7215  -18.9790 C   0  0  0  0  0  0  0  0  0  0  0  0
  -16.6756   10.6585  -19.5335 C   0  0  0  0  0  0  0  0  0  0  0  0
  -16.4057   10.6784  -20.8867 C   0  0  0  0  0  0  0  0  0  0  0  0
  -15.7372    9.6312  -21.4378 F   0  0  0  0  0  0  0  0  0  0  0  0
  -16.8286   11.7655  -21.6228 C   0  0  0  0  0  0  0  0  0  0  0  0
  -18.1342   15.2419  -21.2939 C   0  0  0  0  0  0  0  0  0  0  0  0
  -19.5341   15.6909  -21.1173 C   0  0  0  0  0  0  0  0  0  0  0  0
  -19.7657   16.1323  -19.6774 C   0  0  0  0  0  0  0  0  0  0  0  0
  -18.5103   16.4148  -18.9472 C   0  0  0  0  0  0  0  0  0  0  0  0
  -18.5648   16.4431  -17.4689 C   0  0  0  0  0  0  0  0  0  0  0  0
  -20.7159   13.9006  -15.7046 O   0  0  0  0  0  0  0  0  0  0  0  0
  -20.3285   15.0437  -16.3098 N   0  0  0  0  0  0  0  0  0  0  0  0
  -18.9802   15.1900  -16.8085 C   0  0  0  0  0  0  0  0  0  0  0  0
  -18.1921   14.2501  -16.6699 O   0  0  0  0  0  0  0  0  0  0  0  0
  -21.5762   13.6178  -16.0651 H   0  0  0  0  0  0  0  0  0  0  0  0
  -21.0291   15.8036  -16.4014 H   0  0  0  0  0  0  0  0  0  0  0  0
 21 22  1  0  0  0
 22 23  1  0  0  0
 23 24  2  0  0  0
 23 20  1  0  0  0
 20 19  1  0  0  0
 19 18  1  0  0  0
 18 17  1  0  0  0
 17 16  1  0  0  0
 16  1  1  0  0  0
  1  2  1  0  0  0
  2  3  2  0  0  0
  3  4  1  0  0  0
  4  5  2  0  0  0
  5  6  1  0  0  0
  6  7  1  0  0  0
  6  8  2  0  0  0
  1  9  1  0  0  0
  9 10  2  0  0  0
 10 11  1  0  0  0
 11 12  2  0  0  0
 12 13  1  0  0  0
 13 14  1  0  0  0
 13 15  2  0  0  0
  8  2  1  0  0  0
 15  9  1  0  0  0
 21 25  1  0  0  0
 22 26  1  0  0  0
M  END
> <minimizedAffinity>
-7.89162

> <CNNscore>
0.3825693727

> <CNNaffinity>
6.2286367416

> <CNN_VS>
2.3828856945

> <CNNaffinity_variance>
0.1434920132

$$$$
[H]ON([H])C(=O)C([H])([H])C([H])([H])C([H])([H])C([H])([H])C([H])([H])C([H])(c1c([H])c([H])c([H])c(F)c1[H])c1c([H])c([H])c([H])c(F)c1[H]


 26 27  0  0  0  0  0  0  0  0999 V2000
  -17.0724   13.4157  -21.8730 C   0  0  0  0  0  0  0  0  0  0  0  0
  -17.5738   14.7733  -21.5969 C   0  0  0  0  0  0  0  0  0  0  0  0
  -16.9318   15.5376  -20.6517 C   0  0  0  0  0  0  0  0  0  0  0  0
  -17.3351   16.8092  -20.3049 C   0  0  0  0  0  0  0  0  0  0  0  0
  -18.4300   17.3554  -20.9241 C   0  0  0  0  0  0  0  0  0  0  0  0
  -19.0685   16.5807  -21.8719 C   0  0  0  0  0  0  0  0  0  0  0  0
  -20.1547   17.1137  -22.4908 F   0  0  0  0  0  0  0  0  0  0  0  0
  -18.6753   15.3145  -22.2240 C   0  0  0  0  0  0  0  0  0  0  0  0
  -17.3431   12.4381  -20.8219 C   0  0  0  0  0  0  0  0  0  0  0  0
  -16.6509   11.2843  -20.7118 C   0  0  0  0  0  0  0  0  0  0  0  0
  -16.9932   10.4030  -19.6794 C   0  0  0  0  0  0  0  0  0  0  0  0
  -18.0026   10.6731  -18.7820 C   0  0  0  0  0  0  0  0  0  0  0  0
  -18.7007   11.8568  -18.9072 C   0  0  0  0  0  0  0  0  0  0  0  0
  -19.6973   12.1273  -18.0235 F   0  0  0  0  0  0  0  0  0  0  0  0
  -18.3541   12.7166  -19.9286 C   0  0  0  0  0  0  0  0  0  0  0  0
  -17.3969   13.0202  -23.2614 C   0  0  0  0  0  0  0  0  0  0  0  0
  -16.3583   13.1930  -24.3025 C   0  0  0  0  0  0  0  0  0  0  0  0
  -14.9781   13.2605  -23.6605 C   0  0  0  0  0  0  0  0  0  0  0  0
  -14.1692   14.4027  -24.1404 C   0  0  0  0  0  0  0  0  0  0  0  0
  -14.7897   15.3234  -25.1184 C   0  0  0  0  0  0  0  0  0  0  0  0
  -17.0685   18.3157  -24.8789 O   0  0  0  0  0  0  0  0  0  0  0  0
  -16.4052   17.2549  -25.3866 N   0  0  0  0  0  0  0  0  0  0  0  0
  -15.5110   16.4816  -24.5555 C   0  0  0  0  0  0  0  0  0  0  0  0
  -15.3669   16.8107  -23.3745 O   0  0  0  0  0  0  0  0  0  0  0  0
  -18.0056   18.2694  -25.1430 H   0  0  0  0  0  0  0  0  0  0  0  0
  -16.5613   17.0199  -26.3852 H   0  0  0  0  0  0  0  0  0  0  0  0
 21 22  1  0  0  0
 22 23  1  0  0  0
 23 24  2  0  0  0
 23 20  1  0  0  0
 20 19  1  0  0  0
 19 18  1  0  0  0
 18 17  1  0  0  0
 17 16  1  0  0  0
 16  1  1  0  0  0
  1  2  1  0  0  0
  2  3  2  0  0  0
  3  4  1  0  0  0
  4  5  2  0  0  0
  5  6  1  0  0  0
  6  7  1  0  0  0
  6  8  2  0  0  0
  1  9  1  0  0  0
  9 10  2  0  0  0
 10 11  1  0  0  0
 11 12  2  0  0  0
 12 13  1  0  0  0
 13 14  1  0  0  0
 13 15  2  0  0  0
  8  2  1  0  0  0
 15  9  1  0  0  0
 21 25  1  0  0  0
 22 26  1  0  0  0
M  END
> <minimizedAffinity>
-8.04494

> <CNNscore>
0.3579704165

> <CNNaffinity>
6.1938447952

> <CNN_VS>
2.2172131538

> <CNNaffinity_variance>
0.2915713191

$$$$
[H]ON([H])C(=O)C([H])([H])C([H])([H])C([H])([H])C([H])([H])C([H])([H])C([H])(c1c([H])c([H])c([H])c(F)c1[H])c1c([H])c([H])c([H])c(F)c1[H]


 26 27  0  0  0  0  0  0  0  0999 V2000
  -17.3478   13.7527  -21.7143 C   0  0  0  0  0  0  0  0  0  0  0  0
  -17.4568   15.2201  -21.6391 C   0  0  0  0  0  0  0  0  0  0  0  0
  -18.4140   15.8534  -22.3957 C   0  0  0  0  0  0  0  0  0  0  0  0
  -18.5825   17.2213  -22.4131 C   0  0  0  0  0  0  0  0  0  0  0  0
  -17.7628   18.0057  -21.6428 C   0  0  0  0  0  0  0  0  0  0  0  0
  -16.8045   17.3612  -20.8863 C   0  0  0  0  0  0  0  0  0  0  0  0
  -15.9874   18.1305  -20.1198 F   0  0  0  0  0  0  0  0  0  0  0  0
  -16.6286   16.0010  -20.8621 C   0  0  0  0  0  0  0  0  0  0  0  0
  -17.8740   13.0400  -20.5530 C   0  0  0  0  0  0  0  0  0  0  0  0
  -18.8871   13.5258  -19.8045 C   0  0  0  0  0  0  0  0  0  0  0  0
  -19.3132   12.7767  -18.7012 C   0  0  0  0  0  0  0  0  0  0  0  0
  -18.7381   11.5728  -18.3594 C   0  0  0  0  0  0  0  0  0  0  0  0
  -17.7039   11.0891  -19.1345 C   0  0  0  0  0  0  0  0  0  0  0  0
  -17.1339    9.9013  -18.8007 F   0  0  0  0  0  0  0  0  0  0  0  0
  -17.2931   11.8365  -20.2186 C   0  0  0  0  0  0  0  0  0  0  0  0
  -17.7714   13.2734  -23.0485 C   0  0  0  0  0  0  0  0  0  0  0  0
  -16.7293   12.8073  -23.9915 C   0  0  0  0  0  0  0  0  0  0  0  0
  -15.3438   13.0761  -23.4170 C   0  0  0  0  0  0  0  0  0  0  0  0
  -14.5366   13.9931  -24.2516 C   0  0  0  0  0  0  0  0  0  0  0  0
  -15.2506   14.8406  -25.2320 C   0  0  0  0  0  0  0  0  0  0  0  0
  -16.7995   18.2760  -25.1729 O   0  0  0  0  0  0  0  0  0  0  0  0
  -16.4830   17.0262  -25.5740 N   0  0  0  0  0  0  0  0  0  0  0  0
  -15.5915   16.2058  -24.7863 C   0  0  0  0  0  0  0  0  0  0  0  0
  -15.1266   16.6708  -23.7416 O   0  0  0  0  0  0  0  0  0  0  0  0
  -17.7628   18.4057  -25.2444 H   0  0  0  0  0  0  0  0  0  0  0  0
  -16.9005   16.6824  -26.4596 H   0  0  0  0  0  0  0  0  0  0  0  0
 21 22  1  0  0  0
 22 23  1  0  0  0
 23 24  2  0  0  0
 23 20  1  0  0  0
 20 19  1  0  0  0
 19 18  1  0  0  0
 18 17  1  0  0  0
 17 16  1  0  0  0
 16  1  1  0  0  0
  1  2  1  0  0  0
  2  3  2  0  0  0
  3  4  1  0  0  0
  4  5  2  0  0  0
  5  6  1  0  0  0
  6  7  1  0  0  0
  6  8  2  0  0  0
  1  9  1  0  0  0
  9 10  2  0  0  0
 10 11  1  0  0  0
 11 12  2  0  0  0
 12 13  1  0  0  0
 13 14  1  0  0  0
 13 15  2  0  0  0
  8  2  1  0  0  0
 15  9  1  0  0  0
 21 25  1  0  0  0
 22 26  1  0  0  0
M  END
> <minimizedAffinity>
-7.75875

> <CNNscore>
0.3486749828

> <CNNaffinity>
6.2074947357

> <CNN_VS>
2.1643981934

> <CNNaffinity_variance>
0.3098041415

$$$$
[H]ON([H])C(=O)C([H])([H])C([H])([H])C([H])([H])C([H])([H])C([H])([H])C([H])(c1c([H])c([H])c([H])c(F)c1[H])c1c([H])c([H])c([H])c(F)c1[H]


 26 27  0  0  0  0  0  0  0  0999 V2000
  -17.7345   13.8121  -21.8718 C   0  0  0  0  0  0  0  0  0  0  0  0
  -16.9277   13.9981  -23.0906 C   0  0  0  0  0  0  0  0  0  0  0  0
  -15.7038   14.6155  -22.9875 C   0  0  0  0  0  0  0  0  0  0  0  0
  -14.8840   14.8565  -24.0690 C   0  0  0  0  0  0  0  0  0  0  0  0
  -15.2939   14.4673  -25.3185 C   0  0  0  0  0  0  0  0  0  0  0  0
  -16.5243   13.8481  -25.4125 C   0  0  0  0  0  0  0  0  0  0  0  0
  -16.9390   13.4590  -26.6468 F   0  0  0  0  0  0  0  0  0  0  0  0
  -17.3475   13.6038  -24.3427 C   0  0  0  0  0  0  0  0  0  0  0  0
  -17.4333   12.5976  -21.1183 C   0  0  0  0  0  0  0  0  0  0  0  0
  -16.6431   11.6193  -21.6094 C   0  0  0  0  0  0  0  0  0  0  0  0
  -16.4244   10.4854  -20.8180 C   0  0  0  0  0  0  0  0  0  0  0  0
  -16.9834   10.3381  -19.5679 C   0  0  0  0  0  0  0  0  0  0  0  0
  -17.7884   11.3469  -19.0795 C   0  0  0  0  0  0  0  0  0  0  0  0
  -18.3418   11.2056  -17.8462 F   0  0  0  0  0  0  0  0  0  0  0  0
  -17.9965   12.4588  -19.8688 C   0  0  0  0  0  0  0  0  0  0  0  0
  -17.8120   15.0773  -21.1085 C   0  0  0  0  0  0  0  0  0  0  0  0
  -19.0962   15.8143  -21.0978 C   0  0  0  0  0  0  0  0  0  0  0  0
  -19.4666   16.2021  -19.6716 C   0  0  0  0  0  0  0  0  0  0  0  0
  -18.3036   16.2347  -18.7576 C   0  0  0  0  0  0  0  0  0  0  0  0
  -18.3283   15.3403  -17.5792 C   0  0  0  0  0  0  0  0  0  0  0  0
  -20.4827   16.7473  -14.8255 O   0  0  0  0  0  0  0  0  0  0  0  0
  -19.4478   16.5808  -15.6765 N   0  0  0  0  0  0  0  0  0  0  0  0
  -19.4638   15.5154  -16.6526 C   0  0  0  0  0  0  0  0  0  0  0  0
  -20.4414   14.7626  -16.6918 O   0  0  0  0  0  0  0  0  0  0  0  0
  -20.7355   17.6883  -14.8019 H   0  0  0  0  0  0  0  0  0  0  0  0
  -18.6502   17.2404  -15.6026 H   0  0  0  0  0  0  0  0  0  0  0  0
 21 22  1  0  0  0
 22 23  1  0  0  0
 23 24  2  0  0  0
 23 20  1  0  0  0
 20 19  1  0  0  0
 19 18  1  0  0  0
 18 17  1  0  0  0
 17 16  1  0  0  0
 16  1  1  0  0  0
  1  2  1  0  0  0
  2  3  2  0  0  0
  3  4  1  0  0  0
  4  5  2  0  0  0
  5  6  1  0  0  0
  6  7  1  0  0  0
  6  8  2  0  0  0
  1  9  1  0  0  0
  9 10  2  0  0  0
 10 11  1  0  0  0
 11 12  2  0  0  0
 12 13  1  0  0  0
 13 14  1  0  0  0
 13 15  2  0  0  0
  8  2  1  0  0  0
 15  9  1  0  0  0
 21 25  1  0  0  0
 22 26  1  0  0  0
M  END
> <minimizedAffinity>
-7.62491

> <CNNscore>
0.3435981870

> <CNNaffinity>
6.1603422165

> <CNN_VS>
2.1166825294

> <CNNaffinity_variance>
0.1077487692

$$$$
[H]ON([H])C(=O)C([H])([H])C([H])([H])C([H])([H])C([H])([H])C([H])([H])C([H])(c1c([H])c([H])c([H])c(F)c1[H])c1c([H])c([H])c([H])c(F)c1[H]


 26 27  0  0  0  0  0  0  0  0999 V2000
  -17.6484   13.9432  -21.4525 C   0  0  0  0  0  0  0  0  0  0  0  0
  -17.1805   13.8860  -22.8484 C   0  0  0  0  0  0  0  0  0  0  0  0
  -18.1118   13.8260  -23.8578 C   0  0  0  0  0  0  0  0  0  0  0  0
  -17.7774   13.7474  -25.1927 C   0  0  0  0  0  0  0  0  0  0  0  0
  -16.4536   13.7271  -25.5502 C   0  0  0  0  0  0  0  0  0  0  0  0
  -15.5254   13.7878  -24.5299 C   0  0  0  0  0  0  0  0  0  0  0  0
  -14.2110   13.7682  -24.8746 F   0  0  0  0  0  0  0  0  0  0  0  0
  -15.8478   13.8660  -23.1989 C   0  0  0  0  0  0  0  0  0  0  0  0
  -17.5281   12.6880  -20.7152 C   0  0  0  0  0  0  0  0  0  0  0  0
  -18.0559   12.5191  -19.4841 C   0  0  0  0  0  0  0  0  0  0  0  0
  -17.8757   11.2838  -18.8505 C   0  0  0  0  0  0  0  0  0  0  0  0
  -17.1850   10.2466  -19.4372 C   0  0  0  0  0  0  0  0  0  0  0  0
  -16.6518   10.4344  -20.6960 C   0  0  0  0  0  0  0  0  0  0  0  0
  -15.9697    9.4133  -21.2786 F   0  0  0  0  0  0  0  0  0  0  0  0
  -16.8359   11.6560  -21.3097 C   0  0  0  0  0  0  0  0  0  0  0  0
  -17.1420   15.1655  -20.7901 C   0  0  0  0  0  0  0  0  0  0  0  0
  -18.1211   16.1918  -20.3652 C   0  0  0  0  0  0  0  0  0  0  0  0
  -19.0091   16.5873  -21.5386 C   0  0  0  0  0  0  0  0  0  0  0  0
  -18.4917   17.7502  -22.2928 C   0  0  0  0  0  0  0  0  0  0  0  0
  -18.1062   17.5387  -23.7056 C   0  0  0  0  0  0  0  0  0  0  0  0
  -14.8633   17.0725  -25.5685 O   0  0  0  0  0  0  0  0  0  0  0  0
  -16.1790   17.2500  -25.3227 N   0  0  0  0  0  0  0  0  0  0  0  0
  -16.6663   17.3446  -23.9656 C   0  0  0  0  0  0  0  0  0  0  0  0
  -15.8561   17.2599  -23.0381 O   0  0  0  0  0  0  0  0  0  0  0  0
  -14.5756   17.6947  -26.2613 H   0  0  0  0  0  0  0  0  0  0  0  0
  -16.8186   17.3151  -26.1373 H   0  0  0  0  0  0  0  0  0  0  0  0
 21 22  1  0  0  0
 22 23  1  0  0  0
 23 24  2  0  0  0
 23 20  1  0  0  0
 20 19  1  0  0  0
 19 18  1  0  0  0
 18 17  1  0  0  0
 17 16  1  0  0  0
 16  1  1  0  0  0
  1  2  1  0  0  0
  2  3  2  0  0  0
  3  4  1  0  0  0
  4  5  2  0  0  0
  5  6  1  0  0  0
  6  7  1  0  0  0
  6  8  2  0  0  0
  1  9  1  0  0  0
  9 10  2  0  0  0
 10 11  1  0  0  0
 11 12  2  0  0  0
 12 13  1  0  0  0
 13 14  1  0  0  0
 13 15  2  0  0  0
  8  2  1  0  0  0
 15  9  1  0  0  0
 21 25  1  0  0  0
 22 26  1  0  0  0
M  END
> <minimizedAffinity>
-8.09315

> <CNNscore>
0.3401637077

> <CNNaffinity>
6.2544250488

> <CNN_VS>
2.1275284290

> <CNNaffinity_variance>
0.2194432914

$$$$
[H]ON([H])C(=O)C([H])([H])C([H])([H])C([H])([H])C([H])([H])C([H])([H])C([H])(c1c([H])c([H])c([H])c(F)c1[H])c1c([H])c([H])c([H])c(F)c1[H]


 26 27  0  0  0  0  0  0  0  0999 V2000
  -17.5091   13.7253  -21.4234 C   0  0  0  0  0  0  0  0  0  0  0  0
  -17.3115   12.4389  -20.7328 C   0  0  0  0  0  0  0  0  0  0  0  0
  -16.5184   11.4842  -21.3238 C   0  0  0  0  0  0  0  0  0  0  0  0
  -16.2888   10.2426  -20.7711 C   0  0  0  0  0  0  0  0  0  0  0  0
  -16.8731    9.9265  -19.5714 C   0  0  0  0  0  0  0  0  0  0  0  0
  -17.6679   10.8913  -18.9851 C   0  0  0  0  0  0  0  0  0  0  0  0
  -18.2511   10.5870  -17.7960 F   0  0  0  0  0  0  0  0  0  0  0  0
  -17.9027   12.1295  -19.5269 C   0  0  0  0  0  0  0  0  0  0  0  0
  -16.9650   13.7823  -22.7778 C   0  0  0  0  0  0  0  0  0  0  0  0
  -15.8053   14.4108  -23.0653 C   0  0  0  0  0  0  0  0  0  0  0  0
  -15.3722   14.4245  -24.3965 C   0  0  0  0  0  0  0  0  0  0  0  0
  -16.0839   13.8231  -25.4108 C   0  0  0  0  0  0  0  0  0  0  0  0
  -17.2671   13.1842  -25.1011 C   0  0  0  0  0  0  0  0  0  0  0  0
  -17.9722   12.5893  -26.0992 F   0  0  0  0  0  0  0  0  0  0  0  0
  -17.6832   13.1780  -23.7860 C   0  0  0  0  0  0  0  0  0  0  0  0
  -18.8965   14.2031  -21.2334 C   0  0  0  0  0  0  0  0  0  0  0  0
  -19.1063   15.4969  -20.5445 C   0  0  0  0  0  0  0  0  0  0  0  0
  -17.8649   16.3702  -20.6791 C   0  0  0  0  0  0  0  0  0  0  0  0
  -17.9665   17.3595  -21.7745 C   0  0  0  0  0  0  0  0  0  0  0  0
  -17.8883   18.7933  -21.4172 C   0  0  0  0  0  0  0  0  0  0  0  0
  -18.7404   19.8686  -17.9070 O   0  0  0  0  0  0  0  0  0  0  0  0
  -18.0241   19.4815  -18.9840 N   0  0  0  0  0  0  0  0  0  0  0  0
  -18.6789   19.2161  -20.2446 C   0  0  0  0  0  0  0  0  0  0  0  0
  -19.9039   19.3504  -20.3157 O   0  0  0  0  0  0  0  0  0  0  0  0
  -18.3041   20.6304  -17.4836 H   0  0  0  0  0  0  0  0  0  0  0  0
  -16.9972   19.3835  -18.8719 H   0  0  0  0  0  0  0  0  0  0  0  0
 21 22  1  0  0  0
 22 23  1  0  0  0
 23 24  2  0  0  0
 23 20  1  0  0  0
 20 19  1  0  0  0
 19 18  1  0  0  0
 18 17  1  0  0  0
 17 16  1  0  0  0
 16  1  1  0  0  0
  1  2  1  0  0  0
  2  3  2  0  0  0
  3  4  1  0  0  0
  4  5  2  0  0  0
  5  6  1  0  0  0
  6  7  1  0  0  0
  6  8  2  0  0  0
  1  9  1  0  0  0
  9 10  2  0  0  0
 10 11  1  0  0  0
 11 12  2  0  0  0
 12 13  1  0  0  0
 13 14  1  0  0  0
 13 15  2  0  0  0
  8  2  1  0  0  0
 15  9  1  0  0  0
 21 25  1  0  0  0
 22 26  1  0  0  0
M  END
> <minimizedAffinity>
-7.36623

> <CNNscore>
0.3392841220

> <CNNaffinity>
6.3262701035

> <CNN_VS>
2.1464030743

> <CNNaffinity_variance>
0.1173837930

$$$$
[H]ON([H])C(=O)C([H])([H])C([H])([H])C([H])([H])C([H])([H])C([H])([H])C([H])(c1c([H])c([H])c([H])c(F)c1[H])c1c([H])c([H])c([H])c(F)c1[H]


 26 27  0  0  0  0  0  0  0  0999 V2000
  -17.5984   14.0962  -21.4010 C   0  0  0  0  0  0  0  0  0  0  0  0
  -17.4974   12.8130  -20.6840 C   0  0  0  0  0  0  0  0  0  0  0  0
  -18.0669   12.7036  -19.4376 C   0  0  0  0  0  0  0  0  0  0  0  0
  -18.0088   11.5557  -18.6769 C   0  0  0  0  0  0  0  0  0  0  0  0
  -17.3539   10.4575  -19.1727 C   0  0  0  0  0  0  0  0  0  0  0  0
  -16.7851   10.5766  -20.4251 C   0  0  0  0  0  0  0  0  0  0  0  0
  -16.1339    9.4934  -20.9247 F   0  0  0  0  0  0  0  0  0  0  0  0
  -16.8372   11.7141  -21.1899 C   0  0  0  0  0  0  0  0  0  0  0  0
  -17.0333   14.0903  -22.7480 C   0  0  0  0  0  0  0  0  0  0  0  0
  -17.6981   13.5850  -23.8088 C   0  0  0  0  0  0  0  0  0  0  0  0
  -17.0677   13.6108  -25.0585 C   0  0  0  0  0  0  0  0  0  0  0  0
  -15.8048   14.1302  -25.2380 C   0  0  0  0  0  0  0  0  0  0  0  0
  -15.1382   14.6435  -24.1442 C   0  0  0  0  0  0  0  0  0  0  0  0
  -13.8918   15.1572  -24.3172 F   0  0  0  0  0  0  0  0  0  0  0  0
  -15.7698   14.6121  -22.9183 C   0  0  0  0  0  0  0  0  0  0  0  0
  -18.9529   14.6696  -21.2406 C   0  0  0  0  0  0  0  0  0  0  0  0
  -19.1369   16.1180  -21.4870 C   0  0  0  0  0  0  0  0  0  0  0  0
  -18.4986   16.9263  -20.3640 C   0  0  0  0  0  0  0  0  0  0  0  0
  -19.3631   17.0443  -19.1692 C   0  0  0  0  0  0  0  0  0  0  0  0
  -18.8440   16.5154  -17.8885 C   0  0  0  0  0  0  0  0  0  0  0  0
  -19.8195   17.3221  -14.3386 O   0  0  0  0  0  0  0  0  0  0  0  0
  -19.5137   16.6166  -15.4484 N   0  0  0  0  0  0  0  0  0  0  0  0
  -19.1771   17.2942  -16.6797 C   0  0  0  0  0  0  0  0  0  0  0  0
  -19.1751   18.5285  -16.6951 O   0  0  0  0  0  0  0  0  0  0  0  0
  -19.3333   16.9563  -13.5772 H   0  0  0  0  0  0  0  0  0  0  0  0
  -19.5298   15.5812  -15.3828 H   0  0  0  0  0  0  0  0  0  0  0  0
 21 22  1  0  0  0
 22 23  1  0  0  0
 23 24  2  0  0  0
 23 20  1  0  0  0
 20 19  1  0  0  0
 19 18  1  0  0  0
 18 17  1  0  0  0
 17 16  1  0  0  0
 16  1  1  0  0  0
  1  2  1  0  0  0
  2  3  2  0  0  0
  3  4  1  0  0  0
  4  5  2  0  0  0
  5  6  1  0  0  0
  6  7  1  0  0  0
  6  8  2  0  0  0
  1  9  1  0  0  0
  9 10  2  0  0  0
 10 11  1  0  0  0
 11 12  2  0  0  0
 12 13  1  0  0  0
 13 14  1  0  0  0
 13 15  2  0  0  0
  8  2  1  0  0  0
 15  9  1  0  0  0
 21 25  1  0  0  0
 22 26  1  0  0  0
M  END
> <minimizedAffinity>
-7.82265

> <CNNscore>
0.3283659220

> <CNNaffinity>
6.1897764206

> <CNN_VS>
2.0325117111

> <CNNaffinity_variance>
0.0938093066

$$$$
[H]c1c([H])c([H])c(C([H])([H])[C@@]([H])(C(=O)N([H])[C@@]([H])(C([H])([H])C([H])(C([H])([H])[H])C([H])([H])[H])C([H])(C([H])([H])[H])C([H])([H])[H])N([H])C(=O)c2c([H])c([H])c([H])c(C(F)(F)F)c2[H])c([H])c1[H]


 34 35  0  0  0  0  0  0  0  0999 V2000
  -18.1251   17.7949  -23.1685 C   0  0  0  0  0  0  0  0  0  0  0  0
  -20.5947   17.8814  -22.9890 N   0  0  0  0  0  0  0  0  0  0  0  0
  -19.4020   18.5654  -23.3774 C   0  0  0  0  0  0  0  0  0  0  0  0
  -19.4467   19.7041  -23.8543 O   0  0  0  0  0  0  0  0  0  0  0  0
  -20.6211   16.9223  -22.5767 H   0  0  0  0  0  0  0  0  0  0  0  0
  -21.9332   18.5230  -23.1664 C   0  0  0  0  0  0  0  0  0  0  0  0
  -22.6604   18.1943  -21.9064 C   0  0  0  0  0  0  0  0  0  0  0  0
  -23.8720   17.2932  -22.1348 C   0  0  0  0  0  0  0  0  0  0  0  0
  -21.7028   17.4217  -21.0031 C   0  0  0  0  0  0  0  0  0  0  0  0
  -22.4549   17.9072  -24.4240 C   0  0  0  0  0  0  0  0  0  0  0  0
  -23.6505   18.2035  -26.6480 C   0  0  0  0  0  0  0  0  0  0  0  0
  -23.3597   18.6979  -25.2834 C   0  0  0  0  0  0  0  0  0  0  0  0
  -22.6996   20.0842  -25.4250 C   0  0  0  0  0  0  0  0  0  0  0  0
  -18.4217   16.5250  -22.5607 N   0  0  0  0  0  0  0  0  0  0  0  0
  -17.8284   16.0721  -21.3677 C   0  0  0  0  0  0  0  0  0  0  0  0
  -16.9813   16.7432  -20.6840 O   0  0  0  0  0  0  0  0  0  0  0  0
  -19.1079   15.8916  -23.0412 H   0  0  0  0  0  0  0  0  0  0  0  0
  -18.2011   14.7513  -20.8879 C   0  0  0  0  0  0  0  0  0  0  0  0
  -19.3793   14.6223  -20.1564 C   0  0  0  0  0  0  0  0  0  0  0  0
  -19.6995   13.3884  -19.6702 C   0  0  0  0  0  0  0  0  0  0  0  0
  -18.8835   12.2760  -19.8887 C   0  0  0  0  0  0  0  0  0  0  0  0
  -17.7262   12.4708  -20.6262 C   0  0  0  0  0  0  0  0  0  0  0  0
  -17.3707   13.6966  -21.1307 C   0  0  0  0  0  0  0  0  0  0  0  0
  -16.8502   11.2810  -20.8290 C   0  0  0  0  0  0  0  0  0  0  0  0
  -16.0299   11.5382  -21.9040 F   0  0  0  0  0  0  0  0  0  0  0  0
  -17.7245   10.2145  -21.0611 F   0  0  0  0  0  0  0  0  0  0  0  0
  -16.0986   11.0034  -19.7060 F   0  0  0  0  0  0  0  0  0  0  0  0
  -17.3114   17.6751  -24.4008 C   0  0  0  0  0  0  0  0  0  0  0  0
  -16.5735   16.3976  -24.5687 C   0  0  0  0  0  0  0  0  0  0  0  0
  -15.2843   16.2573  -24.0269 C   0  0  0  0  0  0  0  0  0  0  0  0
  -14.5832   15.0903  -24.1488 C   0  0  0  0  0  0  0  0  0  0  0  0
  -15.1510   14.0327  -24.8174 C   0  0  0  0  0  0  0  0  0  0  0  0
  -16.4119   14.1174  -25.3694 C   0  0  0  0  0  0  0  0  0  0  0  0
  -17.1125   15.3232  -25.2296 C   0  0  0  0  0  0  0  0  0  0  0  0
 11 12  1  0  0  0
 12 13  1  0  0  0
 12 10  1  0  0  0
 10  6  1  0  0  0
  6  2  1  0  0  0
  2  3  1  0  0  0
  3  4  2  0  0  0
  3  1  1  0  0  0
  1 28  1  0  0  0
 28 29  1  0  0  0
 29 30  2  0  0  0
 30 31  1  0  0  0
 31 32  2  0  0  0
 32 33  1  0  0  0
 33 34  2  0  0  0
  1 14  1  0  0  0
 14 15  1  0  0  0
 15 16  2  0  0  0
 15 18  1  0  0  0
 18 19  2  0  0  0
 19 20  1  0  0  0
 20 21  2  0  0  0
 21 22  1  0  0  0
 22 23  2  0  0  0
 22 24  1  0  0  0
 24 25  1  0  0  0
 24 26  1  0  0  0
 24 27  1  0  0  0
  6  7  1  0  0  0
  7  8  1  0  0  0
  7  9  1  0  0  0
 34 29  1  0  0  0
 23 18  1  0  0  0
  2  5  1  0  0  0
 14 17  1  0  0  0
M  END
> <minimizedAffinity>
-8.45484

> <CNNscore>
0.2829765975

> <CNNaffinity>
6.4760694504

> <CNN_VS>
1.8325761557

> <CNNaffinity_variance>
0.1932974756

$$$$
[H]c1c([H])c([H])c(C([H])([H])[C@@]([H])(C(=O)N([H])[C@@]([H])(C([H])([H])C([H])(C([H])([H])[H])C([H])([H])[H])C([H])(C([H])([H])[H])C([H])([H])[H])N([H])C(=O)c2c([H])c([H])c([H])c(C(F)(F)F)c2[H])c([H])c1[H]


 34 35  0  0  0  0  0  0  0  0999 V2000
  -17.9498   17.2529  -21.7567 C   0  0  0  0  0  0  0  0  0  0  0  0
  -18.0236   15.8413  -23.7915 N   0  0  0  0  0  0  0  0  0  0  0  0
  -17.2030   16.5311  -22.8471 C   0  0  0  0  0  0  0  0  0  0  0  0
  -15.9712   16.5129  -22.9397 O   0  0  0  0  0  0  0  0  0  0  0  0
  -19.0675   15.8235  -23.7690 H   0  0  0  0  0  0  0  0  0  0  0  0
  -17.4088   15.0634  -24.9102 C   0  0  0  0  0  0  0  0  0  0  0  0
  -17.4933   13.6462  -24.4529 C   0  0  0  0  0  0  0  0  0  0  0  0
  -17.8812   12.6809  -25.5708 C   0  0  0  0  0  0  0  0  0  0  0  0
  -16.1061   13.2275  -23.9730 C   0  0  0  0  0  0  0  0  0  0  0  0
  -16.0397   15.6489  -25.0354 C   0  0  0  0  0  0  0  0  0  0  0  0
  -16.0773   15.1465  -27.5273 C   0  0  0  0  0  0  0  0  0  0  0  0
  -15.4805   15.8733  -26.3843 C   0  0  0  0  0  0  0  0  0  0  0  0
  -13.9972   15.4609  -26.2980 C   0  0  0  0  0  0  0  0  0  0  0  0
  -19.3144   17.4610  -22.1626 N   0  0  0  0  0  0  0  0  0  0  0  0
  -19.8934   18.7320  -22.3341 C   0  0  0  0  0  0  0  0  0  0  0  0
  -19.2697   19.8362  -22.1703 O   0  0  0  0  0  0  0  0  0  0  0  0
  -19.9191   16.6178  -22.3255 H   0  0  0  0  0  0  0  0  0  0  0  0
  -21.2949   18.7888  -22.7166 C   0  0  0  0  0  0  0  0  0  0  0  0
  -22.2572   18.5622  -21.7356 C   0  0  0  0  0  0  0  0  0  0  0  0
  -23.5689   18.5715  -22.1107 C   0  0  0  0  0  0  0  0  0  0  0  0
  -23.9552   18.7998  -23.4336 C   0  0  0  0  0  0  0  0  0  0  0  0
  -22.9492   19.0207  -24.3611 C   0  0  0  0  0  0  0  0  0  0  0  0
  -21.6194   19.0182  -24.0216 C   0  0  0  0  0  0  0  0  0  0  0  0
  -23.3736   19.2359  -25.7745 C   0  0  0  0  0  0  0  0  0  0  0  0
  -22.5055   20.1398  -26.3437 F   0  0  0  0  0  0  0  0  0  0  0  0
  -24.6828   19.7213  -25.6968 F   0  0  0  0  0  0  0  0  0  0  0  0
  -23.3784   18.0569  -26.4909 F   0  0  0  0  0  0  0  0  0  0  0  0
  -17.8291   16.5930  -20.4357 C   0  0  0  0  0  0  0  0  0  0  0  0
  -18.3450   15.2029  -20.3559 C   0  0  0  0  0  0  0  0  0  0  0  0
  -17.4818   14.1209  -20.5995 C   0  0  0  0  0  0  0  0  0  0  0  0
  -17.9191   12.8283  -20.5190 C   0  0  0  0  0  0  0  0  0  0  0  0
  -19.2315   12.5826  -20.1950 C   0  0  0  0  0  0  0  0  0  0  0  0
  -20.1209   13.6072  -19.9478 C   0  0  0  0  0  0  0  0  0  0  0  0
  -19.6489   14.9241  -20.0340 C   0  0  0  0  0  0  0  0  0  0  0  0
 11 12  1  0  0  0
 12 13  1  0  0  0
 12 10  1  0  0  0
 10  6  1  0  0  0
  6  2  1  0  0  0
  2  3  1  0  0  0
  3  4  2  0  0  0
  3  1  1  0  0  0
  1 28  1  0  0  0
 28 29  1  0  0  0
 29 30  2  0  0  0
 30 31  1  0  0  0
 31 32  2  0  0  0
 32 33  1  0  0  0
 33 34  2  0  0  0
  1 14  1  0  0  0
 14 15  1  0  0  0
 15 16  2  0  0  0
 15 18  1  0  0  0
 18 19  2  0  0  0
 19 20  1  0  0  0
 20 21  2  0  0  0
 21 22  1  0  0  0
 22 23  2  0  0  0
 22 24  1  0  0  0
 24 25  1  0  0  0
 24 26  1  0  0  0
 24 27  1  0  0  0
  6  7  1  0  0  0
  7  8  1  0  0  0
  7  9  1  0  0  0
 34 29  1  0  0  0
 23 18  1  0  0  0
  2  5  1  0  0  0
 14 17  1  0  0  0
M  END
> <minimizedAffinity>
-7.81023

> <CNNscore>
0.2658145726

> <CNNaffinity>
6.5177927017

> <CNN_VS>
1.7325242758

> <CNNaffinity_variance>
0.1257266104

$$$$
[H]c1c([H])c([H])c(C([H])([H])[C@@]([H])(C(=O)N([H])[C@@]([H])(C([H])([H])C([H])(C([H])([H])[H])C([H])([H])[H])C([H])(C([H])([H])[H])C([H])([H])[H])N([H])C(=O)c2c([H])c([H])c([H])c(C(F)(F)F)c2[H])c([H])c1[H]


 34 35  0  0  0  0  0  0  0  0999 V2000
  -17.6195   14.3321  -21.6544 C   0  0  0  0  0  0  0  0  0  0  0  0
  -19.0620   15.9876  -20.5069 N   0  0  0  0  0  0  0  0  0  0  0  0
  -18.4622   15.5774  -21.7370 C   0  0  0  0  0  0  0  0  0  0  0  0
  -18.6455   16.2146  -22.7794 O   0  0  0  0  0  0  0  0  0  0  0  0
  -18.9411   15.4946  -19.5944 H   0  0  0  0  0  0  0  0  0  0  0  0
  -19.9437   17.1937  -20.4542 C   0  0  0  0  0  0  0  0  0  0  0  0
  -19.3886   17.9970  -19.3267 C   0  0  0  0  0  0  0  0  0  0  0  0
  -18.9779   17.1415  -18.1303 C   0  0  0  0  0  0  0  0  0  0  0  0
  -18.1233   18.6896  -19.8262 C   0  0  0  0  0  0  0  0  0  0  0  0
  -21.3111   16.6222  -20.2630 C   0  0  0  0  0  0  0  0  0  0  0  0
  -23.3370   17.5066  -19.0072 C   0  0  0  0  0  0  0  0  0  0  0  0
  -22.4664   17.5410  -20.2039 C   0  0  0  0  0  0  0  0  0  0  0  0
  -23.3432   17.1925  -21.4235 C   0  0  0  0  0  0  0  0  0  0  0  0
  -18.0753   13.5125  -20.5632 N   0  0  0  0  0  0  0  0  0  0  0  0
  -17.4808   12.2886  -20.2040 C   0  0  0  0  0  0  0  0  0  0  0  0
  -16.4630   11.7823  -20.7897 O   0  0  0  0  0  0  0  0  0  0  0  0
  -18.9085   13.8363  -20.0120 H   0  0  0  0  0  0  0  0  0  0  0  0
  -18.0697   11.5516  -19.0978 C   0  0  0  0  0  0  0  0  0  0  0  0
  -17.6234   10.2546  -18.8560 C   0  0  0  0  0  0  0  0  0  0  0  0
  -18.2125    9.5524  -17.8454 C   0  0  0  0  0  0  0  0  0  0  0  0
  -19.2338   10.1003  -17.0656 C   0  0  0  0  0  0  0  0  0  0  0  0
  -19.6305   11.3963  -17.3558 C   0  0  0  0  0  0  0  0  0  0  0  0
  -19.0622   12.1332  -18.3646 C   0  0  0  0  0  0  0  0  0  0  0  0
  -20.7402   11.9594  -16.5339 C   0  0  0  0  0  0  0  0  0  0  0  0
  -21.2215   13.0749  -17.1809 F   0  0  0  0  0  0  0  0  0  0  0  0
  -20.1654   12.2608  -15.2951 F   0  0  0  0  0  0  0  0  0  0  0  0
  -21.7511   11.0403  -16.3431 F   0  0  0  0  0  0  0  0  0  0  0  0
  -17.5393   13.5993  -22.9396 C   0  0  0  0  0  0  0  0  0  0  0  0
  -16.5025   14.0718  -23.8916 C   0  0  0  0  0  0  0  0  0  0  0  0
  -16.8531   14.3620  -25.2213 C   0  0  0  0  0  0  0  0  0  0  0  0
  -15.9276   14.8141  -26.1199 C   0  0  0  0  0  0  0  0  0  0  0  0
  -14.6262   14.9862  -25.7141 C   0  0  0  0  0  0  0  0  0  0  0  0
  -14.2283   14.7149  -24.4219 C   0  0  0  0  0  0  0  0  0  0  0  0
  -15.1954   14.2547  -23.5178 C   0  0  0  0  0  0  0  0  0  0  0  0
 11 12  1  0  0  0
 12 13  1  0  0  0
 12 10  1  0  0  0
 10  6  1  0  0  0
  6  2  1  0  0  0
  2  3  1  0  0  0
  3  4  2  0  0  0
  3  1  1  0  0  0
  1 28  1  0  0  0
 28 29  1  0  0  0
 29 30  2  0  0  0
 30 31  1  0  0  0
 31 32  2  0  0  0
 32 33  1  0  0  0
 33 34  2  0  0  0
  1 14  1  0  0  0
 14 15  1  0  0  0
 15 16  2  0  0  0
 15 18  1  0  0  0
 18 19  2  0  0  0
 19 20  1  0  0  0
 20 21  2  0  0  0
 21 22  1  0  0  0
 22 23  2  0  0  0
 22 24  1  0  0  0
 24 25  1  0  0  0
 24 26  1  0  0  0
 24 27  1  0  0  0
  6  7  1  0  0  0
  7  8  1  0  0  0
  7  9  1  0  0  0
 34 29  1  0  0  0
 23 18  1  0  0  0
  2  5  1  0  0  0
 14 17  1  0  0  0
M  END
> <minimizedAffinity>
-7.85525

> <CNNscore>
0.2459601164

> <CNNaffinity>
6.7328605652

> <CNN_VS>
1.6560151577

> <CNNaffinity_variance>
0.3797265589

$$$$
[H]c1c([H])c([H])c(C([H])([H])[C@@]([H])(C(=O)N([H])[C@@]([H])(C([H])([H])C([H])(C([H])([H])[H])C([H])([H])[H])C([H])(C([H])([H])[H])C([H])([H])[H])N([H])C(=O)c2c([H])c([H])c([H])c(C(F)(F)F)c2[H])c([H])c1[H]


 34 35  0  0  0  0  0  0  0  0999 V2000
  -19.4187   16.6085  -22.0169 C   0  0  0  0  0  0  0  0  0  0  0  0
  -21.6184   17.7467  -21.9507 N   0  0  0  0  0  0  0  0  0  0  0  0
  -20.3056   17.7195  -22.5138 C   0  0  0  0  0  0  0  0  0  0  0  0
  -19.9537   18.5564  -23.3516 O   0  0  0  0  0  0  0  0  0  0  0  0
  -21.9720   17.0715  -21.2370 H   0  0  0  0  0  0  0  0  0  0  0  0
  -22.6084   18.7830  -22.3759 C   0  0  0  0  0  0  0  0  0  0  0  0
  -23.3096   19.1516  -21.1122 C   0  0  0  0  0  0  0  0  0  0  0  0
  -23.8956   17.9455  -20.3815 C   0  0  0  0  0  0  0  0  0  0  0  0
  -22.2810   19.7766  -20.1733 C   0  0  0  0  0  0  0  0  0  0  0  0
  -23.4221   18.0861  -23.4175 C   0  0  0  0  0  0  0  0  0  0  0  0
  -24.2791   19.4686  -25.3714 C   0  0  0  0  0  0  0  0  0  0  0  0
  -23.2914   18.5101  -24.8267 C   0  0  0  0  0  0  0  0  0  0  0  0
  -23.3893   17.2194  -25.6646 C   0  0  0  0  0  0  0  0  0  0  0  0
  -18.3432   16.3961  -22.9487 N   0  0  0  0  0  0  0  0  0  0  0  0
  -17.7469   15.1429  -23.1813 C   0  0  0  0  0  0  0  0  0  0  0  0
  -18.1062   14.0566  -22.6102 O   0  0  0  0  0  0  0  0  0  0  0  0
  -17.9698   17.2249  -23.4748 H   0  0  0  0  0  0  0  0  0  0  0  0
  -16.6462   15.0851  -24.1293 C   0  0  0  0  0  0  0  0  0  0  0  0
  -15.3450   15.1051  -23.6330 C   0  0  0  0  0  0  0  0  0  0  0  0
  -14.3171   15.0970  -24.5301 C   0  0  0  0  0  0  0  0  0  0  0  0
  -14.5424   15.0694  -25.9084 C   0  0  0  0  0  0  0  0  0  0  0  0
  -15.8602   15.0482  -26.3374 C   0  0  0  0  0  0  0  0  0  0  0  0
  -16.9200   15.0563  -25.4654 C   0  0  0  0  0  0  0  0  0  0  0  0
  -16.0872   15.0464  -27.8114 C   0  0  0  0  0  0  0  0  0  0  0  0
  -16.7727   16.1953  -28.1350 F   0  0  0  0  0  0  0  0  0  0  0  0
  -16.8256   13.8872  -28.0695 F   0  0  0  0  0  0  0  0  0  0  0  0
  -14.8996   14.9819  -28.5104 F   0  0  0  0  0  0  0  0  0  0  0  0
  -18.9521   16.8163  -20.6261 C   0  0  0  0  0  0  0  0  0  0  0  0
  -19.2855   15.7371  -19.6624 C   0  0  0  0  0  0  0  0  0  0  0  0
  -20.3302   14.8415  -19.9482 C   0  0  0  0  0  0  0  0  0  0  0  0
  -20.6535   13.8269  -19.0912 C   0  0  0  0  0  0  0  0  0  0  0  0
  -19.9426   13.6814  -17.9245 C   0  0  0  0  0  0  0  0  0  0  0  0
  -18.9094   14.5332  -17.5946 C   0  0  0  0  0  0  0  0  0  0  0  0
  -18.5947   15.5645  -18.4899 C   0  0  0  0  0  0  0  0  0  0  0  0
 11 12  1  0  0  0
 12 13  1  0  0  0
 12 10  1  0  0  0
 10  6  1  0  0  0
  6  2  1  0  0  0
  2  3  1  0  0  0
  3  4  2  0  0  0
  3  1  1  0  0  0
  1 28  1  0  0  0
 28 29  1  0  0  0
 29 30  2  0  0  0
 30 31  1  0  0  0
 31 32  2  0  0  0
 32 33  1  0  0  0
 33 34  2  0  0  0
  1 14  1  0  0  0
 14 15  1  0  0  0
 15 16  2  0  0  0
 15 18  1  0  0  0
 18 19  2  0  0  0
 19 20  1  0  0  0
 20 21  2  0  0  0
 21 22  1  0  0  0
 22 23  2  0  0  0
 22 24  1  0  0  0
 24 25  1  0  0  0
 24 26  1  0  0  0
 24 27  1  0  0  0
  6  7  1  0  0  0
  7  8  1  0  0  0
  7  9  1  0  0  0
 34 29  1  0  0  0
 23 18  1  0  0  0
  2  5  1  0  0  0
 14 17  1  0  0  0
M  END
> <minimizedAffinity>
-7.72493

> <CNNscore>
0.2448540479

> <CNNaffinity>
6.2536368370

> <CNN_VS>
1.5312283039

> <CNNaffinity_variance>
0.2223029435

$$$$
[H]c1c([H])c([H])c(C([H])([H])[C@@]([H])(C(=O)N([H])[C@@]([H])(C([H])([H])C([H])(C([H])([H])[H])C([H])([H])[H])C([H])(C([H])([H])[H])C([H])([H])[H])N([H])C(=O)c2c([H])c([H])c([H])c(C(F)(F)F)c2[H])c([H])c1[H]


 34 35  0  0  0  0  0  0  0  0999 V2000
  -18.4084   16.7815  -22.0350 C   0  0  0  0  0  0  0  0  0  0  0  0
  -17.9082   15.0569  -23.7420 N   0  0  0  0  0  0  0  0  0  0  0  0
  -18.1479   16.4405  -23.4785 C   0  0  0  0  0  0  0  0  0  0  0  0
  -18.1295   17.2755  -24.3888 O   0  0  0  0  0  0  0  0  0  0  0  0
  -17.9152   14.3050  -23.0175 H   0  0  0  0  0  0  0  0  0  0  0  0
  -17.6112   14.5859  -25.1294 C   0  0  0  0  0  0  0  0  0  0  0  0
  -17.9793   13.1407  -25.1060 C   0  0  0  0  0  0  0  0  0  0  0  0
  -17.4841   12.3792  -26.3335 C   0  0  0  0  0  0  0  0  0  0  0  0
  -17.3028   12.5066  -23.8935 C   0  0  0  0  0  0  0  0  0  0  0  0
  -16.1630   14.9079  -25.3080 C   0  0  0  0  0  0  0  0  0  0  0  0
  -16.0561   15.3652  -27.8066 C   0  0  0  0  0  0  0  0  0  0  0  0
  -15.7609   15.7928  -26.4206 C   0  0  0  0  0  0  0  0  0  0  0  0
  -14.2317   15.9497  -26.3010 C   0  0  0  0  0  0  0  0  0  0  0  0
  -18.3825   15.5805  -21.2431 N   0  0  0  0  0  0  0  0  0  0  0  0
  -19.4713   15.1270  -20.4756 C   0  0  0  0  0  0  0  0  0  0  0  0
  -20.6046   15.7162  -20.4137 O   0  0  0  0  0  0  0  0  0  0  0  0
  -17.4964   15.0170  -21.2228 H   0  0  0  0  0  0  0  0  0  0  0  0
  -19.2893   13.9118  -19.6986 C   0  0  0  0  0  0  0  0  0  0  0  0
  -20.0834   13.7241  -18.5698 C   0  0  0  0  0  0  0  0  0  0  0  0
  -19.8756   12.6037  -17.8195 C   0  0  0  0  0  0  0  0  0  0  0  0
  -18.9011   11.6615  -18.1569 C   0  0  0  0  0  0  0  0  0  0  0  0
  -18.1460   11.9059  -19.2932 C   0  0  0  0  0  0  0  0  0  0  0  0
  -18.3255   13.0216  -20.0721 C   0  0  0  0  0  0  0  0  0  0  0  0
  -17.0909   10.9063  -19.6268 C   0  0  0  0  0  0  0  0  0  0  0  0
  -17.5214    9.6747  -19.1882 F   0  0  0  0  0  0  0  0  0  0  0  0
  -15.9428   11.3450  -18.9596 F   0  0  0  0  0  0  0  0  0  0  0  0
  -16.8316   10.8709  -20.9813 F   0  0  0  0  0  0  0  0  0  0  0  0
  -17.5102   17.8400  -21.5175 C   0  0  0  0  0  0  0  0  0  0  0  0
  -18.1771   18.9893  -20.8549 C   0  0  0  0  0  0  0  0  0  0  0  0
  -18.5048   20.1340  -21.6015 C   0  0  0  0  0  0  0  0  0  0  0  0
  -19.1333   21.2035  -21.0273 C   0  0  0  0  0  0  0  0  0  0  0  0
  -19.4492   21.1584  -19.6909 C   0  0  0  0  0  0  0  0  0  0  0  0
  -19.1490   20.0606  -18.9121 C   0  0  0  0  0  0  0  0  0  0  0  0
  -18.5067   18.9752  -19.5234 C   0  0  0  0  0  0  0  0  0  0  0  0
 11 12  1  0  0  0
 12 13  1  0  0  0
 12 10  1  0  0  0
 10  6  1  0  0  0
  6  2  1  0  0  0
  2  3  1  0  0  0
  3  4  2  0  0  0
  3  1  1  0  0  0
  1 28  1  0  0  0
 28 29  1  0  0  0
 29 30  2  0  0  0
 30 31  1  0  0  0
 31 32  2  0  0  0
 32 33  1  0  0  0
 33 34  2  0  0  0
  1 14  1  0  0  0
 14 15  1  0  0  0
 15 16  2  0  0  0
 15 18  1  0  0  0
 18 19  2  0  0  0
 19 20  1  0  0  0
 20 21  2  0  0  0
 21 22  1  0  0  0
 22 23  2  0  0  0
 22 24  1  0  0  0
 24 25  1  0  0  0
 24 26  1  0  0  0
 24 27  1  0  0  0
  6  7  1  0  0  0
  7  8  1  0  0  0
  7  9  1  0  0  0
 34 29  1  0  0  0
 23 18  1  0  0  0
  2  5  1  0  0  0
 14 17  1  0  0  0
M  END
> <minimizedAffinity>
-8.21933

> <CNNscore>
0.2411056310

> <CNNaffinity>
6.6104125977

> <CNN_VS>
1.5938076973

> <CNNaffinity_variance>
0.2092459202

$$$$
[H]c1c([H])c([H])c(C([H])([H])[C@@]([H])(C(=O)N([H])[C@@]([H])(C([H])([H])C([H])(C([H])([H])[H])C([H])([H])[H])C([H])(C([H])([H])[H])C([H])([H])[H])N([H])C(=O)c2c([H])c([H])c([H])c(C(F)(F)F)c2[H])c([H])c1[H]


 34 35  0  0  0  0  0  0  0  0999 V2000
  -17.5019   17.6555  -22.0249 C   0  0  0  0  0  0  0  0  0  0  0  0
  -17.0407   16.4365  -24.1319 N   0  0  0  0  0  0  0  0  0  0  0  0
  -16.7971   16.5249  -22.7269 C   0  0  0  0  0  0  0  0  0  0  0  0
  -16.0620   15.7134  -22.1549 O   0  0  0  0  0  0  0  0  0  0  0  0
  -17.6468   17.0936  -24.6715 H   0  0  0  0  0  0  0  0  0  0  0  0
  -16.4225   15.3450  -24.9451 C   0  0  0  0  0  0  0  0  0  0  0  0
  -15.6812   16.0698  -26.0173 C   0  0  0  0  0  0  0  0  0  0  0  0
  -14.1771   15.8084  -25.9838 C   0  0  0  0  0  0  0  0  0  0  0  0
  -16.1864   15.5558  -27.3628 C   0  0  0  0  0  0  0  0  0  0  0  0
  -17.5924   14.5211  -25.3757 C   0  0  0  0  0  0  0  0  0  0  0  0
  -16.7185   12.6408  -23.9046 C   0  0  0  0  0  0  0  0  0  0  0  0
  -17.6839   13.1189  -24.9196 C   0  0  0  0  0  0  0  0  0  0  0  0
  -17.4942   12.2534  -26.1816 C   0  0  0  0  0  0  0  0  0  0  0  0
  -18.6373   18.0739  -22.8032 N   0  0  0  0  0  0  0  0  0  0  0  0
  -19.1723   19.3750  -22.7677 C   0  0  0  0  0  0  0  0  0  0  0  0
  -18.6992   20.3298  -22.0609 O   0  0  0  0  0  0  0  0  0  0  0  0
  -19.1046   17.3655  -23.4219 H   0  0  0  0  0  0  0  0  0  0  0  0
  -20.3438   19.6452  -23.5853 C   0  0  0  0  0  0  0  0  0  0  0  0
  -20.5503   20.9475  -24.0339 C   0  0  0  0  0  0  0  0  0  0  0  0
  -21.6754   21.2034  -24.7619 C   0  0  0  0  0  0  0  0  0  0  0  0
  -22.6040   20.2030  -25.0589 C   0  0  0  0  0  0  0  0  0  0  0  0
  -22.3389   18.9277  -24.5851 C   0  0  0  0  0  0  0  0  0  0  0  0
  -21.2186   18.6323  -23.8493 C   0  0  0  0  0  0  0  0  0  0  0  0
  -23.3515   17.8751  -24.8858 C   0  0  0  0  0  0  0  0  0  0  0  0
  -24.1334   17.7081  -23.7653 F   0  0  0  0  0  0  0  0  0  0  0  0
  -22.6118   16.7312  -25.2023 F   0  0  0  0  0  0  0  0  0  0  0  0
  -24.1327   18.2138  -25.9713 F   0  0  0  0  0  0  0  0  0  0  0  0
  -17.8438   17.3417  -20.6178 C   0  0  0  0  0  0  0  0  0  0  0  0
  -19.0132   16.4486  -20.4187 C   0  0  0  0  0  0  0  0  0  0  0  0
  -20.2965   16.9997  -20.2621 C   0  0  0  0  0  0  0  0  0  0  0  0
  -21.3968   16.2067  -20.0928 C   0  0  0  0  0  0  0  0  0  0  0  0
  -21.2439   14.8415  -20.0734 C   0  0  0  0  0  0  0  0  0  0  0  0
  -20.0074   14.2488  -20.2210 C   0  0  0  0  0  0  0  0  0  0  0  0
  -18.8941   15.0822  -20.3955 C   0  0  0  0  0  0  0  0  0  0  0  0
 11 12  1  0  0  0
 12 13  1  0  0  0
 12 10  1  0  0  0
 10  6  1  0  0  0
  6  2  1  0  0  0
  2  3  1  0  0  0
  3  4  2  0  0  0
  3  1  1  0  0  0
  1 28  1  0  0  0
 28 29  1  0  0  0
 29 30  2  0  0  0
 30 31  1  0  0  0
 31 32  2  0  0  0
 32 33  1  0  0  0
 33 34  2  0  0  0
  1 14  1  0  0  0
 14 15  1  0  0  0
 15 16  2  0  0  0
 15 18  1  0  0  0
 18 19  2  0  0  0
 19 20  1  0  0  0
 20 21  2  0  0  0
 21 22  1  0  0  0
 22 23  2  0  0  0
 22 24  1  0  0  0
 24 25  1  0  0  0
 24 26  1  0  0  0
 24 27  1  0  0  0
  6  7  1  0  0  0
  7  8  1  0  0  0
  7  9  1  0  0  0
 34 29  1  0  0  0
 23 18  1  0  0  0
  2  5  1  0  0  0
 14 17  1  0  0  0
M  END
> <minimizedAffinity>
-7.49183

> <CNNscore>
0.2332168221

> <CNNaffinity>
6.3204607964

> <CNN_VS>
1.4740377665

> <CNNaffinity_variance>
0.2272635400

$$$$
[H]c1c([H])c([H])c(C([H])([H])[C@@]([H])(C(=O)N([H])[C@@]([H])(C([H])([H])C([H])(C([H])([H])[H])C([H])([H])[H])C([H])(C([H])([H])[H])C([H])([H])[H])N([H])C(=O)c2c([H])c([H])c([H])c(C(F)(F)F)c2[H])c([H])c1[H]


 34 35  0  0  0  0  0  0  0  0999 V2000
  -17.7380   15.0696  -19.8707 C   0  0  0  0  0  0  0  0  0  0  0  0
  -17.2171   15.9516  -22.1266 N   0  0  0  0  0  0  0  0  0  0  0  0
  -17.1126   16.1481  -20.7154 C   0  0  0  0  0  0  0  0  0  0  0  0
  -16.5383   17.1381  -20.2503 O   0  0  0  0  0  0  0  0  0  0  0  0
  -17.6931   15.1397  -22.5790 H   0  0  0  0  0  0  0  0  0  0  0  0
  -16.6167   16.9348  -23.0793 C   0  0  0  0  0  0  0  0  0  0  0  0
  -17.7927   17.5030  -23.7996 C   0  0  0  0  0  0  0  0  0  0  0  0
  -19.0029   16.5717  -23.7934 C   0  0  0  0  0  0  0  0  0  0  0  0
  -18.2148   18.7765  -23.0717 C   0  0  0  0  0  0  0  0  0  0  0  0
  -15.6686   16.1089  -23.8866 C   0  0  0  0  0  0  0  0  0  0  0  0
  -14.5959   13.8085  -23.7420 C   0  0  0  0  0  0  0  0  0  0  0  0
  -15.8141   14.6388  -23.8740 C   0  0  0  0  0  0  0  0  0  0  0  0
  -16.4810   14.2711  -25.2148 C   0  0  0  0  0  0  0  0  0  0  0  0
  -18.6754   15.6588  -18.9519 N   0  0  0  0  0  0  0  0  0  0  0  0
  -18.7462   15.3254  -17.5866 C   0  0  0  0  0  0  0  0  0  0  0  0
  -17.9762   14.4831  -17.0096 O   0  0  0  0  0  0  0  0  0  0  0  0
  -19.3571   16.3667  -19.3224 H   0  0  0  0  0  0  0  0  0  0  0  0
  -19.7672   15.9794  -16.7845 C   0  0  0  0  0  0  0  0  0  0  0  0
  -21.0939   15.5940  -16.9616 C   0  0  0  0  0  0  0  0  0  0  0  0
  -22.0516   16.2437  -16.2391 C   0  0  0  0  0  0  0  0  0  0  0  0
  -21.7313   17.2669  -15.3437 C   0  0  0  0  0  0  0  0  0  0  0  0
  -20.3926   17.6012  -15.2119 C   0  0  0  0  0  0  0  0  0  0  0  0
  -19.4016   16.9709  -15.9219 C   0  0  0  0  0  0  0  0  0  0  0  0
  -20.0669   18.7134  -14.2732 C   0  0  0  0  0  0  0  0  0  0  0  0
  -18.6968   18.7873  -14.1644 F   0  0  0  0  0  0  0  0  0  0  0  0
  -20.6859   18.3711  -13.0668 F   0  0  0  0  0  0  0  0  0  0  0  0
  -20.5803   19.9169  -14.7105 F   0  0  0  0  0  0  0  0  0  0  0  0
  -18.3218   13.9694  -20.6731 C   0  0  0  0  0  0  0  0  0  0  0  0
  -17.7380   12.6227  -20.4483 C   0  0  0  0  0  0  0  0  0  0  0  0
  -16.9816   12.0096  -21.4617 C   0  0  0  0  0  0  0  0  0  0  0  0
  -16.4165   10.7779  -21.2830 C   0  0  0  0  0  0  0  0  0  0  0  0
  -16.5940   10.1250  -20.0872 C   0  0  0  0  0  0  0  0  0  0  0  0
  -17.3282   10.6805  -19.0604 C   0  0  0  0  0  0  0  0  0  0  0  0
  -17.8960   11.9452  -19.2661 C   0  0  0  0  0  0  0  0  0  0  0  0
 11 12  1  0  0  0
 12 13  1  0  0  0
 12 10  1  0  0  0
 10  6  1  0  0  0
  6  2  1  0  0  0
  2  3  1  0  0  0
  3  4  2  0  0  0
  3  1  1  0  0  0
  1 28  1  0  0  0
 28 29  1  0  0  0
 29 30  2  0  0  0
 30 31  1  0  0  0
 31 32  2  0  0  0
 32 33  1  0  0  0
 33 34  2  0  0  0
  1 14  1  0  0  0
 14 15  1  0  0  0
 15 16  2  0  0  0
 15 18  1  0  0  0
 18 19  2  0  0  0
 19 20  1  0  0  0
 20 21  2  0  0  0
 21 22  1  0  0  0
 22 23  2  0  0  0
 22 24  1  0  0  0
 24 25  1  0  0  0
 24 26  1  0  0  0
 24 27  1  0  0  0
  6  7  1  0  0  0
  7  8  1  0  0  0
  7  9  1  0  0  0
 34 29  1  0  0  0
 23 18  1  0  0  0
  2  5  1  0  0  0
 14 17  1  0  0  0
M  END
> <minimizedAffinity>
-7.86916

> <CNNscore>
0.2047009468

> <CNNaffinity>
5.7289247513

> <CNN_VS>
1.1727163792

> <CNNaffinity_variance>
0.7695118785

$$$$
[H]c1c([H])c([H])c(C([H])([H])[C@@]([H])(C(=O)N([H])[C@@]([H])(C([H])([H])C([H])(C([H])([H])[H])C([H])([H])[H])C([H])(C([H])([H])[H])C([H])([H])[H])N([H])C(=O)c2c([H])c([H])c([H])c(C(F)(F)F)c2[H])c([H])c1[H]


 34 35  0  0  0  0  0  0  0  0999 V2000
  -17.6722   13.1451  -20.9644 C   0  0  0  0  0  0  0  0  0  0  0  0
  -17.5065   15.6077  -21.1807 N   0  0  0  0  0  0  0  0  0  0  0  0
  -18.3691   14.4699  -21.1288 C   0  0  0  0  0  0  0  0  0  0  0  0
  -19.5955   14.5954  -21.2086 O   0  0  0  0  0  0  0  0  0  0  0  0
  -16.4647   15.5656  -21.1234 H   0  0  0  0  0  0  0  0  0  0  0  0
  -18.0703   16.9856  -21.3164 C   0  0  0  0  0  0  0  0  0  0  0  0
  -17.4152   17.5238  -22.5436 C   0  0  0  0  0  0  0  0  0  0  0  0
  -16.0464   16.9017  -22.8107 C   0  0  0  0  0  0  0  0  0  0  0  0
  -18.2986   17.1702  -23.7371 C   0  0  0  0  0  0  0  0  0  0  0  0
  -17.7139   17.6409  -20.0217 C   0  0  0  0  0  0  0  0  0  0  0  0
  -20.1784   17.5674  -19.4019 C   0  0  0  0  0  0  0  0  0  0  0  0
  -18.7915   17.9570  -19.0618 C   0  0  0  0  0  0  0  0  0  0  0  0
  -18.7696   19.4897  -18.8953 C   0  0  0  0  0  0  0  0  0  0  0  0
  -18.2985   12.3984  -19.9060 N   0  0  0  0  0  0  0  0  0  0  0  0
  -17.6112   11.4946  -19.0747 C   0  0  0  0  0  0  0  0  0  0  0  0
  -16.3578   11.2539  -19.1527 O   0  0  0  0  0  0  0  0  0  0  0  0
  -19.3304   12.5214  -19.7536 H   0  0  0  0  0  0  0  0  0  0  0  0
  -18.3820   10.7855  -18.0664 C   0  0  0  0  0  0  0  0  0  0  0  0
  -18.0682    9.4528  -17.8111 C   0  0  0  0  0  0  0  0  0  0  0  0
  -18.8253    8.7802  -16.8969 C   0  0  0  0  0  0  0  0  0  0  0  0
  -19.8870    9.3923  -16.2265 C   0  0  0  0  0  0  0  0  0  0  0  0
  -20.1461   10.7210  -16.5241 C   0  0  0  0  0  0  0  0  0  0  0  0
  -19.4072   11.4298  -17.4380 C   0  0  0  0  0  0  0  0  0  0  0  0
  -21.2992   11.3545  -15.8219 C   0  0  0  0  0  0  0  0  0  0  0  0
  -21.4810   12.6103  -16.3553 F   0  0  0  0  0  0  0  0  0  0  0  0
  -20.9350   11.3896  -14.4721 F   0  0  0  0  0  0  0  0  0  0  0  0
  -22.4502   10.6052  -15.9524 F   0  0  0  0  0  0  0  0  0  0  0  0
  -17.5665   12.3838  -22.2310 C   0  0  0  0  0  0  0  0  0  0  0  0
  -16.8473   13.0636  -23.3379 C   0  0  0  0  0  0  0  0  0  0  0  0
  -17.5646   13.5504  -24.4441 C   0  0  0  0  0  0  0  0  0  0  0  0
  -16.9367   14.1951  -25.4729 C   0  0  0  0  0  0  0  0  0  0  0  0
  -15.5746   14.3687  -25.4248 C   0  0  0  0  0  0  0  0  0  0  0  0
  -14.8228   13.9094  -24.3638 C   0  0  0  0  0  0  0  0  0  0  0  0
  -15.4889   13.2535  -23.3196 C   0  0  0  0  0  0  0  0  0  0  0  0
 11 12  1  0  0  0
 12 13  1  0  0  0
 12 10  1  0  0  0
 10  6  1  0  0  0
  6  2  1  0  0  0
  2  3  1  0  0  0
  3  4  2  0  0  0
  3  1  1  0  0  0
  1 28  1  0  0  0
 28 29  1  0  0  0
 29 30  2  0  0  0
 30 31  1  0  0  0
 31 32  2  0  0  0
 32 33  1  0  0  0
 33 34  2  0  0  0
  1 14  1  0  0  0
 14 15  1  0  0  0
 15 16  2  0  0  0
 15 18  1  0  0  0
 18 19  2  0  0  0
 19 20  1  0  0  0
 20 21  2  0  0  0
 21 22  1  0  0  0
 22 23  2  0  0  0
 22 24  1  0  0  0
 24 25  1  0  0  0
 24 26  1  0  0  0
 24 27  1  0  0  0
  6  7  1  0  0  0
  7  8  1  0  0  0
  7  9  1  0  0  0
 34 29  1  0  0  0
 23 18  1  0  0  0
  2  5  1  0  0  0
 14 17  1  0  0  0
M  END
> <minimizedAffinity>
-8.12984

> <CNNscore>
0.1813818365

> <CNNaffinity>
6.5560846329

> <CNN_VS>
1.1891546249

> <CNNaffinity_variance>
0.3465408683

$$$$
[H]c1c([H])c([H])c(C([H])([H])[C@@]([H])(C(=O)N([H])[C@@]([H])(C([H])([H])C([H])(C([H])([H])[H])C([H])([H])[H])C([H])(C([H])([H])[H])C([H])([H])[H])N([H])C(=O)c2c([H])c([H])c([H])c(C(F)(F)F)c2[H])c([H])c1[H]


 34 35  0  0  0  0  0  0  0  0999 V2000
  -18.1541   17.2656  -21.1095 C   0  0  0  0  0  0  0  0  0  0  0  0
  -18.5281   14.9879  -22.0099 N   0  0  0  0  0  0  0  0  0  0  0  0
  -17.5762   15.9416  -21.5349 C   0  0  0  0  0  0  0  0  0  0  0  0
  -16.3725   15.6689  -21.4816 O   0  0  0  0  0  0  0  0  0  0  0  0
  -19.5553   15.1606  -22.0828 H   0  0  0  0  0  0  0  0  0  0  0  0
  -18.0910   13.6247  -22.4403 C   0  0  0  0  0  0  0  0  0  0  0  0
  -17.5409   13.0130  -21.1962 C   0  0  0  0  0  0  0  0  0  0  0  0
  -18.6208   12.6696  -20.1725 C   0  0  0  0  0  0  0  0  0  0  0  0
  -16.8671   11.6986  -21.5812 C   0  0  0  0  0  0  0  0  0  0  0  0
  -17.1188   13.8980  -23.5417 C   0  0  0  0  0  0  0  0  0  0  0  0
  -17.6797   12.5905  -25.6486 C   0  0  0  0  0  0  0  0  0  0  0  0
  -17.6011   13.8866  -24.9381 C   0  0  0  0  0  0  0  0  0  0  0  0
  -16.6286   14.7873  -25.7258 C   0  0  0  0  0  0  0  0  0  0  0  0
  -19.5108   17.3724  -21.5765 N   0  0  0  0  0  0  0  0  0  0  0  0
  -19.9162   18.2397  -22.6079 C   0  0  0  0  0  0  0  0  0  0  0  0
  -19.1257   19.0086  -23.2553 O   0  0  0  0  0  0  0  0  0  0  0  0
  -20.2448   16.7820  -21.1119 H   0  0  0  0  0  0  0  0  0  0  0  0
  -21.3284   18.2643  -22.9525 C   0  0  0  0  0  0  0  0  0  0  0  0
  -22.2338   17.6780  -22.0715 C   0  0  0  0  0  0  0  0  0  0  0  0
  -23.5520   17.6640  -22.4228 C   0  0  0  0  0  0  0  0  0  0  0  0
  -23.9997   18.2161  -23.6254 C   0  0  0  0  0  0  0  0  0  0  0  0
  -23.0486   18.7862  -24.4569 C   0  0  0  0  0  0  0  0  0  0  0  0
  -21.7141   18.8184  -24.1379 C   0  0  0  0  0  0  0  0  0  0  0  0
  -23.5360   19.3474  -25.7498 C   0  0  0  0  0  0  0  0  0  0  0  0
  -22.5355   20.1349  -26.2728 F   0  0  0  0  0  0  0  0  0  0  0  0
  -24.6834   20.0783  -25.4256 F   0  0  0  0  0  0  0  0  0  0  0  0
  -23.8799   18.3520  -26.6408 F   0  0  0  0  0  0  0  0  0  0  0  0
  -18.0166   17.5187  -19.6562 C   0  0  0  0  0  0  0  0  0  0  0  0
  -18.6882   16.5423  -18.7617 C   0  0  0  0  0  0  0  0  0  0  0  0
  -17.9210   15.7371  -17.9024 C   0  0  0  0  0  0  0  0  0  0  0  0
  -18.5073   14.8394  -17.0546 C   0  0  0  0  0  0  0  0  0  0  0  0
  -19.8761   14.7208  -17.0444 C   0  0  0  0  0  0  0  0  0  0  0  0
  -20.6757   15.4851  -17.8679 C   0  0  0  0  0  0  0  0  0  0  0  0
  -20.0522   16.4004  -18.7269 C   0  0  0  0  0  0  0  0  0  0  0  0
 11 12  1  0  0  0
 12 13  1  0  0  0
 12 10  1  0  0  0
 10  6  1  0  0  0
  6  2  1  0  0  0
  2  3  1  0  0  0
  3  4  2  0  0  0
  3  1  1  0  0  0
  1 28  1  0  0  0
 28 29  1  0  0  0
 29 30  2  0  0  0
 30 31  1  0  0  0
 31 32  2  0  0  0
 32 33  1  0  0  0
 33 34  2  0  0  0
  1 14  1  0  0  0
 14 15  1  0  0  0
 15 16  2  0  0  0
 15 18  1  0  0  0
 18 19  2  0  0  0
 19 20  1  0  0  0
 20 21  2  0  0  0
 21 22  1  0  0  0
 22 23  2  0  0  0
 22 24  1  0  0  0
 24 25  1  0  0  0
 24 26  1  0  0  0
 24 27  1  0  0  0
  6  7  1  0  0  0
  7  8  1  0  0  0
  7  9  1  0  0  0
 34 29  1  0  0  0
 23 18  1  0  0  0
  2  5  1  0  0  0
 14 17  1  0  0  0
M  END
> <minimizedAffinity>
-7.47295

> <CNNscore>
0.1771873087

> <CNNaffinity>
6.1126341820

> <CNN_VS>
1.0830812454

> <CNNaffinity_variance>
0.2875228524

$$$$
[H]c1c([H])c(C([H])(C([H])([H])[H])C([H])([H])[H])c([H])c([H])c1N([H])C(=O)N([H])C([H])([H])C(F)(F)F


 20 20  0  0  0  0  0  0  0  0999 V2000
  -16.6920   11.6867  -21.8120 N   0  0  0  0  0  0  0  0  0  0  0  0
  -16.7699   12.7403  -22.7287 C   0  0  0  0  0  0  0  0  0  0  0  0
  -17.4796   13.7408  -22.5150 O   0  0  0  0  0  0  0  0  0  0  0  0
  -16.0270   12.6847  -23.9407 N   0  0  0  0  0  0  0  0  0  0  0  0
  -16.0647   10.8486  -22.0296 H   0  0  0  0  0  0  0  0  0  0  0  0
  -15.4325   11.8641  -24.1372 H   0  0  0  0  0  0  0  0  0  0  0  0
  -18.6836   11.2605  -18.0974 C   0  0  0  0  0  0  0  0  0  0  0  0
  -17.6643   10.4101  -18.4728 C   0  0  0  0  0  0  0  0  0  0  0  0
  -17.0565   10.6028  -19.6773 C   0  0  0  0  0  0  0  0  0  0  0  0
  -17.3908   11.6211  -20.5905 C   0  0  0  0  0  0  0  0  0  0  0  0
  -18.4102   12.4627  -20.2042 C   0  0  0  0  0  0  0  0  0  0  0  0
  -19.0401   12.2710  -18.9663 C   0  0  0  0  0  0  0  0  0  0  0  0
  -20.6751   11.7396  -16.7160 C   0  0  0  0  0  0  0  0  0  0  0  0
  -19.3342   11.0460  -16.7959 C   0  0  0  0  0  0  0  0  0  0  0  0
  -19.5422    9.5637  -16.6127 C   0  0  0  0  0  0  0  0  0  0  0  0
  -16.1205   13.7758  -24.8682 C   0  0  0  0  0  0  0  0  0  0  0  0
  -17.1911   13.5502  -25.9134 C   0  0  0  0  0  0  0  0  0  0  0  0
  -17.3173   12.2222  -26.2292 F   0  0  0  0  0  0  0  0  0  0  0  0
  -16.8792   14.2292  -27.0745 F   0  0  0  0  0  0  0  0  0  0  0  0
  -18.3840   14.0844  -25.4417 F   0  0  0  0  0  0  0  0  0  0  0  0
 13 14  1  0  0  0
 14 15  1  0  0  0
 14  7  1  0  0  0
  7  8  2  0  0  0
  8  9  1  0  0  0
  9 10  2  0  0  0
 10  1  1  0  0  0
  1  2  1  0  0  0
  2  3  2  0  0  0
  2  4  1  0  0  0
  4 16  1  0  0  0
 16 17  1  0  0  0
 17 18  1  0  0  0
 17 19  1  0  0  0
 17 20  1  0  0  0
 10 11  1  0  0  0
 11 12  2  0  0  0
 12  7  1  0  0  0
  1  5  1  0  0  0
  4  6  1  0  0  0
M  END
> <minimizedAffinity>
-7.36727

> <CNNscore>
0.6644295454

> <CNNaffinity>
5.1595964432

> <CNN_VS>
3.4281883240

> <CNNaffinity_variance>
0.1807161570

$$$$
[H]c1c([H])c(C([H])(C([H])([H])[H])C([H])([H])[H])c([H])c([H])c1N([H])C(=O)N([H])C([H])([H])C(F)(F)F


 20 20  0  0  0  0  0  0  0  0999 V2000
  -16.5808   11.5545  -21.9526 N   0  0  0  0  0  0  0  0  0  0  0  0
  -16.6257   12.6908  -22.7672 C   0  0  0  0  0  0  0  0  0  0  0  0
  -17.2401   13.7175  -22.4226 O   0  0  0  0  0  0  0  0  0  0  0  0
  -15.9588   12.6916  -24.0238 N   0  0  0  0  0  0  0  0  0  0  0  0
  -16.0356   10.6956  -22.2817 H   0  0  0  0  0  0  0  0  0  0  0  0
  -15.4436   11.8506  -24.3283 H   0  0  0  0  0  0  0  0  0  0  0  0
  -18.6076   11.3960  -18.2360 C   0  0  0  0  0  0  0  0  0  0  0  0
  -18.9744   12.2885  -19.2219 C   0  0  0  0  0  0  0  0  0  0  0  0
  -18.2888   12.2864  -20.3997 C   0  0  0  0  0  0  0  0  0  0  0  0
  -17.2129   11.4291  -20.7000 C   0  0  0  0  0  0  0  0  0  0  0  0
  -16.8564   10.5435  -19.7074 C   0  0  0  0  0  0  0  0  0  0  0  0
  -17.5571   10.5394  -18.4929 C   0  0  0  0  0  0  0  0  0  0  0  0
  -20.5625   12.3087  -17.0322 C   0  0  0  0  0  0  0  0  0  0  0  0
  -19.3527   11.4044  -16.9679 C   0  0  0  0  0  0  0  0  0  0  0  0
  -19.8127    9.9968  -16.6834 C   0  0  0  0  0  0  0  0  0  0  0  0
  -16.0168   13.8673  -24.8448 C   0  0  0  0  0  0  0  0  0  0  0  0
  -17.1435   13.8080  -25.8529 C   0  0  0  0  0  0  0  0  0  0  0  0
  -17.4159   12.5189  -26.2314 F   0  0  0  0  0  0  0  0  0  0  0  0
  -16.8084   14.5166  -26.9898 F   0  0  0  0  0  0  0  0  0  0  0  0
  -18.2572   14.4310  -25.3030 F   0  0  0  0  0  0  0  0  0  0  0  0
 13 14  1  0  0  0
 14 15  1  0  0  0
 14  7  1  0  0  0
  7  8  2  0  0  0
  8  9  1  0  0  0
  9 10  2  0  0  0
 10  1  1  0  0  0
  1  2  1  0  0  0
  2  3  2  0  0  0
  2  4  1  0  0  0
  4 16  1  0  0  0
 16 17  1  0  0  0
 17 18  1  0  0  0
 17 19  1  0  0  0
 17 20  1  0  0  0
 10 11  1  0  0  0
 11 12  2  0  0  0
 12  7  1  0  0  0
  1  5  1  0  0  0
  4  6  1  0  0  0
M  END
> <minimizedAffinity>
-7.28125

> <CNNscore>
0.6518065333

> <CNNaffinity>
5.1947746277

> <CNN_VS>
3.3859879971

> <CNNaffinity_variance>
0.2120677531

$$$$
[H]c1c([H])c(C([H])(C([H])([H])[H])C([H])([H])[H])c([H])c([H])c1N([H])C(=O)N([H])C([H])([H])C(F)(F)F


 20 20  0  0  0  0  0  0  0  0999 V2000
  -18.2924   13.1298  -20.2635 N   0  0  0  0  0  0  0  0  0  0  0  0
  -17.9706   11.8831  -19.7171 C   0  0  0  0  0  0  0  0  0  0  0  0
  -17.4056   11.0011  -20.3903 O   0  0  0  0  0  0  0  0  0  0  0  0
  -18.2890   11.5979  -18.3602 N   0  0  0  0  0  0  0  0  0  0  0  0
  -18.7706   13.8630  -19.6495 H   0  0  0  0  0  0  0  0  0  0  0  0
  -18.7574   12.3154  -17.7846 H   0  0  0  0  0  0  0  0  0  0  0  0
  -17.3738   14.1131  -24.2805 C   0  0  0  0  0  0  0  0  0  0  0  0
  -16.9436   12.9337  -23.7085 C   0  0  0  0  0  0  0  0  0  0  0  0
  -17.2778   12.6700  -22.4138 C   0  0  0  0  0  0  0  0  0  0  0  0
  -18.0430   13.5211  -21.5937 C   0  0  0  0  0  0  0  0  0  0  0  0
  -18.4656   14.6952  -22.1764 C   0  0  0  0  0  0  0  0  0  0  0  0
  -18.1261   14.9735  -23.5080 C   0  0  0  0  0  0  0  0  0  0  0  0
  -15.5830   14.8760  -25.8019 C   0  0  0  0  0  0  0  0  0  0  0  0
  -17.0091   14.3900  -25.6782 C   0  0  0  0  0  0  0  0  0  0  0  0
  -17.1569   13.1120  -26.4648 C   0  0  0  0  0  0  0  0  0  0  0  0
  -17.9504   10.3129  -17.8182 C   0  0  0  0  0  0  0  0  0  0  0  0
  -19.0990    9.6919  -17.0538 C   0  0  0  0  0  0  0  0  0  0  0  0
  -20.2436   10.4378  -17.1671 F   0  0  0  0  0  0  0  0  0  0  0  0
  -18.7891    9.6014  -15.7112 F   0  0  0  0  0  0  0  0  0  0  0  0
  -19.2811    8.3936  -17.5141 F   0  0  0  0  0  0  0  0  0  0  0  0
 13 14  1  0  0  0
 14 15  1  0  0  0
 14  7  1  0  0  0
  7  8  2  0  0  0
  8  9  1  0  0  0
  9 10  2  0  0  0
 10  1  1  0  0  0
  1  2  1  0  0  0
  2  3  2  0  0  0
  2  4  1  0  0  0
  4 16  1  0  0  0
 16 17  1  0  0  0
 17 18  1  0  0  0
 17 19  1  0  0  0
 17 20  1  0  0  0
 10 11  1  0  0  0
 11 12  2  0  0  0
 12  7  1  0  0  0
  1  5  1  0  0  0
  4  6  1  0  0  0
M  END
> <minimizedAffinity>
-6.40606

> <CNNscore>
0.5647057891

> <CNNaffinity>
5.0564908981

> <CNN_VS>
2.8554296494

> <CNNaffinity_variance>
0.1646161824

$$$$
[H]c1c([H])c(C([H])(C([H])([H])[H])C([H])([H])[H])c([H])c([H])c1N([H])C(=O)N([H])C([H])([H])C(F)(F)F


 20 20  0  0  0  0  0  0  0  0999 V2000
  -15.9720   12.1533  -23.2570 N   0  0  0  0  0  0  0  0  0  0  0  0
  -15.6482   13.4499  -23.6699 C   0  0  0  0  0  0  0  0  0  0  0  0
  -15.7369   14.4225  -22.8977 O   0  0  0  0  0  0  0  0  0  0  0  0
  -15.2048   13.6820  -25.0016 N   0  0  0  0  0  0  0  0  0  0  0  0
  -15.8749   11.3438  -23.9488 H   0  0  0  0  0  0  0  0  0  0  0  0
  -15.1243   12.8893  -25.6578 H   0  0  0  0  0  0  0  0  0  0  0  0
  -17.5160   11.3088  -19.4035 C   0  0  0  0  0  0  0  0  0  0  0  0
  -18.0747   12.2792  -20.2093 C   0  0  0  0  0  0  0  0  0  0  0  0
  -17.5380   12.4996  -21.4425 C   0  0  0  0  0  0  0  0  0  0  0  0
  -16.4358   11.8029  -21.9737 C   0  0  0  0  0  0  0  0  0  0  0  0
  -15.8870   10.8374  -21.1592 C   0  0  0  0  0  0  0  0  0  0  0  0
  -16.4338   10.6045  -19.8893 C   0  0  0  0  0  0  0  0  0  0  0  0
  -19.4315   11.7772  -17.9152 C   0  0  0  0  0  0  0  0  0  0  0  0
  -18.1012   11.0769  -18.0742 C   0  0  0  0  0  0  0  0  0  0  0  0
  -18.3099    9.5930  -17.9046 C   0  0  0  0  0  0  0  0  0  0  0  0
  -14.8774   15.0195  -25.4058 C   0  0  0  0  0  0  0  0  0  0  0  0
  -15.8022   15.5349  -26.4868 C   0  0  0  0  0  0  0  0  0  0  0  0
  -16.5926   16.5578  -26.0305 F   0  0  0  0  0  0  0  0  0  0  0  0
  -16.6357   14.5257  -26.9269 F   0  0  0  0  0  0  0  0  0  0  0  0
  -15.0309   15.9243  -27.5750 F   0  0  0  0  0  0  0  0  0  0  0  0
 13 14  1  0  0  0
 14 15  1  0  0  0
 14  7  1  0  0  0
  7  8  2  0  0  0
  8  9  1  0  0  0
  9 10  2  0  0  0
 10  1  1  0  0  0
  1  2  1  0  0  0
  2  3  2  0  0  0
  2  4  1  0  0  0
  4 16  1  0  0  0
 16 17  1  0  0  0
 17 18  1  0  0  0
 17 19  1  0  0  0
 17 20  1  0  0  0
 10 11  1  0  0  0
 11 12  2  0  0  0
 12  7  1  0  0  0
  1  5  1  0  0  0
  4  6  1  0  0  0
M  END
> <minimizedAffinity>
-7.45661

> <CNNscore>
0.5635168552

> <CNNaffinity>
5.3554954529

> <CNN_VS>
3.0179119110

> <CNNaffinity_variance>
0.1839645207

$$$$
[H]c1c([H])c(C([H])(C([H])([H])[H])C([H])([H])[H])c([H])c([H])c1N([H])C(=O)N([H])C([H])([H])C(F)(F)F


 20 20  0  0  0  0  0  0  0  0999 V2000
  -16.5393   12.3157  -23.1070 N   0  0  0  0  0  0  0  0  0  0  0  0
  -16.0005   13.5177  -23.5777 C   0  0  0  0  0  0  0  0  0  0  0  0
  -15.9051   14.5212  -22.8468 O   0  0  0  0  0  0  0  0  0  0  0  0
  -15.5450   13.6145  -24.9219 N   0  0  0  0  0  0  0  0  0  0  0  0
  -16.5965   11.4745  -23.7646 H   0  0  0  0  0  0  0  0  0  0  0  0
  -15.6150   12.7942  -25.5445 H   0  0  0  0  0  0  0  0  0  0  0  0
  -17.9055   11.4570  -19.1901 C   0  0  0  0  0  0  0  0  0  0  0  0
  -16.9063   10.7155  -19.7859 C   0  0  0  0  0  0  0  0  0  0  0  0
  -16.5042   11.0453  -21.0456 C   0  0  0  0  0  0  0  0  0  0  0  0
  -17.0364   12.1042  -21.8060 C   0  0  0  0  0  0  0  0  0  0  0  0
  -18.0333   12.8362  -21.2000 C   0  0  0  0  0  0  0  0  0  0  0  0
  -18.4522   12.5031  -19.9041 C   0  0  0  0  0  0  0  0  0  0  0  0
  -19.6695   11.7088  -17.4787 C   0  0  0  0  0  0  0  0  0  0  0  0
  -18.3335   11.0948  -17.8303 C   0  0  0  0  0  0  0  0  0  0  0  0
  -18.4552    9.5934  -17.7600 C   0  0  0  0  0  0  0  0  0  0  0  0
  -14.9953   14.8564  -25.3856 C   0  0  0  0  0  0  0  0  0  0  0  0
  -15.8569   15.5044  -26.4472 C   0  0  0  0  0  0  0  0  0  0  0  0
  -16.5671   16.5638  -25.9446 F   0  0  0  0  0  0  0  0  0  0  0  0
  -16.7638   14.5935  -26.9516 F   0  0  0  0  0  0  0  0  0  0  0  0
  -15.0387   15.8860  -27.5035 F   0  0  0  0  0  0  0  0  0  0  0  0
 13 14  1  0  0  0
 14 15  1  0  0  0
 14  7  1  0  0  0
  7  8  2  0  0  0
  8  9  1  0  0  0
  9 10  2  0  0  0
 10  1  1  0  0  0
  1  2  1  0  0  0
  2  3  2  0  0  0
  2  4  1  0  0  0
  4 16  1  0  0  0
 16 17  1  0  0  0
 17 18  1  0  0  0
 17 19  1  0  0  0
 17 20  1  0  0  0
 10 11  1  0  0  0
 11 12  2  0  0  0
 12  7  1  0  0  0
  1  5  1  0  0  0
  4  6  1  0  0  0
M  END
> <minimizedAffinity>
-7.39009

> <CNNscore>
0.5559124351

> <CNNaffinity>
5.3089103699

> <CNN_VS>
2.9512891769

> <CNNaffinity_variance>
0.1043182388

$$$$
[H]c1c([H])c(C([H])(C([H])([H])[H])C([H])([H])[H])c([H])c([H])c1N([H])C(=O)N([H])C([H])([H])C(F)(F)F


 20 20  0  0  0  0  0  0  0  0999 V2000
  -18.8324   12.1771  -19.1170 N   0  0  0  0  0  0  0  0  0  0  0  0
  -18.3990   10.9972  -18.5035 C   0  0  0  0  0  0  0  0  0  0  0  0
  -17.3651   10.4103  -18.8736 O   0  0  0  0  0  0  0  0  0  0  0  0
  -19.1452   10.4392  -17.4285 N   0  0  0  0  0  0  0  0  0  0  0  0
  -19.7217   12.6547  -18.7643 H   0  0  0  0  0  0  0  0  0  0  0  0
  -20.0054   10.9101  -17.1063 H   0  0  0  0  0  0  0  0  0  0  0  0
  -16.8505   13.8581  -22.4626 C   0  0  0  0  0  0  0  0  0  0  0  0
  -17.1870   12.5210  -22.4185 C   0  0  0  0  0  0  0  0  0  0  0  0
  -17.8309   12.0404  -21.3177 C   0  0  0  0  0  0  0  0  0  0  0  0
  -18.1891   12.8135  -20.1967 C   0  0  0  0  0  0  0  0  0  0  0  0
  -17.8470   14.1464  -20.2530 C   0  0  0  0  0  0  0  0  0  0  0  0
  -17.1847   14.6484  -21.3823 C   0  0  0  0  0  0  0  0  0  0  0  0
  -14.7846   13.7531  -23.8134 C   0  0  0  0  0  0  0  0  0  0  0  0
  -16.1560   14.3690  -23.6542 C   0  0  0  0  0  0  0  0  0  0  0  0
  -16.9862   14.0260  -24.8655 C   0  0  0  0  0  0  0  0  0  0  0  0
  -18.6838    9.2281  -16.8122 C   0  0  0  0  0  0  0  0  0  0  0  0
  -19.5502    8.8130  -15.6432 C   0  0  0  0  0  0  0  0  0  0  0  0
  -19.0563    9.2859  -14.4550 F   0  0  0  0  0  0  0  0  0  0  0  0
  -19.6091    7.4363  -15.5542 F   0  0  0  0  0  0  0  0  0  0  0  0
  -20.8455    9.2579  -15.8776 F   0  0  0  0  0  0  0  0  0  0  0  0
 13 14  1  0  0  0
 14 15  1  0  0  0
 14  7  1  0  0  0
  7  8  2  0  0  0
  8  9  1  0  0  0
  9 10  2  0  0  0
 10  1  1  0  0  0
  1  2  1  0  0  0
  2  3  2  0  0  0
  2  4  1  0  0  0
  4 16  1  0  0  0
 16 17  1  0  0  0
 17 18  1  0  0  0
 17 19  1  0  0  0
 17 20  1  0  0  0
 10 11  1  0  0  0
 11 12  2  0  0  0
 12  7  1  0  0  0
  1  5  1  0  0  0
  4  6  1  0  0  0
M  END
> <minimizedAffinity>
-6.27846

> <CNNscore>
0.5421514511

> <CNNaffinity>
4.8536481857

> <CNN_VS>
2.6314125061

> <CNNaffinity_variance>
0.0469689667

$$$$
[H]c1c([H])c(C([H])(C([H])([H])[H])C([H])([H])[H])c([H])c([H])c1N([H])C(=O)N([H])C([H])([H])C(F)(F)F


 20 20  0  0  0  0  0  0  0  0999 V2000
  -16.3389   12.0123  -22.5727 N   0  0  0  0  0  0  0  0  0  0  0  0
  -16.3983   13.2046  -23.3017 C   0  0  0  0  0  0  0  0  0  0  0  0
  -17.0093   14.2017  -22.8742 O   0  0  0  0  0  0  0  0  0  0  0  0
  -15.7507   13.2986  -24.5649 N   0  0  0  0  0  0  0  0  0  0  0  0
  -15.7972   11.1811  -22.9715 H   0  0  0  0  0  0  0  0  0  0  0  0
  -15.2387   12.4835  -24.9375 H   0  0  0  0  0  0  0  0  0  0  0  0
  -18.0462   11.1392  -18.7953 C   0  0  0  0  0  0  0  0  0  0  0  0
  -16.9690   10.4287  -19.2833 C   0  0  0  0  0  0  0  0  0  0  0  0
  -16.4588   10.7618  -20.5023 C   0  0  0  0  0  0  0  0  0  0  0  0
  -16.9515   11.7944  -21.3230 C   0  0  0  0  0  0  0  0  0  0  0  0
  -18.0271   12.4954  -20.8247 C   0  0  0  0  0  0  0  0  0  0  0  0
  -18.5575   12.1589  -19.5711 C   0  0  0  0  0  0  0  0  0  0  0  0
  -19.9618   11.3687  -17.2521 C   0  0  0  0  0  0  0  0  0  0  0  0
  -18.5907   10.7737  -17.4788 C   0  0  0  0  0  0  0  0  0  0  0  0
  -18.6965    9.2708  -17.4144 C   0  0  0  0  0  0  0  0  0  0  0  0
  -15.8234   14.5306  -25.2974 C   0  0  0  0  0  0  0  0  0  0  0  0
  -14.6187   15.4136  -25.0559 C   0  0  0  0  0  0  0  0  0  0  0  0
  -13.7461   14.8454  -24.1643 F   0  0  0  0  0  0  0  0  0  0  0  0
  -15.0122   16.6319  -24.5386 F   0  0  0  0  0  0  0  0  0  0  0  0
  -14.0120   15.6717  -26.2790 F   0  0  0  0  0  0  0  0  0  0  0  0
 13 14  1  0  0  0
 14 15  1  0  0  0
 14  7  1  0  0  0
  7  8  2  0  0  0
  8  9  1  0  0  0
  9 10  2  0  0  0
 10  1  1  0  0  0
  1  2  1  0  0  0
  2  3  2  0  0  0
  2  4  1  0  0  0
  4 16  1  0  0  0
 16 17  1  0  0  0
 17 18  1  0  0  0
 17 19  1  0  0  0
 17 20  1  0  0  0
 10 11  1  0  0  0
 11 12  2  0  0  0
 12  7  1  0  0  0
  1  5  1  0  0  0
  4  6  1  0  0  0
M  END
> <minimizedAffinity>
-7.36955

> <CNNscore>
0.5417217612

> <CNNaffinity>
5.2267570496

> <CNN_VS>
2.8314480782

> <CNNaffinity_variance>
0.1784347743

$$$$
[H]c1c([H])c(C([H])(C([H])([H])[H])C([H])([H])[H])c([H])c([H])c1N([H])C(=O)N([H])C([H])([H])C(F)(F)F


 20 20  0  0  0  0  0  0  0  0999 V2000
  -17.1557   12.1346  -22.2493 N   0  0  0  0  0  0  0  0  0  0  0  0
  -17.3023   12.5317  -20.9161 C   0  0  0  0  0  0  0  0  0  0  0  0
  -17.2687   13.7314  -20.5845 O   0  0  0  0  0  0  0  0  0  0  0  0
  -17.4956   11.5546  -19.9004 N   0  0  0  0  0  0  0  0  0  0  0  0
  -17.1984   11.0945  -22.4936 H   0  0  0  0  0  0  0  0  0  0  0  0
  -17.5266   10.5545  -20.1541 H   0  0  0  0  0  0  0  0  0  0  0  0
  -16.2700   14.7643  -25.4504 C   0  0  0  0  0  0  0  0  0  0  0  0
  -15.2722   14.1694  -24.7064 C   0  0  0  0  0  0  0  0  0  0  0  0
  -15.6201   13.3264  -23.6937 C   0  0  0  0  0  0  0  0  0  0  0  0
  -16.9436   13.0054  -23.3362 C   0  0  0  0  0  0  0  0  0  0  0  0
  -17.9302   13.6061  -24.0862 C   0  0  0  0  0  0  0  0  0  0  0  0
  -17.5802   14.4745  -25.1300 C   0  0  0  0  0  0  0  0  0  0  0  0
  -14.4010   15.9545  -26.5431 C   0  0  0  0  0  0  0  0  0  0  0  0
  -15.8863   15.6726  -26.5417 C   0  0  0  0  0  0  0  0  0  0  0  0
  -16.2582   15.0200  -27.8494 C   0  0  0  0  0  0  0  0  0  0  0  0
  -17.6440   11.9824  -18.5386 C   0  0  0  0  0  0  0  0  0  0  0  0
  -19.0896   11.9838  -18.0919 C   0  0  0  0  0  0  0  0  0  0  0  0
  -19.5399   10.7151  -17.8329 F   0  0  0  0  0  0  0  0  0  0  0  0
  -19.8956   12.5217  -19.0756 F   0  0  0  0  0  0  0  0  0  0  0  0
  -19.2044   12.8094  -16.9802 F   0  0  0  0  0  0  0  0  0  0  0  0
 13 14  1  0  0  0
 14 15  1  0  0  0
 14  7  1  0  0  0
  7  8  2  0  0  0
  8  9  1  0  0  0
  9 10  2  0  0  0
 10  1  1  0  0  0
  1  2  1  0  0  0
  2  3  2  0  0  0
  2  4  1  0  0  0
  4 16  1  0  0  0
 16 17  1  0  0  0
 17 18  1  0  0  0
 17 19  1  0  0  0
 17 20  1  0  0  0
 10 11  1  0  0  0
 11 12  2  0  0  0
 12  7  1  0  0  0
  1  5  1  0  0  0
  4  6  1  0  0  0
M  END
> <minimizedAffinity>
-6.72895

> <CNNscore>
0.4998530447

> <CNNaffinity>
5.0950117111

> <CNN_VS>
2.5467572212

> <CNNaffinity_variance>
0.0508231148

$$$$
[H]c1c([H])c(C([H])(C([H])([H])[H])C([H])([H])[H])c([H])c([H])c1N([H])C(=O)N([H])C([H])([H])C(F)(F)F


 20 20  0  0  0  0  0  0  0  0999 V2000
  -17.2887   12.4731  -19.9595 N   0  0  0  0  0  0  0  0  0  0  0  0
  -17.4042   12.3556  -21.3485 C   0  0  0  0  0  0  0  0  0  0  0  0
  -18.1285   11.4890  -21.8727 O   0  0  0  0  0  0  0  0  0  0  0  0
  -16.6836   13.2393  -22.1992 N   0  0  0  0  0  0  0  0  0  0  0  0
  -16.6619   13.2358  -19.5488 H   0  0  0  0  0  0  0  0  0  0  0  0
  -16.0775   13.9649  -21.7848 H   0  0  0  0  0  0  0  0  0  0  0  0
  -19.3721   10.2012  -17.0536 C   0  0  0  0  0  0  0  0  0  0  0  0
  -19.7509   11.4888  -17.3723 C   0  0  0  0  0  0  0  0  0  0  0  0
  -19.0457   12.1664  -18.3214 C   0  0  0  0  0  0  0  0  0  0  0  0
  -17.9376   11.6489  -19.0192 C   0  0  0  0  0  0  0  0  0  0  0  0
  -17.5693   10.3630  -18.6914 C   0  0  0  0  0  0  0  0  0  0  0  0
  -18.2901    9.6592  -17.7161 C   0  0  0  0  0  0  0  0  0  0  0  0
  -19.4104    9.4381  -14.7041 C   0  0  0  0  0  0  0  0  0  0  0  0
  -20.1384    9.4766  -16.0285 C   0  0  0  0  0  0  0  0  0  0  0  0
  -21.4560   10.1850  -15.8381 C   0  0  0  0  0  0  0  0  0  0  0  0
  -16.8156   13.1025  -23.6216 C   0  0  0  0  0  0  0  0  0  0  0  0
  -17.6616   14.2008  -24.2276 C   0  0  0  0  0  0  0  0  0  0  0  0
  -16.8936   15.2524  -24.6562 F   0  0  0  0  0  0  0  0  0  0  0  0
  -18.5560   14.6879  -23.2951 F   0  0  0  0  0  0  0  0  0  0  0  0
  -18.4134   13.6556  -25.2612 F   0  0  0  0  0  0  0  0  0  0  0  0
 13 14  1  0  0  0
 14 15  1  0  0  0
 14  7  1  0  0  0
  7  8  2  0  0  0
  8  9  1  0  0  0
  9 10  2  0  0  0
 10  1  1  0  0  0
  1  2  1  0  0  0
  2  3  2  0  0  0
  2  4  1  0  0  0
  4 16  1  0  0  0
 16 17  1  0  0  0
 17 18  1  0  0  0
 17 19  1  0  0  0
 17 20  1  0  0  0
 10 11  1  0  0  0
 11 12  2  0  0  0
 12  7  1  0  0  0
  1  5  1  0  0  0
  4  6  1  0  0  0
M  END
> <minimizedAffinity>
-6.43065

> <CNNscore>
0.4969687164

> <CNNaffinity>
4.6940317154

> <CNN_VS>
2.3327867985

> <CNNaffinity_variance>
0.0783854201

$$$$
[H]c1c([H])c([N+](=O)[O-])c([H])c([H])c1-c1c([H])c([H])c(S(=O)(=O)N2C([H])([H])C([H])([H])C([H])([H])C2([H])[H])c([H])c1[H]


 23 25  0  0  0  0  0  0  0  0999 V2000
  -16.7837   13.8850  -24.1127 C   0  0  0  0  0  0  0  0  0  0  0  0
  -16.7078   14.6847  -22.9824 C   0  0  0  0  0  0  0  0  0  0  0  0
  -17.0070   14.1541  -21.7461 C   0  0  0  0  0  0  0  0  0  0  0  0
  -17.3878   12.8345  -21.5700 C   0  0  0  0  0  0  0  0  0  0  0  0
  -17.4573   12.0567  -22.7033 C   0  0  0  0  0  0  0  0  0  0  0  0
  -17.1630   12.5648  -23.9498 C   0  0  0  0  0  0  0  0  0  0  0  0
  -15.8612   15.4619  -27.9896 C   0  0  0  0  0  0  0  0  0  0  0  0
  -16.7335   14.3982  -27.8448 C   0  0  0  0  0  0  0  0  0  0  0  0
  -17.0173   13.9069  -26.6025 C   0  0  0  0  0  0  0  0  0  0  0  0
  -16.4709   14.4212  -25.4412 C   0  0  0  0  0  0  0  0  0  0  0  0
  -15.6002   15.4829  -25.5859 C   0  0  0  0  0  0  0  0  0  0  0  0
  -15.2989   15.9970  -26.8443 C   0  0  0  0  0  0  0  0  0  0  0  0
  -14.2624   15.9183  -29.7369 O   0  0  0  0  0  0  0  0  0  0  0  0
  -15.5521   15.9886  -29.2693 N   0  0  0  0  0  0  0  0  0  0  0  0
  -16.4653   16.5055  -29.9420 O   0  0  0  0  0  0  0  0  0  0  0  0
  -17.7587   12.2128  -19.9656 S   0  0  0  0  0  0  0  0  0  0  0  0
  -16.4689   12.2147  -19.1936 O   0  0  0  0  0  0  0  0  0  0  0  0
  -18.2956   10.8298  -20.0258 O   0  0  0  0  0  0  0  0  0  0  0  0
  -18.8371   13.2973  -19.1679 N   0  0  0  0  0  0  0  0  0  0  0  0
  -19.7718   13.9029  -20.0667 C   0  0  0  0  0  0  0  0  0  0  0  0
  -21.1079   13.9241  -19.3225 C   0  0  0  0  0  0  0  0  0  0  0  0
  -20.7742   13.4606  -17.9137 C   0  0  0  0  0  0  0  0  0  0  0  0
  -19.5641   12.5928  -18.1490 C   0  0  0  0  0  0  0  0  0  0  0  0
 13 14  1  0  0  0
 14 15  2  0  0  0
 14  7  1  0  0  0
  7  8  2  0  0  0
  8  9  1  0  0  0
  9 10  2  0  0  0
 10 11  1  0  0  0
 11 12  2  0  0  0
 10  1  1  0  0  0
  1  2  2  0  0  0
  2  3  1  0  0  0
  3  4  2  0  0  0
  4  5  1  0  0  0
  5  6  2  0  0  0
  4 16  1  0  0  0
 16 17  2  0  0  0
 16 18  2  0  0  0
 16 19  1  0  0  0
 19 20  1  0  0  0
 20 21  1  0  0  0
 21 22  1  0  0  0
 22 23  1  0  0  0
 12  7  1  0  0  0
  6  1  1  0  0  0
 23 19  1  0  0  0
M  CHG 1  13  -1
M  CHG 1  14   1
M  END
> <minimizedAffinity>
-3.27314

> <CNNscore>
0.4865933061

> <CNNaffinity>
5.6598286629

> <CNN_VS>
2.7540347576

> <CNNaffinity_variance>
0.1362785101

$$$$
[H]c1c([H])c([N+](=O)[O-])c([H])c([H])c1-c1c([H])c([H])c(S(=O)(=O)N2C([H])([H])C([H])([H])C([H])([H])C2([H])[H])c([H])c1[H]


 23 25  0  0  0  0  0  0  0  0999 V2000
  -17.9507   12.7000  -20.1347 C   0  0  0  0  0  0  0  0  0  0  0  0
  -17.5579   12.3026  -21.4039 C   0  0  0  0  0  0  0  0  0  0  0  0
  -17.2786   13.2517  -22.3634 C   0  0  0  0  0  0  0  0  0  0  0  0
  -17.3718   14.6117  -22.1206 C   0  0  0  0  0  0  0  0  0  0  0  0
  -17.7630   14.9865  -20.8554 C   0  0  0  0  0  0  0  0  0  0  0  0
  -18.0475   14.0561  -19.8798 C   0  0  0  0  0  0  0  0  0  0  0  0
  -18.8465    9.8253  -17.0849 C   0  0  0  0  0  0  0  0  0  0  0  0
  -17.8635    9.5788  -18.0264 C   0  0  0  0  0  0  0  0  0  0  0  0
  -17.5898   10.5048  -18.9921 C   0  0  0  0  0  0  0  0  0  0  0  0
  -18.2539   11.7134  -19.0931 C   0  0  0  0  0  0  0  0  0  0  0  0
  -19.2350   11.9593  -18.1533 C   0  0  0  0  0  0  0  0  0  0  0  0
  -19.5279   11.0269  -17.1615 C   0  0  0  0  0  0  0  0  0  0  0  0
  -18.8536    9.1707  -14.7634 O   0  0  0  0  0  0  0  0  0  0  0  0
  -19.1475    8.8786  -16.0730 N   0  0  0  0  0  0  0  0  0  0  0  0
  -19.6751    7.7977  -16.4004 O   0  0  0  0  0  0  0  0  0  0  0  0
  -17.0030   15.7779  -23.3865 S   0  0  0  0  0  0  0  0  0  0  0  0
  -16.1932   16.8695  -22.7444 O   0  0  0  0  0  0  0  0  0  0  0  0
  -18.2378   16.3587  -23.9715 O   0  0  0  0  0  0  0  0  0  0  0  0
  -16.0049   15.0306  -24.5785 N   0  0  0  0  0  0  0  0  0  0  0  0
  -16.1705   15.6112  -25.8761 C   0  0  0  0  0  0  0  0  0  0  0  0
  -14.7659   15.6912  -26.4764 C   0  0  0  0  0  0  0  0  0  0  0  0
  -13.8796   14.9498  -25.4887 C   0  0  0  0  0  0  0  0  0  0  0  0
  -14.6259   15.1434  -24.1931 C   0  0  0  0  0  0  0  0  0  0  0  0
 13 14  1  0  0  0
 14 15  2  0  0  0
 14  7  1  0  0  0
  7  8  2  0  0  0
  8  9  1  0  0  0
  9 10  2  0  0  0
 10 11  1  0  0  0
 11 12  2  0  0  0
 10  1  1  0  0  0
  1  2  2  0  0  0
  2  3  1  0  0  0
  3  4  2  0  0  0
  4  5  1  0  0  0
  5  6  2  0  0  0
  4 16  1  0  0  0
 16 17  2  0  0  0
 16 18  2  0  0  0
 16 19  1  0  0  0
 19 20  1  0  0  0
 20 21  1  0  0  0
 21 22  1  0  0  0
 22 23  1  0  0  0
 12  7  1  0  0  0
  6  1  1  0  0  0
 23 19  1  0  0  0
M  CHG 1  13  -1
M  CHG 1  14   1
M  END
> <minimizedAffinity>
-8.54732

> <CNNscore>
0.4314930141

> <CNNaffinity>
5.8023357391

> <CNN_VS>
2.5036673546

> <CNNaffinity_variance>
0.2077564448

$$$$
[H]c1c([H])c([N+](=O)[O-])c([H])c([H])c1-c1c([H])c([H])c(S(=O)(=O)N2C([H])([H])C([H])([H])C([H])([H])C2([H])[H])c([H])c1[H]


 23 25  0  0  0  0  0  0  0  0999 V2000
  -17.9983   12.6503  -20.1142 C   0  0  0  0  0  0  0  0  0  0  0  0
  -18.1853   14.0094  -19.9124 C   0  0  0  0  0  0  0  0  0  0  0  0
  -17.8930   14.8990  -20.9236 C   0  0  0  0  0  0  0  0  0  0  0  0
  -17.4114   14.4973  -22.1581 C   0  0  0  0  0  0  0  0  0  0  0  0
  -17.2323   13.1448  -22.3394 C   0  0  0  0  0  0  0  0  0  0  0  0
  -17.5176   12.2364  -21.3434 C   0  0  0  0  0  0  0  0  0  0  0  0
  -18.8739    9.8051  -17.0310 C   0  0  0  0  0  0  0  0  0  0  0  0
  -19.5524   11.0085  -17.1003 C   0  0  0  0  0  0  0  0  0  0  0  0
  -19.2619   11.9048  -18.0888 C   0  0  0  0  0  0  0  0  0  0  0  0
  -18.3011   11.6798  -19.0574 C   0  0  0  0  0  0  0  0  0  0  0  0
  -17.6239   10.4787  -18.9881 C   0  0  0  0  0  0  0  0  0  0  0  0
  -17.9065    9.5527  -17.9874 C   0  0  0  0  0  0  0  0  0  0  0  0
  -19.7675    7.6727  -16.3437 O   0  0  0  0  0  0  0  0  0  0  0  0
  -19.1590    8.8593  -16.0137 N   0  0  0  0  0  0  0  0  0  0  0  0
  -18.8478    9.1308  -14.8376 O   0  0  0  0  0  0  0  0  0  0  0  0
  -17.0546   15.6802  -23.4118 S   0  0  0  0  0  0  0  0  0  0  0  0
  -16.2804   16.7873  -22.7523 O   0  0  0  0  0  0  0  0  0  0  0  0
  -18.2955   16.2344  -24.0098 O   0  0  0  0  0  0  0  0  0  0  0  0
  -16.0228   14.9653  -24.5948 N   0  0  0  0  0  0  0  0  0  0  0  0
  -16.1661   15.5679  -25.8851 C   0  0  0  0  0  0  0  0  0  0  0  0
  -14.7497   15.6734  -26.4526 C   0  0  0  0  0  0  0  0  0  0  0  0
  -13.8773   14.9232  -25.4592 C   0  0  0  0  0  0  0  0  0  0  0  0
  -14.6537   15.0852  -24.1771 C   0  0  0  0  0  0  0  0  0  0  0  0
 13 14  1  0  0  0
 14 15  2  0  0  0
 14  7  1  0  0  0
  7  8  2  0  0  0
  8  9  1  0  0  0
  9 10  2  0  0  0
 10 11  1  0  0  0
 11 12  2  0  0  0
 10  1  1  0  0  0
  1  2  2  0  0  0
  2  3  1  0  0  0
  3  4  2  0  0  0
  4  5  1  0  0  0
  5  6  2  0  0  0
  4 16  1  0  0  0
 16 17  2  0  0  0
 16 18  2  0  0  0
 16 19  1  0  0  0
 19 20  1  0  0  0
 20 21  1  0  0  0
 21 22  1  0  0  0
 22 23  1  0  0  0
 12  7  1  0  0  0
  6  1  1  0  0  0
 23 19  1  0  0  0
M  CHG 1  13  -1
M  CHG 1  14   1
M  END
> <minimizedAffinity>
-8.52879

> <CNNscore>
0.4272224903

> <CNNaffinity>
5.7866554260

> <CNN_VS>
2.4721894264

> <CNNaffinity_variance>
0.2251764238

$$$$
[H]c1c([H])c([N+](=O)[O-])c([H])c([H])c1-c1c([H])c([H])c(S(=O)(=O)N2C([H])([H])C([H])([H])C([H])([H])C2([H])[H])c([H])c1[H]


 23 25  0  0  0  0  0  0  0  0999 V2000
  -18.5340   10.7269  -18.1837 C   0  0  0  0  0  0  0  0  0  0  0  0
  -19.3742   11.5274  -17.4246 C   0  0  0  0  0  0  0  0  0  0  0  0
  -19.8912   11.0488  -16.2401 C   0  0  0  0  0  0  0  0  0  0  0  0
  -19.6091    9.7819  -15.7578 C   0  0  0  0  0  0  0  0  0  0  0  0
  -18.7736    9.0023  -16.5250 C   0  0  0  0  0  0  0  0  0  0  0  0
  -18.2446    9.4590  -17.7124 C   0  0  0  0  0  0  0  0  0  0  0  0
  -16.8895   12.1460  -21.8782 C   0  0  0  0  0  0  0  0  0  0  0  0
  -16.4081   10.9942  -21.2825 C   0  0  0  0  0  0  0  0  0  0  0  0
  -16.9425   10.5549  -20.1051 C   0  0  0  0  0  0  0  0  0  0  0  0
  -17.9682   11.2088  -19.4477 C   0  0  0  0  0  0  0  0  0  0  0  0
  -18.4487   12.3584  -20.0423 C   0  0  0  0  0  0  0  0  0  0  0  0
  -17.9161   12.8216  -21.2426 C   0  0  0  0  0  0  0  0  0  0  0  0
  -15.0575   12.3023  -23.4393 O   0  0  0  0  0  0  0  0  0  0  0  0
  -16.3501   12.6207  -23.1006 N   0  0  0  0  0  0  0  0  0  0  0  0
  -17.0681   13.3198  -23.8420 O   0  0  0  0  0  0  0  0  0  0  0  0
  -20.2999    9.2246  -14.2378 S   0  0  0  0  0  0  0  0  0  0  0  0
  -20.5364    7.7476  -14.3875 O   0  0  0  0  0  0  0  0  0  0  0  0
  -21.5870    9.9026  -13.9409 O   0  0  0  0  0  0  0  0  0  0  0  0
  -19.1447    9.4348  -12.9741 N   0  0  0  0  0  0  0  0  0  0  0  0
  -19.5254   10.4555  -12.0460 C   0  0  0  0  0  0  0  0  0  0  0  0
  -19.1591    9.9152  -10.6628 C   0  0  0  0  0  0  0  0  0  0  0  0
  -18.3971    8.6290  -10.9385 C   0  0  0  0  0  0  0  0  0  0  0  0
  -18.9788    8.1990  -12.2612 C   0  0  0  0  0  0  0  0  0  0  0  0
 13 14  1  0  0  0
 14 15  2  0  0  0
 14  7  1  0  0  0
  7  8  2  0  0  0
  8  9  1  0  0  0
  9 10  2  0  0  0
 10 11  1  0  0  0
 11 12  2  0  0  0
 10  1  1  0  0  0
  1  2  2  0  0  0
  2  3  1  0  0  0
  3  4  2  0  0  0
  4  5  1  0  0  0
  5  6  2  0  0  0
  4 16  1  0  0  0
 16 17  2  0  0  0
 16 18  2  0  0  0
 16 19  1  0  0  0
 19 20  1  0  0  0
 20 21  1  0  0  0
 21 22  1  0  0  0
 22 23  1  0  0  0
 12  7  1  0  0  0
  6  1  1  0  0  0
 23 19  1  0  0  0
M  CHG 1  13  -1
M  CHG 1  14   1
M  END
> <minimizedAffinity>
-7.81221

> <CNNscore>
0.3890985250

> <CNNaffinity>
4.9892454147

> <CNN_VS>
1.9413080215

> <CNNaffinity_variance>
0.5745000243

$$$$
[H]c1c([H])c([N+](=O)[O-])c([H])c([H])c1-c1c([H])c([H])c(S(=O)(=O)N2C([H])([H])C([H])([H])C([H])([H])C2([H])[H])c([H])c1[H]


 23 25  0  0  0  0  0  0  0  0999 V2000
  -21.1424   16.6757  -20.7035 C   0  0  0  0  0  0  0  0  0  0  0  0
  -21.7145   15.4595  -20.3625 C   0  0  0  0  0  0  0  0  0  0  0  0
  -21.1576   14.6978  -19.3579 C   0  0  0  0  0  0  0  0  0  0  0  0
  -20.0315   15.0927  -18.6557 C   0  0  0  0  0  0  0  0  0  0  0  0
  -19.4780   16.3024  -19.0084 C   0  0  0  0  0  0  0  0  0  0  0  0
  -20.0169   17.0813  -20.0092 C   0  0  0  0  0  0  0  0  0  0  0  0
  -22.7963   19.1123  -23.8173 C   0  0  0  0  0  0  0  0  0  0  0  0
  -23.6167   18.4585  -22.9157 C   0  0  0  0  0  0  0  0  0  0  0  0
  -23.0744   17.6855  -21.9290 C   0  0  0  0  0  0  0  0  0  0  0  0
  -21.7127   17.5082  -21.7674 C   0  0  0  0  0  0  0  0  0  0  0  0
  -20.8940   18.1608  -22.6673 C   0  0  0  0  0  0  0  0  0  0  0  0
  -21.4288   18.9530  -23.6799 C   0  0  0  0  0  0  0  0  0  0  0  0
  -22.5784   20.9326  -25.3847 O   0  0  0  0  0  0  0  0  0  0  0  0
  -23.3370   19.9202  -24.8496 N   0  0  0  0  0  0  0  0  0  0  0  0
  -24.4953   19.6891  -25.2479 O   0  0  0  0  0  0  0  0  0  0  0  0
  -19.3643   14.0768  -17.3825 S   0  0  0  0  0  0  0  0  0  0  0  0
  -18.0341   14.6699  -17.0102 O   0  0  0  0  0  0  0  0  0  0  0  0
  -19.1694   12.6791  -17.8438 O   0  0  0  0  0  0  0  0  0  0  0  0
  -20.3765   14.1689  -15.9888 N   0  0  0  0  0  0  0  0  0  0  0  0
  -21.2622   15.2925  -16.0263 C   0  0  0  0  0  0  0  0  0  0  0  0
  -22.6003   14.7833  -15.4882 C   0  0  0  0  0  0  0  0  0  0  0  0
  -22.3094   13.3746  -14.9963 C   0  0  0  0  0  0  0  0  0  0  0  0
  -21.1564   12.9678  -15.8783 C   0  0  0  0  0  0  0  0  0  0  0  0
 13 14  1  0  0  0
 14 15  2  0  0  0
 14  7  1  0  0  0
  7  8  2  0  0  0
  8  9  1  0  0  0
  9 10  2  0  0  0
 10 11  1  0  0  0
 11 12  2  0  0  0
 10  1  1  0  0  0
  1  2  2  0  0  0
  2  3  1  0  0  0
  3  4  2  0  0  0
  4  5  1  0  0  0
  5  6  2  0  0  0
  4 16  1  0  0  0
 16 17  2  0  0  0
 16 18  2  0  0  0
 16 19  1  0  0  0
 19 20  1  0  0  0
 20 21  1  0  0  0
 21 22  1  0  0  0
 22 23  1  0  0  0
 12  7  1  0  0  0
  6  1  1  0  0  0
 23 19  1  0  0  0
M  CHG 1  13  -1
M  CHG 1  14   1
M  END
> <minimizedAffinity>
-4.92864

> <CNNscore>
0.3439667225

> <CNNaffinity>
5.1799721718

> <CNN_VS>
1.7817380428

> <CNNaffinity_variance>
0.1246047765

$$$$
[H]c1c([H])c([N+](=O)[O-])c([H])c([H])c1-c1c([H])c([H])c(S(=O)(=O)N2C([H])([H])C([H])([H])C([H])([H])C2([H])[H])c([H])c1[H]


 23 25  0  0  0  0  0  0  0  0999 V2000
  -19.7660    9.4452  -16.1691 C   0  0  0  0  0  0  0  0  0  0  0  0
  -19.1450    9.0339  -17.3388 C   0  0  0  0  0  0  0  0  0  0  0  0
  -18.6814    9.9725  -18.2352 C   0  0  0  0  0  0  0  0  0  0  0  0
  -18.8062   11.3352  -18.0239 C   0  0  0  0  0  0  0  0  0  0  0  0
  -19.4251   11.7239  -16.8576 C   0  0  0  0  0  0  0  0  0  0  0  0
  -19.8966   10.8041  -15.9465 C   0  0  0  0  0  0  0  0  0  0  0  0
  -21.2485    6.6006  -13.3268 C   0  0  0  0  0  0  0  0  0  0  0  0
  -19.9093    6.6276  -13.6720 C   0  0  0  0  0  0  0  0  0  0  0  0
  -19.4522    7.5402  -14.5795 C   0  0  0  0  0  0  0  0  0  0  0  0
  -20.2688    8.4700  -15.1962 C   0  0  0  0  0  0  0  0  0  0  0  0
  -21.6054    8.4428  -14.8516 C   0  0  0  0  0  0  0  0  0  0  0  0
  -22.0896    7.5197  -13.9285 C   0  0  0  0  0  0  0  0  0  0  0  0
  -23.0053    5.8285  -11.8655 O   0  0  0  0  0  0  0  0  0  0  0  0
  -21.7454    5.6623  -12.3869 N   0  0  0  0  0  0  0  0  0  0  0  0
  -21.0208    4.7036  -12.0557 O   0  0  0  0  0  0  0  0  0  0  0  0
  -18.1951   12.4875  -19.2059 S   0  0  0  0  0  0  0  0  0  0  0  0
  -17.0390   13.1973  -18.5583 O   0  0  0  0  0  0  0  0  0  0  0  0
  -19.2312   13.4796  -19.5887 O   0  0  0  0  0  0  0  0  0  0  0  0
  -17.5748   11.6324  -20.5695 N   0  0  0  0  0  0  0  0  0  0  0  0
  -17.2235   12.5024  -21.6503 C   0  0  0  0  0  0  0  0  0  0  0  0
  -15.9147   11.9506  -22.2177 C   0  0  0  0  0  0  0  0  0  0  0  0
  -15.6995   10.6353  -21.4866 C   0  0  0  0  0  0  0  0  0  0  0  0
  -16.4124   10.8831  -20.1816 C   0  0  0  0  0  0  0  0  0  0  0  0
 13 14  1  0  0  0
 14 15  2  0  0  0
 14  7  1  0  0  0
  7  8  2  0  0  0
  8  9  1  0  0  0
  9 10  2  0  0  0
 10 11  1  0  0  0
 11 12  2  0  0  0
 10  1  1  0  0  0
  1  2  2  0  0  0
  2  3  1  0  0  0
  3  4  2  0  0  0
  4  5  1  0  0  0
  5  6  2  0  0  0
  4 16  1  0  0  0
 16 17  2  0  0  0
 16 18  2  0  0  0
 16 19  1  0  0  0
 19 20  1  0  0  0
 20 21  1  0  0  0
 21 22  1  0  0  0
 22 23  1  0  0  0
 12  7  1  0  0  0
  6  1  1  0  0  0
 23 19  1  0  0  0
M  CHG 1  13  -1
M  CHG 1  14   1
M  END
> <minimizedAffinity>
-4.59912

> <CNNscore>
0.3419006765

> <CNNaffinity>
5.2519116402

> <CNN_VS>
1.7956321239

> <CNNaffinity_variance>
0.1792069376

$$$$
[H]c1c([H])c([N+](=O)[O-])c([H])c([H])c1-c1c([H])c([H])c(S(=O)(=O)N2C([H])([H])C([H])([H])C([H])([H])C2([H])[H])c([H])c1[H]


 23 25  0  0  0  0  0  0  0  0999 V2000
  -20.1103   14.5190  -18.1433 C   0  0  0  0  0  0  0  0  0  0  0  0
  -19.7769   15.1736  -16.9672 C   0  0  0  0  0  0  0  0  0  0  0  0
  -20.6156   16.1431  -16.4610 C   0  0  0  0  0  0  0  0  0  0  0  0
  -21.8001   16.5056  -17.0796 C   0  0  0  0  0  0  0  0  0  0  0  0
  -22.1139   15.8449  -18.2455 C   0  0  0  0  0  0  0  0  0  0  0  0
  -21.2914   14.8723  -18.7708 C   0  0  0  0  0  0  0  0  0  0  0  0
  -17.5660   11.4817  -19.7771 C   0  0  0  0  0  0  0  0  0  0  0  0
  -17.6093   12.7471  -20.3341 C   0  0  0  0  0  0  0  0  0  0  0  0
  -18.4254   13.7042  -19.8020 C   0  0  0  0  0  0  0  0  0  0  0  0
  -19.2384   13.4829  -18.7057 C   0  0  0  0  0  0  0  0  0  0  0  0
  -19.1951   12.2198  -18.1499 C   0  0  0  0  0  0  0  0  0  0  0  0
  -18.3693   11.2313  -18.6788 C   0  0  0  0  0  0  0  0  0  0  0  0
  -15.3670   10.6687  -20.3437 O   0  0  0  0  0  0  0  0  0  0  0  0
  -16.7262   10.4724  -20.3125 N   0  0  0  0  0  0  0  0  0  0  0  0
  -17.2467    9.4253  -20.7442 O   0  0  0  0  0  0  0  0  0  0  0  0
  -22.8311   17.7524  -16.3862 S   0  0  0  0  0  0  0  0  0  0  0  0
  -22.2835   18.0536  -15.0189 O   0  0  0  0  0  0  0  0  0  0  0  0
  -24.2378   17.2934  -16.2640 O   0  0  0  0  0  0  0  0  0  0  0  0
  -22.6939   19.1938  -17.3238 N   0  0  0  0  0  0  0  0  0  0  0  0
  -22.1298   18.9561  -18.6175 C   0  0  0  0  0  0  0  0  0  0  0  0
  -22.9292   19.8302  -19.5850 C   0  0  0  0  0  0  0  0  0  0  0  0
  -23.8240   20.6764  -18.6939 C   0  0  0  0  0  0  0  0  0  0  0  0
  -23.9909   19.7892  -17.4864 C   0  0  0  0  0  0  0  0  0  0  0  0
 13 14  1  0  0  0
 14 15  2  0  0  0
 14  7  1  0  0  0
  7  8  2  0  0  0
  8  9  1  0  0  0
  9 10  2  0  0  0
 10 11  1  0  0  0
 11 12  2  0  0  0
 10  1  1  0  0  0
  1  2  2  0  0  0
  2  3  1  0  0  0
  3  4  2  0  0  0
  4  5  1  0  0  0
  5  6  2  0  0  0
  4 16  1  0  0  0
 16 17  2  0  0  0
 16 18  2  0  0  0
 16 19  1  0  0  0
 19 20  1  0  0  0
 20 21  1  0  0  0
 21 22  1  0  0  0
 22 23  1  0  0  0
 12  7  1  0  0  0
  6  1  1  0  0  0
 23 19  1  0  0  0
M  CHG 1  13  -1
M  CHG 1  14   1
M  END
> <minimizedAffinity>
-4.54164

> <CNNscore>
0.3307541311

> <CNNaffinity>
5.0578527451

> <CNN_VS>
1.6729056835

> <CNNaffinity_variance>
0.0508157909

$$$$
[H]c1c([H])c([N+](=O)[O-])c([H])c([H])c1-c1c([H])c([H])c(S(=O)(=O)N2C([H])([H])C([H])([H])C([H])([H])C2([H])[H])c([H])c1[H]


 23 25  0  0  0  0  0  0  0  0999 V2000
  -18.5539   11.8120  -18.8089 C   0  0  0  0  0  0  0  0  0  0  0  0
  -19.0862   13.0924  -18.8212 C   0  0  0  0  0  0  0  0  0  0  0  0
  -18.6916   13.9894  -19.7902 C   0  0  0  0  0  0  0  0  0  0  0  0
  -17.7708   13.6715  -20.7742 C   0  0  0  0  0  0  0  0  0  0  0  0
  -17.2537   12.3963  -20.7456 C   0  0  0  0  0  0  0  0  0  0  0  0
  -17.6329   11.4823  -19.7868 C   0  0  0  0  0  0  0  0  0  0  0  0
  -19.7166    8.9494  -15.8388 C   0  0  0  0  0  0  0  0  0  0  0  0
  -20.3389   10.1821  -15.9190 C   0  0  0  0  0  0  0  0  0  0  0  0
  -19.9570   11.0836  -16.8711 C   0  0  0  0  0  0  0  0  0  0  0  0
  -18.9549   10.8357  -17.7909 C   0  0  0  0  0  0  0  0  0  0  0  0
  -18.3338    9.6053  -17.7107 C   0  0  0  0  0  0  0  0  0  0  0  0
  -18.7097    8.6735  -16.7467 C   0  0  0  0  0  0  0  0  0  0  0  0
  -19.9035    6.6598  -15.1033 O   0  0  0  0  0  0  0  0  0  0  0  0
  -20.0967    7.9977  -14.8587 N   0  0  0  0  0  0  0  0  0  0  0  0
  -20.5999    8.4025  -13.7926 O   0  0  0  0  0  0  0  0  0  0  0  0
  -17.3043   14.8598  -21.9860 S   0  0  0  0  0  0  0  0  0  0  0  0
  -16.4094   15.8511  -21.2958 O   0  0  0  0  0  0  0  0  0  0  0  0
  -18.4857   15.5659  -22.5427 O   0  0  0  0  0  0  0  0  0  0  0  0
  -16.3676   14.0882  -23.2119 N   0  0  0  0  0  0  0  0  0  0  0  0
  -17.1320   13.7986  -24.3867 C   0  0  0  0  0  0  0  0  0  0  0  0
  -16.2149   14.1213  -25.5675 C   0  0  0  0  0  0  0  0  0  0  0  0
  -14.8643   14.4224  -24.9383 C   0  0  0  0  0  0  0  0  0  0  0  0
  -15.2610   14.9289  -23.5749 C   0  0  0  0  0  0  0  0  0  0  0  0
 13 14  1  0  0  0
 14 15  2  0  0  0
 14  7  1  0  0  0
  7  8  2  0  0  0
  8  9  1  0  0  0
  9 10  2  0  0  0
 10 11  1  0  0  0
 11 12  2  0  0  0
 10  1  1  0  0  0
  1  2  2  0  0  0
  2  3  1  0  0  0
  3  4  2  0  0  0
  4  5  1  0  0  0
  5  6  2  0  0  0
  4 16  1  0  0  0
 16 17  2  0  0  0
 16 18  2  0  0  0
 16 19  1  0  0  0
 19 20  1  0  0  0
 20 21  1  0  0  0
 21 22  1  0  0  0
 22 23  1  0  0  0
 12  7  1  0  0  0
  6  1  1  0  0  0
 23 19  1  0  0  0
M  CHG 1  13  -1
M  CHG 1  14   1
M  END
> <minimizedAffinity>
-7.98186

> <CNNscore>
0.3202331662

> <CNNaffinity>
5.5941057205

> <CNN_VS>
1.7914181948

> <CNNaffinity_variance>
0.1758305430

$$$$
[H]c1c([H])c([N+](=O)[O-])c([H])c([H])c1-c1c([H])c([H])c(S(=O)(=O)N2C([H])([H])C([H])([H])C([H])([H])C2([H])[H])c([H])c1[H]


 23 25  0  0  0  0  0  0  0  0999 V2000
  -18.4732   10.7132  -18.2753 C   0  0  0  0  0  0  0  0  0  0  0  0
  -19.3501   11.5972  -17.6648 C   0  0  0  0  0  0  0  0  0  0  0  0
  -20.0022   11.2270  -16.5085 C   0  0  0  0  0  0  0  0  0  0  0  0
  -19.8233    9.9907  -15.9112 C   0  0  0  0  0  0  0  0  0  0  0  0
  -18.9494    9.1272  -16.5316 C   0  0  0  0  0  0  0  0  0  0  0  0
  -18.2861    9.4748  -17.6881 C   0  0  0  0  0  0  0  0  0  0  0  0
  -16.3932   11.7719  -21.8698 C   0  0  0  0  0  0  0  0  0  0  0  0
  -17.4695   12.5189  -21.4259 C   0  0  0  0  0  0  0  0  0  0  0  0
  -18.1221   12.1686  -20.2785 C   0  0  0  0  0  0  0  0  0  0  0  0
  -17.7647   11.0791  -19.5058 C   0  0  0  0  0  0  0  0  0  0  0  0
  -16.6904   10.3336  -19.9490 C   0  0  0  0  0  0  0  0  0  0  0  0
  -16.0130   10.6755  -21.1165 C   0  0  0  0  0  0  0  0  0  0  0  0
  -16.3693   12.7652  -24.0677 O   0  0  0  0  0  0  0  0  0  0  0  0
  -15.7005   12.1170  -23.0580 N   0  0  0  0  0  0  0  0  0  0  0  0
  -14.4936   11.8212  -23.1564 O   0  0  0  0  0  0  0  0  0  0  0  0
  -20.6848    9.5732  -14.4341 S   0  0  0  0  0  0  0  0  0  0  0  0
  -19.6404    9.3109  -13.3852 O   0  0  0  0  0  0  0  0  0  0  0  0
  -21.5202    8.3589  -14.6129 O   0  0  0  0  0  0  0  0  0  0  0  0
  -21.6106   10.9309  -13.9096 N   0  0  0  0  0  0  0  0  0  0  0  0
  -22.9620   10.5841  -13.5902 C   0  0  0  0  0  0  0  0  0  0  0  0
  -23.3061   11.3775  -12.3287 C   0  0  0  0  0  0  0  0  0  0  0  0
  -22.1159   12.2983  -12.1132 C   0  0  0  0  0  0  0  0  0  0  0  0
  -20.9961   11.5154  -12.7504 C   0  0  0  0  0  0  0  0  0  0  0  0
 13 14  1  0  0  0
 14 15  2  0  0  0
 14  7  1  0  0  0
  7  8  2  0  0  0
  8  9  1  0  0  0
  9 10  2  0  0  0
 10 11  1  0  0  0
 11 12  2  0  0  0
 10  1  1  0  0  0
  1  2  2  0  0  0
  2  3  1  0  0  0
  3  4  2  0  0  0
  4  5  1  0  0  0
  5  6  2  0  0  0
  4 16  1  0  0  0
 16 17  2  0  0  0
 16 18  2  0  0  0
 16 19  1  0  0  0
 19 20  1  0  0  0
 20 21  1  0  0  0
 21 22  1  0  0  0
 22 23  1  0  0  0
 12  7  1  0  0  0
  6  1  1  0  0  0
 23 19  1  0  0  0
M  CHG 1  13  -1
M  CHG 1  14   1
M  END
> <minimizedAffinity>
-7.47971

> <CNNscore>
0.3134316504

> <CNNaffinity>
4.8654923439

> <CNN_VS>
1.5249992609

> <CNNaffinity_variance>
0.5499145389

$$$$
[H]OC(=O)C1([H])N(C(=O)[C@@]2([H])N(C(=O)[C@@]3([H])N(C(=O)[C@@]([H])(N([H])[H])C([H])([H])c4c([H])n([H])c5c([H])c([H])c([H])c([H])c45)C([H])([H])C([H])([H])C3([H])[H])C([H])([H])C([H])([H])C2([H])[H])C([H])([H])C([H])([H])C1([H])[H]


 40 44  0  0  0  0  0  0  0  0999 V2000
  -19.9274   17.7601  -21.5375 C   0  0  0  0  0  0  0  0  0  0  0  0
  -20.1778   17.6085  -22.7909 O   0  0  0  0  0  0  0  0  0  0  0  0
  -18.8649   17.0200  -20.9531 N   0  0  0  0  0  0  0  0  0  0  0  0
  -18.3895   17.0456  -19.6080 C   0  0  0  0  0  0  0  0  0  0  0  0
  -17.0362   16.3318  -19.6361 C   0  0  0  0  0  0  0  0  0  0  0  0
  -16.6715   16.3476  -21.1344 C   0  0  0  0  0  0  0  0  0  0  0  0
  -18.0740   16.0505  -21.6850 C   0  0  0  0  0  0  0  0  0  0  0  0
  -18.4723   14.6762  -21.4424 C   0  0  0  0  0  0  0  0  0  0  0  0
  -19.4465   14.3997  -20.7241 O   0  0  0  0  0  0  0  0  0  0  0  0
  -17.7329   13.6133  -22.0402 N   0  0  0  0  0  0  0  0  0  0  0  0
  -17.9888   12.1810  -21.8619 C   0  0  0  0  0  0  0  0  0  0  0  0
  -16.5996   11.6006  -21.8513 C   0  0  0  0  0  0  0  0  0  0  0  0
  -15.7032   12.5953  -22.5078 C   0  0  0  0  0  0  0  0  0  0  0  0
  -16.6110   13.7128  -22.9495 C   0  0  0  0  0  0  0  0  0  0  0  0
  -16.9819   13.4577  -24.3681 C   0  0  0  0  0  0  0  0  0  0  0  0
  -17.6494   12.4520  -24.7316 O   0  0  0  0  0  0  0  0  0  0  0  0
  -16.5738   14.3798  -25.3645 N   0  0  0  0  0  0  0  0  0  0  0  0
  -16.8089   14.2768  -26.7985 C   0  0  0  0  0  0  0  0  0  0  0  0
  -15.8396   15.1966  -27.4641 C   0  0  0  0  0  0  0  0  0  0  0  0
  -15.0323   15.8200  -26.3769 C   0  0  0  0  0  0  0  0  0  0  0  0
  -15.8647   15.6187  -25.1115 C   0  0  0  0  0  0  0  0  0  0  0  0
  -16.7950   16.7516  -24.9763 C   0  0  0  0  0  0  0  0  0  0  0  0
  -16.3415   18.0474  -25.0860 O   0  0  0  0  0  0  0  0  0  0  0  0
  -18.0088   16.5457  -24.7599 O   0  0  0  0  0  0  0  0  0  0  0  0
  -16.9457   18.8574  -25.0598 H   0  0  0  0  0  0  0  0  0  0  0  0
  -20.7581   20.0019  -21.4315 N   0  0  0  0  0  0  0  0  0  0  0  0
  -20.8001   18.7064  -20.8529 C   0  0  0  0  0  0  0  0  0  0  0  0
  -20.2822   20.7215  -20.8491 H   0  0  0  0  0  0  0  0  0  0  0  0
  -21.6345   20.3233  -21.8625 H   0  0  0  0  0  0  0  0  0  0  0  0
  -22.2092   18.1800  -20.6634 C   0  0  0  0  0  0  0  0  0  0  0  0
  -22.8990   18.0271  -21.9410 C   0  0  0  0  0  0  0  0  0  0  0  0
  -23.3476   16.8608  -22.5075 C   0  0  0  0  0  0  0  0  0  0  0  0
  -23.9384   17.1278  -23.7018 N   0  0  0  0  0  0  0  0  0  0  0  0
  -23.8716   18.4611  -23.9060 C   0  0  0  0  0  0  0  0  0  0  0  0
  -24.3236   19.2229  -24.9599 C   0  0  0  0  0  0  0  0  0  0  0  0
  -24.1139   20.5851  -24.8998 C   0  0  0  0  0  0  0  0  0  0  0  0
  -23.4787   21.2018  -23.8405 C   0  0  0  0  0  0  0  0  0  0  0  0
  -23.0360   20.4153  -22.7981 C   0  0  0  0  0  0  0  0  0  0  0  0
  -23.2249   19.0392  -22.8149 C   0  0  0  0  0  0  0  0  0  0  0  0
  -24.3688   16.4464  -24.3541 H   0  0  0  0  0  0  0  0  0  0  0  0
 26 27  1  0  0  0
 27 30  1  0  0  0
 30 31  1  0  0  0
 31 32  2  0  0  0
 32 33  1  0  0  0
 33 34  1  0  0  0
 34 35  2  0  0  0
 35 36  1  0  0  0
 36 37  2  0  0  0
 37 38  1  0  0  0
 38 39  2  0  0  0
 27  1  1  0  0  0
  1  2  2  0  0  0
  1  3  1  0  0  0
  3  4  1  0  0  0
  4  5  1  0  0  0
  5  6  1  0  0  0
  6  7  1  0  0  0
  7  8  1  0  0  0
  8  9  2  0  0  0
  8 10  1  0  0  0
 10 11  1  0  0  0
 11 12  1  0  0  0
 12 13  1  0  0  0
 13 14  1  0  0  0
 14 15  1  0  0  0
 15 16  2  0  0  0
 15 17  1  0  0  0
 17 18  1  0  0  0
 18 19  1  0  0  0
 19 20  1  0  0  0
 20 21  1  0  0  0
 21 22  1  0  0  0
 22 23  1  0  0  0
 22 24  2  0  0  0
 39 31  1  0  0  0
  7  3  1  0  0  0
 14 10  1  0  0  0
 21 17  1  0  0  0
 39 34  1  0  0  0
 26 28  1  0  0  0
 26 29  1  0  0  0
 33 40  1  0  0  0
 23 25  1  0  0  0
M  END
> <minimizedAffinity>
-8.70915

> <CNNscore>
0.3291648626

> <CNNaffinity>
6.8103895187

> <CNN_VS>
2.2417409420

> <CNNaffinity_variance>
0.4354136884

$$$$
[H]OC(=O)C1([H])N(C(=O)[C@@]2([H])N(C(=O)[C@@]3([H])N(C(=O)[C@@]([H])(N([H])[H])C([H])([H])c4c([H])n([H])c5c([H])c([H])c([H])c([H])c45)C([H])([H])C([H])([H])C3([H])[H])C([H])([H])C([H])([H])C2([H])[H])C([H])([H])C([H])([H])C1([H])[H]


 40 44  0  0  0  0  0  0  0  0999 V2000
  -19.9603   17.2155  -21.6098 C   0  0  0  0  0  0  0  0  0  0  0  0
  -20.1915   17.0883  -22.8695 O   0  0  0  0  0  0  0  0  0  0  0  0
  -18.8125   16.5898  -21.0537 N   0  0  0  0  0  0  0  0  0  0  0  0
  -18.3422   16.6164  -19.7068 C   0  0  0  0  0  0  0  0  0  0  0  0
  -16.9101   16.0798  -19.7603 C   0  0  0  0  0  0  0  0  0  0  0  0
  -16.5524   16.2062  -21.2550 C   0  0  0  0  0  0  0  0  0  0  0  0
  -17.9073   15.7597  -21.8236 C   0  0  0  0  0  0  0  0  0  0  0  0
  -18.1298   14.3372  -21.6422 C   0  0  0  0  0  0  0  0  0  0  0  0
  -19.0413   13.9100  -20.9154 O   0  0  0  0  0  0  0  0  0  0  0  0
  -17.2865   13.4021  -22.3117 N   0  0  0  0  0  0  0  0  0  0  0  0
  -17.3626   11.9423  -22.2010 C   0  0  0  0  0  0  0  0  0  0  0  0
  -15.9141   11.5355  -22.2542 C   0  0  0  0  0  0  0  0  0  0  0  0
  -15.1642   12.6622  -22.8806 C   0  0  0  0  0  0  0  0  0  0  0  0
  -16.2130   13.6809  -23.2418 C   0  0  0  0  0  0  0  0  0  0  0  0
  -16.5936   13.4509  -24.6622 C   0  0  0  0  0  0  0  0  0  0  0  0
  -17.1687   12.4005  -25.0560 O   0  0  0  0  0  0  0  0  0  0  0  0
  -16.3034   14.4504  -25.6248 N   0  0  0  0  0  0  0  0  0  0  0  0
  -16.5642   14.3858  -27.0566 C   0  0  0  0  0  0  0  0  0  0  0  0
  -15.7070   15.4243  -27.7009 C   0  0  0  0  0  0  0  0  0  0  0  0
  -14.9368   16.0777  -26.6044 C   0  0  0  0  0  0  0  0  0  0  0  0
  -15.7126   15.7415  -25.3317 C   0  0  0  0  0  0  0  0  0  0  0  0
  -16.7455   16.7701  -25.1258 C   0  0  0  0  0  0  0  0  0  0  0  0
  -16.4102   18.1058  -25.1082 O   0  0  0  0  0  0  0  0  0  0  0  0
  -17.9398   16.4381  -24.9647 O   0  0  0  0  0  0  0  0  0  0  0  0
  -17.0865   18.8529  -25.0294 H   0  0  0  0  0  0  0  0  0  0  0  0
  -21.3165   19.1872  -21.5959 N   0  0  0  0  0  0  0  0  0  0  0  0
  -20.9437   18.0143  -20.8885 C   0  0  0  0  0  0  0  0  0  0  0  0
  -20.9658   20.0744  -21.1794 H   0  0  0  0  0  0  0  0  0  0  0  0
  -22.2969   19.2266  -21.9032 H   0  0  0  0  0  0  0  0  0  0  0  0
  -22.1302   17.2004  -20.4105 C   0  0  0  0  0  0  0  0  0  0  0  0
  -22.1280   17.0546  -18.9578 C   0  0  0  0  0  0  0  0  0  0  0  0
  -22.4810   17.9999  -18.0284 C   0  0  0  0  0  0  0  0  0  0  0  0
  -22.3461   17.4869  -16.7773 N   0  0  0  0  0  0  0  0  0  0  0  0
  -21.9076   16.2153  -16.8981 C   0  0  0  0  0  0  0  0  0  0  0  0
  -21.6182   15.2789  -15.9313 C   0  0  0  0  0  0  0  0  0  0  0  0
  -21.1806   14.0402  -16.3521 C   0  0  0  0  0  0  0  0  0  0  0  0
  -21.0250   13.7105  -17.6836 C   0  0  0  0  0  0  0  0  0  0  0  0
  -21.3219   14.6670  -18.6313 C   0  0  0  0  0  0  0  0  0  0  0  0
  -21.7659   15.9282  -18.2547 C   0  0  0  0  0  0  0  0  0  0  0  0
  -22.5393   17.9672  -15.8790 H   0  0  0  0  0  0  0  0  0  0  0  0
 26 27  1  0  0  0
 27 30  1  0  0  0
 30 31  1  0  0  0
 31 32  2  0  0  0
 32 33  1  0  0  0
 33 34  1  0  0  0
 34 35  2  0  0  0
 35 36  1  0  0  0
 36 37  2  0  0  0
 37 38  1  0  0  0
 38 39  2  0  0  0
 27  1  1  0  0  0
  1  2  2  0  0  0
  1  3  1  0  0  0
  3  4  1  0  0  0
  4  5  1  0  0  0
  5  6  1  0  0  0
  6  7  1  0  0  0
  7  8  1  0  0  0
  8  9  2  0  0  0
  8 10  1  0  0  0
 10 11  1  0  0  0
 11 12  1  0  0  0
 12 13  1  0  0  0
 13 14  1  0  0  0
 14 15  1  0  0  0
 15 16  2  0  0  0
 15 17  1  0  0  0
 17 18  1  0  0  0
 18 19  1  0  0  0
 19 20  1  0  0  0
 20 21  1  0  0  0
 21 22  1  0  0  0
 22 23  1  0  0  0
 22 24  2  0  0  0
 39 31  1  0  0  0
  7  3  1  0  0  0
 14 10  1  0  0  0
 21 17  1  0  0  0
 39 34  1  0  0  0
 26 28  1  0  0  0
 26 29  1  0  0  0
 33 40  1  0  0  0
 23 25  1  0  0  0
M  END
> <minimizedAffinity>
-8.16641

> <CNNscore>
0.2221052498

> <CNNaffinity>
6.7184438705

> <CNN_VS>
1.4922016859

> <CNNaffinity_variance>
0.3601221144

$$$$
[H]OC(=O)C1([H])N(C(=O)[C@@]2([H])N(C(=O)[C@@]3([H])N(C(=O)[C@@]([H])(N([H])[H])C([H])([H])c4c([H])n([H])c5c([H])c([H])c([H])c([H])c45)C([H])([H])C([H])([H])C3([H])[H])C([H])([H])C([H])([H])C2([H])[H])C([H])([H])C([H])([H])C1([H])[H]


 40 44  0  0  0  0  0  0  0  0999 V2000
  -20.1754   17.2903  -20.5380 C   0  0  0  0  0  0  0  0  0  0  0  0
  -20.8596   17.2075  -21.6250 O   0  0  0  0  0  0  0  0  0  0  0  0
  -18.9181   16.6331  -20.4640 N   0  0  0  0  0  0  0  0  0  0  0  0
  -17.9819   16.6097  -19.3875 C   0  0  0  0  0  0  0  0  0  0  0  0
  -16.6843   16.0582  -19.9825 C   0  0  0  0  0  0  0  0  0  0  0  0
  -16.9029   16.2297  -21.4994 C   0  0  0  0  0  0  0  0  0  0  0  0
  -18.3820   15.8183  -21.5363 C   0  0  0  0  0  0  0  0  0  0  0  0
  -18.5544   14.3932  -21.3228 C   0  0  0  0  0  0  0  0  0  0  0  0
  -19.4410   13.9514  -20.5744 O   0  0  0  0  0  0  0  0  0  0  0  0
  -17.6898   13.4728  -21.9855 N   0  0  0  0  0  0  0  0  0  0  0  0
  -17.7156   12.0140  -21.8441 C   0  0  0  0  0  0  0  0  0  0  0  0
  -16.2552   11.6542  -21.9102 C   0  0  0  0  0  0  0  0  0  0  0  0
  -15.5522   12.7919  -22.5701 C   0  0  0  0  0  0  0  0  0  0  0  0
  -16.6392   13.7676  -22.9367 C   0  0  0  0  0  0  0  0  0  0  0  0
  -17.0317   13.4957  -24.3464 C   0  0  0  0  0  0  0  0  0  0  0  0
  -17.6971   12.4814  -24.6889 O   0  0  0  0  0  0  0  0  0  0  0  0
  -16.6475   14.4112  -25.3583 N   0  0  0  0  0  0  0  0  0  0  0  0
  -16.9056   14.2924  -26.7871 C   0  0  0  0  0  0  0  0  0  0  0  0
  -15.9549   15.2131  -27.4777 C   0  0  0  0  0  0  0  0  0  0  0  0
  -15.1345   15.8534  -26.4102 C   0  0  0  0  0  0  0  0  0  0  0  0
  -15.9441   15.6580  -25.1292 C   0  0  0  0  0  0  0  0  0  0  0  0
  -16.8810   16.7849  -24.9893 C   0  0  0  0  0  0  0  0  0  0  0  0
  -16.4422   18.0826  -25.1322 O   0  0  0  0  0  0  0  0  0  0  0  0
  -18.0871   16.5722  -24.7387 O   0  0  0  0  0  0  0  0  0  0  0  0
  -17.0530   18.8876  -25.1042 H   0  0  0  0  0  0  0  0  0  0  0  0
  -21.6002   19.1342  -19.9929 N   0  0  0  0  0  0  0  0  0  0  0  0
  -20.8029   18.0764  -19.4826 C   0  0  0  0  0  0  0  0  0  0  0  0
  -21.2076   20.0860  -19.8389 H   0  0  0  0  0  0  0  0  0  0  0  0
  -22.6081   19.0603  -19.8038 H   0  0  0  0  0  0  0  0  0  0  0  0
  -21.5248   17.2219  -18.4591 C   0  0  0  0  0  0  0  0  0  0  0  0
  -20.8317   17.2270  -17.1742 C   0  0  0  0  0  0  0  0  0  0  0  0
  -20.1185   16.1986  -16.6119 C   0  0  0  0  0  0  0  0  0  0  0  0
  -19.6229   16.5878  -15.4080 N   0  0  0  0  0  0  0  0  0  0  0  0
  -20.0145   17.8624  -15.1934 C   0  0  0  0  0  0  0  0  0  0  0  0
  -19.7725   18.6993  -14.1274 C   0  0  0  0  0  0  0  0  0  0  0  0
  -20.3069   19.9700  -14.1786 C   0  0  0  0  0  0  0  0  0  0  0  0
  -21.0621   20.4255  -15.2407 C   0  0  0  0  0  0  0  0  0  0  0  0
  -21.2893   19.5668  -16.2952 C   0  0  0  0  0  0  0  0  0  0  0  0
  -20.7711   18.2780  -16.2877 C   0  0  0  0  0  0  0  0  0  0  0  0
  -19.0463   16.0243  -14.7561 H   0  0  0  0  0  0  0  0  0  0  0  0
 26 27  1  0  0  0
 27 30  1  0  0  0
 30 31  1  0  0  0
 31 32  2  0  0  0
 32 33  1  0  0  0
 33 34  1  0  0  0
 34 35  2  0  0  0
 35 36  1  0  0  0
 36 37  2  0  0  0
 37 38  1  0  0  0
 38 39  2  0  0  0
 27  1  1  0  0  0
  1  2  2  0  0  0
  1  3  1  0  0  0
  3  4  1  0  0  0
  4  5  1  0  0  0
  5  6  1  0  0  0
  6  7  1  0  0  0
  7  8  1  0  0  0
  8  9  2  0  0  0
  8 10  1  0  0  0
 10 11  1  0  0  0
 11 12  1  0  0  0
 12 13  1  0  0  0
 13 14  1  0  0  0
 14 15  1  0  0  0
 15 16  2  0  0  0
 15 17  1  0  0  0
 17 18  1  0  0  0
 18 19  1  0  0  0
 19 20  1  0  0  0
 20 21  1  0  0  0
 21 22  1  0  0  0
 22 23  1  0  0  0
 22 24  2  0  0  0
 39 31  1  0  0  0
  7  3  1  0  0  0
 14 10  1  0  0  0
 21 17  1  0  0  0
 39 34  1  0  0  0
 26 28  1  0  0  0
 26 29  1  0  0  0
 33 40  1  0  0  0
 23 25  1  0  0  0
M  END
> <minimizedAffinity>
-8.39737

> <CNNscore>
0.2165259421

> <CNNaffinity>
6.5057706833

> <CNN_VS>
1.4086681604

> <CNNaffinity_variance>
0.3426076472

$$$$
[H]OC(=O)C1([H])N(C(=O)[C@@]2([H])N(C(=O)[C@@]3([H])N(C(=O)[C@@]([H])(N([H])[H])C([H])([H])c4c([H])n([H])c5c([H])c([H])c([H])c([H])c45)C([H])([H])C([H])([H])C3([H])[H])C([H])([H])C([H])([H])C2([H])[H])C([H])([H])C([H])([H])C1([H])[H]


 40 44  0  0  0  0  0  0  0  0999 V2000
  -19.9149   17.6074  -21.5801 C   0  0  0  0  0  0  0  0  0  0  0  0
  -20.1678   17.4566  -22.8330 O   0  0  0  0  0  0  0  0  0  0  0  0
  -18.8141   16.9126  -21.0113 N   0  0  0  0  0  0  0  0  0  0  0  0
  -18.3298   16.9473  -19.6696 C   0  0  0  0  0  0  0  0  0  0  0  0
  -16.9446   16.2983  -19.7151 C   0  0  0  0  0  0  0  0  0  0  0  0
  -16.5930   16.3461  -21.2159 C   0  0  0  0  0  0  0  0  0  0  0  0
  -17.9844   15.9886  -21.7590 C   0  0  0  0  0  0  0  0  0  0  0  0
  -18.3156   14.5948  -21.5274 C   0  0  0  0  0  0  0  0  0  0  0  0
  -19.2600   14.2654  -20.7918 O   0  0  0  0  0  0  0  0  0  0  0  0
  -17.5435   13.5741  -22.1567 N   0  0  0  0  0  0  0  0  0  0  0  0
  -17.7314   12.1295  -21.9934 C   0  0  0  0  0  0  0  0  0  0  0  0
  -16.3180   11.6118  -22.0219 C   0  0  0  0  0  0  0  0  0  0  0  0
  -15.4818   12.6542  -22.6837 C   0  0  0  0  0  0  0  0  0  0  0  0
  -16.4481   13.7359  -23.0890 C   0  0  0  0  0  0  0  0  0  0  0  0
  -16.8395   13.4834  -24.5026 C   0  0  0  0  0  0  0  0  0  0  0  0
  -17.4825   12.4609  -24.8634 O   0  0  0  0  0  0  0  0  0  0  0  0
  -16.4805   14.4278  -25.4970 N   0  0  0  0  0  0  0  0  0  0  0  0
  -16.7412   14.3320  -26.9271 C   0  0  0  0  0  0  0  0  0  0  0  0
  -15.8148   15.2883  -27.6020 C   0  0  0  0  0  0  0  0  0  0  0  0
  -15.0055   15.9258  -26.5245 C   0  0  0  0  0  0  0  0  0  0  0  0
  -15.8055   15.6859  -25.2450 C   0  0  0  0  0  0  0  0  0  0  0  0
  -16.7678   16.7876  -25.0793 C   0  0  0  0  0  0  0  0  0  0  0  0
  -16.3673   18.0964  -25.2322 O   0  0  0  0  0  0  0  0  0  0  0  0
  -17.9607   16.5429  -24.7972 O   0  0  0  0  0  0  0  0  0  0  0  0
  -16.9981   18.8850  -25.1872 H   0  0  0  0  0  0  0  0  0  0  0  0
  -20.4349   19.8656  -20.9821 N   0  0  0  0  0  0  0  0  0  0  0  0
  -20.8256   18.5048  -20.8794 C   0  0  0  0  0  0  0  0  0  0  0  0
  -20.0749   20.2810  -20.0981 H   0  0  0  0  0  0  0  0  0  0  0  0
  -21.0823   20.4746  -21.4989 H   0  0  0  0  0  0  0  0  0  0  0  0
  -22.2796   18.2700  -21.2392 C   0  0  0  0  0  0  0  0  0  0  0  0
  -23.1771   18.9319  -20.2969 C   0  0  0  0  0  0  0  0  0  0  0  0
  -24.0064   19.9956  -20.5481 C   0  0  0  0  0  0  0  0  0  0  0  0
  -24.6835   20.3270  -19.4176 N   0  0  0  0  0  0  0  0  0  0  0  0
  -24.2932   19.4810  -18.4400 C   0  0  0  0  0  0  0  0  0  0  0  0
  -24.6833   19.4049  -17.1219 C   0  0  0  0  0  0  0  0  0  0  0  0
  -24.1079   18.4240  -16.3410 C   0  0  0  0  0  0  0  0  0  0  0  0
  -23.1718   17.5316  -16.8239 C   0  0  0  0  0  0  0  0  0  0  0  0
  -22.7990   17.6300  -18.1477 C   0  0  0  0  0  0  0  0  0  0  0  0
  -23.3517   18.6018  -18.9722 C   0  0  0  0  0  0  0  0  0  0  0  0
  -25.3785   21.0881  -19.3040 H   0  0  0  0  0  0  0  0  0  0  0  0
 26 27  1  0  0  0
 27 30  1  0  0  0
 30 31  1  0  0  0
 31 32  2  0  0  0
 32 33  1  0  0  0
 33 34  1  0  0  0
 34 35  2  0  0  0
 35 36  1  0  0  0
 36 37  2  0  0  0
 37 38  1  0  0  0
 38 39  2  0  0  0
 27  1  1  0  0  0
  1  2  2  0  0  0
  1  3  1  0  0  0
  3  4  1  0  0  0
  4  5  1  0  0  0
  5  6  1  0  0  0
  6  7  1  0  0  0
  7  8  1  0  0  0
  8  9  2  0  0  0
  8 10  1  0  0  0
 10 11  1  0  0  0
 11 12  1  0  0  0
 12 13  1  0  0  0
 13 14  1  0  0  0
 14 15  1  0  0  0
 15 16  2  0  0  0
 15 17  1  0  0  0
 17 18  1  0  0  0
 18 19  1  0  0  0
 19 20  1  0  0  0
 20 21  1  0  0  0
 21 22  1  0  0  0
 22 23  1  0  0  0
 22 24  2  0  0  0
 39 31  1  0  0  0
  7  3  1  0  0  0
 14 10  1  0  0  0
 21 17  1  0  0  0
 39 34  1  0  0  0
 26 28  1  0  0  0
 26 29  1  0  0  0
 33 40  1  0  0  0
 23 25  1  0  0  0
M  END
> <minimizedAffinity>
-7.44368

> <CNNscore>
0.2060510516

> <CNNaffinity>
6.6340737343

> <CNN_VS>
1.3669579029

> <CNNaffinity_variance>
0.0690258816

$$$$
[H]OC(=O)C1([H])N(C(=O)[C@@]2([H])N(C(=O)[C@@]3([H])N(C(=O)[C@@]([H])(N([H])[H])C([H])([H])c4c([H])n([H])c5c([H])c([H])c([H])c([H])c45)C([H])([H])C([H])([H])C3([H])[H])C([H])([H])C([H])([H])C2([H])[H])C([H])([H])C([H])([H])C1([H])[H]


 40 44  0  0  0  0  0  0  0  0999 V2000
  -19.0597   15.2931  -18.7709 C   0  0  0  0  0  0  0  0  0  0  0  0
  -20.2202   15.6863  -18.3770 O   0  0  0  0  0  0  0  0  0  0  0  0
  -18.3444   16.0874  -19.7065 N   0  0  0  0  0  0  0  0  0  0  0  0
  -17.0459   15.8711  -20.2571 C   0  0  0  0  0  0  0  0  0  0  0  0
  -16.6527   17.1948  -20.9165 C   0  0  0  0  0  0  0  0  0  0  0  0
  -17.6330   18.1999  -20.2786 C   0  0  0  0  0  0  0  0  0  0  0  0
  -18.8783   17.3011  -20.2921 C   0  0  0  0  0  0  0  0  0  0  0  0
  -19.3995   17.1164  -21.6338 C   0  0  0  0  0  0  0  0  0  0  0  0
  -18.9665   16.2248  -22.3816 O   0  0  0  0  0  0  0  0  0  0  0  0
  -20.4340   17.9742  -22.1112 N   0  0  0  0  0  0  0  0  0  0  0  0
  -21.0350   17.9357  -23.4477 C   0  0  0  0  0  0  0  0  0  0  0  0
  -21.2749   19.3931  -23.7391 C   0  0  0  0  0  0  0  0  0  0  0  0
  -21.2854   20.1069  -22.4298 C   0  0  0  0  0  0  0  0  0  0  0  0
  -21.1164   19.0288  -21.3919 C   0  0  0  0  0  0  0  0  0  0  0  0
  -22.4742   18.6364  -20.9252 C   0  0  0  0  0  0  0  0  0  0  0  0
  -23.1530   17.7292  -21.4778 O   0  0  0  0  0  0  0  0  0  0  0  0
  -23.0400   19.3037  -19.8098 N   0  0  0  0  0  0  0  0  0  0  0  0
  -24.3621   19.0837  -19.2389 C   0  0  0  0  0  0  0  0  0  0  0  0
  -24.6808   20.2824  -18.4082 C   0  0  0  0  0  0  0  0  0  0  0  0
  -23.5141   21.2027  -18.5275 C   0  0  0  0  0  0  0  0  0  0  0  0
  -22.3699   20.3170  -19.0185 C   0  0  0  0  0  0  0  0  0  0  0  0
  -21.6975   19.7272  -17.8492 C   0  0  0  0  0  0  0  0  0  0  0  0
  -21.6785   20.3918  -16.6430 O   0  0  0  0  0  0  0  0  0  0  0  0
  -21.1362   18.6142  -17.9422 O   0  0  0  0  0  0  0  0  0  0  0  0
  -21.2829   20.0064  -15.7964 H   0  0  0  0  0  0  0  0  0  0  0  0
  -18.7544   14.0118  -16.7728 N   0  0  0  0  0  0  0  0  0  0  0  0
  -18.6125   14.0351  -18.1850 C   0  0  0  0  0  0  0  0  0  0  0  0
  -17.8571   14.0478  -16.2463 H   0  0  0  0  0  0  0  0  0  0  0  0
  -19.4287   13.3274  -16.4065 H   0  0  0  0  0  0  0  0  0  0  0  0
  -19.2098   12.8201  -18.8674 C   0  0  0  0  0  0  0  0  0  0  0  0
  -18.1890   11.8213  -19.1702 C   0  0  0  0  0  0  0  0  0  0  0  0
  -17.8305   10.7420  -18.4027 C   0  0  0  0  0  0  0  0  0  0  0  0
  -16.8409   10.0465  -19.0219 N   0  0  0  0  0  0  0  0  0  0  0  0
  -16.5612   10.6739  -20.1847 C   0  0  0  0  0  0  0  0  0  0  0  0
  -15.6426   10.3658  -21.1626 C   0  0  0  0  0  0  0  0  0  0  0  0
  -15.5741   11.1986  -22.2602 C   0  0  0  0  0  0  0  0  0  0  0  0
  -16.3786   12.3103  -22.4115 C   0  0  0  0  0  0  0  0  0  0  0  0
  -17.2901   12.5959  -21.4171 C   0  0  0  0  0  0  0  0  0  0  0  0
  -17.3948   11.7856  -20.2937 C   0  0  0  0  0  0  0  0  0  0  0  0
  -16.3714    9.1872  -18.6811 H   0  0  0  0  0  0  0  0  0  0  0  0
 26 27  1  0  0  0
 27 30  1  0  0  0
 30 31  1  0  0  0
 31 32  2  0  0  0
 32 33  1  0  0  0
 33 34  1  0  0  0
 34 35  2  0  0  0
 35 36  1  0  0  0
 36 37  2  0  0  0
 37 38  1  0  0  0
 38 39  2  0  0  0
 27  1  1  0  0  0
  1  2  2  0  0  0
  1  3  1  0  0  0
  3  4  1  0  0  0
  4  5  1  0  0  0
  5  6  1  0  0  0
  6  7  1  0  0  0
  7  8  1  0  0  0
  8  9  2  0  0  0
  8 10  1  0  0  0
 10 11  1  0  0  0
 11 12  1  0  0  0
 12 13  1  0  0  0
 13 14  1  0  0  0
 14 15  1  0  0  0
 15 16  2  0  0  0
 15 17  1  0  0  0
 17 18  1  0  0  0
 18 19  1  0  0  0
 19 20  1  0  0  0
 20 21  1  0  0  0
 21 22  1  0  0  0
 22 23  1  0  0  0
 22 24  2  0  0  0
 39 31  1  0  0  0
  7  3  1  0  0  0
 14 10  1  0  0  0
 21 17  1  0  0  0
 39 34  1  0  0  0
 26 28  1  0  0  0
 26 29  1  0  0  0
 33 40  1  0  0  0
 23 25  1  0  0  0
M  END
> <minimizedAffinity>
-8.04482

> <CNNscore>
0.1964441687

> <CNNaffinity>
6.4520087242

> <CNN_VS>
1.2674595118

> <CNNaffinity_variance>
0.0633094236

$$$$
[H]OC(=O)C1([H])N(C(=O)[C@@]2([H])N(C(=O)[C@@]3([H])N(C(=O)[C@@]([H])(N([H])[H])C([H])([H])c4c([H])n([H])c5c([H])c([H])c([H])c([H])c45)C([H])([H])C([H])([H])C3([H])[H])C([H])([H])C([H])([H])C2([H])[H])C([H])([H])C([H])([H])C1([H])[H]


 40 44  0  0  0  0  0  0  0  0999 V2000
  -18.4753   15.2755  -19.3186 C   0  0  0  0  0  0  0  0  0  0  0  0
  -18.8972   15.7060  -18.1814 O   0  0  0  0  0  0  0  0  0  0  0  0
  -17.7919   16.1715  -20.1836 N   0  0  0  0  0  0  0  0  0  0  0  0
  -17.2151   15.9158  -21.4634 C   0  0  0  0  0  0  0  0  0  0  0  0
  -16.3253   17.1243  -21.7627 C   0  0  0  0  0  0  0  0  0  0  0  0
  -16.1508   17.7734  -20.3748 C   0  0  0  0  0  0  0  0  0  0  0  0
  -17.5903   17.5740  -19.8781 C   0  0  0  0  0  0  0  0  0  0  0  0
  -18.5246   18.4545  -20.5546 C   0  0  0  0  0  0  0  0  0  0  0  0
  -18.5175   18.5832  -21.7895 O   0  0  0  0  0  0  0  0  0  0  0  0
  -19.4766   19.1915  -19.7902 N   0  0  0  0  0  0  0  0  0  0  0  0
  -20.4564   20.1429  -20.3229 C   0  0  0  0  0  0  0  0  0  0  0  0
  -20.4981   21.2012  -19.2530 C   0  0  0  0  0  0  0  0  0  0  0  0
  -19.9710   20.5825  -18.0026 C   0  0  0  0  0  0  0  0  0  0  0  0
  -19.6947   19.1458  -18.3600 C   0  0  0  0  0  0  0  0  0  0  0  0
  -20.8906   18.3480  -17.9746 C   0  0  0  0  0  0  0  0  0  0  0  0
  -21.5750   17.6937  -18.8068 O   0  0  0  0  0  0  0  0  0  0  0  0
  -21.2874   18.3129  -16.6141 N   0  0  0  0  0  0  0  0  0  0  0  0
  -22.4445   17.6232  -16.0594 C   0  0  0  0  0  0  0  0  0  0  0  0
  -22.7067   18.2251  -14.7187 C   0  0  0  0  0  0  0  0  0  0  0  0
  -21.6794   19.2876  -14.5232 C   0  0  0  0  0  0  0  0  0  0  0  0
  -20.5748   18.9477  -15.5227 C   0  0  0  0  0  0  0  0  0  0  0  0
  -19.6327   18.0152  -14.8823 C   0  0  0  0  0  0  0  0  0  0  0  0
  -19.3874   16.7777  -15.4349 O   0  0  0  0  0  0  0  0  0  0  0  0
  -19.0456   18.3403  -13.8277 O   0  0  0  0  0  0  0  0  0  0  0  0
  -18.7081   16.1247  -15.0690 H   0  0  0  0  0  0  0  0  0  0  0  0
  -19.8428   13.6997  -20.4908 N   0  0  0  0  0  0  0  0  0  0  0  0
  -18.7651   13.8713  -19.5830 C   0  0  0  0  0  0  0  0  0  0  0  0
  -20.7148   13.3259  -20.0626 H   0  0  0  0  0  0  0  0  0  0  0  0
  -19.5989   13.2678  -21.3915 H   0  0  0  0  0  0  0  0  0  0  0  0
  -17.5316   13.0742  -19.9596 C   0  0  0  0  0  0  0  0  0  0  0  0
  -17.5653   11.7331  -19.3836 C   0  0  0  0  0  0  0  0  0  0  0  0
  -16.7984   10.6548  -19.7460 C   0  0  0  0  0  0  0  0  0  0  0  0
  -17.1223    9.5819  -18.9775 N   0  0  0  0  0  0  0  0  0  0  0  0
  -18.0944    9.9655  -18.1222 C   0  0  0  0  0  0  0  0  0  0  0  0
  -18.7553    9.2507  -17.1488 C   0  0  0  0  0  0  0  0  0  0  0  0
  -19.7188    9.9106  -16.4146 C   0  0  0  0  0  0  0  0  0  0  0  0
  -20.0392   11.2383  -16.6164 C   0  0  0  0  0  0  0  0  0  0  0  0
  -19.3621   11.9308  -17.5977 C   0  0  0  0  0  0  0  0  0  0  0  0
  -18.3837   11.3077  -18.3620 C   0  0  0  0  0  0  0  0  0  0  0  0
  -16.7102    8.6315  -19.0229 H   0  0  0  0  0  0  0  0  0  0  0  0
 26 27  1  0  0  0
 27 30  1  0  0  0
 30 31  1  0  0  0
 31 32  2  0  0  0
 32 33  1  0  0  0
 33 34  1  0  0  0
 34 35  2  0  0  0
 35 36  1  0  0  0
 36 37  2  0  0  0
 37 38  1  0  0  0
 38 39  2  0  0  0
 27  1  1  0  0  0
  1  2  2  0  0  0
  1  3  1  0  0  0
  3  4  1  0  0  0
  4  5  1  0  0  0
  5  6  1  0  0  0
  6  7  1  0  0  0
  7  8  1  0  0  0
  8  9  2  0  0  0
  8 10  1  0  0  0
 10 11  1  0  0  0
 11 12  1  0  0  0
 12 13  1  0  0  0
 13 14  1  0  0  0
 14 15  1  0  0  0
 15 16  2  0  0  0
 15 17  1  0  0  0
 17 18  1  0  0  0
 18 19  1  0  0  0
 19 20  1  0  0  0
 20 21  1  0  0  0
 21 22  1  0  0  0
 22 23  1  0  0  0
 22 24  2  0  0  0
 39 31  1  0  0  0
  7  3  1  0  0  0
 14 10  1  0  0  0
 21 17  1  0  0  0
 39 34  1  0  0  0
 26 28  1  0  0  0
 26 29  1  0  0  0
 33 40  1  0  0  0
 23 25  1  0  0  0
M  END
> <minimizedAffinity>
-8.79050

> <CNNscore>
0.1730701029

> <CNNaffinity>
6.1228098869

> <CNN_VS>
1.0596753359

> <CNNaffinity_variance>
0.3246031702

$$$$
[H]OC(=O)C1([H])N(C(=O)[C@@]2([H])N(C(=O)[C@@]3([H])N(C(=O)[C@@]([H])(N([H])[H])C([H])([H])c4c([H])n([H])c5c([H])c([H])c([H])c([H])c45)C([H])([H])C([H])([H])C3([H])[H])C([H])([H])C([H])([H])C2([H])[H])C([H])([H])C([H])([H])C1([H])[H]


 40 44  0  0  0  0  0  0  0  0999 V2000
  -17.6859   13.7116  -21.2298 C   0  0  0  0  0  0  0  0  0  0  0  0
  -18.7650   13.1138  -20.8627 O   0  0  0  0  0  0  0  0  0  0  0  0
  -17.5051   15.0783  -20.8871 N   0  0  0  0  0  0  0  0  0  0  0  0
  -16.3919   15.9294  -21.1561 C   0  0  0  0  0  0  0  0  0  0  0  0
  -16.5897   17.1593  -20.2672 C   0  0  0  0  0  0  0  0  0  0  0  0
  -17.6179   16.6689  -19.2277 C   0  0  0  0  0  0  0  0  0  0  0  0
  -18.5042   15.8621  -20.1880 C   0  0  0  0  0  0  0  0  0  0  0  0
  -19.2812   16.7221  -21.0612 C   0  0  0  0  0  0  0  0  0  0  0  0
  -19.3264   16.5319  -22.2873 O   0  0  0  0  0  0  0  0  0  0  0  0
  -20.0133   17.8124  -20.5054 N   0  0  0  0  0  0  0  0  0  0  0  0
  -20.8113   18.7853  -21.2577 C   0  0  0  0  0  0  0  0  0  0  0  0
  -20.5693   20.0623  -20.4979 C   0  0  0  0  0  0  0  0  0  0  0  0
  -20.1007   19.6802  -19.1347 C   0  0  0  0  0  0  0  0  0  0  0  0
  -20.1451   18.1750  -19.1102 C   0  0  0  0  0  0  0  0  0  0  0  0
  -21.4512   17.7727  -18.5209 C   0  0  0  0  0  0  0  0  0  0  0  0
  -22.3813   17.2612  -19.2009 O   0  0  0  0  0  0  0  0  0  0  0  0
  -21.6713   17.9665  -17.1339 N   0  0  0  0  0  0  0  0  0  0  0  0
  -22.8909   17.6718  -16.3936 C   0  0  0  0  0  0  0  0  0  0  0  0
  -22.8173   18.4371  -15.1140 C   0  0  0  0  0  0  0  0  0  0  0  0
  -21.5308   19.1898  -15.1442 C   0  0  0  0  0  0  0  0  0  0  0  0
  -20.6872   18.4742  -16.1981 C   0  0  0  0  0  0  0  0  0  0  0  0
  -19.9514   17.3785  -15.5459 C   0  0  0  0  0  0  0  0  0  0  0  0
  -19.6815   17.4220  -14.1961 O   0  0  0  0  0  0  0  0  0  0  0  0
  -19.5640   16.3961  -16.2148 O   0  0  0  0  0  0  0  0  0  0  0  0
  -19.2326   16.6714  -13.6893 H   0  0  0  0  0  0  0  0  0  0  0  0
  -16.7101   11.5431  -21.4988 N   0  0  0  0  0  0  0  0  0  0  0  0
  -16.7536   12.8781  -21.9792 C   0  0  0  0  0  0  0  0  0  0  0  0
  -15.8292   11.2883  -21.0061 H   0  0  0  0  0  0  0  0  0  0  0  0
  -17.0475   10.8255  -22.1532 H   0  0  0  0  0  0  0  0  0  0  0  0
  -16.9543   12.9689  -23.4793 C   0  0  0  0  0  0  0  0  0  0  0  0
  -15.9327   13.8027  -24.1058 C   0  0  0  0  0  0  0  0  0  0  0  0
  -14.7686   14.2559  -23.5383 C   0  0  0  0  0  0  0  0  0  0  0  0
  -14.0796   15.0045  -24.4391 N   0  0  0  0  0  0  0  0  0  0  0  0
  -14.7957   15.0349  -25.5837 C   0  0  0  0  0  0  0  0  0  0  0  0
  -14.5290   15.6560  -26.7831 C   0  0  0  0  0  0  0  0  0  0  0  0
  -15.4550   15.5144  -27.7957 C   0  0  0  0  0  0  0  0  0  0  0  0
  -16.6189   14.7856  -27.6534 C   0  0  0  0  0  0  0  0  0  0  0  0
  -16.8612   14.1738  -26.4418 C   0  0  0  0  0  0  0  0  0  0  0  0
  -15.9573   14.2886  -25.3932 C   0  0  0  0  0  0  0  0  0  0  0  0
  -13.1676   15.4762  -24.2946 H   0  0  0  0  0  0  0  0  0  0  0  0
 26 27  1  0  0  0
 27 30  1  0  0  0
 30 31  1  0  0  0
 31 32  2  0  0  0
 32 33  1  0  0  0
 33 34  1  0  0  0
 34 35  2  0  0  0
 35 36  1  0  0  0
 36 37  2  0  0  0
 37 38  1  0  0  0
 38 39  2  0  0  0
 27  1  1  0  0  0
  1  2  2  0  0  0
  1  3  1  0  0  0
  3  4  1  0  0  0
  4  5  1  0  0  0
  5  6  1  0  0  0
  6  7  1  0  0  0
  7  8  1  0  0  0
  8  9  2  0  0  0
  8 10  1  0  0  0
 10 11  1  0  0  0
 11 12  1  0  0  0
 12 13  1  0  0  0
 13 14  1  0  0  0
 14 15  1  0  0  0
 15 16  2  0  0  0
 15 17  1  0  0  0
 17 18  1  0  0  0
 18 19  1  0  0  0
 19 20  1  0  0  0
 20 21  1  0  0  0
 21 22  1  0  0  0
 22 23  1  0  0  0
 22 24  2  0  0  0
 39 31  1  0  0  0
  7  3  1  0  0  0
 14 10  1  0  0  0
 21 17  1  0  0  0
 39 34  1  0  0  0
 26 28  1  0  0  0
 26 29  1  0  0  0
 33 40  1  0  0  0
 23 25  1  0  0  0
M  END
> <minimizedAffinity>
-9.26154

> <CNNscore>
0.1587393731

> <CNNaffinity>
6.5745553970

> <CNN_VS>
1.0436408520

> <CNNaffinity_variance>
0.0433951020

$$$$
[H]OC(=O)C1([H])N(C(=O)[C@@]2([H])N(C(=O)[C@@]3([H])N(C(=O)[C@@]([H])(N([H])[H])C([H])([H])c4c([H])n([H])c5c([H])c([H])c([H])c([H])c45)C([H])([H])C([H])([H])C3([H])[H])C([H])([H])C([H])([H])C2([H])[H])C([H])([H])C([H])([H])C1([H])[H]


 40 44  0  0  0  0  0  0  0  0999 V2000
  -19.6251   13.9739  -16.7096 C   0  0  0  0  0  0  0  0  0  0  0  0
  -18.3925   14.2227  -16.9843 O   0  0  0  0  0  0  0  0  0  0  0  0
  -20.6107   14.9475  -17.0238 N   0  0  0  0  0  0  0  0  0  0  0  0
  -22.0244   14.8818  -16.8417 C   0  0  0  0  0  0  0  0  0  0  0  0
  -22.5995   16.0367  -17.6648 C   0  0  0  0  0  0  0  0  0  0  0  0
  -21.4352   16.3970  -18.6097 C   0  0  0  0  0  0  0  0  0  0  0  0
  -20.2960   16.2437  -17.5912 C   0  0  0  0  0  0  0  0  0  0  0  0
  -20.2923   17.3179  -16.6154 C   0  0  0  0  0  0  0  0  0  0  0  0
  -20.0305   17.1082  -15.4200 O   0  0  0  0  0  0  0  0  0  0  0  0
  -20.5943   18.6480  -17.0320 N   0  0  0  0  0  0  0  0  0  0  0  0
  -20.6652   19.8263  -16.1628 C   0  0  0  0  0  0  0  0  0  0  0  0
  -21.7987   20.6104  -16.7687 C   0  0  0  0  0  0  0  0  0  0  0  0
  -21.9627   20.1323  -18.1717 C   0  0  0  0  0  0  0  0  0  0  0  0
  -20.8672   19.1187  -18.3733 C   0  0  0  0  0  0  0  0  0  0  0  0
  -19.7117   19.8221  -18.9940 C   0  0  0  0  0  0  0  0  0  0  0  0
  -18.7367   20.2601  -18.3257 O   0  0  0  0  0  0  0  0  0  0  0  0
  -19.6939   20.0131  -20.3986 N   0  0  0  0  0  0  0  0  0  0  0  0
  -18.6736   20.7076  -21.1726 C   0  0  0  0  0  0  0  0  0  0  0  0
  -19.2848   21.0449  -22.4921 C   0  0  0  0  0  0  0  0  0  0  0  0
  -20.6865   20.5389  -22.4513 C   0  0  0  0  0  0  0  0  0  0  0  0
  -20.6957   19.5126  -21.3194 C   0  0  0  0  0  0  0  0  0  0  0  0
  -20.3116   18.2025  -21.8702 C   0  0  0  0  0  0  0  0  0  0  0  0
  -19.4567   17.3745  -21.1770 O   0  0  0  0  0  0  0  0  0  0  0  0
  -20.7602   17.8296  -22.9758 O   0  0  0  0  0  0  0  0  0  0  0  0
  -19.2081   16.4433  -21.4815 H   0  0  0  0  0  0  0  0  0  0  0  0
  -20.6589   12.7709  -14.9176 N   0  0  0  0  0  0  0  0  0  0  0  0
  -19.8597   12.6766  -16.0870 C   0  0  0  0  0  0  0  0  0  0  0  0
  -20.1481   12.5934  -14.0281 H   0  0  0  0  0  0  0  0  0  0  0  0
  -21.5788   12.3147  -14.9716 H   0  0  0  0  0  0  0  0  0  0  0  0
  -20.3537   11.6312  -17.0677 C   0  0  0  0  0  0  0  0  0  0  0  0
  -19.2515   10.8377  -17.6034 C   0  0  0  0  0  0  0  0  0  0  0  0
  -18.7571    9.6598  -17.1029 C   0  0  0  0  0  0  0  0  0  0  0  0
  -17.7288    9.2269  -17.8786 N   0  0  0  0  0  0  0  0  0  0  0  0
  -17.5596   10.1215  -18.8761 C   0  0  0  0  0  0  0  0  0  0  0  0
  -16.6547   10.1359  -19.9136 C   0  0  0  0  0  0  0  0  0  0  0  0
  -16.7134   11.1929  -20.7980 C   0  0  0  0  0  0  0  0  0  0  0  0
  -17.6300   12.2190  -20.6832 C   0  0  0  0  0  0  0  0  0  0  0  0
  -18.5248   12.1799  -19.6349 C   0  0  0  0  0  0  0  0  0  0  0  0
  -18.5033   11.1352  -18.7196 C   0  0  0  0  0  0  0  0  0  0  0  0
  -17.1628    8.3682  -17.7467 H   0  0  0  0  0  0  0  0  0  0  0  0
 26 27  1  0  0  0
 27 30  1  0  0  0
 30 31  1  0  0  0
 31 32  2  0  0  0
 32 33  1  0  0  0
 33 34  1  0  0  0
 34 35  2  0  0  0
 35 36  1  0  0  0
 36 37  2  0  0  0
 37 38  1  0  0  0
 38 39  2  0  0  0
 27  1  1  0  0  0
  1  2  2  0  0  0
  1  3  1  0  0  0
  3  4  1  0  0  0
  4  5  1  0  0  0
  5  6  1  0  0  0
  6  7  1  0  0  0
  7  8  1  0  0  0
  8  9  2  0  0  0
  8 10  1  0  0  0
 10 11  1  0  0  0
 11 12  1  0  0  0
 12 13  1  0  0  0
 13 14  1  0  0  0
 14 15  1  0  0  0
 15 16  2  0  0  0
 15 17  1  0  0  0
 17 18  1  0  0  0
 18 19  1  0  0  0
 19 20  1  0  0  0
 20 21  1  0  0  0
 21 22  1  0  0  0
 22 23  1  0  0  0
 22 24  2  0  0  0
 39 31  1  0  0  0
  7  3  1  0  0  0
 14 10  1  0  0  0
 21 17  1  0  0  0
 39 34  1  0  0  0
 26 28  1  0  0  0
 26 29  1  0  0  0
 33 40  1  0  0  0
 23 25  1  0  0  0
M  END
> <minimizedAffinity>
-7.85909

> <CNNscore>
0.1558232605

> <CNNaffinity>
6.0314345360

> <CNN_VS>
0.9398378134

> <CNNaffinity_variance>
0.0940141529

$$$$
[H]OC(=O)C1([H])N(C(=O)[C@@]2([H])N(C(=O)[C@@]3([H])N(C(=O)[C@@]([H])(N([H])[H])C([H])([H])c4c([H])n([H])c5c([H])c([H])c([H])c([H])c45)C([H])([H])C([H])([H])C3([H])[H])C([H])([H])C([H])([H])C2([H])[H])C([H])([H])C([H])([H])C1([H])[H]


 40 44  0  0  0  0  0  0  0  0999 V2000
  -20.1308   15.1065  -19.8319 C   0  0  0  0  0  0  0  0  0  0  0  0
  -21.0988   14.2600  -19.8846 O   0  0  0  0  0  0  0  0  0  0  0  0
  -19.8905   15.8031  -18.6174 N   0  0  0  0  0  0  0  0  0  0  0  0
  -18.8698   16.7539  -18.3171 C   0  0  0  0  0  0  0  0  0  0  0  0
  -18.8787   16.9001  -16.7938 C   0  0  0  0  0  0  0  0  0  0  0  0
  -19.6511   15.6471  -16.3339 C   0  0  0  0  0  0  0  0  0  0  0  0
  -20.7191   15.6540  -17.4374 C   0  0  0  0  0  0  0  0  0  0  0  0
  -21.6750   16.7315  -17.2606 C   0  0  0  0  0  0  0  0  0  0  0  0
  -21.8375   17.6042  -18.1287 O   0  0  0  0  0  0  0  0  0  0  0  0
  -22.4501   16.7955  -16.0653 N   0  0  0  0  0  0  0  0  0  0  0  0
  -23.4249   17.8368  -15.7269 C   0  0  0  0  0  0  0  0  0  0  0  0
  -23.2341   17.9915  -14.2416 C   0  0  0  0  0  0  0  0  0  0  0  0
  -22.5779   16.7454  -13.7510 C   0  0  0  0  0  0  0  0  0  0  0  0
  -22.4615   15.8581  -14.9623 C   0  0  0  0  0  0  0  0  0  0  0  0
  -23.6439   14.9542  -14.9736 C   0  0  0  0  0  0  0  0  0  0  0  0
  -24.6825   15.1928  -15.6470 O   0  0  0  0  0  0  0  0  0  0  0  0
  -23.6128   13.7680  -14.1979 N   0  0  0  0  0  0  0  0  0  0  0  0
  -24.6827   12.7896  -14.0553 C   0  0  0  0  0  0  0  0  0  0  0  0
  -24.3792   11.9900  -12.8318 C   0  0  0  0  0  0  0  0  0  0  0  0
  -23.1151   12.5431  -12.2672 C   0  0  0  0  0  0  0  0  0  0  0  0
  -22.4757   13.3088  -13.4247 C   0  0  0  0  0  0  0  0  0  0  0  0
  -21.6407   12.3766  -14.2000 C   0  0  0  0  0  0  0  0  0  0  0  0
  -21.4820   11.0714  -13.7899 O   0  0  0  0  0  0  0  0  0  0  0  0
  -21.0668   12.7638  -15.2408 O   0  0  0  0  0  0  0  0  0  0  0  0
  -20.9689   10.3768  -14.3153 H   0  0  0  0  0  0  0  0  0  0  0  0
  -19.7286   16.4204  -21.7912 N   0  0  0  0  0  0  0  0  0  0  0  0
  -19.3779   15.2477  -21.0724 C   0  0  0  0  0  0  0  0  0  0  0  0
  -20.2605   16.2478  -22.6693 H   0  0  0  0  0  0  0  0  0  0  0  0
  -18.9837   17.1232  -21.8831 H   0  0  0  0  0  0  0  0  0  0  0  0
  -17.8827   15.0890  -20.8775 C   0  0  0  0  0  0  0  0  0  0  0  0
  -17.4303   13.7587  -21.2735 C   0  0  0  0  0  0  0  0  0  0  0  0
  -16.9166   13.3846  -22.4895 C   0  0  0  0  0  0  0  0  0  0  0  0
  -16.6113   12.0606  -22.4715 N   0  0  0  0  0  0  0  0  0  0  0  0
  -16.9264   11.5813  -21.2489 C   0  0  0  0  0  0  0  0  0  0  0  0
  -16.8077   10.3097  -20.7347 C   0  0  0  0  0  0  0  0  0  0  0  0
  -17.2162   10.1062  -19.4329 C   0  0  0  0  0  0  0  0  0  0  0  0
  -17.7305   11.1130  -18.6405 C   0  0  0  0  0  0  0  0  0  0  0  0
  -17.8384   12.3771  -19.1803 C   0  0  0  0  0  0  0  0  0  0  0  0
  -17.4397   12.6294  -20.4868 C   0  0  0  0  0  0  0  0  0  0  0  0
  -16.2085   11.5000  -23.2452 H   0  0  0  0  0  0  0  0  0  0  0  0
 26 27  1  0  0  0
 27 30  1  0  0  0
 30 31  1  0  0  0
 31 32  2  0  0  0
 32 33  1  0  0  0
 33 34  1  0  0  0
 34 35  2  0  0  0
 35 36  1  0  0  0
 36 37  2  0  0  0
 37 38  1  0  0  0
 38 39  2  0  0  0
 27  1  1  0  0  0
  1  2  2  0  0  0
  1  3  1  0  0  0
  3  4  1  0  0  0
  4  5  1  0  0  0
  5  6  1  0  0  0
  6  7  1  0  0  0
  7  8  1  0  0  0
  8  9  2  0  0  0
  8 10  1  0  0  0
 10 11  1  0  0  0
 11 12  1  0  0  0
 12 13  1  0  0  0
 13 14  1  0  0  0
 14 15  1  0  0  0
 15 16  2  0  0  0
 15 17  1  0  0  0
 17 18  1  0  0  0
 18 19  1  0  0  0
 19 20  1  0  0  0
 20 21  1  0  0  0
 21 22  1  0  0  0
 22 23  1  0  0  0
 22 24  2  0  0  0
 39 31  1  0  0  0
  7  3  1  0  0  0
 14 10  1  0  0  0
 21 17  1  0  0  0
 39 34  1  0  0  0
 26 28  1  0  0  0
 26 29  1  0  0  0
 33 40  1  0  0  0
 23 25  1  0  0  0
M  END
> <minimizedAffinity>
-7.04911

> <CNNscore>
0.1549912393

> <CNNaffinity>
5.9118967056

> <CNN_VS>
0.9162921906

> <CNNaffinity_variance>
0.1309419125

$$$$
[H]N1C(=O)[C@]([H])([C@@]([H])(C([H])([H])[H])C([H])([H])C([H])([H])[H])N([H])C(=O)[C@]([H])([C@]([H])(C([H])([H])[H])C([H])([H])C([H])([H])[H])N([H])C(=O)[C@]([H])([C@]([H])(C([H])([H])[H])C([H])([H])C([H])([H])[H])N([H])C(=O)[C@]([H])([C@@]([H])(C([H])([H])[H])C([H])([H])C([H])([H])[H])N([H])C(=O)[C@]([H])([C@@]([H])(C([H])([H])[H])C([H])([H])C([H])([H])[H])N([H])C(=O)[C@]1([H])[C@@]([H])(C([H])([H])[H])C([H])([H])C([H])([H])[H]


 54 54  0  0  0  0  0  0  0  0999 V2000
  -18.1348   13.0857  -19.6555 C   0  0  0  0  0  0  0  0  0  0  0  0
  -17.0280   12.2767  -20.2174 C   0  0  0  0  0  0  0  0  0  0  0  0
  -16.3013   11.6404  -19.3655 O   0  0  0  0  0  0  0  0  0  0  0  0
  -16.6714   12.1139  -21.5512 N   0  0  0  0  0  0  0  0  0  0  0  0
  -16.4593   13.1078  -22.5774 C   0  0  0  0  0  0  0  0  0  0  0  0
  -17.4024   12.8492  -23.6953 C   0  0  0  0  0  0  0  0  0  0  0  0
  -17.3177   11.6662  -24.1837 O   0  0  0  0  0  0  0  0  0  0  0  0
  -18.3299   13.7223  -24.2428 N   0  0  0  0  0  0  0  0  0  0  0  0
  -18.1212   15.1118  -24.6376 C   0  0  0  0  0  0  0  0  0  0  0  0
  -19.4152   15.8151  -24.6856 C   0  0  0  0  0  0  0  0  0  0  0  0
  -20.4058   15.0909  -25.0820 O   0  0  0  0  0  0  0  0  0  0  0  0
  -19.6896   17.1578  -24.3552 N   0  0  0  0  0  0  0  0  0  0  0  0
  -19.4624   17.8332  -23.1072 C   0  0  0  0  0  0  0  0  0  0  0  0
  -20.8059   18.1288  -22.4984 C   0  0  0  0  0  0  0  0  0  0  0  0
  -21.6408   18.6343  -23.3311 O   0  0  0  0  0  0  0  0  0  0  0  0
  -21.1840   17.9053  -21.1801 N   0  0  0  0  0  0  0  0  0  0  0  0
  -20.4886   18.1717  -19.9590 C   0  0  0  0  0  0  0  0  0  0  0  0
  -20.7931   17.0437  -19.0221 C   0  0  0  0  0  0  0  0  0  0  0  0
  -22.0478   16.8306  -18.8705 O   0  0  0  0  0  0  0  0  0  0  0  0
  -19.8449   16.2605  -18.3467 N   0  0  0  0  0  0  0  0  0  0  0  0
  -18.4178   16.2665  -18.4978 C   0  0  0  0  0  0  0  0  0  0  0  0
  -17.9144   15.6390  -19.7337 C   0  0  0  0  0  0  0  0  0  0  0  0
  -17.0427   16.3147  -20.4063 O   0  0  0  0  0  0  0  0  0  0  0  0
  -18.2754   14.3902  -20.2636 N   0  0  0  0  0  0  0  0  0  0  0  0
  -16.5254   11.1155  -21.9084 H   0  0  0  0  0  0  0  0  0  0  0  0
  -19.3224   13.3675  -24.4103 H   0  0  0  0  0  0  0  0  0  0  0  0
  -20.1404   17.7336  -25.1236 H   0  0  0  0  0  0  0  0  0  0  0  0
  -22.1580   17.4663  -21.0494 H   0  0  0  0  0  0  0  0  0  0  0  0
  -20.2325   15.5748  -17.6311 H   0  0  0  0  0  0  0  0  0  0  0  0
  -18.7120   14.3688  -21.2378 H   0  0  0  0  0  0  0  0  0  0  0  0
  -19.4391   12.3064  -19.6230 C   0  0  0  0  0  0  0  0  0  0  0  0
  -19.6736   11.5367  -18.3758 C   0  0  0  0  0  0  0  0  0  0  0  0
  -21.3199   13.5651  -18.5772 C   0  0  0  0  0  0  0  0  0  0  0  0
  -20.5696   13.2905  -19.8592 C   0  0  0  0  0  0  0  0  0  0  0  0
  -15.0186   13.0209  -23.0327 C   0  0  0  0  0  0  0  0  0  0  0  0
  -14.1726   12.0733  -22.2556 C   0  0  0  0  0  0  0  0  0  0  0  0
  -14.4450   14.4141  -23.0650 C   0  0  0  0  0  0  0  0  0  0  0  0
  -13.8448   14.7440  -24.4168 C   0  0  0  0  0  0  0  0  0  0  0  0
  -17.4760   15.0170  -26.0087 C   0  0  0  0  0  0  0  0  0  0  0  0
  -16.9929   13.6522  -26.3672 C   0  0  0  0  0  0  0  0  0  0  0  0
  -16.3308   15.9848  -26.1919 C   0  0  0  0  0  0  0  0  0  0  0  0
  -15.6744   15.6106  -27.5287 C   0  0  0  0  0  0  0  0  0  0  0  0
  -18.6374   19.0459  -23.0954 C   0  0  0  0  0  0  0  0  0  0  0  0
  -17.5524   18.9785  -24.1993 C   0  0  0  0  0  0  0  0  0  0  0  0
  -19.2785   20.3811  -23.1095 C   0  0  0  0  0  0  0  0  0  0  0  0
  -19.4113   21.0589  -24.4419 C   0  0  0  0  0  0  0  0  0  0  0  0
  -20.9846   19.4839  -19.3258 C   0  0  0  0  0  0  0  0  0  0  0  0
  -20.4691   19.6643  -17.9190 C   0  0  0  0  0  0  0  0  0  0  0  0
  -20.5807   20.6824  -20.1183 C   0  0  0  0  0  0  0  0  0  0  0  0
  -19.2704   21.2035  -19.5682 C   0  0  0  0  0  0  0  0  0  0  0  0
  -17.7182   15.7647  -17.2375 C   0  0  0  0  0  0  0  0  0  0  0  0
  -18.2918   16.4883  -16.0631 C   0  0  0  0  0  0  0  0  0  0  0  0
  -18.1437   14.2941  -17.0796 C   0  0  0  0  0  0  0  0  0  0  0  0
  -19.1866   14.1273  -15.9987 C   0  0  0  0  0  0  0  0  0  0  0  0
 33 34  1  0  0  0
 34 31  1  0  0  0
 31 32  1  0  0  0
 31  1  1  0  0  0
  1  2  1  0  0  0
  2  3  2  0  0  0
  2  4  1  0  0  0
  4  5  1  0  0  0
  5 35  1  0  0  0
 35 36  1  0  0  0
 35 37  1  0  0  0
 37 38  1  0  0  0
  5  6  1  0  0  0
  6  7  2  0  0  0
  6  8  1  0  0  0
  8  9  1  0  0  0
  9 39  1  0  0  0
 39 40  1  0  0  0
 39 41  1  0  0  0
 41 42  1  0  0  0
  9 10  1  0  0  0
 10 11  2  0  0  0
 10 12  1  0  0  0
 12 13  1  0  0  0
 13 43  1  0  0  0
 43 44  1  0  0  0
 43 45  1  0  0  0
 45 46  1  0  0  0
 13 14  1  0  0  0
 14 15  2  0  0  0
 14 16  1  0  0  0
 16 17  1  0  0  0
 17 47  1  0  0  0
 47 48  1  0  0  0
 47 49  1  0  0  0
 49 50  1  0  0  0
 17 18  1  0  0  0
 18 19  2  0  0  0
 18 20  1  0  0  0
 20 21  1  0  0  0
 21 51  1  0  0  0
 51 52  1  0  0  0
 51 53  1  0  0  0
 53 54  1  0  0  0
 21 22  1  0  0  0
 22 23  2  0  0  0
 22 24  1  0  0  0
 24  1  1  0  0  0
  4 25  1  0  0  0
  8 26  1  0  0  0
 12 27  1  0  0  0
 16 28  1  0  0  0
 20 29  1  0  0  0
 24 30  1  0  0  0
M  END
> <minimizedAffinity>
0.33978

> <CNNscore>
0.4036578834

> <CNNaffinity>
7.3575263023

> <CNN_VS>
2.9699234962

> <CNNaffinity_variance>
1.0625873804

$$$$
[H]N1C(=O)[C@]([H])([C@@]([H])(C([H])([H])[H])C([H])([H])C([H])([H])[H])N([H])C(=O)[C@]([H])([C@]([H])(C([H])([H])[H])C([H])([H])C([H])([H])[H])N([H])C(=O)[C@]([H])([C@]([H])(C([H])([H])[H])C([H])([H])C([H])([H])[H])N([H])C(=O)[C@]([H])([C@@]([H])(C([H])([H])[H])C([H])([H])C([H])([H])[H])N([H])C(=O)[C@]([H])([C@@]([H])(C([H])([H])[H])C([H])([H])C([H])([H])[H])N([H])C(=O)[C@]1([H])[C@@]([H])(C([H])([H])[H])C([H])([H])C([H])([H])[H]


 54 54  0  0  0  0  0  0  0  0999 V2000
  -16.4833   13.2677  -22.6217 C   0  0  0  0  0  0  0  0  0  0  0  0
  -16.6056   11.9508  -21.9538 C   0  0  0  0  0  0  0  0  0  0  0  0
  -16.4841   10.9168  -22.7121 O   0  0  0  0  0  0  0  0  0  0  0  0
  -16.8344   11.6854  -20.6085 N   0  0  0  0  0  0  0  0  0  0  0  0
  -17.8375   12.2238  -19.7197 C   0  0  0  0  0  0  0  0  0  0  0  0
  -17.1574   12.8943  -18.5821 C   0  0  0  0  0  0  0  0  0  0  0  0
  -16.3434   12.1364  -17.9432 O   0  0  0  0  0  0  0  0  0  0  0  0
  -17.3065   14.2058  -18.1575 N   0  0  0  0  0  0  0  0  0  0  0  0
  -18.5511   14.9382  -17.9461 C   0  0  0  0  0  0  0  0  0  0  0  0
  -18.2900   16.3876  -17.9964 C   0  0  0  0  0  0  0  0  0  0  0  0
  -17.1488   16.7448  -17.5137 O   0  0  0  0  0  0  0  0  0  0  0  0
  -19.1244   17.4060  -18.5003 N   0  0  0  0  0  0  0  0  0  0  0  0
  -19.6659   17.5412  -19.8246 C   0  0  0  0  0  0  0  0  0  0  0  0
  -18.9936   18.7203  -20.4731 C   0  0  0  0  0  0  0  0  0  0  0  0
  -18.9444   19.7559  -19.7174 O   0  0  0  0  0  0  0  0  0  0  0  0
  -18.4540   18.7643  -21.7528 N   0  0  0  0  0  0  0  0  0  0  0  0
  -18.9748   18.2830  -22.9949 C   0  0  0  0  0  0  0  0  0  0  0  0
  -17.8191   17.7412  -23.7782 C   0  0  0  0  0  0  0  0  0  0  0  0
  -16.8540   18.5746  -23.9067 O   0  0  0  0  0  0  0  0  0  0  0  0
  -17.7400   16.4584  -24.3413 N   0  0  0  0  0  0  0  0  0  0  0  0
  -18.6527   15.3620  -24.1854 C   0  0  0  0  0  0  0  0  0  0  0  0
  -18.6043   14.6856  -22.8759 C   0  0  0  0  0  0  0  0  0  0  0  0
  -19.7390   14.4821  -22.2930 O   0  0  0  0  0  0  0  0  0  0  0  0
  -17.4645   14.2381  -22.1895 N   0  0  0  0  0  0  0  0  0  0  0  0
  -16.1887   10.9829  -20.1236 H   0  0  0  0  0  0  0  0  0  0  0  0
  -16.4273   14.7741  -17.9498 H   0  0  0  0  0  0  0  0  0  0  0  0
  -19.3636   18.1801  -17.8157 H   0  0  0  0  0  0  0  0  0  0  0  0
  -17.4918   19.2405  -21.8298 H   0  0  0  0  0  0  0  0  0  0  0  0
  -16.8962   16.2745  -24.9632 H   0  0  0  0  0  0  0  0  0  0  0  0
  -17.2708   14.6484  -21.2229 H   0  0  0  0  0  0  0  0  0  0  0  0
  -15.0608   13.7989  -22.5585 C   0  0  0  0  0  0  0  0  0  0  0  0
  -14.0320   12.7849  -22.2178 C   0  0  0  0  0  0  0  0  0  0  0  0
  -14.8049   15.9475  -23.7971 C   0  0  0  0  0  0  0  0  0  0  0  0
  -14.7492   14.4412  -23.8975 C   0  0  0  0  0  0  0  0  0  0  0  0
  -18.7169   11.0851  -19.2500 C   0  0  0  0  0  0  0  0  0  0  0  0
  -19.6810   11.4422  -18.1728 C   0  0  0  0  0  0  0  0  0  0  0  0
  -17.8319    9.9254  -18.8718 C   0  0  0  0  0  0  0  0  0  0  0  0
  -18.3252    9.2260  -17.6212 C   0  0  0  0  0  0  0  0  0  0  0  0
  -19.0169   14.4931  -16.5713 C   0  0  0  0  0  0  0  0  0  0  0  0
  -19.8303   13.2429  -16.5733 C   0  0  0  0  0  0  0  0  0  0  0  0
  -19.7945   15.5593  -15.8362 C   0  0  0  0  0  0  0  0  0  0  0  0
  -21.2758   15.2647  -16.1130 C   0  0  0  0  0  0  0  0  0  0  0  0
  -21.1193   17.6487  -19.9905 C   0  0  0  0  0  0  0  0  0  0  0  0
  -21.5822   19.1159  -19.8087 C   0  0  0  0  0  0  0  0  0  0  0  0
  -21.7766   17.0642  -21.1823 C   0  0  0  0  0  0  0  0  0  0  0  0
  -23.2161   17.4217  -21.4104 C   0  0  0  0  0  0  0  0  0  0  0  0
  -19.6171   19.4295  -23.7961 C   0  0  0  0  0  0  0  0  0  0  0  0
  -21.0872   19.1940  -24.0425 C   0  0  0  0  0  0  0  0  0  0  0  0
  -19.4732   20.7478  -23.1114 C   0  0  0  0  0  0  0  0  0  0  0  0
  -20.8418   21.2030  -22.6519 C   0  0  0  0  0  0  0  0  0  0  0  0
  -18.5779   14.3977  -25.3662 C   0  0  0  0  0  0  0  0  0  0  0  0
  -17.2945   14.6421  -26.0906 C   0  0  0  0  0  0  0  0  0  0  0  0
  -18.4580   12.9917  -24.7519 C   0  0  0  0  0  0  0  0  0  0  0  0
  -17.7864   12.0239  -25.6986 C   0  0  0  0  0  0  0  0  0  0  0  0
 33 34  1  0  0  0
 34 31  1  0  0  0
 31 32  1  0  0  0
 31  1  1  0  0  0
  1  2  1  0  0  0
  2  3  2  0  0  0
  2  4  1  0  0  0
  4  5  1  0  0  0
  5 35  1  0  0  0
 35 36  1  0  0  0
 35 37  1  0  0  0
 37 38  1  0  0  0
  5  6  1  0  0  0
  6  7  2  0  0  0
  6  8  1  0  0  0
  8  9  1  0  0  0
  9 39  1  0  0  0
 39 40  1  0  0  0
 39 41  1  0  0  0
 41 42  1  0  0  0
  9 10  1  0  0  0
 10 11  2  0  0  0
 10 12  1  0  0  0
 12 13  1  0  0  0
 13 43  1  0  0  0
 43 44  1  0  0  0
 43 45  1  0  0  0
 45 46  1  0  0  0
 13 14  1  0  0  0
 14 15  2  0  0  0
 14 16  1  0  0  0
 16 17  1  0  0  0
 17 47  1  0  0  0
 47 48  1  0  0  0
 47 49  1  0  0  0
 49 50  1  0  0  0
 17 18  1  0  0  0
 18 19  2  0  0  0
 18 20  1  0  0  0
 20 21  1  0  0  0
 21 51  1  0  0  0
 51 52  1  0  0  0
 51 53  1  0  0  0
 53 54  1  0  0  0
 21 22  1  0  0  0
 22 23  2  0  0  0
 22 24  1  0  0  0
 24  1  1  0  0  0
  4 25  1  0  0  0
  8 26  1  0  0  0
 12 27  1  0  0  0
 16 28  1  0  0  0
 20 29  1  0  0  0
 24 30  1  0  0  0
M  END
> <minimizedAffinity>
0.09856

> <CNNscore>
0.4028054476

> <CNNaffinity>
7.5174140930

> <CNN_VS>
3.0280554295

> <CNNaffinity_variance>
1.3953843117

$$$$
[H]N1C(=O)[C@]([H])([C@@]([H])(C([H])([H])[H])C([H])([H])C([H])([H])[H])N([H])C(=O)[C@]([H])([C@]([H])(C([H])([H])[H])C([H])([H])C([H])([H])[H])N([H])C(=O)[C@]([H])([C@]([H])(C([H])([H])[H])C([H])([H])C([H])([H])[H])N([H])C(=O)[C@]([H])([C@@]([H])(C([H])([H])[H])C([H])([H])C([H])([H])[H])N([H])C(=O)[C@]([H])([C@@]([H])(C([H])([H])[H])C([H])([H])C([H])([H])[H])N([H])C(=O)[C@]1([H])[C@@]([H])(C([H])([H])[H])C([H])([H])C([H])([H])[H]


 54 54  0  0  0  0  0  0  0  0999 V2000
  -19.6368   15.0183  -18.7042 C   0  0  0  0  0  0  0  0  0  0  0  0
  -19.4384   16.4787  -18.5529 C   0  0  0  0  0  0  0  0  0  0  0  0
  -18.4865   16.9969  -19.2488 O   0  0  0  0  0  0  0  0  0  0  0  0
  -20.1505   17.3663  -17.7543 N   0  0  0  0  0  0  0  0  0  0  0  0
  -20.4984   17.2737  -16.3557 C   0  0  0  0  0  0  0  0  0  0  0  0
  -21.9774   17.3200  -16.2272 C   0  0  0  0  0  0  0  0  0  0  0  0
  -22.5135   18.3555  -16.7614 O   0  0  0  0  0  0  0  0  0  0  0  0
  -22.8056   16.3930  -15.6130 N   0  0  0  0  0  0  0  0  0  0  0  0
  -22.6335   15.7743  -14.3024 C   0  0  0  0  0  0  0  0  0  0  0  0
  -23.4056   14.5208  -14.2387 C   0  0  0  0  0  0  0  0  0  0  0  0
  -24.5193   14.5424  -14.8885 O   0  0  0  0  0  0  0  0  0  0  0  0
  -23.0749   13.3273  -13.5654 N   0  0  0  0  0  0  0  0  0  0  0  0
  -21.9087   12.5039  -13.7311 C   0  0  0  0  0  0  0  0  0  0  0  0
  -22.3492   11.2134  -14.3664 C   0  0  0  0  0  0  0  0  0  0  0  0
  -23.3906   10.7055  -13.8156 O   0  0  0  0  0  0  0  0  0  0  0  0
  -21.7464   10.5730  -15.4422 N   0  0  0  0  0  0  0  0  0  0  0  0
  -20.3650   10.3233  -15.7163 C   0  0  0  0  0  0  0  0  0  0  0  0
  -20.1716   10.4836  -17.1926 C   0  0  0  0  0  0  0  0  0  0  0  0
  -20.9774    9.7745  -17.8930 O   0  0  0  0  0  0  0  0  0  0  0  0
  -19.2211   11.3110  -17.8097 N   0  0  0  0  0  0  0  0  0  0  0  0
  -18.3411   12.2642  -17.1961 C   0  0  0  0  0  0  0  0  0  0  0  0
  -18.9851   13.5087  -16.7368 C   0  0  0  0  0  0  0  0  0  0  0  0
  -18.7032   13.8910  -15.5355 O   0  0  0  0  0  0  0  0  0  0  0  0
  -19.8713   14.3257  -17.4566 N   0  0  0  0  0  0  0  0  0  0  0  0
  -20.5134   18.2640  -18.2105 H   0  0  0  0  0  0  0  0  0  0  0  0
  -23.6823   16.0747  -16.1319 H   0  0  0  0  0  0  0  0  0  0  0  0
  -23.7919   12.9869  -12.8618 H   0  0  0  0  0  0  0  0  0  0  0  0
  -22.4223   10.1972  -16.1909 H   0  0  0  0  0  0  0  0  0  0  0  0
  -19.1420   11.2205  -18.8672 H   0  0  0  0  0  0  0  0  0  0  0  0
  -20.8504   14.4731  -17.0570 H   0  0  0  0  0  0  0  0  0  0  0  0
  -20.6820   14.7004  -19.7607 C   0  0  0  0  0  0  0  0  0  0  0  0
  -21.0101   13.2595  -19.8982 C   0  0  0  0  0  0  0  0  0  0  0  0
  -22.2874   16.4308  -20.5634 C   0  0  0  0  0  0  0  0  0  0  0  0
  -21.9290   15.4990  -19.4297 C   0  0  0  0  0  0  0  0  0  0  0  0
  -19.8396   18.4237  -15.6248 C   0  0  0  0  0  0  0  0  0  0  0  0
  -20.0694   18.4441  -14.1537 C   0  0  0  0  0  0  0  0  0  0  0  0
  -20.2529   19.7103  -16.2917 C   0  0  0  0  0  0  0  0  0  0  0  0
  -20.6683   20.7598  -15.2804 C   0  0  0  0  0  0  0  0  0  0  0  0
  -23.1578   16.8135  -13.3276 C   0  0  0  0  0  0  0  0  0  0  0  0
  -23.5581   16.2638  -12.0001 C   0  0  0  0  0  0  0  0  0  0  0  0
  -24.3189   17.6079  -13.8776 C   0  0  0  0  0  0  0  0  0  0  0  0
  -24.0087   19.0783  -13.5621 C   0  0  0  0  0  0  0  0  0  0  0  0
  -21.0691   12.2178  -12.5629 C   0  0  0  0  0  0  0  0  0  0  0  0
  -21.8437   12.5014  -11.2515 C   0  0  0  0  0  0  0  0  0  0  0  0
  -20.3656   10.9188  -12.4536 C   0  0  0  0  0  0  0  0  0  0  0  0
  -20.2693   10.3093  -11.0856 C   0  0  0  0  0  0  0  0  0  0  0  0
  -19.9842    8.8845  -15.3241 C   0  0  0  0  0  0  0  0  0  0  0  0
  -18.9344    8.8520  -14.2405 C   0  0  0  0  0  0  0  0  0  0  0  0
  -21.1596    8.0987  -14.8463 C   0  0  0  0  0  0  0  0  0  0  0  0
  -20.7750    7.3883  -13.5661 C   0  0  0  0  0  0  0  0  0  0  0  0
  -17.0964   12.5063  -18.0457 C   0  0  0  0  0  0  0  0  0  0  0  0
  -16.3255   11.2290  -18.1226 C   0  0  0  0  0  0  0  0  0  0  0  0
  -17.6087   12.7799  -19.4709 C   0  0  0  0  0  0  0  0  0  0  0  0
  -17.1108   11.7438  -20.4520 C   0  0  0  0  0  0  0  0  0  0  0  0
 33 34  1  0  0  0
 34 31  1  0  0  0
 31 32  1  0  0  0
 31  1  1  0  0  0
  1  2  1  0  0  0
  2  3  2  0  0  0
  2  4  1  0  0  0
  4  5  1  0  0  0
  5 35  1  0  0  0
 35 36  1  0  0  0
 35 37  1  0  0  0
 37 38  1  0  0  0
  5  6  1  0  0  0
  6  7  2  0  0  0
  6  8  1  0  0  0
  8  9  1  0  0  0
  9 39  1  0  0  0
 39 40  1  0  0  0
 39 41  1  0  0  0
 41 42  1  0  0  0
  9 10  1  0  0  0
 10 11  2  0  0  0
 10 12  1  0  0  0
 12 13  1  0  0  0
 13 43  1  0  0  0
 43 44  1  0  0  0
 43 45  1  0  0  0
 45 46  1  0  0  0
 13 14  1  0  0  0
 14 15  2  0  0  0
 14 16  1  0  0  0
 16 17  1  0  0  0
 17 47  1  0  0  0
 47 48  1  0  0  0
 47 49  1  0  0  0
 49 50  1  0  0  0
 17 18  1  0  0  0
 18 19  2  0  0  0
 18 20  1  0  0  0
 20 21  1  0  0  0
 21 51  1  0  0  0
 51 52  1  0  0  0
 51 53  1  0  0  0
 53 54  1  0  0  0
 21 22  1  0  0  0
 22 23  2  0  0  0
 22 24  1  0  0  0
 24  1  1  0  0  0
  4 25  1  0  0  0
  8 26  1  0  0  0
 12 27  1  0  0  0
 16 28  1  0  0  0
 20 29  1  0  0  0
 24 30  1  0  0  0
M  END
> <minimizedAffinity>
-1.32909

> <CNNscore>
0.4017435908

> <CNNaffinity>
7.1158232689

> <CNN_VS>
2.8587362766

> <CNNaffinity_variance>
1.5332834721

$$$$
[H]N1C(=O)[C@]([H])([C@@]([H])(C([H])([H])[H])C([H])([H])C([H])([H])[H])N([H])C(=O)[C@]([H])([C@]([H])(C([H])([H])[H])C([H])([H])C([H])([H])[H])N([H])C(=O)[C@]([H])([C@]([H])(C([H])([H])[H])C([H])([H])C([H])([H])[H])N([H])C(=O)[C@]([H])([C@@]([H])(C([H])([H])[H])C([H])([H])C([H])([H])[H])N([H])C(=O)[C@]([H])([C@@]([H])(C([H])([H])[H])C([H])([H])C([H])([H])[H])N([H])C(=O)[C@]1([H])[C@@]([H])(C([H])([H])[H])C([H])([H])C([H])([H])[H]


 54 54  0  0  0  0  0  0  0  0999 V2000
  -18.0640   11.9969  -20.4765 C   0  0  0  0  0  0  0  0  0  0  0  0
  -16.8789   11.4491  -21.1770 C   0  0  0  0  0  0  0  0  0  0  0  0
  -16.2581   10.4925  -20.5784 O   0  0  0  0  0  0  0  0  0  0  0  0
  -16.3485   11.8349  -22.4028 N   0  0  0  0  0  0  0  0  0  0  0  0
  -16.0223   13.1538  -22.8927 C   0  0  0  0  0  0  0  0  0  0  0  0
  -16.8068   13.4123  -24.1273 C   0  0  0  0  0  0  0  0  0  0  0  0
  -16.6376   12.5319  -25.0445 O   0  0  0  0  0  0  0  0  0  0  0  0
  -17.6705   14.4673  -24.3790 N   0  0  0  0  0  0  0  0  0  0  0  0
  -17.4373   15.8875  -24.1367 C   0  0  0  0  0  0  0  0  0  0  0  0
  -18.7265   16.5964  -24.0538 C   0  0  0  0  0  0  0  0  0  0  0  0
  -19.6436   16.1362  -24.8349 O   0  0  0  0  0  0  0  0  0  0  0  0
  -19.0660   17.6943  -23.2374 N   0  0  0  0  0  0  0  0  0  0  0  0
  -19.0158   17.7888  -21.8042 C   0  0  0  0  0  0  0  0  0  0  0  0
  -20.4323   17.8584  -21.3028 C   0  0  0  0  0  0  0  0  0  0  0  0
  -21.1605   18.6920  -21.9515 O   0  0  0  0  0  0  0  0  0  0  0  0
  -20.9751   17.1278  -20.2528 N   0  0  0  0  0  0  0  0  0  0  0  0
  -20.4499   16.8432  -18.9532 C   0  0  0  0  0  0  0  0  0  0  0  0
  -20.8535   15.4423  -18.6107 C   0  0  0  0  0  0  0  0  0  0  0  0
  -22.1131   15.2328  -18.7201 O   0  0  0  0  0  0  0  0  0  0  0  0
  -19.9874   14.4160  -18.2039 N   0  0  0  0  0  0  0  0  0  0  0  0
  -18.5531   14.4302  -18.1576 C   0  0  0  0  0  0  0  0  0  0  0  0
  -17.8815   14.3470  -19.4678 C   0  0  0  0  0  0  0  0  0  0  0  0
  -16.9420   15.2061  -19.6865 O   0  0  0  0  0  0  0  0  0  0  0  0
  -18.1477   13.4402  -20.5059 N   0  0  0  0  0  0  0  0  0  0  0  0
  -16.1390   11.0665  -23.1178 H   0  0  0  0  0  0  0  0  0  0  0  0
  -18.6261   14.2499  -24.8016 H   0  0  0  0  0  0  0  0  0  0  0  0
  -19.4230   18.5512  -23.7506 H   0  0  0  0  0  0  0  0  0  0  0  0
  -21.9497   16.7105  -20.4386 H   0  0  0  0  0  0  0  0  0  0  0  0
  -20.4526   13.5120  -17.8894 H   0  0  0  0  0  0  0  0  0  0  0  0
  -18.4530   13.8370  -21.4490 H   0  0  0  0  0  0  0  0  0  0  0  0
  -19.3471   11.3222  -20.9328 C   0  0  0  0  0  0  0  0  0  0  0  0
  -20.5483   12.1938  -20.9174 C   0  0  0  0  0  0  0  0  0  0  0  0
  -19.0838    9.2630  -22.3134 C   0  0  0  0  0  0  0  0  0  0  0  0
  -19.1081   10.7734  -22.3271 C   0  0  0  0  0  0  0  0  0  0  0  0
  -14.5332   13.2077  -23.1576 C   0  0  0  0  0  0  0  0  0  0  0  0
  -13.6948   12.4743  -22.1694 C   0  0  0  0  0  0  0  0  0  0  0  0
  -14.1274   14.6520  -23.3002 C   0  0  0  0  0  0  0  0  0  0  0  0
  -13.6058   14.9550  -24.6905 C   0  0  0  0  0  0  0  0  0  0  0  0
  -16.6172   16.3399  -25.3317 C   0  0  0  0  0  0  0  0  0  0  0  0
  -16.5535   17.8196  -25.5083 C   0  0  0  0  0  0  0  0  0  0  0  0
  -17.0819   15.7302  -26.6332 C   0  0  0  0  0  0  0  0  0  0  0  0
  -15.8147   15.5194  -27.4744 C   0  0  0  0  0  0  0  0  0  0  0  0
  -18.2214   18.8580  -21.1900 C   0  0  0  0  0  0  0  0  0  0  0  0
  -16.7072   18.5612  -21.3287 C   0  0  0  0  0  0  0  0  0  0  0  0
  -18.4844   20.2734  -21.5388 C   0  0  0  0  0  0  0  0  0  0  0  0
  -18.8570   20.5661  -22.9627 C   0  0  0  0  0  0  0  0  0  0  0  0
  -21.0479   17.7974  -17.9040 C   0  0  0  0  0  0  0  0  0  0  0  0
  -20.0272   18.7807  -17.3857 C   0  0  0  0  0  0  0  0  0  0  0  0
  -22.2023   18.5763  -18.4408 C   0  0  0  0  0  0  0  0  0  0  0  0
  -23.3884   18.3728  -17.5226 C   0  0  0  0  0  0  0  0  0  0  0  0
  -18.0150   13.4295  -17.1385 C   0  0  0  0  0  0  0  0  0  0  0  0
  -18.9363   13.4163  -15.9627 C   0  0  0  0  0  0  0  0  0  0  0  0
  -18.1492   12.0458  -17.7990 C   0  0  0  0  0  0  0  0  0  0  0  0
  -19.2337   11.2189  -17.1479 C   0  0  0  0  0  0  0  0  0  0  0  0
 33 34  1  0  0  0
 34 31  1  0  0  0
 31 32  1  0  0  0
 31  1  1  0  0  0
  1  2  1  0  0  0
  2  3  2  0  0  0
  2  4  1  0  0  0
  4  5  1  0  0  0
  5 35  1  0  0  0
 35 36  1  0  0  0
 35 37  1  0  0  0
 37 38  1  0  0  0
  5  6  1  0  0  0
  6  7  2  0  0  0
  6  8  1  0  0  0
  8  9  1  0  0  0
  9 39  1  0  0  0
 39 40  1  0  0  0
 39 41  1  0  0  0
 41 42  1  0  0  0
  9 10  1  0  0  0
 10 11  2  0  0  0
 10 12  1  0  0  0
 12 13  1  0  0  0
 13 43  1  0  0  0
 43 44  1  0  0  0
 43 45  1  0  0  0
 45 46  1  0  0  0
 13 14  1  0  0  0
 14 15  2  0  0  0
 14 16  1  0  0  0
 16 17  1  0  0  0
 17 47  1  0  0  0
 47 48  1  0  0  0
 47 49  1  0  0  0
 49 50  1  0  0  0
 17 18  1  0  0  0
 18 19  2  0  0  0
 18 20  1  0  0  0
 20 21  1  0  0  0
 21 51  1  0  0  0
 51 52  1  0  0  0
 51 53  1  0  0  0
 53 54  1  0  0  0
 21 22  1  0  0  0
 22 23  2  0  0  0
 22 24  1  0  0  0
 24  1  1  0  0  0
  4 25  1  0  0  0
  8 26  1  0  0  0
 12 27  1  0  0  0
 16 28  1  0  0  0
 20 29  1  0  0  0
 24 30  1  0  0  0
M  END
> <minimizedAffinity>
3.67798

> <CNNscore>
0.4011135995

> <CNNaffinity>
7.3851766586

> <CNN_VS>
2.9622948170

> <CNNaffinity_variance>
0.8916554451

$$$$
[H]N1C(=O)[C@]([H])([C@@]([H])(C([H])([H])[H])C([H])([H])C([H])([H])[H])N([H])C(=O)[C@]([H])([C@]([H])(C([H])([H])[H])C([H])([H])C([H])([H])[H])N([H])C(=O)[C@]([H])([C@]([H])(C([H])([H])[H])C([H])([H])C([H])([H])[H])N([H])C(=O)[C@]([H])([C@@]([H])(C([H])([H])[H])C([H])([H])C([H])([H])[H])N([H])C(=O)[C@]([H])([C@@]([H])(C([H])([H])[H])C([H])([H])C([H])([H])[H])N([H])C(=O)[C@]1([H])[C@@]([H])(C([H])([H])[H])C([H])([H])C([H])([H])[H]


 54 54  0  0  0  0  0  0  0  0999 V2000
  -19.1478   13.8654  -19.4863 C   0  0  0  0  0  0  0  0  0  0  0  0
  -18.3503   14.8824  -20.2107 C   0  0  0  0  0  0  0  0  0  0  0  0
  -17.2274   14.4812  -20.6978 O   0  0  0  0  0  0  0  0  0  0  0  0
  -18.6587   16.2193  -20.4349 N   0  0  0  0  0  0  0  0  0  0  0  0
  -19.0976   17.2332  -19.5047 C   0  0  0  0  0  0  0  0  0  0  0  0
  -20.4177   17.7495  -19.9485 C   0  0  0  0  0  0  0  0  0  0  0  0
  -20.4224   18.2011  -21.1490 O   0  0  0  0  0  0  0  0  0  0  0  0
  -21.6000   17.7904  -19.2254 N   0  0  0  0  0  0  0  0  0  0  0  0
  -21.7913   18.2563  -17.8555 C   0  0  0  0  0  0  0  0  0  0  0  0
  -23.0298   17.6802  -17.3025 C   0  0  0  0  0  0  0  0  0  0  0  0
  -23.9838   17.5361  -18.1581 O   0  0  0  0  0  0  0  0  0  0  0  0
  -23.2865   17.2770  -15.9764 N   0  0  0  0  0  0  0  0  0  0  0  0
  -22.5802   16.3055  -15.1874 C   0  0  0  0  0  0  0  0  0  0  0  0
  -23.4930   15.1255  -14.9939 C   0  0  0  0  0  0  0  0  0  0  0  0
  -24.6832   15.4555  -14.6469 O   0  0  0  0  0  0  0  0  0  0  0  0
  -23.1596   13.7863  -15.1562 N   0  0  0  0  0  0  0  0  0  0  0  0
  -22.0061   13.0597  -14.7238 C   0  0  0  0  0  0  0  0  0  0  0  0
  -21.6725   12.0772  -15.8036 C   0  0  0  0  0  0  0  0  0  0  0  0
  -22.6604   11.3330  -16.1395 O   0  0  0  0  0  0  0  0  0  0  0  0
  -20.4227   11.9357  -16.4256 N   0  0  0  0  0  0  0  0  0  0  0  0
  -19.2577   12.7603  -16.2762 C   0  0  0  0  0  0  0  0  0  0  0  0
  -19.3306   14.0763  -16.9376 C   0  0  0  0  0  0  0  0  0  0  0  0
  -18.9858   15.0967  -16.2244 O   0  0  0  0  0  0  0  0  0  0  0  0
  -19.7333   14.3470  -18.2549 N   0  0  0  0  0  0  0  0  0  0  0  0
  -18.5716   16.5885  -21.4358 H   0  0  0  0  0  0  0  0  0  0  0  0
  -22.4947   17.4504  -19.6976 H   0  0  0  0  0  0  0  0  0  0  0  0
  -24.1219   17.7381  -15.5130 H   0  0  0  0  0  0  0  0  0  0  0  0
  -23.8842   13.1934  -15.6872 H   0  0  0  0  0  0  0  0  0  0  0  0
  -20.3256   11.1124  -17.0930 H   0  0  0  0  0  0  0  0  0  0  0  0
  -20.5763   14.9867  -18.3975 H   0  0  0  0  0  0  0  0  0  0  0  0
  -20.1612   13.1933  -20.3979 C   0  0  0  0  0  0  0  0  0  0  0  0
  -21.3713   14.0025  -20.6873 C   0  0  0  0  0  0  0  0  0  0  0  0
  -18.5590   11.6215  -21.4833 C   0  0  0  0  0  0  0  0  0  0  0  0
  -19.4489   12.8253  -21.6861 C   0  0  0  0  0  0  0  0  0  0  0  0
  -18.0544   18.3291  -19.4691 C   0  0  0  0  0  0  0  0  0  0  0  0
  -18.5842   19.6881  -19.1689 C   0  0  0  0  0  0  0  0  0  0  0  0
  -17.2742   18.2852  -20.7577 C   0  0  0  0  0  0  0  0  0  0  0  0
  -15.8239   17.9124  -20.5245 C   0  0  0  0  0  0  0  0  0  0  0  0
  -21.8763   19.7667  -17.9837 C   0  0  0  0  0  0  0  0  0  0  0  0
  -22.0035   20.4873  -16.6840 C   0  0  0  0  0  0  0  0  0  0  0  0
  -22.9991   20.2217  -18.8859 C   0  0  0  0  0  0  0  0  0  0  0  0
  -22.3648   21.2000  -19.8852 C   0  0  0  0  0  0  0  0  0  0  0  0
  -22.0185   16.7123  -13.8949 C   0  0  0  0  0  0  0  0  0  0  0  0
  -21.2152   18.0292  -14.0393 C   0  0  0  0  0  0  0  0  0  0  0  0
  -22.8876   16.7890  -12.6979 C   0  0  0  0  0  0  0  0  0  0  0  0
  -22.9875   18.1205  -12.0128 C   0  0  0  0  0  0  0  0  0  0  0  0
  -22.3059   12.2838  -13.4288 C   0  0  0  0  0  0  0  0  0  0  0  0
  -21.1102   11.4973  -12.9502 C   0  0  0  0  0  0  0  0  0  0  0  0
  -22.7369   13.1825  -12.3180 C   0  0  0  0  0  0  0  0  0  0  0  0
  -22.4191   12.5064  -11.0015 C   0  0  0  0  0  0  0  0  0  0  0  0
  -17.9804   11.9908  -16.6018 C   0  0  0  0  0  0  0  0  0  0  0  0
  -18.3460   10.5674  -16.8700 C   0  0  0  0  0  0  0  0  0  0  0  0
  -17.4783   12.5600  -17.9407 C   0  0  0  0  0  0  0  0  0  0  0  0
  -16.6517   11.5497  -18.7023 C   0  0  0  0  0  0  0  0  0  0  0  0
 33 34  1  0  0  0
 34 31  1  0  0  0
 31 32  1  0  0  0
 31  1  1  0  0  0
  1  2  1  0  0  0
  2  3  2  0  0  0
  2  4  1  0  0  0
  4  5  1  0  0  0
  5 35  1  0  0  0
 35 36  1  0  0  0
 35 37  1  0  0  0
 37 38  1  0  0  0
  5  6  1  0  0  0
  6  7  2  0  0  0
  6  8  1  0  0  0
  8  9  1  0  0  0
  9 39  1  0  0  0
 39 40  1  0  0  0
 39 41  1  0  0  0
 41 42  1  0  0  0
  9 10  1  0  0  0
 10 11  2  0  0  0
 10 12  1  0  0  0
 12 13  1  0  0  0
 13 43  1  0  0  0
 43 44  1  0  0  0
 43 45  1  0  0  0
 45 46  1  0  0  0
 13 14  1  0  0  0
 14 15  2  0  0  0
 14 16  1  0  0  0
 16 17  1  0  0  0
 17 47  1  0  0  0
 47 48  1  0  0  0
 47 49  1  0  0  0
 49 50  1  0  0  0
 17 18  1  0  0  0
 18 19  2  0  0  0
 18 20  1  0  0  0
 20 21  1  0  0  0
 21 51  1  0  0  0
 51 52  1  0  0  0
 51 53  1  0  0  0
 53 54  1  0  0  0
 21 22  1  0  0  0
 22 23  2  0  0  0
 22 24  1  0  0  0
 24  1  1  0  0  0
  4 25  1  0  0  0
  8 26  1  0  0  0
 12 27  1  0  0  0
 16 28  1  0  0  0
 20 29  1  0  0  0
 24 30  1  0  0  0
M  END
> <minimizedAffinity>
-0.59073

> <CNNscore>
0.4005477726

> <CNNaffinity>
7.0780038834

> <CNN_VS>
2.8350787163

> <CNNaffinity_variance>
2.7346014977

$$$$
[H]N1C(=O)[C@]([H])([C@@]([H])(C([H])([H])[H])C([H])([H])C([H])([H])[H])N([H])C(=O)[C@]([H])([C@]([H])(C([H])([H])[H])C([H])([H])C([H])([H])[H])N([H])C(=O)[C@]([H])([C@]([H])(C([H])([H])[H])C([H])([H])C([H])([H])[H])N([H])C(=O)[C@]([H])([C@@]([H])(C([H])([H])[H])C([H])([H])C([H])([H])[H])N([H])C(=O)[C@]([H])([C@@]([H])(C([H])([H])[H])C([H])([H])C([H])([H])[H])N([H])C(=O)[C@]1([H])[C@@]([H])(C([H])([H])[H])C([H])([H])C([H])([H])[H]


 54 54  0  0  0  0  0  0  0  0999 V2000
  -18.2976   14.2277  -20.2852 C   0  0  0  0  0  0  0  0  0  0  0  0
  -17.3322   14.9922  -21.1090 C   0  0  0  0  0  0  0  0  0  0  0  0
  -16.1453   14.4996  -21.1954 O   0  0  0  0  0  0  0  0  0  0  0  0
  -17.5427   16.1771  -21.8049 N   0  0  0  0  0  0  0  0  0  0  0  0
  -18.1356   17.4162  -21.3587 C   0  0  0  0  0  0  0  0  0  0  0  0
  -19.3143   17.7162  -22.2111 C   0  0  0  0  0  0  0  0  0  0  0  0
  -19.0501   17.7644  -23.4653 O   0  0  0  0  0  0  0  0  0  0  0  0
  -20.6210   17.9398  -21.8049 N   0  0  0  0  0  0  0  0  0  0  0  0
  -21.0829   18.8076  -20.7261 C   0  0  0  0  0  0  0  0  0  0  0  0
  -22.4283   18.3905  -20.2935 C   0  0  0  0  0  0  0  0  0  0  0  0
  -23.1837   17.9478  -21.2403 O   0  0  0  0  0  0  0  0  0  0  0  0
  -22.9730   18.4181  -18.9936 N   0  0  0  0  0  0  0  0  0  0  0  0
  -22.4816   17.7730  -17.8072 C   0  0  0  0  0  0  0  0  0  0  0  0
  -23.4524   16.6817  -17.4471 C   0  0  0  0  0  0  0  0  0  0  0  0
  -24.6778   17.0601  -17.4818 O   0  0  0  0  0  0  0  0  0  0  0  0
  -23.1359   15.3733  -17.1025 N   0  0  0  0  0  0  0  0  0  0  0  0
  -22.1241   14.8642  -16.2290 C   0  0  0  0  0  0  0  0  0  0  0  0
  -21.6015   13.6037  -16.8459 C   0  0  0  0  0  0  0  0  0  0  0  0
  -22.5194   12.7553  -17.1292 O   0  0  0  0  0  0  0  0  0  0  0  0
  -20.2535   13.3193  -17.1125 N   0  0  0  0  0  0  0  0  0  0  0  0
  -19.1205   14.1915  -16.9899 C   0  0  0  0  0  0  0  0  0  0  0  0
  -19.0091   15.2270  -18.0338 C   0  0  0  0  0  0  0  0  0  0  0  0
  -18.7902   16.4327  -17.6248 O   0  0  0  0  0  0  0  0  0  0  0  0
  -19.1147   15.0520  -19.4226 N   0  0  0  0  0  0  0  0  0  0  0  0
  -17.2337   16.2138  -22.8291 H   0  0  0  0  0  0  0  0  0  0  0  0
  -21.4059   17.4349  -22.3226 H   0  0  0  0  0  0  0  0  0  0  0  0
  -23.8722   18.9707  -18.8875 H   0  0  0  0  0  0  0  0  0  0  0  0
  -23.7504   14.6164  -17.5585 H   0  0  0  0  0  0  0  0  0  0  0  0
  -20.0440   12.3314  -17.4483 H   0  0  0  0  0  0  0  0  0  0  0  0
  -19.8872   15.5819  -19.9351 H   0  0  0  0  0  0  0  0  0  0  0  0
  -19.1162   13.2646  -21.1291 C   0  0  0  0  0  0  0  0  0  0  0  0
  -20.3270   13.8562  -21.7509 C   0  0  0  0  0  0  0  0  0  0  0  0
  -17.5675   11.4031  -21.7221 C   0  0  0  0  0  0  0  0  0  0  0  0
  -18.1994   12.6916  -22.1937 C   0  0  0  0  0  0  0  0  0  0  0  0
  -17.0886   18.5051  -21.4529 C   0  0  0  0  0  0  0  0  0  0  0  0
  -15.7562   18.1422  -20.8956 C   0  0  0  0  0  0  0  0  0  0  0  0
  -17.6505   19.7598  -20.8356 C   0  0  0  0  0  0  0  0  0  0  0  0
  -18.0748   19.5380  -19.3978 C   0  0  0  0  0  0  0  0  0  0  0  0
  -21.0898   20.1957  -21.3411 C   0  0  0  0  0  0  0  0  0  0  0  0
  -21.9333   21.1864  -20.6120 C   0  0  0  0  0  0  0  0  0  0  0  0
  -21.5095   20.1978  -22.7922 C   0  0  0  0  0  0  0  0  0  0  0  0
  -22.7438   21.1077  -22.8710 C   0  0  0  0  0  0  0  0  0  0  0  0
  -22.1935   18.5883  -16.6224 C   0  0  0  0  0  0  0  0  0  0  0  0
  -23.3406   18.4716  -15.5876 C   0  0  0  0  0  0  0  0  0  0  0  0
  -20.8882   18.4631  -15.9336 C   0  0  0  0  0  0  0  0  0  0  0  0
  -20.9181   18.2931  -14.4429 C   0  0  0  0  0  0  0  0  0  0  0  0
  -22.7164   14.5272  -14.8490 C   0  0  0  0  0  0  0  0  0  0  0  0
  -21.9552   13.4205  -14.1610 C   0  0  0  0  0  0  0  0  0  0  0  0
  -22.7316   15.7080  -13.9364 C   0  0  0  0  0  0  0  0  0  0  0  0
  -24.0570   15.7341  -13.2057 C   0  0  0  0  0  0  0  0  0  0  0  0
  -17.8288   13.4064  -16.7777 C   0  0  0  0  0  0  0  0  0  0  0  0
  -18.1681   12.1204  -16.0974 C   0  0  0  0  0  0  0  0  0  0  0  0
  -17.3343   13.0254  -18.1844 C   0  0  0  0  0  0  0  0  0  0  0  0
  -17.2892   11.5268  -18.3738 C   0  0  0  0  0  0  0  0  0  0  0  0
 33 34  1  0  0  0
 34 31  1  0  0  0
 31 32  1  0  0  0
 31  1  1  0  0  0
  1  2  1  0  0  0
  2  3  2  0  0  0
  2  4  1  0  0  0
  4  5  1  0  0  0
  5 35  1  0  0  0
 35 36  1  0  0  0
 35 37  1  0  0  0
 37 38  1  0  0  0
  5  6  1  0  0  0
  6  7  2  0  0  0
  6  8  1  0  0  0
  8  9  1  0  0  0
  9 39  1  0  0  0
 39 40  1  0  0  0
 39 41  1  0  0  0
 41 42  1  0  0  0
  9 10  1  0  0  0
 10 11  2  0  0  0
 10 12  1  0  0  0
 12 13  1  0  0  0
 13 43  1  0  0  0
 43 44  1  0  0  0
 43 45  1  0  0  0
 45 46  1  0  0  0
 13 14  1  0  0  0
 14 15  2  0  0  0
 14 16  1  0  0  0
 16 17  1  0  0  0
 17 47  1  0  0  0
 47 48  1  0  0  0
 47 49  1  0  0  0
 49 50  1  0  0  0
 17 18  1  0  0  0
 18 19  2  0  0  0
 18 20  1  0  0  0
 20 21  1  0  0  0
 21 51  1  0  0  0
 51 52  1  0  0  0
 51 53  1  0  0  0
 53 54  1  0  0  0
 21 22  1  0  0  0
 22 23  2  0  0  0
 22 24  1  0  0  0
 24  1  1  0  0  0
  4 25  1  0  0  0
  8 26  1  0  0  0
 12 27  1  0  0  0
 16 28  1  0  0  0
 20 29  1  0  0  0
 24 30  1  0  0  0
M  END
> <minimizedAffinity>
3.04575

> <CNNscore>
0.4004347920

> <CNNaffinity>
7.0584373474

> <CNN_VS>
2.8264439106

> <CNNaffinity_variance>
3.3423728943

$$$$
[H]N1C(=O)[C@]([H])([C@@]([H])(C([H])([H])[H])C([H])([H])C([H])([H])[H])N([H])C(=O)[C@]([H])([C@]([H])(C([H])([H])[H])C([H])([H])C([H])([H])[H])N([H])C(=O)[C@]([H])([C@]([H])(C([H])([H])[H])C([H])([H])C([H])([H])[H])N([H])C(=O)[C@]([H])([C@@]([H])(C([H])([H])[H])C([H])([H])C([H])([H])[H])N([H])C(=O)[C@]([H])([C@@]([H])(C([H])([H])[H])C([H])([H])C([H])([H])[H])N([H])C(=O)[C@]1([H])[C@@]([H])(C([H])([H])[H])C([H])([H])C([H])([H])[H]


 54 54  0  0  0  0  0  0  0  0999 V2000
  -20.6815   14.9590  -17.6842 C   0  0  0  0  0  0  0  0  0  0  0  0
  -20.2052   16.3593  -17.5976 C   0  0  0  0  0  0  0  0  0  0  0  0
  -19.3434   16.7211  -18.4838 O   0  0  0  0  0  0  0  0  0  0  0  0
  -20.5704   17.3380  -16.6803 N   0  0  0  0  0  0  0  0  0  0  0  0
  -20.6309   17.2747  -15.2387 C   0  0  0  0  0  0  0  0  0  0  0  0
  -22.0199   17.5730  -14.8053 C   0  0  0  0  0  0  0  0  0  0  0  0
  -22.4668   18.6976  -15.2301 O   0  0  0  0  0  0  0  0  0  0  0  0
  -22.8507   16.7892  -14.0192 N   0  0  0  0  0  0  0  0  0  0  0  0
  -22.5203   16.1199  -12.7650 C   0  0  0  0  0  0  0  0  0  0  0  0
  -23.4683   15.0177  -12.5246 C   0  0  0  0  0  0  0  0  0  0  0  0
  -24.6716   15.2465  -12.9280 O   0  0  0  0  0  0  0  0  0  0  0  0
  -23.2176   13.7697  -11.9187 N   0  0  0  0  0  0  0  0  0  0  0  0
  -22.2726   12.7612  -12.3126 C   0  0  0  0  0  0  0  0  0  0  0  0
  -23.0530   11.5813  -12.8245 C   0  0  0  0  0  0  0  0  0  0  0  0
  -24.0293   11.2485  -12.0617 O   0  0  0  0  0  0  0  0  0  0  0  0
  -22.8075   10.8713  -13.9935 N   0  0  0  0  0  0  0  0  0  0  0  0
  -21.5782   10.3930  -14.5461 C   0  0  0  0  0  0  0  0  0  0  0  0
  -21.6708   10.5514  -16.0324 C   0  0  0  0  0  0  0  0  0  0  0  0
  -22.7152   10.0087  -16.5395 O   0  0  0  0  0  0  0  0  0  0  0  0
  -20.7401   11.2160  -16.8454 N   0  0  0  0  0  0  0  0  0  0  0  0
  -19.5998   11.9884  -16.4420 C   0  0  0  0  0  0  0  0  0  0  0  0
  -19.9080   13.3146  -15.8755 C   0  0  0  0  0  0  0  0  0  0  0  0
  -19.3206   13.6146  -14.7648 O   0  0  0  0  0  0  0  0  0  0  0  0
  -20.7685   14.2888  -16.4058 N   0  0  0  0  0  0  0  0  0  0  0  0
  -20.8585   18.2952  -17.0630 H   0  0  0  0  0  0  0  0  0  0  0  0
  -23.8577   16.6393  -14.3395 H   0  0  0  0  0  0  0  0  0  0  0  0
  -23.8209   13.5423  -11.0764 H   0  0  0  0  0  0  0  0  0  0  0  0
  -23.6790   10.6354  -14.5795 H   0  0  0  0  0  0  0  0  0  0  0  0
  -20.8994   11.1377  -17.8948 H   0  0  0  0  0  0  0  0  0  0  0  0
  -21.6024   14.5940  -15.8129 H   0  0  0  0  0  0  0  0  0  0  0  0
  -21.9623   14.8511  -18.4951 C   0  0  0  0  0  0  0  0  0  0  0  0
  -22.9505   15.9299  -18.2447 C   0  0  0  0  0  0  0  0  0  0  0  0
  -22.0162   16.0786  -20.6645 C   0  0  0  0  0  0  0  0  0  0  0  0
  -21.5769   14.8152  -19.9622 C   0  0  0  0  0  0  0  0  0  0  0  0
  -19.6450   18.2763  -14.6772 C   0  0  0  0  0  0  0  0  0  0  0  0
  -19.5790   18.3234  -13.1903 C   0  0  0  0  0  0  0  0  0  0  0  0
  -19.9374   19.6238  -15.2853 C   0  0  0  0  0  0  0  0  0  0  0  0
  -19.2920   19.7779  -16.6477 C   0  0  0  0  0  0  0  0  0  0  0  0
  -22.6419   17.2114  -11.7167 C   0  0  0  0  0  0  0  0  0  0  0  0
  -22.8194   16.7082  -10.3238 C   0  0  0  0  0  0  0  0  0  0  0  0
  -23.7541   18.1909  -12.0085 C   0  0  0  0  0  0  0  0  0  0  0  0
  -23.5289   19.3770  -11.0597 C   0  0  0  0  0  0  0  0  0  0  0  0
  -21.2715   12.3074  -11.3415 C   0  0  0  0  0  0  0  0  0  0  0  0
  -21.6814   12.7152   -9.9042 C   0  0  0  0  0  0  0  0  0  0  0  0
  -20.8159   10.8979  -11.3474 C   0  0  0  0  0  0  0  0  0  0  0  0
  -19.4652   10.6211  -11.9399 C   0  0  0  0  0  0  0  0  0  0  0  0
  -21.3802    8.9014  -14.2223 C   0  0  0  0  0  0  0  0  0  0  0  0
  -22.6406    8.1016  -14.4441 C   0  0  0  0  0  0  0  0  0  0  0  0
  -20.2963    8.2838  -15.0416 C   0  0  0  0  0  0  0  0  0  0  0  0
  -19.6110    7.2209  -14.2098 C   0  0  0  0  0  0  0  0  0  0  0  0
  -18.5360   12.0312  -17.5357 C   0  0  0  0  0  0  0  0  0  0  0  0
  -19.2102   11.8311  -18.8536 C   0  0  0  0  0  0  0  0  0  0  0  0
  -18.0036   13.4752  -17.5457 C   0  0  0  0  0  0  0  0  0  0  0  0
  -17.6587   13.9337  -18.9438 C   0  0  0  0  0  0  0  0  0  0  0  0
 33 34  1  0  0  0
 34 31  1  0  0  0
 31 32  1  0  0  0
 31  1  1  0  0  0
  1  2  1  0  0  0
  2  3  2  0  0  0
  2  4  1  0  0  0
  4  5  1  0  0  0
  5 35  1  0  0  0
 35 36  1  0  0  0
 35 37  1  0  0  0
 37 38  1  0  0  0
  5  6  1  0  0  0
  6  7  2  0  0  0
  6  8  1  0  0  0
  8  9  1  0  0  0
  9 39  1  0  0  0
 39 40  1  0  0  0
 39 41  1  0  0  0
 41 42  1  0  0  0
  9 10  1  0  0  0
 10 11  2  0  0  0
 10 12  1  0  0  0
 12 13  1  0  0  0
 13 43  1  0  0  0
 43 44  1  0  0  0
 43 45  1  0  0  0
 45 46  1  0  0  0
 13 14  1  0  0  0
 14 15  2  0  0  0
 14 16  1  0  0  0
 16 17  1  0  0  0
 17 47  1  0  0  0
 47 48  1  0  0  0
 47 49  1  0  0  0
 49 50  1  0  0  0
 17 18  1  0  0  0
 18 19  2  0  0  0
 18 20  1  0  0  0
 20 21  1  0  0  0
 21 51  1  0  0  0
 51 52  1  0  0  0
 51 53  1  0  0  0
 53 54  1  0  0  0
 21 22  1  0  0  0
 22 23  2  0  0  0
 22 24  1  0  0  0
 24  1  1  0  0  0
  4 25  1  0  0  0
  8 26  1  0  0  0
 12 27  1  0  0  0
 16 28  1  0  0  0
 20 29  1  0  0  0
 24 30  1  0  0  0
M  END
> <minimizedAffinity>
-0.83712

> <CNNscore>
0.3998004198

> <CNNaffinity>
6.9095230103

> <CNN_VS>
2.7624301910

> <CNNaffinity_variance>
1.8401088715

$$$$
[H]N1C(=O)[C@]([H])([C@@]([H])(C([H])([H])[H])C([H])([H])C([H])([H])[H])N([H])C(=O)[C@]([H])([C@]([H])(C([H])([H])[H])C([H])([H])C([H])([H])[H])N([H])C(=O)[C@]([H])([C@]([H])(C([H])([H])[H])C([H])([H])C([H])([H])[H])N([H])C(=O)[C@]([H])([C@@]([H])(C([H])([H])[H])C([H])([H])C([H])([H])[H])N([H])C(=O)[C@]([H])([C@@]([H])(C([H])([H])[H])C([H])([H])C([H])([H])[H])N([H])C(=O)[C@]1([H])[C@@]([H])(C([H])([H])[H])C([H])([H])C([H])([H])[H]


 54 54  0  0  0  0  0  0  0  0999 V2000
  -19.8114   18.9980  -19.9600 C   0  0  0  0  0  0  0  0  0  0  0  0
  -20.0642   20.0724  -18.9717 C   0  0  0  0  0  0  0  0  0  0  0  0
  -19.4937   21.2034  -19.2050 O   0  0  0  0  0  0  0  0  0  0  0  0
  -20.8416   20.0181  -17.8205 N   0  0  0  0  0  0  0  0  0  0  0  0
  -20.8447   19.0436  -16.7545 C   0  0  0  0  0  0  0  0  0  0  0  0
  -22.2005   18.4446  -16.6587 C   0  0  0  0  0  0  0  0  0  0  0  0
  -23.1379   19.3040  -16.4918 O   0  0  0  0  0  0  0  0  0  0  0  0
  -22.5427   17.1028  -16.7296 N   0  0  0  0  0  0  0  0  0  0  0  0
  -21.9147   15.9848  -16.0327 C   0  0  0  0  0  0  0  0  0  0  0  0
  -22.2143   14.7268  -16.7391 C   0  0  0  0  0  0  0  0  0  0  0  0
  -23.3852   14.6787  -17.2773 O   0  0  0  0  0  0  0  0  0  0  0  0
  -21.3875   13.5953  -16.8918 N   0  0  0  0  0  0  0  0  0  0  0  0
  -20.0800   13.5198  -17.4835 C   0  0  0  0  0  0  0  0  0  0  0  0
  -20.2056   12.7471  -18.7680 C   0  0  0  0  0  0  0  0  0  0  0  0
  -20.8921   11.6700  -18.6479 O   0  0  0  0  0  0  0  0  0  0  0  0
  -19.6655   13.0964  -19.9998 N   0  0  0  0  0  0  0  0  0  0  0  0
  -18.3650   13.5881  -20.3354 C   0  0  0  0  0  0  0  0  0  0  0  0
  -18.5425   14.5969  -21.4278 C   0  0  0  0  0  0  0  0  0  0  0  0
  -19.2053   14.1522  -22.4305 O   0  0  0  0  0  0  0  0  0  0  0  0
  -18.0559   15.9129  -21.4152 N   0  0  0  0  0  0  0  0  0  0  0  0
  -17.4205   16.6148  -20.3366 C   0  0  0  0  0  0  0  0  0  0  0  0
  -18.3194   17.0386  -19.2471 C   0  0  0  0  0  0  0  0  0  0  0  0
  -17.9328   16.7648  -18.0453 O   0  0  0  0  0  0  0  0  0  0  0  0
  -19.5489   17.7054  -19.3672 N   0  0  0  0  0  0  0  0  0  0  0  0
  -21.5587   20.7979  -17.6677 H   0  0  0  0  0  0  0  0  0  0  0  0
  -23.3586   16.8206  -17.3570 H   0  0  0  0  0  0  0  0  0  0  0  0
  -21.7962   12.6812  -16.5418 H   0  0  0  0  0  0  0  0  0  0  0  0
  -20.3249   12.9749  -20.8418 H   0  0  0  0  0  0  0  0  0  0  0  0
  -18.1723   16.4608  -22.3201 H   0  0  0  0  0  0  0  0  0  0  0  0
  -20.4188   17.2215  -18.9811 H   0  0  0  0  0  0  0  0  0  0  0  0
  -20.8944   18.9493  -21.0252 C   0  0  0  0  0  0  0  0  0  0  0  0
  -22.2804   18.8681  -20.5006 C   0  0  0  0  0  0  0  0  0  0  0  0
  -22.0632   20.6172  -22.4632 C   0  0  0  0  0  0  0  0  0  0  0  0
  -20.7312   20.1752  -21.9043 C   0  0  0  0  0  0  0  0  0  0  0  0
  -20.4526   19.7424  -15.4706 C   0  0  0  0  0  0  0  0  0  0  0  0
  -19.9993   21.1510  -15.6378 C   0  0  0  0  0  0  0  0  0  0  0  0
  -19.4361   18.8896  -14.7561 C   0  0  0  0  0  0  0  0  0  0  0  0
  -19.9990   18.2920  -13.4822 C   0  0  0  0  0  0  0  0  0  0  0  0
  -22.5307   16.0168  -14.6453 C   0  0  0  0  0  0  0  0  0  0  0  0
  -22.5610   14.6944  -13.9561 C   0  0  0  0  0  0  0  0  0  0  0  0
  -23.9296   16.5866  -14.6321 C   0  0  0  0  0  0  0  0  0  0  0  0
  -24.0574   17.3552  -13.3089 C   0  0  0  0  0  0  0  0  0  0  0  0
  -18.9708   12.9809  -16.6894 C   0  0  0  0  0  0  0  0  0  0  0  0
  -19.5026   12.2805  -15.4140 C   0  0  0  0  0  0  0  0  0  0  0  0
  -17.9419   12.1302  -17.3312 C   0  0  0  0  0  0  0  0  0  0  0  0
  -18.2316   10.6604  -17.4198 C   0  0  0  0  0  0  0  0  0  0  0  0
  -17.4714   12.4493  -20.8585 C   0  0  0  0  0  0  0  0  0  0  0  0
  -18.2365   11.1589  -21.0226 C   0  0  0  0  0  0  0  0  0  0  0  0
  -16.8448   12.7801  -22.1720 C   0  0  0  0  0  0  0  0  0  0  0  0
  -15.7010   11.8188  -22.4149 C   0  0  0  0  0  0  0  0  0  0  0  0
  -16.5227   17.7374  -20.8498 C   0  0  0  0  0  0  0  0  0  0  0  0
  -15.1757   17.5846  -20.2220 C   0  0  0  0  0  0  0  0  0  0  0  0
  -16.3252   17.4626  -22.3512 C   0  0  0  0  0  0  0  0  0  0  0  0
  -17.4163   18.0959  -23.1832 C   0  0  0  0  0  0  0  0  0  0  0  0
 33 34  1  0  0  0
 34 31  1  0  0  0
 31 32  1  0  0  0
 31  1  1  0  0  0
  1  2  1  0  0  0
  2  3  2  0  0  0
  2  4  1  0  0  0
  4  5  1  0  0  0
  5 35  1  0  0  0
 35 36  1  0  0  0
 35 37  1  0  0  0
 37 38  1  0  0  0
  5  6  1  0  0  0
  6  7  2  0  0  0
  6  8  1  0  0  0
  8  9  1  0  0  0
  9 39  1  0  0  0
 39 40  1  0  0  0
 39 41  1  0  0  0
 41 42  1  0  0  0
  9 10  1  0  0  0
 10 11  2  0  0  0
 10 12  1  0  0  0
 12 13  1  0  0  0
 13 43  1  0  0  0
 43 44  1  0  0  0
 43 45  1  0  0  0
 45 46  1  0  0  0
 13 14  1  0  0  0
 14 15  2  0  0  0
 14 16  1  0  0  0
 16 17  1  0  0  0
 17 47  1  0  0  0
 47 48  1  0  0  0
 47 49  1  0  0  0
 49 50  1  0  0  0
 17 18  1  0  0  0
 18 19  2  0  0  0
 18 20  1  0  0  0
 20 21  1  0  0  0
 21 51  1  0  0  0
 51 52  1  0  0  0
 51 53  1  0  0  0
 53 54  1  0  0  0
 21 22  1  0  0  0
 22 23  2  0  0  0
 22 24  1  0  0  0
 24  1  1  0  0  0
  4 25  1  0  0  0
  8 26  1  0  0  0
 12 27  1  0  0  0
 16 28  1  0  0  0
 20 29  1  0  0  0
 24 30  1  0  0  0
M  END
> <minimizedAffinity>
-1.70523

> <CNNscore>
0.3993108273

> <CNNaffinity>
7.1495218277

> <CNN_VS>
2.8548815250

> <CNNaffinity_variance>
2.2446076870

$$$$
[H]N1C(=O)[C@]([H])([C@@]([H])(C([H])([H])[H])C([H])([H])C([H])([H])[H])N([H])C(=O)[C@]([H])([C@]([H])(C([H])([H])[H])C([H])([H])C([H])([H])[H])N([H])C(=O)[C@]([H])([C@]([H])(C([H])([H])[H])C([H])([H])C([H])([H])[H])N([H])C(=O)[C@]([H])([C@@]([H])(C([H])([H])[H])C([H])([H])C([H])([H])[H])N([H])C(=O)[C@]([H])([C@@]([H])(C([H])([H])[H])C([H])([H])C([H])([H])[H])N([H])C(=O)[C@]1([H])[C@@]([H])(C([H])([H])[H])C([H])([H])C([H])([H])[H]


 54 54  0  0  0  0  0  0  0  0999 V2000
  -19.6707   13.7427  -17.8281 C   0  0  0  0  0  0  0  0  0  0  0  0
  -20.7914   13.0718  -17.1289 C   0  0  0  0  0  0  0  0  0  0  0  0
  -21.0423   11.8614  -17.4906 O   0  0  0  0  0  0  0  0  0  0  0  0
  -21.6104   13.5814  -16.1278 N   0  0  0  0  0  0  0  0  0  0  0  0
  -22.3311   14.8318  -16.0729 C   0  0  0  0  0  0  0  0  0  0  0  0
  -21.8674   15.5990  -14.8886 C   0  0  0  0  0  0  0  0  0  0  0  0
  -21.9773   14.9618  -13.7808 O   0  0  0  0  0  0  0  0  0  0  0  0
  -21.3470   16.8838  -14.8598 N   0  0  0  0  0  0  0  0  0  0  0  0
  -21.8731   18.0736  -15.5215 C   0  0  0  0  0  0  0  0  0  0  0  0
  -20.8028   19.0758  -15.6676 C   0  0  0  0  0  0  0  0  0  0  0  0
  -19.9559   19.1028  -14.6955 O   0  0  0  0  0  0  0  0  0  0  0  0
  -20.6017   19.9878  -16.7236 N   0  0  0  0  0  0  0  0  0  0  0  0
  -20.4165   19.7071  -18.1209 C   0  0  0  0  0  0  0  0  0  0  0  0
  -18.9938   20.0499  -18.4693 C   0  0  0  0  0  0  0  0  0  0  0  0
  -18.6195   21.1892  -18.0134 O   0  0  0  0  0  0  0  0  0  0  0  0
  -18.1102   19.2677  -19.2031 N   0  0  0  0  0  0  0  0  0  0  0  0
  -18.3089   18.5339  -20.4146 C   0  0  0  0  0  0  0  0  0  0  0  0
  -17.5207   17.2660  -20.2975 C   0  0  0  0  0  0  0  0  0  0  0  0
  -16.2885   17.4566  -20.0007 O   0  0  0  0  0  0  0  0  0  0  0  0
  -18.0225   15.9688  -20.4824 N   0  0  0  0  0  0  0  0  0  0  0  0
  -19.3847   15.5633  -20.6815 C   0  0  0  0  0  0  0  0  0  0  0  0
  -20.2386   15.6191  -19.4805 C   0  0  0  0  0  0  0  0  0  0  0  0
  -21.3831   16.2024  -19.6170 O   0  0  0  0  0  0  0  0  0  0  0  0
  -19.9489   15.1110  -18.2044 N   0  0  0  0  0  0  0  0  0  0  0  0
  -21.7500   12.9866  -15.2489 H   0  0  0  0  0  0  0  0  0  0  0  0
  -20.4587   17.0580  -14.2945 H   0  0  0  0  0  0  0  0  0  0  0  0
  -20.5626   21.0098  -16.4425 H   0  0  0  0  0  0  0  0  0  0  0  0
  -17.1126   19.2037  -18.8041 H   0  0  0  0  0  0  0  0  0  0  0  0
  -17.3020   15.1856  -20.4742 H   0  0  0  0  0  0  0  0  0  0  0  0
  -19.9234   15.7983  -17.3875 H   0  0  0  0  0  0  0  0  0  0  0  0
  -18.3645   13.5947  -17.0654 C   0  0  0  0  0  0  0  0  0  0  0  0
  -18.5003   13.0199  -15.7038 C   0  0  0  0  0  0  0  0  0  0  0  0
  -17.9416   11.3265  -18.0099 C   0  0  0  0  0  0  0  0  0  0  0  0
  -17.4323   12.7451  -17.9091 C   0  0  0  0  0  0  0  0  0  0  0  0
  -23.8109   14.5244  -15.9928 C   0  0  0  0  0  0  0  0  0  0  0  0
  -24.6745   15.6887  -15.6525 C   0  0  0  0  0  0  0  0  0  0  0  0
  -24.0055   13.3656  -15.0492 C   0  0  0  0  0  0  0  0  0  0  0  0
  -24.6808   13.7956  -13.7624 C   0  0  0  0  0  0  0  0  0  0  0  0
  -22.9789   18.5550  -14.5992 C   0  0  0  0  0  0  0  0  0  0  0  0
  -23.4619   19.9363  -14.8881 C   0  0  0  0  0  0  0  0  0  0  0  0
  -22.6033   18.4837  -13.1378 C   0  0  0  0  0  0  0  0  0  0  0  0
  -22.7705   19.9089  -12.5913 C   0  0  0  0  0  0  0  0  0  0  0  0
  -21.3250   20.3204  -19.0954 C   0  0  0  0  0  0  0  0  0  0  0  0
  -21.8603   19.2570  -20.0868 C   0  0  0  0  0  0  0  0  0  0  0  0
  -22.4422   21.1764  -18.6337 C   0  0  0  0  0  0  0  0  0  0  0  0
  -23.8166   20.5742  -18.6573 C   0  0  0  0  0  0  0  0  0  0  0  0
  -17.7846   19.3286  -21.6240 C   0  0  0  0  0  0  0  0  0  0  0  0
  -17.9818   18.5822  -22.9206 C   0  0  0  0  0  0  0  0  0  0  0  0
  -18.4473   20.6593  -21.7566 C   0  0  0  0  0  0  0  0  0  0  0  0
  -19.7073   20.4894  -22.5780 C   0  0  0  0  0  0  0  0  0  0  0  0
  -19.4708   14.2316  -21.4223 C   0  0  0  0  0  0  0  0  0  0  0  0
  -18.9723   14.4370  -22.8155 C   0  0  0  0  0  0  0  0  0  0  0  0
  -18.4501   13.3049  -20.7381 C   0  0  0  0  0  0  0  0  0  0  0  0
  -18.0732   12.1392  -21.6229 C   0  0  0  0  0  0  0  0  0  0  0  0
 33 34  1  0  0  0
 34 31  1  0  0  0
 31 32  1  0  0  0
 31  1  1  0  0  0
  1  2  1  0  0  0
  2  3  2  0  0  0
  2  4  1  0  0  0
  4  5  1  0  0  0
  5 35  1  0  0  0
 35 36  1  0  0  0
 35 37  1  0  0  0
 37 38  1  0  0  0
  5  6  1  0  0  0
  6  7  2  0  0  0
  6  8  1  0  0  0
  8  9  1  0  0  0
  9 39  1  0  0  0
 39 40  1  0  0  0
 39 41  1  0  0  0
 41 42  1  0  0  0
  9 10  1  0  0  0
 10 11  2  0  0  0
 10 12  1  0  0  0
 12 13  1  0  0  0
 13 43  1  0  0  0
 43 44  1  0  0  0
 43 45  1  0  0  0
 45 46  1  0  0  0
 13 14  1  0  0  0
 14 15  2  0  0  0
 14 16  1  0  0  0
 16 17  1  0  0  0
 17 47  1  0  0  0
 47 48  1  0  0  0
 47 49  1  0  0  0
 49 50  1  0  0  0
 17 18  1  0  0  0
 18 19  2  0  0  0
 18 20  1  0  0  0
 20 21  1  0  0  0
 21 51  1  0  0  0
 51 52  1  0  0  0
 51 53  1  0  0  0
 53 54  1  0  0  0
 21 22  1  0  0  0
 22 23  2  0  0  0
 22 24  1  0  0  0
 24  1  1  0  0  0
  4 25  1  0  0  0
  8 26  1  0  0  0
 12 27  1  0  0  0
 16 28  1  0  0  0
 20 29  1  0  0  0
 24 30  1  0  0  0
M  END
> <minimizedAffinity>
-1.62977

> <CNNscore>
0.3990704715

> <CNNaffinity>
7.0219192505

> <CNN_VS>
2.8022406101

> <CNNaffinity_variance>
2.8003902435

$$$$
[H]c1c([H])c([H])c2c(c1[H])N=C(N1C([H])([H])C([H])([H])N(C([H])([H])[H])C([H])([H])C1([H])[H])c1c([H])c([H])c([H])c([H])c1N2[H]


 23 26  0  0  0  0  0  0  0  0999 V2000
  -19.0067   12.5108  -18.8685 C   0  0  0  0  0  0  0  0  0  0  0  0
  -19.6332   12.0172  -17.8506 N   0  0  0  0  0  0  0  0  0  0  0  0
  -19.5769   10.7620  -17.1852 C   0  0  0  0  0  0  0  0  0  0  0  0
  -20.6373   10.5876  -16.2910 C   0  0  0  0  0  0  0  0  0  0  0  0
  -20.6884    9.3881  -15.5751 C   0  0  0  0  0  0  0  0  0  0  0  0
  -19.7319    8.4131  -15.7419 C   0  0  0  0  0  0  0  0  0  0  0  0
  -18.7062    8.6266  -16.6321 C   0  0  0  0  0  0  0  0  0  0  0  0
  -18.6050    9.7972  -17.3692 C   0  0  0  0  0  0  0  0  0  0  0  0
  -17.4666    9.7971  -18.2245 N   0  0  0  0  0  0  0  0  0  0  0  0
  -17.3121   10.6371  -19.3743 C   0  0  0  0  0  0  0  0  0  0  0  0
  -16.3705   10.1034  -20.2094 C   0  0  0  0  0  0  0  0  0  0  0  0
  -16.0865   10.7814  -21.3803 C   0  0  0  0  0  0  0  0  0  0  0  0
  -16.7510   11.9553  -21.6645 C   0  0  0  0  0  0  0  0  0  0  0  0
  -17.7111   12.5032  -20.8171 C   0  0  0  0  0  0  0  0  0  0  0  0
  -17.9910   11.8256  -19.6527 C   0  0  0  0  0  0  0  0  0  0  0  0
  -16.7220    9.1344  -17.9689 H   0  0  0  0  0  0  0  0  0  0  0  0
  -19.3653   16.5150  -21.4712 C   0  0  0  0  0  0  0  0  0  0  0  0
  -19.9092   16.3866  -20.1472 N   0  0  0  0  0  0  0  0  0  0  0  0
  -18.9010   16.2796  -19.1269 C   0  0  0  0  0  0  0  0  0  0  0  0
  -18.4843   14.8918  -18.8116 C   0  0  0  0  0  0  0  0  0  0  0  0
  -19.3590   13.8575  -19.2419 N   0  0  0  0  0  0  0  0  0  0  0  0
  -20.5630   14.0093  -20.0230 C   0  0  0  0  0  0  0  0  0  0  0  0
  -20.9664   15.4427  -20.0264 C   0  0  0  0  0  0  0  0  0  0  0  0
 17 18  1  0  0  0
 18 19  1  0  0  0
 19 20  1  0  0  0
 20 21  1  0  0  0
 21 22  1  0  0  0
 22 23  1  0  0  0
 21  1  1  0  0  0
  1  2  2  0  0  0
  2  3  1  0  0  0
  3  4  2  0  0  0
  4  5  1  0  0  0
  5  6  2  0  0  0
  6  7  1  0  0  0
  7  8  2  0  0  0
  8  9  1  0  0  0
  9 10  1  0  0  0
 10 11  2  0  0  0
 11 12  1  0  0  0
 12 13  2  0  0  0
 13 14  1  0  0  0
 14 15  2  0  0  0
 23 18  1  0  0  0
 15  1  1  0  0  0
  8  3  1  0  0  0
 15 10  1  0  0  0
  9 16  1  0  0  0
M  END
> <minimizedAffinity>
-8.62804

> <CNNscore>
0.5813854933

> <CNNaffinity>
5.8711233139

> <CNN_VS>
3.4133858681

> <CNNaffinity_variance>
0.0632913411

$$$$
[H]c1c([H])c([H])c2c(c1[H])N=C(N1C([H])([H])C([H])([H])N(C([H])([H])[H])C([H])([H])C1([H])[H])c1c([H])c([H])c([H])c([H])c1N2[H]


 23 26  0  0  0  0  0  0  0  0999 V2000
  -17.9253   13.9739  -20.6601 C   0  0  0  0  0  0  0  0  0  0  0  0
  -17.5210   14.8313  -21.5397 N   0  0  0  0  0  0  0  0  0  0  0  0
  -16.5620   14.7754  -22.5878 C   0  0  0  0  0  0  0  0  0  0  0  0
  -16.2740   16.0393  -23.1113 C   0  0  0  0  0  0  0  0  0  0  0  0
  -15.3427   16.1112  -24.1513 C   0  0  0  0  0  0  0  0  0  0  0  0
  -14.7305   14.9817  -24.6438 C   0  0  0  0  0  0  0  0  0  0  0  0
  -15.0437   13.7587  -24.0993 C   0  0  0  0  0  0  0  0  0  0  0  0
  -15.9598   13.6275  -23.0664 C   0  0  0  0  0  0  0  0  0  0  0  0
  -16.1246   12.2719  -22.6630 N   0  0  0  0  0  0  0  0  0  0  0  0
  -16.6551   11.8574  -21.3988 C   0  0  0  0  0  0  0  0  0  0  0  0
  -16.2738   10.5702  -21.1408 C   0  0  0  0  0  0  0  0  0  0  0  0
  -16.6946    9.9969  -19.9551 C   0  0  0  0  0  0  0  0  0  0  0  0
  -17.4728   10.7293  -19.0843 C   0  0  0  0  0  0  0  0  0  0  0  0
  -17.8639   12.0411  -19.3424 C   0  0  0  0  0  0  0  0  0  0  0  0
  -17.4433   12.6082  -20.5235 C   0  0  0  0  0  0  0  0  0  0  0  0
  -15.8312   11.5669  -23.3527 H   0  0  0  0  0  0  0  0  0  0  0  0
  -21.3796   16.6904  -18.7563 C   0  0  0  0  0  0  0  0  0  0  0  0
  -20.8986   15.4843  -18.1404 N   0  0  0  0  0  0  0  0  0  0  0  0
  -19.5486   15.5933  -17.6561 C   0  0  0  0  0  0  0  0  0  0  0  0
  -18.5062   15.2028  -18.6357 C   0  0  0  0  0  0  0  0  0  0  0  0
  -18.9420   14.4297  -19.7460 N   0  0  0  0  0  0  0  0  0  0  0  0
  -20.2996   14.0568  -20.0633 C   0  0  0  0  0  0  0  0  0  0  0  0
  -21.1630   14.2946  -18.8736 C   0  0  0  0  0  0  0  0  0  0  0  0
 17 18  1  0  0  0
 18 19  1  0  0  0
 19 20  1  0  0  0
 20 21  1  0  0  0
 21 22  1  0  0  0
 22 23  1  0  0  0
 21  1  1  0  0  0
  1  2  2  0  0  0
  2  3  1  0  0  0
  3  4  2  0  0  0
  4  5  1  0  0  0
  5  6  2  0  0  0
  6  7  1  0  0  0
  7  8  2  0  0  0
  8  9  1  0  0  0
  9 10  1  0  0  0
 10 11  2  0  0  0
 11 12  1  0  0  0
 12 13  2  0  0  0
 13 14  1  0  0  0
 14 15  2  0  0  0
 23 18  1  0  0  0
 15  1  1  0  0  0
  8  3  1  0  0  0
 15 10  1  0  0  0
  9 16  1  0  0  0
M  END
> <minimizedAffinity>
-8.49575

> <CNNscore>
0.4530967176

> <CNNaffinity>
5.8748273849

> <CNN_VS>
2.6618649960

> <CNNaffinity_variance>
0.1066312566

$$$$
[H]c1c([H])c([H])c2c(c1[H])N=C(N1C([H])([H])C([H])([H])N(C([H])([H])[H])C([H])([H])C1([H])[H])c1c([H])c([H])c([H])c([H])c1N2[H]


 23 26  0  0  0  0  0  0  0  0999 V2000
  -17.8664   13.9213  -20.7221 C   0  0  0  0  0  0  0  0  0  0  0  0
  -17.4615   14.7880  -21.5923 N   0  0  0  0  0  0  0  0  0  0  0  0
  -16.4953   14.7457  -22.6345 C   0  0  0  0  0  0  0  0  0  0  0  0
  -16.2113   16.0154  -23.1462 C   0  0  0  0  0  0  0  0  0  0  0  0
  -15.2736   16.1008  -24.1794 C   0  0  0  0  0  0  0  0  0  0  0  0
  -14.6515   14.9787  -24.6766 C   0  0  0  0  0  0  0  0  0  0  0  0
  -14.9610   13.7498  -24.1437 C   0  0  0  0  0  0  0  0  0  0  0  0
  -15.8832   13.6052  -23.1179 C   0  0  0  0  0  0  0  0  0  0  0  0
  -16.0426   12.2455  -22.7261 N   0  0  0  0  0  0  0  0  0  0  0  0
  -16.5790   11.8181  -21.4687 C   0  0  0  0  0  0  0  0  0  0  0  0
  -16.1918   10.5312  -21.2182 C   0  0  0  0  0  0  0  0  0  0  0  0
  -16.6170    9.9463  -20.0398 C   0  0  0  0  0  0  0  0  0  0  0  0
  -17.4052   10.6673  -19.1685 C   0  0  0  0  0  0  0  0  0  0  0  0
  -17.8023   11.9787  -19.4191 C   0  0  0  0  0  0  0  0  0  0  0  0
  -17.3773   12.5575  -20.5929 C   0  0  0  0  0  0  0  0  0  0  0  0
  -15.7406   11.5476  -23.4194 H   0  0  0  0  0  0  0  0  0  0  0  0
  -20.8162   13.9889  -16.9497 C   0  0  0  0  0  0  0  0  0  0  0  0
  -20.8097   15.0099  -17.9611 N   0  0  0  0  0  0  0  0  0  0  0  0
  -21.2848   14.5478  -19.2377 C   0  0  0  0  0  0  0  0  0  0  0  0
  -20.2310   14.0145  -20.1342 C   0  0  0  0  0  0  0  0  0  0  0  0
  -18.8918   14.3641  -19.8112 N   0  0  0  0  0  0  0  0  0  0  0  0
  -18.4442   15.1109  -18.6602 C   0  0  0  0  0  0  0  0  0  0  0  0
  -19.6142   15.7778  -18.0247 C   0  0  0  0  0  0  0  0  0  0  0  0
 17 18  1  0  0  0
 18 19  1  0  0  0
 19 20  1  0  0  0
 20 21  1  0  0  0
 21 22  1  0  0  0
 22 23  1  0  0  0
 21  1  1  0  0  0
  1  2  2  0  0  0
  2  3  1  0  0  0
  3  4  2  0  0  0
  4  5  1  0  0  0
  5  6  2  0  0  0
  6  7  1  0  0  0
  7  8  2  0  0  0
  8  9  1  0  0  0
  9 10  1  0  0  0
 10 11  2  0  0  0
 11 12  1  0  0  0
 12 13  2  0  0  0
 13 14  1  0  0  0
 14 15  2  0  0  0
 23 18  1  0  0  0
 15  1  1  0  0  0
  8  3  1  0  0  0
 15 10  1  0  0  0
  9 16  1  0  0  0
M  END
> <minimizedAffinity>
-8.55523

> <CNNscore>
0.4499109089

> <CNNaffinity>
5.8535237312

> <CNN_VS>
2.6335642338

> <CNNaffinity_variance>
0.1298903227

$$$$
[H]c1c([H])c([H])c2c(c1[H])N=C(N1C([H])([H])C([H])([H])N(C([H])([H])[H])C([H])([H])C1([H])[H])c1c([H])c([H])c([H])c([H])c1N2[H]


 23 26  0  0  0  0  0  0  0  0999 V2000
  -18.0461   14.8024  -21.1342 C   0  0  0  0  0  0  0  0  0  0  0  0
  -17.9337   13.9851  -20.1383 N   0  0  0  0  0  0  0  0  0  0  0  0
  -17.5878   12.6096  -20.0393 C   0  0  0  0  0  0  0  0  0  0  0  0
  -17.8583   12.0845  -18.7722 C   0  0  0  0  0  0  0  0  0  0  0  0
  -17.5582   10.7369  -18.5535 C   0  0  0  0  0  0  0  0  0  0  0  0
  -17.0165    9.9535  -19.5466 C   0  0  0  0  0  0  0  0  0  0  0  0
  -16.7666   10.5111  -20.7781 C   0  0  0  0  0  0  0  0  0  0  0  0
  -17.0442   11.8422  -21.0517 C   0  0  0  0  0  0  0  0  0  0  0  0
  -16.7053   12.1984  -22.3880 N   0  0  0  0  0  0  0  0  0  0  0  0
  -17.2324   13.3319  -23.0871 C   0  0  0  0  0  0  0  0  0  0  0  0
  -17.0822   13.1511  -24.4338 C   0  0  0  0  0  0  0  0  0  0  0  0
  -17.5379   14.1496  -25.2746 C   0  0  0  0  0  0  0  0  0  0  0  0
  -18.1201   15.2778  -24.7374 C   0  0  0  0  0  0  0  0  0  0  0  0
  -18.2755   15.4667  -23.3661 C   0  0  0  0  0  0  0  0  0  0  0  0
  -17.8207   14.4709  -22.5325 C   0  0  0  0  0  0  0  0  0  0  0  0
  -16.0318   11.5754  -22.8540 H   0  0  0  0  0  0  0  0  0  0  0  0
  -19.0588   18.6953  -18.5349 C   0  0  0  0  0  0  0  0  0  0  0  0
  -19.1397   18.6648  -19.9695 N   0  0  0  0  0  0  0  0  0  0  0  0
  -20.2038   17.8310  -20.4607 C   0  0  0  0  0  0  0  0  0  0  0  0
  -19.8202   16.4204  -20.7097 C   0  0  0  0  0  0  0  0  0  0  0  0
  -18.4277   16.1537  -20.8097 N   0  0  0  0  0  0  0  0  0  0  0  0
  -17.3489   17.0920  -20.6125 C   0  0  0  0  0  0  0  0  0  0  0  0
  -17.8955   18.4770  -20.6325 C   0  0  0  0  0  0  0  0  0  0  0  0
 17 18  1  0  0  0
 18 19  1  0  0  0
 19 20  1  0  0  0
 20 21  1  0  0  0
 21 22  1  0  0  0
 22 23  1  0  0  0
 21  1  1  0  0  0
  1  2  2  0  0  0
  2  3  1  0  0  0
  3  4  2  0  0  0
  4  5  1  0  0  0
  5  6  2  0  0  0
  6  7  1  0  0  0
  7  8  2  0  0  0
  8  9  1  0  0  0
  9 10  1  0  0  0
 10 11  2  0  0  0
 11 12  1  0  0  0
 12 13  2  0  0  0
 13 14  1  0  0  0
 14 15  2  0  0  0
 23 18  1  0  0  0
 15  1  1  0  0  0
  8  3  1  0  0  0
 15 10  1  0  0  0
  9 16  1  0  0  0
M  END
> <minimizedAffinity>
-8.44098

> <CNNscore>
0.4451949000

> <CNNaffinity>
5.9409055710

> <CNN_VS>
2.6448607445

> <CNNaffinity_variance>
0.0393940769

$$$$
[H]c1c([H])c([H])c2c(c1[H])N=C(N1C([H])([H])C([H])([H])N(C([H])([H])[H])C([H])([H])C1([H])[H])c1c([H])c([H])c([H])c([H])c1N2[H]


 23 26  0  0  0  0  0  0  0  0999 V2000
  -16.8621   14.3189  -22.1832 C   0  0  0  0  0  0  0  0  0  0  0  0
  -16.8366   13.0412  -21.9851 N   0  0  0  0  0  0  0  0  0  0  0  0
  -17.1252   12.2226  -20.8591 C   0  0  0  0  0  0  0  0  0  0  0  0
  -16.6985   10.9035  -21.0390 C   0  0  0  0  0  0  0  0  0  0  0  0
  -16.9292   10.0017  -19.9962 C   0  0  0  0  0  0  0  0  0  0  0  0
  -17.5530   10.3946  -18.8344 C   0  0  0  0  0  0  0  0  0  0  0  0
  -17.9564   11.7019  -18.7000 C   0  0  0  0  0  0  0  0  0  0  0  0
  -17.7537   12.6399  -19.7014 C   0  0  0  0  0  0  0  0  0  0  0  0
  -18.2508   13.9251  -19.3428 N   0  0  0  0  0  0  0  0  0  0  0  0
  -17.8413   15.1553  -19.9515 C   0  0  0  0  0  0  0  0  0  0  0  0
  -18.1350   16.1992  -19.1192 C   0  0  0  0  0  0  0  0  0  0  0  0
  -17.8080   17.4743  -19.5419 C   0  0  0  0  0  0  0  0  0  0  0  0
  -17.2058   17.6503  -20.7694 C   0  0  0  0  0  0  0  0  0  0  0  0
  -16.9045   16.5900  -21.6210 C   0  0  0  0  0  0  0  0  0  0  0  0
  -17.2314   15.3225  -21.1970 C   0  0  0  0  0  0  0  0  0  0  0  0
  -18.9518   13.9333  -18.5896 H   0  0  0  0  0  0  0  0  0  0  0  0
  -16.4713   14.4416  -26.9548 C   0  0  0  0  0  0  0  0  0  0  0  0
  -15.8814   15.4281  -26.0920 N   0  0  0  0  0  0  0  0  0  0  0  0
  -14.8011   14.9122  -25.2947 C   0  0  0  0  0  0  0  0  0  0  0  0
  -15.2083   14.3747  -23.9741 C   0  0  0  0  0  0  0  0  0  0  0  0
  -16.4900   14.7671  -23.5014 N   0  0  0  0  0  0  0  0  0  0  0  0
  -17.4673   15.5626  -24.2049 C   0  0  0  0  0  0  0  0  0  0  0  0
  -16.8145   16.2220  -25.3695 C   0  0  0  0  0  0  0  0  0  0  0  0
 17 18  1  0  0  0
 18 19  1  0  0  0
 19 20  1  0  0  0
 20 21  1  0  0  0
 21 22  1  0  0  0
 22 23  1  0  0  0
 21  1  1  0  0  0
  1  2  2  0  0  0
  2  3  1  0  0  0
  3  4  2  0  0  0
  4  5  1  0  0  0
  5  6  2  0  0  0
  6  7  1  0  0  0
  7  8  2  0  0  0
  8  9  1  0  0  0
  9 10  1  0  0  0
 10 11  2  0  0  0
 11 12  1  0  0  0
 12 13  2  0  0  0
 13 14  1  0  0  0
 14 15  2  0  0  0
 23 18  1  0  0  0
 15  1  1  0  0  0
  8  3  1  0  0  0
 15 10  1  0  0  0
  9 16  1  0  0  0
M  END
> <minimizedAffinity>
-8.38607

> <CNNscore>
0.4352093041

> <CNNaffinity>
6.2160687447

> <CNN_VS>
2.7052910328

> <CNNaffinity_variance>
0.0490951724

$$$$
[H]c1c([H])c([H])c2c(c1[H])N=C(N1C([H])([H])C([H])([H])N(C([H])([H])[H])C([H])([H])C1([H])[H])c1c([H])c([H])c([H])c([H])c1N2[H]


 23 26  0  0  0  0  0  0  0  0999 V2000
  -19.1154   12.0716  -18.3524 C   0  0  0  0  0  0  0  0  0  0  0  0
  -18.1498   11.3072  -18.7470 N   0  0  0  0  0  0  0  0  0  0  0  0
  -17.3164   11.3040  -19.8989 C   0  0  0  0  0  0  0  0  0  0  0  0
  -16.5842   10.1193  -20.0205 C   0  0  0  0  0  0  0  0  0  0  0  0
  -15.7258    9.9998  -21.1174 C   0  0  0  0  0  0  0  0  0  0  0  0
  -15.6038   11.0091  -22.0446 C   0  0  0  0  0  0  0  0  0  0  0  0
  -16.3429   12.1574  -21.8858 C   0  0  0  0  0  0  0  0  0  0  0  0
  -17.2101   12.3308  -20.8173 C   0  0  0  0  0  0  0  0  0  0  0  0
  -17.8678   13.5931  -20.8583 N   0  0  0  0  0  0  0  0  0  0  0  0
  -19.0844   13.9000  -20.1675 C   0  0  0  0  0  0  0  0  0  0  0  0
  -19.6793   14.9863  -20.7461 C   0  0  0  0  0  0  0  0  0  0  0  0
  -20.8737   15.4308  -20.2102 C   0  0  0  0  0  0  0  0  0  0  0  0
  -21.4186   14.7754  -19.1268 C   0  0  0  0  0  0  0  0  0  0  0  0
  -20.8165   13.6682  -18.5337 C   0  0  0  0  0  0  0  0  0  0  0  0
  -19.6279   13.2287  -19.0697 C   0  0  0  0  0  0  0  0  0  0  0  0
  -17.4093   14.3117  -21.4346 H   0  0  0  0  0  0  0  0  0  0  0  0
  -19.5375   10.9240  -13.7220 C   0  0  0  0  0  0  0  0  0  0  0  0
  -20.6639   11.0606  -14.6040 N   0  0  0  0  0  0  0  0  0  0  0  0
  -20.7266   10.0329  -15.6085 C   0  0  0  0  0  0  0  0  0  0  0  0
  -20.0244   10.3598  -16.8730 C   0  0  0  0  0  0  0  0  0  0  0  0
  -19.7225   11.7315  -17.0904 N   0  0  0  0  0  0  0  0  0  0  0  0
  -19.9514   12.8250  -16.1767 C   0  0  0  0  0  0  0  0  0  0  0  0
  -20.8766   12.3768  -15.0994 C   0  0  0  0  0  0  0  0  0  0  0  0
 17 18  1  0  0  0
 18 19  1  0  0  0
 19 20  1  0  0  0
 20 21  1  0  0  0
 21 22  1  0  0  0
 22 23  1  0  0  0
 21  1  1  0  0  0
  1  2  2  0  0  0
  2  3  1  0  0  0
  3  4  2  0  0  0
  4  5  1  0  0  0
  5  6  2  0  0  0
  6  7  1  0  0  0
  7  8  2  0  0  0
  8  9  1  0  0  0
  9 10  1  0  0  0
 10 11  2  0  0  0
 11 12  1  0  0  0
 12 13  2  0  0  0
 13 14  1  0  0  0
 14 15  2  0  0  0
 23 18  1  0  0  0
 15  1  1  0  0  0
  8  3  1  0  0  0
 15 10  1  0  0  0
  9 16  1  0  0  0
M  END
> <minimizedAffinity>
-7.21497

> <CNNscore>
0.4227577448

> <CNNaffinity>
5.5738701820

> <CNN_VS>
2.3563966751

> <CNNaffinity_variance>
0.0538663939

$$$$
[H]c1c([H])c([H])c2c(c1[H])N=C(N1C([H])([H])C([H])([H])N(C([H])([H])[H])C([H])([H])C1([H])[H])c1c([H])c([H])c([H])c([H])c1N2[H]


 23 26  0  0  0  0  0  0  0  0999 V2000
  -19.2418   12.9387  -17.9860 C   0  0  0  0  0  0  0  0  0  0  0  0
  -18.5315   12.9251  -19.0665 N   0  0  0  0  0  0  0  0  0  0  0  0
  -17.7216   11.9363  -19.6892 C   0  0  0  0  0  0  0  0  0  0  0  0
  -16.9300   12.4664  -20.7123 C   0  0  0  0  0  0  0  0  0  0  0  0
  -16.0893   11.5869  -21.4007 C   0  0  0  0  0  0  0  0  0  0  0  0
  -16.0407   10.2484  -21.0856 C   0  0  0  0  0  0  0  0  0  0  0  0
  -16.8367    9.7697  -20.0720 C   0  0  0  0  0  0  0  0  0  0  0  0
  -17.6895   10.5959  -19.3552 C   0  0  0  0  0  0  0  0  0  0  0  0
  -18.4132    9.8847  -18.3563 N   0  0  0  0  0  0  0  0  0  0  0  0
  -19.0346   10.4887  -17.2159 C   0  0  0  0  0  0  0  0  0  0  0  0
  -19.2409    9.5428  -16.2508 C   0  0  0  0  0  0  0  0  0  0  0  0
  -19.8343    9.9446  -15.0685 C   0  0  0  0  0  0  0  0  0  0  0  0
  -20.1936   11.2651  -14.9025 C   0  0  0  0  0  0  0  0  0  0  0  0
  -19.9856   12.2327  -15.8826 C   0  0  0  0  0  0  0  0  0  0  0  0
  -19.3948   11.8290  -17.0579 C   0  0  0  0  0  0  0  0  0  0  0  0
  -18.4738    8.8669  -18.4951 H   0  0  0  0  0  0  0  0  0  0  0  0
  -21.7376   16.2385  -15.5738 C   0  0  0  0  0  0  0  0  0  0  0  0
  -21.3070   16.4169  -16.9332 N   0  0  0  0  0  0  0  0  0  0  0  0
  -21.9764   15.5441  -17.8601 C   0  0  0  0  0  0  0  0  0  0  0  0
  -21.2982   14.2451  -18.0872 C   0  0  0  0  0  0  0  0  0  0  0  0
  -19.9345   14.1684  -17.6940 N   0  0  0  0  0  0  0  0  0  0  0  0
  -19.1667   15.1900  -17.0235 C   0  0  0  0  0  0  0  0  0  0  0  0
  -19.8971   16.4850  -17.1075 C   0  0  0  0  0  0  0  0  0  0  0  0
 17 18  1  0  0  0
 18 19  1  0  0  0
 19 20  1  0  0  0
 20 21  1  0  0  0
 21 22  1  0  0  0
 22 23  1  0  0  0
 21  1  1  0  0  0
  1  2  2  0  0  0
  2  3  1  0  0  0
  3  4  2  0  0  0
  4  5  1  0  0  0
  5  6  2  0  0  0
  6  7  1  0  0  0
  7  8  2  0  0  0
  8  9  1  0  0  0
  9 10  1  0  0  0
 10 11  2  0  0  0
 11 12  1  0  0  0
 12 13  2  0  0  0
 13 14  1  0  0  0
 14 15  2  0  0  0
 23 18  1  0  0  0
 15  1  1  0  0  0
  8  3  1  0  0  0
 15 10  1  0  0  0
  9 16  1  0  0  0
M  END
> <minimizedAffinity>
-6.41987

> <CNNscore>
0.4207550585

> <CNNaffinity>
5.4043393135

> <CNN_VS>
2.2739031315

> <CNNaffinity_variance>
0.1542821527

$$$$
[H]c1c([H])c([H])c2c(c1[H])N=C(N1C([H])([H])C([H])([H])N(C([H])([H])[H])C([H])([H])C1([H])[H])c1c([H])c([H])c([H])c([H])c1N2[H]


 23 26  0  0  0  0  0  0  0  0999 V2000
  -17.5844   13.5222  -21.9230 C   0  0  0  0  0  0  0  0  0  0  0  0
  -18.5384   14.3339  -21.6017 N   0  0  0  0  0  0  0  0  0  0  0  0
  -19.4354   14.3981  -20.5005 C   0  0  0  0  0  0  0  0  0  0  0  0
  -20.4765   15.3057  -20.7166 C   0  0  0  0  0  0  0  0  0  0  0  0
  -21.4240   15.4565  -19.6999 C   0  0  0  0  0  0  0  0  0  0  0  0
  -21.3378   14.7397  -18.5285 C   0  0  0  0  0  0  0  0  0  0  0  0
  -20.2969   13.8578  -18.3581 C   0  0  0  0  0  0  0  0  0  0  0  0
  -19.3284   13.6675  -19.3325 C   0  0  0  0  0  0  0  0  0  0  0  0
  -18.3515   12.7090  -18.9395 N   0  0  0  0  0  0  0  0  0  0  0  0
  -17.4932   12.0036  -19.8435 C   0  0  0  0  0  0  0  0  0  0  0  0
  -17.0160   10.8753  -19.2371 C   0  0  0  0  0  0  0  0  0  0  0  0
  -16.1660   10.0617  -19.9631 C   0  0  0  0  0  0  0  0  0  0  0  0
  -15.8319   10.4081  -21.2549 C   0  0  0  0  0  0  0  0  0  0  0  0
  -16.3155   11.5566  -21.8773 C   0  0  0  0  0  0  0  0  0  0  0  0
  -17.1610   12.3638  -21.1515 C   0  0  0  0  0  0  0  0  0  0  0  0
  -18.2850   12.5355  -17.9274 H   0  0  0  0  0  0  0  0  0  0  0  0
  -16.1112   15.8891  -25.8170 C   0  0  0  0  0  0  0  0  0  0  0  0
  -15.6898   14.5513  -25.5038 N   0  0  0  0  0  0  0  0  0  0  0  0
  -16.7486   13.5833  -25.6080 C   0  0  0  0  0  0  0  0  0  0  0  0
  -17.5096   13.3611  -24.3548 C   0  0  0  0  0  0  0  0  0  0  0  0
  -16.8926   13.8073  -23.1547 N   0  0  0  0  0  0  0  0  0  0  0  0
  -15.6466   14.5258  -23.0356 C   0  0  0  0  0  0  0  0  0  0  0  0
  -14.9047   14.4350  -24.3236 C   0  0  0  0  0  0  0  0  0  0  0  0
 17 18  1  0  0  0
 18 19  1  0  0  0
 19 20  1  0  0  0
 20 21  1  0  0  0
 21 22  1  0  0  0
 22 23  1  0  0  0
 21  1  1  0  0  0
  1  2  2  0  0  0
  2  3  1  0  0  0
  3  4  2  0  0  0
  4  5  1  0  0  0
  5  6  2  0  0  0
  6  7  1  0  0  0
  7  8  2  0  0  0
  8  9  1  0  0  0
  9 10  1  0  0  0
 10 11  2  0  0  0
 11 12  1  0  0  0
 12 13  2  0  0  0
 13 14  1  0  0  0
 14 15  2  0  0  0
 23 18  1  0  0  0
 15  1  1  0  0  0
  8  3  1  0  0  0
 15 10  1  0  0  0
  9 16  1  0  0  0
M  END
> <minimizedAffinity>
-8.28249

> <CNNscore>
0.3580186963

> <CNNaffinity>
5.9956293106

> <CNN_VS>
2.1465473175

> <CNNaffinity_variance>
0.0341448784

$$$$
[H]c1c([H])c([H])c2c(c1[H])N=C(N1C([H])([H])C([H])([H])N(C([H])([H])[H])C([H])([H])C1([H])[H])c1c([H])c([H])c([H])c([H])c1N2[H]


 23 26  0  0  0  0  0  0  0  0999 V2000
  -18.5129   13.9335  -20.1201 C   0  0  0  0  0  0  0  0  0  0  0  0
  -18.6412   14.7413  -21.1218 N   0  0  0  0  0  0  0  0  0  0  0  0
  -18.1410   14.7322  -22.4526 C   0  0  0  0  0  0  0  0  0  0  0  0
  -18.3276   15.9584  -23.0978 C   0  0  0  0  0  0  0  0  0  0  0  0
  -17.8756   16.0706  -24.4158 C   0  0  0  0  0  0  0  0  0  0  0  0
  -17.2692   15.0151  -25.0573 C   0  0  0  0  0  0  0  0  0  0  0  0
  -17.1061   13.8271  -24.3849 C   0  0  0  0  0  0  0  0  0  0  0  0
  -17.5349   13.6587  -23.0766 C   0  0  0  0  0  0  0  0  0  0  0  0
  -17.2614   12.3504  -22.5855 N   0  0  0  0  0  0  0  0  0  0  0  0
  -17.1978   11.9982  -21.1987 C   0  0  0  0  0  0  0  0  0  0  0  0
  -16.4952   10.8347  -21.0524 C   0  0  0  0  0  0  0  0  0  0  0  0
  -16.3282   10.3371  -19.7733 C   0  0  0  0  0  0  0  0  0  0  0  0
  -16.8665   11.0188  -18.7029 C   0  0  0  0  0  0  0  0  0  0  0  0
  -17.5830   12.2047  -18.8466 C   0  0  0  0  0  0  0  0  0  0  0  0
  -17.7472   12.6967  -20.1210 C   0  0  0  0  0  0  0  0  0  0  0  0
  -17.1031   11.6324  -23.3054 H   0  0  0  0  0  0  0  0  0  0  0  0
  -21.4967   16.2239  -17.1557 C   0  0  0  0  0  0  0  0  0  0  0  0
  -20.6003   15.1873  -16.7228 N   0  0  0  0  0  0  0  0  0  0  0  0
  -19.2154   15.5705  -16.7872 C   0  0  0  0  0  0  0  0  0  0  0  0
  -18.5456   15.2569  -18.0724 C   0  0  0  0  0  0  0  0  0  0  0  0
  -19.1958   14.3084  -18.9076 N   0  0  0  0  0  0  0  0  0  0  0  0
  -20.4758   13.6830  -18.6762 C   0  0  0  0  0  0  0  0  0  0  0  0
  -20.8765   13.8990  -17.2584 C   0  0  0  0  0  0  0  0  0  0  0  0
 17 18  1  0  0  0
 18 19  1  0  0  0
 19 20  1  0  0  0
 20 21  1  0  0  0
 21 22  1  0  0  0
 22 23  1  0  0  0
 21  1  1  0  0  0
  1  2  2  0  0  0
  2  3  1  0  0  0
  3  4  2  0  0  0
  4  5  1  0  0  0
  5  6  2  0  0  0
  6  7  1  0  0  0
  7  8  2  0  0  0
  8  9  1  0  0  0
  9 10  1  0  0  0
 10 11  2  0  0  0
 11 12  1  0  0  0
 12 13  2  0  0  0
 13 14  1  0  0  0
 14 15  2  0  0  0
 23 18  1  0  0  0
 15  1  1  0  0  0
  8  3  1  0  0  0
 15 10  1  0  0  0
  9 16  1  0  0  0
M  END
> <minimizedAffinity>
-8.16671

> <CNNscore>
0.3355014920

> <CNNaffinity>
5.6558523178

> <CNN_VS>
1.8975468874

> <CNNaffinity_variance>
0.0551206879

$$$$
[H]O[C@@]1([H])C([H])([H])C([H])([H])[C@@]2([H])[C@]3(C([H])([H])[H])[C@]([H])(C([H])([H])C([H])([H])[C@]2([H])C1([H])[H])C([H])([H])[C@]1(C([H])([H])[H])[C@@]([H])(O[H])C([H])([H])C([H])([H])[C@@]13[H]


 22 25  0  0  0  0  0  0  0  0999 V2000
  -17.4357    9.8635  -20.7316 C   0  0  0  0  0  0  0  0  0  0  0  0
  -16.9178   11.2588  -20.5682 C   0  0  0  0  0  0  0  0  0  0  0  0
  -16.8874   11.6927  -19.1301 C   0  0  0  0  0  0  0  0  0  0  0  0
  -18.4064   11.8493  -18.9812 C   0  0  0  0  0  0  0  0  0  0  0  0
  -18.8996   12.1083  -17.6611 C   0  0  0  0  0  0  0  0  0  0  0  0
  -19.4321   13.4674  -17.3678 C   0  0  0  0  0  0  0  0  0  0  0  0
  -18.5582   14.4405  -18.1398 C   0  0  0  0  0  0  0  0  0  0  0  0
  -19.0994   15.8062  -17.7109 C   0  0  0  0  0  0  0  0  0  0  0  0
  -18.1691   16.8251  -18.3160 C   0  0  0  0  0  0  0  0  0  0  0  0
  -16.8901   16.7560  -17.8568 O   0  0  0  0  0  0  0  0  0  0  0  0
  -18.3223   16.6754  -19.8034 C   0  0  0  0  0  0  0  0  0  0  0  0
  -17.8419   15.2865  -20.2704 C   0  0  0  0  0  0  0  0  0  0  0  0
  -18.7409   14.2489  -19.6607 C   0  0  0  0  0  0  0  0  0  0  0  0
  -18.6970   12.8698  -20.1041 C   0  0  0  0  0  0  0  0  0  0  0  0
  -20.1742   12.4940  -20.4417 C   0  0  0  0  0  0  0  0  0  0  0  0
  -17.8739   12.3257  -21.1475 C   0  0  0  0  0  0  0  0  0  0  0  0
  -16.9783   13.0669  -22.0331 C   0  0  0  0  0  0  0  0  0  0  0  0
  -16.1572   11.9025  -22.6489 C   0  0  0  0  0  0  0  0  0  0  0  0
  -15.6318   11.3656  -21.3000 C   0  0  0  0  0  0  0  0  0  0  0  0
  -14.9986   10.1502  -21.4951 O   0  0  0  0  0  0  0  0  0  0  0  0
  -16.3625   15.9853  -18.0988 H   0  0  0  0  0  0  0  0  0  0  0  0
  -15.0411    9.9065  -22.4566 H   0  0  0  0  0  0  0  0  0  0  0  0
  2  1  1  0  0  0
  2  3  1  0  0  0
  3  4  1  0  0  0
  4  5  1  0  0  0
  5  6  1  0  0  0
  6  7  1  0  0  0
  7  8  1  0  0  0
  8  9  1  0  0  0
  9 10  1  0  0  0
  9 11  1  0  0  0
 11 12  1  0  0  0
 12 13  1  0  0  0
 13 14  1  0  0  0
 14 15  1  0  0  0
 14 16  1  0  0  0
 16 17  1  0  0  0
 17 18  1  0  0  0
 18 19  1  0  0  0
 19 20  1  0  0  0
 16  2  1  0  0  0
 19  2  1  0  0  0
 14  4  1  0  0  0
 13  7  1  0  0  0
 10 21  1  0  0  0
 20 22  1  0  0  0
M  END
> <minimizedAffinity>
-6.08580

> <CNNscore>
0.3880463839

> <CNNaffinity>
5.5609569550

> <CNN_VS>
2.1579091549

> <CNNaffinity_variance>
0.2024343014

$$$$
[H]O[C@@]1([H])C([H])([H])C([H])([H])[C@@]2([H])[C@]3(C([H])([H])[H])[C@]([H])(C([H])([H])C([H])([H])[C@]2([H])C1([H])[H])C([H])([H])[C@]1(C([H])([H])[H])[C@@]([H])(O[H])C([H])([H])C([H])([H])[C@@]13[H]


 22 25  0  0  0  0  0  0  0  0999 V2000
  -17.8963   14.3315  -21.1417 C   0  0  0  0  0  0  0  0  0  0  0  0
  -17.5913   15.2464  -22.2871 C   0  0  0  0  0  0  0  0  0  0  0  0
  -18.3735   14.8977  -23.5216 C   0  0  0  0  0  0  0  0  0  0  0  0
  -17.5838   13.6248  -23.8533 C   0  0  0  0  0  0  0  0  0  0  0  0
  -18.0920   12.8123  -24.9185 C   0  0  0  0  0  0  0  0  0  0  0  0
  -17.3314   12.7808  -26.1979 C   0  0  0  0  0  0  0  0  0  0  0  0
  -16.7884   14.1843  -26.4028 C   0  0  0  0  0  0  0  0  0  0  0  0
  -16.1123   14.0968  -27.7729 C   0  0  0  0  0  0  0  0  0  0  0  0
  -15.6907   15.5026  -28.1133 C   0  0  0  0  0  0  0  0  0  0  0  0
  -16.7235   16.3782  -28.2484 O   0  0  0  0  0  0  0  0  0  0  0  0
  -14.6678   15.8770  -27.0780 C   0  0  0  0  0  0  0  0  0  0  0  0
  -15.2970   15.9186  -25.6707 C   0  0  0  0  0  0  0  0  0  0  0  0
  -15.7477   14.5302  -25.3163 C   0  0  0  0  0  0  0  0  0  0  0  0
  -16.1542   14.1997  -23.9650 C   0  0  0  0  0  0  0  0  0  0  0  0
  -15.3196   12.9391  -23.5759 C   0  0  0  0  0  0  0  0  0  0  0  0
  -16.1534   15.0747  -22.8263 C   0  0  0  0  0  0  0  0  0  0  0  0
  -15.6598   16.4494  -22.7783 C   0  0  0  0  0  0  0  0  0  0  0  0
  -16.2582   16.9208  -21.4259 C   0  0  0  0  0  0  0  0  0  0  0  0
  -17.7274   16.6455  -21.8129 C   0  0  0  0  0  0  0  0  0  0  0  0
  -18.5376   16.7804  -20.6987 O   0  0  0  0  0  0  0  0  0  0  0  0
  -17.2241   16.6144  -27.4582 H   0  0  0  0  0  0  0  0  0  0  0  0
  -17.9797   17.0130  -19.9111 H   0  0  0  0  0  0  0  0  0  0  0  0
  2  1  1  0  0  0
  2  3  1  0  0  0
  3  4  1  0  0  0
  4  5  1  0  0  0
  5  6  1  0  0  0
  6  7  1  0  0  0
  7  8  1  0  0  0
  8  9  1  0  0  0
  9 10  1  0  0  0
  9 11  1  0  0  0
 11 12  1  0  0  0
 12 13  1  0  0  0
 13 14  1  0  0  0
 14 15  1  0  0  0
 14 16  1  0  0  0
 16 17  1  0  0  0
 17 18  1  0  0  0
 18 19  1  0  0  0
 19 20  1  0  0  0
 16  2  1  0  0  0
 19  2  1  0  0  0
 14  4  1  0  0  0
 13  7  1  0  0  0
 10 21  1  0  0  0
 20 22  1  0  0  0
M  END
> <minimizedAffinity>
-8.09225

> <CNNscore>
0.3134360015

> <CNNaffinity>
5.7603321075

> <CNN_VS>
1.8054955006

> <CNNaffinity_variance>
0.0490485094

$$$$
[H]O[C@@]1([H])C([H])([H])C([H])([H])[C@@]2([H])[C@]3(C([H])([H])[H])[C@]([H])(C([H])([H])C([H])([H])[C@]2([H])C1([H])[H])C([H])([H])[C@]1(C([H])([H])[H])[C@@]([H])(O[H])C([H])([H])C([H])([H])[C@@]13[H]


 22 25  0  0  0  0  0  0  0  0999 V2000
  -20.7821   13.7545  -19.1800 C   0  0  0  0  0  0  0  0  0  0  0  0
  -19.9661   14.5483  -18.2075 C   0  0  0  0  0  0  0  0  0  0  0  0
  -20.3904   14.3199  -16.7844 C   0  0  0  0  0  0  0  0  0  0  0  0
  -21.7037   15.1069  -16.8841 C   0  0  0  0  0  0  0  0  0  0  0  0
  -22.5838   15.0344  -15.7557 C   0  0  0  0  0  0  0  0  0  0  0  0
  -22.7323   16.2477  -14.9057 C   0  0  0  0  0  0  0  0  0  0  0  0
  -21.3622   16.9012  -14.8569 C   0  0  0  0  0  0  0  0  0  0  0  0
  -21.5714   18.0714  -13.8932 C   0  0  0  0  0  0  0  0  0  0  0  0
  -20.2067   18.6696  -13.6711 C   0  0  0  0  0  0  0  0  0  0  0  0
  -19.3197   17.8301  -13.0710 O   0  0  0  0  0  0  0  0  0  0  0  0
  -19.7778   19.2001  -15.0102 C   0  0  0  0  0  0  0  0  0  0  0  0
  -19.6125   18.0551  -16.0298 C   0  0  0  0  0  0  0  0  0  0  0  0
  -20.9582   17.4255  -16.2516 C   0  0  0  0  0  0  0  0  0  0  0  0
  -21.1734   16.4864  -17.3343 C   0  0  0  0  0  0  0  0  0  0  0  0
  -22.4198   17.0211  -18.1075 C   0  0  0  0  0  0  0  0  0  0  0  0
  -20.2133   16.0697  -18.3175 C   0  0  0  0  0  0  0  0  0  0  0  0
  -18.8512   16.5736  -18.4802 C   0  0  0  0  0  0  0  0  0  0  0  0
  -18.2625   15.5020  -19.4365 C   0  0  0  0  0  0  0  0  0  0  0  0
  -18.5317   14.3058  -18.4981 C   0  0  0  0  0  0  0  0  0  0  0  0
  -18.2917   13.1202  -19.1711 O   0  0  0  0  0  0  0  0  0  0  0  0
  -19.0112   17.0643  -13.5702 H   0  0  0  0  0  0  0  0  0  0  0  0
  -18.0124   13.3202  -20.1026 H   0  0  0  0  0  0  0  0  0  0  0  0
  2  1  1  0  0  0
  2  3  1  0  0  0
  3  4  1  0  0  0
  4  5  1  0  0  0
  5  6  1  0  0  0
  6  7  1  0  0  0
  7  8  1  0  0  0
  8  9  1  0  0  0
  9 10  1  0  0  0
  9 11  1  0  0  0
 11 12  1  0  0  0
 12 13  1  0  0  0
 13 14  1  0  0  0
 14 15  1  0  0  0
 14 16  1  0  0  0
 16 17  1  0  0  0
 17 18  1  0  0  0
 18 19  1  0  0  0
 19 20  1  0  0  0
 16  2  1  0  0  0
 19  2  1  0  0  0
 14  4  1  0  0  0
 13  7  1  0  0  0
 10 21  1  0  0  0
 20 22  1  0  0  0
M  END
> <minimizedAffinity>
-5.21855

> <CNNscore>
0.3003313839

> <CNNaffinity>
4.6321706772

> <CNN_VS>
1.3911862373

> <CNNaffinity_variance>
0.0992856771

$$$$
[H]O[C@@]1([H])C([H])([H])C([H])([H])[C@@]2([H])[C@]3(C([H])([H])[H])[C@]([H])(C([H])([H])C([H])([H])[C@]2([H])C1([H])[H])C([H])([H])[C@]1(C([H])([H])[H])[C@@]([H])(O[H])C([H])([H])C([H])([H])[C@@]13[H]


 22 25  0  0  0  0  0  0  0  0999 V2000
  -18.4988   15.8831  -21.2205 C   0  0  0  0  0  0  0  0  0  0  0  0
  -18.2043   16.7746  -20.0541 C   0  0  0  0  0  0  0  0  0  0  0  0
  -18.1262   16.0158  -18.7597 C   0  0  0  0  0  0  0  0  0  0  0  0
  -19.6328   15.7501  -18.6425 C   0  0  0  0  0  0  0  0  0  0  0  0
  -20.0507   14.8721  -17.5901 C   0  0  0  0  0  0  0  0  0  0  0  0
  -20.7720   15.4646  -16.4302 C   0  0  0  0  0  0  0  0  0  0  0  0
  -20.1360   16.8216  -16.1840 C   0  0  0  0  0  0  0  0  0  0  0  0
  -20.8559   17.3180  -14.9280 C   0  0  0  0  0  0  0  0  0  0  0  0
  -20.1580   18.5929  -14.5315 C   0  0  0  0  0  0  0  0  0  0  0  0
  -18.8513   18.4311  -14.1882 O   0  0  0  0  0  0  0  0  0  0  0  0
  -20.4073   19.5546  -15.6591 C   0  0  0  0  0  0  0  0  0  0  0  0
  -19.7466   19.0602  -16.9619 C   0  0  0  0  0  0  0  0  0  0  0  0
  -20.4103   17.7749  -17.3669 C   0  0  0  0  0  0  0  0  0  0  0  0
  -20.1783   17.1951  -18.6747 C   0  0  0  0  0  0  0  0  0  0  0  0
  -21.5970   16.9401  -19.2745 C   0  0  0  0  0  0  0  0  0  0  0  0
  -19.3666   17.7390  -19.7271 C   0  0  0  0  0  0  0  0  0  0  0  0
  -18.6808   19.0295  -19.7264 C   0  0  0  0  0  0  0  0  0  0  0  0
  -17.7342   18.8508  -20.9435 C   0  0  0  0  0  0  0  0  0  0  0  0
  -17.0181   17.6004  -20.3886 C   0  0  0  0  0  0  0  0  0  0  0  0
  -16.2131   17.0483  -21.3701 O   0  0  0  0  0  0  0  0  0  0  0  0
  -18.2267   18.1890  -14.8826 H   0  0  0  0  0  0  0  0  0  0  0  0
  -16.2947   17.5826  -22.2029 H   0  0  0  0  0  0  0  0  0  0  0  0
  2  1  1  0  0  0
  2  3  1  0  0  0
  3  4  1  0  0  0
  4  5  1  0  0  0
  5  6  1  0  0  0
  6  7  1  0  0  0
  7  8  1  0  0  0
  8  9  1  0  0  0
  9 10  1  0  0  0
  9 11  1  0  0  0
 11 12  1  0  0  0
 12 13  1  0  0  0
 13 14  1  0  0  0
 14 15  1  0  0  0
 14 16  1  0  0  0
 16 17  1  0  0  0
 17 18  1  0  0  0
 18 19  1  0  0  0
 19 20  1  0  0  0
 16  2  1  0  0  0
 19  2  1  0  0  0
 14  4  1  0  0  0
 13  7  1  0  0  0
 10 21  1  0  0  0
 20 22  1  0  0  0
M  END
> <minimizedAffinity>
-5.39412

> <CNNscore>
0.2907211781

> <CNNaffinity>
4.9929838181

> <CNN_VS>
1.4515661001

> <CNNaffinity_variance>
0.0266827643

$$$$
[H]O[C@@]1([H])C([H])([H])C([H])([H])[C@@]2([H])[C@]3(C([H])([H])[H])[C@]([H])(C([H])([H])C([H])([H])[C@]2([H])C1([H])[H])C([H])([H])[C@]1(C([H])([H])[H])[C@@]([H])(O[H])C([H])([H])C([H])([H])[C@@]13[H]


 22 25  0  0  0  0  0  0  0  0999 V2000
  -20.9923   17.8915  -23.1915 C   0  0  0  0  0  0  0  0  0  0  0  0
  -20.8303   18.4640  -21.8174 C   0  0  0  0  0  0  0  0  0  0  0  0
  -19.4679   18.1964  -21.2433 C   0  0  0  0  0  0  0  0  0  0  0  0
  -19.6958   16.7006  -20.9890 C   0  0  0  0  0  0  0  0  0  0  0  0
  -18.5564   15.9386  -20.5718 C   0  0  0  0  0  0  0  0  0  0  0  0
  -18.5136   15.4594  -19.1628 C   0  0  0  0  0  0  0  0  0  0  0  0
  -19.1373   16.5597  -18.3219 C   0  0  0  0  0  0  0  0  0  0  0  0
  -18.9659   16.0413  -16.8923 C   0  0  0  0  0  0  0  0  0  0  0  0
  -19.4185   17.1615  -15.9923 C   0  0  0  0  0  0  0  0  0  0  0  0
  -18.6662   18.2915  -16.0853 O   0  0  0  0  0  0  0  0  0  0  0  0
  -20.8819   17.3434  -16.2822 C   0  0  0  0  0  0  0  0  0  0  0  0
  -21.1024   17.8096  -17.7355 C   0  0  0  0  0  0  0  0  0  0  0  0
  -20.6364   16.7172  -18.6553 C   0  0  0  0  0  0  0  0  0  0  0  0
  -20.9381   16.7554  -20.0723 C   0  0  0  0  0  0  0  0  0  0  0  0
  -21.5817   15.3710  -20.3982 C   0  0  0  0  0  0  0  0  0  0  0  0
  -21.7075   17.7519  -20.7631 C   0  0  0  0  0  0  0  0  0  0  0  0
  -22.4163   18.8814  -20.1653 C   0  0  0  0  0  0  0  0  0  0  0  0
  -22.7196   19.7298  -21.4293 C   0  0  0  0  0  0  0  0  0  0  0  0
  -21.2441   19.8881  -21.8559 C   0  0  0  0  0  0  0  0  0  0  0  0
  -21.1803   20.4535  -23.1178 O   0  0  0  0  0  0  0  0  0  0  0  0
  -18.7104   18.7996  -16.9043 H   0  0  0  0  0  0  0  0  0  0  0  0
  -22.1004   20.6145  -23.4542 H   0  0  0  0  0  0  0  0  0  0  0  0
  2  1  1  0  0  0
  2  3  1  0  0  0
  3  4  1  0  0  0
  4  5  1  0  0  0
  5  6  1  0  0  0
  6  7  1  0  0  0
  7  8  1  0  0  0
  8  9  1  0  0  0
  9 10  1  0  0  0
  9 11  1  0  0  0
 11 12  1  0  0  0
 12 13  1  0  0  0
 13 14  1  0  0  0
 14 15  1  0  0  0
 14 16  1  0  0  0
 16 17  1  0  0  0
 17 18  1  0  0  0
 18 19  1  0  0  0
 19 20  1  0  0  0
 16  2  1  0  0  0
 19  2  1  0  0  0
 14  4  1  0  0  0
 13  7  1  0  0  0
 10 21  1  0  0  0
 20 22  1  0  0  0
M  END
> <minimizedAffinity>
-5.08614

> <CNNscore>
0.2810841203

> <CNNaffinity>
4.9735269547

> <CNN_VS>
1.3979794979

> <CNNaffinity_variance>
0.1442991048

$$$$
[H]O[C@@]1([H])C([H])([H])C([H])([H])[C@@]2([H])[C@]3(C([H])([H])[H])[C@]([H])(C([H])([H])C([H])([H])[C@]2([H])C1([H])[H])C([H])([H])[C@]1(C([H])([H])[H])[C@@]([H])(O[H])C([H])([H])C([H])([H])[C@@]13[H]


 22 25  0  0  0  0  0  0  0  0999 V2000
  -15.0423   14.7854  -25.8924 C   0  0  0  0  0  0  0  0  0  0  0  0
  -15.6591   15.2332  -24.6036 C   0  0  0  0  0  0  0  0  0  0  0  0
  -15.1151   14.4859  -23.4192 C   0  0  0  0  0  0  0  0  0  0  0  0
  -15.8319   13.1642  -23.7249 C   0  0  0  0  0  0  0  0  0  0  0  0
  -15.4766   12.0377  -22.9139 C   0  0  0  0  0  0  0  0  0  0  0  0
  -16.4753   11.5447  -21.9258 C   0  0  0  0  0  0  0  0  0  0  0  0
  -17.1788   12.7767  -21.3838 C   0  0  0  0  0  0  0  0  0  0  0  0
  -18.1083   12.2010  -20.3130 C   0  0  0  0  0  0  0  0  0  0  0  0
  -18.7213   13.3895  -19.6191 C   0  0  0  0  0  0  0  0  0  0  0  0
  -17.8252   14.1792  -18.9673 O   0  0  0  0  0  0  0  0  0  0  0  0
  -19.5428   14.0866  -20.6667 C   0  0  0  0  0  0  0  0  0  0  0  0
  -18.6472   14.6317  -21.7975 C   0  0  0  0  0  0  0  0  0  0  0  0
  -18.0046   13.4649  -22.4918 C   0  0  0  0  0  0  0  0  0  0  0  0
  -17.3021   13.6382  -23.7476 C   0  0  0  0  0  0  0  0  0  0  0  0
  -17.9170   12.5810  -24.7178 C   0  0  0  0  0  0  0  0  0  0  0  0
  -17.1539   14.8578  -24.4911 C   0  0  0  0  0  0  0  0  0  0  0  0
  -17.7550   16.1527  -24.1787 C   0  0  0  0  0  0  0  0  0  0  0  0
  -16.9412   17.0802  -25.1204 C   0  0  0  0  0  0  0  0  0  0  0  0
  -15.5622   16.7118  -24.5315 C   0  0  0  0  0  0  0  0  0  0  0  0
  -14.5586   17.2442  -25.3224 O   0  0  0  0  0  0  0  0  0  0  0  0
  -17.1988   14.6871  -19.4971 H   0  0  0  0  0  0  0  0  0  0  0  0
  -14.9640   17.7294  -26.0879 H   0  0  0  0  0  0  0  0  0  0  0  0
  2  1  1  0  0  0
  2  3  1  0  0  0
  3  4  1  0  0  0
  4  5  1  0  0  0
  5  6  1  0  0  0
  6  7  1  0  0  0
  7  8  1  0  0  0
  8  9  1  0  0  0
  9 10  1  0  0  0
  9 11  1  0  0  0
 11 12  1  0  0  0
 12 13  1  0  0  0
 13 14  1  0  0  0
 14 15  1  0  0  0
 14 16  1  0  0  0
 16 17  1  0  0  0
 17 18  1  0  0  0
 18 19  1  0  0  0
 19 20  1  0  0  0
 16  2  1  0  0  0
 19  2  1  0  0  0
 14  4  1  0  0  0
 13  7  1  0  0  0
 10 21  1  0  0  0
 20 22  1  0  0  0
M  END
> <minimizedAffinity>
-7.85496

> <CNNscore>
0.2735019326

> <CNNaffinity>
5.7417335510

> <CNN_VS>
1.5703752041

> <CNNaffinity_variance>
0.0483938344

$$$$
[H]O[C@@]1([H])C([H])([H])C([H])([H])[C@@]2([H])[C@]3(C([H])([H])[H])[C@]([H])(C([H])([H])C([H])([H])[C@]2([H])C1([H])[H])C([H])([H])[C@]1(C([H])([H])[H])[C@@]([H])(O[H])C([H])([H])C([H])([H])[C@@]13[H]


 22 25  0  0  0  0  0  0  0  0999 V2000
  -19.7310   17.3506  -19.2081 C   0  0  0  0  0  0  0  0  0  0  0  0
  -18.9772   16.2516  -18.5256 C   0  0  0  0  0  0  0  0  0  0  0  0
  -17.8234   15.7528  -19.3485 C   0  0  0  0  0  0  0  0  0  0  0  0
  -18.6787   15.0158  -20.3875 C   0  0  0  0  0  0  0  0  0  0  0  0
  -17.9909   14.4868  -21.5277 C   0  0  0  0  0  0  0  0  0  0  0  0
  -17.8396   13.0092  -21.6295 C   0  0  0  0  0  0  0  0  0  0  0  0
  -17.6195   12.5073  -20.2132 C   0  0  0  0  0  0  0  0  0  0  0  0
  -17.3743   11.0097  -20.4113 C   0  0  0  0  0  0  0  0  0  0  0  0
  -16.9865   10.4744  -19.0575 C   0  0  0  0  0  0  0  0  0  0  0  0
  -15.8296   10.9921  -18.5625 O   0  0  0  0  0  0  0  0  0  0  0  0
  -18.1963   10.6683  -18.1873 C   0  0  0  0  0  0  0  0  0  0  0  0
  -18.5139   12.1669  -18.0103 C   0  0  0  0  0  0  0  0  0  0  0  0
  -18.8818   12.7311  -19.3531 C   0  0  0  0  0  0  0  0  0  0  0  0
  -19.4665   14.0517  -19.4729 C   0  0  0  0  0  0  0  0  0  0  0  0
  -20.7596   13.8585  -20.3259 C   0  0  0  0  0  0  0  0  0  0  0  0
  -19.7978   14.9481  -18.4010 C   0  0  0  0  0  0  0  0  0  0  0  0
  -19.6950   14.6768  -16.9688 C   0  0  0  0  0  0  0  0  0  0  0  0
  -19.8493   16.1106  -16.3944 C   0  0  0  0  0  0  0  0  0  0  0  0
  -18.6412   16.7019  -17.1526 C   0  0  0  0  0  0  0  0  0  0  0  0
  -18.6249   18.0782  -17.0055 O   0  0  0  0  0  0  0  0  0  0  0  0
  -15.8222   11.9222  -18.3061 H   0  0  0  0  0  0  0  0  0  0  0  0
  -19.4010   18.3604  -16.4544 H   0  0  0  0  0  0  0  0  0  0  0  0
  2  1  1  0  0  0
  2  3  1  0  0  0
  3  4  1  0  0  0
  4  5  1  0  0  0
  5  6  1  0  0  0
  6  7  1  0  0  0
  7  8  1  0  0  0
  8  9  1  0  0  0
  9 10  1  0  0  0
  9 11  1  0  0  0
 11 12  1  0  0  0
 12 13  1  0  0  0
 13 14  1  0  0  0
 14 15  1  0  0  0
 14 16  1  0  0  0
 16 17  1  0  0  0
 17 18  1  0  0  0
 18 19  1  0  0  0
 19 20  1  0  0  0
 16  2  1  0  0  0
 19  2  1  0  0  0
 14  4  1  0  0  0
 13  7  1  0  0  0
 10 21  1  0  0  0
 20 22  1  0  0  0
M  END
> <minimizedAffinity>
-7.90867

> <CNNscore>
0.2636988163

> <CNNaffinity>
5.3031644821

> <CNN_VS>
1.3984382153

> <CNNaffinity_variance>
0.0866842866

$$$$
[H]O[C@@]1([H])C([H])([H])C([H])([H])[C@@]2([H])[C@]3(C([H])([H])[H])[C@]([H])(C([H])([H])C([H])([H])[C@]2([H])C1([H])[H])C([H])([H])[C@]1(C([H])([H])[H])[C@@]([H])(O[H])C([H])([H])C([H])([H])[C@@]13[H]


 22 25  0  0  0  0  0  0  0  0999 V2000
  -17.4648   16.3177  -20.5762 C   0  0  0  0  0  0  0  0  0  0  0  0
  -18.3748   16.7513  -19.4691 C   0  0  0  0  0  0  0  0  0  0  0  0
  -18.0882   16.0356  -18.1796 C   0  0  0  0  0  0  0  0  0  0  0  0
  -18.6679   14.6844  -18.6180 C   0  0  0  0  0  0  0  0  0  0  0  0
  -18.4661   13.5792  -17.7286 C   0  0  0  0  0  0  0  0  0  0  0  0
  -19.6450   13.0555  -16.9854 C   0  0  0  0  0  0  0  0  0  0  0  0
  -20.4978   14.2633  -16.6382 C   0  0  0  0  0  0  0  0  0  0  0  0
  -21.6253   13.6602  -15.7973 C   0  0  0  0  0  0  0  0  0  0  0  0
  -22.4230   14.8293  -15.2810 C   0  0  0  0  0  0  0  0  0  0  0  0
  -21.7283   15.6589  -14.4560 O   0  0  0  0  0  0  0  0  0  0  0  0
  -23.0090   15.4851  -16.4996 C   0  0  0  0  0  0  0  0  0  0  0  0
  -21.8997   16.0558  -17.4061 C   0  0  0  0  0  0  0  0  0  0  0  0
  -21.0739   14.9095  -17.9164 C   0  0  0  0  0  0  0  0  0  0  0  0
  -20.1105   15.1001  -18.9823 C   0  0  0  0  0  0  0  0  0  0  0  0
  -20.4493   14.0117  -20.0490 C   0  0  0  0  0  0  0  0  0  0  0  0
  -19.8413   16.3185  -19.6930 C   0  0  0  0  0  0  0  0  0  0  0  0
  -20.5445   17.5913  -19.5473 C   0  0  0  0  0  0  0  0  0  0  0  0
  -19.5718   18.5424  -20.2948 C   0  0  0  0  0  0  0  0  0  0  0  0
  -18.3508   18.2332  -19.4017 C   0  0  0  0  0  0  0  0  0  0  0  0
  -17.2134   18.7981  -19.9525 O   0  0  0  0  0  0  0  0  0  0  0  0
  -21.0166   16.1866  -14.8379 H   0  0  0  0  0  0  0  0  0  0  0  0
  -17.4512   19.2608  -20.7982 H   0  0  0  0  0  0  0  0  0  0  0  0
  2  1  1  0  0  0
  2  3  1  0  0  0
  3  4  1  0  0  0
  4  5  1  0  0  0
  5  6  1  0  0  0
  6  7  1  0  0  0
  7  8  1  0  0  0
  8  9  1  0  0  0
  9 10  1  0  0  0
  9 11  1  0  0  0
 11 12  1  0  0  0
 12 13  1  0  0  0
 13 14  1  0  0  0
 14 15  1  0  0  0
 14 16  1  0  0  0
 16 17  1  0  0  0
 17 18  1  0  0  0
 18 19  1  0  0  0
 19 20  1  0  0  0
 16  2  1  0  0  0
 19  2  1  0  0  0
 14  4  1  0  0  0
 13  7  1  0  0  0
 10 21  1  0  0  0
 20 22  1  0  0  0
M  END
> <minimizedAffinity>
-6.21382

> <CNNscore>
0.2406312674

> <CNNaffinity>
4.8237371445

> <CNN_VS>
1.1607419252

> <CNNaffinity_variance>
0.0773628727

$$$$
[H]O[C@@]1([H])C([H])([H])C([H])([H])[C@@]2([H])[C@]3(C([H])([H])[H])[C@]([H])(C([H])([H])C([H])([H])[C@]2([H])C1([H])[H])C([H])([H])[C@]1(C([H])([H])[H])[C@@]([H])(O[H])C([H])([H])C([H])([H])[C@@]13[H]


 22 25  0  0  0  0  0  0  0  0999 V2000
  -19.4742   17.4869  -17.7774 C   0  0  0  0  0  0  0  0  0  0  0  0
  -19.3132   17.6677  -19.2549 C   0  0  0  0  0  0  0  0  0  0  0  0
  -19.4650   19.1021  -19.6755 C   0  0  0  0  0  0  0  0  0  0  0  0
  -20.9833   19.1674  -19.4651 C   0  0  0  0  0  0  0  0  0  0  0  0
  -21.5950   20.4569  -19.5916 C   0  0  0  0  0  0  0  0  0  0  0  0
  -22.4508   20.7110  -20.7831 C   0  0  0  0  0  0  0  0  0  0  0  0
  -21.7932   19.9801  -21.9407 C   0  0  0  0  0  0  0  0  0  0  0  0
  -22.6665   20.3689  -23.1358 C   0  0  0  0  0  0  0  0  0  0  0  0
  -21.9742   19.8074  -24.3503 C   0  0  0  0  0  0  0  0  0  0  0  0
  -20.7423   20.3355  -24.5852 O   0  0  0  0  0  0  0  0  0  0  0  0
  -22.0063   18.3150  -24.1769 C   0  0  0  0  0  0  0  0  0  0  0  0
  -21.1844   17.8851  -22.9449 C   0  0  0  0  0  0  0  0  0  0  0  0
  -21.8422   18.4530  -21.7197 C   0  0  0  0  0  0  0  0  0  0  0  0
  -21.4472   18.0229  -20.3933 C   0  0  0  0  0  0  0  0  0  0  0  0
  -22.7718   17.6087  -19.6784 C   0  0  0  0  0  0  0  0  0  0  0  0
  -20.4628   17.0296  -20.0667 C   0  0  0  0  0  0  0  0  0  0  0  0
  -19.7228   16.1882  -21.0049 C   0  0  0  0  0  0  0  0  0  0  0  0
  -18.6159   15.6264  -20.0730 C   0  0  0  0  0  0  0  0  0  0  0  0
  -18.0517   17.0057  -19.6690 C   0  0  0  0  0  0  0  0  0  0  0  0
  -17.1378   16.8542  -18.6405 O   0  0  0  0  0  0  0  0  0  0  0  0
  -20.0340   20.1282  -23.9637 H   0  0  0  0  0  0  0  0  0  0  0  0
  -17.0688   15.8936  -18.3992 H   0  0  0  0  0  0  0  0  0  0  0  0
  2  1  1  0  0  0
  2  3  1  0  0  0
  3  4  1  0  0  0
  4  5  1  0  0  0
  5  6  1  0  0  0
  6  7  1  0  0  0
  7  8  1  0  0  0
  8  9  1  0  0  0
  9 10  1  0  0  0
  9 11  1  0  0  0
 11 12  1  0  0  0
 12 13  1  0  0  0
 13 14  1  0  0  0
 14 15  1  0  0  0
 14 16  1  0  0  0
 16 17  1  0  0  0
 17 18  1  0  0  0
 18 19  1  0  0  0
 19 20  1  0  0  0
 16  2  1  0  0  0
 19  2  1  0  0  0
 14  4  1  0  0  0
 13  7  1  0  0  0
 10 21  1  0  0  0
 20 22  1  0  0  0
M  END
> <minimizedAffinity>
-5.17984

> <CNNscore>
0.2399727702

> <CNNaffinity>
4.9038057327

> <CNN_VS>
1.1767798662

> <CNNaffinity_variance>
0.1792936325

$$$$
[H]OC(=O)c1c([H])c(N([H])S(=O)(=O)c2c([H])nc(N([H])c3c([H])c([H])c([H])c(Cl)c3[H])nc2C(F)(F)F)c([H])c([H])c1F


 35 37  0  0  0  0  0  0  0  0999 V2000
  -18.0788   12.7462  -20.1009 C   0  0  0  0  0  0  0  0  0  0  0  0
  -18.4659   13.6808  -21.0741 C   0  0  0  0  0  0  0  0  0  0  0  0
  -17.9957   13.6649  -22.3122 N   0  0  0  0  0  0  0  0  0  0  0  0
  -17.1146   12.7437  -22.7044 C   0  0  0  0  0  0  0  0  0  0  0  0
  -16.7349   11.8312  -21.7574 N   0  0  0  0  0  0  0  0  0  0  0  0
  -17.1701   11.7917  -20.4938 C   0  0  0  0  0  0  0  0  0  0  0  0
  -16.6837   10.7699  -19.5503 C   0  0  0  0  0  0  0  0  0  0  0  0
  -17.5588    9.7569  -19.2697 F   0  0  0  0  0  0  0  0  0  0  0  0
  -16.0752   11.2883  -18.4314 F   0  0  0  0  0  0  0  0  0  0  0  0
  -15.6258   10.1088  -20.2067 F   0  0  0  0  0  0  0  0  0  0  0  0
  -18.7716   12.8622  -18.5466 S   0  0  0  0  0  0  0  0  0  0  0  0
  -19.6195   14.1255  -18.4992 O   0  0  0  0  0  0  0  0  0  0  0  0
  -17.7068   13.1700  -17.4765 O   0  0  0  0  0  0  0  0  0  0  0  0
  -19.7910   11.6109  -18.0270 N   0  0  0  0  0  0  0  0  0  0  0  0
  -20.6470   11.3977  -18.6030 H   0  0  0  0  0  0  0  0  0  0  0  0
  -19.6602   10.3861  -14.5488 C   0  0  0  0  0  0  0  0  0  0  0  0
  -19.8555   11.2424  -15.6094 C   0  0  0  0  0  0  0  0  0  0  0  0
  -19.6165   10.7930  -16.8822 C   0  0  0  0  0  0  0  0  0  0  0  0
  -19.1888    9.5000  -17.0590 C   0  0  0  0  0  0  0  0  0  0  0  0
  -18.9823    8.6136  -16.0194 C   0  0  0  0  0  0  0  0  0  0  0  0
  -19.2343    9.1050  -14.7532 C   0  0  0  0  0  0  0  0  0  0  0  0
  -19.0403    8.2588  -13.7187 F   0  0  0  0  0  0  0  0  0  0  0  0
  -18.8851   10.9567  -12.2689 O   0  0  0  0  0  0  0  0  0  0  0  0
  -19.9199   10.8794  -13.1891 C   0  0  0  0  0  0  0  0  0  0  0  0
  -21.0809   11.2304  -12.8635 O   0  0  0  0  0  0  0  0  0  0  0  0
  -18.2513   10.1965  -12.0872 H   0  0  0  0  0  0  0  0  0  0  0  0
  -16.5557   12.6368  -23.9866 N   0  0  0  0  0  0  0  0  0  0  0  0
  -16.6280   11.6846  -24.4628 H   0  0  0  0  0  0  0  0  0  0  0  0
  -15.9160   13.6367  -24.7200 C   0  0  0  0  0  0  0  0  0  0  0  0
  -14.7138   14.1960  -24.2342 C   0  0  0  0  0  0  0  0  0  0  0  0
  -14.0153   15.1535  -24.8869 C   0  0  0  0  0  0  0  0  0  0  0  0
  -14.4866   15.6171  -26.0863 C   0  0  0  0  0  0  0  0  0  0  0  0
  -15.6459   15.1318  -26.6349 C   0  0  0  0  0  0  0  0  0  0  0  0
  -16.2617   15.7108  -28.1626 Cl  0  0  0  0  0  0  0  0  0  0  0  0
  -16.3389   14.1393  -25.9253 C   0  0  0  0  0  0  0  0  0  0  0  0
 23 24  1  0  0  0
 24 25  2  0  0  0
 24 16  1  0  0  0
 16 17  2  0  0  0
 17 18  1  0  0  0
 18 14  1  0  0  0
 14 11  1  0  0  0
 11 12  2  0  0  0
 11 13  2  0  0  0
 11  1  1  0  0  0
  1  2  2  0  0  0
  2  3  1  0  0  0
  3  4  2  0  0  0
  4 27  1  0  0  0
 27 29  1  0  0  0
 29 30  2  0  0  0
 30 31  1  0  0  0
 31 32  2  0  0  0
 32 33  1  0  0  0
 33 34  1  0  0  0
 33 35  2  0  0  0
  4  5  1  0  0  0
  5  6  2  0  0  0
  6  7  1  0  0  0
  7  8  1  0  0  0
  7  9  1  0  0  0
  7 10  1  0  0  0
 18 19  2  0  0  0
 19 20  1  0  0  0
 20 21  2  0  0  0
 21 22  1  0  0  0
 21 16  1  0  0  0
  6  1  1  0  0  0
 35 29  1  0  0  0
 23 26  1  0  0  0
 14 15  1  0  0  0
 27 28  1  0  0  0
M  END
> <minimizedAffinity>
-9.56682

> <CNNscore>
0.5271072388

> <CNNaffinity>
6.8824396133

> <CNN_VS>
3.6277837753

> <CNNaffinity_variance>
0.1912671924

$$$$
[H]OC(=O)c1c([H])c(N([H])S(=O)(=O)c2c([H])nc(N([H])c3c([H])c([H])c([H])c(Cl)c3[H])nc2C(F)(F)F)c([H])c([H])c1F


 35 37  0  0  0  0  0  0  0  0999 V2000
  -17.9128   13.0497  -20.0547 C   0  0  0  0  0  0  0  0  0  0  0  0
  -16.9437   12.0422  -20.1824 C   0  0  0  0  0  0  0  0  0  0  0  0
  -16.9811   10.9172  -19.4843 N   0  0  0  0  0  0  0  0  0  0  0  0
  -17.9590   10.6801  -18.6088 C   0  0  0  0  0  0  0  0  0  0  0  0
  -18.9052   11.6610  -18.4820 N   0  0  0  0  0  0  0  0  0  0  0  0
  -18.9258   12.8164  -19.1544 C   0  0  0  0  0  0  0  0  0  0  0  0
  -19.9885   13.8118  -18.9298 C   0  0  0  0  0  0  0  0  0  0  0  0
  -19.5688   15.1056  -18.7862 F   0  0  0  0  0  0  0  0  0  0  0  0
  -20.9172   13.4338  -17.9888 F   0  0  0  0  0  0  0  0  0  0  0  0
  -20.7428   13.8483  -20.1201 F   0  0  0  0  0  0  0  0  0  0  0  0
  -17.7627   14.4445  -21.0249 S   0  0  0  0  0  0  0  0  0  0  0  0
  -17.5488   15.6394  -20.1064 O   0  0  0  0  0  0  0  0  0  0  0  0
  -19.1006   14.8114  -21.6951 O   0  0  0  0  0  0  0  0  0  0  0  0
  -16.4976   14.5056  -22.1522 N   0  0  0  0  0  0  0  0  0  0  0  0
  -15.5300   14.7274  -21.7995 H   0  0  0  0  0  0  0  0  0  0  0  0
  -16.1007   14.7875  -25.8099 C   0  0  0  0  0  0  0  0  0  0  0  0
  -15.9571   15.0715  -24.4701 C   0  0  0  0  0  0  0  0  0  0  0  0
  -16.5925   14.2799  -23.5486 C   0  0  0  0  0  0  0  0  0  0  0  0
  -17.3538   13.2267  -23.9926 C   0  0  0  0  0  0  0  0  0  0  0  0
  -17.5204   12.9123  -25.3277 C   0  0  0  0  0  0  0  0  0  0  0  0
  -16.8640   13.7337  -26.2237 C   0  0  0  0  0  0  0  0  0  0  0  0
  -17.0101   13.4483  -27.5355 F   0  0  0  0  0  0  0  0  0  0  0  0
  -14.3377   16.4230  -26.3937 O   0  0  0  0  0  0  0  0  0  0  0  0
  -15.4146   15.6430  -26.7879 C   0  0  0  0  0  0  0  0  0  0  0  0
  -15.8063   15.6656  -27.9809 O   0  0  0  0  0  0  0  0  0  0  0  0
  -14.3576   17.0216  -25.5850 H   0  0  0  0  0  0  0  0  0  0  0  0
  -18.0931    9.5267  -17.8216 N   0  0  0  0  0  0  0  0  0  0  0  0
  -17.4282    8.7203  -18.0365 H   0  0  0  0  0  0  0  0  0  0  0  0
  -18.9963    9.3098  -16.7805 C   0  0  0  0  0  0  0  0  0  0  0  0
  -18.6737    8.3901  -15.7587 C   0  0  0  0  0  0  0  0  0  0  0  0
  -19.4779    8.1318  -14.7016 C   0  0  0  0  0  0  0  0  0  0  0  0
  -20.6747    8.7902  -14.6022 C   0  0  0  0  0  0  0  0  0  0  0  0
  -21.0706    9.7008  -15.5479 C   0  0  0  0  0  0  0  0  0  0  0  0
  -22.5926   10.5494  -15.4375 Cl  0  0  0  0  0  0  0  0  0  0  0  0
  -20.2066    9.9391  -16.6275 C   0  0  0  0  0  0  0  0  0  0  0  0
 23 24  1  0  0  0
 24 25  2  0  0  0
 24 16  1  0  0  0
 16 17  2  0  0  0
 17 18  1  0  0  0
 18 14  1  0  0  0
 14 11  1  0  0  0
 11 12  2  0  0  0
 11 13  2  0  0  0
 11  1  1  0  0  0
  1  2  2  0  0  0
  2  3  1  0  0  0
  3  4  2  0  0  0
  4 27  1  0  0  0
 27 29  1  0  0  0
 29 30  2  0  0  0
 30 31  1  0  0  0
 31 32  2  0  0  0
 32 33  1  0  0  0
 33 34  1  0  0  0
 33 35  2  0  0  0
  4  5  1  0  0  0
  5  6  2  0  0  0
  6  7  1  0  0  0
  7  8  1  0  0  0
  7  9  1  0  0  0
  7 10  1  0  0  0
 18 19  2  0  0  0
 19 20  1  0  0  0
 20 21  2  0  0  0
 21 22  1  0  0  0
 21 16  1  0  0  0
  6  1  1  0  0  0
 35 29  1  0  0  0
 23 26  1  0  0  0
 14 15  1  0  0  0
 27 28  1  0  0  0
M  END
> <minimizedAffinity>
-8.98297

> <CNNscore>
0.5107604265

> <CNNaffinity>
6.9157142639

> <CNN_VS>
3.5322730541

> <CNNaffinity_variance>
0.0597488284

$$$$
[H]OC(=O)c1c([H])c(N([H])S(=O)(=O)c2c([H])nc(N([H])c3c([H])c([H])c([H])c(Cl)c3[H])nc2C(F)(F)F)c([H])c([H])c1F


 35 37  0  0  0  0  0  0  0  0999 V2000
  -18.1241   12.8364  -20.0722 C   0  0  0  0  0  0  0  0  0  0  0  0
  -18.4841   13.7721  -21.0546 C   0  0  0  0  0  0  0  0  0  0  0  0
  -18.0135   13.7313  -22.2920 N   0  0  0  0  0  0  0  0  0  0  0  0
  -17.1582   12.7821  -22.6744 C   0  0  0  0  0  0  0  0  0  0  0  0
  -16.8050   11.8684  -21.7184 N   0  0  0  0  0  0  0  0  0  0  0  0
  -17.2422   11.8531  -20.4550 C   0  0  0  0  0  0  0  0  0  0  0  0
  -16.7854   10.8271  -19.5012 C   0  0  0  0  0  0  0  0  0  0  0  0
  -17.7084    9.8745  -19.1674 F   0  0  0  0  0  0  0  0  0  0  0  0
  -16.1112   11.3351  -18.4158 F   0  0  0  0  0  0  0  0  0  0  0  0
  -15.7900   10.0892  -20.1734 F   0  0  0  0  0  0  0  0  0  0  0  0
  -18.8148   12.9865  -18.5198 S   0  0  0  0  0  0  0  0  0  0  0  0
  -17.7068   13.3509  -17.5418 O   0  0  0  0  0  0  0  0  0  0  0  0
  -19.2685   11.6205  -17.9704 O   0  0  0  0  0  0  0  0  0  0  0  0
  -20.0256   14.1509  -18.2893 N   0  0  0  0  0  0  0  0  0  0  0  0
  -21.0258   13.8651  -18.4559 H   0  0  0  0  0  0  0  0  0  0  0  0
  -19.7622   17.2199  -16.2577 C   0  0  0  0  0  0  0  0  0  0  0  0
  -19.9514   15.8928  -16.5733 C   0  0  0  0  0  0  0  0  0  0  0  0
  -19.8436   15.4963  -17.8811 C   0  0  0  0  0  0  0  0  0  0  0  0
  -19.5496   16.4376  -18.8368 C   0  0  0  0  0  0  0  0  0  0  0  0
  -19.3535   17.7764  -18.5572 C   0  0  0  0  0  0  0  0  0  0  0  0
  -19.4708   18.1350  -17.2283 C   0  0  0  0  0  0  0  0  0  0  0  0
  -19.2838   19.4382  -16.9275 F   0  0  0  0  0  0  0  0  0  0  0  0
  -20.9643   17.2153  -14.0947 O   0  0  0  0  0  0  0  0  0  0  0  0
  -19.8803   17.6327  -14.8524 C   0  0  0  0  0  0  0  0  0  0  0  0
  -18.9971   18.3640  -14.3403 O   0  0  0  0  0  0  0  0  0  0  0  0
  -21.9178   17.2949  -14.4064 H   0  0  0  0  0  0  0  0  0  0  0  0
  -16.6014   12.6474  -23.9550 N   0  0  0  0  0  0  0  0  0  0  0  0
  -16.7004   11.6932  -24.4223 H   0  0  0  0  0  0  0  0  0  0  0  0
  -15.9329   13.6218  -24.6968 C   0  0  0  0  0  0  0  0  0  0  0  0
  -14.7099   14.1429  -24.2205 C   0  0  0  0  0  0  0  0  0  0  0  0
  -13.9834   15.0734  -24.8818 C   0  0  0  0  0  0  0  0  0  0  0  0
  -14.4458   15.5467  -26.0809 C   0  0  0  0  0  0  0  0  0  0  0  0
  -15.6238   15.0978  -26.6206 C   0  0  0  0  0  0  0  0  0  0  0  0
  -16.2287   15.6898  -28.1478 Cl  0  0  0  0  0  0  0  0  0  0  0  0
  -16.3456   14.1325  -25.9023 C   0  0  0  0  0  0  0  0  0  0  0  0
 23 24  1  0  0  0
 24 25  2  0  0  0
 24 16  1  0  0  0
 16 17  2  0  0  0
 17 18  1  0  0  0
 18 14  1  0  0  0
 14 11  1  0  0  0
 11 12  2  0  0  0
 11 13  2  0  0  0
 11  1  1  0  0  0
  1  2  2  0  0  0
  2  3  1  0  0  0
  3  4  2  0  0  0
  4 27  1  0  0  0
 27 29  1  0  0  0
 29 30  2  0  0  0
 30 31  1  0  0  0
 31 32  2  0  0  0
 32 33  1  0  0  0
 33 34  1  0  0  0
 33 35  2  0  0  0
  4  5  1  0  0  0
  5  6  2  0  0  0
  6  7  1  0  0  0
  7  8  1  0  0  0
  7  9  1  0  0  0
  7 10  1  0  0  0
 18 19  2  0  0  0
 19 20  1  0  0  0
 20 21  2  0  0  0
 21 22  1  0  0  0
 21 16  1  0  0  0
  6  1  1  0  0  0
 35 29  1  0  0  0
 23 26  1  0  0  0
 14 15  1  0  0  0
 27 28  1  0  0  0
M  END
> <minimizedAffinity>
-9.47622

> <CNNscore>
0.4882821739

> <CNNaffinity>
6.9002928734

> <CNN_VS>
3.3692901134

> <CNNaffinity_variance>
0.2536552548

$$$$
[H]OC(=O)c1c([H])c(N([H])S(=O)(=O)c2c([H])nc(N([H])c3c([H])c([H])c([H])c(Cl)c3[H])nc2C(F)(F)F)c([H])c([H])c1F


 35 37  0  0  0  0  0  0  0  0999 V2000
  -18.0552   12.6102  -19.8022 C   0  0  0  0  0  0  0  0  0  0  0  0
  -17.4654   11.4273  -20.2746 C   0  0  0  0  0  0  0  0  0  0  0  0
  -16.8125   11.3600  -21.4251 N   0  0  0  0  0  0  0  0  0  0  0  0
  -16.6799   12.4320  -22.2073 C   0  0  0  0  0  0  0  0  0  0  0  0
  -17.2543   13.5869  -21.7494 N   0  0  0  0  0  0  0  0  0  0  0  0
  -17.9252   13.7222  -20.6009 C   0  0  0  0  0  0  0  0  0  0  0  0
  -18.5169   15.0135  -20.2097 C   0  0  0  0  0  0  0  0  0  0  0  0
  -18.0534   15.5482  -19.0392 F   0  0  0  0  0  0  0  0  0  0  0  0
  -19.8867   15.0566  -20.3223 F   0  0  0  0  0  0  0  0  0  0  0  0
  -18.0915   15.9441  -21.1793 F   0  0  0  0  0  0  0  0  0  0  0  0
  -18.8524   12.5712  -18.2949 S   0  0  0  0  0  0  0  0  0  0  0  0
  -20.2178   13.2225  -18.4643 O   0  0  0  0  0  0  0  0  0  0  0  0
  -18.1863   13.5202  -17.2803 O   0  0  0  0  0  0  0  0  0  0  0  0
  -19.1543   11.0609  -17.5856 N   0  0  0  0  0  0  0  0  0  0  0  0
  -18.5997   10.2332  -17.9278 H   0  0  0  0  0  0  0  0  0  0  0  0
  -21.7610   11.3854  -14.9942 C   0  0  0  0  0  0  0  0  0  0  0  0
  -20.8832   11.7409  -15.9939 C   0  0  0  0  0  0  0  0  0  0  0  0
  -20.0848   10.7776  -16.5542 C   0  0  0  0  0  0  0  0  0  0  0  0
  -20.1865    9.4858  -16.0993 C   0  0  0  0  0  0  0  0  0  0  0  0
  -21.0550    9.0931  -15.0990 C   0  0  0  0  0  0  0  0  0  0  0  0
  -21.8416   10.0931  -14.5609 C   0  0  0  0  0  0  0  0  0  0  0  0
  -22.6997    9.7361  -13.5811 F   0  0  0  0  0  0  0  0  0  0  0  0
  -23.9319   12.5584  -14.8055 O   0  0  0  0  0  0  0  0  0  0  0  0
  -22.6116   12.4269  -14.4016 C   0  0  0  0  0  0  0  0  0  0  0  0
  -22.1394   13.1967  -13.5290 O   0  0  0  0  0  0  0  0  0  0  0  0
  -24.2112   12.5990  -15.7714 H   0  0  0  0  0  0  0  0  0  0  0  0
  -16.0108   12.4702  -23.4398 N   0  0  0  0  0  0  0  0  0  0  0  0
  -15.6413   11.5413  -23.8131 H   0  0  0  0  0  0  0  0  0  0  0  0
  -15.7739   13.5862  -24.2429 C   0  0  0  0  0  0  0  0  0  0  0  0
  -14.9741   14.6410  -23.7514 C   0  0  0  0  0  0  0  0  0  0  0  0
  -14.6748   15.7504  -24.4660 C   0  0  0  0  0  0  0  0  0  0  0  0
  -15.1671   15.8727  -25.7382 C   0  0  0  0  0  0  0  0  0  0  0  0
  -15.9525   14.8979  -26.2979 C   0  0  0  0  0  0  0  0  0  0  0  0
  -16.5887   15.0368  -27.9179 Cl  0  0  0  0  0  0  0  0  0  0  0  0
  -16.2382   13.7639  -25.5225 C   0  0  0  0  0  0  0  0  0  0  0  0
 23 24  1  0  0  0
 24 25  2  0  0  0
 24 16  1  0  0  0
 16 17  2  0  0  0
 17 18  1  0  0  0
 18 14  1  0  0  0
 14 11  1  0  0  0
 11 12  2  0  0  0
 11 13  2  0  0  0
 11  1  1  0  0  0
  1  2  2  0  0  0
  2  3  1  0  0  0
  3  4  2  0  0  0
  4 27  1  0  0  0
 27 29  1  0  0  0
 29 30  2  0  0  0
 30 31  1  0  0  0
 31 32  2  0  0  0
 32 33  1  0  0  0
 33 34  1  0  0  0
 33 35  2  0  0  0
  4  5  1  0  0  0
  5  6  2  0  0  0
  6  7  1  0  0  0
  7  8  1  0  0  0
  7  9  1  0  0  0
  7 10  1  0  0  0
 18 19  2  0  0  0
 19 20  1  0  0  0
 20 21  2  0  0  0
 21 22  1  0  0  0
 21 16  1  0  0  0
  6  1  1  0  0  0
 35 29  1  0  0  0
 23 26  1  0  0  0
 14 15  1  0  0  0
 27 28  1  0  0  0
M  END
> <minimizedAffinity>
-8.19022

> <CNNscore>
0.4510601163

> <CNNaffinity>
6.7427916527

> <CNN_VS>
3.0414044857

> <CNNaffinity_variance>
0.0926962644

$$$$
[H]OC(=O)c1c([H])c(N([H])S(=O)(=O)c2c([H])nc(N([H])c3c([H])c([H])c([H])c(Cl)c3[H])nc2C(F)(F)F)c([H])c([H])c1F


 35 37  0  0  0  0  0  0  0  0999 V2000
  -18.0864   12.8009  -20.1305 C   0  0  0  0  0  0  0  0  0  0  0  0
  -18.4223   13.7378  -21.1204 C   0  0  0  0  0  0  0  0  0  0  0  0
  -17.9173   13.7016  -22.3444 N   0  0  0  0  0  0  0  0  0  0  0  0
  -17.0483   12.7564  -22.7050 C   0  0  0  0  0  0  0  0  0  0  0  0
  -16.7185   11.8417  -21.7417 N   0  0  0  0  0  0  0  0  0  0  0  0
  -17.1906   11.8217  -20.4910 C   0  0  0  0  0  0  0  0  0  0  0  0
  -16.7567   10.7951  -19.5273 C   0  0  0  0  0  0  0  0  0  0  0  0
  -17.7102    9.8863  -19.1591 F   0  0  0  0  0  0  0  0  0  0  0  0
  -16.0422   11.2946  -18.4639 F   0  0  0  0  0  0  0  0  0  0  0  0
  -15.8045   10.0063  -20.2042 F   0  0  0  0  0  0  0  0  0  0  0  0
  -18.8204   12.9448  -18.5976 S   0  0  0  0  0  0  0  0  0  0  0  0
  -17.7326   13.2546  -17.5789 O   0  0  0  0  0  0  0  0  0  0  0  0
  -19.3350   11.5845  -18.0893 O   0  0  0  0  0  0  0  0  0  0  0  0
  -19.9997   14.1439  -18.3820 N   0  0  0  0  0  0  0  0  0  0  0  0
  -21.0072   13.8831  -18.5463 H   0  0  0  0  0  0  0  0  0  0  0  0
  -19.1559   17.7359  -18.4012 C   0  0  0  0  0  0  0  0  0  0  0  0
  -19.3453   16.4518  -18.8612 C   0  0  0  0  0  0  0  0  0  0  0  0
  -19.7821   15.4886  -17.9891 C   0  0  0  0  0  0  0  0  0  0  0  0
  -20.0172   15.8361  -16.6815 C   0  0  0  0  0  0  0  0  0  0  0  0
  -19.8383   17.1131  -16.1852 C   0  0  0  0  0  0  0  0  0  0  0  0
  -19.3975   18.0541  -17.0955 C   0  0  0  0  0  0  0  0  0  0  0  0
  -19.2144   19.3107  -16.6363 F   0  0  0  0  0  0  0  0  0  0  0  0
  -17.3297   18.9236  -19.5752 O   0  0  0  0  0  0  0  0  0  0  0  0
  -18.6876   18.7597  -19.3456 C   0  0  0  0  0  0  0  0  0  0  0  0
  -19.5203   19.4851  -19.9435 O   0  0  0  0  0  0  0  0  0  0  0  0
  -16.6523   19.0099  -18.8360 H   0  0  0  0  0  0  0  0  0  0  0  0
  -16.4557   12.6268  -23.9700 N   0  0  0  0  0  0  0  0  0  0  0  0
  -16.4750   11.6551  -24.4106 H   0  0  0  0  0  0  0  0  0  0  0  0
  -15.8438   13.6262  -24.7272 C   0  0  0  0  0  0  0  0  0  0  0  0
  -14.6374   14.2035  -24.2741 C   0  0  0  0  0  0  0  0  0  0  0  0
  -13.9643   15.1620  -24.9517 C   0  0  0  0  0  0  0  0  0  0  0  0
  -14.4675   15.6083  -26.1446 C   0  0  0  0  0  0  0  0  0  0  0  0
  -15.6333   15.1049  -26.6623 C   0  0  0  0  0  0  0  0  0  0  0  0
  -16.2896   15.6618  -28.1814 Cl  0  0  0  0  0  0  0  0  0  0  0  0
  -16.2992   14.1120  -25.9276 C   0  0  0  0  0  0  0  0  0  0  0  0
 23 24  1  0  0  0
 24 25  2  0  0  0
 24 16  1  0  0  0
 16 17  2  0  0  0
 17 18  1  0  0  0
 18 14  1  0  0  0
 14 11  1  0  0  0
 11 12  2  0  0  0
 11 13  2  0  0  0
 11  1  1  0  0  0
  1  2  2  0  0  0
  2  3  1  0  0  0
  3  4  2  0  0  0
  4 27  1  0  0  0
 27 29  1  0  0  0
 29 30  2  0  0  0
 30 31  1  0  0  0
 31 32  2  0  0  0
 32 33  1  0  0  0
 33 34  1  0  0  0
 33 35  2  0  0  0
  4  5  1  0  0  0
  5  6  2  0  0  0
  6  7  1  0  0  0
  7  8  1  0  0  0
  7  9  1  0  0  0
  7 10  1  0  0  0
 18 19  2  0  0  0
 19 20  1  0  0  0
 20 21  2  0  0  0
 21 22  1  0  0  0
 21 16  1  0  0  0
  6  1  1  0  0  0
 35 29  1  0  0  0
 23 26  1  0  0  0
 14 15  1  0  0  0
 27 28  1  0  0  0
M  END
> <minimizedAffinity>
-9.35051

> <CNNscore>
0.4437043071

> <CNNaffinity>
7.0224685669

> <CNN_VS>
3.1158995628

> <CNNaffinity_variance>
0.2393642217

$$$$
[H]OC(=O)c1c([H])c(N([H])S(=O)(=O)c2c([H])nc(N([H])c3c([H])c([H])c([H])c(Cl)c3[H])nc2C(F)(F)F)c([H])c([H])c1F


 35 37  0  0  0  0  0  0  0  0999 V2000
  -18.3719   13.5644  -19.8422 C   0  0  0  0  0  0  0  0  0  0  0  0
  -18.5453   14.5240  -20.8518 C   0  0  0  0  0  0  0  0  0  0  0  0
  -18.1063   14.3516  -22.0895 N   0  0  0  0  0  0  0  0  0  0  0  0
  -17.4655   13.2375  -22.4459 C   0  0  0  0  0  0  0  0  0  0  0  0
  -17.2945   12.3001  -21.4633 N   0  0  0  0  0  0  0  0  0  0  0  0
  -17.7119   12.4115  -20.1981 C   0  0  0  0  0  0  0  0  0  0  0  0
  -17.4622   11.3431  -19.2147 C   0  0  0  0  0  0  0  0  0  0  0  0
  -18.5669   10.8640  -18.5659 F   0  0  0  0  0  0  0  0  0  0  0  0
  -16.4042   11.5953  -18.3734 F   0  0  0  0  0  0  0  0  0  0  0  0
  -17.0168   10.2303  -19.9565 F   0  0  0  0  0  0  0  0  0  0  0  0
  -19.0007   13.8978  -18.2921 S   0  0  0  0  0  0  0  0  0  0  0  0
  -17.9362   13.5441  -17.2631 O   0  0  0  0  0  0  0  0  0  0  0  0
  -20.1256   12.9142  -17.9168 O   0  0  0  0  0  0  0  0  0  0  0  0
  -19.4626   15.4906  -17.9390 N   0  0  0  0  0  0  0  0  0  0  0  0
  -18.7238   16.1543  -17.5877 H   0  0  0  0  0  0  0  0  0  0  0  0
  -22.9661   16.4698  -17.3209 C   0  0  0  0  0  0  0  0  0  0  0  0
  -21.7300   15.8985  -17.1160 C   0  0  0  0  0  0  0  0  0  0  0  0
  -20.7591   16.0484  -18.0722 C   0  0  0  0  0  0  0  0  0  0  0  0
  -21.0514   16.7653  -19.2064 C   0  0  0  0  0  0  0  0  0  0  0  0
  -22.2794   17.3518  -19.4456 C   0  0  0  0  0  0  0  0  0  0  0  0
  -23.2297   17.1776  -18.4583 C   0  0  0  0  0  0  0  0  0  0  0  0
  -24.4391   17.7410  -18.6671 F   0  0  0  0  0  0  0  0  0  0  0  0
  -24.6096   15.0699  -16.1112 O   0  0  0  0  0  0  0  0  0  0  0  0
  -23.9985   16.3022  -16.2887 C   0  0  0  0  0  0  0  0  0  0  0  0
  -24.3252   17.2777  -15.5684 O   0  0  0  0  0  0  0  0  0  0  0  0
  -24.9966   14.5325  -16.8690 H   0  0  0  0  0  0  0  0  0  0  0  0
  -16.9616   12.9545  -23.7242 N   0  0  0  0  0  0  0  0  0  0  0  0
  -17.2283   12.0114  -24.1461 H   0  0  0  0  0  0  0  0  0  0  0  0
  -16.1511   13.7681  -24.5165 C   0  0  0  0  0  0  0  0  0  0  0  0
  -14.8734   14.1456  -24.0486 C   0  0  0  0  0  0  0  0  0  0  0  0
  -14.0129   14.9136  -24.7561 C   0  0  0  0  0  0  0  0  0  0  0  0
  -14.3864   15.3579  -25.9966 C   0  0  0  0  0  0  0  0  0  0  0  0
  -15.6084   15.0407  -26.5318 C   0  0  0  0  0  0  0  0  0  0  0  0
  -16.1015   15.5981  -28.1113 Cl  0  0  0  0  0  0  0  0  0  0  0  0
  -16.4701   14.2418  -25.7648 C   0  0  0  0  0  0  0  0  0  0  0  0
 23 24  1  0  0  0
 24 25  2  0  0  0
 24 16  1  0  0  0
 16 17  2  0  0  0
 17 18  1  0  0  0
 18 14  1  0  0  0
 14 11  1  0  0  0
 11 12  2  0  0  0
 11 13  2  0  0  0
 11  1  1  0  0  0
  1  2  2  0  0  0
  2  3  1  0  0  0
  3  4  2  0  0  0
  4 27  1  0  0  0
 27 29  1  0  0  0
 29 30  2  0  0  0
 30 31  1  0  0  0
 31 32  2  0  0  0
 32 33  1  0  0  0
 33 34  1  0  0  0
 33 35  2  0  0  0
  4  5  1  0  0  0
  5  6  2  0  0  0
  6  7  1  0  0  0
  7  8  1  0  0  0
  7  9  1  0  0  0
  7 10  1  0  0  0
 18 19  2  0  0  0
 19 20  1  0  0  0
 20 21  2  0  0  0
 21 22  1  0  0  0
 21 16  1  0  0  0
  6  1  1  0  0  0
 35 29  1  0  0  0
 23 26  1  0  0  0
 14 15  1  0  0  0
 27 28  1  0  0  0
M  END
> <minimizedAffinity>
-8.32007

> <CNNscore>
0.4234755933

> <CNNaffinity>
6.9546003342

> <CNN_VS>
2.9451034069

> <CNNaffinity_variance>
0.1012937799

$$$$
[H]OC(=O)c1c([H])c(N([H])S(=O)(=O)c2c([H])nc(N([H])c3c([H])c([H])c([H])c(Cl)c3[H])nc2C(F)(F)F)c([H])c([H])c1F


 35 37  0  0  0  0  0  0  0  0999 V2000
  -18.0786   13.2476  -20.1392 C   0  0  0  0  0  0  0  0  0  0  0  0
  -18.3417   14.1997  -21.1365 C   0  0  0  0  0  0  0  0  0  0  0  0
  -17.8972   14.0803  -22.3786 N   0  0  0  0  0  0  0  0  0  0  0  0
  -17.1638   13.0306  -22.7515 C   0  0  0  0  0  0  0  0  0  0  0  0
  -16.9054   12.1006  -21.7809 N   0  0  0  0  0  0  0  0  0  0  0  0
  -17.3227   12.1609  -20.5122 C   0  0  0  0  0  0  0  0  0  0  0  0
  -16.9744   11.1074  -19.5429 C   0  0  0  0  0  0  0  0  0  0  0  0
  -18.0226   10.3681  -19.0680 F   0  0  0  0  0  0  0  0  0  0  0  0
  -16.1094   11.5203  -18.5569 F   0  0  0  0  0  0  0  0  0  0  0  0
  -16.2107   10.1616  -20.2565 F   0  0  0  0  0  0  0  0  0  0  0  0
  -18.7242   13.5073  -18.5820 S   0  0  0  0  0  0  0  0  0  0  0  0
  -19.1773   14.9577  -18.4930 O   0  0  0  0  0  0  0  0  0  0  0  0
  -17.6259   13.4647  -17.5023 O   0  0  0  0  0  0  0  0  0  0  0  0
  -20.0628   12.5829  -18.1038 N   0  0  0  0  0  0  0  0  0  0  0  0
  -20.9333   12.6286  -18.6956 H   0  0  0  0  0  0  0  0  0  0  0  0
  -19.7589    9.6873  -15.8370 C   0  0  0  0  0  0  0  0  0  0  0  0
  -19.6362   10.4559  -16.9730 C   0  0  0  0  0  0  0  0  0  0  0  0
  -20.1458   11.7286  -16.9755 C   0  0  0  0  0  0  0  0  0  0  0  0
  -20.7638   12.1970  -15.8421 C   0  0  0  0  0  0  0  0  0  0  0  0
  -20.9050   11.4548  -14.6853 C   0  0  0  0  0  0  0  0  0  0  0  0
  -20.3783   10.1783  -14.7236 C   0  0  0  0  0  0  0  0  0  0  0  0
  -20.5029    9.4313  -13.6055 F   0  0  0  0  0  0  0  0  0  0  0  0
  -17.8553    8.1240  -16.0743 O   0  0  0  0  0  0  0  0  0  0  0  0
  -19.2086    8.3248  -15.8465 C   0  0  0  0  0  0  0  0  0  0  0  0
  -19.9670    7.3438  -15.6479 O   0  0  0  0  0  0  0  0  0  0  0  0
  -17.3570    8.5453  -16.8404 H   0  0  0  0  0  0  0  0  0  0  0  0
  -16.6454   12.8070  -24.0357 N   0  0  0  0  0  0  0  0  0  0  0  0
  -16.7757   11.8287  -24.4412 H   0  0  0  0  0  0  0  0  0  0  0  0
  -15.9790   13.7206  -24.8530 C   0  0  0  0  0  0  0  0  0  0  0  0
  -14.7001   14.1873  -24.4779 C   0  0  0  0  0  0  0  0  0  0  0  0
  -13.9727   15.0562  -25.2173 C   0  0  0  0  0  0  0  0  0  0  0  0
  -14.4910   15.5185  -26.3976 C   0  0  0  0  0  0  0  0  0  0  0  0
  -15.7256   15.1195  -26.8415 C   0  0  0  0  0  0  0  0  0  0  0  0
  -16.4023   15.6984  -28.3434 Cl  0  0  0  0  0  0  0  0  0  0  0  0
  -16.4463   14.2173  -26.0444 C   0  0  0  0  0  0  0  0  0  0  0  0
 23 24  1  0  0  0
 24 25  2  0  0  0
 24 16  1  0  0  0
 16 17  2  0  0  0
 17 18  1  0  0  0
 18 14  1  0  0  0
 14 11  1  0  0  0
 11 12  2  0  0  0
 11 13  2  0  0  0
 11  1  1  0  0  0
  1  2  2  0  0  0
  2  3  1  0  0  0
  3  4  2  0  0  0
  4 27  1  0  0  0
 27 29  1  0  0  0
 29 30  2  0  0  0
 30 31  1  0  0  0
 31 32  2  0  0  0
 32 33  1  0  0  0
 33 34  1  0  0  0
 33 35  2  0  0  0
  4  5  1  0  0  0
  5  6  2  0  0  0
  6  7  1  0  0  0
  7  8  1  0  0  0
  7  9  1  0  0  0
  7 10  1  0  0  0
 18 19  2  0  0  0
 19 20  1  0  0  0
 20 21  2  0  0  0
 21 22  1  0  0  0
 21 16  1  0  0  0
  6  1  1  0  0  0
 35 29  1  0  0  0
 23 26  1  0  0  0
 14 15  1  0  0  0
 27 28  1  0  0  0
M  END
> <minimizedAffinity>
-9.86369

> <CNNscore>
0.3785536885

> <CNNaffinity>
6.6724762917

> <CNN_VS>
2.5258905888

> <CNNaffinity_variance>
0.2859832644

$$$$
[H]OC(=O)c1c([H])c(N([H])S(=O)(=O)c2c([H])nc(N([H])c3c([H])c([H])c([H])c(Cl)c3[H])nc2C(F)(F)F)c([H])c([H])c1F


 35 37  0  0  0  0  0  0  0  0999 V2000
  -18.1879   12.8499  -20.0248 C   0  0  0  0  0  0  0  0  0  0  0  0
  -18.5271   13.7709  -21.0284 C   0  0  0  0  0  0  0  0  0  0  0  0
  -18.0212   13.7190  -22.2514 N   0  0  0  0  0  0  0  0  0  0  0  0
  -17.1481   12.7722  -22.5978 C   0  0  0  0  0  0  0  0  0  0  0  0
  -16.8152   11.8729  -21.6210 N   0  0  0  0  0  0  0  0  0  0  0  0
  -17.2879   11.8693  -20.3705 C   0  0  0  0  0  0  0  0  0  0  0  0
  -16.8505   10.8586  -19.3917 C   0  0  0  0  0  0  0  0  0  0  0  0
  -17.8187    9.9961  -18.9565 F   0  0  0  0  0  0  0  0  0  0  0  0
  -16.0765   11.3654  -18.3743 F   0  0  0  0  0  0  0  0  0  0  0  0
  -15.9542   10.0156  -20.0796 F   0  0  0  0  0  0  0  0  0  0  0  0
  -18.9235   13.0131  -18.4945 S   0  0  0  0  0  0  0  0  0  0  0  0
  -17.8447   13.3875  -17.4881 O   0  0  0  0  0  0  0  0  0  0  0  0
  -19.3918   11.6516  -17.9464 O   0  0  0  0  0  0  0  0  0  0  0  0
  -20.1415   14.1782  -18.3097 N   0  0  0  0  0  0  0  0  0  0  0  0
  -20.4404   14.7217  -19.1613 H   0  0  0  0  0  0  0  0  0  0  0  0
  -22.0160   13.9620  -15.1388 C   0  0  0  0  0  0  0  0  0  0  0  0
  -21.3634   13.5595  -16.2827 C   0  0  0  0  0  0  0  0  0  0  0  0
  -20.8263   14.5088  -17.1132 C   0  0  0  0  0  0  0  0  0  0  0  0
  -20.9567   15.8338  -16.7768 C   0  0  0  0  0  0  0  0  0  0  0  0
  -21.6042   16.2739  -15.6384 C   0  0  0  0  0  0  0  0  0  0  0  0
  -22.1311   15.2867  -14.8284 C   0  0  0  0  0  0  0  0  0  0  0  0
  -22.7694   15.6899  -13.7088 F   0  0  0  0  0  0  0  0  0  0  0  0
  -23.8327   12.3930  -14.5374 O   0  0  0  0  0  0  0  0  0  0  0  0
  -22.5874   12.9352  -14.2565 C   0  0  0  0  0  0  0  0  0  0  0  0
  -21.9450   12.5507  -13.2483 O   0  0  0  0  0  0  0  0  0  0  0  0
  -24.6435   12.9523  -14.7431 H   0  0  0  0  0  0  0  0  0  0  0  0
  -16.5542   12.6266  -23.8604 N   0  0  0  0  0  0  0  0  0  0  0  0
  -16.6092   11.6590  -24.3068 H   0  0  0  0  0  0  0  0  0  0  0  0
  -15.8995   13.6056  -24.6085 C   0  0  0  0  0  0  0  0  0  0  0  0
  -14.6912   14.1569  -24.1289 C   0  0  0  0  0  0  0  0  0  0  0  0
  -13.9783   15.0941  -24.7956 C   0  0  0  0  0  0  0  0  0  0  0  0
  -14.4405   15.5437  -26.0039 C   0  0  0  0  0  0  0  0  0  0  0  0
  -15.6047   15.0647  -26.5474 C   0  0  0  0  0  0  0  0  0  0  0  0
  -16.2091   15.6262  -28.0863 Cl  0  0  0  0  0  0  0  0  0  0  0  0
  -16.3127   14.0935  -25.8233 C   0  0  0  0  0  0  0  0  0  0  0  0
 23 24  1  0  0  0
 24 25  2  0  0  0
 24 16  1  0  0  0
 16 17  2  0  0  0
 17 18  1  0  0  0
 18 14  1  0  0  0
 14 11  1  0  0  0
 11 12  2  0  0  0
 11 13  2  0  0  0
 11  1  1  0  0  0
  1  2  2  0  0  0
  2  3  1  0  0  0
  3  4  2  0  0  0
  4 27  1  0  0  0
 27 29  1  0  0  0
 29 30  2  0  0  0
 30 31  1  0  0  0
 31 32  2  0  0  0
 32 33  1  0  0  0
 33 34  1  0  0  0
 33 35  2  0  0  0
  4  5  1  0  0  0
  5  6  2  0  0  0
  6  7  1  0  0  0
  7  8  1  0  0  0
  7  9  1  0  0  0
  7 10  1  0  0  0
 18 19  2  0  0  0
 19 20  1  0  0  0
 20 21  2  0  0  0
 21 22  1  0  0  0
 21 16  1  0  0  0
  6  1  1  0  0  0
 35 29  1  0  0  0
 23 26  1  0  0  0
 14 15  1  0  0  0
 27 28  1  0  0  0
M  END
> <minimizedAffinity>
-8.81643

> <CNNscore>
0.3523593545

> <CNNaffinity>
6.5796799660

> <CNN_VS>
2.3184118271

> <CNNaffinity_variance>
0.1227008253

$$$$
[H]OC(=O)c1c([H])c(N([H])S(=O)(=O)c2c([H])nc(N([H])c3c([H])c([H])c([H])c(Cl)c3[H])nc2C(F)(F)F)c([H])c([H])c1F


 35 37  0  0  0  0  0  0  0  0999 V2000
  -18.2422   12.8273  -19.6868 C   0  0  0  0  0  0  0  0  0  0  0  0
  -18.6782   13.7559  -20.6450 C   0  0  0  0  0  0  0  0  0  0  0  0
  -18.2800   13.7253  -21.9079 N   0  0  0  0  0  0  0  0  0  0  0  0
  -17.4292   12.7940  -22.3411 C   0  0  0  0  0  0  0  0  0  0  0  0
  -17.0021   11.8874  -21.4088 N   0  0  0  0  0  0  0  0  0  0  0  0
  -17.3642   11.8626  -20.1221 C   0  0  0  0  0  0  0  0  0  0  0  0
  -16.8315   10.8459  -19.1983 C   0  0  0  0  0  0  0  0  0  0  0  0
  -17.7161    9.8796  -18.8054 F   0  0  0  0  0  0  0  0  0  0  0  0
  -16.0977   11.3666  -18.1585 F   0  0  0  0  0  0  0  0  0  0  0  0
  -15.8693   10.1224  -19.9318 F   0  0  0  0  0  0  0  0  0  0  0  0
  -18.8439   12.9626  -18.0965 S   0  0  0  0  0  0  0  0  0  0  0  0
  -20.0720   13.8612  -18.1296 O   0  0  0  0  0  0  0  0  0  0  0  0
  -17.8927   13.7801  -17.2018 O   0  0  0  0  0  0  0  0  0  0  0  0
  -19.3371   11.5481  -17.3021 N   0  0  0  0  0  0  0  0  0  0  0  0
  -18.7980   10.6621  -17.4875 H   0  0  0  0  0  0  0  0  0  0  0  0
  -22.2840   10.2887  -15.4732 C   0  0  0  0  0  0  0  0  0  0  0  0
  -21.2600   10.3399  -16.3926 C   0  0  0  0  0  0  0  0  0  0  0  0
  -20.4134   11.4182  -16.3886 C   0  0  0  0  0  0  0  0  0  0  0  0
  -20.6143   12.4149  -15.4656 C   0  0  0  0  0  0  0  0  0  0  0  0
  -21.6302   12.3971  -14.5292 C   0  0  0  0  0  0  0  0  0  0  0  0
  -22.4609   11.2940  -14.5663 C   0  0  0  0  0  0  0  0  0  0  0  0
  -23.4624   11.2516  -13.6614 F   0  0  0  0  0  0  0  0  0  0  0  0
  -24.4669    9.2498  -16.0020 O   0  0  0  0  0  0  0  0  0  0  0  0
  -23.1848    9.1278  -15.4873 C   0  0  0  0  0  0  0  0  0  0  0  0
  -22.7903    8.0259  -15.0321 O   0  0  0  0  0  0  0  0  0  0  0  0
  -25.0980    9.9884  -15.7397 H   0  0  0  0  0  0  0  0  0  0  0  0
  -16.9456   12.6713  -23.6523 N   0  0  0  0  0  0  0  0  0  0  0  0
  -17.2084   11.7809  -24.1783 H   0  0  0  0  0  0  0  0  0  0  0  0
  -16.1600   13.5845  -24.3563 C   0  0  0  0  0  0  0  0  0  0  0  0
  -14.9449   14.0356  -23.7959 C   0  0  0  0  0  0  0  0  0  0  0  0
  -14.1106   14.9029  -24.4145 C   0  0  0  0  0  0  0  0  0  0  0  0
  -14.4487   15.3794  -25.6531 C   0  0  0  0  0  0  0  0  0  0  0  0
  -15.6095   14.9961  -26.2745 C   0  0  0  0  0  0  0  0  0  0  0  0
  -16.0566   15.5932  -27.8531 Cl  0  0  0  0  0  0  0  0  0  0  0  0
  -16.4457   14.0950  -25.5981 C   0  0  0  0  0  0  0  0  0  0  0  0
 23 24  1  0  0  0
 24 25  2  0  0  0
 24 16  1  0  0  0
 16 17  2  0  0  0
 17 18  1  0  0  0
 18 14  1  0  0  0
 14 11  1  0  0  0
 11 12  2  0  0  0
 11 13  2  0  0  0
 11  1  1  0  0  0
  1  2  2  0  0  0
  2  3  1  0  0  0
  3  4  2  0  0  0
  4 27  1  0  0  0
 27 29  1  0  0  0
 29 30  2  0  0  0
 30 31  1  0  0  0
 31 32  2  0  0  0
 32 33  1  0  0  0
 33 34  1  0  0  0
 33 35  2  0  0  0
  4  5  1  0  0  0
  5  6  2  0  0  0
  6  7  1  0  0  0
  7  8  1  0  0  0
  7  9  1  0  0  0
  7 10  1  0  0  0
 18 19  2  0  0  0
 19 20  1  0  0  0
 20 21  2  0  0  0
 21 22  1  0  0  0
 21 16  1  0  0  0
  6  1  1  0  0  0
 35 29  1  0  0  0
 23 26  1  0  0  0
 14 15  1  0  0  0
 27 28  1  0  0  0
M  END
> <minimizedAffinity>
-9.09975

> <CNNscore>
0.3404664397

> <CNNaffinity>
6.4921479225

> <CNN_VS>
2.2103583813

> <CNNaffinity_variance>
0.1626262814

$$$$
[H]c1nc(N2C([H])([H])C([H])([H])C([H])(N3C([H])([H])C([H])([H])C([H])([H])C([H])([H])C3([H])[H])C([H])([H])C2([H])[H])nc([H])c1-c1c([H])c([H])c(N2C([H])([H])C([H])([H])N(C([H])([H])[H])C([H])([H])C2([H])[H])c([H])c1[H]


 31 35  0  0  0  0  0  0  0  0999 V2000
  -18.4374   11.0146  -18.3681 C   0  0  0  0  0  0  0  0  0  0  0  0
  -18.0576    9.7658  -17.8956 C   0  0  0  0  0  0  0  0  0  0  0  0
  -18.5392    9.3111  -16.7119 N   0  0  0  0  0  0  0  0  0  0  0  0
  -19.3822   10.0292  -15.9642 C   0  0  0  0  0  0  0  0  0  0  0  0
  -19.7549   11.2397  -16.4147 N   0  0  0  0  0  0  0  0  0  0  0  0
  -19.3092   11.7405  -17.5802 C   0  0  0  0  0  0  0  0  0  0  0  0
  -16.8740   12.3897  -22.1094 C   0  0  0  0  0  0  0  0  0  0  0  0
  -17.9064   13.0713  -21.4406 C   0  0  0  0  0  0  0  0  0  0  0  0
  -18.4101   12.6327  -20.2398 C   0  0  0  0  0  0  0  0  0  0  0  0
  -17.9186   11.4979  -19.6390 C   0  0  0  0  0  0  0  0  0  0  0  0
  -16.9101   10.8038  -20.2599 C   0  0  0  0  0  0  0  0  0  0  0  0
  -16.4151   11.2631  -21.4721 C   0  0  0  0  0  0  0  0  0  0  0  0
  -15.3768   16.1890  -25.5453 C   0  0  0  0  0  0  0  0  0  0  0  0
  -15.7906   15.0909  -24.7428 N   0  0  0  0  0  0  0  0  0  0  0  0
  -16.6089   14.1311  -25.3947 C   0  0  0  0  0  0  0  0  0  0  0  0
  -17.2436   13.1328  -24.4649 C   0  0  0  0  0  0  0  0  0  0  0  0
  -16.3752   12.8689  -23.3359 N   0  0  0  0  0  0  0  0  0  0  0  0
  -14.9796   13.1143  -23.5354 C   0  0  0  0  0  0  0  0  0  0  0  0
  -14.8491   14.6037  -23.8025 C   0  0  0  0  0  0  0  0  0  0  0  0
  -19.8727    9.5255  -14.7202 N   0  0  0  0  0  0  0  0  0  0  0  0
  -19.7753    8.1190  -14.3819 C   0  0  0  0  0  0  0  0  0  0  0  0
  -19.9125    8.0478  -12.8547 C   0  0  0  0  0  0  0  0  0  0  0  0
  -19.0094    9.1174  -12.3000 C   0  0  0  0  0  0  0  0  0  0  0  0
  -19.5750   10.4926  -12.5507 C   0  0  0  0  0  0  0  0  0  0  0  0
  -20.4876   10.4094  -13.7538 C   0  0  0  0  0  0  0  0  0  0  0  0
  -18.6401    8.8729  -10.9605 N   0  0  0  0  0  0  0  0  0  0  0  0
  -18.2115    7.5703  -10.6422 C   0  0  0  0  0  0  0  0  0  0  0  0
  -16.7924    7.5068  -10.1941 C   0  0  0  0  0  0  0  0  0  0  0  0
  -16.5516    8.4748   -9.0590 C   0  0  0  0  0  0  0  0  0  0  0  0
  -17.0122    9.8645   -9.3788 C   0  0  0  0  0  0  0  0  0  0  0  0
  -18.2951    9.9429  -10.1283 C   0  0  0  0  0  0  0  0  0  0  0  0
 13 14  1  0  0  0
 14 15  1  0  0  0
 15 16  1  0  0  0
 16 17  1  0  0  0
 17 18  1  0  0  0
 18 19  1  0  0  0
 17  7  1  0  0  0
  7  8  2  0  0  0
  8  9  1  0  0  0
  9 10  2  0  0  0
 10 11  1  0  0  0
 11 12  2  0  0  0
 10  1  1  0  0  0
  1  2  2  0  0  0
  2  3  1  0  0  0
  3  4  2  0  0  0
  4  5  1  0  0  0
  5  6  2  0  0  0
  4 20  1  0  0  0
 20 21  1  0  0  0
 21 22  1  0  0  0
 22 23  1  0  0  0
 23 24  1  0  0  0
 24 25  1  0  0  0
 23 26  1  0  0  0
 26 27  1  0  0  0
 27 28  1  0  0  0
 28 29  1  0  0  0
 29 30  1  0  0  0
 30 31  1  0  0  0
 19 14  1  0  0  0
 12  7  1  0  0  0
  6  1  1  0  0  0
 25 20  1  0  0  0
 31 26  1  0  0  0
M  END
> <minimizedAffinity>
-9.75839

> <CNNscore>
0.4173603654

> <CNNaffinity>
6.2671937943

> <CNN_VS>
2.6156783104

> <CNNaffinity_variance>
0.1286730617

$$$$
[H]c1nc(N2C([H])([H])C([H])([H])C([H])(N3C([H])([H])C([H])([H])C([H])([H])C([H])([H])C3([H])[H])C([H])([H])C2([H])[H])nc([H])c1-c1c([H])c([H])c(N2C([H])([H])C([H])([H])N(C([H])([H])[H])C([H])([H])C2([H])[H])c([H])c1[H]


 31 35  0  0  0  0  0  0  0  0999 V2000
  -18.0727   11.9673  -19.4420 C   0  0  0  0  0  0  0  0  0  0  0  0
  -17.5455   10.7209  -19.1328 C   0  0  0  0  0  0  0  0  0  0  0  0
  -18.0760    9.9901  -18.1208 N   0  0  0  0  0  0  0  0  0  0  0  0
  -19.1072   10.4276  -17.3923 C   0  0  0  0  0  0  0  0  0  0  0  0
  -19.6236   11.6337  -17.6854 N   0  0  0  0  0  0  0  0  0  0  0  0
  -19.1380   12.4008  -18.6771 C   0  0  0  0  0  0  0  0  0  0  0  0
  -16.3767   14.2121  -22.6695 C   0  0  0  0  0  0  0  0  0  0  0  0
  -16.9547   14.8399  -21.5517 C   0  0  0  0  0  0  0  0  0  0  0  0
  -17.4996   14.1224  -20.5143 C   0  0  0  0  0  0  0  0  0  0  0  0
  -17.5006   12.7476  -20.5292 C   0  0  0  0  0  0  0  0  0  0  0  0
  -16.9456   12.0966  -21.6029 C   0  0  0  0  0  0  0  0  0  0  0  0
  -16.4005   12.8393  -22.6404 C   0  0  0  0  0  0  0  0  0  0  0  0
  -15.5294   15.4849  -27.7826 C   0  0  0  0  0  0  0  0  0  0  0  0
  -15.6353   15.2172  -26.3905 N   0  0  0  0  0  0  0  0  0  0  0  0
  -14.4102   15.2167  -25.6729 C   0  0  0  0  0  0  0  0  0  0  0  0
  -14.5190   14.6753  -24.2732 C   0  0  0  0  0  0  0  0  0  0  0  0
  -15.8207   14.9762  -23.7135 N   0  0  0  0  0  0  0  0  0  0  0  0
  -16.5106   16.0979  -24.2737 C   0  0  0  0  0  0  0  0  0  0  0  0
  -16.7705   15.7474  -25.7284 C   0  0  0  0  0  0  0  0  0  0  0  0
  -19.6451    9.6366  -16.3308 N   0  0  0  0  0  0  0  0  0  0  0  0
  -18.9672    8.4465  -15.8552 C   0  0  0  0  0  0  0  0  0  0  0  0
  -19.5297    8.1797  -14.4521 C   0  0  0  0  0  0  0  0  0  0  0  0
  -19.5204    9.5040  -13.7354 C   0  0  0  0  0  0  0  0  0  0  0  0
  -20.5864   10.4238  -14.2753 C   0  0  0  0  0  0  0  0  0  0  0  0
  -20.8926   10.0005  -15.6946 C   0  0  0  0  0  0  0  0  0  0  0  0
  -19.5290    9.3600  -12.3321 N   0  0  0  0  0  0  0  0  0  0  0  0
  -19.1224    8.1159  -11.8136 C   0  0  0  0  0  0  0  0  0  0  0  0
  -17.8866    8.1948  -10.9857 C   0  0  0  0  0  0  0  0  0  0  0  0
  -18.0410    9.2361   -9.9017 C   0  0  0  0  0  0  0  0  0  0  0  0
  -18.4835   10.5642  -10.4367 C   0  0  0  0  0  0  0  0  0  0  0  0
  -19.5048   10.4962  -11.5166 C   0  0  0  0  0  0  0  0  0  0  0  0
 13 14  1  0  0  0
 14 15  1  0  0  0
 15 16  1  0  0  0
 16 17  1  0  0  0
 17 18  1  0  0  0
 18 19  1  0  0  0
 17  7  1  0  0  0
  7  8  2  0  0  0
  8  9  1  0  0  0
  9 10  2  0  0  0
 10 11  1  0  0  0
 11 12  2  0  0  0
 10  1  1  0  0  0
  1  2  2  0  0  0
  2  3  1  0  0  0
  3  4  2  0  0  0
  4  5  1  0  0  0
  5  6  2  0  0  0
  4 20  1  0  0  0
 20 21  1  0  0  0
 21 22  1  0  0  0
 22 23  1  0  0  0
 23 24  1  0  0  0
 24 25  1  0  0  0
 23 26  1  0  0  0
 26 27  1  0  0  0
 27 28  1  0  0  0
 28 29  1  0  0  0
 29 30  1  0  0  0
 30 31  1  0  0  0
 19 14  1  0  0  0
 12  7  1  0  0  0
  6  1  1  0  0  0
 25 20  1  0  0  0
 31 26  1  0  0  0
M  END
> <minimizedAffinity>
-9.52609

> <CNNscore>
0.4119079113

> <CNNaffinity>
6.5248785019

> <CNN_VS>
2.6876490116

> <CNNaffinity_variance>
0.0257187672

$$$$
[H]c1nc(N2C([H])([H])C([H])([H])C([H])(N3C([H])([H])C([H])([H])C([H])([H])C([H])([H])C3([H])[H])C([H])([H])C2([H])[H])nc([H])c1-c1c([H])c([H])c(N2C([H])([H])C([H])([H])N(C([H])([H])[H])C([H])([H])C2([H])[H])c([H])c1[H]


 31 35  0  0  0  0  0  0  0  0999 V2000
  -18.5344   10.9552  -18.2383 C   0  0  0  0  0  0  0  0  0  0  0  0
  -19.3875   11.6549  -17.3959 C   0  0  0  0  0  0  0  0  0  0  0  0
  -19.7971   11.0991  -16.2283 N   0  0  0  0  0  0  0  0  0  0  0  0
  -19.4062    9.8801  -15.8454 C   0  0  0  0  0  0  0  0  0  0  0  0
  -18.5800    9.1959  -16.6556 N   0  0  0  0  0  0  0  0  0  0  0  0
  -18.1424    9.6973  -17.8239 C   0  0  0  0  0  0  0  0  0  0  0  0
  -17.2819   12.7702  -21.9084 C   0  0  0  0  0  0  0  0  0  0  0  0
  -16.7885   11.5210  -21.4917 C   0  0  0  0  0  0  0  0  0  0  0  0
  -17.1886   10.9358  -20.3146 C   0  0  0  0  0  0  0  0  0  0  0  0
  -18.0970   11.5559  -19.4897 C   0  0  0  0  0  0  0  0  0  0  0  0
  -18.6027   12.7770  -19.8609 C   0  0  0  0  0  0  0  0  0  0  0  0
  -18.1859   13.3512  -21.0533 C   0  0  0  0  0  0  0  0  0  0  0  0
  -15.4209   16.7107  -24.9890 C   0  0  0  0  0  0  0  0  0  0  0  0
  -15.9664   15.6010  -24.2878 N   0  0  0  0  0  0  0  0  0  0  0  0
  -17.0669   14.9611  -24.9167 C   0  0  0  0  0  0  0  0  0  0  0  0
  -17.7845   13.9714  -24.0395 C   0  0  0  0  0  0  0  0  0  0  0  0
  -16.8566   13.3402  -23.1238 N   0  0  0  0  0  0  0  0  0  0  0  0
  -15.4826   13.3197  -23.5233 C   0  0  0  0  0  0  0  0  0  0  0  0
  -15.0457   14.7723  -23.5996 C   0  0  0  0  0  0  0  0  0  0  0  0
  -19.8547    9.3188  -14.6103 N   0  0  0  0  0  0  0  0  0  0  0  0
  -19.8309    7.8881  -14.3761 C   0  0  0  0  0  0  0  0  0  0  0  0
  -19.8822    7.7149  -12.8517 C   0  0  0  0  0  0  0  0  0  0  0  0
  -18.8791    8.6836  -12.2834 C   0  0  0  0  0  0  0  0  0  0  0  0
  -19.3663   10.1057  -12.4028 C   0  0  0  0  0  0  0  0  0  0  0  0
  -20.3518   10.1665  -13.5484 C   0  0  0  0  0  0  0  0  0  0  0  0
  -18.4484    8.3203  -10.9901 N   0  0  0  0  0  0  0  0  0  0  0  0
  -18.1433    6.9630  -10.7747 C   0  0  0  0  0  0  0  0  0  0  0  0
  -16.7123    6.7241  -10.4371 C   0  0  0  0  0  0  0  0  0  0  0  0
  -16.2912    7.5902   -9.2727 C   0  0  0  0  0  0  0  0  0  0  0  0
  -16.6186    9.0374   -9.4824 C   0  0  0  0  0  0  0  0  0  0  0  0
  -17.9334    9.2953  -10.1295 C   0  0  0  0  0  0  0  0  0  0  0  0
 13 14  1  0  0  0
 14 15  1  0  0  0
 15 16  1  0  0  0
 16 17  1  0  0  0
 17 18  1  0  0  0
 18 19  1  0  0  0
 17  7  1  0  0  0
  7  8  2  0  0  0
  8  9  1  0  0  0
  9 10  2  0  0  0
 10 11  1  0  0  0
 11 12  2  0  0  0
 10  1  1  0  0  0
  1  2  2  0  0  0
  2  3  1  0  0  0
  3  4  2  0  0  0
  4  5  1  0  0  0
  5  6  2  0  0  0
  4 20  1  0  0  0
 20 21  1  0  0  0
 21 22  1  0  0  0
 22 23  1  0  0  0
 23 24  1  0  0  0
 24 25  1  0  0  0
 23 26  1  0  0  0
 26 27  1  0  0  0
 27 28  1  0  0  0
 28 29  1  0  0  0
 29 30  1  0  0  0
 30 31  1  0  0  0
 19 14  1  0  0  0
 12  7  1  0  0  0
  6  1  1  0  0  0
 25 20  1  0  0  0
 31 26  1  0  0  0
M  END
> <minimizedAffinity>
-9.68213

> <CNNscore>
0.3406368494

> <CNNaffinity>
6.0557298660

> <CNN_VS>
2.0628046989

> <CNNaffinity_variance>
0.2122723162

$$$$
[H]c1nc(N2C([H])([H])C([H])([H])C([H])(N3C([H])([H])C([H])([H])C([H])([H])C([H])([H])C3([H])[H])C([H])([H])C2([H])[H])nc([H])c1-c1c([H])c([H])c(N2C([H])([H])C([H])([H])N(C([H])([H])[H])C([H])([H])C2([H])[H])c([H])c1[H]


 31 35  0  0  0  0  0  0  0  0999 V2000
  -18.9286   14.0571  -19.9722 C   0  0  0  0  0  0  0  0  0  0  0  0
  -17.5959   14.1337  -19.5913 C   0  0  0  0  0  0  0  0  0  0  0  0
  -16.6730   13.3333  -20.1808 N   0  0  0  0  0  0  0  0  0  0  0  0
  -16.9984   12.4546  -21.1334 C   0  0  0  0  0  0  0  0  0  0  0  0
  -18.2870   12.3743  -21.5079 N   0  0  0  0  0  0  0  0  0  0  0  0
  -19.2436   13.1427  -20.9582 C   0  0  0  0  0  0  0  0  0  0  0  0
  -21.8739   16.5645  -18.1362 C   0  0  0  0  0  0  0  0  0  0  0  0
  -20.5117   16.6486  -17.7972 C   0  0  0  0  0  0  0  0  0  0  0  0
  -19.5641   15.8456  -18.3847 C   0  0  0  0  0  0  0  0  0  0  0  0
  -19.9151   14.9185  -19.3374 C   0  0  0  0  0  0  0  0  0  0  0  0
  -21.2352   14.8053  -19.6964 C   0  0  0  0  0  0  0  0  0  0  0  0
  -22.1769   15.6254  -19.0914 C   0  0  0  0  0  0  0  0  0  0  0  0
  -26.2664   17.6011  -15.2879 C   0  0  0  0  0  0  0  0  0  0  0  0
  -25.1084   17.4568  -16.0998 N   0  0  0  0  0  0  0  0  0  0  0  0
  -25.0737   18.2671  -17.2651 C   0  0  0  0  0  0  0  0  0  0  0  0
  -23.9786   17.9056  -18.2316 C   0  0  0  0  0  0  0  0  0  0  0  0
  -22.8197   17.4065  -17.5202 N   0  0  0  0  0  0  0  0  0  0  0  0
  -22.6821   17.8209  -16.1574 C   0  0  0  0  0  0  0  0  0  0  0  0
  -23.8816   17.2494  -15.4216 C   0  0  0  0  0  0  0  0  0  0  0  0
  -16.0052   11.6228  -21.7362 N   0  0  0  0  0  0  0  0  0  0  0  0
  -15.5753   11.8283  -23.1056 C   0  0  0  0  0  0  0  0  0  0  0  0
  -14.2116   11.1333  -23.2225 C   0  0  0  0  0  0  0  0  0  0  0  0
  -13.4191   11.5540  -22.0133 C   0  0  0  0  0  0  0  0  0  0  0  0
  -13.9430   10.8957  -20.7619 C   0  0  0  0  0  0  0  0  0  0  0  0
  -15.3947   10.5412  -20.9941 C   0  0  0  0  0  0  0  0  0  0  0  0
  -12.0278   11.4207  -22.2048 N   0  0  0  0  0  0  0  0  0  0  0  0
  -11.2085   12.4353  -21.6745 C   0  0  0  0  0  0  0  0  0  0  0  0
  -10.2882   11.9553  -20.6061 C   0  0  0  0  0  0  0  0  0  0  0  0
   -9.4818   10.7738  -21.0931 C   0  0  0  0  0  0  0  0  0  0  0  0
  -10.3394    9.6889  -21.6702 C   0  0  0  0  0  0  0  0  0  0  0  0
  -11.4830   10.1653  -22.4942 C   0  0  0  0  0  0  0  0  0  0  0  0
 13 14  1  0  0  0
 14 15  1  0  0  0
 15 16  1  0  0  0
 16 17  1  0  0  0
 17 18  1  0  0  0
 18 19  1  0  0  0
 17  7  1  0  0  0
  7  8  2  0  0  0
  8  9  1  0  0  0
  9 10  2  0  0  0
 10 11  1  0  0  0
 11 12  2  0  0  0
 10  1  1  0  0  0
  1  2  2  0  0  0
  2  3  1  0  0  0
  3  4  2  0  0  0
  4  5  1  0  0  0
  5  6  2  0  0  0
  4 20  1  0  0  0
 20 21  1  0  0  0
 21 22  1  0  0  0
 22 23  1  0  0  0
 23 24  1  0  0  0
 24 25  1  0  0  0
 23 26  1  0  0  0
 26 27  1  0  0  0
 27 28  1  0  0  0
 28 29  1  0  0  0
 29 30  1  0  0  0
 30 31  1  0  0  0
 19 14  1  0  0  0
 12  7  1  0  0  0
  6  1  1  0  0  0
 25 20  1  0  0  0
 31 26  1  0  0  0
M  END
> <minimizedAffinity>
27.86798

> <CNNscore>
0.3099680841

> <CNNaffinity>
5.9613723755

> <CNN_VS>
1.8478351831

> <CNNaffinity_variance>
0.4735025465

$$$$
[H]c1nc(N2C([H])([H])C([H])([H])C([H])(N3C([H])([H])C([H])([H])C([H])([H])C([H])([H])C3([H])[H])C([H])([H])C2([H])[H])nc([H])c1-c1c([H])c([H])c(N2C([H])([H])C([H])([H])N(C([H])([H])[H])C([H])([H])C2([H])[H])c([H])c1[H]


 31 35  0  0  0  0  0  0  0  0999 V2000
  -18.3528   10.7345  -18.4931 C   0  0  0  0  0  0  0  0  0  0  0  0
  -19.1995   11.5252  -17.7282 C   0  0  0  0  0  0  0  0  0  0  0  0
  -19.7151   11.0457  -16.5689 N   0  0  0  0  0  0  0  0  0  0  0  0
  -19.4371    9.8179  -16.1211 C   0  0  0  0  0  0  0  0  0  0  0  0
  -18.6179    9.0458  -16.8560 N   0  0  0  0  0  0  0  0  0  0  0  0
  -18.0784    9.4690  -18.0125 C   0  0  0  0  0  0  0  0  0  0  0  0
  -16.7706   12.3059  -22.1482 C   0  0  0  0  0  0  0  0  0  0  0  0
  -16.2249   11.1653  -21.5326 C   0  0  0  0  0  0  0  0  0  0  0  0
  -16.7304   10.6585  -20.3598 C   0  0  0  0  0  0  0  0  0  0  0  0
  -17.8014   11.2535  -19.7359 C   0  0  0  0  0  0  0  0  0  0  0  0
  -18.3630   12.3694  -20.3051 C   0  0  0  0  0  0  0  0  0  0  0  0
  -17.8379   12.8656  -21.4897 C   0  0  0  0  0  0  0  0  0  0  0  0
  -15.1947   16.1388  -25.5108 C   0  0  0  0  0  0  0  0  0  0  0  0
  -15.6243   15.0321  -24.7287 N   0  0  0  0  0  0  0  0  0  0  0  0
  -16.4069   14.0659  -25.4141 C   0  0  0  0  0  0  0  0  0  0  0  0
  -17.0631   13.0559  -24.5123 C   0  0  0  0  0  0  0  0  0  0  0  0
  -16.2333   12.7967  -23.3537 N   0  0  0  0  0  0  0  0  0  0  0  0
  -14.8343   13.0594  -23.5011 C   0  0  0  0  0  0  0  0  0  0  0  0
  -14.7118   14.5515  -23.7568 C   0  0  0  0  0  0  0  0  0  0  0  0
  -19.9957    9.3384  -14.8964 N   0  0  0  0  0  0  0  0  0  0  0  0
  -19.2006    9.2434  -13.6878 C   0  0  0  0  0  0  0  0  0  0  0  0
  -20.2073    9.1961  -12.5299 C   0  0  0  0  0  0  0  0  0  0  0  0
  -21.2119   10.2847  -12.8001 C   0  0  0  0  0  0  0  0  0  0  0  0
  -22.1165    9.9188  -13.9498 C   0  0  0  0  0  0  0  0  0  0  0  0
  -21.3814    8.9282  -14.8247 C   0  0  0  0  0  0  0  0  0  0  0  0
  -21.8884   10.6986  -11.6334 N   0  0  0  0  0  0  0  0  0  0  0  0
  -21.4956   11.9261  -11.0670 C   0  0  0  0  0  0  0  0  0  0  0  0
  -22.5721   12.9556  -11.0795 C   0  0  0  0  0  0  0  0  0  0  0  0
  -23.8298   12.4144  -10.4403 C   0  0  0  0  0  0  0  0  0  0  0  0
  -24.2556   11.1022  -11.0257 C   0  0  0  0  0  0  0  0  0  0  0  0
  -23.1439   10.1615  -11.3303 C   0  0  0  0  0  0  0  0  0  0  0  0
 13 14  1  0  0  0
 14 15  1  0  0  0
 15 16  1  0  0  0
 16 17  1  0  0  0
 17 18  1  0  0  0
 18 19  1  0  0  0
 17  7  1  0  0  0
  7  8  2  0  0  0
  8  9  1  0  0  0
  9 10  2  0  0  0
 10 11  1  0  0  0
 11 12  2  0  0  0
 10  1  1  0  0  0
  1  2  2  0  0  0
  2  3  1  0  0  0
  3  4  2  0  0  0
  4  5  1  0  0  0
  5  6  2  0  0  0
  4 20  1  0  0  0
 20 21  1  0  0  0
 21 22  1  0  0  0
 22 23  1  0  0  0
 23 24  1  0  0  0
 24 25  1  0  0  0
 23 26  1  0  0  0
 26 27  1  0  0  0
 27 28  1  0  0  0
 28 29  1  0  0  0
 29 30  1  0  0  0
 30 31  1  0  0  0
 19 14  1  0  0  0
 12  7  1  0  0  0
  6  1  1  0  0  0
 25 20  1  0  0  0
 31 26  1  0  0  0
M  END
> <minimizedAffinity>
-8.14860

> <CNNscore>
0.2691999078

> <CNNaffinity>
6.0353326797

> <CNN_VS>
1.6247110367

> <CNNaffinity_variance>
0.0829903334

$$$$
[H]c1nc(N2C([H])([H])C([H])([H])C([H])(N3C([H])([H])C([H])([H])C([H])([H])C([H])([H])C3([H])[H])C([H])([H])C2([H])[H])nc([H])c1-c1c([H])c([H])c(N2C([H])([H])C([H])([H])N(C([H])([H])[H])C([H])([H])C2([H])[H])c([H])c1[H]


 31 35  0  0  0  0  0  0  0  0999 V2000
  -18.5552   11.2551  -18.5271 C   0  0  0  0  0  0  0  0  0  0  0  0
  -17.9666   10.0120  -18.3391 C   0  0  0  0  0  0  0  0  0  0  0  0
  -18.3505    9.2276  -17.3013 N   0  0  0  0  0  0  0  0  0  0  0  0
  -19.2918    9.6081  -16.4326 C   0  0  0  0  0  0  0  0  0  0  0  0
  -19.8667   10.8106  -16.6077 N   0  0  0  0  0  0  0  0  0  0  0  0
  -19.5256   11.6291  -17.6182 C   0  0  0  0  0  0  0  0  0  0  0  0
  -17.3551   13.7680  -21.7794 C   0  0  0  0  0  0  0  0  0  0  0  0
  -17.1337   12.3793  -21.7933 C   0  0  0  0  0  0  0  0  0  0  0  0
  -17.5178   11.5702  -20.7513 C   0  0  0  0  0  0  0  0  0  0  0  0
  -18.1405   12.0929  -19.6425 C   0  0  0  0  0  0  0  0  0  0  0  0
  -18.3750   13.4444  -19.5903 C   0  0  0  0  0  0  0  0  0  0  0  0
  -17.9794   14.2444  -20.6528 C   0  0  0  0  0  0  0  0  0  0  0  0
  -14.1186   15.1963  -25.7752 C   0  0  0  0  0  0  0  0  0  0  0  0
  -15.0311   14.9492  -24.7136 N   0  0  0  0  0  0  0  0  0  0  0  0
  -15.4024   16.0865  -23.9490 C   0  0  0  0  0  0  0  0  0  0  0  0
  -16.1494   15.7590  -22.6847 C   0  0  0  0  0  0  0  0  0  0  0  0
  -16.9551   14.5689  -22.8663 N   0  0  0  0  0  0  0  0  0  0  0  0
  -17.3301   14.2533  -24.2107 C   0  0  0  0  0  0  0  0  0  0  0  0
  -16.0348   13.9783  -24.9546 C   0  0  0  0  0  0  0  0  0  0  0  0
  -19.6756    8.7615  -15.3473 N   0  0  0  0  0  0  0  0  0  0  0  0
  -19.1857    8.9871  -14.0015 C   0  0  0  0  0  0  0  0  0  0  0  0
  -20.1648    8.2542  -13.0738 C   0  0  0  0  0  0  0  0  0  0  0  0
  -21.5470    8.6211  -13.5452 C   0  0  0  0  0  0  0  0  0  0  0  0
  -21.8728    7.9486  -14.8551 C   0  0  0  0  0  0  0  0  0  0  0  0
  -20.5698    7.6440  -15.5598 C   0  0  0  0  0  0  0  0  0  0  0  0
  -22.5241    8.4504  -12.5421 N   0  0  0  0  0  0  0  0  0  0  0  0
  -23.2617    7.2516  -12.5643 C   0  0  0  0  0  0  0  0  0  0  0  0
  -23.0445    6.4003  -11.3614 C   0  0  0  0  0  0  0  0  0  0  0  0
  -23.2923    7.1936  -10.0994 C   0  0  0  0  0  0  0  0  0  0  0  0
  -22.5215    8.4783  -10.0652 C   0  0  0  0  0  0  0  0  0  0  0  0
  -22.4492    9.2007  -11.3640 C   0  0  0  0  0  0  0  0  0  0  0  0
 13 14  1  0  0  0
 14 15  1  0  0  0
 15 16  1  0  0  0
 16 17  1  0  0  0
 17 18  1  0  0  0
 18 19  1  0  0  0
 17  7  1  0  0  0
  7  8  2  0  0  0
  8  9  1  0  0  0
  9 10  2  0  0  0
 10 11  1  0  0  0
 11 12  2  0  0  0
 10  1  1  0  0  0
  1  2  2  0  0  0
  2  3  1  0  0  0
  3  4  2  0  0  0
  4  5  1  0  0  0
  5  6  2  0  0  0
  4 20  1  0  0  0
 20 21  1  0  0  0
 21 22  1  0  0  0
 22 23  1  0  0  0
 23 24  1  0  0  0
 24 25  1  0  0  0
 23 26  1  0  0  0
 26 27  1  0  0  0
 27 28  1  0  0  0
 28 29  1  0  0  0
 29 30  1  0  0  0
 30 31  1  0  0  0
 19 14  1  0  0  0
 12  7  1  0  0  0
  6  1  1  0  0  0
 25 20  1  0  0  0
 31 26  1  0  0  0
M  END
> <minimizedAffinity>
-8.14915

> <CNNscore>
0.2605319619

> <CNNaffinity>
5.9369935989

> <CNN_VS>
1.5467765331

> <CNNaffinity_variance>
0.1101210937

$$$$
[H]c1nc(N2C([H])([H])C([H])([H])C([H])(N3C([H])([H])C([H])([H])C([H])([H])C([H])([H])C3([H])[H])C([H])([H])C2([H])[H])nc([H])c1-c1c([H])c([H])c(N2C([H])([H])C([H])([H])N(C([H])([H])[H])C([H])([H])C2([H])[H])c([H])c1[H]


 31 35  0  0  0  0  0  0  0  0999 V2000
  -18.5808   11.0556  -18.2512 C   0  0  0  0  0  0  0  0  0  0  0  0
  -19.4319   11.6682  -17.3415 C   0  0  0  0  0  0  0  0  0  0  0  0
  -19.8316   11.0026  -16.2293 N   0  0  0  0  0  0  0  0  0  0  0  0
  -19.4326    9.7550  -15.9653 C   0  0  0  0  0  0  0  0  0  0  0  0
  -18.6083    9.1547  -16.8413 N   0  0  0  0  0  0  0  0  0  0  0  0
  -18.1804    9.7663  -17.9596 C   0  0  0  0  0  0  0  0  0  0  0  0
  -17.2915   13.1224  -21.7723 C   0  0  0  0  0  0  0  0  0  0  0  0
  -18.2148   13.6885  -20.8753 C   0  0  0  0  0  0  0  0  0  0  0  0
  -18.6304   13.0280  -19.7444 C   0  0  0  0  0  0  0  0  0  0  0  0
  -18.1541   11.7740  -19.4427 C   0  0  0  0  0  0  0  0  0  0  0  0
  -17.2509   11.1865  -20.2933 C   0  0  0  0  0  0  0  0  0  0  0  0
  -16.8438   11.8700  -21.4301 C   0  0  0  0  0  0  0  0  0  0  0  0
  -16.9053   13.9632  -27.0283 C   0  0  0  0  0  0  0  0  0  0  0  0
  -16.8941   13.8236  -25.6136 N   0  0  0  0  0  0  0  0  0  0  0  0
  -15.6306   14.0027  -24.9913 C   0  0  0  0  0  0  0  0  0  0  0  0
  -15.5954   13.5923  -23.5442 C   0  0  0  0  0  0  0  0  0  0  0  0
  -16.8808   13.8282  -22.9195 N   0  0  0  0  0  0  0  0  0  0  0  0
  -17.7104   14.8238  -23.5265 C   0  0  0  0  0  0  0  0  0  0  0  0
  -18.0295   14.3117  -24.9203 C   0  0  0  0  0  0  0  0  0  0  0  0
  -19.8708    9.0773  -14.7861 N   0  0  0  0  0  0  0  0  0  0  0  0
  -19.7556    7.6381  -14.6532 C   0  0  0  0  0  0  0  0  0  0  0  0
  -19.8305    7.3519  -13.1469 C   0  0  0  0  0  0  0  0  0  0  0  0
  -18.9088    8.3407  -12.4836 C   0  0  0  0  0  0  0  0  0  0  0  0
  -19.4882    9.7326  -12.5157 C   0  0  0  0  0  0  0  0  0  0  0  0
  -20.4486    9.8113  -13.6812 C   0  0  0  0  0  0  0  0  0  0  0  0
  -18.4847    7.9137  -11.2076 N   0  0  0  0  0  0  0  0  0  0  0  0
  -18.1480    6.5541  -11.0667 C   0  0  0  0  0  0  0  0  0  0  0  0
  -16.7156    6.3312  -10.7241 C   0  0  0  0  0  0  0  0  0  0  0  0
  -16.3307    7.1385   -9.5061 C   0  0  0  0  0  0  0  0  0  0  0  0
  -16.6920    8.5870   -9.6365 C   0  0  0  0  0  0  0  0  0  0  0  0
  -18.0049    8.8496  -10.2854 C   0  0  0  0  0  0  0  0  0  0  0  0
 13 14  1  0  0  0
 14 15  1  0  0  0
 15 16  1  0  0  0
 16 17  1  0  0  0
 17 18  1  0  0  0
 18 19  1  0  0  0
 17  7  1  0  0  0
  7  8  2  0  0  0
  8  9  1  0  0  0
  9 10  2  0  0  0
 10 11  1  0  0  0
 11 12  2  0  0  0
 10  1  1  0  0  0
  1  2  2  0  0  0
  2  3  1  0  0  0
  3  4  2  0  0  0
  4  5  1  0  0  0
  5  6  2  0  0  0
  4 20  1  0  0  0
 20 21  1  0  0  0
 21 22  1  0  0  0
 22 23  1  0  0  0
 23 24  1  0  0  0
 24 25  1  0  0  0
 23 26  1  0  0  0
 26 27  1  0  0  0
 27 28  1  0  0  0
 28 29  1  0  0  0
 29 30  1  0  0  0
 30 31  1  0  0  0
 19 14  1  0  0  0
 12  7  1  0  0  0
  6  1  1  0  0  0
 25 20  1  0  0  0
 31 26  1  0  0  0
M  END
> <minimizedAffinity>
-9.67761

> <CNNscore>
0.2567864358

> <CNNaffinity>
5.9155845642

> <CNN_VS>
1.5190418959

> <CNNaffinity_variance>
0.1884002388

$$$$
[H]c1nc(N2C([H])([H])C([H])([H])C([H])(N3C([H])([H])C([H])([H])C([H])([H])C([H])([H])C3([H])[H])C([H])([H])C2([H])[H])nc([H])c1-c1c([H])c([H])c(N2C([H])([H])C([H])([H])N(C([H])([H])[H])C([H])([H])C2([H])[H])c([H])c1[H]


 31 35  0  0  0  0  0  0  0  0999 V2000
  -18.4987   11.2384  -18.5122 C   0  0  0  0  0  0  0  0  0  0  0  0
  -19.4691   11.6792  -17.6227 C   0  0  0  0  0  0  0  0  0  0  0  0
  -19.8458   10.8938  -16.5830 N   0  0  0  0  0  0  0  0  0  0  0  0
  -19.3113    9.6873  -16.3730 C   0  0  0  0  0  0  0  0  0  0  0  0
  -18.3709    9.2531  -17.2299 N   0  0  0  0  0  0  0  0  0  0  0  0
  -17.9592    9.9889  -18.2772 C   0  0  0  0  0  0  0  0  0  0  0  0
  -17.3366   13.7768  -21.7585 C   0  0  0  0  0  0  0  0  0  0  0  0
  -17.1293   12.3863  -21.7923 C   0  0  0  0  0  0  0  0  0  0  0  0
  -17.5012   11.5690  -20.7523 C   0  0  0  0  0  0  0  0  0  0  0  0
  -18.0973   12.0849  -19.6259 C   0  0  0  0  0  0  0  0  0  0  0  0
  -18.3173   13.4380  -19.5539 C   0  0  0  0  0  0  0  0  0  0  0  0
  -17.9344   14.2463  -20.6148 C   0  0  0  0  0  0  0  0  0  0  0  0
  -14.1485   15.2364  -25.7818 C   0  0  0  0  0  0  0  0  0  0  0  0
  -15.0482   14.9810  -24.7112 N   0  0  0  0  0  0  0  0  0  0  0  0
  -15.4100   16.1123  -23.9333 C   0  0  0  0  0  0  0  0  0  0  0  0
  -16.1417   15.7748  -22.6627 C   0  0  0  0  0  0  0  0  0  0  0  0
  -16.9497   14.5863  -22.8438 N   0  0  0  0  0  0  0  0  0  0  0  0
  -17.3410   14.2812  -24.1861 C   0  0  0  0  0  0  0  0  0  0  0  0
  -16.0548   14.0121  -24.9477 C   0  0  0  0  0  0  0  0  0  0  0  0
  -19.7284    8.8807  -15.2698 N   0  0  0  0  0  0  0  0  0  0  0  0
  -19.2101    9.0995  -13.9335 C   0  0  0  0  0  0  0  0  0  0  0  0
  -20.2171    8.4372  -12.9829 C   0  0  0  0  0  0  0  0  0  0  0  0
  -21.5824    8.8736  -13.4444 C   0  0  0  0  0  0  0  0  0  0  0  0
  -21.9613    8.2000  -14.7393 C   0  0  0  0  0  0  0  0  0  0  0  0
  -20.6862    7.8119  -15.4538 C   0  0  0  0  0  0  0  0  0  0  0  0
  -22.5551    8.7736  -12.4275 N   0  0  0  0  0  0  0  0  0  0  0  0
  -22.6830    9.8702  -11.5540 C   0  0  0  0  0  0  0  0  0  0  0  0
  -24.0102   10.5414  -11.6366 C   0  0  0  0  0  0  0  0  0  0  0  0
  -25.1240    9.5373  -11.4508 C   0  0  0  0  0  0  0  0  0  0  0  0
  -24.9963    8.3584  -12.3671 C   0  0  0  0  0  0  0  0  0  0  0  0
  -23.6071    7.8613  -12.5591 C   0  0  0  0  0  0  0  0  0  0  0  0
 13 14  1  0  0  0
 14 15  1  0  0  0
 15 16  1  0  0  0
 16 17  1  0  0  0
 17 18  1  0  0  0
 18 19  1  0  0  0
 17  7  1  0  0  0
  7  8  2  0  0  0
  8  9  1  0  0  0
  9 10  2  0  0  0
 10 11  1  0  0  0
 11 12  2  0  0  0
 10  1  1  0  0  0
  1  2  2  0  0  0
  2  3  1  0  0  0
  3  4  2  0  0  0
  4  5  1  0  0  0
  5  6  2  0  0  0
  4 20  1  0  0  0
 20 21  1  0  0  0
 21 22  1  0  0  0
 22 23  1  0  0  0
 23 24  1  0  0  0
 24 25  1  0  0  0
 23 26  1  0  0  0
 26 27  1  0  0  0
 27 28  1  0  0  0
 28 29  1  0  0  0
 29 30  1  0  0  0
 30 31  1  0  0  0
 19 14  1  0  0  0
 12  7  1  0  0  0
  6  1  1  0  0  0
 25 20  1  0  0  0
 31 26  1  0  0  0
M  END
> <minimizedAffinity>
-8.20269

> <CNNscore>
0.2467240393

> <CNNaffinity>
5.9698953629

> <CNN_VS>
1.4729167223

> <CNNaffinity_variance>
0.0873126537

$$$$
[H]c1nc(N2C([H])([H])C([H])([H])C([H])(N3C([H])([H])C([H])([H])C([H])([H])C([H])([H])C3([H])[H])C([H])([H])C2([H])[H])nc([H])c1-c1c([H])c([H])c(N2C([H])([H])C([H])([H])N(C([H])([H])[H])C([H])([H])C2([H])[H])c([H])c1[H]


 31 35  0  0  0  0  0  0  0  0999 V2000
  -18.3453   11.4321  -18.7656 C   0  0  0  0  0  0  0  0  0  0  0  0
  -19.2777   12.0060  -17.9122 C   0  0  0  0  0  0  0  0  0  0  0  0
  -19.7308   11.3152  -16.8364 N   0  0  0  0  0  0  0  0  0  0  0  0
  -19.3090   10.0788  -16.5561 C   0  0  0  0  0  0  0  0  0  0  0  0
  -18.4059    9.5159  -17.3776 N   0  0  0  0  0  0  0  0  0  0  0  0
  -17.9225   10.1537  -18.4580 C   0  0  0  0  0  0  0  0  0  0  0  0
  -16.9360   13.6757  -22.1291 C   0  0  0  0  0  0  0  0  0  0  0  0
  -16.8734   12.2712  -22.0946 C   0  0  0  0  0  0  0  0  0  0  0  0
  -17.3250   11.5483  -21.0168 C   0  0  0  0  0  0  0  0  0  0  0  0
  -17.8616   12.1773  -19.9183 C   0  0  0  0  0  0  0  0  0  0  0  0
  -17.9405   13.5478  -19.9129 C   0  0  0  0  0  0  0  0  0  0  0  0
  -17.4790   14.2596  -21.0109 C   0  0  0  0  0  0  0  0  0  0  0  0
  -16.4282   14.6295  -27.3553 C   0  0  0  0  0  0  0  0  0  0  0  0
  -16.4451   14.4529  -25.9448 N   0  0  0  0  0  0  0  0  0  0  0  0
  -15.1827   14.5454  -25.3017 C   0  0  0  0  0  0  0  0  0  0  0  0
  -15.1912   14.0963  -23.8657 C   0  0  0  0  0  0  0  0  0  0  0  0
  -16.4704   14.3870  -23.2516 N   0  0  0  0  0  0  0  0  0  0  0  0
  -17.2350   15.4425  -23.8426 C   0  0  0  0  0  0  0  0  0  0  0  0
  -17.5618   14.9852  -25.2535 C   0  0  0  0  0  0  0  0  0  0  0  0
  -19.8046    9.3740  -15.4162 N   0  0  0  0  0  0  0  0  0  0  0  0
  -19.6259    7.9421  -15.2750 C   0  0  0  0  0  0  0  0  0  0  0  0
  -19.8066    7.6455  -13.7798 C   0  0  0  0  0  0  0  0  0  0  0  0
  -18.9936    8.6776  -13.0441 C   0  0  0  0  0  0  0  0  0  0  0  0
  -19.6400   10.0378  -13.1220 C   0  0  0  0  0  0  0  0  0  0  0  0
  -20.5065   10.0721  -14.3610 C   0  0  0  0  0  0  0  0  0  0  0  0
  -18.6518    8.2672  -11.7383 N   0  0  0  0  0  0  0  0  0  0  0  0
  -19.0375    9.1119  -10.6803 C   0  0  0  0  0  0  0  0  0  0  0  0
  -20.0158    8.4847   -9.7483 C   0  0  0  0  0  0  0  0  0  0  0  0
  -19.4962    7.1559   -9.2507 C   0  0  0  0  0  0  0  0  0  0  0  0
  -19.0717    6.2487  -10.3654 C   0  0  0  0  0  0  0  0  0  0  0  0
  -18.3615    6.9224  -11.4859 C   0  0  0  0  0  0  0  0  0  0  0  0
 13 14  1  0  0  0
 14 15  1  0  0  0
 15 16  1  0  0  0
 16 17  1  0  0  0
 17 18  1  0  0  0
 18 19  1  0  0  0
 17  7  1  0  0  0
  7  8  2  0  0  0
  8  9  1  0  0  0
  9 10  2  0  0  0
 10 11  1  0  0  0
 11 12  2  0  0  0
 10  1  1  0  0  0
  1  2  2  0  0  0
  2  3  1  0  0  0
  3  4  2  0  0  0
  4  5  1  0  0  0
  5  6  2  0  0  0
  4 20  1  0  0  0
 20 21  1  0  0  0
 21 22  1  0  0  0
 22 23  1  0  0  0
 23 24  1  0  0  0
 24 25  1  0  0  0
 23 26  1  0  0  0
 26 27  1  0  0  0
 27 28  1  0  0  0
 28 29  1  0  0  0
 29 30  1  0  0  0
 30 31  1  0  0  0
 19 14  1  0  0  0
 12  7  1  0  0  0
  6  1  1  0  0  0
 25 20  1  0  0  0
 31 26  1  0  0  0
M  END
> <minimizedAffinity>
-8.71954

> <CNNscore>
0.2366605699

> <CNNaffinity>
5.9822983742

> <CNN_VS>
1.4157741070

> <CNNaffinity_variance>
0.1119331270

$$$$
[H]C1=C2C([H])([H])C([H])([H])[C@@]3([H])C(=C(OC([H])([H])C(C([H])([H])[H])(C([H])([H])[H])C([H])([H])[H])C4([H])C(C([H])([H])[H])(C([H])([H])[H])C([H])([H])C([H])([H])O[C@@]43[H])[C@@]2(C([H])([H])[H])C([H])([H])C([H])([H])C1=O


 27 30  0  0  0  0  0  0  0  0999 V2000
  -19.0727   11.4956  -10.4020 C   0  0  0  0  0  0  0  0  0  0  0  0
  -19.9410   10.2161  -10.4335 C   0  0  0  0  0  0  0  0  0  0  0  0
  -19.4252    9.3651   -9.3313 C   0  0  0  0  0  0  0  0  0  0  0  0
  -21.3460   10.7600  -10.1905 C   0  0  0  0  0  0  0  0  0  0  0  0
  -21.7463   11.5070  -11.4517 C   0  0  0  0  0  0  0  0  0  0  0  0
  -21.7366   10.6583  -12.5476 O   0  0  0  0  0  0  0  0  0  0  0  0
  -20.3837   10.4311  -12.8833 C   0  0  0  0  0  0  0  0  0  0  0  0
  -20.2795    9.4533  -14.0194 C   0  0  0  0  0  0  0  0  0  0  0  0
  -19.0409    9.5014  -14.8254 C   0  0  0  0  0  0  0  0  0  0  0  0
  -18.9957    8.3220  -15.7365 C   0  0  0  0  0  0  0  0  0  0  0  0
  -20.0868    7.3626  -15.5810 C   0  0  0  0  0  0  0  0  0  0  0  0
  -20.5325    6.7195  -16.6436 C   0  0  0  0  0  0  0  0  0  0  0  0
  -21.6169    5.7396  -16.6079 C   0  0  0  0  0  0  0  0  0  0  0  0
  -21.7247    4.8545  -17.4615 O   0  0  0  0  0  0  0  0  0  0  0  0
  -22.5910    5.8600  -15.4868 C   0  0  0  0  0  0  0  0  0  0  0  0
  -22.2332    6.9975  -14.5632 C   0  0  0  0  0  0  0  0  0  0  0  0
  -20.7685    7.0296  -14.2789 C   0  0  0  0  0  0  0  0  0  0  0  0
  -20.2730    5.6673  -13.8977 C   0  0  0  0  0  0  0  0  0  0  0  0
  -20.4023    8.1071  -13.3076 C   0  0  0  0  0  0  0  0  0  0  0  0
  -20.1086    8.2615  -12.0434 C   0  0  0  0  0  0  0  0  0  0  0  0
  -19.7640    9.6477  -11.7814 C   0  0  0  0  0  0  0  0  0  0  0  0
  -20.1564    7.1628  -11.1595 O   0  0  0  0  0  0  0  0  0  0  0  0
  -21.2468    6.3077  -11.0538 C   0  0  0  0  0  0  0  0  0  0  0  0
  -22.4045    6.7749  -10.2572 C   0  0  0  0  0  0  0  0  0  0  0  0
  -23.3988    5.6016  -10.1213 C   0  0  0  0  0  0  0  0  0  0  0  0
  -23.2010    7.8955  -10.8485 C   0  0  0  0  0  0  0  0  0  0  0  0
  -22.0486    7.0963   -8.8054 C   0  0  0  0  0  0  0  0  0  0  0  0
  1  2  1  0  0  0
  2  3  1  0  0  0
  2  4  1  0  0  0
  4  5  1  0  0  0
  5  6  1  0  0  0
  6  7  1  0  0  0
  7  8  1  0  0  0
  8  9  1  0  0  0
  9 10  1  0  0  0
 10 11  1  0  0  0
 11 12  2  0  0  0
 12 13  1  0  0  0
 13 14  2  0  0  0
 13 15  1  0  0  0
 15 16  1  0  0  0
 16 17  1  0  0  0
 17 18  1  0  0  0
 17 19  1  0  0  0
 19 20  2  0  0  0
 20 21  1  0  0  0
 20 22  1  0  0  0
 22 23  1  0  0  0
 23 24  1  0  0  0
 24 25  1  0  0  0
 24 26  1  0  0  0
 24 27  1  0  0  0
 21  2  1  0  0  0
 21  7  1  0  0  0
 19  8  1  0  0  0
 17 11  1  0  0  0
M  END
> <minimizedAffinity>
-2.28097

> <CNNscore>
0.4910864234

> <CNNaffinity>
4.8631262779

> <CNN_VS>
2.3882153034

> <CNNaffinity_variance>
0.1036854759

$$$$
[H]C1=C2C([H])([H])C([H])([H])[C@@]3([H])C(=C(OC([H])([H])C(C([H])([H])[H])(C([H])([H])[H])C([H])([H])[H])C4([H])C(C([H])([H])[H])(C([H])([H])[H])C([H])([H])C([H])([H])O[C@@]43[H])[C@@]2(C([H])([H])[H])C([H])([H])C([H])([H])C1=O


 27 30  0  0  0  0  0  0  0  0999 V2000
  -16.7842   14.6102  -26.6433 C   0  0  0  0  0  0  0  0  0  0  0  0
  -16.5252   14.1066  -25.2040 C   0  0  0  0  0  0  0  0  0  0  0  0
  -16.8083   12.6493  -25.2417 C   0  0  0  0  0  0  0  0  0  0  0  0
  -15.0526   14.4461  -24.9914 C   0  0  0  0  0  0  0  0  0  0  0  0
  -14.9688   15.9586  -24.8722 C   0  0  0  0  0  0  0  0  0  0  0  0
  -15.7303   16.4088  -23.8050 O   0  0  0  0  0  0  0  0  0  0  0  0
  -17.0843   16.3244  -24.1977 C   0  0  0  0  0  0  0  0  0  0  0  0
  -17.9876   16.7220  -23.0648 C   0  0  0  0  0  0  0  0  0  0  0  0
  -19.3408   17.1937  -23.4286 C   0  0  0  0  0  0  0  0  0  0  0  0
  -20.1741   17.3081  -22.1974 C   0  0  0  0  0  0  0  0  0  0  0  0
  -19.5371   16.8606  -20.9609 C   0  0  0  0  0  0  0  0  0  0  0  0
  -19.8295   17.4741  -19.8297 C   0  0  0  0  0  0  0  0  0  0  0  0
  -19.2547   17.1135  -18.5347 C   0  0  0  0  0  0  0  0  0  0  0  0
  -19.8309   17.3648  -17.4724 O   0  0  0  0  0  0  0  0  0  0  0  0
  -17.9337   16.4246  -18.5574 C   0  0  0  0  0  0  0  0  0  0  0  0
  -17.4483   16.2058  -19.9686 C   0  0  0  0  0  0  0  0  0  0  0  0
  -18.5487   15.7278  -20.8563 C   0  0  0  0  0  0  0  0  0  0  0  0
  -19.2937   14.5966  -20.2142 C   0  0  0  0  0  0  0  0  0  0  0  0
  -18.0722   15.4361  -22.2442 C   0  0  0  0  0  0  0  0  0  0  0  0
  -17.7437   14.4219  -23.0003 C   0  0  0  0  0  0  0  0  0  0  0  0
  -17.4306   14.8852  -24.3406 C   0  0  0  0  0  0  0  0  0  0  0  0
  -17.7322   13.1128  -22.4743 O   0  0  0  0  0  0  0  0  0  0  0  0
  -16.6755   12.5886  -21.7393 C   0  0  0  0  0  0  0  0  0  0  0  0
  -16.9818   11.4913  -20.7932 C   0  0  0  0  0  0  0  0  0  0  0  0
  -18.3164   10.8449  -21.2232 C   0  0  0  0  0  0  0  0  0  0  0  0
  -17.1835   11.8907  -19.3651 C   0  0  0  0  0  0  0  0  0  0  0  0
  -15.9923   10.3286  -20.8758 C   0  0  0  0  0  0  0  0  0  0  0  0
  1  2  1  0  0  0
  2  3  1  0  0  0
  2  4  1  0  0  0
  4  5  1  0  0  0
  5  6  1  0  0  0
  6  7  1  0  0  0
  7  8  1  0  0  0
  8  9  1  0  0  0
  9 10  1  0  0  0
 10 11  1  0  0  0
 11 12  2  0  0  0
 12 13  1  0  0  0
 13 14  2  0  0  0
 13 15  1  0  0  0
 15 16  1  0  0  0
 16 17  1  0  0  0
 17 18  1  0  0  0
 17 19  1  0  0  0
 19 20  2  0  0  0
 20 21  1  0  0  0
 20 22  1  0  0  0
 22 23  1  0  0  0
 23 24  1  0  0  0
 24 25  1  0  0  0
 24 26  1  0  0  0
 24 27  1  0  0  0
 21  2  1  0  0  0
 21  7  1  0  0  0
 19  8  1  0  0  0
 17 11  1  0  0  0
M  END
> <minimizedAffinity>
-8.15502

> <CNNscore>
0.3893092871

> <CNNaffinity>
6.7215843201

> <CNN_VS>
2.6167752743

> <CNNaffinity_variance>
0.0663349479

$$$$
[H]C1=C2C([H])([H])C([H])([H])[C@@]3([H])C(=C(OC([H])([H])C(C([H])([H])[H])(C([H])([H])[H])C([H])([H])[H])C4([H])C(C([H])([H])[H])(C([H])([H])[H])C([H])([H])C([H])([H])O[C@@]43[H])[C@@]2(C([H])([H])[H])C([H])([H])C([H])([H])C1=O


 27 30  0  0  0  0  0  0  0  0999 V2000
  -15.5084   12.8607  -23.2629 C   0  0  0  0  0  0  0  0  0  0  0  0
  -15.8822   14.2961  -23.7014 C   0  0  0  0  0  0  0  0  0  0  0  0
  -14.6711   15.1142  -23.4386 C   0  0  0  0  0  0  0  0  0  0  0  0
  -16.2011   14.1200  -25.1833 C   0  0  0  0  0  0  0  0  0  0  0  0
  -17.5144   13.3593  -25.2572 C   0  0  0  0  0  0  0  0  0  0  0  0
  -18.5253   14.0645  -24.6230 O   0  0  0  0  0  0  0  0  0  0  0  0
  -18.3102   13.9367  -23.2331 C   0  0  0  0  0  0  0  0  0  0  0  0
  -19.3222   14.7408  -22.4668 C   0  0  0  0  0  0  0  0  0  0  0  0
  -19.5833   14.3242  -21.0724 C   0  0  0  0  0  0  0  0  0  0  0  0
  -20.4119   15.3603  -20.3919 C   0  0  0  0  0  0  0  0  0  0  0  0
  -20.6982   16.5568  -21.1803 C   0  0  0  0  0  0  0  0  0  0  0  0
  -21.8542   17.1719  -21.0169 C   0  0  0  0  0  0  0  0  0  0  0  0
  -22.2484   18.3743  -21.7492 C   0  0  0  0  0  0  0  0  0  0  0  0
  -23.0819   19.1670  -21.3014 O   0  0  0  0  0  0  0  0  0  0  0  0
  -21.5933   18.5992  -23.0685 C   0  0  0  0  0  0  0  0  0  0  0  0
  -20.5967   17.5118  -23.3835 C   0  0  0  0  0  0  0  0  0  0  0  0
  -19.7653   17.1715  -22.1917 C   0  0  0  0  0  0  0  0  0  0  0  0
  -19.2294   18.4143  -21.5474 C   0  0  0  0  0  0  0  0  0  0  0  0
  -18.7218   16.1452  -22.5019 C   0  0  0  0  0  0  0  0  0  0  0  0
  -17.4421   16.0589  -22.7526 C   0  0  0  0  0  0  0  0  0  0  0  0
  -17.0587   14.6653  -22.8946 C   0  0  0  0  0  0  0  0  0  0  0  0
  -16.6525   17.2243  -22.8480 O   0  0  0  0  0  0  0  0  0  0  0  0
  -15.6320   17.5367  -21.9577 C   0  0  0  0  0  0  0  0  0  0  0  0
  -15.9389   17.4495  -20.5116 C   0  0  0  0  0  0  0  0  0  0  0  0
  -16.9143   18.5928  -20.1579 C   0  0  0  0  0  0  0  0  0  0  0  0
  -14.7796   17.6231  -19.5812 C   0  0  0  0  0  0  0  0  0  0  0  0
  -16.7270   16.1943  -20.1359 C   0  0  0  0  0  0  0  0  0  0  0  0
  1  2  1  0  0  0
  2  3  1  0  0  0
  2  4  1  0  0  0
  4  5  1  0  0  0
  5  6  1  0  0  0
  6  7  1  0  0  0
  7  8  1  0  0  0
  8  9  1  0  0  0
  9 10  1  0  0  0
 10 11  1  0  0  0
 11 12  2  0  0  0
 12 13  1  0  0  0
 13 14  2  0  0  0
 13 15  1  0  0  0
 15 16  1  0  0  0
 16 17  1  0  0  0
 17 18  1  0  0  0
 17 19  1  0  0  0
 19 20  2  0  0  0
 20 21  1  0  0  0
 20 22  1  0  0  0
 22 23  1  0  0  0
 23 24  1  0  0  0
 24 25  1  0  0  0
 24 26  1  0  0  0
 24 27  1  0  0  0
 21  2  1  0  0  0
 21  7  1  0  0  0
 19  8  1  0  0  0
 17 11  1  0  0  0
M  END
> <minimizedAffinity>
-2.92672

> <CNNscore>
0.3629281819

> <CNNaffinity>
6.0993247032

> <CNN_VS>
2.2136168480

> <CNNaffinity_variance>
0.3843850493

$$$$
[H]C1=C2C([H])([H])C([H])([H])[C@@]3([H])C(=C(OC([H])([H])C(C([H])([H])[H])(C([H])([H])[H])C([H])([H])[H])C4([H])C(C([H])([H])[H])(C([H])([H])[H])C([H])([H])C([H])([H])O[C@@]43[H])[C@@]2(C([H])([H])[H])C([H])([H])C([H])([H])C1=O


 27 30  0  0  0  0  0  0  0  0999 V2000
  -18.3272   11.8050  -11.0479 C   0  0  0  0  0  0  0  0  0  0  0  0
  -19.0576   10.4525  -10.8757 C   0  0  0  0  0  0  0  0  0  0  0  0
  -18.1743    9.6384  -10.0026 C   0  0  0  0  0  0  0  0  0  0  0  0
  -20.3710   10.8640  -10.2166 C   0  0  0  0  0  0  0  0  0  0  0  0
  -21.1819   11.5868  -11.2791 C   0  0  0  0  0  0  0  0  0  0  0  0
  -21.4212   10.7558  -12.3624 O   0  0  0  0  0  0  0  0  0  0  0  0
  -20.2107   10.6561  -13.0830 C   0  0  0  0  0  0  0  0  0  0  0  0
  -20.3609    9.7056  -14.2370 C   0  0  0  0  0  0  0  0  0  0  0  0
  -19.4192    9.8755  -15.3642 C   0  0  0  0  0  0  0  0  0  0  0  0
  -19.5433    8.7161  -16.2934 C   0  0  0  0  0  0  0  0  0  0  0  0
  -20.4581    7.6601  -15.8658 C   0  0  0  0  0  0  0  0  0  0  0  0
  -21.1389    6.9922  -16.7779 C   0  0  0  0  0  0  0  0  0  0  0  0
  -22.0805    5.9177  -16.4675 C   0  0  0  0  0  0  0  0  0  0  0  0
  -22.3582    5.0368  -17.2865 O   0  0  0  0  0  0  0  0  0  0  0  0
  -22.6925    5.9358  -15.1091 C   0  0  0  0  0  0  0  0  0  0  0  0
  -22.1771    7.0898  -14.2858 C   0  0  0  0  0  0  0  0  0  0  0  0
  -20.7010    7.2509  -14.4358 C   0  0  0  0  0  0  0  0  0  0  0  0
  -20.0045    5.9346  -14.2660 C   0  0  0  0  0  0  0  0  0  0  0  0
  -20.1588    8.3453  -13.5716 C   0  0  0  0  0  0  0  0  0  0  0  0
  -19.5236    8.5103  -12.4414 C   0  0  0  0  0  0  0  0  0  0  0  0
  -19.2341    9.9188  -12.2378 C   0  0  0  0  0  0  0  0  0  0  0  0
  -19.2204    7.4013  -11.6237 O   0  0  0  0  0  0  0  0  0  0  0  0
  -20.1236    6.3829  -11.3431 C   0  0  0  0  0  0  0  0  0  0  0  0
  -21.1046    6.6216  -10.2596 C   0  0  0  0  0  0  0  0  0  0  0  0
  -20.3361    7.1231   -9.0180 C   0  0  0  0  0  0  0  0  0  0  0  0
  -21.8691    5.4243   -9.7886 C   0  0  0  0  0  0  0  0  0  0  0  0
  -22.0668    7.7716  -10.5583 C   0  0  0  0  0  0  0  0  0  0  0  0
  1  2  1  0  0  0
  2  3  1  0  0  0
  2  4  1  0  0  0
  4  5  1  0  0  0
  5  6  1  0  0  0
  6  7  1  0  0  0
  7  8  1  0  0  0
  8  9  1  0  0  0
  9 10  1  0  0  0
 10 11  1  0  0  0
 11 12  2  0  0  0
 12 13  1  0  0  0
 13 14  2  0  0  0
 13 15  1  0  0  0
 15 16  1  0  0  0
 16 17  1  0  0  0
 17 18  1  0  0  0
 17 19  1  0  0  0
 19 20  2  0  0  0
 20 21  1  0  0  0
 20 22  1  0  0  0
 22 23  1  0  0  0
 23 24  1  0  0  0
 24 25  1  0  0  0
 24 26  1  0  0  0
 24 27  1  0  0  0
 21  2  1  0  0  0
 21  7  1  0  0  0
 19  8  1  0  0  0
 17 11  1  0  0  0
M  END
> <minimizedAffinity>
-1.31114

> <CNNscore>
0.3602707386

> <CNNaffinity>
4.7486958504

> <CNN_VS>
1.7108161449

> <CNNaffinity_variance>
0.1322457343

$$$$
[H]C1=C2C([H])([H])C([H])([H])[C@@]3([H])C(=C(OC([H])([H])C(C([H])([H])[H])(C([H])([H])[H])C([H])([H])[H])C4([H])C(C([H])([H])[H])(C([H])([H])[H])C([H])([H])C([H])([H])O[C@@]43[H])[C@@]2(C([H])([H])[H])C([H])([H])C([H])([H])C1=O


 27 30  0  0  0  0  0  0  0  0999 V2000
  -17.1381   14.4668  -25.5167 C   0  0  0  0  0  0  0  0  0  0  0  0
  -16.8997   14.0395  -24.0495 C   0  0  0  0  0  0  0  0  0  0  0  0
  -17.1344   12.5733  -24.0251 C   0  0  0  0  0  0  0  0  0  0  0  0
  -15.4449   14.4378  -23.8179 C   0  0  0  0  0  0  0  0  0  0  0  0
  -15.4132   15.9561  -23.7682 C   0  0  0  0  0  0  0  0  0  0  0  0
  -16.2160   16.4295  -22.7420 O   0  0  0  0  0  0  0  0  0  0  0  0
  -17.5559   16.2815  -23.1627 C   0  0  0  0  0  0  0  0  0  0  0  0
  -18.5004   16.7007  -22.0718 C   0  0  0  0  0  0  0  0  0  0  0  0
  -19.8584   17.1093  -22.4899 C   0  0  0  0  0  0  0  0  0  0  0  0
  -20.7262   17.2526  -21.2859 C   0  0  0  0  0  0  0  0  0  0  0  0
  -20.1068   16.8847  -20.0147 C   0  0  0  0  0  0  0  0  0  0  0  0
  -20.4478   17.5398  -18.9210 C   0  0  0  0  0  0  0  0  0  0  0  0
  -19.8949   17.2592  -17.5971 C   0  0  0  0  0  0  0  0  0  0  0  0
  -20.5059   17.5400  -16.5619 O   0  0  0  0  0  0  0  0  0  0  0  0
  -18.5520   16.6147  -17.5555 C   0  0  0  0  0  0  0  0  0  0  0  0
  -18.0239   16.3471  -18.9427 C   0  0  0  0  0  0  0  0  0  0  0  0
  -19.0852   15.7918  -19.8330 C   0  0  0  0  0  0  0  0  0  0  0  0
  -19.8093   14.6672  -19.1563 C   0  0  0  0  0  0  0  0  0  0  0  0
  -18.5642   15.4521  -21.1937 C   0  0  0  0  0  0  0  0  0  0  0  0
  -18.1838   14.4156  -21.8930 C   0  0  0  0  0  0  0  0  0  0  0  0
  -17.8517   14.8264  -23.2458 C   0  0  0  0  0  0  0  0  0  0  0  0
  -18.1433   13.1334  -21.3057 O   0  0  0  0  0  0  0  0  0  0  0  0
  -17.1829   12.7412  -20.3808 C   0  0  0  0  0  0  0  0  0  0  0  0
  -17.3118   11.3860  -19.7977 C   0  0  0  0  0  0  0  0  0  0  0  0
  -16.0923   11.1385  -18.8837 C   0  0  0  0  0  0  0  0  0  0  0  0
  -17.3087   10.2482  -20.7698 C   0  0  0  0  0  0  0  0  0  0  0  0
  -18.4951   11.2509  -18.8390 C   0  0  0  0  0  0  0  0  0  0  0  0
  1  2  1  0  0  0
  2  3  1  0  0  0
  2  4  1  0  0  0
  4  5  1  0  0  0
  5  6  1  0  0  0
  6  7  1  0  0  0
  7  8  1  0  0  0
  8  9  1  0  0  0
  9 10  1  0  0  0
 10 11  1  0  0  0
 11 12  2  0  0  0
 12 13  1  0  0  0
 13 14  2  0  0  0
 13 15  1  0  0  0
 15 16  1  0  0  0
 16 17  1  0  0  0
 17 18  1  0  0  0
 17 19  1  0  0  0
 19 20  2  0  0  0
 20 21  1  0  0  0
 20 22  1  0  0  0
 22 23  1  0  0  0
 23 24  1  0  0  0
 24 25  1  0  0  0
 24 26  1  0  0  0
 24 27  1  0  0  0
 21  2  1  0  0  0
 21  7  1  0  0  0
 19  8  1  0  0  0
 17 11  1  0  0  0
M  END
> <minimizedAffinity>
-8.02770

> <CNNscore>
0.3392606974

> <CNNaffinity>
6.4239244461

> <CNN_VS>
2.1793851852

> <CNNaffinity_variance>
0.0469751284

$$$$
[H]C1=C2C([H])([H])C([H])([H])[C@@]3([H])C(=C(OC([H])([H])C(C([H])([H])[H])(C([H])([H])[H])C([H])([H])[H])C4([H])C(C([H])([H])[H])(C([H])([H])[H])C([H])([H])C([H])([H])O[C@@]43[H])[C@@]2(C([H])([H])[H])C([H])([H])C([H])([H])C1=O


 27 30  0  0  0  0  0  0  0  0999 V2000
  -19.3592   15.7798  -17.3817 C   0  0  0  0  0  0  0  0  0  0  0  0
  -19.1171   14.5932  -18.3439 C   0  0  0  0  0  0  0  0  0  0  0  0
  -18.2759   13.6358  -17.5818 C   0  0  0  0  0  0  0  0  0  0  0  0
  -20.5321   14.0920  -18.6185 C   0  0  0  0  0  0  0  0  0  0  0  0
  -21.2026   15.1410  -19.4898 C   0  0  0  0  0  0  0  0  0  0  0  0
  -20.5074   15.3085  -20.6773 O   0  0  0  0  0  0  0  0  0  0  0  0
  -19.3361   16.0362  -20.3722 C   0  0  0  0  0  0  0  0  0  0  0  0
  -18.4804   16.1956  -21.5970 C   0  0  0  0  0  0  0  0  0  0  0  0
  -17.5315   17.3295  -21.6011 C   0  0  0  0  0  0  0  0  0  0  0  0
  -16.6045   17.1965  -22.7613 C   0  0  0  0  0  0  0  0  0  0  0  0
  -16.7609   15.9814  -23.5575 C   0  0  0  0  0  0  0  0  0  0  0  0
  -16.5397   16.0328  -24.8575 C   0  0  0  0  0  0  0  0  0  0  0  0
  -16.6650   14.8829  -25.7517 C   0  0  0  0  0  0  0  0  0  0  0  0
  -16.0551   14.8200  -26.8230 O   0  0  0  0  0  0  0  0  0  0  0  0
  -17.5684   13.7846  -25.3068 C   0  0  0  0  0  0  0  0  0  0  0  0
  -18.1753   14.0800  -23.9580 C   0  0  0  0  0  0  0  0  0  0  0  0
  -17.1620   14.6346  -23.0131 C   0  0  0  0  0  0  0  0  0  0  0  0
  -15.9148   13.8033  -23.0262 C   0  0  0  0  0  0  0  0  0  0  0  0
  -17.7269   14.8676  -21.6475 C   0  0  0  0  0  0  0  0  0  0  0  0
  -17.7469   14.3173  -20.4622 C   0  0  0  0  0  0  0  0  0  0  0  0
  -18.4654   15.1709  -19.5326 C   0  0  0  0  0  0  0  0  0  0  0  0
  -17.1246   13.0702  -20.2429 O   0  0  0  0  0  0  0  0  0  0  0  0
  -17.7849   11.8519  -20.3499 C   0  0  0  0  0  0  0  0  0  0  0  0
  -17.1440   10.6723  -19.7246 C   0  0  0  0  0  0  0  0  0  0  0  0
  -15.9377   11.1641  -18.8960 C   0  0  0  0  0  0  0  0  0  0  0  0
  -16.5823    9.6527  -20.6651 C   0  0  0  0  0  0  0  0  0  0  0  0
  -18.0259    9.9890  -18.6791 C   0  0  0  0  0  0  0  0  0  0  0  0
  1  2  1  0  0  0
  2  3  1  0  0  0
  2  4  1  0  0  0
  4  5  1  0  0  0
  5  6  1  0  0  0
  6  7  1  0  0  0
  7  8  1  0  0  0
  8  9  1  0  0  0
  9 10  1  0  0  0
 10 11  1  0  0  0
 11 12  2  0  0  0
 12 13  1  0  0  0
 13 14  2  0  0  0
 13 15  1  0  0  0
 15 16  1  0  0  0
 16 17  1  0  0  0
 17 18  1  0  0  0
 17 19  1  0  0  0
 19 20  2  0  0  0
 20 21  1  0  0  0
 20 22  1  0  0  0
 22 23  1  0  0  0
 23 24  1  0  0  0
 24 25  1  0  0  0
 24 26  1  0  0  0
 24 27  1  0  0  0
 21  2  1  0  0  0
 21  7  1  0  0  0
 19  8  1  0  0  0
 17 11  1  0  0  0
M  END
> <minimizedAffinity>
-8.55387

> <CNNscore>
0.3151729107

> <CNNaffinity>
6.3915057182

> <CNN_VS>
2.0144295692

> <CNNaffinity_variance>
0.0673376918

$$$$
[H]C1=C2C([H])([H])C([H])([H])[C@@]3([H])C(=C(OC([H])([H])C(C([H])([H])[H])(C([H])([H])[H])C([H])([H])[H])C4([H])C(C([H])([H])[H])(C([H])([H])[H])C([H])([H])C([H])([H])O[C@@]43[H])[C@@]2(C([H])([H])[H])C([H])([H])C([H])([H])C1=O


 27 30  0  0  0  0  0  0  0  0999 V2000
  -14.8068   14.0477  -24.8659 C   0  0  0  0  0  0  0  0  0  0  0  0
  -15.9045   14.9167  -24.2086 C   0  0  0  0  0  0  0  0  0  0  0  0
  -15.2703   16.2391  -23.9754 C   0  0  0  0  0  0  0  0  0  0  0  0
  -16.9985   14.9335  -25.2725 C   0  0  0  0  0  0  0  0  0  0  0  0
  -17.6004   13.5385  -25.2981 C   0  0  0  0  0  0  0  0  0  0  0  0
  -18.1313   13.2113  -24.0601 O   0  0  0  0  0  0  0  0  0  0  0  0
  -17.0435   12.9327  -23.2036 C   0  0  0  0  0  0  0  0  0  0  0  0
  -17.5292   12.6431  -21.8115 C   0  0  0  0  0  0  0  0  0  0  0  0
  -16.6343   11.8421  -20.9492 C   0  0  0  0  0  0  0  0  0  0  0  0
  -17.1482   11.8590  -19.5496 C   0  0  0  0  0  0  0  0  0  0  0  0
  -18.3195   12.7013  -19.3178 C   0  0  0  0  0  0  0  0  0  0  0  0
  -19.2129   12.3260  -18.4220 C   0  0  0  0  0  0  0  0  0  0  0  0
  -20.4207   13.0872  -18.1072 C   0  0  0  0  0  0  0  0  0  0  0  0
  -20.9910   12.9846  -17.0172 O   0  0  0  0  0  0  0  0  0  0  0  0
  -20.9339   13.9976  -19.1693 C   0  0  0  0  0  0  0  0  0  0  0  0
  -20.0543   13.9692  -20.3943 C   0  0  0  0  0  0  0  0  0  0  0  0
  -18.6078   13.9986  -20.0283 C   0  0  0  0  0  0  0  0  0  0  0  0
  -18.3369   15.0797  -19.0260 C   0  0  0  0  0  0  0  0  0  0  0  0
  -17.7189   14.0434  -21.2309 C   0  0  0  0  0  0  0  0  0  0  0  0
  -17.0114   14.8954  -21.9250 C   0  0  0  0  0  0  0  0  0  0  0  0
  -16.2985   14.2007  -22.9825 C   0  0  0  0  0  0  0  0  0  0  0  0
  -17.0214   16.2674  -21.5963 O   0  0  0  0  0  0  0  0  0  0  0  0
  -17.9484   17.1721  -22.1000 C   0  0  0  0  0  0  0  0  0  0  0  0
  -18.4699   18.2013  -21.1716 C   0  0  0  0  0  0  0  0  0  0  0  0
  -18.5249   19.5464  -21.9277 C   0  0  0  0  0  0  0  0  0  0  0  0
  -17.6413   18.4707  -19.9549 C   0  0  0  0  0  0  0  0  0  0  0  0
  -19.9272   17.9706  -20.7707 C   0  0  0  0  0  0  0  0  0  0  0  0
  1  2  1  0  0  0
  2  3  1  0  0  0
  2  4  1  0  0  0
  4  5  1  0  0  0
  5  6  1  0  0  0
  6  7  1  0  0  0
  7  8  1  0  0  0
  8  9  1  0  0  0
  9 10  1  0  0  0
 10 11  1  0  0  0
 11 12  2  0  0  0
 12 13  1  0  0  0
 13 14  2  0  0  0
 13 15  1  0  0  0
 15 16  1  0  0  0
 16 17  1  0  0  0
 17 18  1  0  0  0
 17 19  1  0  0  0
 19 20  2  0  0  0
 20 21  1  0  0  0
 20 22  1  0  0  0
 22 23  1  0  0  0
 23 24  1  0  0  0
 24 25  1  0  0  0
 24 26  1  0  0  0
 24 27  1  0  0  0
 21  2  1  0  0  0
 21  7  1  0  0  0
 19  8  1  0  0  0
 17 11  1  0  0  0
M  END
> <minimizedAffinity>
-8.75576

> <CNNscore>
0.3147733808

> <CNNaffinity>
6.4405632019

> <CNN_VS>
2.0273177624

> <CNNaffinity_variance>
0.0556187741

$$$$
[H]C1=C2C([H])([H])C([H])([H])[C@@]3([H])C(=C(OC([H])([H])C(C([H])([H])[H])(C([H])([H])[H])C([H])([H])[H])C4([H])C(C([H])([H])[H])(C([H])([H])[H])C([H])([H])C([H])([H])O[C@@]43[H])[C@@]2(C([H])([H])[H])C([H])([H])C([H])([H])C1=O


 27 30  0  0  0  0  0  0  0  0999 V2000
  -16.0565   11.0756  -18.5478 C   0  0  0  0  0  0  0  0  0  0  0  0
  -17.1036   11.4475  -19.6237 C   0  0  0  0  0  0  0  0  0  0  0  0
  -16.3954   11.3151  -20.9222 C   0  0  0  0  0  0  0  0  0  0  0  0
  -18.1940   10.4028  -19.4035 C   0  0  0  0  0  0  0  0  0  0  0  0
  -18.8742   10.7553  -18.0913 C   0  0  0  0  0  0  0  0  0  0  0  0
  -19.4239   12.0265  -18.1505 O   0  0  0  0  0  0  0  0  0  0  0  0
  -18.3544   12.9446  -18.0622 C   0  0  0  0  0  0  0  0  0  0  0  0
  -18.8569   14.3541  -18.1979 C   0  0  0  0  0  0  0  0  0  0  0  0
  -18.0098   15.4196  -17.6208 C   0  0  0  0  0  0  0  0  0  0  0  0
  -18.5230   16.7508  -18.0540 C   0  0  0  0  0  0  0  0  0  0  0  0
  -19.6446   16.7202  -18.9899 C   0  0  0  0  0  0  0  0  0  0  0  0
  -20.5587   17.6700  -18.9276 C   0  0  0  0  0  0  0  0  0  0  0  0
  -21.7216   17.7412  -19.8109 C   0  0  0  0  0  0  0  0  0  0  0  0
  -22.2976   18.8072  -20.0464 O   0  0  0  0  0  0  0  0  0  0  0  0
  -22.1813   16.4598  -20.4166 C   0  0  0  0  0  0  0  0  0  0  0  0
  -21.3037   15.3056  -20.0011 C   0  0  0  0  0  0  0  0  0  0  0  0
  -19.8582   15.6729  -20.0523 C   0  0  0  0  0  0  0  0  0  0  0  0
  -19.5270   16.3403  -21.3530 C   0  0  0  0  0  0  0  0  0  0  0  0
  -18.9671   14.5201  -19.7126 C   0  0  0  0  0  0  0  0  0  0  0  0
  -18.2117   13.6287  -20.2983 C   0  0  0  0  0  0  0  0  0  0  0  0
  -17.5387   12.8175  -19.2993 C   0  0  0  0  0  0  0  0  0  0  0  0
  -18.1440   13.5635  -21.7060 O   0  0  0  0  0  0  0  0  0  0  0  0
  -17.1075   14.1117  -22.4522 C   0  0  0  0  0  0  0  0  0  0  0  0
  -17.2437   14.0895  -23.9267 C   0  0  0  0  0  0  0  0  0  0  0  0
  -15.9697   14.7136  -24.5360 C   0  0  0  0  0  0  0  0  0  0  0  0
  -18.3778   14.8835  -24.4949 C   0  0  0  0  0  0  0  0  0  0  0  0
  -17.2502   12.6769  -24.5116 C   0  0  0  0  0  0  0  0  0  0  0  0
  1  2  1  0  0  0
  2  3  1  0  0  0
  2  4  1  0  0  0
  4  5  1  0  0  0
  5  6  1  0  0  0
  6  7  1  0  0  0
  7  8  1  0  0  0
  8  9  1  0  0  0
  9 10  1  0  0  0
 10 11  1  0  0  0
 11 12  2  0  0  0
 12 13  1  0  0  0
 13 14  2  0  0  0
 13 15  1  0  0  0
 15 16  1  0  0  0
 16 17  1  0  0  0
 17 18  1  0  0  0
 17 19  1  0  0  0
 19 20  2  0  0  0
 20 21  1  0  0  0
 20 22  1  0  0  0
 22 23  1  0  0  0
 23 24  1  0  0  0
 24 25  1  0  0  0
 24 26  1  0  0  0
 24 27  1  0  0  0
 21  2  1  0  0  0
 21  7  1  0  0  0
 19  8  1  0  0  0
 17 11  1  0  0  0
M  END
> <minimizedAffinity>
-7.56337

> <CNNscore>
0.3128882051

> <CNNaffinity>
6.2606019974

> <CNN_VS>
1.9588685036

> <CNNaffinity_variance>
0.0469740927

$$$$
[H]C1=C2C([H])([H])C([H])([H])[C@@]3([H])C(=C(OC([H])([H])C(C([H])([H])[H])(C([H])([H])[H])C([H])([H])[H])C4([H])C(C([H])([H])[H])(C([H])([H])[H])C([H])([H])C([H])([H])O[C@@]43[H])[C@@]2(C([H])([H])[H])C([H])([H])C([H])([H])C1=O


 27 30  0  0  0  0  0  0  0  0999 V2000
  -16.8213   12.0706  -19.6907 C   0  0  0  0  0  0  0  0  0  0  0  0
  -17.8270   12.6132  -20.7330 C   0  0  0  0  0  0  0  0  0  0  0  0
  -17.5135   11.8919  -21.9926 C   0  0  0  0  0  0  0  0  0  0  0  0
  -19.1747   12.2379  -20.1233 C   0  0  0  0  0  0  0  0  0  0  0  0
  -19.3720   13.1410  -18.9173 C   0  0  0  0  0  0  0  0  0  0  0  0
  -19.3648   14.4741  -19.2973 O   0  0  0  0  0  0  0  0  0  0  0  0
  -18.0235   14.8183  -19.5744 C   0  0  0  0  0  0  0  0  0  0  0  0
  -17.9344   16.2334  -20.0717 C   0  0  0  0  0  0  0  0  0  0  0  0
  -16.6324   16.9144  -19.9069 C   0  0  0  0  0  0  0  0  0  0  0  0
  -16.6450   18.1990  -20.6638 C   0  0  0  0  0  0  0  0  0  0  0  0
  -17.8502   18.4567  -21.4487 C   0  0  0  0  0  0  0  0  0  0  0  0
  -18.2724   19.6993  -21.5874 C   0  0  0  0  0  0  0  0  0  0  0  0
  -19.4628   20.0755  -22.3483 C   0  0  0  0  0  0  0  0  0  0  0  0
  -19.5975   21.2023  -22.8340 O   0  0  0  0  0  0  0  0  0  0  0  0
  -20.5113   19.0294  -22.5109 C   0  0  0  0  0  0  0  0  0  0  0  0
  -20.1060   17.7334  -21.8542 C   0  0  0  0  0  0  0  0  0  0  0  0
  -18.6785   17.4019  -22.1361 C   0  0  0  0  0  0  0  0  0  0  0  0
  -18.3811   17.5410  -23.5986 C   0  0  0  0  0  0  0  0  0  0  0  0
  -18.2760   16.0840  -21.5532 C   0  0  0  0  0  0  0  0  0  0  0  0
  -18.0791   14.8441  -21.9163 C   0  0  0  0  0  0  0  0  0  0  0  0
  -17.5993   14.0680  -20.7864 C   0  0  0  0  0  0  0  0  0  0  0  0
  -18.3328   14.4394  -23.2439 O   0  0  0  0  0  0  0  0  0  0  0  0
  -17.6546   14.9474  -24.3455 C   0  0  0  0  0  0  0  0  0  0  0  0
  -16.8438   13.9990  -25.1432 C   0  0  0  0  0  0  0  0  0  0  0  0
  -16.4211   14.7080  -26.4480 C   0  0  0  0  0  0  0  0  0  0  0  0
  -17.5384   12.7492  -25.5852 C   0  0  0  0  0  0  0  0  0  0  0  0
  -15.5059   13.6502  -24.4904 C   0  0  0  0  0  0  0  0  0  0  0  0
  1  2  1  0  0  0
  2  3  1  0  0  0
  2  4  1  0  0  0
  4  5  1  0  0  0
  5  6  1  0  0  0
  6  7  1  0  0  0
  7  8  1  0  0  0
  8  9  1  0  0  0
  9 10  1  0  0  0
 10 11  1  0  0  0
 11 12  2  0  0  0
 12 13  1  0  0  0
 13 14  2  0  0  0
 13 15  1  0  0  0
 15 16  1  0  0  0
 16 17  1  0  0  0
 17 18  1  0  0  0
 17 19  1  0  0  0
 19 20  2  0  0  0
 20 21  1  0  0  0
 20 22  1  0  0  0
 22 23  1  0  0  0
 23 24  1  0  0  0
 24 25  1  0  0  0
 24 26  1  0  0  0
 24 27  1  0  0  0
 21  2  1  0  0  0
 21  7  1  0  0  0
 19  8  1  0  0  0
 17 11  1  0  0  0
M  END
> <minimizedAffinity>
-8.38875

> <CNNscore>
0.2933821678

> <CNNaffinity>
6.3891925812

> <CNN_VS>
1.8744751215

> <CNNaffinity_variance>
0.0610719994

$$$$
[H]OC(=O)c1c([H])c([H])c(C(=O)N2C([H])([H])C([H])([H])C([H])(c3nc4c([H])c([H])c([H])c([H])c4c(=O)n3C([H])([H])c3c([H])c([H])c(F)c([H])c3[H])C([H])([H])C2([H])[H])c([H])c1[H]


 37 41  0  0  0  0  0  0  0  0999 V2000
  -18.0014   15.4158  -21.9870 C   0  0  0  0  0  0  0  0  0  0  0  0
  -17.4377   14.4976  -22.8399 N   0  0  0  0  0  0  0  0  0  0  0  0
  -16.9935   14.8197  -24.0582 C   0  0  0  0  0  0  0  0  0  0  0  0
  -16.4253   13.9229  -24.9324 C   0  0  0  0  0  0  0  0  0  0  0  0
  -15.9910   14.3330  -26.1719 C   0  0  0  0  0  0  0  0  0  0  0  0
  -16.1316   15.6574  -26.5306 C   0  0  0  0  0  0  0  0  0  0  0  0
  -16.7071   16.5867  -25.6563 C   0  0  0  0  0  0  0  0  0  0  0  0
  -17.1371   16.1602  -24.4181 C   0  0  0  0  0  0  0  0  0  0  0  0
  -17.7004   17.0745  -23.5656 C   0  0  0  0  0  0  0  0  0  0  0  0
  -17.8015   18.2541  -23.9361 O   0  0  0  0  0  0  0  0  0  0  0  0
  -18.1370   16.7091  -22.3460 N   0  0  0  0  0  0  0  0  0  0  0  0
  -18.3359   11.2586  -18.5166 C   0  0  0  0  0  0  0  0  0  0  0  0
  -17.1072   10.7462  -18.5242 O   0  0  0  0  0  0  0  0  0  0  0  0
  -18.5484   12.2146  -19.4930 N   0  0  0  0  0  0  0  0  0  0  0  0
  -19.7308   12.9497  -19.7467 C   0  0  0  0  0  0  0  0  0  0  0  0
  -19.5554   13.9239  -20.9201 C   0  0  0  0  0  0  0  0  0  0  0  0
  -18.3717   14.8395  -20.6792 C   0  0  0  0  0  0  0  0  0  0  0  0
  -17.1681   14.0308  -20.2113 C   0  0  0  0  0  0  0  0  0  0  0  0
  -17.4204   12.5502  -20.4300 C   0  0  0  0  0  0  0  0  0  0  0  0
  -20.7226    9.4746  -15.5367 C   0  0  0  0  0  0  0  0  0  0  0  0
  -19.6927    8.7758  -16.1160 C   0  0  0  0  0  0  0  0  0  0  0  0
  -18.9275    9.3666  -17.0768 C   0  0  0  0  0  0  0  0  0  0  0  0
  -19.1832   10.7067  -17.4904 C   0  0  0  0  0  0  0  0  0  0  0  0
  -20.2135   11.3850  -16.9013 C   0  0  0  0  0  0  0  0  0  0  0  0
  -20.9904   10.7658  -15.9164 C   0  0  0  0  0  0  0  0  0  0  0  0
  -22.6421    8.0986  -14.9044 O   0  0  0  0  0  0  0  0  0  0  0  0
  -21.5520    8.8568  -14.5059 C   0  0  0  0  0  0  0  0  0  0  0  0
  -21.2895    9.0056  -13.3036 O   0  0  0  0  0  0  0  0  0  0  0  0
  -23.5631    8.4747  -14.9507 H   0  0  0  0  0  0  0  0  0  0  0  0
  -18.7376   17.6787  -21.5027 C   0  0  0  0  0  0  0  0  0  0  0  0
  -20.2121   17.7128  -21.4369 C   0  0  0  0  0  0  0  0  0  0  0  0
  -21.0219   17.9579  -22.5045 C   0  0  0  0  0  0  0  0  0  0  0  0
  -22.4010   17.9589  -22.3736 C   0  0  0  0  0  0  0  0  0  0  0  0
  -22.9875   17.7114  -21.1601 C   0  0  0  0  0  0  0  0  0  0  0  0
  -24.3441   17.7250  -21.0885 F   0  0  0  0  0  0  0  0  0  0  0  0
  -22.2089   17.4590  -20.0590 C   0  0  0  0  0  0  0  0  0  0  0  0
  -20.8389   17.4646  -20.2208 C   0  0  0  0  0  0  0  0  0  0  0  0
 26 27  1  0  0  0
 27 28  2  0  0  0
 27 20  1  0  0  0
 20 21  2  0  0  0
 21 22  1  0  0  0
 22 23  2  0  0  0
 23 24  1  0  0  0
 24 25  2  0  0  0
 23 12  1  0  0  0
 12 13  2  0  0  0
 12 14  1  0  0  0
 14 15  1  0  0  0
 15 16  1  0  0  0
 16 17  1  0  0  0
 17 18  1  0  0  0
 18 19  1  0  0  0
 17  1  1  0  0  0
  1  2  2  0  0  0
  2  3  1  0  0  0
  3  4  2  0  0  0
  4  5  1  0  0  0
  5  6  2  0  0  0
  6  7  1  0  0  0
  7  8  2  0  0  0
  8  9  1  0  0  0
  9 10  2  0  0  0
  9 11  1  0  0  0
 11 30  1  0  0  0
 30 31  1  0  0  0
 31 32  2  0  0  0
 32 33  1  0  0  0
 33 34  2  0  0  0
 34 35  1  0  0  0
 34 36  1  0  0  0
 36 37  2  0  0  0
 25 20  1  0  0  0
 19 14  1  0  0  0
 11  1  1  0  0  0
 37 31  1  0  0  0
  8  3  1  0  0  0
 26 29  1  0  0  0
M  END
> <minimizedAffinity>
-9.00885

> <CNNscore>
0.2586417794

> <CNNaffinity>
6.9650192261

> <CNN_VS>
1.8014450073

> <CNNaffinity_variance>
0.4361538887

$$$$
[H]OC(=O)c1c([H])c([H])c(C(=O)N2C([H])([H])C([H])([H])C([H])(c3nc4c([H])c([H])c([H])c([H])c4c(=O)n3C([H])([H])c3c([H])c([H])c(F)c([H])c3[H])C([H])([H])C2([H])[H])c([H])c1[H]


 37 41  0  0  0  0  0  0  0  0999 V2000
  -16.9416   14.7818  -22.8928 C   0  0  0  0  0  0  0  0  0  0  0  0
  -17.2007   13.8207  -23.8402 N   0  0  0  0  0  0  0  0  0  0  0  0
  -17.0054   14.0218  -25.1466 C   0  0  0  0  0  0  0  0  0  0  0  0
  -17.2554   13.0793  -26.1164 C   0  0  0  0  0  0  0  0  0  0  0  0
  -17.0277   13.3631  -27.4433 C   0  0  0  0  0  0  0  0  0  0  0  0
  -16.5445   14.6067  -27.7928 C   0  0  0  0  0  0  0  0  0  0  0  0
  -16.2833   15.5805  -26.8220 C   0  0  0  0  0  0  0  0  0  0  0  0
  -16.5165   15.2809  -25.4969 C   0  0  0  0  0  0  0  0  0  0  0  0
  -16.2592   16.2385  -24.5500 C   0  0  0  0  0  0  0  0  0  0  0  0
  -15.8233   17.3404  -24.9171 O   0  0  0  0  0  0  0  0  0  0  0  0
  -16.4708   15.9965  -23.2430 N   0  0  0  0  0  0  0  0  0  0  0  0
  -17.9630   10.8638  -19.2812 C   0  0  0  0  0  0  0  0  0  0  0  0
  -17.0423    9.9412  -19.5528 O   0  0  0  0  0  0  0  0  0  0  0  0
  -18.0303   11.8786  -20.2181 N   0  0  0  0  0  0  0  0  0  0  0  0
  -18.8878   13.0043  -20.2199 C   0  0  0  0  0  0  0  0  0  0  0  0
  -18.6434   13.9050  -21.4387 C   0  0  0  0  0  0  0  0  0  0  0  0
  -17.1862   14.3154  -21.5135 C   0  0  0  0  0  0  0  0  0  0  0  0
  -16.2872   13.1029  -21.3057 C   0  0  0  0  0  0  0  0  0  0  0  0
  -17.1045   11.8276  -21.4028 C   0  0  0  0  0  0  0  0  0  0  0  0
  -20.0408    9.9286  -15.7362 C   0  0  0  0  0  0  0  0  0  0  0  0
  -19.2449    8.9908  -16.3458 C   0  0  0  0  0  0  0  0  0  0  0  0
  -18.5769    9.3082  -17.4905 C   0  0  0  0  0  0  0  0  0  0  0  0
  -18.6937   10.6071  -18.0665 C   0  0  0  0  0  0  0  0  0  0  0  0
  -19.4915   11.5263  -17.4440 C   0  0  0  0  0  0  0  0  0  0  0  0
  -20.1710   11.1863  -16.2695 C   0  0  0  0  0  0  0  0  0  0  0  0
  -21.3498   10.6407  -13.7979 O   0  0  0  0  0  0  0  0  0  0  0  0
  -20.7633    9.6052  -14.5092 C   0  0  0  0  0  0  0  0  0  0  0  0
  -20.8512    8.4344  -14.1117 O   0  0  0  0  0  0  0  0  0  0  0  0
  -20.8994   11.0760  -13.0236 H   0  0  0  0  0  0  0  0  0  0  0  0
  -16.2172   17.0214  -22.2956 C   0  0  0  0  0  0  0  0  0  0  0  0
  -17.3802   17.6880  -21.6771 C   0  0  0  0  0  0  0  0  0  0  0  0
  -18.4594   18.1467  -22.3704 C   0  0  0  0  0  0  0  0  0  0  0  0
  -19.5252   18.7494  -21.7222 C   0  0  0  0  0  0  0  0  0  0  0  0
  -19.5200   18.8991  -20.3602 C   0  0  0  0  0  0  0  0  0  0  0  0
  -20.5908   19.4975  -19.7763 F   0  0  0  0  0  0  0  0  0  0  0  0
  -18.4530   18.4504  -19.6233 C   0  0  0  0  0  0  0  0  0  0  0  0
  -17.4070   17.8545  -20.2970 C   0  0  0  0  0  0  0  0  0  0  0  0
 26 27  1  0  0  0
 27 28  2  0  0  0
 27 20  1  0  0  0
 20 21  2  0  0  0
 21 22  1  0  0  0
 22 23  2  0  0  0
 23 24  1  0  0  0
 24 25  2  0  0  0
 23 12  1  0  0  0
 12 13  2  0  0  0
 12 14  1  0  0  0
 14 15  1  0  0  0
 15 16  1  0  0  0
 16 17  1  0  0  0
 17 18  1  0  0  0
 18 19  1  0  0  0
 17  1  1  0  0  0
  1  2  2  0  0  0
  2  3  1  0  0  0
  3  4  2  0  0  0
  4  5  1  0  0  0
  5  6  2  0  0  0
  6  7  1  0  0  0
  7  8  2  0  0  0
  8  9  1  0  0  0
  9 10  2  0  0  0
  9 11  1  0  0  0
 11 30  1  0  0  0
 30 31  1  0  0  0
 31 32  2  0  0  0
 32 33  1  0  0  0
 33 34  2  0  0  0
 34 35  1  0  0  0
 34 36  1  0  0  0
 36 37  2  0  0  0
 25 20  1  0  0  0
 19 14  1  0  0  0
 11  1  1  0  0  0
 37 31  1  0  0  0
  8  3  1  0  0  0
 26 29  1  0  0  0
M  END
> <minimizedAffinity>
-9.50487

> <CNNscore>
0.2584861517

> <CNNaffinity>
7.1448798180

> <CNN_VS>
1.8468525410

> <CNNaffinity_variance>
0.4847057462

$$$$
[H]OC(=O)c1c([H])c([H])c(C(=O)N2C([H])([H])C([H])([H])C([H])(c3nc4c([H])c([H])c([H])c([H])c4c(=O)n3C([H])([H])c3c([H])c([H])c(F)c([H])c3[H])C([H])([H])C2([H])[H])c([H])c1[H]


 37 41  0  0  0  0  0  0  0  0999 V2000
  -19.7937   16.0154  -19.1194 C   0  0  0  0  0  0  0  0  0  0  0  0
  -19.5194   14.7738  -18.5980 N   0  0  0  0  0  0  0  0  0  0  0  0
  -18.9121   13.8127  -19.3000 C   0  0  0  0  0  0  0  0  0  0  0  0
  -18.6251   12.5622  -18.8047 C   0  0  0  0  0  0  0  0  0  0  0  0
  -17.9958   11.6253  -19.5917 C   0  0  0  0  0  0  0  0  0  0  0  0
  -17.6545   11.9536  -20.8871 C   0  0  0  0  0  0  0  0  0  0  0  0
  -17.9373   13.2203  -21.4111 C   0  0  0  0  0  0  0  0  0  0  0  0
  -18.5681   14.1479  -20.6101 C   0  0  0  0  0  0  0  0  0  0  0  0
  -18.8432   15.3871  -21.1283 C   0  0  0  0  0  0  0  0  0  0  0  0
  -18.5131   15.6324  -22.2988 O   0  0  0  0  0  0  0  0  0  0  0  0
  -19.4581   16.3281  -20.3880 N   0  0  0  0  0  0  0  0  0  0  0  0
  -20.0686   18.3182  -14.2144 C   0  0  0  0  0  0  0  0  0  0  0  0
  -18.8328   18.7703  -14.0122 O   0  0  0  0  0  0  0  0  0  0  0  0
  -20.1908   17.5042  -15.3255 N   0  0  0  0  0  0  0  0  0  0  0  0
  -21.3588   16.8743  -15.8172 C   0  0  0  0  0  0  0  0  0  0  0  0
  -21.0749   16.0576  -17.0857 C   0  0  0  0  0  0  0  0  0  0  0  0
  -20.4238   16.9264  -18.1434 C   0  0  0  0  0  0  0  0  0  0  0  0
  -19.2942   17.7444  -17.5298 C   0  0  0  0  0  0  0  0  0  0  0  0
  -18.9631   17.2162  -16.1459 C   0  0  0  0  0  0  0  0  0  0  0  0
  -22.9355   19.7488  -11.4770 C   0  0  0  0  0  0  0  0  0  0  0  0
  -23.0676   20.0005  -12.8200 C   0  0  0  0  0  0  0  0  0  0  0  0
  -22.1339   19.5294  -13.6940 C   0  0  0  0  0  0  0  0  0  0  0  0
  -21.0165   18.7750  -13.2304 C   0  0  0  0  0  0  0  0  0  0  0  0
  -20.9035   18.5356  -11.8892 C   0  0  0  0  0  0  0  0  0  0  0  0
  -21.8696   19.0254  -11.0040 C   0  0  0  0  0  0  0  0  0  0  0  0
  -24.0036   19.6446   -9.2802 O   0  0  0  0  0  0  0  0  0  0  0  0
  -23.9267   20.2460  -10.5271 C   0  0  0  0  0  0  0  0  0  0  0  0
  -24.6818   21.1824  -10.8262 O   0  0  0  0  0  0  0  0  0  0  0  0
  -24.6593   18.9229   -9.0774 H   0  0  0  0  0  0  0  0  0  0  0  0
  -19.7489   17.5895  -20.9679 C   0  0  0  0  0  0  0  0  0  0  0  0
  -20.9773   17.7060  -21.7786 C   0  0  0  0  0  0  0  0  0  0  0  0
  -22.2324   17.4635  -21.3079 C   0  0  0  0  0  0  0  0  0  0  0  0
  -23.3441   17.6082  -22.1219 C   0  0  0  0  0  0  0  0  0  0  0  0
  -23.2075   18.0015  -23.4273 C   0  0  0  0  0  0  0  0  0  0  0  0
  -24.3311   18.1271  -24.1805 F   0  0  0  0  0  0  0  0  0  0  0  0
  -21.9613   18.2568  -23.9415 C   0  0  0  0  0  0  0  0  0  0  0  0
  -20.8738   18.1042  -23.1067 C   0  0  0  0  0  0  0  0  0  0  0  0
 26 27  1  0  0  0
 27 28  2  0  0  0
 27 20  1  0  0  0
 20 21  2  0  0  0
 21 22  1  0  0  0
 22 23  2  0  0  0
 23 24  1  0  0  0
 24 25  2  0  0  0
 23 12  1  0  0  0
 12 13  2  0  0  0
 12 14  1  0  0  0
 14 15  1  0  0  0
 15 16  1  0  0  0
 16 17  1  0  0  0
 17 18  1  0  0  0
 18 19  1  0  0  0
 17  1  1  0  0  0
  1  2  2  0  0  0
  2  3  1  0  0  0
  3  4  2  0  0  0
  4  5  1  0  0  0
  5  6  2  0  0  0
  6  7  1  0  0  0
  7  8  2  0  0  0
  8  9  1  0  0  0
  9 10  2  0  0  0
  9 11  1  0  0  0
 11 30  1  0  0  0
 30 31  1  0  0  0
 31 32  2  0  0  0
 32 33  1  0  0  0
 33 34  2  0  0  0
 34 35  1  0  0  0
 34 36  1  0  0  0
 36 37  2  0  0  0
 25 20  1  0  0  0
 19 14  1  0  0  0
 11  1  1  0  0  0
 37 31  1  0  0  0
  8  3  1  0  0  0
 26 29  1  0  0  0
M  END
> <minimizedAffinity>
-7.69489

> <CNNscore>
0.2247181237

> <CNNaffinity>
5.9989051819

> <CNN_VS>
1.3480627537

> <CNNaffinity_variance>
0.0192909744

$$$$
[H]OC(=O)c1c([H])c([H])c(C(=O)N2C([H])([H])C([H])([H])C([H])(c3nc4c([H])c([H])c([H])c([H])c4c(=O)n3C([H])([H])c3c([H])c([H])c(F)c([H])c3[H])C([H])([H])C2([H])[H])c([H])c1[H]


 37 41  0  0  0  0  0  0  0  0999 V2000
  -20.1393   16.4294  -19.2659 C   0  0  0  0  0  0  0  0  0  0  0  0
  -19.6759   15.7789  -20.3842 N   0  0  0  0  0  0  0  0  0  0  0  0
  -19.0631   16.4131  -21.3879 C   0  0  0  0  0  0  0  0  0  0  0  0
  -18.5893   15.7887  -22.5179 C   0  0  0  0  0  0  0  0  0  0  0  0
  -17.9678   16.5128  -23.5092 C   0  0  0  0  0  0  0  0  0  0  0  0
  -17.8240   17.8761  -23.3580 C   0  0  0  0  0  0  0  0  0  0  0  0
  -18.2988   18.5316  -22.2161 C   0  0  0  0  0  0  0  0  0  0  0  0
  -18.9192   17.7923  -21.2319 C   0  0  0  0  0  0  0  0  0  0  0  0
  -19.3828   18.4393  -20.1156 C   0  0  0  0  0  0  0  0  0  0  0  0
  -19.2262   19.6668  -20.0277 O   0  0  0  0  0  0  0  0  0  0  0  0
  -19.9963   17.7636  -19.1264 N   0  0  0  0  0  0  0  0  0  0  0  0
  -19.8226   12.2607  -15.8078 C   0  0  0  0  0  0  0  0  0  0  0  0
  -18.7491   12.5452  -15.0735 O   0  0  0  0  0  0  0  0  0  0  0  0
  -19.9851   13.0883  -16.9036 N   0  0  0  0  0  0  0  0  0  0  0  0
  -21.0178   13.0570  -17.8708 C   0  0  0  0  0  0  0  0  0  0  0  0
  -20.8409   14.1549  -18.9290 C   0  0  0  0  0  0  0  0  0  0  0  0
  -20.7359   15.5163  -18.2709 C   0  0  0  0  0  0  0  0  0  0  0  0
  -19.7607   15.4612  -17.1014 C   0  0  0  0  0  0  0  0  0  0  0  0
  -18.9668   14.1683  -17.1477 C   0  0  0  0  0  0  0  0  0  0  0  0
  -21.9128    8.9693  -14.2087 C   0  0  0  0  0  0  0  0  0  0  0  0
  -20.7026    9.3486  -13.6832 C   0  0  0  0  0  0  0  0  0  0  0  0
  -20.0390   10.4167  -14.2090 C   0  0  0  0  0  0  0  0  0  0  0  0
  -20.5872   11.1491  -15.3025 C   0  0  0  0  0  0  0  0  0  0  0  0
  -21.7933   10.7550  -15.8112 C   0  0  0  0  0  0  0  0  0  0  0  0
  -22.4630    9.6569  -15.2612 C   0  0  0  0  0  0  0  0  0  0  0  0
  -22.0702    7.1383  -12.5962 O   0  0  0  0  0  0  0  0  0  0  0  0
  -22.6370    7.8276  -13.6572 C   0  0  0  0  0  0  0  0  0  0  0  0
  -23.7316    7.4817  -14.1247 O   0  0  0  0  0  0  0  0  0  0  0  0
  -21.5322    6.3103  -12.7266 H   0  0  0  0  0  0  0  0  0  0  0  0
  -20.4853   18.4721  -17.9990 C   0  0  0  0  0  0  0  0  0  0  0  0
  -21.8440   19.0434  -18.0832 C   0  0  0  0  0  0  0  0  0  0  0  0
  -22.8641   18.4934  -18.7993 C   0  0  0  0  0  0  0  0  0  0  0  0
  -24.1209   19.0758  -18.8209 C   0  0  0  0  0  0  0  0  0  0  0  0
  -24.3701   20.2254  -18.1181 C   0  0  0  0  0  0  0  0  0  0  0  0
  -25.6204   20.7538  -18.1748 F   0  0  0  0  0  0  0  0  0  0  0  0
  -23.3710   20.8119  -17.3829 C   0  0  0  0  0  0  0  0  0  0  0  0
  -22.1305   20.2086  -17.3809 C   0  0  0  0  0  0  0  0  0  0  0  0
 26 27  1  0  0  0
 27 28  2  0  0  0
 27 20  1  0  0  0
 20 21  2  0  0  0
 21 22  1  0  0  0
 22 23  2  0  0  0
 23 24  1  0  0  0
 24 25  2  0  0  0
 23 12  1  0  0  0
 12 13  2  0  0  0
 12 14  1  0  0  0
 14 15  1  0  0  0
 15 16  1  0  0  0
 16 17  1  0  0  0
 17 18  1  0  0  0
 18 19  1  0  0  0
 17  1  1  0  0  0
  1  2  2  0  0  0
  2  3  1  0  0  0
  3  4  2  0  0  0
  4  5  1  0  0  0
  5  6  2  0  0  0
  6  7  1  0  0  0
  7  8  2  0  0  0
  8  9  1  0  0  0
  9 10  2  0  0  0
  9 11  1  0  0  0
 11 30  1  0  0  0
 30 31  1  0  0  0
 31 32  2  0  0  0
 32 33  1  0  0  0
 33 34  2  0  0  0
 34 35  1  0  0  0
 34 36  1  0  0  0
 36 37  2  0  0  0
 25 20  1  0  0  0
 19 14  1  0  0  0
 11  1  1  0  0  0
 37 31  1  0  0  0
  8  3  1  0  0  0
 26 29  1  0  0  0
M  END
> <minimizedAffinity>
-4.96779

> <CNNscore>
0.2009551227

> <CNNaffinity>
6.0526742935

> <CNN_VS>
1.2163158655

> <CNNaffinity_variance>
0.7462219000

$$$$
[H]OC(=O)c1c([H])c([H])c(C(=O)N2C([H])([H])C([H])([H])C([H])(c3nc4c([H])c([H])c([H])c([H])c4c(=O)n3C([H])([H])c3c([H])c([H])c(F)c([H])c3[H])C([H])([H])C2([H])[H])c([H])c1[H]


 37 41  0  0  0  0  0  0  0  0999 V2000
  -20.7040   16.7079  -17.8763 C   0  0  0  0  0  0  0  0  0  0  0  0
  -20.4035   17.8199  -17.1270 N   0  0  0  0  0  0  0  0  0  0  0  0
  -19.9348   18.9495  -17.6651 C   0  0  0  0  0  0  0  0  0  0  0  0
  -19.6259   20.0770  -16.9407 C   0  0  0  0  0  0  0  0  0  0  0  0
  -19.1474   21.2035  -17.5693 C   0  0  0  0  0  0  0  0  0  0  0  0
  -18.9800   21.1911  -18.9383 C   0  0  0  0  0  0  0  0  0  0  0  0
  -19.2882   20.0544  -19.6947 C   0  0  0  0  0  0  0  0  0  0  0  0
  -19.7665   18.9338  -19.0502 C   0  0  0  0  0  0  0  0  0  0  0  0
  -20.0666   17.8229  -19.7958 C   0  0  0  0  0  0  0  0  0  0  0  0
  -19.9000   17.8646  -21.0244 O   0  0  0  0  0  0  0  0  0  0  0  0
  -20.5357   16.7032  -19.2148 N   0  0  0  0  0  0  0  0  0  0  0  0
  -24.3589   14.6507  -14.4344 C   0  0  0  0  0  0  0  0  0  0  0  0
  -25.5257   14.9822  -14.9832 O   0  0  0  0  0  0  0  0  0  0  0  0
  -23.2681   15.2521  -15.0350 N   0  0  0  0  0  0  0  0  0  0  0  0
  -21.9011   15.1057  -14.6996 C   0  0  0  0  0  0  0  0  0  0  0  0
  -20.9967   15.9408  -15.6169 C   0  0  0  0  0  0  0  0  0  0  0  0
  -21.2526   15.5987  -17.0712 C   0  0  0  0  0  0  0  0  0  0  0  0
  -22.7506   15.5683  -17.3484 C   0  0  0  0  0  0  0  0  0  0  0  0
  -23.5063   16.1889  -16.1876 C   0  0  0  0  0  0  0  0  0  0  0  0
  -24.6189   11.8394  -11.3058 C   0  0  0  0  0  0  0  0  0  0  0  0
  -23.8774   11.5664  -12.4284 C   0  0  0  0  0  0  0  0  0  0  0  0
  -23.8004   12.4862  -13.4312 C   0  0  0  0  0  0  0  0  0  0  0  0
  -24.4825   13.7340  -13.3299 C   0  0  0  0  0  0  0  0  0  0  0  0
  -25.2156   13.9861  -12.2038 C   0  0  0  0  0  0  0  0  0  0  0  0
  -25.2854   13.0326  -11.1826 C   0  0  0  0  0  0  0  0  0  0  0  0
  -25.6205    9.8256  -10.3472 O   0  0  0  0  0  0  0  0  0  0  0  0
  -24.7119   10.8652  -10.2220 C   0  0  0  0  0  0  0  0  0  0  0  0
  -23.9970   10.9637   -9.2142 O   0  0  0  0  0  0  0  0  0  0  0  0
  -26.5308    9.8635   -9.9448 H   0  0  0  0  0  0  0  0  0  0  0  0
  -20.8102   15.5657  -20.0167 C   0  0  0  0  0  0  0  0  0  0  0  0
  -19.7384   14.5629  -20.1759 C   0  0  0  0  0  0  0  0  0  0  0  0
  -19.7868   13.3011  -19.6650 C   0  0  0  0  0  0  0  0  0  0  0  0
  -18.7497   12.4050  -19.8670 C   0  0  0  0  0  0  0  0  0  0  0  0
  -17.6440   12.7681  -20.5902 C   0  0  0  0  0  0  0  0  0  0  0  0
  -16.6566   11.8501  -20.7570 F   0  0  0  0  0  0  0  0  0  0  0  0
  -17.5549   14.0293  -21.1233 C   0  0  0  0  0  0  0  0  0  0  0  0
  -18.6033   14.8988  -20.9053 C   0  0  0  0  0  0  0  0  0  0  0  0
 26 27  1  0  0  0
 27 28  2  0  0  0
 27 20  1  0  0  0
 20 21  2  0  0  0
 21 22  1  0  0  0
 22 23  2  0  0  0
 23 24  1  0  0  0
 24 25  2  0  0  0
 23 12  1  0  0  0
 12 13  2  0  0  0
 12 14  1  0  0  0
 14 15  1  0  0  0
 15 16  1  0  0  0
 16 17  1  0  0  0
 17 18  1  0  0  0
 18 19  1  0  0  0
 17  1  1  0  0  0
  1  2  2  0  0  0
  2  3  1  0  0  0
  3  4  2  0  0  0
  4  5  1  0  0  0
  5  6  2  0  0  0
  6  7  1  0  0  0
  7  8  2  0  0  0
  8  9  1  0  0  0
  9 10  2  0  0  0
  9 11  1  0  0  0
 11 30  1  0  0  0
 30 31  1  0  0  0
 31 32  2  0  0  0
 32 33  1  0  0  0
 33 34  2  0  0  0
 34 35  1  0  0  0
 34 36  1  0  0  0
 36 37  2  0  0  0
 25 20  1  0  0  0
 19 14  1  0  0  0
 11  1  1  0  0  0
 37 31  1  0  0  0
  8  3  1  0  0  0
 26 29  1  0  0  0
M  END
> <minimizedAffinity>
-4.67211

> <CNNscore>
0.1811606437

> <CNNaffinity>
6.0244207382

> <CNN_VS>
1.0913879871

> <CNNaffinity_variance>
1.0734512806

$$$$
[H]OC(=O)c1c([H])c([H])c(C(=O)N2C([H])([H])C([H])([H])C([H])(c3nc4c([H])c([H])c([H])c([H])c4c(=O)n3C([H])([H])c3c([H])c([H])c(F)c([H])c3[H])C([H])([H])C2([H])[H])c([H])c1[H]


 37 41  0  0  0  0  0  0  0  0999 V2000
  -17.0988   14.5915  -22.6434 C   0  0  0  0  0  0  0  0  0  0  0  0
  -17.5057   13.5781  -23.4776 N   0  0  0  0  0  0  0  0  0  0  0  0
  -17.2885   13.5954  -24.7959 C   0  0  0  0  0  0  0  0  0  0  0  0
  -17.6838   12.5962  -25.6543 C   0  0  0  0  0  0  0  0  0  0  0  0
  -17.4221   12.6874  -27.0020 C   0  0  0  0  0  0  0  0  0  0  0  0
  -16.7570   13.7947  -27.4856 C   0  0  0  0  0  0  0  0  0  0  0  0
  -16.3460   14.8230  -26.6296 C   0  0  0  0  0  0  0  0  0  0  0  0
  -16.6155   14.7169  -25.2820 C   0  0  0  0  0  0  0  0  0  0  0  0
  -16.2109   15.7271  -24.4479 C   0  0  0  0  0  0  0  0  0  0  0  0
  -15.6142   16.7004  -24.9333 O   0  0  0  0  0  0  0  0  0  0  0  0
  -16.4504   15.6722  -23.1246 N   0  0  0  0  0  0  0  0  0  0  0  0
  -18.6536   11.3072  -18.6144 C   0  0  0  0  0  0  0  0  0  0  0  0
  -17.8711   10.2402  -18.7619 O   0  0  0  0  0  0  0  0  0  0  0  0
  -18.5795   12.2037  -19.6646 N   0  0  0  0  0  0  0  0  0  0  0  0
  -19.2715   13.4295  -19.8113 C   0  0  0  0  0  0  0  0  0  0  0  0
  -18.9049   14.1373  -21.1233 C   0  0  0  0  0  0  0  0  0  0  0  0
  -17.4048   14.3297  -21.2230 C   0  0  0  0  0  0  0  0  0  0  0  0
  -16.6836   13.0372  -20.8608 C   0  0  0  0  0  0  0  0  0  0  0  0
  -17.6711   11.8853  -20.8206 C   0  0  0  0  0  0  0  0  0  0  0  0
  -20.8497   11.0925  -15.0241 C   0  0  0  0  0  0  0  0  0  0  0  0
  -20.2607    9.9692  -15.5492 C   0  0  0  0  0  0  0  0  0  0  0  0
  -19.5513   10.0542  -16.7099 C   0  0  0  0  0  0  0  0  0  0  0  0
  -19.4118   11.2996  -17.3894 C   0  0  0  0  0  0  0  0  0  0  0  0
  -20.0063   12.4062  -16.8499 C   0  0  0  0  0  0  0  0  0  0  0  0
  -20.7311   12.3039  -15.6579 C   0  0  0  0  0  0  0  0  0  0  0  0
  -22.5474   10.0045  -13.6414 O   0  0  0  0  0  0  0  0  0  0  0  0
  -21.6130   11.0191  -13.7815 C   0  0  0  0  0  0  0  0  0  0  0  0
  -21.4315   11.8428  -12.8731 O   0  0  0  0  0  0  0  0  0  0  0  0
  -23.5142   10.1410  -13.8379 H   0  0  0  0  0  0  0  0  0  0  0  0
  -16.0392   16.7490  -22.2978 C   0  0  0  0  0  0  0  0  0  0  0  0
  -17.0846   17.6491  -21.7719 C   0  0  0  0  0  0  0  0  0  0  0  0
  -17.2262   17.9738  -20.4565 C   0  0  0  0  0  0  0  0  0  0  0  0
  -18.2222   18.8393  -20.0344 C   0  0  0  0  0  0  0  0  0  0  0  0
  -19.0938   19.3934  -20.9350 C   0  0  0  0  0  0  0  0  0  0  0  0
  -20.0515   20.2352  -20.4664 F   0  0  0  0  0  0  0  0  0  0  0  0
  -18.9859   19.0938  -22.2696 C   0  0  0  0  0  0  0  0  0  0  0  0
  -17.9842   18.2291  -22.6593 C   0  0  0  0  0  0  0  0  0  0  0  0
 26 27  1  0  0  0
 27 28  2  0  0  0
 27 20  1  0  0  0
 20 21  2  0  0  0
 21 22  1  0  0  0
 22 23  2  0  0  0
 23 24  1  0  0  0
 24 25  2  0  0  0
 23 12  1  0  0  0
 12 13  2  0  0  0
 12 14  1  0  0  0
 14 15  1  0  0  0
 15 16  1  0  0  0
 16 17  1  0  0  0
 17 18  1  0  0  0
 18 19  1  0  0  0
 17  1  1  0  0  0
  1  2  2  0  0  0
  2  3  1  0  0  0
  3  4  2  0  0  0
  4  5  1  0  0  0
  5  6  2  0  0  0
  6  7  1  0  0  0
  7  8  2  0  0  0
  8  9  1  0  0  0
  9 10  2  0  0  0
  9 11  1  0  0  0
 11 30  1  0  0  0
 30 31  1  0  0  0
 31 32  2  0  0  0
 32 33  1  0  0  0
 33 34  2  0  0  0
 34 35  1  0  0  0
 34 36  1  0  0  0
 36 37  2  0  0  0
 25 20  1  0  0  0
 19 14  1  0  0  0
 11  1  1  0  0  0
 37 31  1  0  0  0
  8  3  1  0  0  0
 26 29  1  0  0  0
M  END
> <minimizedAffinity>
-9.32321

> <CNNscore>
0.1461213380

> <CNNaffinity>
6.8862252235

> <CNN_VS>
1.0062243938

> <CNNaffinity_variance>
0.4797937274

$$$$
[H]OC(=O)c1c([H])c([H])c(C(=O)N2C([H])([H])C([H])([H])C([H])(c3nc4c([H])c([H])c([H])c([H])c4c(=O)n3C([H])([H])c3c([H])c([H])c(F)c([H])c3[H])C([H])([H])C2([H])[H])c([H])c1[H]


 37 41  0  0  0  0  0  0  0  0999 V2000
  -18.2030   13.6987  -19.8920 C   0  0  0  0  0  0  0  0  0  0  0  0
  -17.3404   13.1102  -20.7853 N   0  0  0  0  0  0  0  0  0  0  0  0
  -17.2070   13.5311  -22.0464 C   0  0  0  0  0  0  0  0  0  0  0  0
  -16.3524   12.9621  -22.9615 C   0  0  0  0  0  0  0  0  0  0  0  0
  -16.2717   13.4543  -24.2438 C   0  0  0  0  0  0  0  0  0  0  0  0
  -17.0591   14.5279  -24.6041 C   0  0  0  0  0  0  0  0  0  0  0  0
  -17.9356   15.1218  -23.6886 C   0  0  0  0  0  0  0  0  0  0  0  0
  -18.0049   14.6173  -22.4077 C   0  0  0  0  0  0  0  0  0  0  0  0
  -18.8653   15.2026  -21.5150 C   0  0  0  0  0  0  0  0  0  0  0  0
  -19.5499   16.1672  -21.8890 O   0  0  0  0  0  0  0  0  0  0  0  0
  -18.9712   14.7474  -20.2528 N   0  0  0  0  0  0  0  0  0  0  0  0
  -20.5133   11.2113  -15.6598 C   0  0  0  0  0  0  0  0  0  0  0  0
  -21.1626   10.1900  -16.2144 O   0  0  0  0  0  0  0  0  0  0  0  0
  -20.0106   12.1172  -16.5756 N   0  0  0  0  0  0  0  0  0  0  0  0
  -19.2721   13.2962  -16.3163 C   0  0  0  0  0  0  0  0  0  0  0  0
  -18.8900   14.0259  -17.6117 C   0  0  0  0  0  0  0  0  0  0  0  0
  -18.1426   13.0954  -18.5460 C   0  0  0  0  0  0  0  0  0  0  0  0
  -18.8646   11.7571  -18.6438 C   0  0  0  0  0  0  0  0  0  0  0  0
  -20.2524   11.8705  -18.0398 C   0  0  0  0  0  0  0  0  0  0  0  0
  -20.5545   11.1546  -11.4462 C   0  0  0  0  0  0  0  0  0  0  0  0
  -21.5695   11.7594  -12.1452 C   0  0  0  0  0  0  0  0  0  0  0  0
  -21.5442   11.7678  -13.5078 C   0  0  0  0  0  0  0  0  0  0  0  0
  -20.4729   11.1542  -14.2208 C   0  0  0  0  0  0  0  0  0  0  0  0
  -19.4720   10.5575  -13.5059 C   0  0  0  0  0  0  0  0  0  0  0  0
  -19.5114   10.5566  -12.1076 C   0  0  0  0  0  0  0  0  0  0  0  0
  -21.6526   10.5630   -9.3434 O   0  0  0  0  0  0  0  0  0  0  0  0
  -20.5662   11.1364   -9.9862 C   0  0  0  0  0  0  0  0  0  0  0  0
  -19.6290   11.6211   -9.3357 O   0  0  0  0  0  0  0  0  0  0  0  0
  -22.4203   11.1037   -9.0114 H   0  0  0  0  0  0  0  0  0  0  0  0
  -19.8915   15.3629  -19.3660 C   0  0  0  0  0  0  0  0  0  0  0  0
  -19.8533   16.8342  -19.2491 C   0  0  0  0  0  0  0  0  0  0  0  0
  -20.9329   17.6458  -19.4266 C   0  0  0  0  0  0  0  0  0  0  0  0
  -20.8282   19.0200  -19.2855 C   0  0  0  0  0  0  0  0  0  0  0  0
  -19.6295   19.5995  -18.9616 C   0  0  0  0  0  0  0  0  0  0  0  0
  -19.5835   20.9514  -18.8361 F   0  0  0  0  0  0  0  0  0  0  0  0
  -18.5171   18.8186  -18.7731 C   0  0  0  0  0  0  0  0  0  0  0  0
  -18.6528   17.4538  -18.9204 C   0  0  0  0  0  0  0  0  0  0  0  0
 26 27  1  0  0  0
 27 28  2  0  0  0
 27 20  1  0  0  0
 20 21  2  0  0  0
 21 22  1  0  0  0
 22 23  2  0  0  0
 23 24  1  0  0  0
 24 25  2  0  0  0
 23 12  1  0  0  0
 12 13  2  0  0  0
 12 14  1  0  0  0
 14 15  1  0  0  0
 15 16  1  0  0  0
 16 17  1  0  0  0
 17 18  1  0  0  0
 18 19  1  0  0  0
 17  1  1  0  0  0
  1  2  2  0  0  0
  2  3  1  0  0  0
  3  4  2  0  0  0
  4  5  1  0  0  0
  5  6  2  0  0  0
  6  7  1  0  0  0
  7  8  2  0  0  0
  8  9  1  0  0  0
  9 10  2  0  0  0
  9 11  1  0  0  0
 11 30  1  0  0  0
 30 31  1  0  0  0
 31 32  2  0  0  0
 32 33  1  0  0  0
 33 34  2  0  0  0
 34 35  1  0  0  0
 34 36  1  0  0  0
 36 37  2  0  0  0
 25 20  1  0  0  0
 19 14  1  0  0  0
 11  1  1  0  0  0
 37 31  1  0  0  0
  8  3  1  0  0  0
 26 29  1  0  0  0
M  END
> <minimizedAffinity>
-7.57875

> <CNNscore>
0.1312395930

> <CNNaffinity>
6.3656406403

> <CNN_VS>
0.8354240656

> <CNNaffinity_variance>
0.4888018668

$$$$
[H]OC(=O)c1c([H])c([H])c(C(=O)N2C([H])([H])C([H])([H])C([H])(c3nc4c([H])c([H])c([H])c([H])c4c(=O)n3C([H])([H])c3c([H])c([H])c(F)c([H])c3[H])C([H])([H])C2([H])[H])c([H])c1[H]


 37 41  0  0  0  0  0  0  0  0999 V2000
  -17.6463   14.9982  -22.4363 C   0  0  0  0  0  0  0  0  0  0  0  0
  -16.9733   16.0468  -23.0157 N   0  0  0  0  0  0  0  0  0  0  0  0
  -16.2193   15.9060  -24.1098 C   0  0  0  0  0  0  0  0  0  0  0  0
  -15.5351   16.9365  -24.7110 C   0  0  0  0  0  0  0  0  0  0  0  0
  -14.7787   16.7108  -25.8380 C   0  0  0  0  0  0  0  0  0  0  0  0
  -14.7130   15.4362  -26.3609 C   0  0  0  0  0  0  0  0  0  0  0  0
  -15.4013   14.3732  -25.7648 C   0  0  0  0  0  0  0  0  0  0  0  0
  -16.1548   14.6154  -24.6363 C   0  0  0  0  0  0  0  0  0  0  0  0
  -16.8268   13.5705  -24.0562 C   0  0  0  0  0  0  0  0  0  0  0  0
  -16.7361   12.4439  -24.5675 O   0  0  0  0  0  0  0  0  0  0  0  0
  -17.5754   13.7540  -22.9528 N   0  0  0  0  0  0  0  0  0  0  0  0
  -19.3336   18.6954  -18.8417 C   0  0  0  0  0  0  0  0  0  0  0  0
  -19.7107   19.7209  -19.6024 O   0  0  0  0  0  0  0  0  0  0  0  0
  -18.6684   17.7007  -19.5347 N   0  0  0  0  0  0  0  0  0  0  0  0
  -18.1482   16.4865  -19.0268 C   0  0  0  0  0  0  0  0  0  0  0  0
  -17.4846   15.6464  -20.1270 C   0  0  0  0  0  0  0  0  0  0  0  0
  -18.4526   15.4032  -21.2677 C   0  0  0  0  0  0  0  0  0  0  0  0
  -19.1457   16.7036  -21.6556 C   0  0  0  0  0  0  0  0  0  0  0  0
  -18.4384   17.8814  -21.0103 C   0  0  0  0  0  0  0  0  0  0  0  0
  -20.2745   18.9875  -14.7443 C   0  0  0  0  0  0  0  0  0  0  0  0
  -19.2460   18.1828  -15.1677 C   0  0  0  0  0  0  0  0  0  0  0  0
  -18.9515   18.1001  -16.4959 C   0  0  0  0  0  0  0  0  0  0  0  0
  -19.7003   18.8414  -17.4561 C   0  0  0  0  0  0  0  0  0  0  0  0
  -20.7205   19.6367  -17.0137 C   0  0  0  0  0  0  0  0  0  0  0  0
  -21.0113   19.7117  -15.6475 C   0  0  0  0  0  0  0  0  0  0  0  0
  -19.9985   18.2035  -12.4450 O   0  0  0  0  0  0  0  0  0  0  0  0
  -20.6032   19.0877  -13.3252 C   0  0  0  0  0  0  0  0  0  0  0  0
  -21.4029   19.9416  -12.9155 O   0  0  0  0  0  0  0  0  0  0  0  0
  -20.4418   17.3628  -12.1473 H   0  0  0  0  0  0  0  0  0  0  0  0
  -18.2348   12.6432  -22.3668 C   0  0  0  0  0  0  0  0  0  0  0  0
  -17.6485   12.0645  -21.1416 C   0  0  0  0  0  0  0  0  0  0  0  0
  -18.1756   12.2147  -19.8945 C   0  0  0  0  0  0  0  0  0  0  0  0
  -17.5804   11.6294  -18.7889 C   0  0  0  0  0  0  0  0  0  0  0  0
  -16.4409   10.8804  -18.9237 C   0  0  0  0  0  0  0  0  0  0  0  0
  -15.8991   10.3296  -17.8063 F   0  0  0  0  0  0  0  0  0  0  0  0
  -15.8774   10.7030  -20.1622 C   0  0  0  0  0  0  0  0  0  0  0  0
  -16.4930   11.2980  -21.2438 C   0  0  0  0  0  0  0  0  0  0  0  0
 26 27  1  0  0  0
 27 28  2  0  0  0
 27 20  1  0  0  0
 20 21  2  0  0  0
 21 22  1  0  0  0
 22 23  2  0  0  0
 23 24  1  0  0  0
 24 25  2  0  0  0
 23 12  1  0  0  0
 12 13  2  0  0  0
 12 14  1  0  0  0
 14 15  1  0  0  0
 15 16  1  0  0  0
 16 17  1  0  0  0
 17 18  1  0  0  0
 18 19  1  0  0  0
 17  1  1  0  0  0
  1  2  2  0  0  0
  2  3  1  0  0  0
  3  4  2  0  0  0
  4  5  1  0  0  0
  5  6  2  0  0  0
  6  7  1  0  0  0
  7  8  2  0  0  0
  8  9  1  0  0  0
  9 10  2  0  0  0
  9 11  1  0  0  0
 11 30  1  0  0  0
 30 31  1  0  0  0
 31 32  2  0  0  0
 32 33  1  0  0  0
 33 34  2  0  0  0
 34 35  1  0  0  0
 34 36  1  0  0  0
 36 37  2  0  0  0
 25 20  1  0  0  0
 19 14  1  0  0  0
 11  1  1  0  0  0
 37 31  1  0  0  0
  8  3  1  0  0  0
 26 29  1  0  0  0
M  END
> <minimizedAffinity>
-8.66742

> <CNNscore>
0.1245030984

> <CNNaffinity>
6.7615385056

> <CNN_VS>
0.8418325186

> <CNNaffinity_variance>
0.2359556705

$$$$
[H]OC(=O)c1c([H])c([H])c(C(=O)N2C([H])([H])C([H])([H])C([H])(c3nc4c([H])c([H])c([H])c([H])c4c(=O)n3C([H])([H])c3c([H])c([H])c(F)c([H])c3[H])C([H])([H])C2([H])[H])c([H])c1[H]


 37 41  0  0  0  0  0  0  0  0999 V2000
  -18.3653   14.7929  -20.9782 C   0  0  0  0  0  0  0  0  0  0  0  0
  -17.9915   13.7651  -21.8103 N   0  0  0  0  0  0  0  0  0  0  0  0
  -17.6658   13.9544  -23.0922 C   0  0  0  0  0  0  0  0  0  0  0  0
  -17.2882   12.9458  -23.9476 C   0  0  0  0  0  0  0  0  0  0  0  0
  -16.9669   13.2220  -25.2566 C   0  0  0  0  0  0  0  0  0  0  0  0
  -17.0273   14.5252  -25.7044 C   0  0  0  0  0  0  0  0  0  0  0  0
  -17.4092   15.5666  -24.8509 C   0  0  0  0  0  0  0  0  0  0  0  0
  -17.7280   15.2738  -23.5422 C   0  0  0  0  0  0  0  0  0  0  0  0
  -18.1017   16.2976  -22.7104 C   0  0  0  0  0  0  0  0  0  0  0  0
  -18.1377   17.4523  -23.1624 O   0  0  0  0  0  0  0  0  0  0  0  0
  -18.4237   16.0646  -21.4245 N   0  0  0  0  0  0  0  0  0  0  0  0
  -19.4022   10.9322  -17.3099 C   0  0  0  0  0  0  0  0  0  0  0  0
  -18.4632   10.0181  -17.5449 O   0  0  0  0  0  0  0  0  0  0  0  0
  -19.4653   11.9273  -18.2680 N   0  0  0  0  0  0  0  0  0  0  0  0
  -20.3386   13.0401  -18.3090 C   0  0  0  0  0  0  0  0  0  0  0  0
  -20.0830   13.9201  -19.5406 C   0  0  0  0  0  0  0  0  0  0  0  0
  -18.6305   14.3502  -19.5950 C   0  0  0  0  0  0  0  0  0  0  0  0
  -17.7186   13.1553  -19.3454 C   0  0  0  0  0  0  0  0  0  0  0  0
  -18.5156   11.8666  -19.4330 C   0  0  0  0  0  0  0  0  0  0  0  0
  -21.5167   10.3778  -13.7070 C   0  0  0  0  0  0  0  0  0  0  0  0
  -20.7233   11.4836  -13.8866 C   0  0  0  0  0  0  0  0  0  0  0  0
  -20.0473   11.6510  -15.0581 C   0  0  0  0  0  0  0  0  0  0  0  0
  -20.1532   10.6888  -16.1047 C   0  0  0  0  0  0  0  0  0  0  0  0
  -20.9483    9.5947  -15.9057 C   0  0  0  0  0  0  0  0  0  0  0  0
  -21.6364    9.4362  -14.6981 C   0  0  0  0  0  0  0  0  0  0  0  0
  -21.7572   10.7808  -11.3075 O   0  0  0  0  0  0  0  0  0  0  0  0
  -22.2480   10.1831  -12.4582 C   0  0  0  0  0  0  0  0  0  0  0  0
  -23.2823    9.5007  -12.4256 O   0  0  0  0  0  0  0  0  0  0  0  0
  -21.1808   10.2921  -10.6588 H   0  0  0  0  0  0  0  0  0  0  0  0
  -18.8304   17.1465  -20.6020 C   0  0  0  0  0  0  0  0  0  0  0  0
  -20.2746   17.3044  -20.3393 C   0  0  0  0  0  0  0  0  0  0  0  0
  -20.8143   17.4763  -19.1004 C   0  0  0  0  0  0  0  0  0  0  0  0
  -22.1799   17.6344  -18.9285 C   0  0  0  0  0  0  0  0  0  0  0  0
  -23.0255   17.6222  -20.0066 C   0  0  0  0  0  0  0  0  0  0  0  0
  -24.3556   17.7813  -19.7806 F   0  0  0  0  0  0  0  0  0  0  0  0
  -22.5235   17.4525  -21.2722 C   0  0  0  0  0  0  0  0  0  0  0  0
  -21.1598   17.2978  -21.4115 C   0  0  0  0  0  0  0  0  0  0  0  0
 26 27  1  0  0  0
 27 28  2  0  0  0
 27 20  1  0  0  0
 20 21  2  0  0  0
 21 22  1  0  0  0
 22 23  2  0  0  0
 23 24  1  0  0  0
 24 25  2  0  0  0
 23 12  1  0  0  0
 12 13  2  0  0  0
 12 14  1  0  0  0
 14 15  1  0  0  0
 15 16  1  0  0  0
 16 17  1  0  0  0
 17 18  1  0  0  0
 18 19  1  0  0  0
 17  1  1  0  0  0
  1  2  2  0  0  0
  2  3  1  0  0  0
  3  4  2  0  0  0
  4  5  1  0  0  0
  5  6  2  0  0  0
  6  7  1  0  0  0
  7  8  2  0  0  0
  8  9  1  0  0  0
  9 10  2  0  0  0
  9 11  1  0  0  0
 11 30  1  0  0  0
 30 31  1  0  0  0
 31 32  2  0  0  0
 32 33  1  0  0  0
 33 34  2  0  0  0
 34 35  1  0  0  0
 34 36  1  0  0  0
 36 37  2  0  0  0
 25 20  1  0  0  0
 19 14  1  0  0  0
 11  1  1  0  0  0
 37 31  1  0  0  0
  8  3  1  0  0  0
 26 29  1  0  0  0
M  END
> <minimizedAffinity>
-8.20015

> <CNNscore>
0.1234514490

> <CNNaffinity>
6.5296645164

> <CNN_VS>
0.8060965538

> <CNNaffinity_variance>
0.2137539387

$$$$
[H]N=C(N([H])[H])N([H])C([H])([H])C([H])([H])C([H])([H])[C@@]([H])(C(=O)c1nc([H])c([H])s1)N([H])C(=O)[C@@]([H])(N([H])C(=O)[C@@]([H])(N([H])[H])C([H])([H])c1c([H])c([H])c(O[H])c([H])c1[H])C([H])([H])c1c([H])c([H])c([H])c([H])c1[H]


 48 50  0  0  0  0  0  0  0  0999 V2000
  -18.9122   12.8224  -19.9639 C   0  0  0  0  0  0  0  0  0  0  0  0
  -17.1777   12.0761  -21.5322 C   0  0  0  0  0  0  0  0  0  0  0  0
  -17.4860   10.8923  -21.2846 O   0  0  0  0  0  0  0  0  0  0  0  0
  -17.8468   13.1350  -20.9074 N   0  0  0  0  0  0  0  0  0  0  0  0
  -17.6426   14.1465  -21.0689 H   0  0  0  0  0  0  0  0  0  0  0  0
  -15.3045   11.1493  -22.7079 N   0  0  0  0  0  0  0  0  0  0  0  0
  -16.0929   12.3533  -22.4975 C   0  0  0  0  0  0  0  0  0  0  0  0
  -14.3799   11.2257  -22.2574 H   0  0  0  0  0  0  0  0  0  0  0  0
  -15.8378   10.2893  -22.4493 H   0  0  0  0  0  0  0  0  0  0  0  0
  -16.7772   12.7329  -23.8003 C   0  0  0  0  0  0  0  0  0  0  0  0
  -16.0382   13.7893  -24.5252 C   0  0  0  0  0  0  0  0  0  0  0  0
  -16.6271   14.3523  -25.6352 C   0  0  0  0  0  0  0  0  0  0  0  0
  -15.9372   15.3478  -26.3223 C   0  0  0  0  0  0  0  0  0  0  0  0
  -14.6880   15.7445  -25.8783 C   0  0  0  0  0  0  0  0  0  0  0  0
  -14.0042   16.7410  -26.5711 O   0  0  0  0  0  0  0  0  0  0  0  0
  -14.0988   15.1766  -24.7620 C   0  0  0  0  0  0  0  0  0  0  0  0
  -14.7930   14.1812  -24.0782 C   0  0  0  0  0  0  0  0  0  0  0  0
  -13.0952   17.0466  -26.2670 H   0  0  0  0  0  0  0  0  0  0  0  0
  -19.9103   13.8871  -20.0032 C   0  0  0  0  0  0  0  0  0  0  0  0
  -21.1413   13.5888  -20.1226 O   0  0  0  0  0  0  0  0  0  0  0  0
  -19.5787   15.2612  -19.9110 N   0  0  0  0  0  0  0  0  0  0  0  0
  -18.6086   15.6164  -19.8122 H   0  0  0  0  0  0  0  0  0  0  0  0
  -20.6764   16.2298  -19.9597 C   0  0  0  0  0  0  0  0  0  0  0  0
  -20.5153   17.0295  -21.1751 C   0  0  0  0  0  0  0  0  0  0  0  0
  -21.4729   17.6270  -21.7343 O   0  0  0  0  0  0  0  0  0  0  0  0
  -19.1754   17.1536  -21.7869 C   0  0  0  0  0  0  0  0  0  0  0  0
  -18.0300   17.5235  -21.2431 N   0  0  0  0  0  0  0  0  0  0  0  0
  -16.9534   17.5689  -21.9587 C   0  0  0  0  0  0  0  0  0  0  0  0
  -17.0478   17.2240  -23.2809 C   0  0  0  0  0  0  0  0  0  0  0  0
  -18.7087   16.8477  -23.4185 S   0  0  0  0  0  0  0  0  0  0  0  0
  -20.6367   17.0922  -18.6994 C   0  0  0  0  0  0  0  0  0  0  0  0
  -19.3733   16.6680  -17.9372 C   0  0  0  0  0  0  0  0  0  0  0  0
  -19.1020   17.6930  -16.8410 C   0  0  0  0  0  0  0  0  0  0  0  0
  -20.3393   17.9205  -16.1269 N   0  0  0  0  0  0  0  0  0  0  0  0
  -21.0956   18.4583  -16.5932 H   0  0  0  0  0  0  0  0  0  0  0  0
  -20.4442   17.3900  -14.8216 C   0  0  0  0  0  0  0  0  0  0  0  0
  -19.6704   17.8477  -13.7304 N   0  0  0  0  0  0  0  0  0  0  0  0
  -21.3103   16.4309  -14.6538 N   0  0  0  0  0  0  0  0  0  0  0  0
  -19.2828   18.8084  -13.6918 H   0  0  0  0  0  0  0  0  0  0  0  0
  -19.4662   17.2156  -12.9201 H   0  0  0  0  0  0  0  0  0  0  0  0
  -21.4206   16.0104  -13.7073 H   0  0  0  0  0  0  0  0  0  0  0  0
  -18.2460   12.6027  -18.6379 C   0  0  0  0  0  0  0  0  0  0  0  0
  -18.7707   11.4451  -17.8757 C   0  0  0  0  0  0  0  0  0  0  0  0
  -18.2383   10.1641  -17.9793 C   0  0  0  0  0  0  0  0  0  0  0  0
  -18.7230    9.0821  -17.2768 C   0  0  0  0  0  0  0  0  0  0  0  0
  -19.7877    9.2490  -16.4221 C   0  0  0  0  0  0  0  0  0  0  0  0
  -20.3456   10.4975  -16.2884 C   0  0  0  0  0  0  0  0  0  0  0  0
  -19.8358   11.5716  -17.0098 C   0  0  0  0  0  0  0  0  0  0  0  0
  6  7  1  0  0  0
  7 10  1  0  0  0
 10 11  1  0  0  0
 11 12  2  0  0  0
 12 13  1  0  0  0
 13 14  2  0  0  0
 14 15  1  0  0  0
 14 16  1  0  0  0
 16 17  2  0  0  0
  7  2  1  0  0  0
  2  3  2  0  0  0
  2  4  1  0  0  0
  4  1  1  0  0  0
  1 42  1  0  0  0
 42 43  1  0  0  0
 43 44  2  0  0  0
 44 45  1  0  0  0
 45 46  2  0  0  0
 46 47  1  0  0  0
 47 48  2  0  0  0
  1 19  1  0  0  0
 19 20  2  0  0  0
 19 21  1  0  0  0
 21 23  1  0  0  0
 23 31  1  0  0  0
 31 32  1  0  0  0
 32 33  1  0  0  0
 33 34  1  0  0  0
 34 36  1  0  0  0
 36 37  1  0  0  0
 36 38  2  0  0  0
 23 24  1  0  0  0
 24 25  2  0  0  0
 24 26  1  0  0  0
 26 27  2  0  0  0
 27 28  1  0  0  0
 28 29  2  0  0  0
 29 30  1  0  0  0
 17 11  1  0  0  0
 48 43  1  0  0  0
 30 26  1  0  0  0
  6  8  1  0  0  0
  6  9  1  0  0  0
 15 18  1  0  0  0
  4  5  1  0  0  0
 21 22  1  0  0  0
 34 35  1  0  0  0
 37 39  1  0  0  0
 37 40  1  0  0  0
 38 41  1  0  0  0
M  END
> <minimizedAffinity>
-8.50351

> <CNNscore>
0.6545941830

> <CNNaffinity>
7.4579339027

> <CNN_VS>
4.8819203377

> <CNNaffinity_variance>
0.1998715103

$$$$
[H]N=C(N([H])[H])N([H])C([H])([H])C([H])([H])C([H])([H])[C@@]([H])(C(=O)c1nc([H])c([H])s1)N([H])C(=O)[C@@]([H])(N([H])C(=O)[C@@]([H])(N([H])[H])C([H])([H])c1c([H])c([H])c(O[H])c([H])c1[H])C([H])([H])c1c([H])c([H])c([H])c([H])c1[H]


 48 50  0  0  0  0  0  0  0  0999 V2000
  -18.8183   12.9747  -19.9220 C   0  0  0  0  0  0  0  0  0  0  0  0
  -17.2422   12.1565  -21.6166 C   0  0  0  0  0  0  0  0  0  0  0  0
  -17.7622   11.0253  -21.5307 O   0  0  0  0  0  0  0  0  0  0  0  0
  -17.7097   13.2197  -20.8353 N   0  0  0  0  0  0  0  0  0  0  0  0
  -17.3237   14.1901  -20.8579 H   0  0  0  0  0  0  0  0  0  0  0  0
  -15.3635   11.1332  -22.6999 N   0  0  0  0  0  0  0  0  0  0  0  0
  -16.1209   12.3666  -22.5569 C   0  0  0  0  0  0  0  0  0  0  0  0
  -14.4510   11.1987  -22.2238 H   0  0  0  0  0  0  0  0  0  0  0  0
  -15.9302   10.2991  -22.4278 H   0  0  0  0  0  0  0  0  0  0  0  0
  -16.7538   12.7186  -23.8929 C   0  0  0  0  0  0  0  0  0  0  0  0
  -16.0159   13.7963  -24.5870 C   0  0  0  0  0  0  0  0  0  0  0  0
  -16.6594   14.4854  -25.5904 C   0  0  0  0  0  0  0  0  0  0  0  0
  -15.9709   15.5016  -26.2479 C   0  0  0  0  0  0  0  0  0  0  0  0
  -14.6686   15.7927  -25.8814 C   0  0  0  0  0  0  0  0  0  0  0  0
  -13.9865   16.8108  -26.5440 O   0  0  0  0  0  0  0  0  0  0  0  0
  -14.0245   15.0982  -24.8722 C   0  0  0  0  0  0  0  0  0  0  0  0
  -14.7177   14.0826  -24.2177 C   0  0  0  0  0  0  0  0  0  0  0  0
  -13.0394   17.0411  -26.2947 H   0  0  0  0  0  0  0  0  0  0  0  0
  -19.7531   14.0936  -19.9974 C   0  0  0  0  0  0  0  0  0  0  0  0
  -21.0041   13.8648  -20.0276 O   0  0  0  0  0  0  0  0  0  0  0  0
  -19.3369   15.4472  -20.0364 N   0  0  0  0  0  0  0  0  0  0  0  0
  -18.3437   15.7473  -20.0177 H   0  0  0  0  0  0  0  0  0  0  0  0
  -20.3771   16.4759  -20.1078 C   0  0  0  0  0  0  0  0  0  0  0  0
  -20.3031   17.0974  -21.4311 C   0  0  0  0  0  0  0  0  0  0  0  0
  -19.4037   16.8211  -22.2687 O   0  0  0  0  0  0  0  0  0  0  0  0
  -21.3219   18.0954  -21.8195 C   0  0  0  0  0  0  0  0  0  0  0  0
  -21.2013   19.3981  -22.0012 N   0  0  0  0  0  0  0  0  0  0  0  0
  -22.2283   20.1061  -22.3439 C   0  0  0  0  0  0  0  0  0  0  0  0
  -23.4254   19.4612  -22.5077 C   0  0  0  0  0  0  0  0  0  0  0  0
  -22.9952   17.8461  -22.1532 S   0  0  0  0  0  0  0  0  0  0  0  0
  -20.1533   17.4901  -18.9874 C   0  0  0  0  0  0  0  0  0  0  0  0
  -19.1453   16.8427  -18.0273 C   0  0  0  0  0  0  0  0  0  0  0  0
  -19.8044   16.6966  -16.6597 C   0  0  0  0  0  0  0  0  0  0  0  0
  -19.8957   15.2850  -16.3572 N   0  0  0  0  0  0  0  0  0  0  0  0
  -19.0201   14.7454  -16.2136 H   0  0  0  0  0  0  0  0  0  0  0  0
  -21.1879   14.7195  -16.2747 C   0  0  0  0  0  0  0  0  0  0  0  0
  -22.1408   14.7990  -17.3162 N   0  0  0  0  0  0  0  0  0  0  0  0
  -21.4797   14.1003  -15.1658 N   0  0  0  0  0  0  0  0  0  0  0  0
  -21.8662   14.9105  -18.3096 H   0  0  0  0  0  0  0  0  0  0  0  0
  -23.1658   14.7465  -17.1053 H   0  0  0  0  0  0  0  0  0  0  0  0
  -22.4217   13.6683  -15.0618 H   0  0  0  0  0  0  0  0  0  0  0  0
  -18.2048   12.7280  -18.5756 C   0  0  0  0  0  0  0  0  0  0  0  0
  -18.6783   11.4935  -17.9062 C   0  0  0  0  0  0  0  0  0  0  0  0
  -19.7505   11.4742  -17.0201 C   0  0  0  0  0  0  0  0  0  0  0  0
  -20.1942   10.3311  -16.3911 C   0  0  0  0  0  0  0  0  0  0  0  0
  -19.5626    9.1336  -16.6338 C   0  0  0  0  0  0  0  0  0  0  0  0
  -18.4983    9.1055  -17.5023 C   0  0  0  0  0  0  0  0  0  0  0  0
  -18.0719   10.2746  -18.1232 C   0  0  0  0  0  0  0  0  0  0  0  0
  6  7  1  0  0  0
  7 10  1  0  0  0
 10 11  1  0  0  0
 11 12  2  0  0  0
 12 13  1  0  0  0
 13 14  2  0  0  0
 14 15  1  0  0  0
 14 16  1  0  0  0
 16 17  2  0  0  0
  7  2  1  0  0  0
  2  3  2  0  0  0
  2  4  1  0  0  0
  4  1  1  0  0  0
  1 42  1  0  0  0
 42 43  1  0  0  0
 43 44  2  0  0  0
 44 45  1  0  0  0
 45 46  2  0  0  0
 46 47  1  0  0  0
 47 48  2  0  0  0
  1 19  1  0  0  0
 19 20  2  0  0  0
 19 21  1  0  0  0
 21 23  1  0  0  0
 23 31  1  0  0  0
 31 32  1  0  0  0
 32 33  1  0  0  0
 33 34  1  0  0  0
 34 36  1  0  0  0
 36 37  1  0  0  0
 36 38  2  0  0  0
 23 24  1  0  0  0
 24 25  2  0  0  0
 24 26  1  0  0  0
 26 27  2  0  0  0
 27 28  1  0  0  0
 28 29  2  0  0  0
 29 30  1  0  0  0
 17 11  1  0  0  0
 48 43  1  0  0  0
 30 26  1  0  0  0
  6  8  1  0  0  0
  6  9  1  0  0  0
 15 18  1  0  0  0
  4  5  1  0  0  0
 21 22  1  0  0  0
 34 35  1  0  0  0
 37 39  1  0  0  0
 37 40  1  0  0  0
 38 41  1  0  0  0
M  END
> <minimizedAffinity>
-8.21429

> <CNNscore>
0.5316607356

> <CNNaffinity>
7.3194532394

> <CNN_VS>
3.8914659023

> <CNNaffinity_variance>
0.1096505970

$$$$
[H]N=C(N([H])[H])N([H])C([H])([H])C([H])([H])C([H])([H])[C@@]([H])(C(=O)c1nc([H])c([H])s1)N([H])C(=O)[C@@]([H])(N([H])C(=O)[C@@]([H])(N([H])[H])C([H])([H])c1c([H])c([H])c(O[H])c([H])c1[H])C([H])([H])c1c([H])c([H])c([H])c([H])c1[H]


 48 50  0  0  0  0  0  0  0  0999 V2000
  -18.5919   14.1727  -20.0156 C   0  0  0  0  0  0  0  0  0  0  0  0
  -18.9678   13.8069  -17.6176 C   0  0  0  0  0  0  0  0  0  0  0  0
  -17.7370   13.6701  -17.4621 O   0  0  0  0  0  0  0  0  0  0  0  0
  -19.5042   14.0653  -18.8845 N   0  0  0  0  0  0  0  0  0  0  0  0
  -20.5211   14.1926  -19.0859 H   0  0  0  0  0  0  0  0  0  0  0  0
  -20.6121   14.9280  -16.2801 N   0  0  0  0  0  0  0  0  0  0  0  0
  -19.8610   13.6936  -16.4452 C   0  0  0  0  0  0  0  0  0  0  0  0
  -20.2731   15.4649  -15.4673 H   0  0  0  0  0  0  0  0  0  0  0  0
  -20.6538   15.4757  -17.1685 H   0  0  0  0  0  0  0  0  0  0  0  0
  -20.8264   12.5632  -16.7607 C   0  0  0  0  0  0  0  0  0  0  0  0
  -20.2622   11.2412  -16.4120 C   0  0  0  0  0  0  0  0  0  0  0  0
  -19.5002   10.5883  -17.3549 C   0  0  0  0  0  0  0  0  0  0  0  0
  -18.9654    9.3435  -17.0333 C   0  0  0  0  0  0  0  0  0  0  0  0
  -19.2095    8.7965  -15.7857 C   0  0  0  0  0  0  0  0  0  0  0  0
  -18.6710    7.5508  -15.4715 O   0  0  0  0  0  0  0  0  0  0  0  0
  -19.9759    9.4554  -14.8400 C   0  0  0  0  0  0  0  0  0  0  0  0
  -20.5086   10.7004  -15.1668 C   0  0  0  0  0  0  0  0  0  0  0  0
  -18.8340    7.1332  -14.5709 H   0  0  0  0  0  0  0  0  0  0  0  0
  -18.8122   15.4514  -20.6848 C   0  0  0  0  0  0  0  0  0  0  0  0
  -19.9586   16.0001  -20.6274 O   0  0  0  0  0  0  0  0  0  0  0  0
  -17.7999   16.1307  -21.4064 N   0  0  0  0  0  0  0  0  0  0  0  0
  -16.8315   15.7746  -21.5178 H   0  0  0  0  0  0  0  0  0  0  0  0
  -18.1508   17.4093  -22.0287 C   0  0  0  0  0  0  0  0  0  0  0  0
  -17.5594   17.4338  -23.3675 C   0  0  0  0  0  0  0  0  0  0  0  0
  -17.7385   18.3807  -24.1787 O   0  0  0  0  0  0  0  0  0  0  0  0
  -16.7100   16.3055  -23.8037 C   0  0  0  0  0  0  0  0  0  0  0  0
  -15.4741   15.9955  -23.4559 N   0  0  0  0  0  0  0  0  0  0  0  0
  -14.8979   14.9520  -23.9583 C   0  0  0  0  0  0  0  0  0  0  0  0
  -15.6092   14.1945  -24.8505 C   0  0  0  0  0  0  0  0  0  0  0  0
  -17.0910   15.0428  -24.9146 S   0  0  0  0  0  0  0  0  0  0  0  0
  -17.6310   18.5489  -21.1540 C   0  0  0  0  0  0  0  0  0  0  0  0
  -18.7813   19.5605  -21.0512 C   0  0  0  0  0  0  0  0  0  0  0  0
  -19.4640   19.3815  -19.6992 C   0  0  0  0  0  0  0  0  0  0  0  0
  -18.6037   18.5666  -18.8695 N   0  0  0  0  0  0  0  0  0  0  0  0
  -17.5800   18.5803  -19.0437 H   0  0  0  0  0  0  0  0  0  0  0  0
  -19.2173   17.7918  -17.8598 C   0  0  0  0  0  0  0  0  0  0  0  0
  -18.6235   17.5413  -16.6014 N   0  0  0  0  0  0  0  0  0  0  0  0
  -20.3910   17.2998  -18.1398 N   0  0  0  0  0  0  0  0  0  0  0  0
  -17.9280   18.1845  -16.1803 H   0  0  0  0  0  0  0  0  0  0  0  0
  -18.8765   16.6842  -16.0544 H   0  0  0  0  0  0  0  0  0  0  0  0
  -20.8800   16.7222  -17.4242 H   0  0  0  0  0  0  0  0  0  0  0  0
  -18.8198   12.9505  -20.8549 C   0  0  0  0  0  0  0  0  0  0  0  0
  -17.6306   12.0776  -20.9970 C   0  0  0  0  0  0  0  0  0  0  0  0
  -16.7559   12.1565  -22.0757 C   0  0  0  0  0  0  0  0  0  0  0  0
  -15.6503   11.3459  -22.2168 C   0  0  0  0  0  0  0  0  0  0  0  0
  -15.3738   10.4012  -21.2560 C   0  0  0  0  0  0  0  0  0  0  0  0
  -16.2112   10.2877  -20.1726 C   0  0  0  0  0  0  0  0  0  0  0  0
  -17.3198   11.1192  -20.0561 C   0  0  0  0  0  0  0  0  0  0  0  0
  6  7  1  0  0  0
  7 10  1  0  0  0
 10 11  1  0  0  0
 11 12  2  0  0  0
 12 13  1  0  0  0
 13 14  2  0  0  0
 14 15  1  0  0  0
 14 16  1  0  0  0
 16 17  2  0  0  0
  7  2  1  0  0  0
  2  3  2  0  0  0
  2  4  1  0  0  0
  4  1  1  0  0  0
  1 42  1  0  0  0
 42 43  1  0  0  0
 43 44  2  0  0  0
 44 45  1  0  0  0
 45 46  2  0  0  0
 46 47  1  0  0  0
 47 48  2  0  0  0
  1 19  1  0  0  0
 19 20  2  0  0  0
 19 21  1  0  0  0
 21 23  1  0  0  0
 23 31  1  0  0  0
 31 32  1  0  0  0
 32 33  1  0  0  0
 33 34  1  0  0  0
 34 36  1  0  0  0
 36 37  1  0  0  0
 36 38  2  0  0  0
 23 24  1  0  0  0
 24 25  2  0  0  0
 24 26  1  0  0  0
 26 27  2  0  0  0
 27 28  1  0  0  0
 28 29  2  0  0  0
 29 30  1  0  0  0
 17 11  1  0  0  0
 48 43  1  0  0  0
 30 26  1  0  0  0
  6  8  1  0  0  0
  6  9  1  0  0  0
 15 18  1  0  0  0
  4  5  1  0  0  0
 21 22  1  0  0  0
 34 35  1  0  0  0
 37 39  1  0  0  0
 37 40  1  0  0  0
 38 41  1  0  0  0
M  END
> <minimizedAffinity>
-7.88827

> <CNNscore>
0.4160015285

> <CNNaffinity>
6.9376587868

> <CNN_VS>
2.8860766888

> <CNNaffinity_variance>
0.7792688608

$$$$
[H]N=C(N([H])[H])N([H])C([H])([H])C([H])([H])C([H])([H])[C@@]([H])(C(=O)c1nc([H])c([H])s1)N([H])C(=O)[C@@]([H])(N([H])C(=O)[C@@]([H])(N([H])[H])C([H])([H])c1c([H])c([H])c(O[H])c([H])c1[H])C([H])([H])c1c([H])c([H])c([H])c([H])c1[H]


 48 50  0  0  0  0  0  0  0  0999 V2000
  -16.9265   13.8255  -22.8766 C   0  0  0  0  0  0  0  0  0  0  0  0
  -16.4127   11.6984  -21.7647 C   0  0  0  0  0  0  0  0  0  0  0  0
  -15.3567   11.6264  -22.4260 O   0  0  0  0  0  0  0  0  0  0  0  0
  -17.2833   12.7829  -21.9233 N   0  0  0  0  0  0  0  0  0  0  0  0
  -18.1801   12.9078  -21.4025 H   0  0  0  0  0  0  0  0  0  0  0  0
  -15.8165    9.5116  -20.9821 N   0  0  0  0  0  0  0  0  0  0  0  0
  -16.7389   10.6220  -20.8052 C   0  0  0  0  0  0  0  0  0  0  0  0
  -16.2826    8.7073  -21.4287 H   0  0  0  0  0  0  0  0  0  0  0  0
  -14.9357    9.8137  -21.4552 H   0  0  0  0  0  0  0  0  0  0  0  0
  -16.5391   11.2183  -19.4217 C   0  0  0  0  0  0  0  0  0  0  0  0
  -17.7328   11.0415  -18.5663 C   0  0  0  0  0  0  0  0  0  0  0  0
  -17.9712    9.7964  -18.0291 C   0  0  0  0  0  0  0  0  0  0  0  0
  -19.0929    9.6228  -17.2224 C   0  0  0  0  0  0  0  0  0  0  0  0
  -19.9339   10.6951  -16.9815 C   0  0  0  0  0  0  0  0  0  0  0  0
  -21.0540   10.5134  -16.1734 O   0  0  0  0  0  0  0  0  0  0  0  0
  -19.6914   11.9456  -17.5230 C   0  0  0  0  0  0  0  0  0  0  0  0
  -18.5680   12.1139  -18.3293 C   0  0  0  0  0  0  0  0  0  0  0  0
  -21.6796   11.2780  -15.9833 H   0  0  0  0  0  0  0  0  0  0  0  0
  -17.6455   15.0493  -22.5346 C   0  0  0  0  0  0  0  0  0  0  0  0
  -18.8691   14.9831  -22.1927 O   0  0  0  0  0  0  0  0  0  0  0  0
  -17.0441   16.3317  -22.5596 N   0  0  0  0  0  0  0  0  0  0  0  0
  -16.0549   16.5012  -22.8235 H   0  0  0  0  0  0  0  0  0  0  0  0
  -17.8759   17.4793  -22.1902 C   0  0  0  0  0  0  0  0  0  0  0  0
  -18.1710   18.2308  -23.4113 C   0  0  0  0  0  0  0  0  0  0  0  0
  -17.4241   18.2112  -24.4254 O   0  0  0  0  0  0  0  0  0  0  0  0
  -19.3970   19.0540  -23.4754 C   0  0  0  0  0  0  0  0  0  0  0  0
  -20.6638   18.6811  -23.5025 N   0  0  0  0  0  0  0  0  0  0  0  0
  -21.6033   19.5684  -23.5609 C   0  0  0  0  0  0  0  0  0  0  0  0
  -21.2373   20.8878  -23.5931 C   0  0  0  0  0  0  0  0  0  0  0  0
  -19.5336   20.7719  -23.5361 S   0  0  0  0  0  0  0  0  0  0  0  0
  -17.1272   18.3283  -21.1643 C   0  0  0  0  0  0  0  0  0  0  0  0
  -17.1274   17.5146  -19.8624 C   0  0  0  0  0  0  0  0  0  0  0  0
  -18.5019   17.6399  -19.2133 C   0  0  0  0  0  0  0  0  0  0  0  0
  -18.7777   16.4055  -18.5114 N   0  0  0  0  0  0  0  0  0  0  0  0
  -18.8633   15.5265  -19.0578 H   0  0  0  0  0  0  0  0  0  0  0  0
  -18.9158   16.4726  -17.1068 C   0  0  0  0  0  0  0  0  0  0  0  0
  -19.1989   15.3484  -16.2975 N   0  0  0  0  0  0  0  0  0  0  0  0
  -18.7671   17.6486  -16.5655 N   0  0  0  0  0  0  0  0  0  0  0  0
  -18.9464   14.3842  -16.5825 H   0  0  0  0  0  0  0  0  0  0  0  0
  -19.6795   15.4648  -15.3738 H   0  0  0  0  0  0  0  0  0  0  0  0
  -18.8605   17.7442  -15.5325 H   0  0  0  0  0  0  0  0  0  0  0  0
  -17.2092   13.2627  -24.2380 C   0  0  0  0  0  0  0  0  0  0  0  0
  -16.5545   13.9938  -25.3485 C   0  0  0  0  0  0  0  0  0  0  0  0
  -15.3806   14.7230  -25.1891 C   0  0  0  0  0  0  0  0  0  0  0  0
  -14.7680   15.4084  -26.2158 C   0  0  0  0  0  0  0  0  0  0  0  0
  -15.3246   15.3874  -27.4735 C   0  0  0  0  0  0  0  0  0  0  0  0
  -16.4846   14.6797  -27.6771 C   0  0  0  0  0  0  0  0  0  0  0  0
  -17.0811   13.9972  -26.6225 C   0  0  0  0  0  0  0  0  0  0  0  0
  6  7  1  0  0  0
  7 10  1  0  0  0
 10 11  1  0  0  0
 11 12  2  0  0  0
 12 13  1  0  0  0
 13 14  2  0  0  0
 14 15  1  0  0  0
 14 16  1  0  0  0
 16 17  2  0  0  0
  7  2  1  0  0  0
  2  3  2  0  0  0
  2  4  1  0  0  0
  4  1  1  0  0  0
  1 42  1  0  0  0
 42 43  1  0  0  0
 43 44  2  0  0  0
 44 45  1  0  0  0
 45 46  2  0  0  0
 46 47  1  0  0  0
 47 48  2  0  0  0
  1 19  1  0  0  0
 19 20  2  0  0  0
 19 21  1  0  0  0
 21 23  1  0  0  0
 23 31  1  0  0  0
 31 32  1  0  0  0
 32 33  1  0  0  0
 33 34  1  0  0  0
 34 36  1  0  0  0
 36 37  1  0  0  0
 36 38  2  0  0  0
 23 24  1  0  0  0
 24 25  2  0  0  0
 24 26  1  0  0  0
 26 27  2  0  0  0
 27 28  1  0  0  0
 28 29  2  0  0  0
 29 30  1  0  0  0
 17 11  1  0  0  0
 48 43  1  0  0  0
 30 26  1  0  0  0
  6  8  1  0  0  0
  6  9  1  0  0  0
 15 18  1  0  0  0
  4  5  1  0  0  0
 21 22  1  0  0  0
 34 35  1  0  0  0
 37 39  1  0  0  0
 37 40  1  0  0  0
 38 41  1  0  0  0
M  END
> <minimizedAffinity>
-8.58301

> <CNNscore>
0.3389957249

> <CNNaffinity>
7.3940010071

> <CNN_VS>
2.5065348148

> <CNNaffinity_variance>
0.0295192655

$$$$
[H]N=C(N([H])[H])N([H])C([H])([H])C([H])([H])C([H])([H])[C@@]([H])(C(=O)c1nc([H])c([H])s1)N([H])C(=O)[C@@]([H])(N([H])C(=O)[C@@]([H])(N([H])[H])C([H])([H])c1c([H])c([H])c(O[H])c([H])c1[H])C([H])([H])c1c([H])c([H])c([H])c([H])c1[H]


 48 50  0  0  0  0  0  0  0  0999 V2000
  -19.1370   13.2459  -20.3827 C   0  0  0  0  0  0  0  0  0  0  0  0
  -17.5130   12.6468  -22.1230 C   0  0  0  0  0  0  0  0  0  0  0  0
  -17.6965   11.4414  -21.8566 O   0  0  0  0  0  0  0  0  0  0  0  0
  -18.2009   13.6463  -21.4250 N   0  0  0  0  0  0  0  0  0  0  0  0
  -18.0978   14.6714  -21.5969 H   0  0  0  0  0  0  0  0  0  0  0  0
  -15.3779   12.1663  -23.1029 N   0  0  0  0  0  0  0  0  0  0  0  0
  -16.5569   13.0135  -23.1892 C   0  0  0  0  0  0  0  0  0  0  0  0
  -14.5658   12.6928  -22.7464 H   0  0  0  0  0  0  0  0  0  0  0  0
  -15.5762   11.2813  -22.5849 H   0  0  0  0  0  0  0  0  0  0  0  0
  -17.2693   12.7409  -24.5036 C   0  0  0  0  0  0  0  0  0  0  0  0
  -16.8100   13.6466  -25.5791 C   0  0  0  0  0  0  0  0  0  0  0  0
  -17.1976   13.3728  -26.8717 C   0  0  0  0  0  0  0  0  0  0  0  0
  -16.7693   14.2214  -27.8893 C   0  0  0  0  0  0  0  0  0  0  0  0
  -15.9720   15.3097  -27.5811 C   0  0  0  0  0  0  0  0  0  0  0  0
  -15.5476   16.1541  -28.6047 O   0  0  0  0  0  0  0  0  0  0  0  0
  -15.5842   15.5823  -26.2807 C   0  0  0  0  0  0  0  0  0  0  0  0
  -16.0153   14.7303  -25.2665 C   0  0  0  0  0  0  0  0  0  0  0  0
  -14.9681   16.9519  -28.4052 H   0  0  0  0  0  0  0  0  0  0  0  0
  -20.2176   14.2251  -20.3117 C   0  0  0  0  0  0  0  0  0  0  0  0
  -21.4016   13.8354  -20.0575 O   0  0  0  0  0  0  0  0  0  0  0  0
  -20.0169   15.6132  -20.5109 N   0  0  0  0  0  0  0  0  0  0  0  0
  -19.0950   16.0393  -20.7241 H   0  0  0  0  0  0  0  0  0  0  0  0
  -21.1857   16.4901  -20.4085 C   0  0  0  0  0  0  0  0  0  0  0  0
  -21.1095   17.4677  -21.4954 C   0  0  0  0  0  0  0  0  0  0  0  0
  -22.0468   18.2638  -21.7681 O   0  0  0  0  0  0  0  0  0  0  0  0
  -19.8845   17.5388  -22.3196 C   0  0  0  0  0  0  0  0  0  0  0  0
  -19.2187   16.5735  -22.9274 N   0  0  0  0  0  0  0  0  0  0  0  0
  -18.1537   16.8457  -23.6094 C   0  0  0  0  0  0  0  0  0  0  0  0
  -17.7512   18.1532  -23.6743 C   0  0  0  0  0  0  0  0  0  0  0  0
  -18.9499   18.9273  -22.7345 S   0  0  0  0  0  0  0  0  0  0  0  0
  -21.1870   17.1612  -19.0361 C   0  0  0  0  0  0  0  0  0  0  0  0
  -19.9124   16.6788  -18.3292 C   0  0  0  0  0  0  0  0  0  0  0  0
  -18.8394   17.7521  -18.4797 C   0  0  0  0  0  0  0  0  0  0  0  0
  -17.5613   17.0888  -18.6178 N   0  0  0  0  0  0  0  0  0  0  0  0
  -17.1899   16.5443  -17.8152 H   0  0  0  0  0  0  0  0  0  0  0  0
  -16.8879   17.2242  -19.8525 C   0  0  0  0  0  0  0  0  0  0  0  0
  -16.2471   18.4157  -20.2635 N   0  0  0  0  0  0  0  0  0  0  0  0
  -16.8780   16.1750  -20.6253 N   0  0  0  0  0  0  0  0  0  0  0  0
  -15.8859   19.1116  -19.5853 H   0  0  0  0  0  0  0  0  0  0  0  0
  -16.1198   18.6278  -21.2816 H   0  0  0  0  0  0  0  0  0  0  0  0
  -16.3928   16.2303  -21.5453 H   0  0  0  0  0  0  0  0  0  0  0  0
  -18.3253   13.0797  -19.1322 C   0  0  0  0  0  0  0  0  0  0  0  0
  -18.6730   11.8805  -18.3339 C   0  0  0  0  0  0  0  0  0  0  0  0
  -19.6989   11.8653  -17.3946 C   0  0  0  0  0  0  0  0  0  0  0  0
  -20.0257   10.7553  -16.6460 C   0  0  0  0  0  0  0  0  0  0  0  0
  -19.3169    9.5888  -16.8160 C   0  0  0  0  0  0  0  0  0  0  0  0
  -18.2944    9.5580  -17.7332 C   0  0  0  0  0  0  0  0  0  0  0  0
  -17.9865   10.6933  -18.4751 C   0  0  0  0  0  0  0  0  0  0  0  0
  6  7  1  0  0  0
  7 10  1  0  0  0
 10 11  1  0  0  0
 11 12  2  0  0  0
 12 13  1  0  0  0
 13 14  2  0  0  0
 14 15  1  0  0  0
 14 16  1  0  0  0
 16 17  2  0  0  0
  7  2  1  0  0  0
  2  3  2  0  0  0
  2  4  1  0  0  0
  4  1  1  0  0  0
  1 42  1  0  0  0
 42 43  1  0  0  0
 43 44  2  0  0  0
 44 45  1  0  0  0
 45 46  2  0  0  0
 46 47  1  0  0  0
 47 48  2  0  0  0
  1 19  1  0  0  0
 19 20  2  0  0  0
 19 21  1  0  0  0
 21 23  1  0  0  0
 23 31  1  0  0  0
 31 32  1  0  0  0
 32 33  1  0  0  0
 33 34  1  0  0  0
 34 36  1  0  0  0
 36 37  1  0  0  0
 36 38  2  0  0  0
 23 24  1  0  0  0
 24 25  2  0  0  0
 24 26  1  0  0  0
 26 27  2  0  0  0
 27 28  1  0  0  0
 28 29  2  0  0  0
 29 30  1  0  0  0
 17 11  1  0  0  0
 48 43  1  0  0  0
 30 26  1  0  0  0
  6  8  1  0  0  0
  6  9  1  0  0  0
 15 18  1  0  0  0
  4  5  1  0  0  0
 21 22  1  0  0  0
 34 35  1  0  0  0
 37 39  1  0  0  0
 37 40  1  0  0  0
 38 41  1  0  0  0
M  END
> <minimizedAffinity>
-8.40267

> <CNNscore>
0.3206136227

> <CNNaffinity>
6.9190802574

> <CNN_VS>
2.2183513641

> <CNNaffinity_variance>
0.6030470729

$$$$
[H]N=C(N([H])[H])N([H])C([H])([H])C([H])([H])C([H])([H])[C@@]([H])(C(=O)c1nc([H])c([H])s1)N([H])C(=O)[C@@]([H])(N([H])C(=O)[C@@]([H])(N([H])[H])C([H])([H])c1c([H])c([H])c(O[H])c([H])c1[H])C([H])([H])c1c([H])c([H])c([H])c([H])c1[H]


 48 50  0  0  0  0  0  0  0  0999 V2000
  -18.8995   13.1472  -20.0772 C   0  0  0  0  0  0  0  0  0  0  0  0
  -17.2807   12.2704  -21.7007 C   0  0  0  0  0  0  0  0  0  0  0  0
  -17.8054   11.1433  -21.5908 O   0  0  0  0  0  0  0  0  0  0  0  0
  -17.7664   13.3599  -20.9683 N   0  0  0  0  0  0  0  0  0  0  0  0
  -17.3778   14.3283  -21.0130 H   0  0  0  0  0  0  0  0  0  0  0  0
  -15.3730   11.2104  -22.6941 N   0  0  0  0  0  0  0  0  0  0  0  0
  -16.1343   12.4472  -22.6172 C   0  0  0  0  0  0  0  0  0  0  0  0
  -14.4738   11.2945  -22.1961 H   0  0  0  0  0  0  0  0  0  0  0  0
  -15.9466   10.3861  -22.4070 H   0  0  0  0  0  0  0  0  0  0  0  0
  -16.7308   12.7490  -23.9820 C   0  0  0  0  0  0  0  0  0  0  0  0
  -15.9972   13.8275  -24.6793 C   0  0  0  0  0  0  0  0  0  0  0  0
  -14.7600   14.1918  -24.1970 C   0  0  0  0  0  0  0  0  0  0  0  0
  -14.0634   15.2062  -24.8488 C   0  0  0  0  0  0  0  0  0  0  0  0
  -14.6249   15.8187  -25.9554 C   0  0  0  0  0  0  0  0  0  0  0  0
  -13.9217   16.8327  -26.6021 O   0  0  0  0  0  0  0  0  0  0  0  0
  -15.8687   15.4502  -26.4379 C   0  0  0  0  0  0  0  0  0  0  0  0
  -16.5614   14.4349  -25.7822 C   0  0  0  0  0  0  0  0  0  0  0  0
  -14.3090   17.2923  -27.4089 H   0  0  0  0  0  0  0  0  0  0  0  0
  -19.8519   14.2403  -20.2492 C   0  0  0  0  0  0  0  0  0  0  0  0
  -21.0895   14.0325  -20.0408 O   0  0  0  0  0  0  0  0  0  0  0  0
  -19.4670   15.5465  -20.6399 N   0  0  0  0  0  0  0  0  0  0  0  0
  -18.4869   15.8260  -20.8359 H   0  0  0  0  0  0  0  0  0  0  0  0
  -20.5215   16.5542  -20.7730 C   0  0  0  0  0  0  0  0  0  0  0  0
  -20.3462   17.2189  -22.0653 C   0  0  0  0  0  0  0  0  0  0  0  0
  -19.3083   17.0894  -22.7674 O   0  0  0  0  0  0  0  0  0  0  0  0
  -21.4258   18.0838  -22.5862 C   0  0  0  0  0  0  0  0  0  0  0  0
  -22.7351   17.9135  -22.5508 N   0  0  0  0  0  0  0  0  0  0  0  0
  -23.5218   18.7988  -23.0711 C   0  0  0  0  0  0  0  0  0  0  0  0
  -22.9516   19.9011  -23.6505 C   0  0  0  0  0  0  0  0  0  0  0  0
  -21.2886   19.5936  -23.4079 S   0  0  0  0  0  0  0  0  0  0  0  0
  -20.4223   17.5368  -19.6074 C   0  0  0  0  0  0  0  0  0  0  0  0
  -18.9358   17.5920  -19.2273 C   0  0  0  0  0  0  0  0  0  0  0  0
  -18.3962   18.9736  -19.5822 C   0  0  0  0  0  0  0  0  0  0  0  0
  -17.4951   18.8257  -20.7042 N   0  0  0  0  0  0  0  0  0  0  0  0
  -17.5462   19.5121  -21.4819 H   0  0  0  0  0  0  0  0  0  0  0  0
  -16.5890   17.7422  -20.6726 C   0  0  0  0  0  0  0  0  0  0  0  0
  -15.6643   17.5306  -19.6241 N   0  0  0  0  0  0  0  0  0  0  0  0
  -16.6383   16.9160  -21.6791 N   0  0  0  0  0  0  0  0  0  0  0  0
  -15.8277   17.8832  -18.6631 H   0  0  0  0  0  0  0  0  0  0  0  0
  -14.7756   17.0029  -19.7964 H   0  0  0  0  0  0  0  0  0  0  0  0
  -15.9879   16.1027  -21.6969 H   0  0  0  0  0  0  0  0  0  0  0  0
  -18.3258   12.9938  -18.6996 C   0  0  0  0  0  0  0  0  0  0  0  0
  -18.7376   11.7530  -18.0018 C   0  0  0  0  0  0  0  0  0  0  0  0
  -18.1009   10.5303  -18.1885 C   0  0  0  0  0  0  0  0  0  0  0  0
  -18.4803    9.3716  -17.5463 C   0  0  0  0  0  0  0  0  0  0  0  0
  -19.5403    9.3967  -16.6700 C   0  0  0  0  0  0  0  0  0  0  0  0
  -20.1991   10.5831  -16.4549 C   0  0  0  0  0  0  0  0  0  0  0  0
  -19.7944   11.7372  -17.1168 C   0  0  0  0  0  0  0  0  0  0  0  0
  6  7  1  0  0  0
  7 10  1  0  0  0
 10 11  1  0  0  0
 11 12  2  0  0  0
 12 13  1  0  0  0
 13 14  2  0  0  0
 14 15  1  0  0  0
 14 16  1  0  0  0
 16 17  2  0  0  0
  7  2  1  0  0  0
  2  3  2  0  0  0
  2  4  1  0  0  0
  4  1  1  0  0  0
  1 42  1  0  0  0
 42 43  1  0  0  0
 43 44  2  0  0  0
 44 45  1  0  0  0
 45 46  2  0  0  0
 46 47  1  0  0  0
 47 48  2  0  0  0
  1 19  1  0  0  0
 19 20  2  0  0  0
 19 21  1  0  0  0
 21 23  1  0  0  0
 23 31  1  0  0  0
 31 32  1  0  0  0
 32 33  1  0  0  0
 33 34  1  0  0  0
 34 36  1  0  0  0
 36 37  1  0  0  0
 36 38  2  0  0  0
 23 24  1  0  0  0
 24 25  2  0  0  0
 24 26  1  0  0  0
 26 27  2  0  0  0
 27 28  1  0  0  0
 28 29  2  0  0  0
 29 30  1  0  0  0
 17 11  1  0  0  0
 48 43  1  0  0  0
 30 26  1  0  0  0
  6  8  1  0  0  0
  6  9  1  0  0  0
 15 18  1  0  0  0
  4  5  1  0  0  0
 21 22  1  0  0  0
 34 35  1  0  0  0
 37 39  1  0  0  0
 37 40  1  0  0  0
 38 41  1  0  0  0
M  END
> <minimizedAffinity>
-8.36567

> <CNNscore>
0.3096887171

> <CNNaffinity>
6.8441495895

> <CNN_VS>
2.1195559502

> <CNNaffinity_variance>
0.6267541051

$$$$
[H]N=C(N([H])[H])N([H])C([H])([H])C([H])([H])C([H])([H])[C@@]([H])(C(=O)c1nc([H])c([H])s1)N([H])C(=O)[C@@]([H])(N([H])C(=O)[C@@]([H])(N([H])[H])C([H])([H])c1c([H])c([H])c(O[H])c([H])c1[H])C([H])([H])c1c([H])c([H])c([H])c([H])c1[H]


 48 50  0  0  0  0  0  0  0  0999 V2000
  -18.6725   14.0612  -19.8996 C   0  0  0  0  0  0  0  0  0  0  0  0
  -19.0658   13.6556  -17.5109 C   0  0  0  0  0  0  0  0  0  0  0  0
  -17.8330   13.6872  -17.3191 O   0  0  0  0  0  0  0  0  0  0  0  0
  -19.5947   13.8348  -18.7945 N   0  0  0  0  0  0  0  0  0  0  0  0
  -20.6132   13.8226  -19.0259 H   0  0  0  0  0  0  0  0  0  0  0  0
  -20.7357   14.6327  -16.0944 N   0  0  0  0  0  0  0  0  0  0  0  0
  -19.9697   13.4262  -16.3638 C   0  0  0  0  0  0  0  0  0  0  0  0
  -20.4108   15.0959  -15.2320 H   0  0  0  0  0  0  0  0  0  0  0  0
  -20.7743   15.2593  -16.9291 H   0  0  0  0  0  0  0  0  0  0  0  0
  -20.9195   12.3201  -16.7925 C   0  0  0  0  0  0  0  0  0  0  0  0
  -20.3880   10.9786  -16.4676 C   0  0  0  0  0  0  0  0  0  0  0  0
  -20.9162   10.3131  -15.3841 C   0  0  0  0  0  0  0  0  0  0  0  0
  -20.4209    9.0494  -15.0726 C   0  0  0  0  0  0  0  0  0  0  0  0
  -19.4193    8.4970  -15.8514 C   0  0  0  0  0  0  0  0  0  0  0  0
  -18.9291    7.2324  -15.5333 O   0  0  0  0  0  0  0  0  0  0  0  0
  -18.8905    9.1686  -16.9400 C   0  0  0  0  0  0  0  0  0  0  0  0
  -19.3894   10.4324  -17.2474 C   0  0  0  0  0  0  0  0  0  0  0  0
  -18.2016    6.8099  -16.0851 H   0  0  0  0  0  0  0  0  0  0  0  0
  -18.9329   15.3776  -20.4747 C   0  0  0  0  0  0  0  0  0  0  0  0
  -20.0999   15.8777  -20.3939 O   0  0  0  0  0  0  0  0  0  0  0  0
  -17.9382   16.1461  -21.1281 N   0  0  0  0  0  0  0  0  0  0  0  0
  -16.9557   15.8354  -21.2511 H   0  0  0  0  0  0  0  0  0  0  0  0
  -18.3297   17.4541  -21.6583 C   0  0  0  0  0  0  0  0  0  0  0  0
  -18.1038   17.4377  -23.1045 C   0  0  0  0  0  0  0  0  0  0  0  0
  -18.7328   18.1796  -23.9049 O   0  0  0  0  0  0  0  0  0  0  0  0
  -17.0951   16.5161  -23.6686 C   0  0  0  0  0  0  0  0  0  0  0  0
  -15.7800   16.5264  -23.5459 N   0  0  0  0  0  0  0  0  0  0  0  0
  -15.0642   15.6190  -24.1269 C   0  0  0  0  0  0  0  0  0  0  0  0
  -15.7141   14.6635  -24.8620 C   0  0  0  0  0  0  0  0  0  0  0  0
  -17.3451   15.1350  -24.6702 S   0  0  0  0  0  0  0  0  0  0  0  0
  -17.5084   18.5396  -20.9646 C   0  0  0  0  0  0  0  0  0  0  0  0
  -18.3470   19.8228  -21.0503 C   0  0  0  0  0  0  0  0  0  0  0  0
  -19.7978   19.4752  -20.7337 C   0  0  0  0  0  0  0  0  0  0  0  0
  -20.6133   19.9079  -21.8474 N   0  0  0  0  0  0  0  0  0  0  0  0
  -20.3127   20.7365  -22.3966 H   0  0  0  0  0  0  0  0  0  0  0  0
  -21.7842   19.1668  -22.1231 C   0  0  0  0  0  0  0  0  0  0  0  0
  -23.0799   19.7327  -22.1327 N   0  0  0  0  0  0  0  0  0  0  0  0
  -21.6212   17.8992  -22.3775 N   0  0  0  0  0  0  0  0  0  0  0  0
  -23.2429   20.7376  -22.3282 H   0  0  0  0  0  0  0  0  0  0  0  0
  -23.9215   19.1395  -21.9386 H   0  0  0  0  0  0  0  0  0  0  0  0
  -22.4577   17.3147  -22.5861 H   0  0  0  0  0  0  0  0  0  0  0  0
  -18.8423   12.8980  -20.8316 C   0  0  0  0  0  0  0  0  0  0  0  0
  -17.6347   12.0514  -20.9770 C   0  0  0  0  0  0  0  0  0  0  0  0
  -17.2500   11.1089  -20.0291 C   0  0  0  0  0  0  0  0  0  0  0  0
  -16.1265   10.3207  -20.1555 C   0  0  0  0  0  0  0  0  0  0  0  0
  -15.3263   10.4521  -21.2665 C   0  0  0  0  0  0  0  0  0  0  0  0
  -15.6680   11.3711  -22.2290 C   0  0  0  0  0  0  0  0  0  0  0  0
  -16.8076   12.1532  -22.0752 C   0  0  0  0  0  0  0  0  0  0  0  0
  6  7  1  0  0  0
  7 10  1  0  0  0
 10 11  1  0  0  0
 11 12  2  0  0  0
 12 13  1  0  0  0
 13 14  2  0  0  0
 14 15  1  0  0  0
 14 16  1  0  0  0
 16 17  2  0  0  0
  7  2  1  0  0  0
  2  3  2  0  0  0
  2  4  1  0  0  0
  4  1  1  0  0  0
  1 42  1  0  0  0
 42 43  1  0  0  0
 43 44  2  0  0  0
 44 45  1  0  0  0
 45 46  2  0  0  0
 46 47  1  0  0  0
 47 48  2  0  0  0
  1 19  1  0  0  0
 19 20  2  0  0  0
 19 21  1  0  0  0
 21 23  1  0  0  0
 23 31  1  0  0  0
 31 32  1  0  0  0
 32 33  1  0  0  0
 33 34  1  0  0  0
 34 36  1  0  0  0
 36 37  1  0  0  0
 36 38  2  0  0  0
 23 24  1  0  0  0
 24 25  2  0  0  0
 24 26  1  0  0  0
 26 27  2  0  0  0
 27 28  1  0  0  0
 28 29  2  0  0  0
 29 30  1  0  0  0
 17 11  1  0  0  0
 48 43  1  0  0  0
 30 26  1  0  0  0
  6  8  1  0  0  0
  6  9  1  0  0  0
 15 18  1  0  0  0
  4  5  1  0  0  0
 21 22  1  0  0  0
 34 35  1  0  0  0
 37 39  1  0  0  0
 37 40  1  0  0  0
 38 41  1  0  0  0
M  END
> <minimizedAffinity>
-7.56380

> <CNNscore>
0.2747986019

> <CNNaffinity>
6.8863511086

> <CNN_VS>
1.8923596144

> <CNNaffinity_variance>
0.2438678294

$$$$
[H]N=C(N([H])[H])N([H])C([H])([H])C([H])([H])C([H])([H])[C@@]([H])(C(=O)c1nc([H])c([H])s1)N([H])C(=O)[C@@]([H])(N([H])C(=O)[C@@]([H])(N([H])[H])C([H])([H])c1c([H])c([H])c(O[H])c([H])c1[H])C([H])([H])c1c([H])c([H])c([H])c([H])c1[H]


 48 50  0  0  0  0  0  0  0  0999 V2000
  -19.3816   14.3771  -19.7468 C   0  0  0  0  0  0  0  0  0  0  0  0
  -17.7805   14.7097  -21.5774 C   0  0  0  0  0  0  0  0  0  0  0  0
  -18.0079   13.5457  -21.9661 O   0  0  0  0  0  0  0  0  0  0  0  0
  -18.4315   15.2278  -20.4517 N   0  0  0  0  0  0  0  0  0  0  0  0
  -18.2910   16.1911  -20.0733 H   0  0  0  0  0  0  0  0  0  0  0  0
  -16.0553   16.3643  -21.3885 N   0  0  0  0  0  0  0  0  0  0  0  0
  -16.8117   15.5431  -22.3206 C   0  0  0  0  0  0  0  0  0  0  0  0
  -16.3418   17.3534  -21.4457 H   0  0  0  0  0  0  0  0  0  0  0  0
  -16.0738   15.9677  -20.4225 H   0  0  0  0  0  0  0  0  0  0  0  0
  -15.8656   14.5737  -23.0094 C   0  0  0  0  0  0  0  0  0  0  0  0
  -15.7629   14.8391  -24.4608 C   0  0  0  0  0  0  0  0  0  0  0  0
  -14.6943   15.5798  -24.9140 C   0  0  0  0  0  0  0  0  0  0  0  0
  -14.5910   15.8332  -26.2794 C   0  0  0  0  0  0  0  0  0  0  0  0
  -15.5550   15.3396  -27.1409 C   0  0  0  0  0  0  0  0  0  0  0  0
  -15.4445   15.5973  -28.5055 O   0  0  0  0  0  0  0  0  0  0  0  0
  -16.6279   14.5952  -26.6822 C   0  0  0  0  0  0  0  0  0  0  0  0
  -16.7266   14.3445  -25.3154 C   0  0  0  0  0  0  0  0  0  0  0  0
  -16.1325   15.2484  -29.1513 H   0  0  0  0  0  0  0  0  0  0  0  0
  -20.6476   15.0909  -19.6083 C   0  0  0  0  0  0  0  0  0  0  0  0
  -21.7421   14.4466  -19.6819 O   0  0  0  0  0  0  0  0  0  0  0  0
  -20.7272   16.4882  -19.3891 N   0  0  0  0  0  0  0  0  0  0  0  0
  -19.8994   17.1095  -19.3134 H   0  0  0  0  0  0  0  0  0  0  0  0
  -22.0605   17.0813  -19.2639 C   0  0  0  0  0  0  0  0  0  0  0  0
  -22.1756   18.1415  -20.2666 C   0  0  0  0  0  0  0  0  0  0  0  0
  -21.7664   19.3168  -20.0715 O   0  0  0  0  0  0  0  0  0  0  0  0
  -22.7962   17.8371  -21.5732 C   0  0  0  0  0  0  0  0  0  0  0  0
  -23.8908   17.1512  -21.8486 N   0  0  0  0  0  0  0  0  0  0  0  0
  -24.2708   16.9949  -23.0752 C   0  0  0  0  0  0  0  0  0  0  0  0
  -23.5047   17.5597  -24.0601 C   0  0  0  0  0  0  0  0  0  0  0  0
  -22.2619   18.2955  -23.1473 S   0  0  0  0  0  0  0  0  0  0  0  0
  -22.2369   17.6167  -17.8440 C   0  0  0  0  0  0  0  0  0  0  0  0
  -20.8612   17.4958  -17.1734 C   0  0  0  0  0  0  0  0  0  0  0  0
  -20.2739   18.8947  -17.0176 C   0  0  0  0  0  0  0  0  0  0  0  0
  -18.8847   18.8423  -17.4174 N   0  0  0  0  0  0  0  0  0  0  0  0
  -18.1635   18.6391  -16.6983 H   0  0  0  0  0  0  0  0  0  0  0  0
  -18.5905   19.0739  -18.7798 C   0  0  0  0  0  0  0  0  0  0  0  0
  -18.9243   20.2697  -19.4562 N   0  0  0  0  0  0  0  0  0  0  0  0
  -17.9787   18.1126  -19.4120 N   0  0  0  0  0  0  0  0  0  0  0  0
  -19.0365   21.1730  -18.9599 H   0  0  0  0  0  0  0  0  0  0  0  0
  -19.0693   20.2718  -20.4939 H   0  0  0  0  0  0  0  0  0  0  0  0
  -17.7423   18.2407  -20.4183 H   0  0  0  0  0  0  0  0  0  0  0  0
  -18.7147   13.9785  -18.4636 C   0  0  0  0  0  0  0  0  0  0  0  0
  -18.5883   12.5146  -18.2708 C   0  0  0  0  0  0  0  0  0  0  0  0
  -19.4588   11.7759  -17.4760 C   0  0  0  0  0  0  0  0  0  0  0  0
  -19.3455   10.4152  -17.2889 C   0  0  0  0  0  0  0  0  0  0  0  0
  -18.3283    9.7269  -17.9082 C   0  0  0  0  0  0  0  0  0  0  0  0
  -17.4445   10.4163  -18.7028 C   0  0  0  0  0  0  0  0  0  0  0  0
  -17.5829   11.7894  -18.8739 C   0  0  0  0  0  0  0  0  0  0  0  0
  6  7  1  0  0  0
  7 10  1  0  0  0
 10 11  1  0  0  0
 11 12  2  0  0  0
 12 13  1  0  0  0
 13 14  2  0  0  0
 14 15  1  0  0  0
 14 16  1  0  0  0
 16 17  2  0  0  0
  7  2  1  0  0  0
  2  3  2  0  0  0
  2  4  1  0  0  0
  4  1  1  0  0  0
  1 42  1  0  0  0
 42 43  1  0  0  0
 43 44  2  0  0  0
 44 45  1  0  0  0
 45 46  2  0  0  0
 46 47  1  0  0  0
 47 48  2  0  0  0
  1 19  1  0  0  0
 19 20  2  0  0  0
 19 21  1  0  0  0
 21 23  1  0  0  0
 23 31  1  0  0  0
 31 32  1  0  0  0
 32 33  1  0  0  0
 33 34  1  0  0  0
 34 36  1  0  0  0
 36 37  1  0  0  0
 36 38  2  0  0  0
 23 24  1  0  0  0
 24 25  2  0  0  0
 24 26  1  0  0  0
 26 27  2  0  0  0
 27 28  1  0  0  0
 28 29  2  0  0  0
 29 30  1  0  0  0
 17 11  1  0  0  0
 48 43  1  0  0  0
 30 26  1  0  0  0
  6  8  1  0  0  0
  6  9  1  0  0  0
 15 18  1  0  0  0
  4  5  1  0  0  0
 21 22  1  0  0  0
 34 35  1  0  0  0
 37 39  1  0  0  0
 37 40  1  0  0  0
 38 41  1  0  0  0
M  END
> <minimizedAffinity>
-7.65373

> <CNNscore>
0.2397574037

> <CNNaffinity>
6.3569793701

> <CNN_VS>
1.5241328478

> <CNNaffinity_variance>
0.7269813418

$$$$
[H]N=C(N([H])[H])N([H])C([H])([H])C([H])([H])C([H])([H])[C@@]([H])(C(=O)c1nc([H])c([H])s1)N([H])C(=O)[C@@]([H])(N([H])C(=O)[C@@]([H])(N([H])[H])C([H])([H])c1c([H])c([H])c(O[H])c([H])c1[H])C([H])([H])c1c([H])c([H])c([H])c([H])c1[H]


 48 50  0  0  0  0  0  0  0  0999 V2000
  -17.8892   13.9258  -21.8177 C   0  0  0  0  0  0  0  0  0  0  0  0
  -17.4598   16.2930  -21.3309 C   0  0  0  0  0  0  0  0  0  0  0  0
  -16.3464   15.9781  -20.8632 O   0  0  0  0  0  0  0  0  0  0  0  0
  -18.3227   15.3167  -21.8424 N   0  0  0  0  0  0  0  0  0  0  0  0
  -19.2651   15.5092  -22.2496 H   0  0  0  0  0  0  0  0  0  0  0  0
  -16.8851   18.5071  -20.6116 N   0  0  0  0  0  0  0  0  0  0  0  0
  -17.8630   17.7152  -21.3409 C   0  0  0  0  0  0  0  0  0  0  0  0
  -17.2616   18.8211  -19.7042 H   0  0  0  0  0  0  0  0  0  0  0  0
  -15.9640   18.0189  -20.5478 H   0  0  0  0  0  0  0  0  0  0  0  0
  -17.8597   18.1422  -22.7994 C   0  0  0  0  0  0  0  0  0  0  0  0
  -19.1509   18.7402  -23.2030 C   0  0  0  0  0  0  0  0  0  0  0  0
  -20.2318   17.9043  -23.3724 C   0  0  0  0  0  0  0  0  0  0  0  0
  -21.4508   18.4605  -23.7518 C   0  0  0  0  0  0  0  0  0  0  0  0
  -21.5469   19.8270  -23.9478 C   0  0  0  0  0  0  0  0  0  0  0  0
  -22.7698   20.3758  -24.3273 O   0  0  0  0  0  0  0  0  0  0  0  0
  -20.4584   20.6646  -23.7766 C   0  0  0  0  0  0  0  0  0  0  0  0
  -19.2413   20.1032  -23.3971 C   0  0  0  0  0  0  0  0  0  0  0  0
  -22.8643   21.3665  -24.4750 H   0  0  0  0  0  0  0  0  0  0  0  0
  -17.8700   13.4578  -20.4349 C   0  0  0  0  0  0  0  0  0  0  0  0
  -17.1841   12.4308  -20.1298 O   0  0  0  0  0  0  0  0  0  0  0  0
  -18.5843   14.0979  -19.3923 N   0  0  0  0  0  0  0  0  0  0  0  0
  -19.1745   14.9406  -19.5286 H   0  0  0  0  0  0  0  0  0  0  0  0
  -18.4774   13.5291  -18.0468 C   0  0  0  0  0  0  0  0  0  0  0  0
  -19.6461   12.6757  -17.8266 C   0  0  0  0  0  0  0  0  0  0  0  0
  -20.8276   13.0692  -18.0162 O   0  0  0  0  0  0  0  0  0  0  0  0
  -19.4498   11.2862  -17.3621 C   0  0  0  0  0  0  0  0  0  0  0  0
  -18.6213   10.3574  -17.8041 N   0  0  0  0  0  0  0  0  0  0  0  0
  -18.6028    9.1860  -17.2556 C   0  0  0  0  0  0  0  0  0  0  0  0
  -19.4627    8.9519  -16.2156 C   0  0  0  0  0  0  0  0  0  0  0  0
  -20.2606   10.4572  -16.0859 S   0  0  0  0  0  0  0  0  0  0  0  0
  -18.4009   14.6660  -17.0293 C   0  0  0  0  0  0  0  0  0  0  0  0
  -18.2786   15.9584  -17.8489 C   0  0  0  0  0  0  0  0  0  0  0  0
  -19.2946   16.9653  -17.3199 C   0  0  0  0  0  0  0  0  0  0  0  0
  -18.6732   18.2715  -17.3267 N   0  0  0  0  0  0  0  0  0  0  0  0
  -17.8501   18.4382  -16.7157 H   0  0  0  0  0  0  0  0  0  0  0  0
  -19.2318   19.2534  -18.1753 C   0  0  0  0  0  0  0  0  0  0  0  0
  -20.5435   19.1767  -18.6973 N   0  0  0  0  0  0  0  0  0  0  0  0
  -18.4681   20.2676  -18.4692 N   0  0  0  0  0  0  0  0  0  0  0  0
  -21.2986   18.6503  -18.2204 H   0  0  0  0  0  0  0  0  0  0  0  0
  -20.7884   19.6585  -19.5950 H   0  0  0  0  0  0  0  0  0  0  0  0
  -18.8395   21.0153  -19.0920 H   0  0  0  0  0  0  0  0  0  0  0  0
  -16.5739   13.8843  -22.5377 C   0  0  0  0  0  0  0  0  0  0  0  0
  -16.6865   13.8975  -24.0154 C   0  0  0  0  0  0  0  0  0  0  0  0
  -17.3119   12.8866  -24.7378 C   0  0  0  0  0  0  0  0  0  0  0  0
  -17.4173   12.8899  -26.1119 C   0  0  0  0  0  0  0  0  0  0  0  0
  -16.8853   13.9347  -26.8312 C   0  0  0  0  0  0  0  0  0  0  0  0
  -16.2580   14.9556  -26.1589 C   0  0  0  0  0  0  0  0  0  0  0  0
  -16.1664   14.9261  -24.7716 C   0  0  0  0  0  0  0  0  0  0  0  0
  6  7  1  0  0  0
  7 10  1  0  0  0
 10 11  1  0  0  0
 11 12  2  0  0  0
 12 13  1  0  0  0
 13 14  2  0  0  0
 14 15  1  0  0  0
 14 16  1  0  0  0
 16 17  2  0  0  0
  7  2  1  0  0  0
  2  3  2  0  0  0
  2  4  1  0  0  0
  4  1  1  0  0  0
  1 42  1  0  0  0
 42 43  1  0  0  0
 43 44  2  0  0  0
 44 45  1  0  0  0
 45 46  2  0  0  0
 46 47  1  0  0  0
 47 48  2  0  0  0
  1 19  1  0  0  0
 19 20  2  0  0  0
 19 21  1  0  0  0
 21 23  1  0  0  0
 23 31  1  0  0  0
 31 32  1  0  0  0
 32 33  1  0  0  0
 33 34  1  0  0  0
 34 36  1  0  0  0
 36 37  1  0  0  0
 36 38  2  0  0  0
 23 24  1  0  0  0
 24 25  2  0  0  0
 24 26  1  0  0  0
 26 27  2  0  0  0
 27 28  1  0  0  0
 28 29  2  0  0  0
 29 30  1  0  0  0
 17 11  1  0  0  0
 48 43  1  0  0  0
 30 26  1  0  0  0
  6  8  1  0  0  0
  6  9  1  0  0  0
 15 18  1  0  0  0
  4  5  1  0  0  0
 21 22  1  0  0  0
 34 35  1  0  0  0
 37 39  1  0  0  0
 37 40  1  0  0  0
 38 41  1  0  0  0
M  END
> <minimizedAffinity>
-7.80775

> <CNNscore>
0.2339753062

> <CNNaffinity>
6.6051201820

> <CNN_VS>
1.5454350710

> <CNNaffinity_variance>
0.3495821059

$$$$
[H]c1nc2c(C([H])([H])[H])c([H])c(-c3c(C([H])(C([H])([H])[H])C([H])([H])[H])c4c([H])c(C5([H])C([H])([H])C([H])([H])N(C(=O)C([H])([H])C([H])([H])N([H])C([H])([H])C6([H])C([H])([H])C6([H])[H])C([H])([H])C5([H])[H])c([H])c([H])c4n3[H])c([H])n2n1


 39 44  0  0  0  0  0  0  0  0999 V2000
  -18.6213   13.0591  -20.5941 C   0  0  0  0  0  0  0  0  0  0  0  0
  -17.6449   12.7024  -21.4526 C   0  0  0  0  0  0  0  0  0  0  0  0
  -17.0247   11.5498  -21.0015 N   0  0  0  0  0  0  0  0  0  0  0  0
  -17.5996   11.1669  -19.8696 C   0  0  0  0  0  0  0  0  0  0  0  0
  -17.3589   10.0897  -19.0074 C   0  0  0  0  0  0  0  0  0  0  0  0
  -18.0953    9.9199  -17.8716 C   0  0  0  0  0  0  0  0  0  0  0  0
  -19.1044   10.8082  -17.5337 C   0  0  0  0  0  0  0  0  0  0  0  0
  -19.3184   11.8680  -18.4138 C   0  0  0  0  0  0  0  0  0  0  0  0
  -18.5859   12.0530  -19.5675 C   0  0  0  0  0  0  0  0  0  0  0  0
  -16.2407   11.0676  -21.4720 H   0  0  0  0  0  0  0  0  0  0  0  0
  -17.1790   13.3329  -22.7007 C   0  0  0  0  0  0  0  0  0  0  0  0
  -17.4281   12.8849  -23.9646 C   0  0  0  0  0  0  0  0  0  0  0  0
  -17.0154   13.5518  -25.0928 C   0  0  0  0  0  0  0  0  0  0  0  0
  -17.3020   13.0431  -26.4620 C   0  0  0  0  0  0  0  0  0  0  0  0
  -16.3105   14.7366  -24.9127 C   0  0  0  0  0  0  0  0  0  0  0  0
  -15.8025   15.5705  -25.8391 N   0  0  0  0  0  0  0  0  0  0  0  0
  -15.2261   16.5537  -25.1658 C   0  0  0  0  0  0  0  0  0  0  0  0
  -15.3758   16.3288  -23.8510 N   0  0  0  0  0  0  0  0  0  0  0  0
  -16.0647   15.1762  -23.6607 N   0  0  0  0  0  0  0  0  0  0  0  0
  -16.4637   14.5326  -22.5775 C   0  0  0  0  0  0  0  0  0  0  0  0
  -19.9170   10.6408  -16.3213 C   0  0  0  0  0  0  0  0  0  0  0  0
  -20.0378   11.7949  -15.4157 C   0  0  0  0  0  0  0  0  0  0  0  0
  -20.4741   11.4030  -14.0355 C   0  0  0  0  0  0  0  0  0  0  0  0
  -21.0819   10.1211  -13.9036 N   0  0  0  0  0  0  0  0  0  0  0  0
  -20.7496    8.9932  -14.7596 C   0  0  0  0  0  0  0  0  0  0  0  0
  -19.4757    9.4169  -15.5202 C   0  0  0  0  0  0  0  0  0  0  0  0
  -22.0537    9.9224  -12.8666 C   0  0  0  0  0  0  0  0  0  0  0  0
  -22.3336   10.8622  -12.0687 O   0  0  0  0  0  0  0  0  0  0  0  0
  -22.7129    8.6225  -12.7547 C   0  0  0  0  0  0  0  0  0  0  0  0
  -23.7275    8.6455  -11.6643 C   0  0  0  0  0  0  0  0  0  0  0  0
  -23.2055    8.4552  -10.3343 N   0  0  0  0  0  0  0  0  0  0  0  0
  -22.2223    8.7605  -10.2521 H   0  0  0  0  0  0  0  0  0  0  0  0
  -24.0443    9.2504   -9.4404 C   0  0  0  0  0  0  0  0  0  0  0  0
  -25.5060    9.1454   -9.7585 C   0  0  0  0  0  0  0  0  0  0  0  0
  -26.4728    9.2493   -8.6027 C   0  0  0  0  0  0  0  0  0  0  0  0
  -26.3625   10.4034   -9.5412 C   0  0  0  0  0  0  0  0  0  0  0  0
  -20.8857   14.0583  -20.0600 C   0  0  0  0  0  0  0  0  0  0  0  0
  -19.4381   14.2703  -20.4393 C   0  0  0  0  0  0  0  0  0  0  0  0
  -19.1471   15.5186  -21.1444 C   0  0  0  0  0  0  0  0  0  0  0  0
 37 38  1  0  0  0
 38 39  1  0  0  0
 38  1  1  0  0  0
  1  2  2  0  0  0
  2  3  1  0  0  0
  3  4  1  0  0  0
  4  5  2  0  0  0
  5  6  1  0  0  0
  6  7  2  0  0  0
  7  8  1  0  0  0
  8  9  2  0  0  0
  7 21  1  0  0  0
 21 22  1  0  0  0
 22 23  1  0  0  0
 23 24  1  0  0  0
 24 25  1  0  0  0
 25 26  1  0  0  0
 24 27  1  0  0  0
 27 28  2  0  0  0
 27 29  1  0  0  0
 29 30  1  0  0  0
 30 31  1  0  0  0
 31 33  1  0  0  0
 33 34  1  0  0  0
 34 35  1  0  0  0
 35 36  1  0  0  0
  2 11  1  0  0  0
 11 12  1  0  0  0
 12 13  2  0  0  0
 13 14  1  0  0  0
 13 15  1  0  0  0
 15 16  2  0  0  0
 16 17  1  0  0  0
 17 18  2  0  0  0
 18 19  1  0  0  0
 19 20  1  0  0  0
  9  1  1  0  0  0
 26 21  1  0  0  0
 36 34  1  0  0  0
 20 11  2  0  0  0
  9  4  1  0  0  0
 19 15  1  0  0  0
  3 10  1  0  0  0
 31 32  1  0  0  0
M  END
> <minimizedAffinity>
-8.34306

> <CNNscore>
0.5836325288

> <CNNaffinity>
7.2382669449

> <CNN_VS>
4.2244882584

> <CNNaffinity_variance>
0.4515834451

$$$$
[H]c1nc2c(C([H])([H])[H])c([H])c(-c3c(C([H])(C([H])([H])[H])C([H])([H])[H])c4c([H])c(C5([H])C([H])([H])C([H])([H])N(C(=O)C([H])([H])C([H])([H])N([H])C([H])([H])C6([H])C([H])([H])C6([H])[H])C([H])([H])C5([H])[H])c([H])c([H])c4n3[H])c([H])n2n1


 39 44  0  0  0  0  0  0  0  0999 V2000
  -18.5031   13.1051  -20.4322 C   0  0  0  0  0  0  0  0  0  0  0  0
  -17.6126   12.7491  -21.3798 C   0  0  0  0  0  0  0  0  0  0  0  0
  -17.0384   11.5339  -21.0479 N   0  0  0  0  0  0  0  0  0  0  0  0
  -17.5579   11.1110  -19.9035 C   0  0  0  0  0  0  0  0  0  0  0  0
  -17.3284    9.9661  -19.1301 C   0  0  0  0  0  0  0  0  0  0  0  0
  -17.9948    9.7648  -17.9569 C   0  0  0  0  0  0  0  0  0  0  0  0
  -18.9193   10.6870  -17.4918 C   0  0  0  0  0  0  0  0  0  0  0  0
  -19.1245   11.8143  -18.2861 C   0  0  0  0  0  0  0  0  0  0  0  0
  -18.4623   12.0321  -19.4759 C   0  0  0  0  0  0  0  0  0  0  0  0
  -16.3209   11.0384  -21.6032 H   0  0  0  0  0  0  0  0  0  0  0  0
  -17.1936   13.4328  -22.6165 C   0  0  0  0  0  0  0  0  0  0  0  0
  -17.3871   12.9770  -23.8874 C   0  0  0  0  0  0  0  0  0  0  0  0
  -17.0257   13.6909  -25.0043 C   0  0  0  0  0  0  0  0  0  0  0  0
  -17.2496   13.1723  -26.3815 C   0  0  0  0  0  0  0  0  0  0  0  0
  -16.4349   14.9336  -24.8049 C   0  0  0  0  0  0  0  0  0  0  0  0
  -15.9961   15.8203  -25.7175 N   0  0  0  0  0  0  0  0  0  0  0  0
  -15.5199   16.8453  -25.0284 C   0  0  0  0  0  0  0  0  0  0  0  0
  -15.6622   16.5939  -23.7176 N   0  0  0  0  0  0  0  0  0  0  0  0
  -16.2439   15.3807  -23.5462 N   0  0  0  0  0  0  0  0  0  0  0  0
  -16.5933   14.6918  -22.4737 C   0  0  0  0  0  0  0  0  0  0  0  0
  -19.6561   10.4876  -16.2366 C   0  0  0  0  0  0  0  0  0  0  0  0
  -20.1392    9.1298  -15.9370 C   0  0  0  0  0  0  0  0  0  0  0  0
  -21.2366    9.1196  -14.9149 C   0  0  0  0  0  0  0  0  0  0  0  0
  -21.3661   10.2902  -14.1130 N   0  0  0  0  0  0  0  0  0  0  0  0
  -21.0132   11.6194  -14.5862 C   0  0  0  0  0  0  0  0  0  0  0  0
  -20.8162   11.4737  -16.1096 C   0  0  0  0  0  0  0  0  0  0  0  0
  -21.8871   10.1600  -12.7823 C   0  0  0  0  0  0  0  0  0  0  0  0
  -22.2536    9.0299  -12.3504 O   0  0  0  0  0  0  0  0  0  0  0  0
  -21.9805   11.3510  -11.9397 C   0  0  0  0  0  0  0  0  0  0  0  0
  -20.8779   11.3678  -10.9383 C   0  0  0  0  0  0  0  0  0  0  0  0
  -20.0440   10.1923  -10.9217 N   0  0  0  0  0  0  0  0  0  0  0  0
  -19.8977    9.8025  -11.8669 H   0  0  0  0  0  0  0  0  0  0  0  0
  -18.7611   10.6002  -10.3535 C   0  0  0  0  0  0  0  0  0  0  0  0
  -18.1564    9.5585   -9.4602 C   0  0  0  0  0  0  0  0  0  0  0  0
  -17.3357    8.4758  -10.1202 C   0  0  0  0  0  0  0  0  0  0  0  0
  -16.6234    9.5352   -9.3488 C   0  0  0  0  0  0  0  0  0  0  0  0
  -18.5004   15.3673  -19.2949 C   0  0  0  0  0  0  0  0  0  0  0  0
  -19.2279   14.3497  -20.1432 C   0  0  0  0  0  0  0  0  0  0  0  0
  -20.6883   14.4270  -20.1072 C   0  0  0  0  0  0  0  0  0  0  0  0
 37 38  1  0  0  0
 38 39  1  0  0  0
 38  1  1  0  0  0
  1  2  2  0  0  0
  2  3  1  0  0  0
  3  4  1  0  0  0
  4  5  2  0  0  0
  5  6  1  0  0  0
  6  7  2  0  0  0
  7  8  1  0  0  0
  8  9  2  0  0  0
  7 21  1  0  0  0
 21 22  1  0  0  0
 22 23  1  0  0  0
 23 24  1  0  0  0
 24 25  1  0  0  0
 25 26  1  0  0  0
 24 27  1  0  0  0
 27 28  2  0  0  0
 27 29  1  0  0  0
 29 30  1  0  0  0
 30 31  1  0  0  0
 31 33  1  0  0  0
 33 34  1  0  0  0
 34 35  1  0  0  0
 35 36  1  0  0  0
  2 11  1  0  0  0
 11 12  1  0  0  0
 12 13  2  0  0  0
 13 14  1  0  0  0
 13 15  1  0  0  0
 15 16  2  0  0  0
 16 17  1  0  0  0
 17 18  2  0  0  0
 18 19  1  0  0  0
 19 20  1  0  0  0
  9  1  1  0  0  0
 26 21  1  0  0  0
 36 34  1  0  0  0
 20 11  2  0  0  0
  9  4  1  0  0  0
 19 15  1  0  0  0
  3 10  1  0  0  0
 31 32  1  0  0  0
M  END
> <minimizedAffinity>
-9.72698

> <CNNscore>
0.5827221870

> <CNNaffinity>
7.4926347733

> <CNN_VS>
4.3661246300

> <CNNaffinity_variance>
0.1485634893

$$$$
[H]c1nc2c(C([H])([H])[H])c([H])c(-c3c(C([H])(C([H])([H])[H])C([H])([H])[H])c4c([H])c(C5([H])C([H])([H])C([H])([H])N(C(=O)C([H])([H])C([H])([H])N([H])C([H])([H])C6([H])C([H])([H])C6([H])[H])C([H])([H])C5([H])[H])c([H])c([H])c4n3[H])c([H])n2n1


 39 44  0  0  0  0  0  0  0  0999 V2000
  -18.2770   13.0870  -20.8209 C   0  0  0  0  0  0  0  0  0  0  0  0
  -17.4164   12.6281  -21.7517 C   0  0  0  0  0  0  0  0  0  0  0  0
  -16.9091   11.4027  -21.3547 N   0  0  0  0  0  0  0  0  0  0  0  0
  -17.4418   11.0751  -20.1854 C   0  0  0  0  0  0  0  0  0  0  0  0
  -17.2709    9.9641  -19.3498 C   0  0  0  0  0  0  0  0  0  0  0  0
  -17.9374    9.8674  -18.1635 C   0  0  0  0  0  0  0  0  0  0  0  0
  -18.8041   10.8655  -17.7462 C   0  0  0  0  0  0  0  0  0  0  0  0
  -18.9520   11.9563  -18.6018 C   0  0  0  0  0  0  0  0  0  0  0  0
  -18.2888   12.0688  -19.8057 C   0  0  0  0  0  0  0  0  0  0  0  0
  -16.2257   10.8367  -21.8850 H   0  0  0  0  0  0  0  0  0  0  0  0
  -16.9701   13.2163  -23.0273 C   0  0  0  0  0  0  0  0  0  0  0  0
  -17.3065   12.7743  -24.2731 C   0  0  0  0  0  0  0  0  0  0  0  0
  -16.9052   13.4033  -25.4268 C   0  0  0  0  0  0  0  0  0  0  0  0
  -17.2877   12.9023  -26.7753 C   0  0  0  0  0  0  0  0  0  0  0  0
  -16.1182   14.5417  -25.2933 C   0  0  0  0  0  0  0  0  0  0  0  0
  -15.6017   15.3329  -26.2519 N   0  0  0  0  0  0  0  0  0  0  0  0
  -14.9325   16.2826  -25.6176 C   0  0  0  0  0  0  0  0  0  0  0  0
  -15.0345   16.0794  -24.2948 N   0  0  0  0  0  0  0  0  0  0  0  0
  -15.7862   14.9753  -24.0593 N   0  0  0  0  0  0  0  0  0  0  0  0
  -16.1744   14.3683  -22.9514 C   0  0  0  0  0  0  0  0  0  0  0  0
  -19.5401   10.7793  -16.4778 C   0  0  0  0  0  0  0  0  0  0  0  0
  -20.1422    9.4833  -16.1247 C   0  0  0  0  0  0  0  0  0  0  0  0
  -21.2228    9.6104  -15.0926 C   0  0  0  0  0  0  0  0  0  0  0  0
  -21.2339   10.8154  -14.3324 N   0  0  0  0  0  0  0  0  0  0  0  0
  -20.7662   12.0889  -14.8567 C   0  0  0  0  0  0  0  0  0  0  0  0
  -20.6029   11.8721  -16.3756 C   0  0  0  0  0  0  0  0  0  0  0  0
  -21.7476   10.7808  -12.9930 C   0  0  0  0  0  0  0  0  0  0  0  0
  -22.2110    9.7052  -12.5171 O   0  0  0  0  0  0  0  0  0  0  0  0
  -21.7204   12.0042  -12.1932 C   0  0  0  0  0  0  0  0  0  0  0  0
  -23.0565   12.6627  -12.2037 C   0  0  0  0  0  0  0  0  0  0  0  0
  -23.0319   14.1035  -12.2347 N   0  0  0  0  0  0  0  0  0  0  0  0
  -23.1597   14.4769  -13.1891 H   0  0  0  0  0  0  0  0  0  0  0  0
  -24.1255   14.5568  -11.3781 C   0  0  0  0  0  0  0  0  0  0  0  0
  -23.6500   15.2398  -10.1306 C   0  0  0  0  0  0  0  0  0  0  0  0
  -24.6967   15.8966   -9.2621 C   0  0  0  0  0  0  0  0  0  0  0  0
  -24.0782   14.6246   -8.7884 C   0  0  0  0  0  0  0  0  0  0  0  0
  -18.0748   15.4634  -19.9705 C   0  0  0  0  0  0  0  0  0  0  0  0
  -18.9276   14.3852  -20.5988 C   0  0  0  0  0  0  0  0  0  0  0  0
  -20.3700   14.5257  -20.3993 C   0  0  0  0  0  0  0  0  0  0  0  0
 37 38  1  0  0  0
 38 39  1  0  0  0
 38  1  1  0  0  0
  1  2  2  0  0  0
  2  3  1  0  0  0
  3  4  1  0  0  0
  4  5  2  0  0  0
  5  6  1  0  0  0
  6  7  2  0  0  0
  7  8  1  0  0  0
  8  9  2  0  0  0
  7 21  1  0  0  0
 21 22  1  0  0  0
 22 23  1  0  0  0
 23 24  1  0  0  0
 24 25  1  0  0  0
 25 26  1  0  0  0
 24 27  1  0  0  0
 27 28  2  0  0  0
 27 29  1  0  0  0
 29 30  1  0  0  0
 30 31  1  0  0  0
 31 33  1  0  0  0
 33 34  1  0  0  0
 34 35  1  0  0  0
 35 36  1  0  0  0
  2 11  1  0  0  0
 11 12  1  0  0  0
 12 13  2  0  0  0
 13 14  1  0  0  0
 13 15  1  0  0  0
 15 16  2  0  0  0
 16 17  1  0  0  0
 17 18  2  0  0  0
 18 19  1  0  0  0
 19 20  1  0  0  0
  9  1  1  0  0  0
 26 21  1  0  0  0
 36 34  1  0  0  0
 20 11  2  0  0  0
  9  4  1  0  0  0
 19 15  1  0  0  0
  3 10  1  0  0  0
 31 32  1  0  0  0
M  END
> <minimizedAffinity>
-8.87433

> <CNNscore>
0.5623641014

> <CNNaffinity>
7.3405561447

> <CNN_VS>
4.1280651093

> <CNNaffinity_variance>
0.1800940931

$$$$
[H]c1nc2c(C([H])([H])[H])c([H])c(-c3c(C([H])(C([H])([H])[H])C([H])([H])[H])c4c([H])c(C5([H])C([H])([H])C([H])([H])N(C(=O)C([H])([H])C([H])([H])N([H])C([H])([H])C6([H])C([H])([H])C6([H])[H])C([H])([H])C5([H])[H])c([H])c([H])c4n3[H])c([H])n2n1


 39 44  0  0  0  0  0  0  0  0999 V2000
  -18.1548   13.3865  -21.0933 C   0  0  0  0  0  0  0  0  0  0  0  0
  -17.3940   13.1629  -22.1836 C   0  0  0  0  0  0  0  0  0  0  0  0
  -16.7509   11.9429  -22.0620 N   0  0  0  0  0  0  0  0  0  0  0  0
  -17.0989   11.3864  -20.9098 C   0  0  0  0  0  0  0  0  0  0  0  0
  -16.7386   10.1781  -20.2998 C   0  0  0  0  0  0  0  0  0  0  0  0
  -17.2334    9.8333  -19.0762 C   0  0  0  0  0  0  0  0  0  0  0  0
  -18.1074   10.6676  -18.3967 C   0  0  0  0  0  0  0  0  0  0  0  0
  -18.4460   11.8613  -19.0324 C   0  0  0  0  0  0  0  0  0  0  0  0
  -17.9581   12.2241  -20.2701 C   0  0  0  0  0  0  0  0  0  0  0  0
  -16.1045   11.5342  -22.7574 H   0  0  0  0  0  0  0  0  0  0  0  0
  -17.1644   13.9845  -23.3856 C   0  0  0  0  0  0  0  0  0  0  0  0
  -16.9455   15.3306  -23.4046 C   0  0  0  0  0  0  0  0  0  0  0  0
  -16.6779   16.0317  -24.5555 C   0  0  0  0  0  0  0  0  0  0  0  0
  -16.4401   17.5011  -24.5497 C   0  0  0  0  0  0  0  0  0  0  0  0
  -16.6348   15.3140  -25.7455 C   0  0  0  0  0  0  0  0  0  0  0  0
  -16.3946   15.7556  -26.9941 N   0  0  0  0  0  0  0  0  0  0  0  0
  -16.4611   14.6892  -27.7756 C   0  0  0  0  0  0  0  0  0  0  0  0
  -16.7375   13.6129  -27.0229 N   0  0  0  0  0  0  0  0  0  0  0  0
  -16.8532   13.9825  -25.7231 N   0  0  0  0  0  0  0  0  0  0  0  0
  -17.1097   13.3109  -24.6141 C   0  0  0  0  0  0  0  0  0  0  0  0
  -18.6608   10.3135  -17.0827 C   0  0  0  0  0  0  0  0  0  0  0  0
  -18.7215    8.8858  -16.7298 C   0  0  0  0  0  0  0  0  0  0  0  0
  -19.6907    8.6058  -15.6202 C   0  0  0  0  0  0  0  0  0  0  0  0
  -20.0796    9.7206  -14.8226 N   0  0  0  0  0  0  0  0  0  0  0  0
  -20.1488   11.0791  -15.3374 C   0  0  0  0  0  0  0  0  0  0  0  0
  -20.0365   10.9431  -16.8703 C   0  0  0  0  0  0  0  0  0  0  0  0
  -20.4399    9.4954  -13.4520 C   0  0  0  0  0  0  0  0  0  0  0  0
  -20.4423    8.3229  -12.9794 O   0  0  0  0  0  0  0  0  0  0  0  0
  -20.7968   10.6411  -12.6171 C   0  0  0  0  0  0  0  0  0  0  0  0
  -20.1383   10.5395  -11.2849 C   0  0  0  0  0  0  0  0  0  0  0  0
  -18.7266   10.2502  -11.3170 N   0  0  0  0  0  0  0  0  0  0  0  0
  -18.2264   10.8180  -12.0198 H   0  0  0  0  0  0  0  0  0  0  0  0
  -18.2100   10.5503   -9.9835 C   0  0  0  0  0  0  0  0  0  0  0  0
  -17.7635    9.3282   -9.2378 C   0  0  0  0  0  0  0  0  0  0  0  0
  -17.0510    8.2583  -10.0306 C   0  0  0  0  0  0  0  0  0  0  0  0
  -16.2486    9.1052   -9.1012 C   0  0  0  0  0  0  0  0  0  0  0  0
  -18.0393   15.5434  -19.7719 C   0  0  0  0  0  0  0  0  0  0  0  0
  -18.8628   14.5668  -20.5798 C   0  0  0  0  0  0  0  0  0  0  0  0
  -20.2989   14.5714  -20.3014 C   0  0  0  0  0  0  0  0  0  0  0  0
 37 38  1  0  0  0
 38 39  1  0  0  0
 38  1  1  0  0  0
  1  2  2  0  0  0
  2  3  1  0  0  0
  3  4  1  0  0  0
  4  5  2  0  0  0
  5  6  1  0  0  0
  6  7  2  0  0  0
  7  8  1  0  0  0
  8  9  2  0  0  0
  7 21  1  0  0  0
 21 22  1  0  0  0
 22 23  1  0  0  0
 23 24  1  0  0  0
 24 25  1  0  0  0
 25 26  1  0  0  0
 24 27  1  0  0  0
 27 28  2  0  0  0
 27 29  1  0  0  0
 29 30  1  0  0  0
 30 31  1  0  0  0
 31 33  1  0  0  0
 33 34  1  0  0  0
 34 35  1  0  0  0
 35 36  1  0  0  0
  2 11  1  0  0  0
 11 12  1  0  0  0
 12 13  2  0  0  0
 13 14  1  0  0  0
 13 15  1  0  0  0
 15 16  2  0  0  0
 16 17  1  0  0  0
 17 18  2  0  0  0
 18 19  1  0  0  0
 19 20  1  0  0  0
  9  1  1  0  0  0
 26 21  1  0  0  0
 36 34  1  0  0  0
 20 11  2  0  0  0
  9  4  1  0  0  0
 19 15  1  0  0  0
  3 10  1  0  0  0
 31 32  1  0  0  0
M  END
> <minimizedAffinity>
-10.31207

> <CNNscore>
0.5428792834

> <CNNaffinity>
7.4760727882

> <CNN_VS>
4.0586051941

> <CNNaffinity_variance>
0.1382599771

$$$$
[H]c1nc2c(C([H])([H])[H])c([H])c(-c3c(C([H])(C([H])([H])[H])C([H])([H])[H])c4c([H])c(C5([H])C([H])([H])C([H])([H])N(C(=O)C([H])([H])C([H])([H])N([H])C([H])([H])C6([H])C([H])([H])C6([H])[H])C([H])([H])C5([H])[H])c([H])c([H])c4n3[H])c([H])n2n1


 39 44  0  0  0  0  0  0  0  0999 V2000
  -18.2444   13.0130  -21.0422 C   0  0  0  0  0  0  0  0  0  0  0  0
  -17.2787   12.5330  -21.8513 C   0  0  0  0  0  0  0  0  0  0  0  0
  -16.7661   11.3608  -21.3222 N   0  0  0  0  0  0  0  0  0  0  0  0
  -17.3989   11.0875  -20.1894 C   0  0  0  0  0  0  0  0  0  0  0  0
  -17.2687   10.0432  -19.2652 C   0  0  0  0  0  0  0  0  0  0  0  0
  -18.0452    9.9950  -18.1446 C   0  0  0  0  0  0  0  0  0  0  0  0
  -18.9870   10.9783  -17.8838 C   0  0  0  0  0  0  0  0  0  0  0  0
  -19.0915   12.0022  -18.8243 C   0  0  0  0  0  0  0  0  0  0  0  0
  -18.3172   12.0647  -19.9637 C   0  0  0  0  0  0  0  0  0  0  0  0
  -16.0122   10.7926  -21.7432 H   0  0  0  0  0  0  0  0  0  0  0  0
  -16.7313   13.0551  -23.1163 C   0  0  0  0  0  0  0  0  0  0  0  0
  -17.2890   12.9044  -24.3518 C   0  0  0  0  0  0  0  0  0  0  0  0
  -16.7602   13.4673  -25.4881 C   0  0  0  0  0  0  0  0  0  0  0  0
  -17.3894   13.2900  -26.8255 C   0  0  0  0  0  0  0  0  0  0  0  0
  -15.6002   14.2208  -25.3476 C   0  0  0  0  0  0  0  0  0  0  0  0
  -14.8917   14.8707  -26.2896 N   0  0  0  0  0  0  0  0  0  0  0  0
  -13.8777   15.4375  -25.6549 C   0  0  0  0  0  0  0  0  0  0  0  0
  -13.9602   15.1416  -24.3484 N   0  0  0  0  0  0  0  0  0  0  0  0
  -15.0504   14.3666  -24.1240 N   0  0  0  0  0  0  0  0  0  0  0  0
  -15.5620   13.8243  -23.0326 C   0  0  0  0  0  0  0  0  0  0  0  0
  -19.8411   10.9428  -16.6891 C   0  0  0  0  0  0  0  0  0  0  0  0
  -19.7198   12.0528  -15.7300 C   0  0  0  0  0  0  0  0  0  0  0  0
  -20.2608   11.7069  -14.3748 C   0  0  0  0  0  0  0  0  0  0  0  0
  -21.1420   10.5892  -14.3111 N   0  0  0  0  0  0  0  0  0  0  0  0
  -21.0524    9.4552  -15.2173 C   0  0  0  0  0  0  0  0  0  0  0  0
  -19.7008    9.6165  -15.9439 C   0  0  0  0  0  0  0  0  0  0  0  0
  -22.1547   10.5668  -13.2946 C   0  0  0  0  0  0  0  0  0  0  0  0
  -22.2341   11.5085  -12.4550 O   0  0  0  0  0  0  0  0  0  0  0  0
  -23.0897    9.4438  -13.2524 C   0  0  0  0  0  0  0  0  0  0  0  0
  -24.4303    9.8638  -13.7476 C   0  0  0  0  0  0  0  0  0  0  0  0
  -24.4295   10.9958  -14.6399 N   0  0  0  0  0  0  0  0  0  0  0  0
  -24.5400   10.7158  -15.6278 H   0  0  0  0  0  0  0  0  0  0  0  0
  -25.5516   11.8419  -14.2395 C   0  0  0  0  0  0  0  0  0  0  0  0
  -26.4684   11.1757  -13.2574 C   0  0  0  0  0  0  0  0  0  0  0  0
  -27.4423   12.0590  -12.5142 C   0  0  0  0  0  0  0  0  0  0  0  0
  -27.9690   11.1716  -13.5912 C   0  0  0  0  0  0  0  0  0  0  0  0
  -20.3414   14.2547  -20.3554 C   0  0  0  0  0  0  0  0  0  0  0  0
  -18.9635   14.2922  -20.9754 C   0  0  0  0  0  0  0  0  0  0  0  0
  -18.7250   15.3861  -21.9169 C   0  0  0  0  0  0  0  0  0  0  0  0
 37 38  1  0  0  0
 38 39  1  0  0  0
 38  1  1  0  0  0
  1  2  2  0  0  0
  2  3  1  0  0  0
  3  4  1  0  0  0
  4  5  2  0  0  0
  5  6  1  0  0  0
  6  7  2  0  0  0
  7  8  1  0  0  0
  8  9  2  0  0  0
  7 21  1  0  0  0
 21 22  1  0  0  0
 22 23  1  0  0  0
 23 24  1  0  0  0
 24 25  1  0  0  0
 25 26  1  0  0  0
 24 27  1  0  0  0
 27 28  2  0  0  0
 27 29  1  0  0  0
 29 30  1  0  0  0
 30 31  1  0  0  0
 31 33  1  0  0  0
 33 34  1  0  0  0
 34 35  1  0  0  0
 35 36  1  0  0  0
  2 11  1  0  0  0
 11 12  1  0  0  0
 12 13  2  0  0  0
 13 14  1  0  0  0
 13 15  1  0  0  0
 15 16  2  0  0  0
 16 17  1  0  0  0
 17 18  2  0  0  0
 18 19  1  0  0  0
 19 20  1  0  0  0
  9  1  1  0  0  0
 26 21  1  0  0  0
 36 34  1  0  0  0
 20 11  2  0  0  0
  9  4  1  0  0  0
 19 15  1  0  0  0
  3 10  1  0  0  0
 31 32  1  0  0  0
M  END
> <minimizedAffinity>
-8.57685

> <CNNscore>
0.4890012443

> <CNNaffinity>
7.3767538071

> <CNN_VS>
3.6072418690

> <CNNaffinity_variance>
0.2650297284

$$$$
[H]c1nc2c(C([H])([H])[H])c([H])c(-c3c(C([H])(C([H])([H])[H])C([H])([H])[H])c4c([H])c(C5([H])C([H])([H])C([H])([H])N(C(=O)C([H])([H])C([H])([H])N([H])C([H])([H])C6([H])C([H])([H])C6([H])[H])C([H])([H])C5([H])[H])c([H])c([H])c4n3[H])c([H])n2n1


 39 44  0  0  0  0  0  0  0  0999 V2000
  -18.9469   13.0003  -19.2898 C   0  0  0  0  0  0  0  0  0  0  0  0
  -17.8844   12.7814  -20.0903 C   0  0  0  0  0  0  0  0  0  0  0  0
  -17.3130   11.5583  -19.7838 N   0  0  0  0  0  0  0  0  0  0  0  0
  -18.0035   10.9950  -18.8018 C   0  0  0  0  0  0  0  0  0  0  0  0
  -17.8530    9.7813  -18.1192 C   0  0  0  0  0  0  0  0  0  0  0  0
  -18.7050    9.4298  -17.1135 C   0  0  0  0  0  0  0  0  0  0  0  0
  -19.7462   10.2626  -16.7339 C   0  0  0  0  0  0  0  0  0  0  0  0
  -19.8682   11.4619  -17.4343 C   0  0  0  0  0  0  0  0  0  0  0  0
  -19.0182   11.8314  -18.4554 C   0  0  0  0  0  0  0  0  0  0  0  0
  -16.4825   11.1520  -20.2462 H   0  0  0  0  0  0  0  0  0  0  0  0
  -17.2905   13.6104  -21.1545 C   0  0  0  0  0  0  0  0  0  0  0  0
  -17.0870   14.9580  -21.0991 C   0  0  0  0  0  0  0  0  0  0  0  0
  -16.4723   15.6665  -22.1030 C   0  0  0  0  0  0  0  0  0  0  0  0
  -16.2597   17.1373  -22.0177 C   0  0  0  0  0  0  0  0  0  0  0  0
  -16.0475   14.9551  -23.2194 C   0  0  0  0  0  0  0  0  0  0  0  0
  -15.4258   15.4044  -24.3255 N   0  0  0  0  0  0  0  0  0  0  0  0
  -15.2322   14.3417  -25.0905 C   0  0  0  0  0  0  0  0  0  0  0  0
  -15.7258   13.2599  -24.4679 N   0  0  0  0  0  0  0  0  0  0  0  0
  -16.2517   13.6222  -23.2714 N   0  0  0  0  0  0  0  0  0  0  0  0
  -16.8427   12.9434  -22.3036 C   0  0  0  0  0  0  0  0  0  0  0  0
  -20.6820    9.9015  -15.6607 C   0  0  0  0  0  0  0  0  0  0  0  0
  -21.8847   10.7339  -15.4949 C   0  0  0  0  0  0  0  0  0  0  0  0
  -22.5095   10.5828  -14.1400 C   0  0  0  0  0  0  0  0  0  0  0  0
  -22.1389    9.4247  -13.3973 N   0  0  0  0  0  0  0  0  0  0  0  0
  -20.8392    8.7840  -13.5222 C   0  0  0  0  0  0  0  0  0  0  0  0
  -19.9664    9.7781  -14.3165 C   0  0  0  0  0  0  0  0  0  0  0  0
  -23.0810    8.8719  -12.4667 C   0  0  0  0  0  0  0  0  0  0  0  0
  -24.2024    9.4283  -12.2906 O   0  0  0  0  0  0  0  0  0  0  0  0
  -22.7231    7.6582  -11.7348 C   0  0  0  0  0  0  0  0  0  0  0  0
  -23.9361    7.0352  -11.1352 C   0  0  0  0  0  0  0  0  0  0  0  0
  -24.9344    6.5995  -12.0792 N   0  0  0  0  0  0  0  0  0  0  0  0
  -24.6748    5.7140  -12.5429 H   0  0  0  0  0  0  0  0  0  0  0  0
  -26.1705    6.4148  -11.3221 C   0  0  0  0  0  0  0  0  0  0  0  0
  -26.3841    7.4714  -10.2796 C   0  0  0  0  0  0  0  0  0  0  0  0
  -27.3040    8.6153  -10.6352 C   0  0  0  0  0  0  0  0  0  0  0  0
  -27.7930    7.5842   -9.6748 C   0  0  0  0  0  0  0  0  0  0  0  0
  -20.8436   14.5028  -20.0356 C   0  0  0  0  0  0  0  0  0  0  0  0
  -19.7781   14.1796  -19.0135 C   0  0  0  0  0  0  0  0  0  0  0  0
  -19.3096   15.3099  -18.2119 C   0  0  0  0  0  0  0  0  0  0  0  0
 37 38  1  0  0  0
 38 39  1  0  0  0
 38  1  1  0  0  0
  1  2  2  0  0  0
  2  3  1  0  0  0
  3  4  1  0  0  0
  4  5  2  0  0  0
  5  6  1  0  0  0
  6  7  2  0  0  0
  7  8  1  0  0  0
  8  9  2  0  0  0
  7 21  1  0  0  0
 21 22  1  0  0  0
 22 23  1  0  0  0
 23 24  1  0  0  0
 24 25  1  0  0  0
 25 26  1  0  0  0
 24 27  1  0  0  0
 27 28  2  0  0  0
 27 29  1  0  0  0
 29 30  1  0  0  0
 30 31  1  0  0  0
 31 33  1  0  0  0
 33 34  1  0  0  0
 34 35  1  0  0  0
 35 36  1  0  0  0
  2 11  1  0  0  0
 11 12  1  0  0  0
 12 13  2  0  0  0
 13 14  1  0  0  0
 13 15  1  0  0  0
 15 16  2  0  0  0
 16 17  1  0  0  0
 17 18  2  0  0  0
 18 19  1  0  0  0
 19 20  1  0  0  0
  9  1  1  0  0  0
 26 21  1  0  0  0
 36 34  1  0  0  0
 20 11  2  0  0  0
  9  4  1  0  0  0
 19 15  1  0  0  0
  3 10  1  0  0  0
 31 32  1  0  0  0
M  END
> <minimizedAffinity>
-7.94866

> <CNNscore>
0.4540964961

> <CNNaffinity>
6.9791655540

> <CNN_VS>
3.1692147255

> <CNNaffinity_variance>
0.4057558179

$$$$
[H]c1nc2c(C([H])([H])[H])c([H])c(-c3c(C([H])(C([H])([H])[H])C([H])([H])[H])c4c([H])c(C5([H])C([H])([H])C([H])([H])N(C(=O)C([H])([H])C([H])([H])N([H])C([H])([H])C6([H])C([H])([H])C6([H])[H])C([H])([H])C5([H])[H])c([H])c([H])c4n3[H])c([H])n2n1


 39 44  0  0  0  0  0  0  0  0999 V2000
  -17.7344   12.1239  -19.4983 C   0  0  0  0  0  0  0  0  0  0  0  0
  -18.1388   13.2188  -20.1731 C   0  0  0  0  0  0  0  0  0  0  0  0
  -19.3071   13.7071  -19.6135 N   0  0  0  0  0  0  0  0  0  0  0  0
  -19.6466   12.9385  -18.5876 C   0  0  0  0  0  0  0  0  0  0  0  0
  -20.7251   12.9799  -17.6951 C   0  0  0  0  0  0  0  0  0  0  0  0
  -20.8608   12.0437  -16.7122 C   0  0  0  0  0  0  0  0  0  0  0  0
  -19.9367   11.0209  -16.5658 C   0  0  0  0  0  0  0  0  0  0  0  0
  -18.8753   11.0098  -17.4696 C   0  0  0  0  0  0  0  0  0  0  0  0
  -18.7209   11.9498  -18.4667 C   0  0  0  0  0  0  0  0  0  0  0  0
  -19.8290   14.5361  -19.9437 H   0  0  0  0  0  0  0  0  0  0  0  0
  -17.5559   13.9027  -21.3414 C   0  0  0  0  0  0  0  0  0  0  0  0
  -17.1867   15.2144  -21.3984 C   0  0  0  0  0  0  0  0  0  0  0  0
  -16.5920   15.7800  -22.5004 C   0  0  0  0  0  0  0  0  0  0  0  0
  -16.1959   17.2144  -22.5371 C   0  0  0  0  0  0  0  0  0  0  0  0
  -16.3675   14.9570  -23.5982 C   0  0  0  0  0  0  0  0  0  0  0  0
  -15.8072   15.2590  -24.7842 N   0  0  0  0  0  0  0  0  0  0  0  0
  -15.8192   14.1378  -25.4878 C   0  0  0  0  0  0  0  0  0  0  0  0
  -16.3766   13.1652  -24.7496 N   0  0  0  0  0  0  0  0  0  0  0  0
  -16.7353   13.6600  -23.5388 N   0  0  0  0  0  0  0  0  0  0  0  0
  -17.3066   13.1188  -22.4769 C   0  0  0  0  0  0  0  0  0  0  0  0
  -20.0564   10.0071  -15.5094 C   0  0  0  0  0  0  0  0  0  0  0  0
  -19.7520   10.4197  -14.1296 C   0  0  0  0  0  0  0  0  0  0  0  0
  -19.4557    9.2563  -13.2308 C   0  0  0  0  0  0  0  0  0  0  0  0
  -19.8920    7.9782  -13.6847 N   0  0  0  0  0  0  0  0  0  0  0  0
  -19.9881    7.6263  -15.0927 C   0  0  0  0  0  0  0  0  0  0  0  0
  -19.2525    8.7527  -15.8482 C   0  0  0  0  0  0  0  0  0  0  0  0
  -20.2351    6.9811  -12.7114 C   0  0  0  0  0  0  0  0  0  0  0  0
  -20.1167    7.2295  -11.4775 O   0  0  0  0  0  0  0  0  0  0  0  0
  -20.7255    5.6831  -13.1712 C   0  0  0  0  0  0  0  0  0  0  0  0
  -20.4729    4.6367  -12.1416 C   0  0  0  0  0  0  0  0  0  0  0  0
  -21.5026    3.6360  -12.0159 N   0  0  0  0  0  0  0  0  0  0  0  0
  -21.7195    3.4190  -11.0298 H   0  0  0  0  0  0  0  0  0  0  0  0
  -22.6903    4.1762  -12.6738 C   0  0  0  0  0  0  0  0  0  0  0  0
  -23.5323    3.1203  -13.3255 C   0  0  0  0  0  0  0  0  0  0  0  0
  -23.8527    1.8914  -12.5079 C   0  0  0  0  0  0  0  0  0  0  0  0
  -24.9370    2.8876  -12.7459 C   0  0  0  0  0  0  0  0  0  0  0  0
  -17.1446    9.9539  -20.6622 C   0  0  0  0  0  0  0  0  0  0  0  0
  -16.7229   11.0914  -19.7606 C   0  0  0  0  0  0  0  0  0  0  0  0
  -15.6394   10.7871  -18.8262 C   0  0  0  0  0  0  0  0  0  0  0  0
 37 38  1  0  0  0
 38 39  1  0  0  0
 38  1  1  0  0  0
  1  2  2  0  0  0
  2  3  1  0  0  0
  3  4  1  0  0  0
  4  5  2  0  0  0
  5  6  1  0  0  0
  6  7  2  0  0  0
  7  8  1  0  0  0
  8  9  2  0  0  0
  7 21  1  0  0  0
 21 22  1  0  0  0
 22 23  1  0  0  0
 23 24  1  0  0  0
 24 25  1  0  0  0
 25 26  1  0  0  0
 24 27  1  0  0  0
 27 28  2  0  0  0
 27 29  1  0  0  0
 29 30  1  0  0  0
 30 31  1  0  0  0
 31 33  1  0  0  0
 33 34  1  0  0  0
 34 35  1  0  0  0
 35 36  1  0  0  0
  2 11  1  0  0  0
 11 12  1  0  0  0
 12 13  2  0  0  0
 13 14  1  0  0  0
 13 15  1  0  0  0
 15 16  2  0  0  0
 16 17  1  0  0  0
 17 18  2  0  0  0
 18 19  1  0  0  0
 19 20  1  0  0  0
  9  1  1  0  0  0
 26 21  1  0  0  0
 36 34  1  0  0  0
 20 11  2  0  0  0
  9  4  1  0  0  0
 19 15  1  0  0  0
  3 10  1  0  0  0
 31 32  1  0  0  0
M  END
> <minimizedAffinity>
-7.90083

> <CNNscore>
0.4416951537

> <CNNaffinity>
6.9601569176

> <CNN_VS>
3.0742676258

> <CNNaffinity_variance>
0.1452905536

$$$$
[H]c1nc2c(C([H])([H])[H])c([H])c(-c3c(C([H])(C([H])([H])[H])C([H])([H])[H])c4c([H])c(C5([H])C([H])([H])C([H])([H])N(C(=O)C([H])([H])C([H])([H])N([H])C([H])([H])C6([H])C([H])([H])C6([H])[H])C([H])([H])C5([H])[H])c([H])c([H])c4n3[H])c([H])n2n1


 39 44  0  0  0  0  0  0  0  0999 V2000
  -17.6966   12.2967  -20.2077 C   0  0  0  0  0  0  0  0  0  0  0  0
  -18.0420   13.1844  -21.1618 C   0  0  0  0  0  0  0  0  0  0  0  0
  -19.1731   13.8781  -20.7667 N   0  0  0  0  0  0  0  0  0  0  0  0
  -19.5469   13.4454  -19.5703 C   0  0  0  0  0  0  0  0  0  0  0  0
  -20.6115   13.7972  -18.7309 C   0  0  0  0  0  0  0  0  0  0  0  0
  -20.7924   13.1795  -17.5281 C   0  0  0  0  0  0  0  0  0  0  0  0
  -19.9296   12.1833  -17.0984 C   0  0  0  0  0  0  0  0  0  0  0  0
  -18.8804   11.8585  -17.9571 C   0  0  0  0  0  0  0  0  0  0  0  0
  -18.6807   12.4747  -19.1745 C   0  0  0  0  0  0  0  0  0  0  0  0
  -19.6479   14.6133  -21.3168 H   0  0  0  0  0  0  0  0  0  0  0  0
  -17.4318   13.4818  -22.4701 C   0  0  0  0  0  0  0  0  0  0  0  0
  -17.7047   12.8428  -23.6438 C   0  0  0  0  0  0  0  0  0  0  0  0
  -17.1453   13.2070  -24.8447 C   0  0  0  0  0  0  0  0  0  0  0  0
  -17.4613   12.4948  -26.1131 C   0  0  0  0  0  0  0  0  0  0  0  0
  -16.2607   14.2796  -24.8385 C   0  0  0  0  0  0  0  0  0  0  0  0
  -15.5872   14.8295  -25.8659 N   0  0  0  0  0  0  0  0  0  0  0  0
  -14.8810   15.8219  -25.3477 C   0  0  0  0  0  0  0  0  0  0  0  0
  -15.1147   15.8810  -24.0273 N   0  0  0  0  0  0  0  0  0  0  0  0
  -15.9920   14.9085  -23.6752 N   0  0  0  0  0  0  0  0  0  0  0  0
  -16.5323   14.5562  -22.5217 C   0  0  0  0  0  0  0  0  0  0  0  0
  -20.0984   11.5106  -15.8034 C   0  0  0  0  0  0  0  0  0  0  0  0
  -19.9634   10.0451  -15.7727 C   0  0  0  0  0  0  0  0  0  0  0  0
  -20.5908    9.4327  -14.5561 C   0  0  0  0  0  0  0  0  0  0  0  0
  -20.8398   10.3106  -13.4619 N   0  0  0  0  0  0  0  0  0  0  0  0
  -21.1368   11.7244  -13.6303 C   0  0  0  0  0  0  0  0  0  0  0  0
  -21.4143   11.9086  -15.1369 C   0  0  0  0  0  0  0  0  0  0  0  0
  -20.8172    9.7761  -12.1303 C   0  0  0  0  0  0  0  0  0  0  0  0
  -20.6134    8.5426  -11.9434 O   0  0  0  0  0  0  0  0  0  0  0  0
  -21.0279   10.6808  -11.0015 C   0  0  0  0  0  0  0  0  0  0  0  0
  -19.8769   10.6129  -10.0583 C   0  0  0  0  0  0  0  0  0  0  0  0
  -18.5777   10.5366  -10.6777 N   0  0  0  0  0  0  0  0  0  0  0  0
  -18.3589   11.3788  -11.2339 H   0  0  0  0  0  0  0  0  0  0  0  0
  -17.6076   10.3967   -9.5939 C   0  0  0  0  0  0  0  0  0  0  0  0
  -17.5245    8.9991   -9.0568 C   0  0  0  0  0  0  0  0  0  0  0  0
  -17.0581    7.9216  -10.0069 C   0  0  0  0  0  0  0  0  0  0  0  0
  -16.1239    8.3768   -8.9369 C   0  0  0  0  0  0  0  0  0  0  0  0
  -15.9976   10.9772  -18.8722 C   0  0  0  0  0  0  0  0  0  0  0  0
  -16.7515   11.1728  -20.1675 C   0  0  0  0  0  0  0  0  0  0  0  0
  -16.0974   10.6435  -21.3641 C   0  0  0  0  0  0  0  0  0  0  0  0
 37 38  1  0  0  0
 38 39  1  0  0  0
 38  1  1  0  0  0
  1  2  2  0  0  0
  2  3  1  0  0  0
  3  4  1  0  0  0
  4  5  2  0  0  0
  5  6  1  0  0  0
  6  7  2  0  0  0
  7  8  1  0  0  0
  8  9  2  0  0  0
  7 21  1  0  0  0
 21 22  1  0  0  0
 22 23  1  0  0  0
 23 24  1  0  0  0
 24 25  1  0  0  0
 25 26  1  0  0  0
 24 27  1  0  0  0
 27 28  2  0  0  0
 27 29  1  0  0  0
 29 30  1  0  0  0
 30 31  1  0  0  0
 31 33  1  0  0  0
 33 34  1  0  0  0
 34 35  1  0  0  0
 35 36  1  0  0  0
  2 11  1  0  0  0
 11 12  1  0  0  0
 12 13  2  0  0  0
 13 14  1  0  0  0
 13 15  1  0  0  0
 15 16  2  0  0  0
 16 17  1  0  0  0
 17 18  2  0  0  0
 18 19  1  0  0  0
 19 20  1  0  0  0
  9  1  1  0  0  0
 26 21  1  0  0  0
 36 34  1  0  0  0
 20 11  2  0  0  0
  9  4  1  0  0  0
 19 15  1  0  0  0
  3 10  1  0  0  0
 31 32  1  0  0  0
M  END
> <minimizedAffinity>
-9.94785

> <CNNscore>
0.4364843965

> <CNNaffinity>
7.0341959000

> <CNN_VS>
3.0703167915

> <CNNaffinity_variance>
0.1057353467

$$$$
[H]c1nc2c(C([H])([H])[H])c([H])c(-c3c(C([H])(C([H])([H])[H])C([H])([H])[H])c4c([H])c(C5([H])C([H])([H])C([H])([H])N(C(=O)C([H])([H])C([H])([H])N([H])C([H])([H])C6([H])C([H])([H])C6([H])[H])C([H])([H])C5([H])[H])c([H])c([H])c4n3[H])c([H])n2n1


 39 44  0  0  0  0  0  0  0  0999 V2000
  -18.0961   13.4778  -20.4742 C   0  0  0  0  0  0  0  0  0  0  0  0
  -17.2600   13.3058  -21.5177 C   0  0  0  0  0  0  0  0  0  0  0  0
  -16.7516   12.0182  -21.5012 N   0  0  0  0  0  0  0  0  0  0  0  0
  -17.2594   11.3686  -20.4628 C   0  0  0  0  0  0  0  0  0  0  0  0
  -17.0765   10.0646  -19.9854 C   0  0  0  0  0  0  0  0  0  0  0  0
  -17.7164    9.6311  -18.8612 C   0  0  0  0  0  0  0  0  0  0  0  0
  -18.5669   10.4671  -18.1546 C   0  0  0  0  0  0  0  0  0  0  0  0
  -18.7273   11.7575  -18.6575 C   0  0  0  0  0  0  0  0  0  0  0  0
  -18.0912   12.2111  -19.7938 C   0  0  0  0  0  0  0  0  0  0  0  0
  -16.0841   11.6285  -22.1877 H   0  0  0  0  0  0  0  0  0  0  0  0
  -16.8392   14.2356  -22.5811 C   0  0  0  0  0  0  0  0  0  0  0  0
  -17.3394   15.4865  -22.7939 C   0  0  0  0  0  0  0  0  0  0  0  0
  -16.8626   16.3303  -23.7679 C   0  0  0  0  0  0  0  0  0  0  0  0
  -17.4241   17.6926  -23.9788 C   0  0  0  0  0  0  0  0  0  0  0  0
  -15.8216   15.8645  -24.5631 C   0  0  0  0  0  0  0  0  0  0  0  0
  -15.1821   16.4847  -25.5721 N   0  0  0  0  0  0  0  0  0  0  0  0
  -14.2714   15.6278  -26.0063 C   0  0  0  0  0  0  0  0  0  0  0  0
  -14.3495   14.5022  -25.2793 N   0  0  0  0  0  0  0  0  0  0  0  0
  -15.3301   14.6258  -24.3506 N   0  0  0  0  0  0  0  0  0  0  0  0
  -15.7906   13.8169  -23.4124 C   0  0  0  0  0  0  0  0  0  0  0  0
  -19.2742   10.0201  -16.9472 C   0  0  0  0  0  0  0  0  0  0  0  0
  -19.7050   11.0499  -15.9877 C   0  0  0  0  0  0  0  0  0  0  0  0
  -19.9843   10.4892  -14.6251 C   0  0  0  0  0  0  0  0  0  0  0  0
  -20.1951    9.0820  -14.5504 N   0  0  0  0  0  0  0  0  0  0  0  0
  -19.5685    8.1362  -15.4603 C   0  0  0  0  0  0  0  0  0  0  0  0
  -18.4847    8.9416  -16.2069 C   0  0  0  0  0  0  0  0  0  0  0  0
  -21.0492    8.5668  -13.5187 C   0  0  0  0  0  0  0  0  0  0  0  0
  -21.5727    9.3504  -12.6760 O   0  0  0  0  0  0  0  0  0  0  0  0
  -21.3044    7.1284  -13.4646 C   0  0  0  0  0  0  0  0  0  0  0  0
  -22.6761    6.8243  -13.9595 C   0  0  0  0  0  0  0  0  0  0  0  0
  -22.9769    5.4233  -14.1164 N   0  0  0  0  0  0  0  0  0  0  0  0
  -23.9831    5.2544  -14.2758 H   0  0  0  0  0  0  0  0  0  0  0  0
  -22.2108    4.9601  -15.2712 C   0  0  0  0  0  0  0  0  0  0  0  0
  -21.5657    3.6244  -15.0507 C   0  0  0  0  0  0  0  0  0  0  0  0
  -22.4816    2.4350  -14.8848 C   0  0  0  0  0  0  0  0  0  0  0  0
  -21.7269    2.5762  -16.1636 C   0  0  0  0  0  0  0  0  0  0  0  0
  -20.1412   14.9637  -20.3294 C   0  0  0  0  0  0  0  0  0  0  0  0
  -18.7331   14.6574  -19.8735 C   0  0  0  0  0  0  0  0  0  0  0  0
  -17.9712   15.7995  -19.3686 C   0  0  0  0  0  0  0  0  0  0  0  0
 37 38  1  0  0  0
 38 39  1  0  0  0
 38  1  1  0  0  0
  1  2  2  0  0  0
  2  3  1  0  0  0
  3  4  1  0  0  0
  4  5  2  0  0  0
  5  6  1  0  0  0
  6  7  2  0  0  0
  7  8  1  0  0  0
  8  9  2  0  0  0
  7 21  1  0  0  0
 21 22  1  0  0  0
 22 23  1  0  0  0
 23 24  1  0  0  0
 24 25  1  0  0  0
 25 26  1  0  0  0
 24 27  1  0  0  0
 27 28  2  0  0  0
 27 29  1  0  0  0
 29 30  1  0  0  0
 30 31  1  0  0  0
 31 33  1  0  0  0
 33 34  1  0  0  0
 34 35  1  0  0  0
 35 36  1  0  0  0
  2 11  1  0  0  0
 11 12  1  0  0  0
 12 13  2  0  0  0
 13 14  1  0  0  0
 13 15  1  0  0  0
 15 16  2  0  0  0
 16 17  1  0  0  0
 17 18  2  0  0  0
 18 19  1  0  0  0
 19 20  1  0  0  0
  9  1  1  0  0  0
 26 21  1  0  0  0
 36 34  1  0  0  0
 20 11  2  0  0  0
  9  4  1  0  0  0
 19 15  1  0  0  0
  3 10  1  0  0  0
 31 32  1  0  0  0
M  END
> <minimizedAffinity>
-8.55016

> <CNNscore>
0.4196299613

> <CNNaffinity>
7.3900594711

> <CNN_VS>
3.1010904312

> <CNNaffinity_variance>
0.2177060843

$$$$
[H]c1sc(S(=O)(=O)N([H])c2c([H])c([H])c([H])c(C([H])([H])C([H])([H])c3nnc(-c4c([H])c([H])c(Cl)c(Cl)c4[H])o3)c2[H])c([H])c1[H]


 31 34  0  0  0  0  0  0  0  0999 V2000
  -18.4947   12.3380  -18.4629 C   0  0  0  0  0  0  0  0  0  0  0  0
  -19.3651   12.0719  -17.4275 C   0  0  0  0  0  0  0  0  0  0  0  0
  -20.5512   12.7678  -17.3465 C   0  0  0  0  0  0  0  0  0  0  0  0
  -20.8307   13.7161  -18.3128 C   0  0  0  0  0  0  0  0  0  0  0  0
  -19.9717   13.9781  -19.3340 C   0  0  0  0  0  0  0  0  0  0  0  0
  -18.7641   13.2804  -19.4300 C   0  0  0  0  0  0  0  0  0  0  0  0
  -20.2135   14.9386  -20.3433 N   0  0  0  0  0  0  0  0  0  0  0  0
  -20.7787   14.6521  -21.1690 H   0  0  0  0  0  0  0  0  0  0  0  0
  -19.6160   16.5498  -20.2630 S   0  0  0  0  0  0  0  0  0  0  0  0
  -19.0512   16.8717  -18.9198 O   0  0  0  0  0  0  0  0  0  0  0  0
  -20.6966   17.5184  -20.5804 O   0  0  0  0  0  0  0  0  0  0  0  0
  -18.3590   16.7422  -21.4965 C   0  0  0  0  0  0  0  0  0  0  0  0
  -17.0401   16.3855  -21.4066 C   0  0  0  0  0  0  0  0  0  0  0  0
  -16.2649   16.6310  -22.4817 C   0  0  0  0  0  0  0  0  0  0  0  0
  -16.8561   17.2112  -23.5629 C   0  0  0  0  0  0  0  0  0  0  0  0
  -18.4738   17.4024  -23.0627 S   0  0  0  0  0  0  0  0  0  0  0  0
  -17.2196   11.5800  -18.5376 C   0  0  0  0  0  0  0  0  0  0  0  0
  -17.4123   10.5195  -19.6134 C   0  0  0  0  0  0  0  0  0  0  0  0
  -16.0885   11.9794  -22.6238 C   0  0  0  0  0  0  0  0  0  0  0  0
  -15.1400   11.0637  -22.3594 N   0  0  0  0  0  0  0  0  0  0  0  0
  -15.4659   10.4001  -21.2428 N   0  0  0  0  0  0  0  0  0  0  0  0
  -16.6263   10.9220  -20.8277 C   0  0  0  0  0  0  0  0  0  0  0  0
  -16.9738   11.8606  -21.6691 O   0  0  0  0  0  0  0  0  0  0  0  0
  -16.1537   15.6614  -27.3312 Cl  0  0  0  0  0  0  0  0  0  0  0  0
  -16.1310   14.5801  -25.9471 C   0  0  0  0  0  0  0  0  0  0  0  0
  -17.2711   13.8795  -25.6159 C   0  0  0  0  0  0  0  0  0  0  0  0
  -17.2179   13.0422  -24.5267 C   0  0  0  0  0  0  0  0  0  0  0  0
  -16.0657   12.8825  -23.7593 C   0  0  0  0  0  0  0  0  0  0  0  0
  -14.9586   13.5883  -24.1134 C   0  0  0  0  0  0  0  0  0  0  0  0
  -14.9728   14.4394  -25.2011 C   0  0  0  0  0  0  0  0  0  0  0  0
  -13.5685   15.3518  -25.6720 Cl  0  0  0  0  0  0  0  0  0  0  0  0
 24 25  1  0  0  0
 25 26  2  0  0  0
 26 27  1  0  0  0
 27 28  2  0  0  0
 28 29  1  0  0  0
 29 30  2  0  0  0
 30 31  1  0  0  0
 28 19  1  0  0  0
 19 20  2  0  0  0
 20 21  1  0  0  0
 21 22  2  0  0  0
 22 18  1  0  0  0
 18 17  1  0  0  0
 17  1  1  0  0  0
  1  2  2  0  0  0
  2  3  1  0  0  0
  3  4  2  0  0  0
  4  5  1  0  0  0
  5  7  1  0  0  0
  7  9  1  0  0  0
  9 10  2  0  0  0
  9 11  2  0  0  0
  9 12  1  0  0  0
 12 13  2  0  0  0
 13 14  1  0  0  0
 14 15  2  0  0  0
 15 16  1  0  0  0
  5  6  2  0  0  0
 22 23  1  0  0  0
 30 25  1  0  0  0
 23 19  1  0  0  0
  6  1  1  0  0  0
 16 12  1  0  0  0
  7  8  1  0  0  0
M  END
> <minimizedAffinity>
-8.71834

> <CNNscore>
0.9094511867

> <CNNaffinity>
8.0746297836

> <CNN_VS>
7.3434815407

> <CNNaffinity_variance>
0.1554641426

$$$$
[H]c1sc(S(=O)(=O)N([H])c2c([H])c([H])c([H])c(C([H])([H])C([H])([H])c3nnc(-c4c([H])c([H])c(Cl)c(Cl)c4[H])o3)c2[H])c([H])c1[H]


 31 34  0  0  0  0  0  0  0  0999 V2000
  -19.0129   10.6298  -17.6946 C   0  0  0  0  0  0  0  0  0  0  0  0
  -19.6978    9.9281  -16.7257 C   0  0  0  0  0  0  0  0  0  0  0  0
  -20.7138   10.5492  -16.0331 C   0  0  0  0  0  0  0  0  0  0  0  0
  -21.0142   11.8645  -16.3350 C   0  0  0  0  0  0  0  0  0  0  0  0
  -20.3382   12.5561  -17.2910 C   0  0  0  0  0  0  0  0  0  0  0  0
  -19.3047   11.9397  -18.0025 C   0  0  0  0  0  0  0  0  0  0  0  0
  -20.6085   13.9014  -17.6330 N   0  0  0  0  0  0  0  0  0  0  0  0
  -21.5846   14.1567  -17.8888 H   0  0  0  0  0  0  0  0  0  0  0  0
  -19.3988   15.1245  -17.6437 S   0  0  0  0  0  0  0  0  0  0  0  0
  -18.2544   14.7885  -16.7469 O   0  0  0  0  0  0  0  0  0  0  0  0
  -19.9772   16.4274  -17.2259 O   0  0  0  0  0  0  0  0  0  0  0  0
  -18.8138   15.3179  -19.3047 C   0  0  0  0  0  0  0  0  0  0  0  0
  -19.2533   14.6655  -20.4255 C   0  0  0  0  0  0  0  0  0  0  0  0
  -18.6533   14.9791  -21.5911 C   0  0  0  0  0  0  0  0  0  0  0  0
  -17.6640   15.9146  -21.5565 C   0  0  0  0  0  0  0  0  0  0  0  0
  -17.5895   16.3376  -19.9075 S   0  0  0  0  0  0  0  0  0  0  0  0
  -17.9199    9.9472  -18.4333 C   0  0  0  0  0  0  0  0  0  0  0  0
  -16.7828   10.9541  -18.5456 C   0  0  0  0  0  0  0  0  0  0  0  0
  -16.0927   11.7878  -21.9771 C   0  0  0  0  0  0  0  0  0  0  0  0
  -15.4864   10.5907  -21.8903 N   0  0  0  0  0  0  0  0  0  0  0  0
  -15.6390   10.1072  -20.6509 N   0  0  0  0  0  0  0  0  0  0  0  0
  -16.3466   11.0244  -19.9806 C   0  0  0  0  0  0  0  0  0  0  0  0
  -16.6031   12.0146  -20.7949 O   0  0  0  0  0  0  0  0  0  0  0  0
  -16.4081   15.1101  -26.9353 Cl  0  0  0  0  0  0  0  0  0  0  0  0
  -16.3119   14.1347  -25.4776 C   0  0  0  0  0  0  0  0  0  0  0  0
  -17.4191   13.4262  -25.0622 C   0  0  0  0  0  0  0  0  0  0  0  0
  -17.3085   12.6732  -23.9171 C   0  0  0  0  0  0  0  0  0  0  0  0
  -16.1307   12.6053  -23.1753 C   0  0  0  0  0  0  0  0  0  0  0  0
  -15.0573   13.3162  -23.6129 C   0  0  0  0  0  0  0  0  0  0  0  0
  -15.1295   14.0843  -24.7587 C   0  0  0  0  0  0  0  0  0  0  0  0
  -13.7691   15.0017  -25.3368 Cl  0  0  0  0  0  0  0  0  0  0  0  0
 24 25  1  0  0  0
 25 26  2  0  0  0
 26 27  1  0  0  0
 27 28  2  0  0  0
 28 29  1  0  0  0
 29 30  2  0  0  0
 30 31  1  0  0  0
 28 19  1  0  0  0
 19 20  2  0  0  0
 20 21  1  0  0  0
 21 22  2  0  0  0
 22 18  1  0  0  0
 18 17  1  0  0  0
 17  1  1  0  0  0
  1  2  2  0  0  0
  2  3  1  0  0  0
  3  4  2  0  0  0
  4  5  1  0  0  0
  5  7  1  0  0  0
  7  9  1  0  0  0
  9 10  2  0  0  0
  9 11  2  0  0  0
  9 12  1  0  0  0
 12 13  2  0  0  0
 13 14  1  0  0  0
 14 15  2  0  0  0
 15 16  1  0  0  0
  5  6  2  0  0  0
 22 23  1  0  0  0
 30 25  1  0  0  0
 23 19  1  0  0  0
  6  1  1  0  0  0
 16 12  1  0  0  0
  7  8  1  0  0  0
M  END
> <minimizedAffinity>
-9.10470

> <CNNscore>
0.8402158618

> <CNNaffinity>
7.7470808029

> <CNN_VS>
6.5092201233

> <CNNaffinity_variance>
0.1675833464

$$$$
[H]c1sc(S(=O)(=O)N([H])c2c([H])c([H])c([H])c(C([H])([H])C([H])([H])c3nnc(-c4c([H])c([H])c(Cl)c(Cl)c4[H])o3)c2[H])c([H])c1[H]


 31 34  0  0  0  0  0  0  0  0999 V2000
  -18.8740   12.4738  -18.0764 C   0  0  0  0  0  0  0  0  0  0  0  0
  -19.4488   12.2252  -16.8483 C   0  0  0  0  0  0  0  0  0  0  0  0
  -20.6421   12.8330  -16.5256 C   0  0  0  0  0  0  0  0  0  0  0  0
  -21.2271   13.6778  -17.4505 C   0  0  0  0  0  0  0  0  0  0  0  0
  -20.6596   13.9226  -18.6618 C   0  0  0  0  0  0  0  0  0  0  0  0
  -19.4489   13.3133  -19.0041 C   0  0  0  0  0  0  0  0  0  0  0  0
  -21.2193   14.7790  -19.6381 N   0  0  0  0  0  0  0  0  0  0  0  0
  -21.9100   14.3780  -20.3055 H   0  0  0  0  0  0  0  0  0  0  0  0
  -20.8082   16.4445  -19.7671 S   0  0  0  0  0  0  0  0  0  0  0  0
  -19.3473   16.6449  -19.9954 O   0  0  0  0  0  0  0  0  0  0  0  0
  -21.2123   17.1734  -18.5374 O   0  0  0  0  0  0  0  0  0  0  0  0
  -21.7205   17.1429  -21.1155 C   0  0  0  0  0  0  0  0  0  0  0  0
  -23.0615   17.0246  -21.3658 C   0  0  0  0  0  0  0  0  0  0  0  0
  -23.5371   17.6486  -22.4619 C   0  0  0  0  0  0  0  0  0  0  0  0
  -22.6474   18.3416  -23.2257 C   0  0  0  0  0  0  0  0  0  0  0  0
  -21.1718   18.1114  -22.4051 S   0  0  0  0  0  0  0  0  0  0  0  0
  -17.5873   11.8114  -18.4107 C   0  0  0  0  0  0  0  0  0  0  0  0
  -17.8929   10.8138  -19.5200 C   0  0  0  0  0  0  0  0  0  0  0  0
  -16.3599   12.0952  -22.5124 C   0  0  0  0  0  0  0  0  0  0  0  0
  -15.4575   11.1644  -22.1556 N   0  0  0  0  0  0  0  0  0  0  0  0
  -15.8653   10.5622  -21.0311 N   0  0  0  0  0  0  0  0  0  0  0  0
  -17.0291   11.1370  -20.7049 C   0  0  0  0  0  0  0  0  0  0  0  0
  -17.2994   12.0465  -21.6045 O   0  0  0  0  0  0  0  0  0  0  0  0
  -16.0501   15.5661  -27.3682 Cl  0  0  0  0  0  0  0  0  0  0  0  0
  -16.1376   14.5467  -25.9404 C   0  0  0  0  0  0  0  0  0  0  0  0
  -17.3308   13.9379  -25.6146 C   0  0  0  0  0  0  0  0  0  0  0  0
  -17.3634   13.1468  -24.4906 C   0  0  0  0  0  0  0  0  0  0  0  0
  -16.2457   12.9448  -23.6832 C   0  0  0  0  0  0  0  0  0  0  0  0
  -15.0845   13.5600  -24.0330 C   0  0  0  0  0  0  0  0  0  0  0  0
  -15.0121   14.3623  -25.1550 C   0  0  0  0  0  0  0  0  0  0  0  0
  -13.5374   15.1588  -25.6211 Cl  0  0  0  0  0  0  0  0  0  0  0  0
 24 25  1  0  0  0
 25 26  2  0  0  0
 26 27  1  0  0  0
 27 28  2  0  0  0
 28 29  1  0  0  0
 29 30  2  0  0  0
 30 31  1  0  0  0
 28 19  1  0  0  0
 19 20  2  0  0  0
 20 21  1  0  0  0
 21 22  2  0  0  0
 22 18  1  0  0  0
 18 17  1  0  0  0
 17  1  1  0  0  0
  1  2  2  0  0  0
  2  3  1  0  0  0
  3  4  2  0  0  0
  4  5  1  0  0  0
  5  7  1  0  0  0
  7  9  1  0  0  0
  9 10  2  0  0  0
  9 11  2  0  0  0
  9 12  1  0  0  0
 12 13  2  0  0  0
 13 14  1  0  0  0
 14 15  2  0  0  0
 15 16  1  0  0  0
  5  6  2  0  0  0
 22 23  1  0  0  0
 30 25  1  0  0  0
 23 19  1  0  0  0
  6  1  1  0  0  0
 16 12  1  0  0  0
  7  8  1  0  0  0
M  END
> <minimizedAffinity>
-8.14622

> <CNNscore>
0.7641019821

> <CNNaffinity>
7.7177019119

> <CNN_VS>
5.8971114159

> <CNNaffinity_variance>
0.3623780906

$$$$
[H]c1sc(S(=O)(=O)N([H])c2c([H])c([H])c([H])c(C([H])([H])C([H])([H])c3nnc(-c4c([H])c([H])c(Cl)c(Cl)c4[H])o3)c2[H])c([H])c1[H]


 31 34  0  0  0  0  0  0  0  0999 V2000
  -18.7080   12.5545  -18.2433 C   0  0  0  0  0  0  0  0  0  0  0  0
  -19.2921   12.3608  -17.0097 C   0  0  0  0  0  0  0  0  0  0  0  0
  -20.5259   12.9166  -16.7519 C   0  0  0  0  0  0  0  0  0  0  0  0
  -21.1411   13.6550  -17.7457 C   0  0  0  0  0  0  0  0  0  0  0  0
  -20.5644   13.8456  -18.9624 C   0  0  0  0  0  0  0  0  0  0  0  0
  -19.3127   13.2881  -19.2394 C   0  0  0  0  0  0  0  0  0  0  0  0
  -21.1539   14.5934  -20.0079 N   0  0  0  0  0  0  0  0  0  0  0  0
  -21.8911   14.1365  -20.5835 H   0  0  0  0  0  0  0  0  0  0  0  0
  -20.7059   16.2155  -20.3649 S   0  0  0  0  0  0  0  0  0  0  0  0
  -21.7734   16.9394  -21.1154 O   0  0  0  0  0  0  0  0  0  0  0  0
  -19.4506   16.2423  -21.1587 O   0  0  0  0  0  0  0  0  0  0  0  0
  -20.3805   17.0545  -18.8390 C   0  0  0  0  0  0  0  0  0  0  0  0
  -21.2762   17.3694  -17.8524 C   0  0  0  0  0  0  0  0  0  0  0  0
  -20.7946   18.0153  -16.7717 C   0  0  0  0  0  0  0  0  0  0  0  0
  -19.4627   18.2996  -16.7519 C   0  0  0  0  0  0  0  0  0  0  0  0
  -18.9097   17.6640  -18.2330 S   0  0  0  0  0  0  0  0  0  0  0  0
  -17.3775   11.9494  -18.5072 C   0  0  0  0  0  0  0  0  0  0  0  0
  -17.6068   10.8285  -19.5124 C   0  0  0  0  0  0  0  0  0  0  0  0
  -16.2499   12.0814  -22.6003 C   0  0  0  0  0  0  0  0  0  0  0  0
  -15.3563   11.1182  -22.3144 N   0  0  0  0  0  0  0  0  0  0  0  0
  -15.7025   10.5212  -21.1667 N   0  0  0  0  0  0  0  0  0  0  0  0
  -16.8197   11.1320  -20.7545 C   0  0  0  0  0  0  0  0  0  0  0  0
  -17.1229   12.0570  -21.6274 O   0  0  0  0  0  0  0  0  0  0  0  0
  -16.1654   15.5583  -27.4609 Cl  0  0  0  0  0  0  0  0  0  0  0  0
  -16.1868   14.5374  -26.0316 C   0  0  0  0  0  0  0  0  0  0  0  0
  -17.3276   13.8277  -25.7230 C   0  0  0  0  0  0  0  0  0  0  0  0
  -17.3093   13.0386  -24.5972 C   0  0  0  0  0  0  0  0  0  0  0  0
  -16.1913   12.9358  -23.7717 C   0  0  0  0  0  0  0  0  0  0  0  0
  -15.0825   13.6491  -24.1049 C   0  0  0  0  0  0  0  0  0  0  0  0
  -15.0622   14.4528  -25.2280 C   0  0  0  0  0  0  0  0  0  0  0  0
  -13.6550   15.3738  -25.6733 Cl  0  0  0  0  0  0  0  0  0  0  0  0
 24 25  1  0  0  0
 25 26  2  0  0  0
 26 27  1  0  0  0
 27 28  2  0  0  0
 28 29  1  0  0  0
 29 30  2  0  0  0
 30 31  1  0  0  0
 28 19  1  0  0  0
 19 20  2  0  0  0
 20 21  1  0  0  0
 21 22  2  0  0  0
 22 18  1  0  0  0
 18 17  1  0  0  0
 17  1  1  0  0  0
  1  2  2  0  0  0
  2  3  1  0  0  0
  3  4  2  0  0  0
  4  5  1  0  0  0
  5  7  1  0  0  0
  7  9  1  0  0  0
  9 10  2  0  0  0
  9 11  2  0  0  0
  9 12  1  0  0  0
 12 13  2  0  0  0
 13 14  1  0  0  0
 14 15  2  0  0  0
 15 16  1  0  0  0
  5  6  2  0  0  0
 22 23  1  0  0  0
 30 25  1  0  0  0
 23 19  1  0  0  0
  6  1  1  0  0  0
 16 12  1  0  0  0
  7  8  1  0  0  0
M  END
> <minimizedAffinity>
-8.05747

> <CNNscore>
0.7153213620

> <CNNaffinity>
7.5981483459

> <CNN_VS>
5.4351177216

> <CNNaffinity_variance>
0.2575617731

$$$$
[H]c1sc(S(=O)(=O)N([H])c2c([H])c([H])c([H])c(C([H])([H])C([H])([H])c3nnc(-c4c([H])c([H])c(Cl)c(Cl)c4[H])o3)c2[H])c([H])c1[H]


 31 34  0  0  0  0  0  0  0  0999 V2000
  -18.8840   10.4964  -17.4975 C   0  0  0  0  0  0  0  0  0  0  0  0
  -18.7004    9.1800  -17.1319 C   0  0  0  0  0  0  0  0  0  0  0  0
  -19.5907    8.5903  -16.2617 C   0  0  0  0  0  0  0  0  0  0  0  0
  -20.6455    9.3436  -15.7809 C   0  0  0  0  0  0  0  0  0  0  0  0
  -20.8261   10.6422  -16.1420 C   0  0  0  0  0  0  0  0  0  0  0  0
  -19.9313   11.2549  -17.0242 C   0  0  0  0  0  0  0  0  0  0  0  0
  -21.8876   11.4518  -15.6757 N   0  0  0  0  0  0  0  0  0  0  0  0
  -22.6051   11.7644  -16.3619 H   0  0  0  0  0  0  0  0  0  0  0  0
  -22.0406   11.9379  -14.0326 S   0  0  0  0  0  0  0  0  0  0  0  0
  -22.4036   13.3797  -13.9063 O   0  0  0  0  0  0  0  0  0  0  0  0
  -20.7723   11.6902  -13.3000 O   0  0  0  0  0  0  0  0  0  0  0  0
  -23.2914   10.9423  -13.2691 C   0  0  0  0  0  0  0  0  0  0  0  0
  -23.1218    9.7661  -12.5889 C   0  0  0  0  0  0  0  0  0  0  0  0
  -24.2297    9.1819  -12.0905 C   0  0  0  0  0  0  0  0  0  0  0  0
  -25.4202    9.8080  -12.3046 C   0  0  0  0  0  0  0  0  0  0  0  0
  -24.9746   11.1927  -13.1923 S   0  0  0  0  0  0  0  0  0  0  0  0
  -17.9162   11.1191  -18.4365 C   0  0  0  0  0  0  0  0  0  0  0  0
  -17.1985    9.9730  -19.1369 C   0  0  0  0  0  0  0  0  0  0  0  0
  -16.1268   11.8044  -22.0427 C   0  0  0  0  0  0  0  0  0  0  0  0
  -15.2533   10.7824  -22.0628 N   0  0  0  0  0  0  0  0  0  0  0  0
  -15.5008    9.9696  -21.0277 N   0  0  0  0  0  0  0  0  0  0  0  0
  -16.5372   10.5080  -20.3742 C   0  0  0  0  0  0  0  0  0  0  0  0
  -16.8897   11.6001  -21.0007 O   0  0  0  0  0  0  0  0  0  0  0  0
  -16.0903   16.1974  -26.0951 Cl  0  0  0  0  0  0  0  0  0  0  0  0
  -16.1045   14.9072  -24.9031 C   0  0  0  0  0  0  0  0  0  0  0  0
  -14.9928   14.1047  -24.7601 C   0  0  0  0  0  0  0  0  0  0  0  0
  -15.0383   13.1047  -23.8177 C   0  0  0  0  0  0  0  0  0  0  0  0
  -16.1556   12.8807  -23.0155 C   0  0  0  0  0  0  0  0  0  0  0  0
  -17.2353   13.6905  -23.1821 C   0  0  0  0  0  0  0  0  0  0  0  0
  -17.2276   14.7059  -24.1185 C   0  0  0  0  0  0  0  0  0  0  0  0
  -18.5973   15.7536  -24.3486 Cl  0  0  0  0  0  0  0  0  0  0  0  0
 24 25  1  0  0  0
 25 26  2  0  0  0
 26 27  1  0  0  0
 27 28  2  0  0  0
 28 29  1  0  0  0
 29 30  2  0  0  0
 30 31  1  0  0  0
 28 19  1  0  0  0
 19 20  2  0  0  0
 20 21  1  0  0  0
 21 22  2  0  0  0
 22 18  1  0  0  0
 18 17  1  0  0  0
 17  1  1  0  0  0
  1  2  2  0  0  0
  2  3  1  0  0  0
  3  4  2  0  0  0
  4  5  1  0  0  0
  5  7  1  0  0  0
  7  9  1  0  0  0
  9 10  2  0  0  0
  9 11  2  0  0  0
  9 12  1  0  0  0
 12 13  2  0  0  0
 13 14  1  0  0  0
 14 15  2  0  0  0
 15 16  1  0  0  0
  5  6  2  0  0  0
 22 23  1  0  0  0
 30 25  1  0  0  0
 23 19  1  0  0  0
  6  1  1  0  0  0
 16 12  1  0  0  0
  7  8  1  0  0  0
M  END
> <minimizedAffinity>
-8.02379

> <CNNscore>
0.7054069638

> <CNNaffinity>
6.7634506226

> <CNN_VS>
4.7709851265

> <CNNaffinity_variance>
0.1847324669

$$$$
[H]c1sc(S(=O)(=O)N([H])c2c([H])c([H])c([H])c(C([H])([H])C([H])([H])c3nnc(-c4c([H])c([H])c(Cl)c(Cl)c4[H])o3)c2[H])c([H])c1[H]


 31 34  0  0  0  0  0  0  0  0999 V2000
  -18.4748    9.9930  -17.6953 C   0  0  0  0  0  0  0  0  0  0  0  0
  -19.4416   10.9529  -17.4850 C   0  0  0  0  0  0  0  0  0  0  0  0
  -20.3444   10.7886  -16.4576 C   0  0  0  0  0  0  0  0  0  0  0  0
  -20.2498    9.6587  -15.6666 C   0  0  0  0  0  0  0  0  0  0  0  0
  -19.2959    8.7122  -15.8744 C   0  0  0  0  0  0  0  0  0  0  0  0
  -18.3725    8.8646  -16.9129 C   0  0  0  0  0  0  0  0  0  0  0  0
  -19.1612    7.5410  -15.0934 N   0  0  0  0  0  0  0  0  0  0  0  0
  -18.2847    7.4130  -14.5469 H   0  0  0  0  0  0  0  0  0  0  0  0
  -20.3780    6.3277  -15.0102 S   0  0  0  0  0  0  0  0  0  0  0  0
  -19.8120    4.9886  -14.6739 O   0  0  0  0  0  0  0  0  0  0  0  0
  -21.1065    6.2368  -16.3016 O   0  0  0  0  0  0  0  0  0  0  0  0
  -21.5560    6.8011  -13.7747 C   0  0  0  0  0  0  0  0  0  0  0  0
  -22.7348    7.4728  -13.9594 C   0  0  0  0  0  0  0  0  0  0  0  0
  -23.4744    7.7250  -12.8610 C   0  0  0  0  0  0  0  0  0  0  0  0
  -22.9890    7.2923  -11.6642 C   0  0  0  0  0  0  0  0  0  0  0  0
  -21.5179    6.5456  -12.0908 S   0  0  0  0  0  0  0  0  0  0  0  0
  -17.5081   10.1836  -18.8067 C   0  0  0  0  0  0  0  0  0  0  0  0
  -17.8601   11.5138  -19.4593 C   0  0  0  0  0  0  0  0  0  0  0  0
  -16.4838   12.3772  -22.6698 C   0  0  0  0  0  0  0  0  0  0  0  0
  -15.6857   11.3495  -22.3308 N   0  0  0  0  0  0  0  0  0  0  0  0
  -16.0537   10.8817  -21.1312 N   0  0  0  0  0  0  0  0  0  0  0  0
  -17.0874   11.6368  -20.7409 C   0  0  0  0  0  0  0  0  0  0  0  0
  -17.3220   12.5194  -21.6765 O   0  0  0  0  0  0  0  0  0  0  0  0
  -16.1909   15.4193  -27.8061 Cl  0  0  0  0  0  0  0  0  0  0  0  0
  -16.2737   14.5264  -26.2956 C   0  0  0  0  0  0  0  0  0  0  0  0
  -17.3986   13.7831  -26.0087 C   0  0  0  0  0  0  0  0  0  0  0  0
  -17.4296   13.0968  -24.8178 C   0  0  0  0  0  0  0  0  0  0  0  0
  -16.3760   13.1289  -23.9062 C   0  0  0  0  0  0  0  0  0  0  0  0
  -15.2811   13.8718  -24.2202 C   0  0  0  0  0  0  0  0  0  0  0  0
  -15.2127   14.5751  -25.4070 C   0  0  0  0  0  0  0  0  0  0  0  0
  -13.8222   15.5317  -25.8291 Cl  0  0  0  0  0  0  0  0  0  0  0  0
 24 25  1  0  0  0
 25 26  2  0  0  0
 26 27  1  0  0  0
 27 28  2  0  0  0
 28 29  1  0  0  0
 29 30  2  0  0  0
 30 31  1  0  0  0
 28 19  1  0  0  0
 19 20  2  0  0  0
 20 21  1  0  0  0
 21 22  2  0  0  0
 22 18  1  0  0  0
 18 17  1  0  0  0
 17  1  1  0  0  0
  1  2  2  0  0  0
  2  3  1  0  0  0
  3  4  2  0  0  0
  4  5  1  0  0  0
  5  7  1  0  0  0
  7  9  1  0  0  0
  9 10  2  0  0  0
  9 11  2  0  0  0
  9 12  1  0  0  0
 12 13  2  0  0  0
 13 14  1  0  0  0
 14 15  2  0  0  0
 15 16  1  0  0  0
  5  6  2  0  0  0
 22 23  1  0  0  0
 30 25  1  0  0  0
 23 19  1  0  0  0
  6  1  1  0  0  0
 16 12  1  0  0  0
  7  8  1  0  0  0
M  END
> <minimizedAffinity>
-8.77728

> <CNNscore>
0.6822630167

> <CNNaffinity>
6.9448232651

> <CNN_VS>
4.7381958961

> <CNNaffinity_variance>
0.2808778882

$$$$
[H]c1sc(S(=O)(=O)N([H])c2c([H])c([H])c([H])c(C([H])([H])C([H])([H])c3nnc(-c4c([H])c([H])c(Cl)c(Cl)c4[H])o3)c2[H])c([H])c1[H]


 31 34  0  0  0  0  0  0  0  0999 V2000
  -19.3182   12.3780  -18.4420 C   0  0  0  0  0  0  0  0  0  0  0  0
  -20.0704   13.4055  -17.9141 C   0  0  0  0  0  0  0  0  0  0  0  0
  -20.7162   13.2209  -16.7114 C   0  0  0  0  0  0  0  0  0  0  0  0
  -20.5873   12.0031  -16.0699 C   0  0  0  0  0  0  0  0  0  0  0  0
  -19.8451   10.9899  -16.5911 C   0  0  0  0  0  0  0  0  0  0  0  0
  -19.1837   11.1617  -17.8107 C   0  0  0  0  0  0  0  0  0  0  0  0
  -19.6855    9.7281  -15.9729 N   0  0  0  0  0  0  0  0  0  0  0  0
  -19.1355    9.0010  -16.4751 H   0  0  0  0  0  0  0  0  0  0  0  0
  -20.3583    9.3483  -14.4358 S   0  0  0  0  0  0  0  0  0  0  0  0
  -19.7995   10.2080  -13.3517 O   0  0  0  0  0  0  0  0  0  0  0  0
  -20.1108    7.9223  -14.1012 O   0  0  0  0  0  0  0  0  0  0  0  0
  -22.1137    9.5703  -14.5235 C   0  0  0  0  0  0  0  0  0  0  0  0
  -22.8797   10.4535  -13.8107 C   0  0  0  0  0  0  0  0  0  0  0  0
  -24.2067   10.4428  -14.0475 C   0  0  0  0  0  0  0  0  0  0  0  0
  -24.6725    9.5577  -14.9721 C   0  0  0  0  0  0  0  0  0  0  0  0
  -23.2584    8.7612  -15.4914 S   0  0  0  0  0  0  0  0  0  0  0  0
  -18.6275   12.5912  -19.7395 C   0  0  0  0  0  0  0  0  0  0  0  0
  -17.5953   11.4785  -19.8650 C   0  0  0  0  0  0  0  0  0  0  0  0
  -16.3032   12.4673  -23.0743 C   0  0  0  0  0  0  0  0  0  0  0  0
  -15.4225   11.5070  -22.7422 N   0  0  0  0  0  0  0  0  0  0  0  0
  -15.7476   11.0049  -21.5441 N   0  0  0  0  0  0  0  0  0  0  0  0
  -16.8388   11.6707  -21.1477 C   0  0  0  0  0  0  0  0  0  0  0  0
  -17.1476   12.5355  -22.0784 O   0  0  0  0  0  0  0  0  0  0  0  0
  -16.2636   15.5324  -28.2051 Cl  0  0  0  0  0  0  0  0  0  0  0  0
  -16.2723   14.6334  -26.6960 C   0  0  0  0  0  0  0  0  0  0  0  0
  -17.2539   13.6912  -26.4743 C   0  0  0  0  0  0  0  0  0  0  0  0
  -17.2304   13.0061  -25.2824 C   0  0  0  0  0  0  0  0  0  0  0  0
  -16.2607   13.2312  -24.3072 C   0  0  0  0  0  0  0  0  0  0  0  0
  -15.3069   14.1674  -24.5578 C   0  0  0  0  0  0  0  0  0  0  0  0
  -15.2971   14.8762  -25.7433 C   0  0  0  0  0  0  0  0  0  0  0  0
  -14.0867   16.0782  -26.0850 Cl  0  0  0  0  0  0  0  0  0  0  0  0
 24 25  1  0  0  0
 25 26  2  0  0  0
 26 27  1  0  0  0
 27 28  2  0  0  0
 28 29  1  0  0  0
 29 30  2  0  0  0
 30 31  1  0  0  0
 28 19  1  0  0  0
 19 20  2  0  0  0
 20 21  1  0  0  0
 21 22  2  0  0  0
 22 18  1  0  0  0
 18 17  1  0  0  0
 17  1  1  0  0  0
  1  2  2  0  0  0
  2  3  1  0  0  0
  3  4  2  0  0  0
  4  5  1  0  0  0
  5  7  1  0  0  0
  7  9  1  0  0  0
  9 10  2  0  0  0
  9 11  2  0  0  0
  9 12  1  0  0  0
 12 13  2  0  0  0
 13 14  1  0  0  0
 14 15  2  0  0  0
 15 16  1  0  0  0
  5  6  2  0  0  0
 22 23  1  0  0  0
 30 25  1  0  0  0
 23 19  1  0  0  0
  6  1  1  0  0  0
 16 12  1  0  0  0
  7  8  1  0  0  0
M  END
> <minimizedAffinity>
-8.04360

> <CNNscore>
0.5702297688

> <CNNaffinity>
6.9117760658

> <CNN_VS>
3.9413003922

> <CNNaffinity_variance>
0.2655657530

$$$$
[H]c1sc(S(=O)(=O)N([H])c2c([H])c([H])c([H])c(C([H])([H])C([H])([H])c3nnc(-c4c([H])c([H])c(Cl)c(Cl)c4[H])o3)c2[H])c([H])c1[H]


 31 34  0  0  0  0  0  0  0  0999 V2000
  -19.2488   12.3429  -17.7869 C   0  0  0  0  0  0  0  0  0  0  0  0
  -19.8876   13.4415  -17.2526 C   0  0  0  0  0  0  0  0  0  0  0  0
  -20.8511   13.2584  -16.2853 C   0  0  0  0  0  0  0  0  0  0  0  0
  -21.1470   11.9702  -15.8800 C   0  0  0  0  0  0  0  0  0  0  0  0
  -20.5164   10.8869  -16.4073 C   0  0  0  0  0  0  0  0  0  0  0  0
  -19.5364   11.0563  -17.3898 C   0  0  0  0  0  0  0  0  0  0  0  0
  -20.7862    9.5521  -16.0259 N   0  0  0  0  0  0  0  0  0  0  0  0
  -21.7407    9.1750  -16.1992 H   0  0  0  0  0  0  0  0  0  0  0  0
  -19.6099    8.5335  -15.2923 S   0  0  0  0  0  0  0  0  0  0  0  0
  -18.8806    9.2241  -14.1887 O   0  0  0  0  0  0  0  0  0  0  0  0
  -18.6287    8.0647  -16.3043 O   0  0  0  0  0  0  0  0  0  0  0  0
  -20.4317    7.0998  -14.6540 C   0  0  0  0  0  0  0  0  0  0  0  0
  -19.8654    5.9105  -14.2800 C   0  0  0  0  0  0  0  0  0  0  0  0
  -20.6967    4.9547  -13.8190 C   0  0  0  0  0  0  0  0  0  0  0  0
  -22.0250    5.2507  -13.7644 C   0  0  0  0  0  0  0  0  0  0  0  0
  -22.0896    6.8483  -14.3536 S   0  0  0  0  0  0  0  0  0  0  0  0
  -18.2121   12.5556  -18.8291 C   0  0  0  0  0  0  0  0  0  0  0  0
  -17.8211   11.1733  -19.3347 C   0  0  0  0  0  0  0  0  0  0  0  0
  -16.1523   12.1936  -22.3548 C   0  0  0  0  0  0  0  0  0  0  0  0
  -15.4924   11.0535  -22.0848 N   0  0  0  0  0  0  0  0  0  0  0  0
  -15.9864   10.5122  -20.9640 N   0  0  0  0  0  0  0  0  0  0  0  0
  -16.9571   11.3362  -20.5519 C   0  0  0  0  0  0  0  0  0  0  0  0
  -17.0340   12.3292  -21.3990 O   0  0  0  0  0  0  0  0  0  0  0  0
  -14.9228   15.7875  -26.9693 Cl  0  0  0  0  0  0  0  0  0  0  0  0
  -15.2869   14.7297  -25.6150 C   0  0  0  0  0  0  0  0  0  0  0  0
  -14.5428   14.8288  -24.4587 C   0  0  0  0  0  0  0  0  0  0  0  0
  -14.8550   13.9855  -23.4187 C   0  0  0  0  0  0  0  0  0  0  0  0
  -15.8836   13.0486  -23.4960 C   0  0  0  0  0  0  0  0  0  0  0  0
  -16.5980   12.9769  -24.6508 C   0  0  0  0  0  0  0  0  0  0  0  0
  -16.3145   13.8072  -25.7177 C   0  0  0  0  0  0  0  0  0  0  0  0
  -17.2152   13.7328  -27.2042 Cl  0  0  0  0  0  0  0  0  0  0  0  0
 24 25  1  0  0  0
 25 26  2  0  0  0
 26 27  1  0  0  0
 27 28  2  0  0  0
 28 29  1  0  0  0
 29 30  2  0  0  0
 30 31  1  0  0  0
 28 19  1  0  0  0
 19 20  2  0  0  0
 20 21  1  0  0  0
 21 22  2  0  0  0
 22 18  1  0  0  0
 18 17  1  0  0  0
 17  1  1  0  0  0
  1  2  2  0  0  0
  2  3  1  0  0  0
  3  4  2  0  0  0
  4  5  1  0  0  0
  5  7  1  0  0  0
  7  9  1  0  0  0
  9 10  2  0  0  0
  9 11  2  0  0  0
  9 12  1  0  0  0
 12 13  2  0  0  0
 13 14  1  0  0  0
 14 15  2  0  0  0
 15 16  1  0  0  0
  5  6  2  0  0  0
 22 23  1  0  0  0
 30 25  1  0  0  0
 23 19  1  0  0  0
  6  1  1  0  0  0
 16 12  1  0  0  0
  7  8  1  0  0  0
M  END
> <minimizedAffinity>
-8.11670

> <CNNscore>
0.5632842183

> <CNNaffinity>
6.9013810158

> <CNN_VS>
3.8874390125

> <CNNaffinity_variance>
0.1745989621

$$$$
[H]c1sc(S(=O)(=O)N([H])c2c([H])c([H])c([H])c(C([H])([H])C([H])([H])c3nnc(-c4c([H])c([H])c(Cl)c(Cl)c4[H])o3)c2[H])c([H])c1[H]


 31 34  0  0  0  0  0  0  0  0999 V2000
  -17.0286   14.3959  -24.1149 C   0  0  0  0  0  0  0  0  0  0  0  0
  -16.5026   15.0018  -25.2359 C   0  0  0  0  0  0  0  0  0  0  0  0
  -16.5205   16.3758  -25.3323 C   0  0  0  0  0  0  0  0  0  0  0  0
  -17.0693   17.1060  -24.2945 C   0  0  0  0  0  0  0  0  0  0  0  0
  -17.5880   16.5078  -23.1889 C   0  0  0  0  0  0  0  0  0  0  0  0
  -17.5772   15.1144  -23.0762 C   0  0  0  0  0  0  0  0  0  0  0  0
  -18.1604   17.2120  -22.1044 N   0  0  0  0  0  0  0  0  0  0  0  0
  -18.3672   18.2243  -22.2302 H   0  0  0  0  0  0  0  0  0  0  0  0
  -18.5263   16.4694  -20.5963 S   0  0  0  0  0  0  0  0  0  0  0  0
  -17.4056   15.6148  -20.1061 O   0  0  0  0  0  0  0  0  0  0  0  0
  -19.7540   15.6412  -20.7123 O   0  0  0  0  0  0  0  0  0  0  0  0
  -18.8622   17.7438  -19.4124 C   0  0  0  0  0  0  0  0  0  0  0  0
  -18.6033   19.0830  -19.5318 C   0  0  0  0  0  0  0  0  0  0  0  0
  -18.9493   19.8685  -18.4924 C   0  0  0  0  0  0  0  0  0  0  0  0
  -19.5250   19.2665  -17.4148 C   0  0  0  0  0  0  0  0  0  0  0  0
  -19.5729   17.6248  -17.8688 S   0  0  0  0  0  0  0  0  0  0  0  0
  -17.0023   12.9136  -24.0247 C   0  0  0  0  0  0  0  0  0  0  0  0
  -15.6821   12.5467  -23.3600 C   0  0  0  0  0  0  0  0  0  0  0  0
  -16.9573   11.1053  -20.3198 C   0  0  0  0  0  0  0  0  0  0  0  0
  -15.9104   10.2945  -20.5537 N   0  0  0  0  0  0  0  0  0  0  0  0
  -15.2925   10.6837  -21.6762 N   0  0  0  0  0  0  0  0  0  0  0  0
  -15.9753   11.7434  -22.1258 C   0  0  0  0  0  0  0  0  0  0  0  0
  -16.9616   11.9722  -21.2986 O   0  0  0  0  0  0  0  0  0  0  0  0
  -20.6010   10.4415  -15.6289 Cl  0  0  0  0  0  0  0  0  0  0  0  0
  -19.5314   10.6399  -17.0082 C   0  0  0  0  0  0  0  0  0  0  0  0
  -18.6655    9.6219  -17.3460 C   0  0  0  0  0  0  0  0  0  0  0  0
  -17.8427    9.8110  -18.4312 C   0  0  0  0  0  0  0  0  0  0  0  0
  -17.8567   10.9811  -19.1880 C   0  0  0  0  0  0  0  0  0  0  0  0
  -18.7230   11.9654  -18.8277 C   0  0  0  0  0  0  0  0  0  0  0  0
  -19.5654   11.8127  -17.7437 C   0  0  0  0  0  0  0  0  0  0  0  0
  -20.6813   13.0585  -17.2649 Cl  0  0  0  0  0  0  0  0  0  0  0  0
 24 25  1  0  0  0
 25 26  2  0  0  0
 26 27  1  0  0  0
 27 28  2  0  0  0
 28 29  1  0  0  0
 29 30  2  0  0  0
 30 31  1  0  0  0
 28 19  1  0  0  0
 19 20  2  0  0  0
 20 21  1  0  0  0
 21 22  2  0  0  0
 22 18  1  0  0  0
 18 17  1  0  0  0
 17  1  1  0  0  0
  1  2  2  0  0  0
  2  3  1  0  0  0
  3  4  2  0  0  0
  4  5  1  0  0  0
  5  7  1  0  0  0
  7  9  1  0  0  0
  9 10  2  0  0  0
  9 11  2  0  0  0
  9 12  1  0  0  0
 12 13  2  0  0  0
 13 14  1  0  0  0
 14 15  2  0  0  0
 15 16  1  0  0  0
  5  6  2  0  0  0
 22 23  1  0  0  0
 30 25  1  0  0  0
 23 19  1  0  0  0
  6  1  1  0  0  0
 16 12  1  0  0  0
  7  8  1  0  0  0
M  END
> <minimizedAffinity>
-8.03629

> <CNNscore>
0.5624593496

> <CNNaffinity>
7.5008101463

> <CNN_VS>
4.2189006805

> <CNNaffinity_variance>
0.1492453516

$$$$
[H]Oc1c([H])c([H])c2c(c1[H])C([H])([H])C([H])([H])[C@]1([H])C([H])([H])C([H])([H])C([H])([H])C(C([H])([H])[H])(C([H])([H])[H])[C@@]1([H])C(=O)[C@]([H])(C([H])([H])C([H])([H])[H])O2


 24 26  0  0  0  0  0  0  0  0999 V2000
  -23.4966    9.2684  -12.6632 C   0  0  0  0  0  0  0  0  0  0  0  0
  -22.8129   10.0577  -13.7854 C   0  0  0  0  0  0  0  0  0  0  0  0
  -22.9536    9.3692  -15.0971 C   0  0  0  0  0  0  0  0  0  0  0  0
  -22.3697   10.2749  -16.1751 C   0  0  0  0  0  0  0  0  0  0  0  0
  -20.9198   10.5831  -15.8631 C   0  0  0  0  0  0  0  0  0  0  0  0
  -20.7685   11.1961  -14.4897 C   0  0  0  0  0  0  0  0  0  0  0  0
  -21.3513   12.5624  -14.5313 C   0  0  0  0  0  0  0  0  0  0  0  0
  -19.2670   11.3545  -14.2795 C   0  0  0  0  0  0  0  0  0  0  0  0
  -21.3618   10.2546  -13.4852 C   0  0  0  0  0  0  0  0  0  0  0  0
  -21.1342   10.7067  -12.0902 C   0  0  0  0  0  0  0  0  0  0  0  0
  -21.3185   11.9353  -11.9234 O   0  0  0  0  0  0  0  0  0  0  0  0
  -20.7363    9.9333  -10.9243 C   0  0  0  0  0  0  0  0  0  0  0  0
  -20.8644    8.5717  -10.8994 O   0  0  0  0  0  0  0  0  0  0  0  0
  -21.7287    7.6230  -10.4679 C   0  0  0  0  0  0  0  0  0  0  0  0
  -22.8192    7.2738  -11.2780 C   0  0  0  0  0  0  0  0  0  0  0  0
  -23.6864    6.3118  -10.8180 C   0  0  0  0  0  0  0  0  0  0  0  0
  -23.5666    5.6573   -9.6163 C   0  0  0  0  0  0  0  0  0  0  0  0
  -24.5016    4.7037   -9.2535 O   0  0  0  0  0  0  0  0  0  0  0  0
  -22.5084    5.9818   -8.8132 C   0  0  0  0  0  0  0  0  0  0  0  0
  -21.6280    6.9454   -9.2572 C   0  0  0  0  0  0  0  0  0  0  0  0
  -23.0164    7.8681  -12.6285 C   0  0  0  0  0  0  0  0  0  0  0  0
  -24.3557    3.7381   -9.5091 H   0  0  0  0  0  0  0  0  0  0  0  0
  -19.2110   10.1494  -10.6789 C   0  0  0  0  0  0  0  0  0  0  0  0
  -18.9438   10.6375   -9.2980 C   0  0  0  0  0  0  0  0  0  0  0  0
  1  2  1  0  0  0
  2  3  1  0  0  0
  3  4  1  0  0  0
  4  5  1  0  0  0
  5  6  1  0  0  0
  6  7  1  0  0  0
  6  8  1  0  0  0
  6  9  1  0  0  0
  9 10  1  0  0  0
 10 11  2  0  0  0
 10 12  1  0  0  0
 12 23  1  0  0  0
 23 24  1  0  0  0
 12 13  1  0  0  0
 13 14  1  0  0  0
 14 15  2  0  0  0
 15 16  1  0  0  0
 16 17  2  0  0  0
 17 18  1  0  0  0
 17 19  1  0  0  0
 19 20  2  0  0  0
 15 21  1  0  0  0
 21  1  1  0  0  0
  9  2  1  0  0  0
 20 14  1  0  0  0
 18 22  1  0  0  0
M  END
> <minimizedAffinity>
-2.58736

> <CNNscore>
0.6028631926

> <CNNaffinity>
4.7793607712

> <CNN_VS>
2.8813006878

> <CNNaffinity_variance>
0.4731461406

$$$$
[H]Oc1c([H])c([H])c2c(c1[H])C([H])([H])C([H])([H])[C@]1([H])C([H])([H])C([H])([H])C([H])([H])C(C([H])([H])[H])(C([H])([H])[H])[C@@]1([H])C(=O)[C@]([H])(C([H])([H])C([H])([H])[H])O2


 24 26  0  0  0  0  0  0  0  0999 V2000
  -17.3795   12.2084  -22.3346 C   0  0  0  0  0  0  0  0  0  0  0  0
  -16.6870   13.2533  -23.2170 C   0  0  0  0  0  0  0  0  0  0  0  0
  -15.2537   12.9174  -23.4333 C   0  0  0  0  0  0  0  0  0  0  0  0
  -14.6733   13.9219  -24.4219 C   0  0  0  0  0  0  0  0  0  0  0  0
  -14.8385   15.3294  -23.8871 C   0  0  0  0  0  0  0  0  0  0  0  0
  -16.2859   15.6366  -23.5780 C   0  0  0  0  0  0  0  0  0  0  0  0
  -17.0195   15.7299  -24.8669 C   0  0  0  0  0  0  0  0  0  0  0  0
  -16.2819   17.0308  -22.9617 C   0  0  0  0  0  0  0  0  0  0  0  0
  -16.7876   14.6131  -22.6043 C   0  0  0  0  0  0  0  0  0  0  0  0
  -18.1616   14.9149  -22.1317 C   0  0  0  0  0  0  0  0  0  0  0  0
  -18.9368   15.2867  -23.0439 O   0  0  0  0  0  0  0  0  0  0  0  0
  -18.7110   14.8385  -20.7871 C   0  0  0  0  0  0  0  0  0  0  0  0
  -18.0890   14.1146  -19.8072 O   0  0  0  0  0  0  0  0  0  0  0  0
  -18.1445   12.8885  -19.2355 C   0  0  0  0  0  0  0  0  0  0  0  0
  -17.4709   11.8199  -19.8454 C   0  0  0  0  0  0  0  0  0  0  0  0
  -17.5448   10.5831  -19.2502 C   0  0  0  0  0  0  0  0  0  0  0  0
  -18.2313   10.3091  -18.0925 C   0  0  0  0  0  0  0  0  0  0  0  0
  -18.2379    9.0228  -17.5820 O   0  0  0  0  0  0  0  0  0  0  0  0
  -18.8924   11.3384  -17.4813 C   0  0  0  0  0  0  0  0  0  0  0  0
  -18.8307   12.5864  -18.0638 C   0  0  0  0  0  0  0  0  0  0  0  0
  -16.6412   12.0090  -21.0667 C   0  0  0  0  0  0  0  0  0  0  0  0
  -17.5220    8.7407  -16.9286 H   0  0  0  0  0  0  0  0  0  0  0  0
  -18.7612   16.2771  -20.1859 C   0  0  0  0  0  0  0  0  0  0  0  0
  -17.5068   16.6078  -19.4556 C   0  0  0  0  0  0  0  0  0  0  0  0
  1  2  1  0  0  0
  2  3  1  0  0  0
  3  4  1  0  0  0
  4  5  1  0  0  0
  5  6  1  0  0  0
  6  7  1  0  0  0
  6  8  1  0  0  0
  6  9  1  0  0  0
  9 10  1  0  0  0
 10 11  2  0  0  0
 10 12  1  0  0  0
 12 23  1  0  0  0
 23 24  1  0  0  0
 12 13  1  0  0  0
 13 14  1  0  0  0
 14 15  2  0  0  0
 15 16  1  0  0  0
 16 17  2  0  0  0
 17 18  1  0  0  0
 17 19  1  0  0  0
 19 20  2  0  0  0
 15 21  1  0  0  0
 21  1  1  0  0  0
  9  2  1  0  0  0
 20 14  1  0  0  0
 18 22  1  0  0  0
M  END
> <minimizedAffinity>
-8.96860

> <CNNscore>
0.5932469368

> <CNNaffinity>
6.3835310936

> <CNN_VS>
3.7870101929

> <CNNaffinity_variance>
0.1110471264

$$$$
[H]Oc1c([H])c([H])c2c(c1[H])C([H])([H])C([H])([H])[C@]1([H])C([H])([H])C([H])([H])C([H])([H])C(C([H])([H])[H])(C([H])([H])[H])[C@@]1([H])C(=O)[C@]([H])(C([H])([H])C([H])([H])[H])O2


 24 26  0  0  0  0  0  0  0  0999 V2000
  -18.4134   13.6345  -17.6561 C   0  0  0  0  0  0  0  0  0  0  0  0
  -19.6141   14.4442  -17.1536 C   0  0  0  0  0  0  0  0  0  0  0  0
  -20.6333   13.5662  -16.5176 C   0  0  0  0  0  0  0  0  0  0  0  0
  -21.7242   14.4526  -15.9282 C   0  0  0  0  0  0  0  0  0  0  0  0
  -22.3344   15.3142  -17.0144 C   0  0  0  0  0  0  0  0  0  0  0  0
  -21.2827   16.1360  -17.7239 C   0  0  0  0  0  0  0  0  0  0  0  0
  -20.7935   17.1705  -16.7760 C   0  0  0  0  0  0  0  0  0  0  0  0
  -22.0220   16.8638  -18.8408 C   0  0  0  0  0  0  0  0  0  0  0  0
  -20.2476   15.2022  -18.2754 C   0  0  0  0  0  0  0  0  0  0  0  0
  -19.2451   15.9075  -19.1121 C   0  0  0  0  0  0  0  0  0  0  0  0
  -18.8546   16.9928  -18.6212 O   0  0  0  0  0  0  0  0  0  0  0  0
  -18.6728   15.5160  -20.3907 C   0  0  0  0  0  0  0  0  0  0  0  0
  -18.7378   14.2222  -20.8301 O   0  0  0  0  0  0  0  0  0  0  0  0
  -17.9841   13.0976  -20.8466 C   0  0  0  0  0  0  0  0  0  0  0  0
  -17.9880   12.2566  -19.7240 C   0  0  0  0  0  0  0  0  0  0  0  0
  -17.2118   11.1229  -19.7610 C   0  0  0  0  0  0  0  0  0  0  0  0
  -16.4265   10.7438  -20.8223 C   0  0  0  0  0  0  0  0  0  0  0  0
  -15.6835    9.5785  -20.7495 O   0  0  0  0  0  0  0  0  0  0  0  0
  -16.4112   11.5491  -21.9273 C   0  0  0  0  0  0  0  0  0  0  0  0
  -17.1828   12.6915  -21.9088 C   0  0  0  0  0  0  0  0  0  0  0  0
  -18.8490   12.5300  -18.5410 C   0  0  0  0  0  0  0  0  0  0  0  0
  -16.0882    8.7075  -21.0603 H   0  0  0  0  0  0  0  0  0  0  0  0
  -19.3923   16.3107  -21.5239 C   0  0  0  0  0  0  0  0  0  0  0  0
  -18.6739   16.1829  -22.8215 C   0  0  0  0  0  0  0  0  0  0  0  0
  1  2  1  0  0  0
  2  3  1  0  0  0
  3  4  1  0  0  0
  4  5  1  0  0  0
  5  6  1  0  0  0
  6  7  1  0  0  0
  6  8  1  0  0  0
  6  9  1  0  0  0
  9 10  1  0  0  0
 10 11  2  0  0  0
 10 12  1  0  0  0
 12 23  1  0  0  0
 23 24  1  0  0  0
 12 13  1  0  0  0
 13 14  1  0  0  0
 14 15  2  0  0  0
 15 16  1  0  0  0
 16 17  2  0  0  0
 17 18  1  0  0  0
 17 19  1  0  0  0
 19 20  2  0  0  0
 15 21  1  0  0  0
 21  1  1  0  0  0
  9  2  1  0  0  0
 20 14  1  0  0  0
 18 22  1  0  0  0
M  END
> <minimizedAffinity>
-7.61452

> <CNNscore>
0.5218541026

> <CNNaffinity>
5.9722290039

> <CNN_VS>
3.1166322231

> <CNNaffinity_variance>
0.1621451825

$$$$
[H]Oc1c([H])c([H])c2c(c1[H])C([H])([H])C([H])([H])[C@]1([H])C([H])([H])C([H])([H])C([H])([H])C(C([H])([H])[H])(C([H])([H])[H])[C@@]1([H])C(=O)[C@]([H])(C([H])([H])C([H])([H])[H])O2


 24 26  0  0  0  0  0  0  0  0999 V2000
  -16.9756   11.6701  -19.0541 C   0  0  0  0  0  0  0  0  0  0  0  0
  -17.8797   11.1627  -17.9250 C   0  0  0  0  0  0  0  0  0  0  0  0
  -18.2717    9.7433  -18.1396 C   0  0  0  0  0  0  0  0  0  0  0  0
  -19.0524    9.2751  -16.9171 C   0  0  0  0  0  0  0  0  0  0  0  0
  -20.2641   10.1595  -16.7066 C   0  0  0  0  0  0  0  0  0  0  0  0
  -19.8717   11.6141  -16.5836 C   0  0  0  0  0  0  0  0  0  0  0  0
  -19.1593   11.7885  -15.2912 C   0  0  0  0  0  0  0  0  0  0  0  0
  -21.1850   12.3809  -16.4795 C   0  0  0  0  0  0  0  0  0  0  0  0
  -19.1111   12.0030  -17.8155 C   0  0  0  0  0  0  0  0  0  0  0  0
  -18.8043   13.4545  -17.8501 C   0  0  0  0  0  0  0  0  0  0  0  0
  -18.4140   13.9123  -16.7504 O   0  0  0  0  0  0  0  0  0  0  0  0
  -18.8948   14.3891  -18.9610 C   0  0  0  0  0  0  0  0  0  0  0  0
  -18.9475   13.9492  -20.2551 O   0  0  0  0  0  0  0  0  0  0  0  0
  -18.1233   13.7335  -21.3074 C   0  0  0  0  0  0  0  0  0  0  0  0
  -17.4171   12.5240  -21.3847 C   0  0  0  0  0  0  0  0  0  0  0  0
  -16.5825   12.3285  -22.4592 C   0  0  0  0  0  0  0  0  0  0  0  0
  -16.3855   13.2325  -23.4745 C   0  0  0  0  0  0  0  0  0  0  0  0
  -15.5185   12.9295  -24.5097 O   0  0  0  0  0  0  0  0  0  0  0  0
  -17.0671   14.4167  -23.4187 C   0  0  0  0  0  0  0  0  0  0  0  0
  -17.9085   14.6316  -22.3479 C   0  0  0  0  0  0  0  0  0  0  0  0
  -17.5988   11.4428  -20.3780 C   0  0  0  0  0  0  0  0  0  0  0  0
  -15.8672   12.4601  -25.3325 H   0  0  0  0  0  0  0  0  0  0  0  0
  -20.2111   15.2133  -18.8139 C   0  0  0  0  0  0  0  0  0  0  0  0
  -21.3075   14.6441  -19.6448 C   0  0  0  0  0  0  0  0  0  0  0  0
  1  2  1  0  0  0
  2  3  1  0  0  0
  3  4  1  0  0  0
  4  5  1  0  0  0
  5  6  1  0  0  0
  6  7  1  0  0  0
  6  8  1  0  0  0
  6  9  1  0  0  0
  9 10  1  0  0  0
 10 11  2  0  0  0
 10 12  1  0  0  0
 12 23  1  0  0  0
 23 24  1  0  0  0
 12 13  1  0  0  0
 13 14  1  0  0  0
 14 15  2  0  0  0
 15 16  1  0  0  0
 16 17  2  0  0  0
 17 18  1  0  0  0
 17 19  1  0  0  0
 19 20  2  0  0  0
 15 21  1  0  0  0
 21  1  1  0  0  0
  9  2  1  0  0  0
 20 14  1  0  0  0
 18 22  1  0  0  0
M  END
> <minimizedAffinity>
-8.41933

> <CNNscore>
0.5188115239

> <CNNaffinity>
6.1371707916

> <CNN_VS>
3.1840348244

> <CNNaffinity_variance>
0.1723176092

$$$$
[H]Oc1c([H])c([H])c2c(c1[H])C([H])([H])C([H])([H])[C@]1([H])C([H])([H])C([H])([H])C([H])([H])C(C([H])([H])[H])(C([H])([H])[H])[C@@]1([H])C(=O)[C@]([H])(C([H])([H])C([H])([H])[H])O2


 24 26  0  0  0  0  0  0  0  0999 V2000
  -18.2736   13.8610  -22.7844 C   0  0  0  0  0  0  0  0  0  0  0  0
  -18.2997   15.3200  -23.2537 C   0  0  0  0  0  0  0  0  0  0  0  0
  -17.1115   15.6431  -24.0891 C   0  0  0  0  0  0  0  0  0  0  0  0
  -17.2770   17.0607  -24.6241 C   0  0  0  0  0  0  0  0  0  0  0  0
  -17.4275   18.0343  -23.4734 C   0  0  0  0  0  0  0  0  0  0  0  0
  -18.5779   17.6499  -22.5714 C   0  0  0  0  0  0  0  0  0  0  0  0
  -19.8421   17.8859  -23.3160 C   0  0  0  0  0  0  0  0  0  0  0  0
  -18.5417   18.6485  -21.4202 C   0  0  0  0  0  0  0  0  0  0  0  0
  -18.3484   16.2507  -22.0849 C   0  0  0  0  0  0  0  0  0  0  0  0
  -19.3565   15.8345  -21.0785 C   0  0  0  0  0  0  0  0  0  0  0  0
  -20.5283   16.1689  -21.3725 O   0  0  0  0  0  0  0  0  0  0  0  0
  -19.1686   15.1105  -19.8311 C   0  0  0  0  0  0  0  0  0  0  0  0
  -18.0294   14.3916  -19.5932 O   0  0  0  0  0  0  0  0  0  0  0  0
  -17.5720   13.1206  -19.6842 C   0  0  0  0  0  0  0  0  0  0  0  0
  -17.0856   12.6565  -20.9153 C   0  0  0  0  0  0  0  0  0  0  0  0
  -16.6307   11.3614  -20.9857 C   0  0  0  0  0  0  0  0  0  0  0  0
  -16.6127   10.4777  -19.9342 C   0  0  0  0  0  0  0  0  0  0  0  0
  -16.1313    9.1936  -20.1200 O   0  0  0  0  0  0  0  0  0  0  0  0
  -17.0803   10.9121  -18.7248 C   0  0  0  0  0  0  0  0  0  0  0  0
  -17.5417   12.2081  -18.6345 C   0  0  0  0  0  0  0  0  0  0  0  0
  -16.9954   13.5421  -22.1083 C   0  0  0  0  0  0  0  0  0  0  0  0
  -15.1514    9.0010  -19.9731 H   0  0  0  0  0  0  0  0  0  0  0  0
  -19.1945   16.1320  -18.6523 C   0  0  0  0  0  0  0  0  0  0  0  0
  -19.1701   15.4436  -17.3325 C   0  0  0  0  0  0  0  0  0  0  0  0
  1  2  1  0  0  0
  2  3  1  0  0  0
  3  4  1  0  0  0
  4  5  1  0  0  0
  5  6  1  0  0  0
  6  7  1  0  0  0
  6  8  1  0  0  0
  6  9  1  0  0  0
  9 10  1  0  0  0
 10 11  2  0  0  0
 10 12  1  0  0  0
 12 23  1  0  0  0
 23 24  1  0  0  0
 12 13  1  0  0  0
 13 14  1  0  0  0
 14 15  2  0  0  0
 15 16  1  0  0  0
 16 17  2  0  0  0
 17 18  1  0  0  0
 17 19  1  0  0  0
 19 20  2  0  0  0
 15 21  1  0  0  0
 21  1  1  0  0  0
  9  2  1  0  0  0
 20 14  1  0  0  0
 18 22  1  0  0  0
M  END
> <minimizedAffinity>
-7.53484

> <CNNscore>
0.4771229029

> <CNNaffinity>
6.1354546547

> <CNN_VS>
2.9273660183

> <CNNaffinity_variance>
0.1862407476

$$$$
[H]Oc1c([H])c([H])c2c(c1[H])C([H])([H])C([H])([H])[C@]1([H])C([H])([H])C([H])([H])C([H])([H])C(C([H])([H])[H])(C([H])([H])[H])[C@@]1([H])C(=O)[C@]([H])(C([H])([H])C([H])([H])[H])O2


 24 26  0  0  0  0  0  0  0  0999 V2000
  -18.0895   14.9415  -19.5246 C   0  0  0  0  0  0  0  0  0  0  0  0
  -18.6694   16.1222  -20.3117 C   0  0  0  0  0  0  0  0  0  0  0  0
  -20.1291   16.2741  -20.0660 C   0  0  0  0  0  0  0  0  0  0  0  0
  -20.6014   17.5399  -20.7716 C   0  0  0  0  0  0  0  0  0  0  0  0
  -20.2943   17.4527  -22.2523 C   0  0  0  0  0  0  0  0  0  0  0  0
  -18.8237   17.2033  -22.4978 C   0  0  0  0  0  0  0  0  0  0  0  0
  -18.0815   18.4344  -22.1214 C   0  0  0  0  0  0  0  0  0  0  0  0
  -18.6866   17.0401  -24.0072 C   0  0  0  0  0  0  0  0  0  0  0  0
  -18.4317   15.9485  -21.7773 C   0  0  0  0  0  0  0  0  0  0  0  0
  -17.0351   15.5442  -22.0748 C   0  0  0  0  0  0  0  0  0  0  0  0
  -16.2239   16.4997  -22.0732 O   0  0  0  0  0  0  0  0  0  0  0  0
  -16.4996   14.2223  -22.3601 C   0  0  0  0  0  0  0  0  0  0  0  0
  -17.1946   13.0902  -22.0339 O   0  0  0  0  0  0  0  0  0  0  0  0
  -17.2662   12.1716  -21.0419 C   0  0  0  0  0  0  0  0  0  0  0  0
  -18.0442   12.4502  -19.9084 C   0  0  0  0  0  0  0  0  0  0  0  0
  -18.0986   11.5054  -18.9116 C   0  0  0  0  0  0  0  0  0  0  0  0
  -17.4463   10.2969  -18.9394 C   0  0  0  0  0  0  0  0  0  0  0  0
  -17.5726    9.4199  -17.8764 O   0  0  0  0  0  0  0  0  0  0  0  0
  -16.6849   10.0054  -20.0372 C   0  0  0  0  0  0  0  0  0  0  0  0
  -16.6172   10.9412  -21.0474 C   0  0  0  0  0  0  0  0  0  0  0  0
  -18.8473   13.6983  -19.7945 C   0  0  0  0  0  0  0  0  0  0  0  0
  -18.3151    8.7360  -17.8780 H   0  0  0  0  0  0  0  0  0  0  0  0
  -16.3039   14.0851  -23.9017 C   0  0  0  0  0  0  0  0  0  0  0  0
  -17.5232   13.5417  -24.5607 C   0  0  0  0  0  0  0  0  0  0  0  0
  1  2  1  0  0  0
  2  3  1  0  0  0
  3  4  1  0  0  0
  4  5  1  0  0  0
  5  6  1  0  0  0
  6  7  1  0  0  0
  6  8  1  0  0  0
  6  9  1  0  0  0
  9 10  1  0  0  0
 10 11  2  0  0  0
 10 12  1  0  0  0
 12 23  1  0  0  0
 23 24  1  0  0  0
 12 13  1  0  0  0
 13 14  1  0  0  0
 14 15  2  0  0  0
 15 16  1  0  0  0
 16 17  2  0  0  0
 17 18  1  0  0  0
 17 19  1  0  0  0
 19 20  2  0  0  0
 15 21  1  0  0  0
 21  1  1  0  0  0
  9  2  1  0  0  0
 20 14  1  0  0  0
 18 22  1  0  0  0
M  END
> <minimizedAffinity>
-8.63513

> <CNNscore>
0.4681132138

> <CNNaffinity>
6.3642296791

> <CNN_VS>
2.9791800976

> <CNNaffinity_variance>
0.1471631974

$$$$
[H]Oc1c([H])c([H])c2c(c1[H])C([H])([H])C([H])([H])[C@]1([H])C([H])([H])C([H])([H])C([H])([H])C(C([H])([H])[H])(C([H])([H])[H])[C@@]1([H])C(=O)[C@]([H])(C([H])([H])C([H])([H])[H])O2


 24 26  0  0  0  0  0  0  0  0999 V2000
  -18.2520   15.9584  -21.2403 C   0  0  0  0  0  0  0  0  0  0  0  0
  -18.6819   15.6307  -19.8058 C   0  0  0  0  0  0  0  0  0  0  0  0
  -18.0296   16.5375  -18.8228 C   0  0  0  0  0  0  0  0  0  0  0  0
  -18.6064   16.2388  -17.4439 C   0  0  0  0  0  0  0  0  0  0  0  0
  -18.3790   14.7832  -17.0918 C   0  0  0  0  0  0  0  0  0  0  0  0
  -18.9601   13.8635  -18.1412 C   0  0  0  0  0  0  0  0  0  0  0  0
  -20.4412   13.9522  -18.0582 C   0  0  0  0  0  0  0  0  0  0  0  0
  -18.5696   12.4553  -17.7074 C   0  0  0  0  0  0  0  0  0  0  0  0
  -18.3499   14.2136  -19.4650 C   0  0  0  0  0  0  0  0  0  0  0  0
  -18.7547   13.2696  -20.5362 C   0  0  0  0  0  0  0  0  0  0  0  0
  -19.9724   12.9730  -20.5112 O   0  0  0  0  0  0  0  0  0  0  0  0
  -17.9469   12.6606  -21.5812 C   0  0  0  0  0  0  0  0  0  0  0  0
  -16.7288   13.1777  -21.9277 O   0  0  0  0  0  0  0  0  0  0  0  0
  -16.1832   14.0102  -22.8455 C   0  0  0  0  0  0  0  0  0  0  0  0
  -16.2173   15.3938  -22.6177 C   0  0  0  0  0  0  0  0  0  0  0  0
  -15.6616   16.2204  -23.5649 C   0  0  0  0  0  0  0  0  0  0  0  0
  -15.0676   15.7936  -24.7276 C   0  0  0  0  0  0  0  0  0  0  0  0
  -14.5397   16.7175  -25.6124 O   0  0  0  0  0  0  0  0  0  0  0  0
  -15.0219   14.4480  -24.9667 C   0  0  0  0  0  0  0  0  0  0  0  0
  -15.5750   13.6027  -24.0284 C   0  0  0  0  0  0  0  0  0  0  0  0
  -16.7764   15.9698  -21.3642 C   0  0  0  0  0  0  0  0  0  0  0  0
  -13.5764   17.0044  -25.5199 H   0  0  0  0  0  0  0  0  0  0  0  0
  -17.6030   11.1990  -21.1581 C   0  0  0  0  0  0  0  0  0  0  0  0
  -16.3688   11.1470  -20.3272 C   0  0  0  0  0  0  0  0  0  0  0  0
  1  2  1  0  0  0
  2  3  1  0  0  0
  3  4  1  0  0  0
  4  5  1  0  0  0
  5  6  1  0  0  0
  6  7  1  0  0  0
  6  8  1  0  0  0
  6  9  1  0  0  0
  9 10  1  0  0  0
 10 11  2  0  0  0
 10 12  1  0  0  0
 12 23  1  0  0  0
 23 24  1  0  0  0
 12 13  1  0  0  0
 13 14  1  0  0  0
 14 15  2  0  0  0
 15 16  1  0  0  0
 16 17  2  0  0  0
 17 18  1  0  0  0
 17 19  1  0  0  0
 19 20  2  0  0  0
 15 21  1  0  0  0
 21  1  1  0  0  0
  9  2  1  0  0  0
 20 14  1  0  0  0
 18 22  1  0  0  0
M  END
> <minimizedAffinity>
-8.93018

> <CNNscore>
0.4065114856

> <CNNaffinity>
6.1297245026

> <CNN_VS>
2.4918034077

> <CNNaffinity_variance>
0.1053608209

$$$$
[H]Oc1c([H])c([H])c2c(c1[H])C([H])([H])C([H])([H])[C@]1([H])C([H])([H])C([H])([H])C([H])([H])C(C([H])([H])[H])(C([H])([H])[H])[C@@]1([H])C(=O)[C@]([H])(C([H])([H])C([H])([H])[H])O2


 24 26  0  0  0  0  0  0  0  0999 V2000
  -18.7053   14.4044  -21.4965 C   0  0  0  0  0  0  0  0  0  0  0  0
  -19.0419   15.8997  -21.4781 C   0  0  0  0  0  0  0  0  0  0  0  0
  -17.8195   16.7335  -21.6359 C   0  0  0  0  0  0  0  0  0  0  0  0
  -18.2487   18.1922  -21.7423 C   0  0  0  0  0  0  0  0  0  0  0  0
  -19.0371   18.5910  -20.5118 C   0  0  0  0  0  0  0  0  0  0  0  0
  -20.2265   17.6826  -20.2994 C   0  0  0  0  0  0  0  0  0  0  0  0
  -21.2125   17.9599  -21.3760 C   0  0  0  0  0  0  0  0  0  0  0  0
  -20.8547   18.1375  -18.9871 C   0  0  0  0  0  0  0  0  0  0  0  0
  -19.7307   16.2711  -20.2044 C   0  0  0  0  0  0  0  0  0  0  0  0
  -20.8137   15.3188  -19.8544 C   0  0  0  0  0  0  0  0  0  0  0  0
  -21.8838   15.5246  -20.4739 O   0  0  0  0  0  0  0  0  0  0  0  0
  -20.7969   14.2097  -18.9135 C   0  0  0  0  0  0  0  0  0  0  0  0
  -19.6191   13.6734  -18.4706 O   0  0  0  0  0  0  0  0  0  0  0  0
  -18.7830   12.6454  -18.7484 C   0  0  0  0  0  0  0  0  0  0  0  0
  -17.8267   12.7982  -19.7632 C   0  0  0  0  0  0  0  0  0  0  0  0
  -16.9916   11.7399  -20.0313 C   0  0  0  0  0  0  0  0  0  0  0  0
  -17.0185   10.5333  -19.3755 C   0  0  0  0  0  0  0  0  0  0  0  0
  -16.1280    9.5351  -19.7300 O   0  0  0  0  0  0  0  0  0  0  0  0
  -17.9419   10.3656  -18.3809 C   0  0  0  0  0  0  0  0  0  0  0  0
  -18.7893   11.4157  -18.0979 C   0  0  0  0  0  0  0  0  0  0  0  0
  -17.6601   14.0817  -20.4984 C   0  0  0  0  0  0  0  0  0  0  0  0
  -15.2301    9.4804  -19.2718 H   0  0  0  0  0  0  0  0  0  0  0  0
  -21.4966   14.6632  -17.5950 C   0  0  0  0  0  0  0  0  0  0  0  0
  -20.5249   15.2617  -16.6391 C   0  0  0  0  0  0  0  0  0  0  0  0
  1  2  1  0  0  0
  2  3  1  0  0  0
  3  4  1  0  0  0
  4  5  1  0  0  0
  5  6  1  0  0  0
  6  7  1  0  0  0
  6  8  1  0  0  0
  6  9  1  0  0  0
  9 10  1  0  0  0
 10 11  2  0  0  0
 10 12  1  0  0  0
 12 23  1  0  0  0
 23 24  1  0  0  0
 12 13  1  0  0  0
 13 14  1  0  0  0
 14 15  2  0  0  0
 15 16  1  0  0  0
 16 17  2  0  0  0
 17 18  1  0  0  0
 17 19  1  0  0  0
 19 20  2  0  0  0
 15 21  1  0  0  0
 21  1  1  0  0  0
  9  2  1  0  0  0
 20 14  1  0  0  0
 18 22  1  0  0  0
M  END
> <minimizedAffinity>
-7.86027

> <CNNscore>
0.3912062943

> <CNNaffinity>
5.8723220825

> <CNN_VS>
2.2972893715

> <CNNaffinity_variance>
0.1077945828

$$$$
[H]Oc1c([H])c([H])c2c(c1[H])C([H])([H])C([H])([H])[C@]1([H])C([H])([H])C([H])([H])C([H])([H])C(C([H])([H])[H])(C([H])([H])[H])[C@@]1([H])C(=O)[C@]([H])(C([H])([H])C([H])([H])[H])O2


 24 26  0  0  0  0  0  0  0  0999 V2000
  -21.2517   19.7848  -18.6328 C   0  0  0  0  0  0  0  0  0  0  0  0
  -21.4260   19.7605  -17.1101 C   0  0  0  0  0  0  0  0  0  0  0  0
  -20.4023   20.6017  -16.4328 C   0  0  0  0  0  0  0  0  0  0  0  0
  -20.7223   20.6336  -14.9429 C   0  0  0  0  0  0  0  0  0  0  0  0
  -20.7391   19.2248  -14.3866 C   0  0  0  0  0  0  0  0  0  0  0  0
  -21.7118   18.3454  -15.1384 C   0  0  0  0  0  0  0  0  0  0  0  0
  -23.0880   18.8010  -14.8114 C   0  0  0  0  0  0  0  0  0  0  0  0
  -21.5457   16.9532  -14.5403 C   0  0  0  0  0  0  0  0  0  0  0  0
  -21.3374   18.3619  -16.5899 C   0  0  0  0  0  0  0  0  0  0  0  0
  -22.1517   17.4135  -17.3899 C   0  0  0  0  0  0  0  0  0  0  0  0
  -23.3706   17.4272  -17.0980 O   0  0  0  0  0  0  0  0  0  0  0  0
  -21.7328   16.4961  -18.4380 C   0  0  0  0  0  0  0  0  0  0  0  0
  -20.5351   16.6525  -19.0801 O   0  0  0  0  0  0  0  0  0  0  0  0
  -20.0334   17.2012  -20.2116 C   0  0  0  0  0  0  0  0  0  0  0  0
  -19.7240   18.5692  -20.2279 C   0  0  0  0  0  0  0  0  0  0  0  0
  -19.2204   19.1059  -21.3888 C   0  0  0  0  0  0  0  0  0  0  0  0
  -18.9918   18.4003  -22.5449 C   0  0  0  0  0  0  0  0  0  0  0  0
  -18.4807   19.0455  -23.6575 O   0  0  0  0  0  0  0  0  0  0  0  0
  -19.2845   17.0646  -22.5483 C   0  0  0  0  0  0  0  0  0  0  0  0
  -19.7915   16.5081  -21.3933 C   0  0  0  0  0  0  0  0  0  0  0  0
  -19.8684   19.4215  -19.0161 C   0  0  0  0  0  0  0  0  0  0  0  0
  -17.4813   19.0994  -23.7889 H   0  0  0  0  0  0  0  0  0  0  0  0
  -21.6247   15.0625  -17.8326 C   0  0  0  0  0  0  0  0  0  0  0  0
  -20.2472   14.7781  -17.3449 C   0  0  0  0  0  0  0  0  0  0  0  0
  1  2  1  0  0  0
  2  3  1  0  0  0
  3  4  1  0  0  0
  4  5  1  0  0  0
  5  6  1  0  0  0
  6  7  1  0  0  0
  6  8  1  0  0  0
  6  9  1  0  0  0
  9 10  1  0  0  0
 10 11  2  0  0  0
 10 12  1  0  0  0
 12 23  1  0  0  0
 23 24  1  0  0  0
 12 13  1  0  0  0
 13 14  1  0  0  0
 14 15  2  0  0  0
 15 16  1  0  0  0
 16 17  2  0  0  0
 17 18  1  0  0  0
 17 19  1  0  0  0
 19 20  2  0  0  0
 15 21  1  0  0  0
 21  1  1  0  0  0
  9  2  1  0  0  0
 20 14  1  0  0  0
 18 22  1  0  0  0
M  END
> <minimizedAffinity>
-4.44361

> <CNNscore>
0.3766488731

> <CNNaffinity>
5.0996527672

> <CNN_VS>
1.9207785130

> <CNNaffinity_variance>
0.2978135347

$$$$
[H]C1=C=C(S(=O)(=O)N([H])[C@@]([H])(N([H])[H])C([H])([H])c2c([H])c([H])c([H])c([N+](=O)[O-])c2[H])C([H])=C1[H]


 24 25  0  0  0  0  0  0  0  0999 V2000
  -18.3902   14.4186  -16.6107 N   0  0  0  0  0  0  0  0  0  0  0  0
  -18.9732   14.5725  -17.9414 C   0  0  0  0  0  0  0  0  0  0  0  0
  -18.8685   15.0248  -15.9104 H   0  0  0  0  0  0  0  0  0  0  0  0
  -17.3574   14.5525  -16.6256 H   0  0  0  0  0  0  0  0  0  0  0  0
  -19.6083   15.8479  -17.9814 N   0  0  0  0  0  0  0  0  0  0  0  0
  -19.2091   16.5672  -17.3741 H   0  0  0  0  0  0  0  0  0  0  0  0
  -19.9181   16.3679  -19.5877 S   0  0  0  0  0  0  0  0  0  0  0  0
  -21.2123   15.8775  -20.1178 O   0  0  0  0  0  0  0  0  0  0  0  0
  -19.9994   17.8866  -19.5615 O   0  0  0  0  0  0  0  0  0  0  0  0
  -18.5892   15.9123  -20.5869 C   0  0  0  0  0  0  0  0  0  0  0  0
  -18.5775   14.9717  -21.6817 C   0  0  0  0  0  0  0  0  0  0  0  0
  -17.3163   14.9152  -22.1382 C   0  0  0  0  0  0  0  0  0  0  0  0
  -16.5150   15.8331  -21.3219 C   0  0  0  0  0  0  0  0  0  0  0  0
  -17.3766   16.3722  -20.4830 C   0  0  0  0  0  0  0  0  0  0  0  0
  -19.9285   13.4182  -18.1394 C   0  0  0  0  0  0  0  0  0  0  0  0
  -19.1219   12.1796  -18.3425 C   0  0  0  0  0  0  0  0  0  0  0  0
  -19.2509   11.0798  -17.5107 C   0  0  0  0  0  0  0  0  0  0  0  0
  -18.5078    9.9361  -17.6962 C   0  0  0  0  0  0  0  0  0  0  0  0
  -17.6108    9.8512  -18.7182 C   0  0  0  0  0  0  0  0  0  0  0  0
  -17.4545   10.9273  -19.5681 C   0  0  0  0  0  0  0  0  0  0  0  0
  -18.2065   12.0661  -19.3690 C   0  0  0  0  0  0  0  0  0  0  0  0
  -16.5277   10.8653  -20.6395 N   0  0  0  0  0  0  0  0  0  0  0  0
  -15.4926    9.9469  -20.5904 O   0  0  0  0  0  0  0  0  0  0  0  0
  -16.6537   11.6399  -21.6170 O   0  0  0  0  0  0  0  0  0  0  0  0
  1  2  1  0  0  0
  2 15  1  0  0  0
 15 16  1  0  0  0
 16 17  2  0  0  0
 17 18  1  0  0  0
 18 19  2  0  0  0
 19 20  1  0  0  0
 20 21  2  0  0  0
 20 22  1  0  0  0
 22 23  1  0  0  0
 22 24  2  0  0  0
  2  5  1  0  0  0
  5  7  1  0  0  0
  7  8  2  0  0  0
  7  9  2  0  0  0
  7 10  1  0  0  0
 10 11  1  0  0  0
 11 12  2  0  0  0
 12 13  1  0  0  0
 13 14  2  0  0  0
 21 16  1  0  0  0
 14 10  2  0  0  0
  1  3  1  0  0  0
  1  4  1  0  0  0
  5  6  1  0  0  0
M  CHG 1  22   1
M  CHG 1  23  -1
M  END
> <minimizedAffinity>
-6.70003

> <CNNscore>
0.3510684371

> <CNNaffinity>
5.4751257896

> <CNN_VS>
1.9221438169

> <CNNaffinity_variance>
0.1825642288

$$$$
[H]C1=C=C(S(=O)(=O)N([H])[C@@]([H])(N([H])[H])C([H])([H])c2c([H])c([H])c([H])c([N+](=O)[O-])c2[H])C([H])=C1[H]


 24 25  0  0  0  0  0  0  0  0999 V2000
  -16.8503   12.3579  -24.3279 N   0  0  0  0  0  0  0  0  0  0  0  0
  -17.0330   12.7703  -22.9383 C   0  0  0  0  0  0  0  0  0  0  0  0
  -16.1867   12.9859  -24.8298 H   0  0  0  0  0  0  0  0  0  0  0  0
  -17.7619   12.2532  -24.8207 H   0  0  0  0  0  0  0  0  0  0  0  0
  -16.7029   14.1547  -22.8597 N   0  0  0  0  0  0  0  0  0  0  0  0
  -15.7225   14.3719  -22.6667 H   0  0  0  0  0  0  0  0  0  0  0  0
  -17.3894   15.0591  -24.1472 S   0  0  0  0  0  0  0  0  0  0  0  0
  -18.6139   14.4379  -24.7053 O   0  0  0  0  0  0  0  0  0  0  0  0
  -17.7994   16.4097  -23.5801 O   0  0  0  0  0  0  0  0  0  0  0  0
  -16.1831   15.3190  -25.3509 C   0  0  0  0  0  0  0  0  0  0  0  0
  -14.7674   15.5295  -25.1644 C   0  0  0  0  0  0  0  0  0  0  0  0
  -14.2344   15.7211  -26.3815 C   0  0  0  0  0  0  0  0  0  0  0  0
  -15.3271   15.6310  -27.3556 C   0  0  0  0  0  0  0  0  0  0  0  0
  -16.3963   15.3619  -26.6337 C   0  0  0  0  0  0  0  0  0  0  0  0
  -16.1382   11.8898  -22.0968 C   0  0  0  0  0  0  0  0  0  0  0  0
  -16.8372   11.6177  -20.8071 C   0  0  0  0  0  0  0  0  0  0  0  0
  -16.9273   10.3398  -20.2809 C   0  0  0  0  0  0  0  0  0  0  0  0
  -17.5716   10.0865  -19.0913 C   0  0  0  0  0  0  0  0  0  0  0  0
  -18.1479   11.1001  -18.3864 C   0  0  0  0  0  0  0  0  0  0  0  0
  -18.0787   12.3873  -18.8791 C   0  0  0  0  0  0  0  0  0  0  0  0
  -17.4295   12.6248  -20.0724 C   0  0  0  0  0  0  0  0  0  0  0  0
  -18.6703   13.4604  -18.1655 N   0  0  0  0  0  0  0  0  0  0  0  0
  -19.8326   14.0383  -18.6476 O   0  0  0  0  0  0  0  0  0  0  0  0
  -18.1373   13.8742  -17.1091 O   0  0  0  0  0  0  0  0  0  0  0  0
  1  2  1  0  0  0
  2 15  1  0  0  0
 15 16  1  0  0  0
 16 17  2  0  0  0
 17 18  1  0  0  0
 18 19  2  0  0  0
 19 20  1  0  0  0
 20 21  2  0  0  0
 20 22  1  0  0  0
 22 23  1  0  0  0
 22 24  2  0  0  0
  2  5  1  0  0  0
  5  7  1  0  0  0
  7  8  2  0  0  0
  7  9  2  0  0  0
  7 10  1  0  0  0
 10 11  1  0  0  0
 11 12  2  0  0  0
 12 13  1  0  0  0
 13 14  2  0  0  0
 21 16  1  0  0  0
 14 10  2  0  0  0
  1  3  1  0  0  0
  1  4  1  0  0  0
  5  6  1  0  0  0
M  CHG 1  22   1
M  CHG 1  23  -1
M  END
> <minimizedAffinity>
-6.77447

> <CNNscore>
0.3385071754

> <CNNaffinity>
5.9143571854

> <CNN_VS>
2.0020523071

> <CNNaffinity_variance>
0.2304589748

$$$$
[H]C1=C=C(S(=O)(=O)N([H])[C@@]([H])(N([H])[H])C([H])([H])c2c([H])c([H])c([H])c([N+](=O)[O-])c2[H])C([H])=C1[H]


 24 25  0  0  0  0  0  0  0  0999 V2000
  -17.2415   16.3074  -20.8673 N   0  0  0  0  0  0  0  0  0  0  0  0
  -17.7868   15.3650  -21.8414 C   0  0  0  0  0  0  0  0  0  0  0  0
  -17.5946   17.2745  -21.0306 H   0  0  0  0  0  0  0  0  0  0  0  0
  -16.2021   16.2566  -20.8235 H   0  0  0  0  0  0  0  0  0  0  0  0
  -18.1679   16.1163  -22.9911 N   0  0  0  0  0  0  0  0  0  0  0  0
  -18.5806   17.0343  -22.8107 H   0  0  0  0  0  0  0  0  0  0  0  0
  -16.9507   16.1115  -24.2015 S   0  0  0  0  0  0  0  0  0  0  0  0
  -16.9392   17.3477  -25.0189 O   0  0  0  0  0  0  0  0  0  0  0  0
  -15.6082   16.0412  -23.4897 O   0  0  0  0  0  0  0  0  0  0  0  0
  -17.1291   14.6936  -25.1656 C   0  0  0  0  0  0  0  0  0  0  0  0
  -16.6786   14.4724  -26.5190 C   0  0  0  0  0  0  0  0  0  0  0  0
  -17.0707   13.2366  -26.8670 C   0  0  0  0  0  0  0  0  0  0  0  0
  -17.7805   12.6641  -25.7184 C   0  0  0  0  0  0  0  0  0  0  0  0
  -17.7149   13.5949  -24.7879 C   0  0  0  0  0  0  0  0  0  0  0  0
  -18.9445   14.6609  -21.1719 C   0  0  0  0  0  0  0  0  0  0  0  0
  -18.4271   13.4060  -20.5526 C   0  0  0  0  0  0  0  0  0  0  0  0
  -18.9041   12.9405  -19.3385 C   0  0  0  0  0  0  0  0  0  0  0  0
  -18.4284   11.7831  -18.7653 C   0  0  0  0  0  0  0  0  0  0  0  0
  -17.4605   11.0509  -19.3843 C   0  0  0  0  0  0  0  0  0  0  0  0
  -16.9604   11.4831  -20.5959 C   0  0  0  0  0  0  0  0  0  0  0  0
  -17.4475   12.6448  -21.1571 C   0  0  0  0  0  0  0  0  0  0  0  0
  -15.9525   10.7399  -21.2611 N   0  0  0  0  0  0  0  0  0  0  0  0
  -15.3365   11.2786  -22.3781 O   0  0  0  0  0  0  0  0  0  0  0  0
  -15.6302    9.6066  -20.8333 O   0  0  0  0  0  0  0  0  0  0  0  0
  1  2  1  0  0  0
  2 15  1  0  0  0
 15 16  1  0  0  0
 16 17  2  0  0  0
 17 18  1  0  0  0
 18 19  2  0  0  0
 19 20  1  0  0  0
 20 21  2  0  0  0
 20 22  1  0  0  0
 22 23  1  0  0  0
 22 24  2  0  0  0
  2  5  1  0  0  0
  5  7  1  0  0  0
  7  8  2  0  0  0
  7  9  2  0  0  0
  7 10  1  0  0  0
 10 11  1  0  0  0
 11 12  2  0  0  0
 12 13  1  0  0  0
 13 14  2  0  0  0
 21 16  1  0  0  0
 14 10  2  0  0  0
  1  3  1  0  0  0
  1  4  1  0  0  0
  5  6  1  0  0  0
M  CHG 1  22   1
M  CHG 1  23  -1
M  END
> <minimizedAffinity>
-7.44290

> <CNNscore>
0.2697093487

> <CNNaffinity>
5.9085311890

> <CNN_VS>
1.5935860872

> <CNNaffinity_variance>
0.1628458500

$$$$
[H]C1=C=C(S(=O)(=O)N([H])[C@@]([H])(N([H])[H])C([H])([H])c2c([H])c([H])c([H])c([N+](=O)[O-])c2[H])C([H])=C1[H]


 24 25  0  0  0  0  0  0  0  0999 V2000
  -17.0811   15.9924  -22.9357 N   0  0  0  0  0  0  0  0  0  0  0  0
  -17.6674   14.6543  -22.9233 C   0  0  0  0  0  0  0  0  0  0  0  0
  -17.5214   16.5969  -23.6618 H   0  0  0  0  0  0  0  0  0  0  0  0
  -16.0430   15.9565  -23.0121 H   0  0  0  0  0  0  0  0  0  0  0  0
  -18.2367   14.4286  -24.2103 N   0  0  0  0  0  0  0  0  0  0  0  0
  -18.6126   15.2524  -24.6854 H   0  0  0  0  0  0  0  0  0  0  0  0
  -17.2412   13.4350  -25.1945 S   0  0  0  0  0  0  0  0  0  0  0  0
  -16.3325   12.5653  -24.4109 O   0  0  0  0  0  0  0  0  0  0  0  0
  -18.1617   12.5149  -25.9819 O   0  0  0  0  0  0  0  0  0  0  0  0
  -16.3872   14.4334  -26.3106 C   0  0  0  0  0  0  0  0  0  0  0  0
  -16.6303   14.6029  -27.7232 C   0  0  0  0  0  0  0  0  0  0  0  0
  -15.6958   15.4489  -28.1845 C   0  0  0  0  0  0  0  0  0  0  0  0
  -14.8464   15.8227  -27.0488 C   0  0  0  0  0  0  0  0  0  0  0  0
  -15.3731   15.1941  -26.0173 C   0  0  0  0  0  0  0  0  0  0  0  0
  -18.6822   14.6289  -21.8036 C   0  0  0  0  0  0  0  0  0  0  0  0
  -18.3659   13.4701  -20.9186 C   0  0  0  0  0  0  0  0  0  0  0  0
  -19.0400   13.2554  -19.7280 C   0  0  0  0  0  0  0  0  0  0  0  0
  -18.7499   12.1871  -18.9100 C   0  0  0  0  0  0  0  0  0  0  0  0
  -17.7773   11.2967  -19.2527 C   0  0  0  0  0  0  0  0  0  0  0  0
  -17.0837   11.4776  -20.4320 C   0  0  0  0  0  0  0  0  0  0  0  0
  -17.3862   12.5530  -21.2407 C   0  0  0  0  0  0  0  0  0  0  0  0
  -16.0664   10.5658  -20.8121 N   0  0  0  0  0  0  0  0  0  0  0  0
  -15.2452   10.8720  -21.8840 O   0  0  0  0  0  0  0  0  0  0  0  0
  -15.9210    9.4953  -20.1764 O   0  0  0  0  0  0  0  0  0  0  0  0
  1  2  1  0  0  0
  2 15  1  0  0  0
 15 16  1  0  0  0
 16 17  2  0  0  0
 17 18  1  0  0  0
 18 19  2  0  0  0
 19 20  1  0  0  0
 20 21  2  0  0  0
 20 22  1  0  0  0
 22 23  1  0  0  0
 22 24  2  0  0  0
  2  5  1  0  0  0
  5  7  1  0  0  0
  7  8  2  0  0  0
  7  9  2  0  0  0
  7 10  1  0  0  0
 10 11  1  0  0  0
 11 12  2  0  0  0
 12 13  1  0  0  0
 13 14  2  0  0  0
 21 16  1  0  0  0
 14 10  2  0  0  0
  1  3  1  0  0  0
  1  4  1  0  0  0
  5  6  1  0  0  0
M  CHG 1  22   1
M  CHG 1  23  -1
M  END
> <minimizedAffinity>
-7.89293

> <CNNscore>
0.2634883523

> <CNNaffinity>
5.7304182053

> <CNN_VS>
1.5098984241

> <CNNaffinity_variance>
0.4437235296

$$$$
[H]C1=C=C(S(=O)(=O)N([H])[C@@]([H])(N([H])[H])C([H])([H])c2c([H])c([H])c([H])c([N+](=O)[O-])c2[H])C([H])=C1[H]


 24 25  0  0  0  0  0  0  0  0999 V2000
  -18.6569   14.0608  -16.3113 N   0  0  0  0  0  0  0  0  0  0  0  0
  -19.4676   14.0473  -17.5266 C   0  0  0  0  0  0  0  0  0  0  0  0
  -19.2484   13.9951  -15.4555 H   0  0  0  0  0  0  0  0  0  0  0  0
  -18.0052   14.8730  -16.2930 H   0  0  0  0  0  0  0  0  0  0  0  0
  -20.7742   14.4912  -17.1700 N   0  0  0  0  0  0  0  0  0  0  0  0
  -21.1059   14.2116  -16.2440 H   0  0  0  0  0  0  0  0  0  0  0  0
  -21.0193   16.1494  -17.5402 S   0  0  0  0  0  0  0  0  0  0  0  0
  -20.3638   16.5659  -18.8024 O   0  0  0  0  0  0  0  0  0  0  0  0
  -22.5146   16.3516  -17.7322 O   0  0  0  0  0  0  0  0  0  0  0  0
  -20.5107   17.1015  -16.1960 C   0  0  0  0  0  0  0  0  0  0  0  0
  -19.3191   17.9066  -16.0729 C   0  0  0  0  0  0  0  0  0  0  0  0
  -19.3281   18.4366  -14.8396 C   0  0  0  0  0  0  0  0  0  0  0  0
  -20.5429   17.9616  -14.1692 C   0  0  0  0  0  0  0  0  0  0  0  0
  -21.1566   17.2249  -15.0733 C   0  0  0  0  0  0  0  0  0  0  0  0
  -19.4372   12.6335  -18.0600 C   0  0  0  0  0  0  0  0  0  0  0  0
  -18.6939   12.6429  -19.3536 C   0  0  0  0  0  0  0  0  0  0  0  0
  -18.9352   13.5979  -20.3273 C   0  0  0  0  0  0  0  0  0  0  0  0
  -18.2506   13.6086  -21.5214 C   0  0  0  0  0  0  0  0  0  0  0  0
  -17.3021   12.6665  -21.7843 C   0  0  0  0  0  0  0  0  0  0  0  0
  -17.0339   11.6985  -20.8379 C   0  0  0  0  0  0  0  0  0  0  0  0
  -17.7283   11.7014  -19.6464 C   0  0  0  0  0  0  0  0  0  0  0  0
  -16.0518   10.7063  -21.0863 N   0  0  0  0  0  0  0  0  0  0  0  0
  -16.0050    9.5800  -20.2822 O   0  0  0  0  0  0  0  0  0  0  0  0
  -15.2382   10.8579  -22.0279 O   0  0  0  0  0  0  0  0  0  0  0  0
  1  2  1  0  0  0
  2 15  1  0  0  0
 15 16  1  0  0  0
 16 17  2  0  0  0
 17 18  1  0  0  0
 18 19  2  0  0  0
 19 20  1  0  0  0
 20 21  2  0  0  0
 20 22  1  0  0  0
 22 23  1  0  0  0
 22 24  2  0  0  0
  2  5  1  0  0  0
  5  7  1  0  0  0
  7  8  2  0  0  0
  7  9  2  0  0  0
  7 10  1  0  0  0
 10 11  1  0  0  0
 11 12  2  0  0  0
 12 13  1  0  0  0
 13 14  2  0  0  0
 21 16  1  0  0  0
 14 10  2  0  0  0
  1  3  1  0  0  0
  1  4  1  0  0  0
  5  6  1  0  0  0
M  CHG 1  22   1
M  CHG 1  23  -1
M  END
> <minimizedAffinity>
-6.16361

> <CNNscore>
0.2491681576

> <CNNaffinity>
5.0574588776

> <CNN_VS>
1.2601577044

> <CNNaffinity_variance>
0.1002110392

$$$$
[H]C1=C=C(S(=O)(=O)N([H])[C@@]([H])(N([H])[H])C([H])([H])c2c([H])c([H])c([H])c([N+](=O)[O-])c2[H])C([H])=C1[H]


 24 25  0  0  0  0  0  0  0  0999 V2000
  -19.9091   16.7459  -21.4655 N   0  0  0  0  0  0  0  0  0  0  0  0
  -18.7687   15.8650  -21.7063 C   0  0  0  0  0  0  0  0  0  0  0  0
  -19.8157   17.2549  -20.5606 H   0  0  0  0  0  0  0  0  0  0  0  0
  -20.8134   16.2367  -21.5535 H   0  0  0  0  0  0  0  0  0  0  0  0
  -18.1882   15.5666  -20.4392 N   0  0  0  0  0  0  0  0  0  0  0  0
  -18.0764   16.3566  -19.7997 H   0  0  0  0  0  0  0  0  0  0  0  0
  -18.8776   14.1669  -19.7236 S   0  0  0  0  0  0  0  0  0  0  0  0
  -19.0711   14.2979  -18.2601 O   0  0  0  0  0  0  0  0  0  0  0  0
  -20.2576   13.9814  -20.3360 O   0  0  0  0  0  0  0  0  0  0  0  0
  -17.9129   12.7984  -20.1341 C   0  0  0  0  0  0  0  0  0  0  0  0
  -17.3244   11.8234  -19.2474 C   0  0  0  0  0  0  0  0  0  0  0  0
  -16.6326   10.9636  -20.0117 C   0  0  0  0  0  0  0  0  0  0  0  0
  -16.7837   11.3983  -21.4042 C   0  0  0  0  0  0  0  0  0  0  0  0
  -17.5748   12.4504  -21.3413 C   0  0  0  0  0  0  0  0  0  0  0  0
  -17.8336   16.6007  -22.6383 C   0  0  0  0  0  0  0  0  0  0  0  0
  -16.9967   15.5893  -23.3473 C   0  0  0  0  0  0  0  0  0  0  0  0
  -15.7196   15.2683  -22.9183 C   0  0  0  0  0  0  0  0  0  0  0  0
  -14.9458   14.3355  -23.5707 C   0  0  0  0  0  0  0  0  0  0  0  0
  -15.4204   13.6914  -24.6735 C   0  0  0  0  0  0  0  0  0  0  0  0
  -16.6890   13.9848  -25.1310 C   0  0  0  0  0  0  0  0  0  0  0  0
  -17.4518   14.9218  -24.4662 C   0  0  0  0  0  0  0  0  0  0  0  0
  -17.2070   13.3290  -26.2766 N   0  0  0  0  0  0  0  0  0  0  0  0
  -17.9912   12.1992  -26.1165 O   0  0  0  0  0  0  0  0  0  0  0  0
  -16.9507   13.7768  -27.4191 O   0  0  0  0  0  0  0  0  0  0  0  0
  1  2  1  0  0  0
  2 15  1  0  0  0
 15 16  1  0  0  0
 16 17  2  0  0  0
 17 18  1  0  0  0
 18 19  2  0  0  0
 19 20  1  0  0  0
 20 21  2  0  0  0
 20 22  1  0  0  0
 22 23  1  0  0  0
 22 24  2  0  0  0
  2  5  1  0  0  0
  5  7  1  0  0  0
  7  8  2  0  0  0
  7  9  2  0  0  0
  7 10  1  0  0  0
 10 11  1  0  0  0
 11 12  2  0  0  0
 12 13  1  0  0  0
 13 14  2  0  0  0
 21 16  1  0  0  0
 14 10  2  0  0  0
  1  3  1  0  0  0
  1  4  1  0  0  0
  5  6  1  0  0  0
M  CHG 1  22   1
M  CHG 1  23  -1
M  END
> <minimizedAffinity>
-6.71590

> <CNNscore>
0.2445249408

> <CNNaffinity>
5.6413235664

> <CNN_VS>
1.3794443607

> <CNNaffinity_variance>
0.1407208741

$$$$
[H]C1=C=C(S(=O)(=O)N([H])[C@@]([H])(N([H])[H])C([H])([H])c2c([H])c([H])c([H])c([N+](=O)[O-])c2[H])C([H])=C1[H]


 24 25  0  0  0  0  0  0  0  0999 V2000
  -18.2815   14.0362  -16.6191 N   0  0  0  0  0  0  0  0  0  0  0  0
  -19.1068   13.6166  -17.7492 C   0  0  0  0  0  0  0  0  0  0  0  0
  -18.8599   14.2331  -15.7745 H   0  0  0  0  0  0  0  0  0  0  0  0
  -17.6535   14.8269  -16.8744 H   0  0  0  0  0  0  0  0  0  0  0  0
  -20.4212   14.1201  -17.5247 N   0  0  0  0  0  0  0  0  0  0  0  0
  -20.5841   14.5597  -16.6160 H   0  0  0  0  0  0  0  0  0  0  0  0
  -21.0080   15.0204  -18.8634 S   0  0  0  0  0  0  0  0  0  0  0  0
  -21.5556   14.1657  -19.9432 O   0  0  0  0  0  0  0  0  0  0  0  0
  -22.1553   15.8820  -18.3584 O   0  0  0  0  0  0  0  0  0  0  0  0
  -19.7547   16.0611  -19.4274 C   0  0  0  0  0  0  0  0  0  0  0  0
  -19.0856   17.1210  -18.7117 C   0  0  0  0  0  0  0  0  0  0  0  0
  -18.2089   17.6777  -19.5624 C   0  0  0  0  0  0  0  0  0  0  0  0
  -18.3224   16.9613  -20.8371 C   0  0  0  0  0  0  0  0  0  0  0  0
  -19.2268   16.0285  -20.6161 C   0  0  0  0  0  0  0  0  0  0  0  0
  -19.0420   12.1076  -17.8049 C   0  0  0  0  0  0  0  0  0  0  0  0
  -18.1448   11.7244  -18.9337 C   0  0  0  0  0  0  0  0  0  0  0  0
  -17.3966   10.5592  -18.9084 C   0  0  0  0  0  0  0  0  0  0  0  0
  -16.5683   10.2037  -19.9486 C   0  0  0  0  0  0  0  0  0  0  0  0
  -16.4586   10.9989  -21.0494 C   0  0  0  0  0  0  0  0  0  0  0  0
  -17.1890   12.1683  -21.1109 C   0  0  0  0  0  0  0  0  0  0  0  0
  -18.0144   12.5106  -20.0605 C   0  0  0  0  0  0  0  0  0  0  0  0
  -17.0931   13.0142  -22.2449 N   0  0  0  0  0  0  0  0  0  0  0  0
  -16.5841   14.2934  -22.0975 O   0  0  0  0  0  0  0  0  0  0  0  0
  -17.4689   12.5973  -23.3658 O   0  0  0  0  0  0  0  0  0  0  0  0
  1  2  1  0  0  0
  2 15  1  0  0  0
 15 16  1  0  0  0
 16 17  2  0  0  0
 17 18  1  0  0  0
 18 19  2  0  0  0
 19 20  1  0  0  0
 20 21  2  0  0  0
 20 22  1  0  0  0
 22 23  1  0  0  0
 22 24  2  0  0  0
  2  5  1  0  0  0
  5  7  1  0  0  0
  7  8  2  0  0  0
  7  9  2  0  0  0
  7 10  1  0  0  0
 10 11  1  0  0  0
 11 12  2  0  0  0
 12 13  1  0  0  0
 13 14  2  0  0  0
 21 16  1  0  0  0
 14 10  2  0  0  0
  1  3  1  0  0  0
  1  4  1  0  0  0
  5  6  1  0  0  0
M  CHG 1  22   1
M  CHG 1  23  -1
M  END
> <minimizedAffinity>
-6.33039

> <CNNscore>
0.2322573513

> <CNNaffinity>
5.3394260406

> <CNN_VS>
1.2401210070

> <CNNaffinity_variance>
0.1665350199

$$$$
[H]C1=C=C(S(=O)(=O)N([H])[C@@]([H])(N([H])[H])C([H])([H])c2c([H])c([H])c([H])c([N+](=O)[O-])c2[H])C([H])=C1[H]


 24 25  0  0  0  0  0  0  0  0999 V2000
  -16.8119   12.7018  -24.7979 N   0  0  0  0  0  0  0  0  0  0  0  0
  -16.2958   13.1231  -23.4977 C   0  0  0  0  0  0  0  0  0  0  0  0
  -16.1752   12.9853  -25.5730 H   0  0  0  0  0  0  0  0  0  0  0  0
  -17.7937   13.0181  -24.9426 H   0  0  0  0  0  0  0  0  0  0  0  0
  -15.4150   14.2202  -23.7262 N   0  0  0  0  0  0  0  0  0  0  0  0
  -14.7315   14.0980  -24.4768 H   0  0  0  0  0  0  0  0  0  0  0  0
  -16.2455   15.7221  -23.7607 S   0  0  0  0  0  0  0  0  0  0  0  0
  -15.3613   16.8678  -24.0803 O   0  0  0  0  0  0  0  0  0  0  0  0
  -17.2795   15.6394  -24.8732 O   0  0  0  0  0  0  0  0  0  0  0  0
  -17.0740   15.9353  -22.2640 C   0  0  0  0  0  0  0  0  0  0  0  0
  -18.4967   16.0222  -22.0363 C   0  0  0  0  0  0  0  0  0  0  0  0
  -18.6729   16.2223  -20.7206 C   0  0  0  0  0  0  0  0  0  0  0  0
  -17.3432   16.2632  -20.1033 C   0  0  0  0  0  0  0  0  0  0  0  0
  -16.5064   16.0507  -21.0989 C   0  0  0  0  0  0  0  0  0  0  0  0
  -15.6139   11.9216  -22.8847 C   0  0  0  0  0  0  0  0  0  0  0  0
  -16.3152   11.5921  -21.6097 C   0  0  0  0  0  0  0  0  0  0  0  0
  -15.9842   10.4741  -20.8623 C   0  0  0  0  0  0  0  0  0  0  0  0
  -16.6297   10.1682  -19.6858 C   0  0  0  0  0  0  0  0  0  0  0  0
  -17.6275   10.9677  -19.2152 C   0  0  0  0  0  0  0  0  0  0  0  0
  -17.9853   12.0910  -19.9327 C   0  0  0  0  0  0  0  0  0  0  0  0
  -17.3289   12.3838  -21.1097 C   0  0  0  0  0  0  0  0  0  0  0  0
  -19.0206   12.9399  -19.4655 N   0  0  0  0  0  0  0  0  0  0  0  0
  -18.8852   13.5640  -18.2369 O   0  0  0  0  0  0  0  0  0  0  0  0
  -20.0447   13.1164  -20.1665 O   0  0  0  0  0  0  0  0  0  0  0  0
  1  2  1  0  0  0
  2 15  1  0  0  0
 15 16  1  0  0  0
 16 17  2  0  0  0
 17 18  1  0  0  0
 18 19  2  0  0  0
 19 20  1  0  0  0
 20 21  2  0  0  0
 20 22  1  0  0  0
 22 23  1  0  0  0
 22 24  2  0  0  0
  2  5  1  0  0  0
  5  7  1  0  0  0
  7  8  2  0  0  0
  7  9  2  0  0  0
  7 10  1  0  0  0
 10 11  1  0  0  0
 11 12  2  0  0  0
 12 13  1  0  0  0
 13 14  2  0  0  0
 21 16  1  0  0  0
 14 10  2  0  0  0
  1  3  1  0  0  0
  1  4  1  0  0  0
  5  6  1  0  0  0
M  CHG 1  22   1
M  CHG 1  23  -1
M  END
> <minimizedAffinity>
-6.56058

> <CNNscore>
0.2077959627

> <CNNaffinity>
5.6648035049

> <CNN_VS>
1.1771233082

> <CNNaffinity_variance>
0.1724125147

$$$$
[H]C1=C=C(S(=O)(=O)N([H])[C@@]([H])(N([H])[H])C([H])([H])c2c([H])c([H])c([H])c([N+](=O)[O-])c2[H])C([H])=C1[H]


 24 25  0  0  0  0  0  0  0  0999 V2000
  -15.1872   10.3387  -21.5425 N   0  0  0  0  0  0  0  0  0  0  0  0
  -16.3342   11.1651  -21.1741 C   0  0  0  0  0  0  0  0  0  0  0  0
  -15.4367    9.3270  -21.5690 H   0  0  0  0  0  0  0  0  0  0  0  0
  -14.3609   10.5376  -20.9403 H   0  0  0  0  0  0  0  0  0  0  0  0
  -17.2432   10.3338  -20.4570 N   0  0  0  0  0  0  0  0  0  0  0  0
  -17.1430    9.3270  -20.6054 H   0  0  0  0  0  0  0  0  0  0  0  0
  -17.3849   10.7973  -18.8103 S   0  0  0  0  0  0  0  0  0  0  0  0
  -17.9048    9.7129  -17.9441 O   0  0  0  0  0  0  0  0  0  0  0  0
  -15.9854   11.1260  -18.3131 O   0  0  0  0  0  0  0  0  0  0  0  0
  -18.3448   12.2260  -18.7141 C   0  0  0  0  0  0  0  0  0  0  0  0
  -18.1948   13.3425  -17.8118 C   0  0  0  0  0  0  0  0  0  0  0  0
  -19.1892   14.2030  -18.0820 C   0  0  0  0  0  0  0  0  0  0  0  0
  -19.9825   13.6250  -19.1717 C   0  0  0  0  0  0  0  0  0  0  0  0
  -19.3692   12.4971  -19.4691 C   0  0  0  0  0  0  0  0  0  0  0  0
  -16.9089   11.7176  -22.4580 C   0  0  0  0  0  0  0  0  0  0  0  0
  -16.6357   13.1839  -22.4941 C   0  0  0  0  0  0  0  0  0  0  0  0
  -17.1248   14.0418  -21.5230 C   0  0  0  0  0  0  0  0  0  0  0  0
  -16.8739   15.3948  -21.5542 C   0  0  0  0  0  0  0  0  0  0  0  0
  -16.1262   15.9376  -22.5555 C   0  0  0  0  0  0  0  0  0  0  0  0
  -15.6216   15.1141  -23.5413 C   0  0  0  0  0  0  0  0  0  0  0  0
  -15.8818   13.7605  -23.4960 C   0  0  0  0  0  0  0  0  0  0  0  0
  -14.8406   15.6533  -24.5950 N   0  0  0  0  0  0  0  0  0  0  0  0
  -13.7421   14.9479  -25.0563 O   0  0  0  0  0  0  0  0  0  0  0  0
  -15.1512   16.7593  -25.0967 O   0  0  0  0  0  0  0  0  0  0  0  0
  1  2  1  0  0  0
  2 15  1  0  0  0
 15 16  1  0  0  0
 16 17  2  0  0  0
 17 18  1  0  0  0
 18 19  2  0  0  0
 19 20  1  0  0  0
 20 21  2  0  0  0
 20 22  1  0  0  0
 22 23  1  0  0  0
 22 24  2  0  0  0
  2  5  1  0  0  0
  5  7  1  0  0  0
  7  8  2  0  0  0
  7  9  2  0  0  0
  7 10  1  0  0  0
 10 11  1  0  0  0
 11 12  2  0  0  0
 12 13  1  0  0  0
 13 14  2  0  0  0
 21 16  1  0  0  0
 14 10  2  0  0  0
  1  3  1  0  0  0
  1  4  1  0  0  0
  5  6  1  0  0  0
M  CHG 1  22   1
M  CHG 1  23  -1
M  END
> <minimizedAffinity>
-6.54542

> <CNNscore>
0.1947298646

> <CNNaffinity>
5.4481329918

> <CNN_VS>
1.0609141588

> <CNNaffinity_variance>
0.1922847331

$$$$
[H]OC([H])([H])C([H])([H])N([H])c1nc(N([H])c2c([H])c([H])c(C([H])=C3C([H])([H])C([H])([H])N([H])C([H])([H])C3([H])[H])c(C(F)(F)F)c2[H])nc([H])c1[H]


 32 34  0  0  0  0  0  0  0  0999 V2000
  -17.7477   13.6553  -20.4456 C   0  0  0  0  0  0  0  0  0  0  0  0
  -17.5992   12.7249  -19.4601 C   0  0  0  0  0  0  0  0  0  0  0  0
  -17.3477   11.3582  -19.6812 C   0  0  0  0  0  0  0  0  0  0  0  0
  -17.2571   10.9953  -20.9862 C   0  0  0  0  0  0  0  0  0  0  0  0
  -17.4062   11.9401  -22.0192 C   0  0  0  0  0  0  0  0  0  0  0  0
  -17.6502   13.2642  -21.7601 C   0  0  0  0  0  0  0  0  0  0  0  0
  -17.7627   14.1894  -22.8649 C   0  0  0  0  0  0  0  0  0  0  0  0
  -16.8108   14.8090  -23.4940 C   0  0  0  0  0  0  0  0  0  0  0  0
  -17.1517   15.7425  -24.6290 C   0  0  0  0  0  0  0  0  0  0  0  0
  -16.6230   15.0422  -25.8783 C   0  0  0  0  0  0  0  0  0  0  0  0
  -15.2475   14.6402  -25.7092 N   0  0  0  0  0  0  0  0  0  0  0  0
  -14.6668   15.2019  -24.5175 C   0  0  0  0  0  0  0  0  0  0  0  0
  -15.3531   14.6924  -23.2382 C   0  0  0  0  0  0  0  0  0  0  0  0
  -15.1160   13.6082  -25.6772 H   0  0  0  0  0  0  0  0  0  0  0  0
  -19.1787   15.5327  -20.6671 F   0  0  0  0  0  0  0  0  0  0  0  0
  -18.0211   15.0994  -20.0947 C   0  0  0  0  0  0  0  0  0  0  0  0
  -18.2389   15.1418  -18.7169 F   0  0  0  0  0  0  0  0  0  0  0  0
  -16.9087   15.8254  -20.3606 F   0  0  0  0  0  0  0  0  0  0  0  0
  -17.2300   10.4950  -18.5827 N   0  0  0  0  0  0  0  0  0  0  0  0
  -16.2713   10.0605  -18.4210 H   0  0  0  0  0  0  0  0  0  0  0  0
  -18.2502   10.1601  -17.6880 C   0  0  0  0  0  0  0  0  0  0  0  0
  -19.3636   10.8613  -17.4519 N   0  0  0  0  0  0  0  0  0  0  0  0
  -20.3347   10.5433  -16.6050 C   0  0  0  0  0  0  0  0  0  0  0  0
  -20.2151    9.3824  -15.8818 C   0  0  0  0  0  0  0  0  0  0  0  0
  -19.0719    8.5955  -16.0785 C   0  0  0  0  0  0  0  0  0  0  0  0
  -18.1503    8.9985  -16.9516 N   0  0  0  0  0  0  0  0  0  0  0  0
  -18.9607    7.4043  -15.3144 N   0  0  0  0  0  0  0  0  0  0  0  0
  -18.0777    6.8278  -15.3661 H   0  0  0  0  0  0  0  0  0  0  0  0
  -20.0334    6.9722  -14.4698 C   0  0  0  0  0  0  0  0  0  0  0  0
  -20.0841    5.4844  -14.2382 C   0  0  0  0  0  0  0  0  0  0  0  0
  -18.8777    4.8861  -14.6234 O   0  0  0  0  0  0  0  0  0  0  0  0
  -18.5668    5.3291  -15.4551 H   0  0  0  0  0  0  0  0  0  0  0  0
 15 16  1  0  0  0
 16 17  1  0  0  0
 16 18  1  0  0  0
 16  1  1  0  0  0
  1  2  2  0  0  0
  2  3  1  0  0  0
  3 19  1  0  0  0
 19 21  1  0  0  0
 21 22  2  0  0  0
 22 23  1  0  0  0
 23 24  2  0  0  0
 24 25  1  0  0  0
 25 27  1  0  0  0
 27 29  1  0  0  0
 29 30  1  0  0  0
 30 31  1  0  0  0
 25 26  2  0  0  0
  3  4  2  0  0  0
  4  5  1  0  0  0
  5  6  2  0  0  0
  6  7  1  0  0  0
  7  8  2  0  0  0
  8  9  1  0  0  0
  9 10  1  0  0  0
 10 11  1  0  0  0
 11 12  1  0  0  0
 12 13  1  0  0  0
  6  1  1  0  0  0
 13  8  1  0  0  0
 26 21  1  0  0  0
 19 20  1  0  0  0
 27 28  1  0  0  0
 31 32  1  0  0  0
 11 14  1  0  0  0
M  END
> <minimizedAffinity>
-8.45727

> <CNNscore>
0.3692704439

> <CNNaffinity>
6.4766311646

> <CNN_VS>
2.3916285038

> <CNNaffinity_variance>
0.1852921695

$$$$
[H]OC([H])([H])C([H])([H])N([H])c1nc(N([H])c2c([H])c([H])c(C([H])=C3C([H])([H])C([H])([H])N([H])C([H])([H])C3([H])[H])c(C(F)(F)F)c2[H])nc([H])c1[H]


 32 34  0  0  0  0  0  0  0  0999 V2000
  -17.2049   11.5662  -20.3860 C   0  0  0  0  0  0  0  0  0  0  0  0
  -16.6166   11.7174  -21.6067 C   0  0  0  0  0  0  0  0  0  0  0  0
  -16.9959   12.6757  -22.5646 C   0  0  0  0  0  0  0  0  0  0  0  0
  -18.0261   13.4793  -22.1955 C   0  0  0  0  0  0  0  0  0  0  0  0
  -18.6469   13.3406  -20.9396 C   0  0  0  0  0  0  0  0  0  0  0  0
  -18.2455   12.3928  -20.0338 C   0  0  0  0  0  0  0  0  0  0  0  0
  -18.9040   12.3223  -18.7491 C   0  0  0  0  0  0  0  0  0  0  0  0
  -18.9406   13.2230  -17.8146 C   0  0  0  0  0  0  0  0  0  0  0  0
  -19.6908   12.9410  -16.5365 C   0  0  0  0  0  0  0  0  0  0  0  0
  -20.8914   13.8833  -16.5764 C   0  0  0  0  0  0  0  0  0  0  0  0
  -20.4817   15.2401  -16.8474 N   0  0  0  0  0  0  0  0  0  0  0  0
  -19.0519   15.3933  -16.7772 C   0  0  0  0  0  0  0  0  0  0  0  0
  -18.3237   14.5726  -17.8559 C   0  0  0  0  0  0  0  0  0  0  0  0
  -20.7996   15.5943  -17.7730 H   0  0  0  0  0  0  0  0  0  0  0  0
  -17.7518    9.7215  -19.0006 F   0  0  0  0  0  0  0  0  0  0  0  0
  -16.7198   10.4978  -19.4340 C   0  0  0  0  0  0  0  0  0  0  0  0
  -15.8907    9.6513  -20.1715 F   0  0  0  0  0  0  0  0  0  0  0  0
  -15.9640   11.0856  -18.4756 F   0  0  0  0  0  0  0  0  0  0  0  0
  -16.3227   12.7224  -23.7936 N   0  0  0  0  0  0  0  0  0  0  0  0
  -16.2657   11.8093  -24.3385 H   0  0  0  0  0  0  0  0  0  0  0  0
  -15.7279   13.8522  -24.3620 C   0  0  0  0  0  0  0  0  0  0  0  0
  -14.5479   13.9004  -24.9884 N   0  0  0  0  0  0  0  0  0  0  0  0
  -13.9832   14.9717  -25.5313 C   0  0  0  0  0  0  0  0  0  0  0  0
  -14.6522   16.1685  -25.4602 C   0  0  0  0  0  0  0  0  0  0  0  0
  -15.8974   16.1927  -24.8170 C   0  0  0  0  0  0  0  0  0  0  0  0
  -16.3827   15.0644  -24.3019 N   0  0  0  0  0  0  0  0  0  0  0  0
  -16.5696   17.4410  -24.7440 N   0  0  0  0  0  0  0  0  0  0  0  0
  -16.1714   18.2818  -25.2433 H   0  0  0  0  0  0  0  0  0  0  0  0
  -17.7862   17.5763  -24.0008 C   0  0  0  0  0  0  0  0  0  0  0  0
  -17.5951   17.9616  -22.5570 C   0  0  0  0  0  0  0  0  0  0  0  0
  -17.3740   16.8240  -21.7703 O   0  0  0  0  0  0  0  0  0  0  0  0
  -17.9697   16.1021  -22.0996 H   0  0  0  0  0  0  0  0  0  0  0  0
 15 16  1  0  0  0
 16 17  1  0  0  0
 16 18  1  0  0  0
 16  1  1  0  0  0
  1  2  2  0  0  0
  2  3  1  0  0  0
  3 19  1  0  0  0
 19 21  1  0  0  0
 21 22  2  0  0  0
 22 23  1  0  0  0
 23 24  2  0  0  0
 24 25  1  0  0  0
 25 27  1  0  0  0
 27 29  1  0  0  0
 29 30  1  0  0  0
 30 31  1  0  0  0
 25 26  2  0  0  0
  3  4  2  0  0  0
  4  5  1  0  0  0
  5  6  2  0  0  0
  6  7  1  0  0  0
  7  8  2  0  0  0
  8  9  1  0  0  0
  9 10  1  0  0  0
 10 11  1  0  0  0
 11 12  1  0  0  0
 12 13  1  0  0  0
  6  1  1  0  0  0
 13  8  1  0  0  0
 26 21  1  0  0  0
 19 20  1  0  0  0
 27 28  1  0  0  0
 31 32  1  0  0  0
 11 14  1  0  0  0
M  END
> <minimizedAffinity>
-8.31902

> <CNNscore>
0.3553696871

> <CNNaffinity>
6.4265165329

> <CNN_VS>
2.2837891579

> <CNNaffinity_variance>
0.1238880008

$$$$
[H]OC([H])([H])C([H])([H])N([H])c1nc(N([H])c2c([H])c([H])c(C([H])=C3C([H])([H])C([H])([H])N([H])C([H])([H])C3([H])[H])c(C(F)(F)F)c2[H])nc([H])c1[H]


 32 34  0  0  0  0  0  0  0  0999 V2000
  -17.7642   13.5143  -20.3847 C   0  0  0  0  0  0  0  0  0  0  0  0
  -17.6376   12.5599  -19.4191 C   0  0  0  0  0  0  0  0  0  0  0  0
  -17.3634   11.2023  -19.6670 C   0  0  0  0  0  0  0  0  0  0  0  0
  -17.2258   10.8747  -20.9772 C   0  0  0  0  0  0  0  0  0  0  0  0
  -17.3516   11.8446  -21.9898 C   0  0  0  0  0  0  0  0  0  0  0  0
  -17.6190   13.1588  -21.7048 C   0  0  0  0  0  0  0  0  0  0  0  0
  -17.7057   14.1114  -22.7884 C   0  0  0  0  0  0  0  0  0  0  0  0
  -16.7359   14.6993  -23.4207 C   0  0  0  0  0  0  0  0  0  0  0  0
  -17.0507   15.6714  -24.5306 C   0  0  0  0  0  0  0  0  0  0  0  0
  -16.5753   14.9739  -25.8027 C   0  0  0  0  0  0  0  0  0  0  0  0
  -15.2177   14.5049  -25.6650 N   0  0  0  0  0  0  0  0  0  0  0  0
  -14.5924   15.0136  -24.4721 C   0  0  0  0  0  0  0  0  0  0  0  0
  -15.2814   14.5097  -23.1920 C   0  0  0  0  0  0  0  0  0  0  0  0
  -15.1341   13.4675  -25.6563 H   0  0  0  0  0  0  0  0  0  0  0  0
  -19.2667   15.3441  -20.5094 F   0  0  0  0  0  0  0  0  0  0  0  0
  -18.0654   14.9457  -20.0058 C   0  0  0  0  0  0  0  0  0  0  0  0
  -18.2078   14.9706  -18.6177 F   0  0  0  0  0  0  0  0  0  0  0  0
  -16.9942   15.7107  -20.3258 F   0  0  0  0  0  0  0  0  0  0  0  0
  -17.2721   10.3118  -18.5878 N   0  0  0  0  0  0  0  0  0  0  0  0
  -16.3246    9.8517  -18.4310 H   0  0  0  0  0  0  0  0  0  0  0  0
  -18.3050    9.9805  -17.7065 C   0  0  0  0  0  0  0  0  0  0  0  0
  -18.4629    8.8175  -17.0667 N   0  0  0  0  0  0  0  0  0  0  0  0
  -19.4414    8.5023  -16.2272 C   0  0  0  0  0  0  0  0  0  0  0  0
  -20.4063    9.4438  -15.9673 C   0  0  0  0  0  0  0  0  0  0  0  0
  -20.3043   10.6884  -16.6040 C   0  0  0  0  0  0  0  0  0  0  0  0
  -19.2846   10.9114  -17.4314 N   0  0  0  0  0  0  0  0  0  0  0  0
  -21.3167   11.6454  -16.3313 N   0  0  0  0  0  0  0  0  0  0  0  0
  -22.3331   11.3781  -16.4328 H   0  0  0  0  0  0  0  0  0  0  0  0
  -20.9776   12.9737  -15.9172 C   0  0  0  0  0  0  0  0  0  0  0  0
  -21.2564   14.0379  -16.9464 C   0  0  0  0  0  0  0  0  0  0  0  0
  -20.9493   13.5713  -18.2309 O   0  0  0  0  0  0  0  0  0  0  0  0
  -20.1190   13.0313  -18.1713 H   0  0  0  0  0  0  0  0  0  0  0  0
 15 16  1  0  0  0
 16 17  1  0  0  0
 16 18  1  0  0  0
 16  1  1  0  0  0
  1  2  2  0  0  0
  2  3  1  0  0  0
  3 19  1  0  0  0
 19 21  1  0  0  0
 21 22  2  0  0  0
 22 23  1  0  0  0
 23 24  2  0  0  0
 24 25  1  0  0  0
 25 27  1  0  0  0
 27 29  1  0  0  0
 29 30  1  0  0  0
 30 31  1  0  0  0
 25 26  2  0  0  0
  3  4  2  0  0  0
  4  5  1  0  0  0
  5  6  2  0  0  0
  6  7  1  0  0  0
  7  8  2  0  0  0
  8  9  1  0  0  0
  9 10  1  0  0  0
 10 11  1  0  0  0
 11 12  1  0  0  0
 12 13  1  0  0  0
  6  1  1  0  0  0
 13  8  1  0  0  0
 26 21  1  0  0  0
 19 20  1  0  0  0
 27 28  1  0  0  0
 31 32  1  0  0  0
 11 14  1  0  0  0
M  END
> <minimizedAffinity>
-8.15544

> <CNNscore>
0.3056845963

> <CNNaffinity>
6.5050430298

> <CNN_VS>
1.9884914160

> <CNNaffinity_variance>
0.0431477390

$$$$
[H]OC([H])([H])C([H])([H])N([H])c1nc(N([H])c2c([H])c([H])c(C([H])=C3C([H])([H])C([H])([H])N([H])C([H])([H])C3([H])[H])c(C(F)(F)F)c2[H])nc([H])c1[H]


 32 34  0  0  0  0  0  0  0  0999 V2000
  -18.0331   11.2967  -19.2158 C   0  0  0  0  0  0  0  0  0  0  0  0
  -17.8858   10.1385  -18.5116 C   0  0  0  0  0  0  0  0  0  0  0  0
  -18.6648    9.7746  -17.3979 C   0  0  0  0  0  0  0  0  0  0  0  0
  -19.6143   10.6774  -17.0422 C   0  0  0  0  0  0  0  0  0  0  0  0
  -19.7838   11.8788  -17.7562 C   0  0  0  0  0  0  0  0  0  0  0  0
  -19.0027   12.1951  -18.8377 C   0  0  0  0  0  0  0  0  0  0  0  0
  -19.2477   13.4305  -19.5467 C   0  0  0  0  0  0  0  0  0  0  0  0
  -19.1590   14.6456  -19.0978 C   0  0  0  0  0  0  0  0  0  0  0  0
  -19.4643   15.8035  -20.0153 C   0  0  0  0  0  0  0  0  0  0  0  0
  -18.1181   16.4898  -20.2337 C   0  0  0  0  0  0  0  0  0  0  0  0
  -17.4613   16.7629  -18.9783 N   0  0  0  0  0  0  0  0  0  0  0  0
  -18.3337   16.5362  -17.8555 C   0  0  0  0  0  0  0  0  0  0  0  0
  -18.7534   15.0612  -17.7315 C   0  0  0  0  0  0  0  0  0  0  0  0
  -16.5946   16.2057  -18.8316 H   0  0  0  0  0  0  0  0  0  0  0  0
  -16.0904   10.7181  -20.4458 F   0  0  0  0  0  0  0  0  0  0  0  0
  -17.1361   11.5898  -20.3959 C   0  0  0  0  0  0  0  0  0  0  0  0
  -17.8914   11.3436  -21.5434 F   0  0  0  0  0  0  0  0  0  0  0  0
  -16.8221   12.9075  -20.3818 F   0  0  0  0  0  0  0  0  0  0  0  0
  -18.4062    8.5606  -16.7458 N   0  0  0  0  0  0  0  0  0  0  0  0
  -17.7333    7.8942  -17.2328 H   0  0  0  0  0  0  0  0  0  0  0  0
  -18.9467    8.1535  -15.5229 C   0  0  0  0  0  0  0  0  0  0  0  0
  -19.7484    7.1038  -15.3171 N   0  0  0  0  0  0  0  0  0  0  0  0
  -20.2600    6.7142  -14.1561 C   0  0  0  0  0  0  0  0  0  0  0  0
  -19.9547    7.4410  -13.0320 C   0  0  0  0  0  0  0  0  0  0  0  0
  -19.1177    8.5564  -13.1730 C   0  0  0  0  0  0  0  0  0  0  0  0
  -18.6529    8.8692  -14.3813 N   0  0  0  0  0  0  0  0  0  0  0  0
  -18.8216    9.3018  -12.0016 N   0  0  0  0  0  0  0  0  0  0  0  0
  -18.0503    8.9808  -11.3560 H   0  0  0  0  0  0  0  0  0  0  0  0
  -19.5564   10.4888  -11.6826 C   0  0  0  0  0  0  0  0  0  0  0  0
  -20.4270   11.0023  -12.7997 C   0  0  0  0  0  0  0  0  0  0  0  0
  -19.6630   11.7234  -13.7260 O   0  0  0  0  0  0  0  0  0  0  0  0
  -18.9958   12.2589  -13.2233 H   0  0  0  0  0  0  0  0  0  0  0  0
 15 16  1  0  0  0
 16 17  1  0  0  0
 16 18  1  0  0  0
 16  1  1  0  0  0
  1  2  2  0  0  0
  2  3  1  0  0  0
  3 19  1  0  0  0
 19 21  1  0  0  0
 21 22  2  0  0  0
 22 23  1  0  0  0
 23 24  2  0  0  0
 24 25  1  0  0  0
 25 27  1  0  0  0
 27 29  1  0  0  0
 29 30  1  0  0  0
 30 31  1  0  0  0
 25 26  2  0  0  0
  3  4  2  0  0  0
  4  5  1  0  0  0
  5  6  2  0  0  0
  6  7  1  0  0  0
  7  8  2  0  0  0
  8  9  1  0  0  0
  9 10  1  0  0  0
 10 11  1  0  0  0
 11 12  1  0  0  0
 12 13  1  0  0  0
  6  1  1  0  0  0
 13  8  1  0  0  0
 26 21  1  0  0  0
 19 20  1  0  0  0
 27 28  1  0  0  0
 31 32  1  0  0  0
 11 14  1  0  0  0
M  END
> <minimizedAffinity>
-7.85376

> <CNNscore>
0.3020006418

> <CNNaffinity>
5.7580795288

> <CNN_VS>
1.7389436960

> <CNNaffinity_variance>
0.3589330614

$$$$
[H]OC([H])([H])C([H])([H])N([H])c1nc(N([H])c2c([H])c([H])c(C([H])=C3C([H])([H])C([H])([H])N([H])C([H])([H])C3([H])[H])c(C(F)(F)F)c2[H])nc([H])c1[H]


 32 34  0  0  0  0  0  0  0  0999 V2000
  -19.0786   13.1129  -19.6477 C   0  0  0  0  0  0  0  0  0  0  0  0
  -18.7786   12.0683  -18.8244 C   0  0  0  0  0  0  0  0  0  0  0  0
  -17.7836   11.1071  -19.0814 C   0  0  0  0  0  0  0  0  0  0  0  0
  -17.1063   11.2794  -20.2453 C   0  0  0  0  0  0  0  0  0  0  0  0
  -17.3995   12.3517  -21.1091 C   0  0  0  0  0  0  0  0  0  0  0  0
  -18.3778   13.2679  -20.8204 C   0  0  0  0  0  0  0  0  0  0  0  0
  -18.6090   14.3635  -21.7343 C   0  0  0  0  0  0  0  0  0  0  0  0
  -17.9866   15.5012  -21.7983 C   0  0  0  0  0  0  0  0  0  0  0  0
  -18.3932   16.5160  -22.8379 C   0  0  0  0  0  0  0  0  0  0  0  0
  -17.2159   16.5691  -23.8084 C   0  0  0  0  0  0  0  0  0  0  0  0
  -15.9698   16.7652  -23.1077 N   0  0  0  0  0  0  0  0  0  0  0  0
  -16.1792   17.0907  -21.7209 C   0  0  0  0  0  0  0  0  0  0  0  0
  -16.8530   15.9436  -20.9479 C   0  0  0  0  0  0  0  0  0  0  0  0
  -15.3321   15.9440  -23.1541 H   0  0  0  0  0  0  0  0  0  0  0  0
  -19.6874   15.3547  -19.1728 F   0  0  0  0  0  0  0  0  0  0  0  0
  -20.1729   14.0860  -19.2755 C   0  0  0  0  0  0  0  0  0  0  0  0
  -21.0698   14.1074  -20.3445 F   0  0  0  0  0  0  0  0  0  0  0  0
  -20.8297   13.6028  -18.1937 F   0  0  0  0  0  0  0  0  0  0  0  0
  -17.5793   10.0676  -18.1630 N   0  0  0  0  0  0  0  0  0  0  0  0
  -16.6328    9.5810  -18.1997 H   0  0  0  0  0  0  0  0  0  0  0  0
  -18.4993    9.6201  -17.2107 C   0  0  0  0  0  0  0  0  0  0  0  0
  -18.3580    8.5653  -16.4017 N   0  0  0  0  0  0  0  0  0  0  0  0
  -19.2291    8.1410  -15.4949 C   0  0  0  0  0  0  0  0  0  0  0  0
  -20.4057    8.8330  -15.3467 C   0  0  0  0  0  0  0  0  0  0  0  0
  -20.6219    9.9519  -16.1628 C   0  0  0  0  0  0  0  0  0  0  0  0
  -19.6873   10.3006  -17.0454 N   0  0  0  0  0  0  0  0  0  0  0  0
  -21.8484   10.6486  -16.0027 N   0  0  0  0  0  0  0  0  0  0  0  0
  -21.9105   11.6695  -16.2649 H   0  0  0  0  0  0  0  0  0  0  0  0
  -23.0081    9.9832  -15.4897 C   0  0  0  0  0  0  0  0  0  0  0  0
  -23.5971   10.6183  -14.2571 C   0  0  0  0  0  0  0  0  0  0  0  0
  -22.7123   11.5621  -13.7203 O   0  0  0  0  0  0  0  0  0  0  0  0
  -21.7921   11.1990  -13.7972 H   0  0  0  0  0  0  0  0  0  0  0  0
 15 16  1  0  0  0
 16 17  1  0  0  0
 16 18  1  0  0  0
 16  1  1  0  0  0
  1  2  2  0  0  0
  2  3  1  0  0  0
  3 19  1  0  0  0
 19 21  1  0  0  0
 21 22  2  0  0  0
 22 23  1  0  0  0
 23 24  2  0  0  0
 24 25  1  0  0  0
 25 27  1  0  0  0
 27 29  1  0  0  0
 29 30  1  0  0  0
 30 31  1  0  0  0
 25 26  2  0  0  0
  3  4  2  0  0  0
  4  5  1  0  0  0
  5  6  2  0  0  0
  6  7  1  0  0  0
  7  8  2  0  0  0
  8  9  1  0  0  0
  9 10  1  0  0  0
 10 11  1  0  0  0
 11 12  1  0  0  0
 12 13  1  0  0  0
  6  1  1  0  0  0
 13  8  1  0  0  0
 26 21  1  0  0  0
 19 20  1  0  0  0
 27 28  1  0  0  0
 31 32  1  0  0  0
 11 14  1  0  0  0
M  END
> <minimizedAffinity>
-7.65024

> <CNNscore>
0.2623601258

> <CNNaffinity>
6.0866880417

> <CNN_VS>
1.5969042778

> <CNNaffinity_variance>
0.0715557188

$$$$
[H]OC([H])([H])C([H])([H])N([H])c1nc(N([H])c2c([H])c([H])c(C([H])=C3C([H])([H])C([H])([H])N([H])C([H])([H])C3([H])[H])c(C(F)(F)F)c2[H])nc([H])c1[H]


 32 34  0  0  0  0  0  0  0  0999 V2000
  -17.4717   11.8519  -19.9693 C   0  0  0  0  0  0  0  0  0  0  0  0
  -17.2278   12.7042  -21.0052 C   0  0  0  0  0  0  0  0  0  0  0  0
  -18.0990   13.7278  -21.4213 C   0  0  0  0  0  0  0  0  0  0  0  0
  -19.2489   13.8283  -20.7067 C   0  0  0  0  0  0  0  0  0  0  0  0
  -19.5200   12.9592  -19.6329 C   0  0  0  0  0  0  0  0  0  0  0  0
  -18.6426   11.9741  -19.2591 C   0  0  0  0  0  0  0  0  0  0  0  0
  -18.9662   11.1342  -18.1282 C   0  0  0  0  0  0  0  0  0  0  0  0
  -19.5689   11.4666  -17.0272 C   0  0  0  0  0  0  0  0  0  0  0  0
  -19.8068   10.4236  -15.9635 C   0  0  0  0  0  0  0  0  0  0  0  0
  -21.3197   10.2191  -15.9532 C   0  0  0  0  0  0  0  0  0  0  0  0
  -22.0163   11.4785  -15.8482 N   0  0  0  0  0  0  0  0  0  0  0  0
  -21.1199   12.5644  -15.5479 C   0  0  0  0  0  0  0  0  0  0  0  0
  -20.0999   12.8072  -16.6739 C   0  0  0  0  0  0  0  0  0  0  0  0
  -22.5533   11.7301  -16.7035 H   0  0  0  0  0  0  0  0  0  0  0  0
  -17.0501    9.5519  -19.5773 F   0  0  0  0  0  0  0  0  0  0  0  0
  -16.4666   10.7824  -19.6103 C   0  0  0  0  0  0  0  0  0  0  0  0
  -15.5412   10.7366  -20.6540 F   0  0  0  0  0  0  0  0  0  0  0  0
  -15.8088   11.1676  -18.4904 F   0  0  0  0  0  0  0  0  0  0  0  0
  -17.7426   14.5314  -22.5136 N   0  0  0  0  0  0  0  0  0  0  0  0
  -17.6102   15.5694  -22.3161 H   0  0  0  0  0  0  0  0  0  0  0  0
  -17.5447   14.0931  -23.8259 C   0  0  0  0  0  0  0  0  0  0  0  0
  -17.9853   12.9485  -24.3577 N   0  0  0  0  0  0  0  0  0  0  0  0
  -17.8009   12.5322  -25.6043 C   0  0  0  0  0  0  0  0  0  0  0  0
  -17.0895   13.3349  -26.4615 C   0  0  0  0  0  0  0  0  0  0  0  0
  -16.5966   14.5522  -25.9716 C   0  0  0  0  0  0  0  0  0  0  0  0
  -16.8331   14.8838  -24.7035 N   0  0  0  0  0  0  0  0  0  0  0  0
  -15.8546   15.3639  -26.8693 N   0  0  0  0  0  0  0  0  0  0  0  0
  -16.2298   15.5544  -27.8376 H   0  0  0  0  0  0  0  0  0  0  0  0
  -14.5996   15.9318  -26.4779 C   0  0  0  0  0  0  0  0  0  0  0  0
  -13.6785   14.9767  -25.7645 C   0  0  0  0  0  0  0  0  0  0  0  0
  -13.7721   15.1478  -24.3775 O   0  0  0  0  0  0  0  0  0  0  0  0
  -13.8496   16.1196  -24.1924 H   0  0  0  0  0  0  0  0  0  0  0  0
 15 16  1  0  0  0
 16 17  1  0  0  0
 16 18  1  0  0  0
 16  1  1  0  0  0
  1  2  2  0  0  0
  2  3  1  0  0  0
  3 19  1  0  0  0
 19 21  1  0  0  0
 21 22  2  0  0  0
 22 23  1  0  0  0
 23 24  2  0  0  0
 24 25  1  0  0  0
 25 27  1  0  0  0
 27 29  1  0  0  0
 29 30  1  0  0  0
 30 31  1  0  0  0
 25 26  2  0  0  0
  3  4  2  0  0  0
  4  5  1  0  0  0
  5  6  2  0  0  0
  6  7  1  0  0  0
  7  8  2  0  0  0
  8  9  1  0  0  0
  9 10  1  0  0  0
 10 11  1  0  0  0
 11 12  1  0  0  0
 12 13  1  0  0  0
  6  1  1  0  0  0
 13  8  1  0  0  0
 26 21  1  0  0  0
 19 20  1  0  0  0
 27 28  1  0  0  0
 31 32  1  0  0  0
 11 14  1  0  0  0
M  END
> <minimizedAffinity>
-8.85722

> <CNNscore>
0.2493563443

> <CNNaffinity>
6.2641749382

> <CNN_VS>
1.5620117188

> <CNNaffinity_variance>
0.2311298102

$$$$
[H]OC([H])([H])C([H])([H])N([H])c1nc(N([H])c2c([H])c([H])c(C([H])=C3C([H])([H])C([H])([H])N([H])C([H])([H])C3([H])[H])c(C(F)(F)F)c2[H])nc([H])c1[H]


 32 34  0  0  0  0  0  0  0  0999 V2000
  -17.3059   13.7823  -21.8743 C   0  0  0  0  0  0  0  0  0  0  0  0
  -17.4405   12.6046  -21.2005 C   0  0  0  0  0  0  0  0  0  0  0  0
  -17.7771   12.4958  -19.8386 C   0  0  0  0  0  0  0  0  0  0  0  0
  -17.9691   13.6778  -19.1989 C   0  0  0  0  0  0  0  0  0  0  0  0
  -17.8360   14.9048  -19.8760 C   0  0  0  0  0  0  0  0  0  0  0  0
  -17.5068   14.9666  -21.2055 C   0  0  0  0  0  0  0  0  0  0  0  0
  -17.4158   16.2572  -21.8498 C   0  0  0  0  0  0  0  0  0  0  0  0
  -18.3824   17.0503  -22.1998 C   0  0  0  0  0  0  0  0  0  0  0  0
  -18.0634   18.3642  -22.8689 C   0  0  0  0  0  0  0  0  0  0  0  0
  -18.4495   19.4256  -21.8416 C   0  0  0  0  0  0  0  0  0  0  0  0
  -19.7890   19.2130  -21.3491 N   0  0  0  0  0  0  0  0  0  0  0  0
  -20.4893   18.2132  -22.1125 C   0  0  0  0  0  0  0  0  0  0  0  0
  -19.8355   16.8254  -21.9948 C   0  0  0  0  0  0  0  0  0  0  0  0
  -19.8253   18.9377  -20.3460 H   0  0  0  0  0  0  0  0  0  0  0  0
  -15.7661   14.4506  -23.5488 F   0  0  0  0  0  0  0  0  0  0  0  0
  -16.9352   13.7835  -23.3391 C   0  0  0  0  0  0  0  0  0  0  0  0
  -16.6838   12.4561  -23.6892 F   0  0  0  0  0  0  0  0  0  0  0  0
  -18.0059   14.2046  -24.0542 F   0  0  0  0  0  0  0  0  0  0  0  0
  -17.8704   11.2251  -19.2535 N   0  0  0  0  0  0  0  0  0  0  0  0
  -17.2872   10.4534  -19.6990 H   0  0  0  0  0  0  0  0  0  0  0  0
  -18.6520   10.8863  -18.1455 C   0  0  0  0  0  0  0  0  0  0  0  0
  -19.6408   11.6140  -17.6166 N   0  0  0  0  0  0  0  0  0  0  0  0
  -20.3859   11.2924  -16.5665 C   0  0  0  0  0  0  0  0  0  0  0  0
  -20.1428   10.0974  -15.9356 C   0  0  0  0  0  0  0  0  0  0  0  0
  -19.1192    9.2815  -16.4367 C   0  0  0  0  0  0  0  0  0  0  0  0
  -18.4247    9.6907  -17.4970 N   0  0  0  0  0  0  0  0  0  0  0  0
  -18.8753    8.0547  -15.7653 N   0  0  0  0  0  0  0  0  0  0  0  0
  -17.9121    7.6232  -15.7931 H   0  0  0  0  0  0  0  0  0  0  0  0
  -19.9215    7.3918  -15.0463 C   0  0  0  0  0  0  0  0  0  0  0  0
  -19.6685    7.2489  -13.5681 C   0  0  0  0  0  0  0  0  0  0  0  0
  -18.5997    8.0629  -13.1718 O   0  0  0  0  0  0  0  0  0  0  0  0
  -17.9065    8.0264  -13.8808 H   0  0  0  0  0  0  0  0  0  0  0  0
 15 16  1  0  0  0
 16 17  1  0  0  0
 16 18  1  0  0  0
 16  1  1  0  0  0
  1  2  2  0  0  0
  2  3  1  0  0  0
  3 19  1  0  0  0
 19 21  1  0  0  0
 21 22  2  0  0  0
 22 23  1  0  0  0
 23 24  2  0  0  0
 24 25  1  0  0  0
 25 27  1  0  0  0
 27 29  1  0  0  0
 29 30  1  0  0  0
 30 31  1  0  0  0
 25 26  2  0  0  0
  3  4  2  0  0  0
  4  5  1  0  0  0
  5  6  2  0  0  0
  6  7  1  0  0  0
  7  8  2  0  0  0
  8  9  1  0  0  0
  9 10  1  0  0  0
 10 11  1  0  0  0
 11 12  1  0  0  0
 12 13  1  0  0  0
  6  1  1  0  0  0
 13  8  1  0  0  0
 26 21  1  0  0  0
 19 20  1  0  0  0
 27 28  1  0  0  0
 31 32  1  0  0  0
 11 14  1  0  0  0
M  END
> <minimizedAffinity>
-7.30219

> <CNNscore>
0.2311109900

> <CNNaffinity>
6.2325782776

> <CNN_VS>
1.4404172897

> <CNNaffinity_variance>
0.2063792050

$$$$
[H]OC([H])([H])C([H])([H])N([H])c1nc(N([H])c2c([H])c([H])c(C([H])=C3C([H])([H])C([H])([H])N([H])C([H])([H])C3([H])[H])c(C(F)(F)F)c2[H])nc([H])c1[H]


 32 34  0  0  0  0  0  0  0  0999 V2000
  -18.6149   12.6552  -19.4384 C   0  0  0  0  0  0  0  0  0  0  0  0
  -18.6496   11.5692  -18.6147 C   0  0  0  0  0  0  0  0  0  0  0  0
  -17.7096   10.5222  -18.6310 C   0  0  0  0  0  0  0  0  0  0  0  0
  -16.7207   10.6533  -19.5519 C   0  0  0  0  0  0  0  0  0  0  0  0
  -16.6658   11.7670  -20.4113 C   0  0  0  0  0  0  0  0  0  0  0  0
  -17.6027   12.7668  -20.3621 C   0  0  0  0  0  0  0  0  0  0  0  0
  -17.4725   13.8989  -21.2512 C   0  0  0  0  0  0  0  0  0  0  0  0
  -17.1382   13.9007  -22.5058 C   0  0  0  0  0  0  0  0  0  0  0  0
  -17.0592   15.2082  -23.2543 C   0  0  0  0  0  0  0  0  0  0  0  0
  -18.2194   15.1577  -24.2453 C   0  0  0  0  0  0  0  0  0  0  0  0
  -18.2056   13.9302  -25.0037 N   0  0  0  0  0  0  0  0  0  0  0  0
  -16.9888   13.1877  -24.8010 C   0  0  0  0  0  0  0  0  0  0  0  0
  -16.8288   12.7161  -23.3453 C   0  0  0  0  0  0  0  0  0  0  0  0
  -19.0071   13.3007  -24.7923 H   0  0  0  0  0  0  0  0  0  0  0  0
  -19.1276   14.9555  -19.1789 F   0  0  0  0  0  0  0  0  0  0  0  0
  -19.6812   13.7211  -19.3385 C   0  0  0  0  0  0  0  0  0  0  0  0
  -20.3321   13.7528  -20.5726 F   0  0  0  0  0  0  0  0  0  0  0  0
  -20.5848   13.3404  -18.4036 F   0  0  0  0  0  0  0  0  0  0  0  0
  -17.8619    9.4485  -17.7424 N   0  0  0  0  0  0  0  0  0  0  0  0
  -17.0605    8.7485  -17.7019 H   0  0  0  0  0  0  0  0  0  0  0  0
  -18.9618    9.2201  -16.9108 C   0  0  0  0  0  0  0  0  0  0  0  0
  -19.8697   10.1227  -16.5262 N   0  0  0  0  0  0  0  0  0  0  0  0
  -20.9163    9.9068  -15.7391 C   0  0  0  0  0  0  0  0  0  0  0  0
  -21.1162    8.6384  -15.2529 C   0  0  0  0  0  0  0  0  0  0  0  0
  -20.2022    7.6396  -15.6158 C   0  0  0  0  0  0  0  0  0  0  0  0
  -19.1813    7.9535  -16.4115 N   0  0  0  0  0  0  0  0  0  0  0  0
  -20.4191    6.3368  -15.0951 N   0  0  0  0  0  0  0  0  0  0  0  0
  -20.2096    5.4913  -15.6918 H   0  0  0  0  0  0  0  0  0  0  0  0
  -20.9187    6.1523  -13.7658 C   0  0  0  0  0  0  0  0  0  0  0  0
  -22.2122    5.3840  -13.6870 C   0  0  0  0  0  0  0  0  0  0  0  0
  -22.7795    5.2456  -14.9601 O   0  0  0  0  0  0  0  0  0  0  0  0
  -22.6448    6.0975  -15.4507 H   0  0  0  0  0  0  0  0  0  0  0  0
 15 16  1  0  0  0
 16 17  1  0  0  0
 16 18  1  0  0  0
 16  1  1  0  0  0
  1  2  2  0  0  0
  2  3  1  0  0  0
  3 19  1  0  0  0
 19 21  1  0  0  0
 21 22  2  0  0  0
 22 23  1  0  0  0
 23 24  2  0  0  0
 24 25  1  0  0  0
 25 27  1  0  0  0
 27 29  1  0  0  0
 29 30  1  0  0  0
 30 31  1  0  0  0
 25 26  2  0  0  0
  3  4  2  0  0  0
  4  5  1  0  0  0
  5  6  2  0  0  0
  6  7  1  0  0  0
  7  8  2  0  0  0
  8  9  1  0  0  0
  9 10  1  0  0  0
 10 11  1  0  0  0
 11 12  1  0  0  0
 12 13  1  0  0  0
  6  1  1  0  0  0
 13  8  1  0  0  0
 26 21  1  0  0  0
 19 20  1  0  0  0
 27 28  1  0  0  0
 31 32  1  0  0  0
 11 14  1  0  0  0
M  END
> <minimizedAffinity>
-8.02741

> <CNNscore>
0.2274311781

> <CNNaffinity>
6.2423734665

> <CNN_VS>
1.4197103977

> <CNNaffinity_variance>
0.1178661957

$$$$
[H]OC([H])([H])C([H])([H])N([H])c1nc(N([H])c2c([H])c([H])c(C([H])=C3C([H])([H])C([H])([H])N([H])C([H])([H])C3([H])[H])c(C(F)(F)F)c2[H])nc([H])c1[H]


 32 34  0  0  0  0  0  0  0  0999 V2000
  -19.4433   15.8071  -19.2137 C   0  0  0  0  0  0  0  0  0  0  0  0
  -19.3151   14.5891  -19.8129 C   0  0  0  0  0  0  0  0  0  0  0  0
  -18.7435   13.4552  -19.2066 C   0  0  0  0  0  0  0  0  0  0  0  0
  -18.3045   13.6440  -17.9359 C   0  0  0  0  0  0  0  0  0  0  0  0
  -18.4281   14.8930  -17.2984 C   0  0  0  0  0  0  0  0  0  0  0  0
  -18.9928   15.9737  -17.9254 C   0  0  0  0  0  0  0  0  0  0  0  0
  -19.1181   17.2204  -17.2050 C   0  0  0  0  0  0  0  0  0  0  0  0
  -20.0126   17.5530  -16.3245 C   0  0  0  0  0  0  0  0  0  0  0  0
  -19.9609   18.9203  -15.6893 C   0  0  0  0  0  0  0  0  0  0  0  0
  -19.5825   18.6570  -14.2338 C   0  0  0  0  0  0  0  0  0  0  0  0
  -20.4399   17.6575  -13.6439 N   0  0  0  0  0  0  0  0  0  0  0  0
  -21.5603   17.3431  -14.4917 C   0  0  0  0  0  0  0  0  0  0  0  0
  -21.1241   16.7064  -15.8227 C   0  0  0  0  0  0  0  0  0  0  0  0
  -19.9482   16.7690  -13.4156 H   0  0  0  0  0  0  0  0  0  0  0  0
  -21.2539   17.3270  -19.3950 F   0  0  0  0  0  0  0  0  0  0  0  0
  -20.0700   16.9612  -19.9609 C   0  0  0  0  0  0  0  0  0  0  0  0
  -19.2169   18.0536  -19.7979 F   0  0  0  0  0  0  0  0  0  0  0  0
  -20.1020   16.6540  -21.2799 F   0  0  0  0  0  0  0  0  0  0  0  0
  -18.6535   12.2596  -19.9334 N   0  0  0  0  0  0  0  0  0  0  0  0
  -19.4986   11.6131  -19.8902 H   0  0  0  0  0  0  0  0  0  0  0  0
  -17.5633   11.8471  -20.7047 C   0  0  0  0  0  0  0  0  0  0  0  0
  -16.6876   10.8858  -20.3950 N   0  0  0  0  0  0  0  0  0  0  0  0
  -15.6538   10.4909  -21.1276 C   0  0  0  0  0  0  0  0  0  0  0  0
  -15.4325   11.1121  -22.3318 C   0  0  0  0  0  0  0  0  0  0  0  0
  -16.3126   12.1309  -22.7218 C   0  0  0  0  0  0  0  0  0  0  0  0
  -17.3228   12.4577  -21.9176 N   0  0  0  0  0  0  0  0  0  0  0  0
  -16.0619   12.7689  -23.9650 N   0  0  0  0  0  0  0  0  0  0  0  0
  -15.0865   12.7661  -24.3693 H   0  0  0  0  0  0  0  0  0  0  0  0
  -17.1180   13.4176  -24.6823 C   0  0  0  0  0  0  0  0  0  0  0  0
  -17.1829   13.0691  -26.1465 C   0  0  0  0  0  0  0  0  0  0  0  0
  -17.9232   11.8959  -26.3397 O   0  0  0  0  0  0  0  0  0  0  0  0
  -17.6971   11.2658  -25.6073 H   0  0  0  0  0  0  0  0  0  0  0  0
 15 16  1  0  0  0
 16 17  1  0  0  0
 16 18  1  0  0  0
 16  1  1  0  0  0
  1  2  2  0  0  0
  2  3  1  0  0  0
  3 19  1  0  0  0
 19 21  1  0  0  0
 21 22  2  0  0  0
 22 23  1  0  0  0
 23 24  2  0  0  0
 24 25  1  0  0  0
 25 27  1  0  0  0
 27 29  1  0  0  0
 29 30  1  0  0  0
 30 31  1  0  0  0
 25 26  2  0  0  0
  3  4  2  0  0  0
  4  5  1  0  0  0
  5  6  2  0  0  0
  6  7  1  0  0  0
  7  8  2  0  0  0
  8  9  1  0  0  0
  9 10  1  0  0  0
 10 11  1  0  0  0
 11 12  1  0  0  0
 12 13  1  0  0  0
  6  1  1  0  0  0
 13  8  1  0  0  0
 26 21  1  0  0  0
 19 20  1  0  0  0
 27 28  1  0  0  0
 31 32  1  0  0  0
 11 14  1  0  0  0
M  END
> <minimizedAffinity>
-7.00888

> <CNNscore>
0.2196190804

> <CNNaffinity>
6.1746869087

> <CNN_VS>
1.3560791016

> <CNNaffinity_variance>
0.0134911090

$$$$
[H]c1c([H])c([H])c(C([H])([H])[C@]2([H])N3C([H])([H])C([H])([H])C([H])(C([H])([H])C3([H])[H])[C@@]2([H])N([H])C(=O)c2c([H])c([H])c(Cl)c([H])c2[H])c([H])c1[H]


 26 29  0  0  0  0  0  0  0  0999 V2000
  -19.6252   15.4934  -20.6860 C   0  0  0  0  0  0  0  0  0  0  0  0
  -19.7503   16.9012  -20.1174 C   0  0  0  0  0  0  0  0  0  0  0  0
  -18.3790   17.3300  -19.5885 C   0  0  0  0  0  0  0  0  0  0  0  0
  -18.0228   16.5254  -18.3643 C   0  0  0  0  0  0  0  0  0  0  0  0
  -18.7924   15.2798  -18.4279 N   0  0  0  0  0  0  0  0  0  0  0  0
  -20.1554   15.6268  -18.0852 C   0  0  0  0  0  0  0  0  0  0  0  0
  -20.6852   16.7765  -18.9110 C   0  0  0  0  0  0  0  0  0  0  0  0
  -18.6733   14.7306  -19.7611 C   0  0  0  0  0  0  0  0  0  0  0  0
  -17.6479   15.4397  -22.2247 C   0  0  0  0  0  0  0  0  0  0  0  0
  -16.8752   15.2753  -21.2317 O   0  0  0  0  0  0  0  0  0  0  0  0
  -19.0511   15.5588  -22.0323 N   0  0  0  0  0  0  0  0  0  0  0  0
  -19.6843   15.6927  -22.8356 H   0  0  0  0  0  0  0  0  0  0  0  0
  -15.1876   15.5880  -27.7108 Cl  0  0  0  0  0  0  0  0  0  0  0  0
  -15.8953   15.5568  -26.1033 C   0  0  0  0  0  0  0  0  0  0  0  0
  -15.4351   16.3723  -25.1082 C   0  0  0  0  0  0  0  0  0  0  0  0
  -15.9945   16.3470  -23.8391 C   0  0  0  0  0  0  0  0  0  0  0  0
  -17.0320   15.4985  -23.5422 C   0  0  0  0  0  0  0  0  0  0  0  0
  -17.4798   14.6800  -24.5746 C   0  0  0  0  0  0  0  0  0  0  0  0
  -16.9273   14.7044  -25.8295 C   0  0  0  0  0  0  0  0  0  0  0  0
  -19.0840   13.3047  -19.7737 C   0  0  0  0  0  0  0  0  0  0  0  0
  -18.0277   12.3181  -19.8480 C   0  0  0  0  0  0  0  0  0  0  0  0
  -17.6280   11.8611  -21.0871 C   0  0  0  0  0  0  0  0  0  0  0  0
  -16.6100   10.9073  -21.2048 C   0  0  0  0  0  0  0  0  0  0  0  0
  -15.9982   10.4174  -20.0696 C   0  0  0  0  0  0  0  0  0  0  0  0
  -16.3868   10.8646  -18.8238 C   0  0  0  0  0  0  0  0  0  0  0  0
  -17.3993   11.8108  -18.7436 C   0  0  0  0  0  0  0  0  0  0  0  0
 13 14  1  0  0  0
 14 15  2  0  0  0
 15 16  1  0  0  0
 16 17  2  0  0  0
 17 18  1  0  0  0
 18 19  2  0  0  0
 17  9  1  0  0  0
  9 10  2  0  0  0
  9 11  1  0  0  0
 11  1  1  0  0  0
  1  2  1  0  0  0
  2  3  1  0  0  0
  3  4  1  0  0  0
  4  5  1  0  0  0
  5  6  1  0  0  0
  6  7  1  0  0  0
  5  8  1  0  0  0
  8 20  1  0  0  0
 20 21  1  0  0  0
 21 22  2  0  0  0
 22 23  1  0  0  0
 23 24  2  0  0  0
 24 25  1  0  0  0
 25 26  2  0  0  0
 19 14  1  0  0  0
  8  1  1  0  0  0
 26 21  1  0  0  0
  7  2  1  0  0  0
 11 12  1  0  0  0
M  END
> <minimizedAffinity>
-8.51530

> <CNNscore>
0.4186304212

> <CNNaffinity>
6.3210930824

> <CNN_VS>
2.6462018490

> <CNNaffinity_variance>
0.0867622569

$$$$
[H]c1c([H])c([H])c(C([H])([H])[C@]2([H])N3C([H])([H])C([H])([H])C([H])(C([H])([H])C3([H])[H])[C@@]2([H])N([H])C(=O)c2c([H])c([H])c(Cl)c([H])c2[H])c([H])c1[H]


 26 29  0  0  0  0  0  0  0  0999 V2000
  -16.8391   14.8788  -24.3001 C   0  0  0  0  0  0  0  0  0  0  0  0
  -16.0386   13.9533  -25.2076 C   0  0  0  0  0  0  0  0  0  0  0  0
  -14.5529   14.1259  -24.8810 C   0  0  0  0  0  0  0  0  0  0  0  0
  -14.0815   15.4878  -25.3239 C   0  0  0  0  0  0  0  0  0  0  0  0
  -15.2617   16.3546  -25.3828 N   0  0  0  0  0  0  0  0  0  0  0  0
  -15.9911   15.9670  -26.5717 C   0  0  0  0  0  0  0  0  0  0  0  0
  -16.2569   14.4803  -26.6288 C   0  0  0  0  0  0  0  0  0  0  0  0
  -16.0301   16.1720  -24.1707 C   0  0  0  0  0  0  0  0  0  0  0  0
  -17.3637   12.8953  -22.8610 C   0  0  0  0  0  0  0  0  0  0  0  0
  -17.5750   12.1948  -23.8976 O   0  0  0  0  0  0  0  0  0  0  0  0
  -16.9879   14.2609  -22.9800 N   0  0  0  0  0  0  0  0  0  0  0  0
  -16.8147   14.8356  -22.1411 H   0  0  0  0  0  0  0  0  0  0  0  0
  -18.1199   10.2701  -17.5030 Cl  0  0  0  0  0  0  0  0  0  0  0  0
  -17.8870   11.0254  -19.0717 C   0  0  0  0  0  0  0  0  0  0  0  0
  -16.9695   10.5446  -19.9629 C   0  0  0  0  0  0  0  0  0  0  0  0
  -16.7862   11.1416  -21.2015 C   0  0  0  0  0  0  0  0  0  0  0  0
  -17.5238   12.2385  -21.5720 C   0  0  0  0  0  0  0  0  0  0  0  0
  -18.4501   12.7061  -20.6448 C   0  0  0  0  0  0  0  0  0  0  0  0
  -18.6319   12.1163  -19.4201 C   0  0  0  0  0  0  0  0  0  0  0  0
  -16.9936   17.2867  -23.9939 C   0  0  0  0  0  0  0  0  0  0  0  0
  -17.2467   17.7268  -22.6385 C   0  0  0  0  0  0  0  0  0  0  0  0
  -16.3628   17.3629  -21.6433 C   0  0  0  0  0  0  0  0  0  0  0  0
  -16.5693   17.7667  -20.3189 C   0  0  0  0  0  0  0  0  0  0  0  0
  -17.6689   18.5377  -20.0033 C   0  0  0  0  0  0  0  0  0  0  0  0
  -18.5614   18.9095  -20.9873 C   0  0  0  0  0  0  0  0  0  0  0  0
  -18.3262   18.4916  -22.2899 C   0  0  0  0  0  0  0  0  0  0  0  0
 13 14  1  0  0  0
 14 15  2  0  0  0
 15 16  1  0  0  0
 16 17  2  0  0  0
 17 18  1  0  0  0
 18 19  2  0  0  0
 17  9  1  0  0  0
  9 10  2  0  0  0
  9 11  1  0  0  0
 11  1  1  0  0  0
  1  2  1  0  0  0
  2  3  1  0  0  0
  3  4  1  0  0  0
  4  5  1  0  0  0
  5  6  1  0  0  0
  6  7  1  0  0  0
  5  8  1  0  0  0
  8 20  1  0  0  0
 20 21  1  0  0  0
 21 22  2  0  0  0
 22 23  1  0  0  0
 23 24  2  0  0  0
 24 25  1  0  0  0
 25 26  2  0  0  0
 19 14  1  0  0  0
  8  1  1  0  0  0
 26 21  1  0  0  0
  7  2  1  0  0  0
 11 12  1  0  0  0
M  END
> <minimizedAffinity>
-8.13311

> <CNNscore>
0.3659510612

> <CNNaffinity>
6.4918808937

> <CNN_VS>
2.3757107258

> <CNNaffinity_variance>
0.0843436942

$$$$
[H]c1c([H])c([H])c(C([H])([H])[C@]2([H])N3C([H])([H])C([H])([H])C([H])(C([H])([H])C3([H])[H])[C@@]2([H])N([H])C(=O)c2c([H])c([H])c(Cl)c([H])c2[H])c([H])c1[H]


 26 29  0  0  0  0  0  0  0  0999 V2000
  -18.3831   16.0529  -21.8571 C   0  0  0  0  0  0  0  0  0  0  0  0
  -18.3558   17.4368  -21.2208 C   0  0  0  0  0  0  0  0  0  0  0  0
  -17.0502   17.5788  -20.4338 C   0  0  0  0  0  0  0  0  0  0  0  0
  -17.0742   16.6764  -19.2262 C   0  0  0  0  0  0  0  0  0  0  0  0
  -18.0297   15.6020  -19.5097 N   0  0  0  0  0  0  0  0  0  0  0  0
  -19.3478   16.1873  -19.3843 C   0  0  0  0  0  0  0  0  0  0  0  0
  -19.5027   17.4463  -20.2061 C   0  0  0  0  0  0  0  0  0  0  0  0
  -17.7690   15.0901  -20.8376 C   0  0  0  0  0  0  0  0  0  0  0  0
  -17.8844   15.1914  -24.1570 C   0  0  0  0  0  0  0  0  0  0  0  0
  -18.8741   14.4011  -24.0793 O   0  0  0  0  0  0  0  0  0  0  0  0
  -17.5699   16.0586  -23.0758 N   0  0  0  0  0  0  0  0  0  0  0  0
  -16.7666   16.7033  -23.1329 H   0  0  0  0  0  0  0  0  0  0  0  0
  -14.5961   15.1709  -29.1926 Cl  0  0  0  0  0  0  0  0  0  0  0  0
  -15.5656   15.1638  -27.7279 C   0  0  0  0  0  0  0  0  0  0  0  0
  -16.5787   14.2641  -27.5505 C   0  0  0  0  0  0  0  0  0  0  0  0
  -17.3439   14.2592  -26.3935 C   0  0  0  0  0  0  0  0  0  0  0  0
  -17.1062   15.1616  -25.3866 C   0  0  0  0  0  0  0  0  0  0  0  0
  -16.0688   16.0654  -25.5948 C   0  0  0  0  0  0  0  0  0  0  0  0
  -15.3119   16.0709  -26.7383 C   0  0  0  0  0  0  0  0  0  0  0  0
  -18.4192   13.7689  -21.0216 C   0  0  0  0  0  0  0  0  0  0  0  0
  -17.6538   12.6017  -20.6390 C   0  0  0  0  0  0  0  0  0  0  0  0
  -17.6497   12.2115  -19.3155 C   0  0  0  0  0  0  0  0  0  0  0  0
  -16.9230   11.0887  -18.9019 C   0  0  0  0  0  0  0  0  0  0  0  0
  -16.2020   10.3626  -19.8271 C   0  0  0  0  0  0  0  0  0  0  0  0
  -16.1964   10.7403  -21.1539 C   0  0  0  0  0  0  0  0  0  0  0  0
  -16.9279   11.8587  -21.5294 C   0  0  0  0  0  0  0  0  0  0  0  0
 13 14  1  0  0  0
 14 15  2  0  0  0
 15 16  1  0  0  0
 16 17  2  0  0  0
 17 18  1  0  0  0
 18 19  2  0  0  0
 17  9  1  0  0  0
  9 10  2  0  0  0
  9 11  1  0  0  0
 11  1  1  0  0  0
  1  2  1  0  0  0
  2  3  1  0  0  0
  3  4  1  0  0  0
  4  5  1  0  0  0
  5  6  1  0  0  0
  6  7  1  0  0  0
  5  8  1  0  0  0
  8 20  1  0  0  0
 20 21  1  0  0  0
 21 22  2  0  0  0
 22 23  1  0  0  0
 23 24  2  0  0  0
 24 25  1  0  0  0
 25 26  2  0  0  0
 19 14  1  0  0  0
  8  1  1  0  0  0
 26 21  1  0  0  0
  7  2  1  0  0  0
 11 12  1  0  0  0
M  END
> <minimizedAffinity>
-6.76747

> <CNNscore>
0.3418570757

> <CNNaffinity>
6.2542247772

> <CNN_VS>
2.1380510330

> <CNNaffinity_variance>
0.1074549332

$$$$
[H]c1c([H])c([H])c(C([H])([H])[C@]2([H])N3C([H])([H])C([H])([H])C([H])(C([H])([H])C3([H])[H])[C@@]2([H])N([H])C(=O)c2c([H])c([H])c(Cl)c([H])c2[H])c([H])c1[H]


 26 29  0  0  0  0  0  0  0  0999 V2000
  -20.5295   15.8832  -17.8360 C   0  0  0  0  0  0  0  0  0  0  0  0
  -20.0309   17.3197  -17.9305 C   0  0  0  0  0  0  0  0  0  0  0  0
  -19.1412   17.6010  -16.7168 C   0  0  0  0  0  0  0  0  0  0  0  0
  -19.9759   17.6385  -15.4619 C   0  0  0  0  0  0  0  0  0  0  0  0
  -21.1909   16.8637  -15.7289 N   0  0  0  0  0  0  0  0  0  0  0  0
  -22.0204   17.6899  -16.5804 C   0  0  0  0  0  0  0  0  0  0  0  0
  -21.2779   18.1982  -17.7948 C   0  0  0  0  0  0  0  0  0  0  0  0
  -20.8145   15.6154  -16.3559 C   0  0  0  0  0  0  0  0  0  0  0  0
  -19.7757   13.9821  -19.2844 C   0  0  0  0  0  0  0  0  0  0  0  0
  -20.9462   13.8782  -19.7632 O   0  0  0  0  0  0  0  0  0  0  0  0
  -19.4840   14.9706  -18.3057 N   0  0  0  0  0  0  0  0  0  0  0  0
  -18.5345   15.0599  -17.9126 H   0  0  0  0  0  0  0  0  0  0  0  0
  -15.6266   10.0823  -21.2205 Cl  0  0  0  0  0  0  0  0  0  0  0  0
  -16.8377   11.2294  -20.6700 C   0  0  0  0  0  0  0  0  0  0  0  0
  -17.2759   12.2421  -21.4760 C   0  0  0  0  0  0  0  0  0  0  0  0
  -18.2323   13.1475  -21.0406 C   0  0  0  0  0  0  0  0  0  0  0  0
  -18.7706   13.0539  -19.7812 C   0  0  0  0  0  0  0  0  0  0  0  0
  -18.3058   12.0133  -18.9828 C   0  0  0  0  0  0  0  0  0  0  0  0
  -17.3603   11.1178  -19.4126 C   0  0  0  0  0  0  0  0  0  0  0  0
  -21.9315   14.6410  -16.2845 C   0  0  0  0  0  0  0  0  0  0  0  0
  -21.6701   13.3918  -15.6019 C   0  0  0  0  0  0  0  0  0  0  0  0
  -20.9860   12.3972  -16.2703 C   0  0  0  0  0  0  0  0  0  0  0  0
  -20.7118   11.1736  -15.6479 C   0  0  0  0  0  0  0  0  0  0  0  0
  -21.1297   10.9580  -14.3510 C   0  0  0  0  0  0  0  0  0  0  0  0
  -21.8146   11.9428  -13.6697 C   0  0  0  0  0  0  0  0  0  0  0  0
  -22.0695   13.1439  -14.3171 C   0  0  0  0  0  0  0  0  0  0  0  0
 13 14  1  0  0  0
 14 15  2  0  0  0
 15 16  1  0  0  0
 16 17  2  0  0  0
 17 18  1  0  0  0
 18 19  2  0  0  0
 17  9  1  0  0  0
  9 10  2  0  0  0
  9 11  1  0  0  0
 11  1  1  0  0  0
  1  2  1  0  0  0
  2  3  1  0  0  0
  3  4  1  0  0  0
  4  5  1  0  0  0
  5  6  1  0  0  0
  6  7  1  0  0  0
  5  8  1  0  0  0
  8 20  1  0  0  0
 20 21  1  0  0  0
 21 22  2  0  0  0
 22 23  1  0  0  0
 23 24  2  0  0  0
 24 25  1  0  0  0
 25 26  2  0  0  0
 19 14  1  0  0  0
  8  1  1  0  0  0
 26 21  1  0  0  0
  7  2  1  0  0  0
 11 12  1  0  0  0
M  END
> <minimizedAffinity>
-6.55267

> <CNNscore>
0.2876402438

> <CNNaffinity>
5.0409812927

> <CNN_VS>
1.4499890804

> <CNNaffinity_variance>
0.4164617062

$$$$
[H]c1c([H])c([H])c(C([H])([H])[C@]2([H])N3C([H])([H])C([H])([H])C([H])(C([H])([H])C3([H])[H])[C@@]2([H])N([H])C(=O)c2c([H])c([H])c(Cl)c([H])c2[H])c([H])c1[H]


 26 29  0  0  0  0  0  0  0  0999 V2000
  -20.3356   17.0630  -20.1662 C   0  0  0  0  0  0  0  0  0  0  0  0
  -20.1936   17.9552  -21.3929 C   0  0  0  0  0  0  0  0  0  0  0  0
  -18.9972   18.8854  -21.1754 C   0  0  0  0  0  0  0  0  0  0  0  0
  -19.3109   19.8858  -20.0919 C   0  0  0  0  0  0  0  0  0  0  0  0
  -20.3652   19.3020  -19.2581 N   0  0  0  0  0  0  0  0  0  0  0  0
  -21.5900   19.4017  -20.0233 C   0  0  0  0  0  0  0  0  0  0  0  0
  -21.4515   18.8284  -21.4149 C   0  0  0  0  0  0  0  0  0  0  0  0
  -20.0073   17.9342  -18.9510 C   0  0  0  0  0  0  0  0  0  0  0  0
  -19.8204   14.6106  -20.1917 C   0  0  0  0  0  0  0  0  0  0  0  0
  -21.0550   14.3464  -20.0656 O   0  0  0  0  0  0  0  0  0  0  0  0
  -19.3757   15.9593  -20.2503 N   0  0  0  0  0  0  0  0  0  0  0  0
  -18.3734   16.1805  -20.3527 H   0  0  0  0  0  0  0  0  0  0  0  0
  -15.9990    9.9882  -20.6411 Cl  0  0  0  0  0  0  0  0  0  0  0  0
  -17.1199   11.3327  -20.4944 C   0  0  0  0  0  0  0  0  0  0  0  0
  -17.8917   11.4962  -19.3787 C   0  0  0  0  0  0  0  0  0  0  0  0
  -18.7765   12.5583  -19.2637 C   0  0  0  0  0  0  0  0  0  0  0  0
  -18.9048   13.4819  -20.2712 C   0  0  0  0  0  0  0  0  0  0  0  0
  -18.1067   13.2902  -21.3948 C   0  0  0  0  0  0  0  0  0  0  0  0
  -17.2317   12.2405  -21.5093 C   0  0  0  0  0  0  0  0  0  0  0  0
  -20.8110   17.4310  -17.8095 C   0  0  0  0  0  0  0  0  0  0  0  0
  -20.6156   18.0821  -16.5318 C   0  0  0  0  0  0  0  0  0  0  0  0
  -21.6123   18.9007  -16.0413 C   0  0  0  0  0  0  0  0  0  0  0  0
  -21.4649   19.5499  -14.8097 C   0  0  0  0  0  0  0  0  0  0  0  0
  -20.3103   19.3701  -14.0765 C   0  0  0  0  0  0  0  0  0  0  0  0
  -19.3050   18.5547  -14.5537 C   0  0  0  0  0  0  0  0  0  0  0  0
  -19.4842   17.9265  -15.7784 C   0  0  0  0  0  0  0  0  0  0  0  0
 13 14  1  0  0  0
 14 15  2  0  0  0
 15 16  1  0  0  0
 16 17  2  0  0  0
 17 18  1  0  0  0
 18 19  2  0  0  0
 17  9  1  0  0  0
  9 10  2  0  0  0
  9 11  1  0  0  0
 11  1  1  0  0  0
  1  2  1  0  0  0
  2  3  1  0  0  0
  3  4  1  0  0  0
  4  5  1  0  0  0
  5  6  1  0  0  0
  6  7  1  0  0  0
  5  8  1  0  0  0
  8 20  1  0  0  0
 20 21  1  0  0  0
 21 22  2  0  0  0
 22 23  1  0  0  0
 23 24  2  0  0  0
 24 25  1  0  0  0
 25 26  2  0  0  0
 19 14  1  0  0  0
  8  1  1  0  0  0
 26 21  1  0  0  0
  7  2  1  0  0  0
 11 12  1  0  0  0
M  END
> <minimizedAffinity>
-6.50409

> <CNNscore>
0.2609811723

> <CNNaffinity>
5.2832894325

> <CNN_VS>
1.3788390160

> <CNNaffinity_variance>
0.2121768445

$$$$
[H]c1c([H])c([H])c(C([H])([H])[C@]2([H])N3C([H])([H])C([H])([H])C([H])(C([H])([H])C3([H])[H])[C@@]2([H])N([H])C(=O)c2c([H])c([H])c(Cl)c([H])c2[H])c([H])c1[H]


 26 29  0  0  0  0  0  0  0  0999 V2000
  -21.0209   10.3834  -13.4935 C   0  0  0  0  0  0  0  0  0  0  0  0
  -20.5298   11.2096  -12.3115 C   0  0  0  0  0  0  0  0  0  0  0  0
  -19.5180   10.3712  -11.5259 C   0  0  0  0  0  0  0  0  0  0  0  0
  -20.2180    9.2249  -10.8409 C   0  0  0  0  0  0  0  0  0  0  0  0
  -21.4568    8.9715  -11.5818 N   0  0  0  0  0  0  0  0  0  0  0  0
  -22.3672   10.0400  -11.2279 C   0  0  0  0  0  0  0  0  0  0  0  0
  -21.7529   11.4086  -11.4117 C   0  0  0  0  0  0  0  0  0  0  0  0
  -21.1517    8.9417  -12.9957 C   0  0  0  0  0  0  0  0  0  0  0  0
  -20.4435   10.6660  -15.9158 C   0  0  0  0  0  0  0  0  0  0  0  0
  -21.6717   10.8216  -16.1940 O   0  0  0  0  0  0  0  0  0  0  0  0
  -20.0330   10.4400  -14.5739 N   0  0  0  0  0  0  0  0  0  0  0  0
  -19.0360   10.3127  -14.3415 H   0  0  0  0  0  0  0  0  0  0  0  0
  -16.5786   11.0579  -20.5070 Cl  0  0  0  0  0  0  0  0  0  0  0  0
  -17.7025   10.9273  -19.1635 C   0  0  0  0  0  0  0  0  0  0  0  0
  -17.8197    9.7712  -18.4446 C   0  0  0  0  0  0  0  0  0  0  0  0
  -18.7075    9.6689  -17.3838 C   0  0  0  0  0  0  0  0  0  0  0  0
  -19.4992   10.7302  -17.0215 C   0  0  0  0  0  0  0  0  0  0  0  0
  -19.3586   11.8942  -17.7710 C   0  0  0  0  0  0  0  0  0  0  0  0
  -18.4811   11.9961  -18.8200 C   0  0  0  0  0  0  0  0  0  0  0  0
  -22.2587    8.3058  -13.7523 C   0  0  0  0  0  0  0  0  0  0  0  0
  -21.9582    7.0674  -14.4383 C   0  0  0  0  0  0  0  0  0  0  0  0
  -22.5060    6.8459  -15.6853 C   0  0  0  0  0  0  0  0  0  0  0  0
  -22.2417    5.6619  -16.3840 C   0  0  0  0  0  0  0  0  0  0  0  0
  -21.4239    4.7043  -15.8207 C   0  0  0  0  0  0  0  0  0  0  0  0
  -20.8688    4.9113  -14.5749 C   0  0  0  0  0  0  0  0  0  0  0  0
  -21.1519    6.0964  -13.9100 C   0  0  0  0  0  0  0  0  0  0  0  0
 13 14  1  0  0  0
 14 15  2  0  0  0
 15 16  1  0  0  0
 16 17  2  0  0  0
 17 18  1  0  0  0
 18 19  2  0  0  0
 17  9  1  0  0  0
  9 10  2  0  0  0
  9 11  1  0  0  0
 11  1  1  0  0  0
  1  2  1  0  0  0
  2  3  1  0  0  0
  3  4  1  0  0  0
  4  5  1  0  0  0
  5  6  1  0  0  0
  6  7  1  0  0  0
  5  8  1  0  0  0
  8 20  1  0  0  0
 20 21  1  0  0  0
 21 22  2  0  0  0
 22 23  1  0  0  0
 23 24  2  0  0  0
 24 25  1  0  0  0
 25 26  2  0  0  0
 19 14  1  0  0  0
  8  1  1  0  0  0
 26 21  1  0  0  0
  7  2  1  0  0  0
 11 12  1  0  0  0
M  END
> <minimizedAffinity>
-6.25927

> <CNNscore>
0.2602449954

> <CNNaffinity>
4.7064027786

> <CNN_VS>
1.2248177528

> <CNNaffinity_variance>
0.2865032256

$$$$
[H]c1c([H])c([H])c(C([H])([H])[C@]2([H])N3C([H])([H])C([H])([H])C([H])(C([H])([H])C3([H])[H])[C@@]2([H])N([H])C(=O)c2c([H])c([H])c(Cl)c([H])c2[H])c([H])c1[H]


 26 29  0  0  0  0  0  0  0  0999 V2000
  -19.0429   15.3965  -19.8296 C   0  0  0  0  0  0  0  0  0  0  0  0
  -19.3536   16.7919  -19.3027 C   0  0  0  0  0  0  0  0  0  0  0  0
  -18.4310   17.0737  -18.1140 C   0  0  0  0  0  0  0  0  0  0  0  0
  -18.8140   16.2022  -16.9448 C   0  0  0  0  0  0  0  0  0  0  0  0
  -19.5175   15.0369  -17.4878 N   0  0  0  0  0  0  0  0  0  0  0  0
  -20.8350   15.4996  -17.8696 C   0  0  0  0  0  0  0  0  0  0  0  0
  -20.7844   16.7186  -18.7618 C   0  0  0  0  0  0  0  0  0  0  0  0
  -18.7600   14.5200  -18.6068 C   0  0  0  0  0  0  0  0  0  0  0  0
  -17.9460   15.1803  -22.0724 C   0  0  0  0  0  0  0  0  0  0  0  0
  -19.0653   14.8916  -22.5958 O   0  0  0  0  0  0  0  0  0  0  0  0
  -17.8510   15.4489  -20.6800 N   0  0  0  0  0  0  0  0  0  0  0  0
  -16.9440   15.6841  -20.2486 H   0  0  0  0  0  0  0  0  0  0  0  0
  -13.1429   15.2194  -25.6919 Cl  0  0  0  0  0  0  0  0  0  0  0  0
  -14.5492   15.2241  -24.6392 C   0  0  0  0  0  0  0  0  0  0  0  0
  -15.3460   16.3280  -24.5226 C   0  0  0  0  0  0  0  0  0  0  0  0
  -16.4563   16.3309  -23.6911 C   0  0  0  0  0  0  0  0  0  0  0  0
  -16.7905   15.2203  -22.9565 C   0  0  0  0  0  0  0  0  0  0  0  0
  -15.9613   14.1114  -23.0952 C   0  0  0  0  0  0  0  0  0  0  0  0
  -14.8635   14.1078  -23.9170 C   0  0  0  0  0  0  0  0  0  0  0  0
  -19.1955   13.1399  -18.9353 C   0  0  0  0  0  0  0  0  0  0  0  0
  -18.1710   12.2139  -19.3684 C   0  0  0  0  0  0  0  0  0  0  0  0
  -18.0553   11.9289  -20.7135 C   0  0  0  0  0  0  0  0  0  0  0  0
  -17.0784   11.0391  -21.1759 C   0  0  0  0  0  0  0  0  0  0  0  0
  -16.2204   10.4394  -20.2775 C   0  0  0  0  0  0  0  0  0  0  0  0
  -16.3236   10.7144  -18.9296 C   0  0  0  0  0  0  0  0  0  0  0  0
  -17.3036   11.6013  -18.5057 C   0  0  0  0  0  0  0  0  0  0  0  0
 13 14  1  0  0  0
 14 15  2  0  0  0
 15 16  1  0  0  0
 16 17  2  0  0  0
 17 18  1  0  0  0
 18 19  2  0  0  0
 17  9  1  0  0  0
  9 10  2  0  0  0
  9 11  1  0  0  0
 11  1  1  0  0  0
  1  2  1  0  0  0
  2  3  1  0  0  0
  3  4  1  0  0  0
  4  5  1  0  0  0
  5  6  1  0  0  0
  6  7  1  0  0  0
  5  8  1  0  0  0
  8 20  1  0  0  0
 20 21  1  0  0  0
 21 22  2  0  0  0
 22 23  1  0  0  0
 23 24  2  0  0  0
 24 25  1  0  0  0
 25 26  2  0  0  0
 19 14  1  0  0  0
  8  1  1  0  0  0
 26 21  1  0  0  0
  7  2  1  0  0  0
 11 12  1  0  0  0
M  END
> <minimizedAffinity>
-7.67469

> <CNNscore>
0.2569380999

> <CNNaffinity>
6.0231676102

> <CNN_VS>
1.5475811958

> <CNNaffinity_variance>
0.0888064951

$$$$
[H]c1c([H])c([H])c(C([H])([H])[C@]2([H])N3C([H])([H])C([H])([H])C([H])(C([H])([H])C3([H])[H])[C@@]2([H])N([H])C(=O)c2c([H])c([H])c(Cl)c([H])c2[H])c([H])c1[H]


 26 29  0  0  0  0  0  0  0  0999 V2000
  -17.8814   14.2933  -19.8303 C   0  0  0  0  0  0  0  0  0  0  0  0
  -18.2300   15.7020  -19.3666 C   0  0  0  0  0  0  0  0  0  0  0  0
  -19.5540   16.1092  -20.0185 C   0  0  0  0  0  0  0  0  0  0  0  0
  -19.3616   16.3034  -21.5012 C   0  0  0  0  0  0  0  0  0  0  0  0
  -18.1854   15.5202  -21.8896 N   0  0  0  0  0  0  0  0  0  0  0  0
  -17.0329   16.2540  -21.4112 C   0  0  0  0  0  0  0  0  0  0  0  0
  -17.1395   16.6079  -19.9456 C   0  0  0  0  0  0  0  0  0  0  0  0
  -18.2930   14.2025  -21.3020 C   0  0  0  0  0  0  0  0  0  0  0  0
  -18.0231   12.1336  -18.5671 C   0  0  0  0  0  0  0  0  0  0  0  0
  -16.7985   11.9070  -18.8101 O   0  0  0  0  0  0  0  0  0  0  0  0
  -18.6447   13.3178  -19.0479 N   0  0  0  0  0  0  0  0  0  0  0  0
  -19.6399   13.5075  -18.8536 H   0  0  0  0  0  0  0  0  0  0  0  0
  -20.8983    7.9204  -15.3806 Cl  0  0  0  0  0  0  0  0  0  0  0  0
  -20.0700    9.1625  -16.3061 C   0  0  0  0  0  0  0  0  0  0  0  0
  -20.5175   10.4535  -16.3231 C   0  0  0  0  0  0  0  0  0  0  0  0
  -19.8628   11.4337  -17.0542 C   0  0  0  0  0  0  0  0  0  0  0  0
  -18.7403   11.1362  -17.7864 C   0  0  0  0  0  0  0  0  0  0  0  0
  -18.3077    9.8141  -17.7505 C   0  0  0  0  0  0  0  0  0  0  0  0
  -18.9545    8.8445  -17.0279 C   0  0  0  0  0  0  0  0  0  0  0  0
  -17.3624   13.2588  -21.9695 C   0  0  0  0  0  0  0  0  0  0  0  0
  -16.9294   13.6002  -23.3076 C   0  0  0  0  0  0  0  0  0  0  0  0
  -15.5876   13.8264  -23.5369 C   0  0  0  0  0  0  0  0  0  0  0  0
  -15.1255   14.1590  -24.8158 C   0  0  0  0  0  0  0  0  0  0  0  0
  -16.0207   14.2623  -25.8603 C   0  0  0  0  0  0  0  0  0  0  0  0
  -17.3652   14.0390  -25.6467 C   0  0  0  0  0  0  0  0  0  0  0  0
  -17.7890   13.7111  -24.3662 C   0  0  0  0  0  0  0  0  0  0  0  0
 13 14  1  0  0  0
 14 15  2  0  0  0
 15 16  1  0  0  0
 16 17  2  0  0  0
 17 18  1  0  0  0
 18 19  2  0  0  0
 17  9  1  0  0  0
  9 10  2  0  0  0
  9 11  1  0  0  0
 11  1  1  0  0  0
  1  2  1  0  0  0
  2  3  1  0  0  0
  3  4  1  0  0  0
  4  5  1  0  0  0
  5  6  1  0  0  0
  6  7  1  0  0  0
  5  8  1  0  0  0
  8 20  1  0  0  0
 20 21  1  0  0  0
 21 22  2  0  0  0
 22 23  1  0  0  0
 23 24  2  0  0  0
 24 25  1  0  0  0
 25 26  2  0  0  0
 19 14  1  0  0  0
  8  1  1  0  0  0
 26 21  1  0  0  0
  7  2  1  0  0  0
 11 12  1  0  0  0
M  END
> <minimizedAffinity>
-8.37099

> <CNNscore>
0.2522806227

> <CNNaffinity>
6.2298984528

> <CNN_VS>
1.5716826916

> <CNNaffinity_variance>
0.2849697471

$$$$
[H]c1c([H])c([H])c(C([H])([H])[C@]2([H])N3C([H])([H])C([H])([H])C([H])(C([H])([H])C3([H])[H])[C@@]2([H])N([H])C(=O)c2c([H])c([H])c(Cl)c([H])c2[H])c([H])c1[H]


 26 29  0  0  0  0  0  0  0  0999 V2000
  -17.9233   15.6634  -21.3670 C   0  0  0  0  0  0  0  0  0  0  0  0
  -16.4748   16.1340  -21.4066 C   0  0  0  0  0  0  0  0  0  0  0  0
  -16.2513   17.1014  -20.2413 C   0  0  0  0  0  0  0  0  0  0  0  0
  -17.0067   18.3838  -20.4823 C   0  0  0  0  0  0  0  0  0  0  0  0
  -18.1001   18.0728  -21.4072 N   0  0  0  0  0  0  0  0  0  0  0  0
  -17.4950   17.9148  -22.7128 C   0  0  0  0  0  0  0  0  0  0  0  0
  -16.3393   16.9408  -22.7011 C   0  0  0  0  0  0  0  0  0  0  0  0
  -18.7649   16.8720  -20.9497 C   0  0  0  0  0  0  0  0  0  0  0  0
  -17.8724   13.2398  -20.7312 C   0  0  0  0  0  0  0  0  0  0  0  0
  -17.5750   12.9293  -21.9251 O   0  0  0  0  0  0  0  0  0  0  0  0
  -18.0651   14.6005  -20.3687 N   0  0  0  0  0  0  0  0  0  0  0  0
  -18.3071   14.8592  -19.3998 H   0  0  0  0  0  0  0  0  0  0  0  0
  -18.5062    8.8067  -16.7166 Cl  0  0  0  0  0  0  0  0  0  0  0  0
  -18.3089   10.0925  -17.8970 C   0  0  0  0  0  0  0  0  0  0  0  0
  -17.3935    9.9959  -18.9070 C   0  0  0  0  0  0  0  0  0  0  0  0
  -17.2383   11.0117  -19.8386 C   0  0  0  0  0  0  0  0  0  0  0  0
  -18.0026   12.1503  -19.7749 C   0  0  0  0  0  0  0  0  0  0  0  0
  -18.9260   12.2211  -18.7363 C   0  0  0  0  0  0  0  0  0  0  0  0
  -19.0800   11.2172  -17.8148 C   0  0  0  0  0  0  0  0  0  0  0  0
  -20.0940   16.7363  -21.5957 C   0  0  0  0  0  0  0  0  0  0  0  0
  -21.2523   17.0487  -20.7861 C   0  0  0  0  0  0  0  0  0  0  0  0
  -22.4178   17.4399  -21.4126 C   0  0  0  0  0  0  0  0  0  0  0  0
  -23.5617   17.7513  -20.6679 C   0  0  0  0  0  0  0  0  0  0  0  0
  -23.5249   17.6665  -19.2915 C   0  0  0  0  0  0  0  0  0  0  0  0
  -22.3670   17.2768  -18.6509 C   0  0  0  0  0  0  0  0  0  0  0  0
  -21.2515   16.9754  -19.4199 C   0  0  0  0  0  0  0  0  0  0  0  0
 13 14  1  0  0  0
 14 15  2  0  0  0
 15 16  1  0  0  0
 16 17  2  0  0  0
 17 18  1  0  0  0
 18 19  2  0  0  0
 17  9  1  0  0  0
  9 10  2  0  0  0
  9 11  1  0  0  0
 11  1  1  0  0  0
  1  2  1  0  0  0
  2  3  1  0  0  0
  3  4  1  0  0  0
  4  5  1  0  0  0
  5  6  1  0  0  0
  6  7  1  0  0  0
  5  8  1  0  0  0
  8 20  1  0  0  0
 20 21  1  0  0  0
 21 22  2  0  0  0
 22 23  1  0  0  0
 23 24  2  0  0  0
 24 25  1  0  0  0
 25 26  2  0  0  0
 19 14  1  0  0  0
  8  1  1  0  0  0
 26 21  1  0  0  0
  7  2  1  0  0  0
 11 12  1  0  0  0
M  END
> <minimizedAffinity>
-7.54115

> <CNNscore>
0.2519090772

> <CNNaffinity>
5.8537778854

> <CNN_VS>
1.4746197462

> <CNNaffinity_variance>
0.0703682601

$$$$
[H]c1c(C([H])([H])C([H])([H])[H])nc(C2(N3C([H])([H])C([H])([H])C([H])(C(=O)N([H])c4c([H])c([H])c(C([H])([H])[H])c(Cl)c4[H])C([H])([H])C3([H])[H])C([H])([H])C([H])([H])C2([H])[H])c([H])c1[H]


 30 33  0  0  0  0  0  0  0  0999 V2000
  -19.5779   10.5551  -15.9046 N   0  0  0  0  0  0  0  0  0  0  0  0
  -19.4988    9.5196  -16.8932 C   0  0  0  0  0  0  0  0  0  0  0  0
  -18.3153    9.8209  -17.8322 C   0  0  0  0  0  0  0  0  0  0  0  0
  -18.1693   11.3158  -17.9763 C   0  0  0  0  0  0  0  0  0  0  0  0
  -19.5748   11.8776  -17.9613 C   0  0  0  0  0  0  0  0  0  0  0  0
  -20.1201   11.7502  -16.5224 C   0  0  0  0  0  0  0  0  0  0  0  0
  -20.2386   10.1855  -14.7016 C   0  0  0  0  0  0  0  0  0  0  0  0
  -19.7460    8.9733  -13.9706 C   0  0  0  0  0  0  0  0  0  0  0  0
  -19.3979    9.8324  -12.7773 C   0  0  0  0  0  0  0  0  0  0  0  0
  -19.8118   11.0546  -13.5424 C   0  0  0  0  0  0  0  0  0  0  0  0
  -23.7711   11.1670  -14.1986 C   0  0  0  0  0  0  0  0  0  0  0  0
  -24.4637   10.1912  -14.8787 C   0  0  0  0  0  0  0  0  0  0  0  0
  -23.7728    9.1689  -15.5287 C   0  0  0  0  0  0  0  0  0  0  0  0
  -22.4000    9.1540  -15.4797 C   0  0  0  0  0  0  0  0  0  0  0  0
  -21.7262   10.1269  -14.8049 C   0  0  0  0  0  0  0  0  0  0  0  0
  -22.4302   11.0980  -14.1870 N   0  0  0  0  0  0  0  0  0  0  0  0
  -24.2886   13.5868  -14.1814 C   0  0  0  0  0  0  0  0  0  0  0  0
  -24.4854   12.2589  -13.5090 C   0  0  0  0  0  0  0  0  0  0  0  0
  -17.4294   11.7444  -19.1563 C   0  0  0  0  0  0  0  0  0  0  0  0
  -16.3160   11.2595  -19.5024 O   0  0  0  0  0  0  0  0  0  0  0  0
  -17.9887   12.7606  -19.9716 N   0  0  0  0  0  0  0  0  0  0  0  0
  -18.9213   13.1773  -19.6791 H   0  0  0  0  0  0  0  0  0  0  0  0
  -17.4579   13.2930  -21.1579 C   0  0  0  0  0  0  0  0  0  0  0  0
  -17.3486   12.4397  -22.2653 C   0  0  0  0  0  0  0  0  0  0  0  0
  -16.8712   12.9094  -23.4717 C   0  0  0  0  0  0  0  0  0  0  0  0
  -16.4984   14.2265  -23.5911 C   0  0  0  0  0  0  0  0  0  0  0  0
  -15.9979   14.7518  -24.8792 C   0  0  0  0  0  0  0  0  0  0  0  0
  -16.5981   15.0703  -22.5153 C   0  0  0  0  0  0  0  0  0  0  0  0
  -16.1113   16.7392  -22.7169 Cl  0  0  0  0  0  0  0  0  0  0  0  0
  -17.0779   14.6209  -21.2808 C   0  0  0  0  0  0  0  0  0  0  0  0
 17 18  1  0  0  0
 18 11  1  0  0  0
 11 12  2  0  0  0
 12 13  1  0  0  0
 13 14  2  0  0  0
 14 15  1  0  0  0
 15 16  2  0  0  0
 15  7  1  0  0  0
  7  8  1  0  0  0
  8  9  1  0  0  0
  9 10  1  0  0  0
  7  1  1  0  0  0
  1  2  1  0  0  0
  2  3  1  0  0  0
  3  4  1  0  0  0
  4  5  1  0  0  0
  5  6  1  0  0  0
  4 19  1  0  0  0
 19 20  2  0  0  0
 19 21  1  0  0  0
 21 23  1  0  0  0
 23 24  2  0  0  0
 24 25  1  0  0  0
 25 26  2  0  0  0
 26 27  1  0  0  0
 26 28  1  0  0  0
 28 29  1  0  0  0
 28 30  2  0  0  0
 16 11  1  0  0  0
 10  7  1  0  0  0
  6  1  1  0  0  0
 30 23  1  0  0  0
 21 22  1  0  0  0
M  END
> <minimizedAffinity>
-7.42092

> <CNNscore>
0.2826888561

> <CNNaffinity>
6.2736597061

> <CNN_VS>
1.7734936476

> <CNNaffinity_variance>
0.1328122616

$$$$
[H]c1c(C([H])([H])C([H])([H])[H])nc(C2(N3C([H])([H])C([H])([H])C([H])(C(=O)N([H])c4c([H])c([H])c(C([H])([H])[H])c(Cl)c4[H])C([H])([H])C3([H])[H])C([H])([H])C([H])([H])C2([H])[H])c([H])c1[H]


 30 33  0  0  0  0  0  0  0  0999 V2000
  -19.9981   10.9779  -15.5368 N   0  0  0  0  0  0  0  0  0  0  0  0
  -20.1777   10.0457  -16.6113 C   0  0  0  0  0  0  0  0  0  0  0  0
  -18.9619   10.1352  -17.5529 C   0  0  0  0  0  0  0  0  0  0  0  0
  -18.4591   11.5578  -17.5739 C   0  0  0  0  0  0  0  0  0  0  0  0
  -19.6866   12.4377  -17.4735 C   0  0  0  0  0  0  0  0  0  0  0  0
  -20.2383   12.3183  -16.0363 C   0  0  0  0  0  0  0  0  0  0  0  0
  -20.7217   10.6731  -14.3519 C   0  0  0  0  0  0  0  0  0  0  0  0
  -21.4295   11.7927  -13.6506 C   0  0  0  0  0  0  0  0  0  0  0  0
  -22.7543   11.1054  -13.8870 C   0  0  0  0  0  0  0  0  0  0  0  0
  -22.0525   10.0299  -14.6623 C   0  0  0  0  0  0  0  0  0  0  0  0
  -18.9141    9.8802  -11.2217 C   0  0  0  0  0  0  0  0  0  0  0  0
  -18.5599    8.5614  -11.3939 C   0  0  0  0  0  0  0  0  0  0  0  0
  -18.9121    7.8910  -12.5650 C   0  0  0  0  0  0  0  0  0  0  0  0
  -19.6144    8.5642  -13.5348 C   0  0  0  0  0  0  0  0  0  0  0  0
  -19.9610    9.8688  -13.3512 C   0  0  0  0  0  0  0  0  0  0  0  0
  -19.6002   10.4835  -12.2057 N   0  0  0  0  0  0  0  0  0  0  0  0
  -17.2350   10.1579   -9.4252 C   0  0  0  0  0  0  0  0  0  0  0  0
  -18.5539   10.6041   -9.9870 C   0  0  0  0  0  0  0  0  0  0  0  0
  -17.6442   11.8985  -18.7330 C   0  0  0  0  0  0  0  0  0  0  0  0
  -16.5028   11.4076  -18.9587 O   0  0  0  0  0  0  0  0  0  0  0  0
  -18.1586   12.8305  -19.6693 N   0  0  0  0  0  0  0  0  0  0  0  0
  -19.1149   13.2524  -19.4786 H   0  0  0  0  0  0  0  0  0  0  0  0
  -17.5533   13.2701  -20.8580 C   0  0  0  0  0  0  0  0  0  0  0  0
  -17.3801   12.3342  -21.8878 C   0  0  0  0  0  0  0  0  0  0  0  0
  -16.8271   12.7097  -23.0949 C   0  0  0  0  0  0  0  0  0  0  0  0
  -16.4412   14.0138  -23.2917 C   0  0  0  0  0  0  0  0  0  0  0  0
  -15.8599   14.4384  -24.5830 C   0  0  0  0  0  0  0  0  0  0  0  0
  -16.6029   14.9377  -22.2920 C   0  0  0  0  0  0  0  0  0  0  0  0
  -16.0967   16.5862  -22.5906 Cl  0  0  0  0  0  0  0  0  0  0  0  0
  -17.1600   14.5846  -21.0587 C   0  0  0  0  0  0  0  0  0  0  0  0
 17 18  1  0  0  0
 18 11  1  0  0  0
 11 12  2  0  0  0
 12 13  1  0  0  0
 13 14  2  0  0  0
 14 15  1  0  0  0
 15 16  2  0  0  0
 15  7  1  0  0  0
  7  8  1  0  0  0
  8  9  1  0  0  0
  9 10  1  0  0  0
  7  1  1  0  0  0
  1  2  1  0  0  0
  2  3  1  0  0  0
  3  4  1  0  0  0
  4  5  1  0  0  0
  5  6  1  0  0  0
  4 19  1  0  0  0
 19 20  2  0  0  0
 19 21  1  0  0  0
 21 23  1  0  0  0
 23 24  2  0  0  0
 24 25  1  0  0  0
 25 26  2  0  0  0
 26 27  1  0  0  0
 26 28  1  0  0  0
 28 29  1  0  0  0
 28 30  2  0  0  0
 16 11  1  0  0  0
 10  7  1  0  0  0
  6  1  1  0  0  0
 30 23  1  0  0  0
 21 22  1  0  0  0
M  END
> <minimizedAffinity>
-7.89765

> <CNNscore>
0.2223892063

> <CNNaffinity>
6.0772371292

> <CNN_VS>
1.3515119553

> <CNNaffinity_variance>
0.0790503621

$$$$
[H]c1c(C([H])([H])C([H])([H])[H])nc(C2(N3C([H])([H])C([H])([H])C([H])(C(=O)N([H])c4c([H])c([H])c(C([H])([H])[H])c(Cl)c4[H])C([H])([H])C3([H])[H])C([H])([H])C([H])([H])C2([H])[H])c([H])c1[H]


 30 33  0  0  0  0  0  0  0  0999 V2000
  -17.4102   14.8169  -21.5207 N   0  0  0  0  0  0  0  0  0  0  0  0
  -16.5116   15.9343  -21.5196 C   0  0  0  0  0  0  0  0  0  0  0  0
  -16.7421   16.7537  -20.2358 C   0  0  0  0  0  0  0  0  0  0  0  0
  -18.2015   16.6795  -19.8597 C   0  0  0  0  0  0  0  0  0  0  0  0
  -18.9702   16.6657  -21.1635 C   0  0  0  0  0  0  0  0  0  0  0  0
  -18.7452   15.2916  -21.8310 C   0  0  0  0  0  0  0  0  0  0  0  0
  -16.9966   13.7164  -22.3196 C   0  0  0  0  0  0  0  0  0  0  0  0
  -17.7612   13.4314  -23.5768 C   0  0  0  0  0  0  0  0  0  0  0  0
  -16.5155   13.6853  -24.3937 C   0  0  0  0  0  0  0  0  0  0  0  0
  -15.7753   14.0530  -23.1418 C   0  0  0  0  0  0  0  0  0  0  0  0
  -17.4108   11.1932  -19.6444 C   0  0  0  0  0  0  0  0  0  0  0  0
  -16.5682   10.1798  -20.0410 C   0  0  0  0  0  0  0  0  0  0  0  0
  -15.8300   10.3057  -21.2175 C   0  0  0  0  0  0  0  0  0  0  0  0
  -15.9588   11.4490  -21.9680 C   0  0  0  0  0  0  0  0  0  0  0  0
  -16.7979   12.4439  -21.5656 C   0  0  0  0  0  0  0  0  0  0  0  0
  -17.4936   12.2858  -20.4204 N   0  0  0  0  0  0  0  0  0  0  0  0
  -18.2535    9.6662  -17.8889 C   0  0  0  0  0  0  0  0  0  0  0  0
  -18.2031   11.0752  -18.4048 C   0  0  0  0  0  0  0  0  0  0  0  0
  -18.6575   17.7447  -18.9757 C   0  0  0  0  0  0  0  0  0  0  0  0
  -18.5754   18.9734  -19.2551 O   0  0  0  0  0  0  0  0  0  0  0  0
  -19.2334   17.3881  -17.7302 N   0  0  0  0  0  0  0  0  0  0  0  0
  -19.2965   16.3556  -17.4877 H   0  0  0  0  0  0  0  0  0  0  0  0
  -19.7582   18.2503  -16.7535 C   0  0  0  0  0  0  0  0  0  0  0  0
  -19.2130   18.1846  -15.4633 C   0  0  0  0  0  0  0  0  0  0  0  0
  -19.6568   19.0304  -14.4675 C   0  0  0  0  0  0  0  0  0  0  0  0
  -20.6434   19.9470  -14.7411 C   0  0  0  0  0  0  0  0  0  0  0  0
  -21.1221   20.8713  -13.6912 C   0  0  0  0  0  0  0  0  0  0  0  0
  -21.1862   20.0195  -15.9978 C   0  0  0  0  0  0  0  0  0  0  0  0
  -22.4397   21.2035  -16.2974 Cl  0  0  0  0  0  0  0  0  0  0  0  0
  -20.7558   19.1742  -17.0256 C   0  0  0  0  0  0  0  0  0  0  0  0
 17 18  1  0  0  0
 18 11  1  0  0  0
 11 12  2  0  0  0
 12 13  1  0  0  0
 13 14  2  0  0  0
 14 15  1  0  0  0
 15 16  2  0  0  0
 15  7  1  0  0  0
  7  8  1  0  0  0
  8  9  1  0  0  0
  9 10  1  0  0  0
  7  1  1  0  0  0
  1  2  1  0  0  0
  2  3  1  0  0  0
  3  4  1  0  0  0
  4  5  1  0  0  0
  5  6  1  0  0  0
  4 19  1  0  0  0
 19 20  2  0  0  0
 19 21  1  0  0  0
 21 23  1  0  0  0
 23 24  2  0  0  0
 24 25  1  0  0  0
 25 26  2  0  0  0
 26 27  1  0  0  0
 26 28  1  0  0  0
 28 29  1  0  0  0
 28 30  2  0  0  0
 16 11  1  0  0  0
 10  7  1  0  0  0
  6  1  1  0  0  0
 30 23  1  0  0  0
 21 22  1  0  0  0
M  END
> <minimizedAffinity>
-7.88992

> <CNNscore>
0.2045661807

> <CNNaffinity>
6.2496438026

> <CNN_VS>
1.2784657478

> <CNNaffinity_variance>
0.1369965076

$$$$
[H]c1c(C([H])([H])C([H])([H])[H])nc(C2(N3C([H])([H])C([H])([H])C([H])(C(=O)N([H])c4c([H])c([H])c(C([H])([H])[H])c(Cl)c4[H])C([H])([H])C3([H])[H])C([H])([H])C([H])([H])C2([H])[H])c([H])c1[H]


 30 33  0  0  0  0  0  0  0  0999 V2000
  -20.1535    9.1015  -13.9141 N   0  0  0  0  0  0  0  0  0  0  0  0
  -19.9616    8.1557  -14.9745 C   0  0  0  0  0  0  0  0  0  0  0  0
  -19.1840    8.8407  -16.1142 C   0  0  0  0  0  0  0  0  0  0  0  0
  -19.5731   10.2976  -16.1695 C   0  0  0  0  0  0  0  0  0  0  0  0
  -21.0442   10.3521  -15.8172 C   0  0  0  0  0  0  0  0  0  0  0  0
  -21.1816   10.0450  -14.3102 C   0  0  0  0  0  0  0  0  0  0  0  0
  -20.3699    8.5280  -12.6316 C   0  0  0  0  0  0  0  0  0  0  0  0
  -21.7825    8.3933  -12.1491 C   0  0  0  0  0  0  0  0  0  0  0  0
  -21.6247    6.8912  -12.1016 C   0  0  0  0  0  0  0  0  0  0  0  0
  -20.2409    7.0236  -12.6656 C   0  0  0  0  0  0  0  0  0  0  0  0
  -17.6456    8.7856  -10.1404 C   0  0  0  0  0  0  0  0  0  0  0  0
  -17.8767   10.0090   -9.5538 C   0  0  0  0  0  0  0  0  0  0  0  0
  -18.9539   10.7908   -9.9703 C   0  0  0  0  0  0  0  0  0  0  0  0
  -19.7726   10.3226  -10.9691 C   0  0  0  0  0  0  0  0  0  0  0  0
  -19.5318    9.1108  -11.5431 C   0  0  0  0  0  0  0  0  0  0  0  0
  -18.4809    8.3829  -11.1115 N   0  0  0  0  0  0  0  0  0  0  0  0
  -16.6079    6.5409  -10.2322 C   0  0  0  0  0  0  0  0  0  0  0  0
  -16.5078    7.9470   -9.7155 C   0  0  0  0  0  0  0  0  0  0  0  0
  -19.2983   10.9534  -17.4416 C   0  0  0  0  0  0  0  0  0  0  0  0
  -20.0571   11.8156  -17.9663 O   0  0  0  0  0  0  0  0  0  0  0  0
  -18.1085   10.6129  -18.1334 N   0  0  0  0  0  0  0  0  0  0  0  0
  -17.4716    9.8815  -17.6994 H   0  0  0  0  0  0  0  0  0  0  0  0
  -17.6446   11.1441  -19.3480 C   0  0  0  0  0  0  0  0  0  0  0  0
  -16.6647   10.4225  -20.0447 C   0  0  0  0  0  0  0  0  0  0  0  0
  -16.1938   10.8694  -21.2623 C   0  0  0  0  0  0  0  0  0  0  0  0
  -16.6890   12.0333  -21.7992 C   0  0  0  0  0  0  0  0  0  0  0  0
  -16.2074   12.5207  -23.1093 C   0  0  0  0  0  0  0  0  0  0  0  0
  -17.6454   12.7491  -21.1269 C   0  0  0  0  0  0  0  0  0  0  0  0
  -18.2453   14.2249  -21.8517 Cl  0  0  0  0  0  0  0  0  0  0  0  0
  -18.1400   12.3199  -19.8910 C   0  0  0  0  0  0  0  0  0  0  0  0
 17 18  1  0  0  0
 18 11  1  0  0  0
 11 12  2  0  0  0
 12 13  1  0  0  0
 13 14  2  0  0  0
 14 15  1  0  0  0
 15 16  2  0  0  0
 15  7  1  0  0  0
  7  8  1  0  0  0
  8  9  1  0  0  0
  9 10  1  0  0  0
  7  1  1  0  0  0
  1  2  1  0  0  0
  2  3  1  0  0  0
  3  4  1  0  0  0
  4  5  1  0  0  0
  5  6  1  0  0  0
  4 19  1  0  0  0
 19 20  2  0  0  0
 19 21  1  0  0  0
 21 23  1  0  0  0
 23 24  2  0  0  0
 24 25  1  0  0  0
 25 26  2  0  0  0
 26 27  1  0  0  0
 26 28  1  0  0  0
 28 29  1  0  0  0
 28 30  2  0  0  0
 16 11  1  0  0  0
 10  7  1  0  0  0
  6  1  1  0  0  0
 30 23  1  0  0  0
 21 22  1  0  0  0
M  END
> <minimizedAffinity>
-8.11486

> <CNNscore>
0.1693881899

> <CNNaffinity>
5.6965169907

> <CNN_VS>
0.9649227262

> <CNNaffinity_variance>
0.1463972628

$$$$
[H]c1c(C([H])([H])C([H])([H])[H])nc(C2(N3C([H])([H])C([H])([H])C([H])(C(=O)N([H])c4c([H])c([H])c(C([H])([H])[H])c(Cl)c4[H])C([H])([H])C3([H])[H])C([H])([H])C([H])([H])C2([H])[H])c([H])c1[H]


 30 33  0  0  0  0  0  0  0  0999 V2000
  -17.5947   14.6517  -22.1509 N   0  0  0  0  0  0  0  0  0  0  0  0
  -18.8554   14.6501  -21.4679 C   0  0  0  0  0  0  0  0  0  0  0  0
  -18.6622   14.0248  -20.0734 C   0  0  0  0  0  0  0  0  0  0  0  0
  -17.5998   12.9565  -20.1558 C   0  0  0  0  0  0  0  0  0  0  0  0
  -17.7706   12.2990  -21.5084 C   0  0  0  0  0  0  0  0  0  0  0  0
  -17.2967   13.2999  -22.5844 C   0  0  0  0  0  0  0  0  0  0  0  0
  -17.4741   15.6210  -23.1836 C   0  0  0  0  0  0  0  0  0  0  0  0
  -16.1131   15.8724  -23.7588 C   0  0  0  0  0  0  0  0  0  0  0  0
  -16.5975   15.4069  -25.1124 C   0  0  0  0  0  0  0  0  0  0  0  0
  -17.9332   15.0758  -24.5152 C   0  0  0  0  0  0  0  0  0  0  0  0
  -20.0656   18.2625  -23.2153 C   0  0  0  0  0  0  0  0  0  0  0  0
  -19.5000   19.2606  -22.4549 C   0  0  0  0  0  0  0  0  0  0  0  0
  -18.2301   19.0856  -21.9057 C   0  0  0  0  0  0  0  0  0  0  0  0
  -17.5599   17.9084  -22.1341 C   0  0  0  0  0  0  0  0  0  0  0  0
  -18.1316   16.9273  -22.8867 C   0  0  0  0  0  0  0  0  0  0  0  0
  -19.3609   17.1350  -23.4026 N   0  0  0  0  0  0  0  0  0  0  0  0
  -22.4403   18.8003  -22.7733 C   0  0  0  0  0  0  0  0  0  0  0  0
  -21.4103   18.4286  -23.8005 C   0  0  0  0  0  0  0  0  0  0  0  0
  -17.6321   11.9809  -19.0736 C   0  0  0  0  0  0  0  0  0  0  0  0
  -16.6028   11.4272  -18.5955 O   0  0  0  0  0  0  0  0  0  0  0  0
  -18.8882   11.6326  -18.5161 N   0  0  0  0  0  0  0  0  0  0  0  0
  -19.7574   12.0899  -18.9214 H   0  0  0  0  0  0  0  0  0  0  0  0
  -19.1360   10.7441  -17.4570 C   0  0  0  0  0  0  0  0  0  0  0  0
  -18.5882    9.4561  -17.5430 C   0  0  0  0  0  0  0  0  0  0  0  0
  -18.7618    8.5473  -16.5193 C   0  0  0  0  0  0  0  0  0  0  0  0
  -19.4787    8.9063  -15.4033 C   0  0  0  0  0  0  0  0  0  0  0  0
  -19.6635    7.9513  -14.2900 C   0  0  0  0  0  0  0  0  0  0  0  0
  -20.0214   10.1615  -15.3082 C   0  0  0  0  0  0  0  0  0  0  0  0
  -20.9258   10.5717  -13.8671 Cl  0  0  0  0  0  0  0  0  0  0  0  0
  -19.8617   11.1021  -16.3309 C   0  0  0  0  0  0  0  0  0  0  0  0
 17 18  1  0  0  0
 18 11  1  0  0  0
 11 12  2  0  0  0
 12 13  1  0  0  0
 13 14  2  0  0  0
 14 15  1  0  0  0
 15 16  2  0  0  0
 15  7  1  0  0  0
  7  8  1  0  0  0
  8  9  1  0  0  0
  9 10  1  0  0  0
  7  1  1  0  0  0
  1  2  1  0  0  0
  2  3  1  0  0  0
  3  4  1  0  0  0
  4  5  1  0  0  0
  5  6  1  0  0  0
  4 19  1  0  0  0
 19 20  2  0  0  0
 19 21  1  0  0  0
 21 23  1  0  0  0
 23 24  2  0  0  0
 24 25  1  0  0  0
 25 26  2  0  0  0
 26 27  1  0  0  0
 26 28  1  0  0  0
 28 29  1  0  0  0
 28 30  2  0  0  0
 16 11  1  0  0  0
 10  7  1  0  0  0
  6  1  1  0  0  0
 30 23  1  0  0  0
 21 22  1  0  0  0
M  END
> <minimizedAffinity>
-8.25814

> <CNNscore>
0.1689050198

> <CNNaffinity>
6.5003442764

> <CNN_VS>
1.0979408026

> <CNNaffinity_variance>
0.2944394648

$$$$
[H]c1c(C([H])([H])C([H])([H])[H])nc(C2(N3C([H])([H])C([H])([H])C([H])(C(=O)N([H])c4c([H])c([H])c(C([H])([H])[H])c(Cl)c4[H])C([H])([H])C3([H])[H])C([H])([H])C([H])([H])C2([H])[H])c([H])c1[H]


 30 33  0  0  0  0  0  0  0  0999 V2000
  -17.5023   13.9580  -21.5679 N   0  0  0  0  0  0  0  0  0  0  0  0
  -18.8717   13.8238  -21.1650 C   0  0  0  0  0  0  0  0  0  0  0  0
  -18.9155   13.1805  -19.7660 C   0  0  0  0  0  0  0  0  0  0  0  0
  -17.7636   12.2152  -19.6317 C   0  0  0  0  0  0  0  0  0  0  0  0
  -17.5861   11.5822  -20.9952 C   0  0  0  0  0  0  0  0  0  0  0  0
  -16.9947   12.6510  -21.9397 C   0  0  0  0  0  0  0  0  0  0  0  0
  -17.2607   14.9621  -22.5446 C   0  0  0  0  0  0  0  0  0  0  0  0
  -16.0279   14.8424  -23.3885 C   0  0  0  0  0  0  0  0  0  0  0  0
  -16.8853   14.7280  -24.6275 C   0  0  0  0  0  0  0  0  0  0  0  0
  -18.1173   14.7620  -23.7723 C   0  0  0  0  0  0  0  0  0  0  0  0
  -18.5736   18.4032  -22.1849 C   0  0  0  0  0  0  0  0  0  0  0  0
  -17.7456   18.9529  -21.2327 C   0  0  0  0  0  0  0  0  0  0  0  0
  -16.7171   18.1915  -20.6783 C   0  0  0  0  0  0  0  0  0  0  0  0
  -16.5474   16.8935  -21.0948 C   0  0  0  0  0  0  0  0  0  0  0  0
  -17.3751   16.3605  -22.0364 C   0  0  0  0  0  0  0  0  0  0  0  0
  -18.3573   17.1295  -22.5507 N   0  0  0  0  0  0  0  0  0  0  0  0
  -20.7119   18.3282  -23.4282 C   0  0  0  0  0  0  0  0  0  0  0  0
  -19.6700   19.1926  -22.7792 C   0  0  0  0  0  0  0  0  0  0  0  0
  -17.9288   11.2114  -18.5882 C   0  0  0  0  0  0  0  0  0  0  0  0
  -17.0580   10.3419  -18.3051 O   0  0  0  0  0  0  0  0  0  0  0  0
  -19.1325   11.2084  -17.8390 N   0  0  0  0  0  0  0  0  0  0  0  0
  -19.8713   11.9330  -18.0799 H   0  0  0  0  0  0  0  0  0  0  0  0
  -19.4772   10.3531  -16.7796 C   0  0  0  0  0  0  0  0  0  0  0  0
  -19.2465    8.9801  -16.9469 C   0  0  0  0  0  0  0  0  0  0  0  0
  -19.5272    8.0901  -15.9306 C   0  0  0  0  0  0  0  0  0  0  0  0
  -20.0382    8.5520  -14.7416 C   0  0  0  0  0  0  0  0  0  0  0  0
  -20.3320    7.6156  -13.6359 C   0  0  0  0  0  0  0  0  0  0  0  0
  -20.2705    9.8916  -14.5664 C   0  0  0  0  0  0  0  0  0  0  0  0
  -20.9217   10.4314  -13.0342 Cl  0  0  0  0  0  0  0  0  0  0  0  0
  -19.9959   10.8157  -15.5797 C   0  0  0  0  0  0  0  0  0  0  0  0
 17 18  1  0  0  0
 18 11  1  0  0  0
 11 12  2  0  0  0
 12 13  1  0  0  0
 13 14  2  0  0  0
 14 15  1  0  0  0
 15 16  2  0  0  0
 15  7  1  0  0  0
  7  8  1  0  0  0
  8  9  1  0  0  0
  9 10  1  0  0  0
  7  1  1  0  0  0
  1  2  1  0  0  0
  2  3  1  0  0  0
  3  4  1  0  0  0
  4  5  1  0  0  0
  5  6  1  0  0  0
  4 19  1  0  0  0
 19 20  2  0  0  0
 19 21  1  0  0  0
 21 23  1  0  0  0
 23 24  2  0  0  0
 24 25  1  0  0  0
 25 26  2  0  0  0
 26 27  1  0  0  0
 26 28  1  0  0  0
 28 29  1  0  0  0
 28 30  2  0  0  0
 16 11  1  0  0  0
 10  7  1  0  0  0
  6  1  1  0  0  0
 30 23  1  0  0  0
 21 22  1  0  0  0
M  END
> <minimizedAffinity>
-7.94499

> <CNNscore>
0.1655001044

> <CNNaffinity>
6.4728927612

> <CNN_VS>
1.0712643862

> <CNNaffinity_variance>
0.1776330620

$$$$
[H]c1c(C([H])([H])C([H])([H])[H])nc(C2(N3C([H])([H])C([H])([H])C([H])(C(=O)N([H])c4c([H])c([H])c(C([H])([H])[H])c(Cl)c4[H])C([H])([H])C3([H])[H])C([H])([H])C([H])([H])C2([H])[H])c([H])c1[H]


 30 33  0  0  0  0  0  0  0  0999 V2000
  -17.4932   13.8723  -21.4029 N   0  0  0  0  0  0  0  0  0  0  0  0
  -18.9069   13.8346  -21.1669 C   0  0  0  0  0  0  0  0  0  0  0  0
  -19.1598   13.2369  -19.7698 C   0  0  0  0  0  0  0  0  0  0  0  0
  -18.0972   12.2070  -19.4751 C   0  0  0  0  0  0  0  0  0  0  0  0
  -17.7985   11.5242  -20.7926 C   0  0  0  0  0  0  0  0  0  0  0  0
  -17.0301   12.5261  -21.6814 C   0  0  0  0  0  0  0  0  0  0  0  0
  -17.0717   14.8302  -22.3648 C   0  0  0  0  0  0  0  0  0  0  0  0
  -15.7524   14.6150  -23.0426 C   0  0  0  0  0  0  0  0  0  0  0  0
  -16.4534   14.5106  -24.3772 C   0  0  0  0  0  0  0  0  0  0  0  0
  -17.7784   14.6407  -23.6859 C   0  0  0  0  0  0  0  0  0  0  0  0
  -18.2335   18.3414  -22.2355 C   0  0  0  0  0  0  0  0  0  0  0  0
  -17.4804   18.8797  -21.2170 C   0  0  0  0  0  0  0  0  0  0  0  0
  -16.5555   18.0868  -20.5382 C   0  0  0  0  0  0  0  0  0  0  0  0
  -16.4117   16.7695  -20.9001 C   0  0  0  0  0  0  0  0  0  0  0  0
  -17.1647   16.2481  -21.9085 C   0  0  0  0  0  0  0  0  0  0  0  0
  -18.0473   17.0476  -22.5427 N   0  0  0  0  0  0  0  0  0  0  0  0
  -20.4092   18.3671  -23.4142 C   0  0  0  0  0  0  0  0  0  0  0  0
  -19.2202   19.1643  -22.9616 C   0  0  0  0  0  0  0  0  0  0  0  0
  -18.4511   11.2466  -18.4377 C   0  0  0  0  0  0  0  0  0  0  0  0
  -17.7469   10.2415  -18.1405 O   0  0  0  0  0  0  0  0  0  0  0  0
  -19.6518   11.4493  -17.7115 N   0  0  0  0  0  0  0  0  0  0  0  0
  -20.2515   12.2891  -17.9644 H   0  0  0  0  0  0  0  0  0  0  0  0
  -20.1575   10.6659  -16.6612 C   0  0  0  0  0  0  0  0  0  0  0  0
  -21.2438   11.1722  -15.9330 C   0  0  0  0  0  0  0  0  0  0  0  0
  -21.8124   10.4362  -14.9138 C   0  0  0  0  0  0  0  0  0  0  0  0
  -21.3104    9.1943  -14.6074 C   0  0  0  0  0  0  0  0  0  0  0  0
  -21.9152    8.3848  -13.5282 C   0  0  0  0  0  0  0  0  0  0  0  0
  -20.2473    8.6892  -15.3102 C   0  0  0  0  0  0  0  0  0  0  0  0
  -19.6438    7.1028  -14.8832 Cl  0  0  0  0  0  0  0  0  0  0  0  0
  -19.6513    9.4136  -16.3475 C   0  0  0  0  0  0  0  0  0  0  0  0
 17 18  1  0  0  0
 18 11  1  0  0  0
 11 12  2  0  0  0
 12 13  1  0  0  0
 13 14  2  0  0  0
 14 15  1  0  0  0
 15 16  2  0  0  0
 15  7  1  0  0  0
  7  8  1  0  0  0
  8  9  1  0  0  0
  9 10  1  0  0  0
  7  1  1  0  0  0
  1  2  1  0  0  0
  2  3  1  0  0  0
  3  4  1  0  0  0
  4  5  1  0  0  0
  5  6  1  0  0  0
  4 19  1  0  0  0
 19 20  2  0  0  0
 19 21  1  0  0  0
 21 23  1  0  0  0
 23 24  2  0  0  0
 24 25  1  0  0  0
 25 26  2  0  0  0
 26 27  1  0  0  0
 26 28  1  0  0  0
 28 29  1  0  0  0
 28 30  2  0  0  0
 16 11  1  0  0  0
 10  7  1  0  0  0
  6  1  1  0  0  0
 30 23  1  0  0  0
 21 22  1  0  0  0
M  END
> <minimizedAffinity>
-7.80049

> <CNNscore>
0.1539549381

> <CNNaffinity>
6.4118056297

> <CNN_VS>
0.9871291518

> <CNNaffinity_variance>
0.2290244102

$$$$
[H]c1c(C([H])([H])C([H])([H])[H])nc(C2(N3C([H])([H])C([H])([H])C([H])(C(=O)N([H])c4c([H])c([H])c(C([H])([H])[H])c(Cl)c4[H])C([H])([H])C3([H])[H])C([H])([H])C([H])([H])C2([H])[H])c([H])c1[H]


 30 33  0  0  0  0  0  0  0  0999 V2000
  -19.7515    9.3625  -15.3597 N   0  0  0  0  0  0  0  0  0  0  0  0
  -19.4961    8.5540  -16.5159 C   0  0  0  0  0  0  0  0  0  0  0  0
  -18.4579    9.2695  -17.4009 C   0  0  0  0  0  0  0  0  0  0  0  0
  -18.6533   10.7609  -17.2814 C   0  0  0  0  0  0  0  0  0  0  0  0
  -20.1455   10.9791  -17.1515 C   0  0  0  0  0  0  0  0  0  0  0  0
  -20.5751   10.4905  -15.7512 C   0  0  0  0  0  0  0  0  0  0  0  0
  -20.2520    8.6553  -14.2328 C   0  0  0  0  0  0  0  0  0  0  0  0
  -21.7240    8.3803  -14.1702 C   0  0  0  0  0  0  0  0  0  0  0  0
  -21.4489    6.8946  -14.1923 C   0  0  0  0  0  0  0  0  0  0  0  0
  -19.9824    7.1732  -14.3410 C   0  0  0  0  0  0  0  0  0  0  0  0
  -18.3468    8.8456  -11.0661 C   0  0  0  0  0  0  0  0  0  0  0  0
  -18.8266    9.9970  -10.4844 C   0  0  0  0  0  0  0  0  0  0  0  0
  -19.8064   10.7500  -11.1309 C   0  0  0  0  0  0  0  0  0  0  0  0
  -20.2791   10.3264  -12.3492 C   0  0  0  0  0  0  0  0  0  0  0  0
  -19.7943    9.1860  -12.9153 C   0  0  0  0  0  0  0  0  0  0  0  0
  -18.8483    8.4837  -12.2579 N   0  0  0  0  0  0  0  0  0  0  0  0
  -16.4525    8.8568   -9.4738 C   0  0  0  0  0  0  0  0  0  0  0  0
  -17.3068    8.0388  -10.3985 C   0  0  0  0  0  0  0  0  0  0  0  0
  -18.0875   11.5388  -18.3761 C   0  0  0  0  0  0  0  0  0  0  0  0
  -16.8481   11.6996  -18.5571 O   0  0  0  0  0  0  0  0  0  0  0  0
  -18.9738   12.1489  -19.2993 N   0  0  0  0  0  0  0  0  0  0  0  0
  -20.0176   12.0232  -19.1456 H   0  0  0  0  0  0  0  0  0  0  0  0
  -18.6379   12.9094  -20.4313 C   0  0  0  0  0  0  0  0  0  0  0  0
  -19.1911   14.1931  -20.5435 C   0  0  0  0  0  0  0  0  0  0  0  0
  -18.8718   15.0064  -21.6114 C   0  0  0  0  0  0  0  0  0  0  0  0
  -18.0031   14.5556  -22.5760 C   0  0  0  0  0  0  0  0  0  0  0  0
  -17.6378   15.4177  -23.7201 C   0  0  0  0  0  0  0  0  0  0  0  0
  -17.4575   13.3018  -22.4790 C   0  0  0  0  0  0  0  0  0  0  0  0
  -16.3560   12.7727  -23.7320 Cl  0  0  0  0  0  0  0  0  0  0  0  0
  -17.7641   12.4562  -21.4079 C   0  0  0  0  0  0  0  0  0  0  0  0
 17 18  1  0  0  0
 18 11  1  0  0  0
 11 12  2  0  0  0
 12 13  1  0  0  0
 13 14  2  0  0  0
 14 15  1  0  0  0
 15 16  2  0  0  0
 15  7  1  0  0  0
  7  8  1  0  0  0
  8  9  1  0  0  0
  9 10  1  0  0  0
  7  1  1  0  0  0
  1  2  1  0  0  0
  2  3  1  0  0  0
  3  4  1  0  0  0
  4  5  1  0  0  0
  5  6  1  0  0  0
  4 19  1  0  0  0
 19 20  2  0  0  0
 19 21  1  0  0  0
 21 23  1  0  0  0
 23 24  2  0  0  0
 24 25  1  0  0  0
 25 26  2  0  0  0
 26 27  1  0  0  0
 26 28  1  0  0  0
 28 29  1  0  0  0
 28 30  2  0  0  0
 16 11  1  0  0  0
 10  7  1  0  0  0
  6  1  1  0  0  0
 30 23  1  0  0  0
 21 22  1  0  0  0
M  END
> <minimizedAffinity>
-7.93085

> <CNNscore>
0.1483924240

> <CNNaffinity>
5.9131450653

> <CNN_VS>
0.8774659038

> <CNNaffinity_variance>
0.0801014379

$$$$
[H]c1c(C([H])([H])C([H])([H])[H])nc(C2(N3C([H])([H])C([H])([H])C([H])(C(=O)N([H])c4c([H])c([H])c(C([H])([H])[H])c(Cl)c4[H])C([H])([H])C3([H])[H])C([H])([H])C([H])([H])C2([H])[H])c([H])c1[H]


 30 33  0  0  0  0  0  0  0  0999 V2000
  -17.8340   15.4242  -21.5886 N   0  0  0  0  0  0  0  0  0  0  0  0
  -16.9732   16.4586  -21.0938 C   0  0  0  0  0  0  0  0  0  0  0  0
  -17.3921   16.8039  -19.6521 C   0  0  0  0  0  0  0  0  0  0  0  0
  -18.8858   16.6361  -19.5199 C   0  0  0  0  0  0  0  0  0  0  0  0
  -19.4757   17.0758  -20.8427 C   0  0  0  0  0  0  0  0  0  0  0  0
  -19.1287   16.0014  -21.8961 C   0  0  0  0  0  0  0  0  0  0  0  0
  -17.2900   14.6479  -22.6478 C   0  0  0  0  0  0  0  0  0  0  0  0
  -18.0831   14.5293  -23.9140 C   0  0  0  0  0  0  0  0  0  0  0  0
  -16.9689   15.2072  -24.6772 C   0  0  0  0  0  0  0  0  0  0  0  0
  -16.2150   15.4010  -23.3948 C   0  0  0  0  0  0  0  0  0  0  0  0
  -16.9875   11.5582  -20.6337 C   0  0  0  0  0  0  0  0  0  0  0  0
  -16.0522   10.8256  -21.3285 C   0  0  0  0  0  0  0  0  0  0  0  0
  -15.4881   11.3406  -22.4954 C   0  0  0  0  0  0  0  0  0  0  0  0
  -15.8805   12.5812  -22.9361 C   0  0  0  0  0  0  0  0  0  0  0  0
  -16.8088   13.2953  -22.2404 C   0  0  0  0  0  0  0  0  0  0  0  0
  -17.3300   12.7640  -21.1149 N   0  0  0  0  0  0  0  0  0  0  0  0
  -18.5799   11.9844  -18.7880 C   0  0  0  0  0  0  0  0  0  0  0  0
  -17.5983   11.0270  -19.3996 C   0  0  0  0  0  0  0  0  0  0  0  0
  -19.4820   17.3514  -18.3989 C   0  0  0  0  0  0  0  0  0  0  0  0
  -20.1413   18.4217  -18.5186 O   0  0  0  0  0  0  0  0  0  0  0  0
  -19.3218   16.8173  -17.0954 N   0  0  0  0  0  0  0  0  0  0  0  0
  -18.7604   15.9214  -16.9894 H   0  0  0  0  0  0  0  0  0  0  0  0
  -19.8364   17.3294  -15.8930 C   0  0  0  0  0  0  0  0  0  0  0  0
  -19.0861   18.3082  -15.2257 C   0  0  0  0  0  0  0  0  0  0  0  0
  -19.5531   18.8800  -14.0600 C   0  0  0  0  0  0  0  0  0  0  0  0
  -20.7655   18.4873  -13.5461 C   0  0  0  0  0  0  0  0  0  0  0  0
  -21.2891   19.0985  -12.3059 C   0  0  0  0  0  0  0  0  0  0  0  0
  -21.5073   17.5296  -14.1876 C   0  0  0  0  0  0  0  0  0  0  0  0
  -23.0451   17.0632  -13.4944 Cl  0  0  0  0  0  0  0  0  0  0  0  0
  -21.0580   16.9330  -15.3701 C   0  0  0  0  0  0  0  0  0  0  0  0
 17 18  1  0  0  0
 18 11  1  0  0  0
 11 12  2  0  0  0
 12 13  1  0  0  0
 13 14  2  0  0  0
 14 15  1  0  0  0
 15 16  2  0  0  0
 15  7  1  0  0  0
  7  8  1  0  0  0
  8  9  1  0  0  0
  9 10  1  0  0  0
  7  1  1  0  0  0
  1  2  1  0  0  0
  2  3  1  0  0  0
  3  4  1  0  0  0
  4  5  1  0  0  0
  5  6  1  0  0  0
  4 19  1  0  0  0
 19 20  2  0  0  0
 19 21  1  0  0  0
 21 23  1  0  0  0
 23 24  2  0  0  0
 24 25  1  0  0  0
 25 26  2  0  0  0
 26 27  1  0  0  0
 26 28  1  0  0  0
 28 29  1  0  0  0
 28 30  2  0  0  0
 16 11  1  0  0  0
 10  7  1  0  0  0
  6  1  1  0  0  0
 30 23  1  0  0  0
 21 22  1  0  0  0
M  END
> <minimizedAffinity>
-7.36740

> <CNNscore>
0.1453520954

> <CNNaffinity>
6.1937303543

> <CNN_VS>
0.9002717137

> <CNNaffinity_variance>
0.1499123275

$$$$
[H]c1c([H])c(-c2c([H])c([H])c3c(=O)n([H])c(=O)n(C([H])([H])[H])c3c2[H])c([H])c(Cl)c1Cl


 22 24  0  0  0  0  0  0  0  0999 V2000
  -15.2368   11.3753  -22.7904 N   0  0  0  0  0  0  0  0  0  0  0  0
  -15.7176   10.8952  -21.6340 C   0  0  0  0  0  0  0  0  0  0  0  0
  -15.2326    9.8289  -21.1765 O   0  0  0  0  0  0  0  0  0  0  0  0
  -16.7242   11.5753  -20.9778 C   0  0  0  0  0  0  0  0  0  0  0  0
  -17.2585   12.7475  -21.4793 C   0  0  0  0  0  0  0  0  0  0  0  0
  -16.7439   13.2042  -22.6571 N   0  0  0  0  0  0  0  0  0  0  0  0
  -17.2960   14.4310  -23.1911 C   0  0  0  0  0  0  0  0  0  0  0  0
  -15.7680   12.5148  -23.2616 C   0  0  0  0  0  0  0  0  0  0  0  0
  -15.3125   12.9568  -24.3438 O   0  0  0  0  0  0  0  0  0  0  0  0
  -18.2644   13.4360  -20.8330 C   0  0  0  0  0  0  0  0  0  0  0  0
  -18.7862   12.9767  -19.6428 C   0  0  0  0  0  0  0  0  0  0  0  0
  -18.2550   11.8073  -19.1403 C   0  0  0  0  0  0  0  0  0  0  0  0
  -17.2465   11.1098  -19.7805 C   0  0  0  0  0  0  0  0  0  0  0  0
  -14.4616   10.8568  -23.3008 H   0  0  0  0  0  0  0  0  0  0  0  0
  -19.8597   13.6985  -18.9398 C   0  0  0  0  0  0  0  0  0  0  0  0
  -20.5143   14.7729  -19.5026 C   0  0  0  0  0  0  0  0  0  0  0  0
  -21.5179   15.4406  -18.8343 C   0  0  0  0  0  0  0  0  0  0  0  0
  -22.2832   16.7908  -19.6401 Cl  0  0  0  0  0  0  0  0  0  0  0  0
  -21.9032   15.0527  -17.5705 C   0  0  0  0  0  0  0  0  0  0  0  0
  -23.1826   15.9375  -16.7708 Cl  0  0  0  0  0  0  0  0  0  0  0  0
  -21.2520   13.9784  -17.0022 C   0  0  0  0  0  0  0  0  0  0  0  0
  -20.2413   13.3088  -17.6797 C   0  0  0  0  0  0  0  0  0  0  0  0
  1  2  1  0  0  0
  2  3  2  0  0  0
  2  4  1  0  0  0
  4  5  2  0  0  0
  5  6  1  0  0  0
  6  7  1  0  0  0
  6  8  1  0  0  0
  8  9  2  0  0  0
  5 10  1  0  0  0
 10 11  2  0  0  0
 11 15  1  0  0  0
 15 16  2  0  0  0
 16 17  1  0  0  0
 17 18  1  0  0  0
 17 19  2  0  0  0
 19 20  1  0  0  0
 19 21  1  0  0  0
 21 22  2  0  0  0
 11 12  1  0  0  0
 12 13  2  0  0  0
  8  1  1  0  0  0
 22 15  1  0  0  0
 13  4  1  0  0  0
  1 14  1  0  0  0
M  END
> <minimizedAffinity>
-7.98721

> <CNNscore>
0.8189568520

> <CNNaffinity>
6.4795455933

> <CNN_VS>
5.3064684868

> <CNNaffinity_variance>
0.2691725791

$$$$
[H]c1c([H])c(-c2c([H])c([H])c3c(=O)n([H])c(=O)n(C([H])([H])[H])c3c2[H])c([H])c(Cl)c1Cl


 22 24  0  0  0  0  0  0  0  0999 V2000
  -16.6521    9.7943  -19.4104 N   0  0  0  0  0  0  0  0  0  0  0  0
  -17.6219   10.3567  -18.6741 C   0  0  0  0  0  0  0  0  0  0  0  0
  -17.9617    9.7995  -17.5991 O   0  0  0  0  0  0  0  0  0  0  0  0
  -18.2198   11.5232  -19.1080 C   0  0  0  0  0  0  0  0  0  0  0  0
  -17.8475   12.1370  -20.2893 C   0  0  0  0  0  0  0  0  0  0  0  0
  -16.8581   11.5355  -21.0104 N   0  0  0  0  0  0  0  0  0  0  0  0
  -16.4604   12.1699  -22.2491 C   0  0  0  0  0  0  0  0  0  0  0  0
  -16.3042   10.4049  -20.5545 C   0  0  0  0  0  0  0  0  0  0  0  0
  -15.3962    9.8722  -21.2371 O   0  0  0  0  0  0  0  0  0  0  0  0
  -18.4374   13.3024  -20.7334 C   0  0  0  0  0  0  0  0  0  0  0  0
  -19.4373   13.9123  -20.0067 C   0  0  0  0  0  0  0  0  0  0  0  0
  -19.8108   13.3019  -18.8276 C   0  0  0  0  0  0  0  0  0  0  0  0
  -19.2256   12.1335  -18.3739 C   0  0  0  0  0  0  0  0  0  0  0  0
  -16.1874    8.8962  -19.0822 H   0  0  0  0  0  0  0  0  0  0  0  0
  -20.0778   15.1560  -20.4656 C   0  0  0  0  0  0  0  0  0  0  0  0
  -19.4469   16.0370  -21.3173 C   0  0  0  0  0  0  0  0  0  0  0  0
  -20.0571   17.1984  -21.7399 C   0  0  0  0  0  0  0  0  0  0  0  0
  -19.1675   18.2464  -22.8209 Cl  0  0  0  0  0  0  0  0  0  0  0  0
  -21.3289   17.5197  -21.3212 C   0  0  0  0  0  0  0  0  0  0  0  0
  -22.0528   19.0069  -21.8901 Cl  0  0  0  0  0  0  0  0  0  0  0  0
  -21.9652   16.6421  -20.4691 C   0  0  0  0  0  0  0  0  0  0  0  0
  -21.3461   15.4731  -20.0461 C   0  0  0  0  0  0  0  0  0  0  0  0
  1  2  1  0  0  0
  2  3  2  0  0  0
  2  4  1  0  0  0
  4  5  2  0  0  0
  5  6  1  0  0  0
  6  7  1  0  0  0
  6  8  1  0  0  0
  8  9  2  0  0  0
  5 10  1  0  0  0
 10 11  2  0  0  0
 11 15  1  0  0  0
 15 16  2  0  0  0
 16 17  1  0  0  0
 17 18  1  0  0  0
 17 19  2  0  0  0
 19 20  1  0  0  0
 19 21  1  0  0  0
 21 22  2  0  0  0
 11 12  1  0  0  0
 12 13  2  0  0  0
  8  1  1  0  0  0
 22 15  1  0  0  0
 13  4  1  0  0  0
  1 14  1  0  0  0
M  END
> <minimizedAffinity>
-8.07955

> <CNNscore>
0.7896570563

> <CNNaffinity>
6.3582487106

> <CNN_VS>
5.0208358765

> <CNNaffinity_variance>
0.3641616702

$$$$
[H]c1c([H])c(-c2c([H])c([H])c3c(=O)n([H])c(=O)n(C([H])([H])[H])c3c2[H])c([H])c(Cl)c1Cl


 22 24  0  0  0  0  0  0  0  0999 V2000
  -17.4337    9.3094  -18.4140 N   0  0  0  0  0  0  0  0  0  0  0  0
  -18.4400    9.5121  -17.5507 C   0  0  0  0  0  0  0  0  0  0  0  0
  -18.7272    8.5986  -16.7355 O   0  0  0  0  0  0  0  0  0  0  0  0
  -19.1314   10.7070  -17.5757 C   0  0  0  0  0  0  0  0  0  0  0  0
  -18.8170   11.7121  -18.4711 C   0  0  0  0  0  0  0  0  0  0  0  0
  -17.7879   11.4691  -19.3329 N   0  0  0  0  0  0  0  0  0  0  0  0
  -17.4502   12.5150  -20.2748 C   0  0  0  0  0  0  0  0  0  0  0  0
  -17.1430   10.2970  -19.2759 C   0  0  0  0  0  0  0  0  0  0  0  0
  -16.2004   10.0992  -20.0798 O   0  0  0  0  0  0  0  0  0  0  0  0
  -19.5004   12.9100  -18.5058 C   0  0  0  0  0  0  0  0  0  0  0  0
  -20.5405   13.1582  -17.6361 C   0  0  0  0  0  0  0  0  0  0  0  0
  -20.8564   12.1570  -16.7417 C   0  0  0  0  0  0  0  0  0  0  0  0
  -20.1774   10.9526  -16.6990 C   0  0  0  0  0  0  0  0  0  0  0  0
  -16.8970    8.3918  -18.4001 H   0  0  0  0  0  0  0  0  0  0  0  0
  -21.2807   14.4307  -17.6593 C   0  0  0  0  0  0  0  0  0  0  0  0
  -21.3310   15.2317  -18.7798 C   0  0  0  0  0  0  0  0  0  0  0  0
  -22.0274   16.4211  -18.7891 C   0  0  0  0  0  0  0  0  0  0  0  0
  -22.0267   17.3609  -20.2639 Cl  0  0  0  0  0  0  0  0  0  0  0  0
  -22.7021   16.8523  -17.6689 C   0  0  0  0  0  0  0  0  0  0  0  0
  -23.5686   18.3701  -17.7392 Cl  0  0  0  0  0  0  0  0  0  0  0  0
  -22.6554   16.0552  -16.5448 C   0  0  0  0  0  0  0  0  0  0  0  0
  -21.9523   14.8575  -16.5404 C   0  0  0  0  0  0  0  0  0  0  0  0
  1  2  1  0  0  0
  2  3  2  0  0  0
  2  4  1  0  0  0
  4  5  2  0  0  0
  5  6  1  0  0  0
  6  7  1  0  0  0
  6  8  1  0  0  0
  8  9  2  0  0  0
  5 10  1  0  0  0
 10 11  2  0  0  0
 11 15  1  0  0  0
 15 16  2  0  0  0
 16 17  1  0  0  0
 17 18  1  0  0  0
 17 19  2  0  0  0
 19 20  1  0  0  0
 19 21  1  0  0  0
 21 22  2  0  0  0
 11 12  1  0  0  0
 12 13  2  0  0  0
  8  1  1  0  0  0
 22 15  1  0  0  0
 13  4  1  0  0  0
  1 14  1  0  0  0
M  END
> <minimizedAffinity>
-6.93059

> <CNNscore>
0.7586420178

> <CNNaffinity>
5.8007903099

> <CNN_VS>
4.4007234573

> <CNNaffinity_variance>
0.2099585235

$$$$
[H]c1c([H])c(-c2c([H])c([H])c3c(=O)n([H])c(=O)n(C([H])([H])[H])c3c2[H])c([H])c(Cl)c1Cl


 22 24  0  0  0  0  0  0  0  0999 V2000
  -15.2001   11.4590  -22.8699 N   0  0  0  0  0  0  0  0  0  0  0  0
  -15.6595   10.9549  -21.7150 C   0  0  0  0  0  0  0  0  0  0  0  0
  -15.1501    9.8918  -21.2770 O   0  0  0  0  0  0  0  0  0  0  0  0
  -16.6714   11.6074  -21.0393 C   0  0  0  0  0  0  0  0  0  0  0  0
  -17.2326   12.7761  -21.5194 C   0  0  0  0  0  0  0  0  0  0  0  0
  -16.7391   13.2577  -22.6963 N   0  0  0  0  0  0  0  0  0  0  0  0
  -17.3195   14.4810  -23.2080 C   0  0  0  0  0  0  0  0  0  0  0  0
  -15.7573   12.5946  -23.3202 C   0  0  0  0  0  0  0  0  0  0  0  0
  -15.3216   13.0592  -24.4011 O   0  0  0  0  0  0  0  0  0  0  0  0
  -18.2439   13.4371  -20.8534 C   0  0  0  0  0  0  0  0  0  0  0  0
  -18.7444   12.9526  -19.6640 C   0  0  0  0  0  0  0  0  0  0  0  0
  -18.1863   11.7867  -19.1828 C   0  0  0  0  0  0  0  0  0  0  0  0
  -17.1721   11.1166  -19.8429 C   0  0  0  0  0  0  0  0  0  0  0  0
  -14.4210   10.9618  -23.3954 H   0  0  0  0  0  0  0  0  0  0  0  0
  -19.8234   13.6450  -18.9402 C   0  0  0  0  0  0  0  0  0  0  0  0
  -20.2352   13.2539  -17.6844 C   0  0  0  0  0  0  0  0  0  0  0  0
  -21.2467   13.9102  -17.0168 C   0  0  0  0  0  0  0  0  0  0  0  0
  -21.6912   13.3320  -15.4274 Cl  0  0  0  0  0  0  0  0  0  0  0  0
  -21.8851   14.9884  -17.5878 C   0  0  0  0  0  0  0  0  0  0  0  0
  -23.1619   15.7822  -16.6937 Cl  0  0  0  0  0  0  0  0  0  0  0  0
  -21.4775   15.3845  -18.8441 C   0  0  0  0  0  0  0  0  0  0  0  0
  -20.4577   14.7198  -19.5127 C   0  0  0  0  0  0  0  0  0  0  0  0
  1  2  1  0  0  0
  2  3  2  0  0  0
  2  4  1  0  0  0
  4  5  2  0  0  0
  5  6  1  0  0  0
  6  7  1  0  0  0
  6  8  1  0  0  0
  8  9  2  0  0  0
  5 10  1  0  0  0
 10 11  2  0  0  0
 11 15  1  0  0  0
 15 16  2  0  0  0
 16 17  1  0  0  0
 17 18  1  0  0  0
 17 19  2  0  0  0
 19 20  1  0  0  0
 19 21  1  0  0  0
 21 22  2  0  0  0
 11 12  1  0  0  0
 12 13  2  0  0  0
  8  1  1  0  0  0
 22 15  1  0  0  0
 13  4  1  0  0  0
  1 14  1  0  0  0
M  END
> <minimizedAffinity>
-8.02414

> <CNNscore>
0.7219302058

> <CNNaffinity>
6.3477597237

> <CNN_VS>
4.5826396942

> <CNNaffinity_variance>
0.3470275700

$$$$
[H]c1c([H])c(-c2c([H])c([H])c3c(=O)n([H])c(=O)n(C([H])([H])[H])c3c2[H])c([H])c(Cl)c1Cl


 22 24  0  0  0  0  0  0  0  0999 V2000
  -16.9441    9.7055  -19.1465 N   0  0  0  0  0  0  0  0  0  0  0  0
  -16.5194   10.2376  -20.3022 C   0  0  0  0  0  0  0  0  0  0  0  0
  -15.6574    9.6130  -20.9718 O   0  0  0  0  0  0  0  0  0  0  0  0
  -17.0327   11.4469  -20.7270 C   0  0  0  0  0  0  0  0  0  0  0  0
  -17.9802   12.1347  -19.9920 C   0  0  0  0  0  0  0  0  0  0  0  0
  -18.3873   11.5620  -18.8228 N   0  0  0  0  0  0  0  0  0  0  0  0
  -19.3793   12.2738  -18.0454 C   0  0  0  0  0  0  0  0  0  0  0  0
  -17.8646   10.3880  -18.4468 C   0  0  0  0  0  0  0  0  0  0  0  0
  -18.2563    9.8832  -17.3671 O   0  0  0  0  0  0  0  0  0  0  0  0
  -18.5005   13.3436  -20.4058 C   0  0  0  0  0  0  0  0  0  0  0  0
  -18.0910   13.9245  -21.5869 C   0  0  0  0  0  0  0  0  0  0  0  0
  -17.1456   13.2404  -22.3220 C   0  0  0  0  0  0  0  0  0  0  0  0
  -16.6180   12.0280  -21.9158 C   0  0  0  0  0  0  0  0  0  0  0  0
  -16.5532    8.7746  -18.8136 H   0  0  0  0  0  0  0  0  0  0  0  0
  -18.6354   15.2139  -22.0436 C   0  0  0  0  0  0  0  0  0  0  0  0
  -19.4122   16.0128  -21.2324 C   0  0  0  0  0  0  0  0  0  0  0  0
  -19.9162   17.2182  -21.6715 C   0  0  0  0  0  0  0  0  0  0  0  0
  -20.8902   18.1540  -20.5608 Cl  0  0  0  0  0  0  0  0  0  0  0  0
  -19.6579   17.6681  -22.9471 C   0  0  0  0  0  0  0  0  0  0  0  0
  -20.3241   19.2054  -23.4494 Cl  0  0  0  0  0  0  0  0  0  0  0  0
  -18.8813   16.8732  -23.7633 C   0  0  0  0  0  0  0  0  0  0  0  0
  -18.3757   15.6594  -23.3161 C   0  0  0  0  0  0  0  0  0  0  0  0
  1  2  1  0  0  0
  2  3  2  0  0  0
  2  4  1  0  0  0
  4  5  2  0  0  0
  5  6  1  0  0  0
  6  7  1  0  0  0
  6  8  1  0  0  0
  8  9  2  0  0  0
  5 10  1  0  0  0
 10 11  2  0  0  0
 11 15  1  0  0  0
 15 16  2  0  0  0
 16 17  1  0  0  0
 17 18  1  0  0  0
 17 19  2  0  0  0
 19 20  1  0  0  0
 19 21  1  0  0  0
 21 22  2  0  0  0
 11 12  1  0  0  0
 12 13  2  0  0  0
  8  1  1  0  0  0
 22 15  1  0  0  0
 13  4  1  0  0  0
  1 14  1  0  0  0
M  END
> <minimizedAffinity>
-8.60070

> <CNNscore>
0.7048938274

> <CNNaffinity>
6.3039345741

> <CNN_VS>
4.4436044693

> <CNNaffinity_variance>
0.4279837608

$$$$
[H]c1c([H])c(-c2c([H])c([H])c3c(=O)n([H])c(=O)n(C([H])([H])[H])c3c2[H])c([H])c(Cl)c1Cl


 22 24  0  0  0  0  0  0  0  0999 V2000
  -16.0367   11.8120  -22.2953 N   0  0  0  0  0  0  0  0  0  0  0  0
  -16.1151   10.9140  -21.3022 C   0  0  0  0  0  0  0  0  0  0  0  0
  -15.3406    9.9234  -21.3235 O   0  0  0  0  0  0  0  0  0  0  0  0
  -17.0351   11.0948  -20.2886 C   0  0  0  0  0  0  0  0  0  0  0  0
  -17.8872   12.1831  -20.2637 C   0  0  0  0  0  0  0  0  0  0  0  0
  -17.7776   13.0744  -21.2904 N   0  0  0  0  0  0  0  0  0  0  0  0
  -18.6651   14.2177  -21.2741 C   0  0  0  0  0  0  0  0  0  0  0  0
  -16.8723   12.8622  -22.2539 C   0  0  0  0  0  0  0  0  0  0  0  0
  -16.7923   13.6973  -23.1867 O   0  0  0  0  0  0  0  0  0  0  0  0
  -18.8104   12.3747  -19.2566 C   0  0  0  0  0  0  0  0  0  0  0  0
  -18.9232   11.4756  -18.2179 C   0  0  0  0  0  0  0  0  0  0  0  0
  -18.0743   10.3889  -18.2403 C   0  0  0  0  0  0  0  0  0  0  0  0
  -17.1454   10.1879  -19.2454 C   0  0  0  0  0  0  0  0  0  0  0  0
  -15.3306   11.6790  -23.0789 H   0  0  0  0  0  0  0  0  0  0  0  0
  -19.9028   11.6644  -17.1351 C   0  0  0  0  0  0  0  0  0  0  0  0
  -20.4201   12.9022  -16.8191 C   0  0  0  0  0  0  0  0  0  0  0  0
  -21.3368   13.0661  -15.8030 C   0  0  0  0  0  0  0  0  0  0  0  0
  -21.9298   14.6802  -15.4852 Cl  0  0  0  0  0  0  0  0  0  0  0  0
  -21.7700   11.9885  -15.0632 C   0  0  0  0  0  0  0  0  0  0  0  0
  -22.9344   12.2568  -13.7858 Cl  0  0  0  0  0  0  0  0  0  0  0  0
  -21.2560   10.7476  -15.3746 C   0  0  0  0  0  0  0  0  0  0  0  0
  -20.3325   10.5876  -16.3995 C   0  0  0  0  0  0  0  0  0  0  0  0
  1  2  1  0  0  0
  2  3  2  0  0  0
  2  4  1  0  0  0
  4  5  2  0  0  0
  5  6  1  0  0  0
  6  7  1  0  0  0
  6  8  1  0  0  0
  8  9  2  0  0  0
  5 10  1  0  0  0
 10 11  2  0  0  0
 11 15  1  0  0  0
 15 16  2  0  0  0
 16 17  1  0  0  0
 17 18  1  0  0  0
 17 19  2  0  0  0
 19 20  1  0  0  0
 19 21  1  0  0  0
 21 22  2  0  0  0
 11 12  1  0  0  0
 12 13  2  0  0  0
  8  1  1  0  0  0
 22 15  1  0  0  0
 13  4  1  0  0  0
  1 14  1  0  0  0
M  END
> <minimizedAffinity>
-7.94001

> <CNNscore>
0.6887144446

> <CNNaffinity>
6.1371474266

> <CNN_VS>
4.2267422676

> <CNNaffinity_variance>
0.3030761480

$$$$
[H]c1c([H])c(-c2c([H])c([H])c3c(=O)n([H])c(=O)n(C([H])([H])[H])c3c2[H])c([H])c(Cl)c1Cl


 22 24  0  0  0  0  0  0  0  0999 V2000
  -17.2687    9.9850  -19.0705 N   0  0  0  0  0  0  0  0  0  0  0  0
  -18.0857   10.9247  -18.5721 C   0  0  0  0  0  0  0  0  0  0  0  0
  -18.7107   10.6772  -17.5093 O   0  0  0  0  0  0  0  0  0  0  0  0
  -18.2213   12.1309  -19.2302 C   0  0  0  0  0  0  0  0  0  0  0  0
  -17.5350   12.4046  -20.3986 C   0  0  0  0  0  0  0  0  0  0  0  0
  -16.7139   11.4247  -20.8742 N   0  0  0  0  0  0  0  0  0  0  0  0
  -15.9903   11.7008  -22.0971 C   0  0  0  0  0  0  0  0  0  0  0  0
  -16.6107   10.2690  -20.2058 C   0  0  0  0  0  0  0  0  0  0  0  0
  -15.8486    9.3845  -20.6650 O   0  0  0  0  0  0  0  0  0  0  0  0
  -17.6621   13.6058  -21.0652 C   0  0  0  0  0  0  0  0  0  0  0  0
  -18.4910   14.5977  -20.5868 C   0  0  0  0  0  0  0  0  0  0  0  0
  -19.1770   14.3272  -19.4213 C   0  0  0  0  0  0  0  0  0  0  0  0
  -19.0564   13.1262  -18.7455 C   0  0  0  0  0  0  0  0  0  0  0  0
  -17.1595    9.0540  -18.5688 H   0  0  0  0  0  0  0  0  0  0  0  0
  -18.6388   15.8853  -21.2853 C   0  0  0  0  0  0  0  0  0  0  0  0
  -19.8543   16.5248  -21.3990 C   0  0  0  0  0  0  0  0  0  0  0  0
  -19.9799   17.7302  -22.0556 C   0  0  0  0  0  0  0  0  0  0  0  0
  -21.5685   18.4562  -22.1417 Cl  0  0  0  0  0  0  0  0  0  0  0  0
  -18.8848   18.3408  -22.6248 C   0  0  0  0  0  0  0  0  0  0  0  0
  -19.1044   19.8698  -23.4455 Cl  0  0  0  0  0  0  0  0  0  0  0  0
  -17.6659   17.7058  -22.5143 C   0  0  0  0  0  0  0  0  0  0  0  0
  -17.5446   16.4912  -21.8517 C   0  0  0  0  0  0  0  0  0  0  0  0
  1  2  1  0  0  0
  2  3  2  0  0  0
  2  4  1  0  0  0
  4  5  2  0  0  0
  5  6  1  0  0  0
  6  7  1  0  0  0
  6  8  1  0  0  0
  8  9  2  0  0  0
  5 10  1  0  0  0
 10 11  2  0  0  0
 11 15  1  0  0  0
 15 16  2  0  0  0
 16 17  1  0  0  0
 17 18  1  0  0  0
 17 19  2  0  0  0
 19 20  1  0  0  0
 19 21  1  0  0  0
 21 22  2  0  0  0
 11 12  1  0  0  0
 12 13  2  0  0  0
  8  1  1  0  0  0
 22 15  1  0  0  0
 13  4  1  0  0  0
  1 14  1  0  0  0
M  END
> <minimizedAffinity>
-7.38648

> <CNNscore>
0.6821848750

> <CNNaffinity>
6.2755002975

> <CNN_VS>
4.2810511589

> <CNNaffinity_variance>
0.3523569107

$$$$
[H]c1c([H])c(-c2c([H])c([H])c3c(=O)n([H])c(=O)n(C([H])([H])[H])c3c2[H])c([H])c(Cl)c1Cl


 22 24  0  0  0  0  0  0  0  0999 V2000
  -17.5475    9.4943  -18.0652 N   0  0  0  0  0  0  0  0  0  0  0  0
  -17.3279   10.5481  -18.8654 C   0  0  0  0  0  0  0  0  0  0  0  0
  -16.3188   10.5345  -19.6157 O   0  0  0  0  0  0  0  0  0  0  0  0
  -18.2057   11.6138  -18.8480 C   0  0  0  0  0  0  0  0  0  0  0  0
  -19.3154   11.6303  -18.0238 C   0  0  0  0  0  0  0  0  0  0  0  0
  -19.5051   10.5411  -17.2248 N   0  0  0  0  0  0  0  0  0  0  0  0
  -20.6641   10.5479  -16.3579 C   0  0  0  0  0  0  0  0  0  0  0  0
  -18.6302    9.5284  -17.2720 C   0  0  0  0  0  0  0  0  0  0  0  0
  -18.8281    8.5387  -16.5267 O   0  0  0  0  0  0  0  0  0  0  0  0
  -20.1995   12.6890  -17.9975 C   0  0  0  0  0  0  0  0  0  0  0  0
  -20.0102   13.7908  -18.8038 C   0  0  0  0  0  0  0  0  0  0  0  0
  -18.9037   13.7769  -19.6270 C   0  0  0  0  0  0  0  0  0  0  0  0
  -18.0115   12.7204  -19.6608 C   0  0  0  0  0  0  0  0  0  0  0  0
  -16.8757    8.6703  -18.0736 H   0  0  0  0  0  0  0  0  0  0  0  0
  -20.9434   14.9294  -18.7884 C   0  0  0  0  0  0  0  0  0  0  0  0
  -21.6130   15.3160  -17.6474 C   0  0  0  0  0  0  0  0  0  0  0  0
  -22.4843   16.3839  -17.6457 C   0  0  0  0  0  0  0  0  0  0  0  0
  -23.2817   16.7900  -16.1432 Cl  0  0  0  0  0  0  0  0  0  0  0  0
  -22.7168   17.1065  -18.7946 C   0  0  0  0  0  0  0  0  0  0  0  0
  -23.8332   18.4516  -18.7326 Cl  0  0  0  0  0  0  0  0  0  0  0  0
  -22.0499   16.7245  -19.9393 C   0  0  0  0  0  0  0  0  0  0  0  0
  -21.1728   15.6476  -19.9359 C   0  0  0  0  0  0  0  0  0  0  0  0
  1  2  1  0  0  0
  2  3  2  0  0  0
  2  4  1  0  0  0
  4  5  2  0  0  0
  5  6  1  0  0  0
  6  7  1  0  0  0
  6  8  1  0  0  0
  8  9  2  0  0  0
  5 10  1  0  0  0
 10 11  2  0  0  0
 11 15  1  0  0  0
 15 16  2  0  0  0
 16 17  1  0  0  0
 17 18  1  0  0  0
 17 19  2  0  0  0
 19 20  1  0  0  0
 19 21  1  0  0  0
 21 22  2  0  0  0
 11 12  1  0  0  0
 12 13  2  0  0  0
  8  1  1  0  0  0
 22 15  1  0  0  0
 13  4  1  0  0  0
  1 14  1  0  0  0
M  END
> <minimizedAffinity>
-6.82254

> <CNNscore>
0.6646235585

> <CNNaffinity>
5.7069854736

> <CNN_VS>
3.7929968834

> <CNNaffinity_variance>
0.1287690997

$$$$
[H]c1c([H])c(-c2c([H])c([H])c3c(=O)n([H])c(=O)n(C([H])([H])[H])c3c2[H])c([H])c(Cl)c1Cl


 22 24  0  0  0  0  0  0  0  0999 V2000
  -15.7675   11.0616  -22.0862 N   0  0  0  0  0  0  0  0  0  0  0  0
  -16.2760   12.1909  -22.6011 C   0  0  0  0  0  0  0  0  0  0  0  0
  -15.8601   12.5826  -23.7214 O   0  0  0  0  0  0  0  0  0  0  0  0
  -17.2352   12.8914  -21.8970 C   0  0  0  0  0  0  0  0  0  0  0  0
  -17.6935   12.4621  -20.6654 C   0  0  0  0  0  0  0  0  0  0  0  0
  -17.1528   11.3098  -20.1749 N   0  0  0  0  0  0  0  0  0  0  0  0
  -17.6257   10.8512  -18.8860 C   0  0  0  0  0  0  0  0  0  0  0  0
  -16.2249   10.6606  -20.8893 C   0  0  0  0  0  0  0  0  0  0  0  0
  -15.7440    9.6033  -20.4151 O   0  0  0  0  0  0  0  0  0  0  0  0
  -18.6512   13.1532  -19.9525 C   0  0  0  0  0  0  0  0  0  0  0  0
  -19.1992   14.3178  -20.4459 C   0  0  0  0  0  0  0  0  0  0  0  0
  -18.7437   14.7484  -21.6744 C   0  0  0  0  0  0  0  0  0  0  0  0
  -17.7839   14.0626  -22.3970 C   0  0  0  0  0  0  0  0  0  0  0  0
  -15.0288   10.5171  -22.6231 H   0  0  0  0  0  0  0  0  0  0  0  0
  -20.2220   15.0681  -19.6985 C   0  0  0  0  0  0  0  0  0  0  0  0
  -20.5351   16.3776  -19.9931 C   0  0  0  0  0  0  0  0  0  0  0  0
  -21.4947   17.0695  -19.2860 C   0  0  0  0  0  0  0  0  0  0  0  0
  -21.8145   18.7271  -19.7423 Cl  0  0  0  0  0  0  0  0  0  0  0  0
  -22.1787   16.4696  -18.2523 C   0  0  0  0  0  0  0  0  0  0  0  0
  -23.3857   17.3968  -17.3903 Cl  0  0  0  0  0  0  0  0  0  0  0  0
  -21.8699   15.1596  -17.9529 C   0  0  0  0  0  0  0  0  0  0  0  0
  -20.9021   14.4666  -18.6684 C   0  0  0  0  0  0  0  0  0  0  0  0
  1  2  1  0  0  0
  2  3  2  0  0  0
  2  4  1  0  0  0
  4  5  2  0  0  0
  5  6  1  0  0  0
  6  7  1  0  0  0
  6  8  1  0  0  0
  8  9  2  0  0  0
  5 10  1  0  0  0
 10 11  2  0  0  0
 11 15  1  0  0  0
 15 16  2  0  0  0
 16 17  1  0  0  0
 17 18  1  0  0  0
 17 19  2  0  0  0
 19 20  1  0  0  0
 19 21  1  0  0  0
 21 22  2  0  0  0
 11 12  1  0  0  0
 12 13  2  0  0  0
  8  1  1  0  0  0
 22 15  1  0  0  0
 13  4  1  0  0  0
  1 14  1  0  0  0
M  END
> <minimizedAffinity>
-7.39121

> <CNNscore>
0.6539626718

> <CNNaffinity>
6.2132439613

> <CNN_VS>
4.0632295609

> <CNNaffinity_variance>
0.2518441677

$$$$
[H]c1c([H])c(C(=O)N2C([H])([H])C([H])([H])C([H])(N3C([H])([H])C([H])([H])C([H])([H])C([H])([H])C3([H])[H])C([H])([H])C2([H])[H])c([H])c(N([H])C(=O)c2c([H])c([H])c(Cl)c([H])c2[H])c1[H]


 31 34  0  0  0  0  0  0  0  0999 V2000
  -18.7757   12.6714  -17.3361 C   0  0  0  0  0  0  0  0  0  0  0  0
  -19.2985   11.4851  -16.7989 C   0  0  0  0  0  0  0  0  0  0  0  0
  -19.0256   10.2836  -17.3805 C   0  0  0  0  0  0  0  0  0  0  0  0
  -18.2258   10.1520  -18.5246 C   0  0  0  0  0  0  0  0  0  0  0  0
  -17.7017   11.2833  -19.0733 C   0  0  0  0  0  0  0  0  0  0  0  0
  -18.0000   12.5191  -18.4494 C   0  0  0  0  0  0  0  0  0  0  0  0
  -16.8812   11.2679  -20.2504 C   0  0  0  0  0  0  0  0  0  0  0  0
  -15.8301   10.4726  -20.1220 O   0  0  0  0  0  0  0  0  0  0  0  0
  -16.9486   11.9019  -21.4861 N   0  0  0  0  0  0  0  0  0  0  0  0
  -15.8702   11.6013  -22.4607 C   0  0  0  0  0  0  0  0  0  0  0  0
  -15.2782   12.8294  -23.0656 C   0  0  0  0  0  0  0  0  0  0  0  0
  -16.2432   13.9923  -23.0808 C   0  0  0  0  0  0  0  0  0  0  0  0
  -17.6201   13.3571  -23.2764 C   0  0  0  0  0  0  0  0  0  0  0  0
  -17.9748   12.8214  -21.8771 C   0  0  0  0  0  0  0  0  0  0  0  0
  -16.0041   14.8342  -24.2258 N   0  0  0  0  0  0  0  0  0  0  0  0
  -16.3199   14.1658  -25.4788 C   0  0  0  0  0  0  0  0  0  0  0  0
  -16.1672   15.2133  -26.5621 C   0  0  0  0  0  0  0  0  0  0  0  0
  -14.6913   15.4235  -26.7732 C   0  0  0  0  0  0  0  0  0  0  0  0
  -13.9496   15.0020  -25.5529 C   0  0  0  0  0  0  0  0  0  0  0  0
  -14.6342   15.3186  -24.2458 C   0  0  0  0  0  0  0  0  0  0  0  0
  -19.8910   14.9459  -17.1451 C   0  0  0  0  0  0  0  0  0  0  0  0
  -20.4965   14.8954  -18.2293 O   0  0  0  0  0  0  0  0  0  0  0  0
  -19.0712   13.9005  -16.7011 N   0  0  0  0  0  0  0  0  0  0  0  0
  -18.5992   14.0400  -15.7573 H   0  0  0  0  0  0  0  0  0  0  0  0
  -20.7787   19.9031  -13.9292 Cl  0  0  0  0  0  0  0  0  0  0  0  0
  -20.4883   18.4844  -14.8745 C   0  0  0  0  0  0  0  0  0  0  0  0
  -21.3932   17.4285  -14.8246 C   0  0  0  0  0  0  0  0  0  0  0  0
  -21.1992   16.2900  -15.5553 C   0  0  0  0  0  0  0  0  0  0  0  0
  -20.0914   16.1721  -16.3600 C   0  0  0  0  0  0  0  0  0  0  0  0
  -19.1818   17.2102  -16.4225 C   0  0  0  0  0  0  0  0  0  0  0  0
  -19.3700   18.3784  -15.6803 C   0  0  0  0  0  0  0  0  0  0  0  0
 25 26  1  0  0  0
 26 27  2  0  0  0
 27 28  1  0  0  0
 28 29  2  0  0  0
 29 30  1  0  0  0
 30 31  2  0  0  0
 29 21  1  0  0  0
 21 22  2  0  0  0
 21 23  1  0  0  0
 23  1  1  0  0  0
  1  2  2  0  0  0
  2  3  1  0  0  0
  3  4  2  0  0  0
  4  5  1  0  0  0
  5  6  2  0  0  0
  5  7  1  0  0  0
  7  8  2  0  0  0
  7  9  1  0  0  0
  9 10  1  0  0  0
 10 11  1  0  0  0
 11 12  1  0  0  0
 12 13  1  0  0  0
 13 14  1  0  0  0
 12 15  1  0  0  0
 15 16  1  0  0  0
 16 17  1  0  0  0
 17 18  1  0  0  0
 18 19  1  0  0  0
 19 20  1  0  0  0
 31 26  1  0  0  0
  6  1  1  0  0  0
 14  9  1  0  0  0
 20 15  1  0  0  0
 23 24  1  0  0  0
M  END
> <minimizedAffinity>
-8.86848

> <CNNscore>
0.3696566224

> <CNNaffinity>
6.8248243332

> <CNN_VS>
2.5228414536

> <CNNaffinity_variance>
0.2132342309

$$$$
[H]c1c([H])c(C(=O)N2C([H])([H])C([H])([H])C([H])(N3C([H])([H])C([H])([H])C([H])([H])C([H])([H])C3([H])[H])C([H])([H])C2([H])[H])c([H])c(N([H])C(=O)c2c([H])c([H])c(Cl)c([H])c2[H])c1[H]


 31 34  0  0  0  0  0  0  0  0999 V2000
  -16.7716   11.8648  -21.5862 C   0  0  0  0  0  0  0  0  0  0  0  0
  -15.9344   10.7945  -21.2356 C   0  0  0  0  0  0  0  0  0  0  0  0
  -16.0880   10.1595  -20.0400 C   0  0  0  0  0  0  0  0  0  0  0  0
  -17.0659   10.5208  -19.1024 C   0  0  0  0  0  0  0  0  0  0  0  0
  -17.8963   11.5561  -19.4095 C   0  0  0  0  0  0  0  0  0  0  0  0
  -17.7161   12.1988  -20.6585 C   0  0  0  0  0  0  0  0  0  0  0  0
  -18.9229   12.0189  -18.5202 C   0  0  0  0  0  0  0  0  0  0  0  0
  -19.2255   13.2928  -18.7189 O   0  0  0  0  0  0  0  0  0  0  0  0
  -19.6623   11.4259  -17.5029 N   0  0  0  0  0  0  0  0  0  0  0  0
  -20.6620   12.2758  -16.8090 C   0  0  0  0  0  0  0  0  0  0  0  0
  -20.5608   12.1924  -15.3233 C   0  0  0  0  0  0  0  0  0  0  0  0
  -19.9740   10.8812  -14.8540 C   0  0  0  0  0  0  0  0  0  0  0  0
  -20.4559    9.8485  -15.8732 C   0  0  0  0  0  0  0  0  0  0  0  0
  -19.5224   10.0651  -17.0784 C   0  0  0  0  0  0  0  0  0  0  0  0
  -20.5318   10.5037  -13.5798 N   0  0  0  0  0  0  0  0  0  0  0  0
  -21.0896   11.6397  -12.8623 C   0  0  0  0  0  0  0  0  0  0  0  0
  -21.7646   11.0678  -11.6329 C   0  0  0  0  0  0  0  0  0  0  0  0
  -20.6768   10.6885  -10.6635 C   0  0  0  0  0  0  0  0  0  0  0  0
  -19.4023   10.4778  -11.4040 C   0  0  0  0  0  0  0  0  0  0  0  0
  -19.5476    9.8226  -12.7557 C   0  0  0  0  0  0  0  0  0  0  0  0
  -16.2857   13.8341  -23.1157 C   0  0  0  0  0  0  0  0  0  0  0  0
  -16.1253   14.6742  -22.2140 O   0  0  0  0  0  0  0  0  0  0  0  0
  -16.5906   12.4950  -22.8397 N   0  0  0  0  0  0  0  0  0  0  0  0
  -16.7053   11.8545  -23.6820 H   0  0  0  0  0  0  0  0  0  0  0  0
  -15.7250   15.8202  -28.7234 Cl  0  0  0  0  0  0  0  0  0  0  0  0
  -15.8578   15.2697  -27.0893 C   0  0  0  0  0  0  0  0  0  0  0  0
  -16.8005   14.2988  -26.7659 C   0  0  0  0  0  0  0  0  0  0  0  0
  -16.9376   13.8383  -25.4864 C   0  0  0  0  0  0  0  0  0  0  0  0
  -16.1344   14.3363  -24.4887 C   0  0  0  0  0  0  0  0  0  0  0  0
  -15.1925   15.3008  -24.7907 C   0  0  0  0  0  0  0  0  0  0  0  0
  -15.0434   15.7786  -26.0948 C   0  0  0  0  0  0  0  0  0  0  0  0
 25 26  1  0  0  0
 26 27  2  0  0  0
 27 28  1  0  0  0
 28 29  2  0  0  0
 29 30  1  0  0  0
 30 31  2  0  0  0
 29 21  1  0  0  0
 21 22  2  0  0  0
 21 23  1  0  0  0
 23  1  1  0  0  0
  1  2  2  0  0  0
  2  3  1  0  0  0
  3  4  2  0  0  0
  4  5  1  0  0  0
  5  6  2  0  0  0
  5  7  1  0  0  0
  7  8  2  0  0  0
  7  9  1  0  0  0
  9 10  1  0  0  0
 10 11  1  0  0  0
 11 12  1  0  0  0
 12 13  1  0  0  0
 13 14  1  0  0  0
 12 15  1  0  0  0
 15 16  1  0  0  0
 16 17  1  0  0  0
 17 18  1  0  0  0
 18 19  1  0  0  0
 19 20  1  0  0  0
 31 26  1  0  0  0
  6  1  1  0  0  0
 14  9  1  0  0  0
 20 15  1  0  0  0
 23 24  1  0  0  0
M  END
> <minimizedAffinity>
-9.84898

> <CNNscore>
0.3686909080

> <CNNaffinity>
6.0276350975

> <CNN_VS>
2.2223341465

> <CNNaffinity_variance>
0.0989313871

$$$$
[H]c1c([H])c(C(=O)N2C([H])([H])C([H])([H])C([H])(N3C([H])([H])C([H])([H])C([H])([H])C([H])([H])C3([H])[H])C([H])([H])C2([H])[H])c([H])c(N([H])C(=O)c2c([H])c([H])c(Cl)c([H])c2[H])c1[H]


 31 34  0  0  0  0  0  0  0  0999 V2000
  -19.3683   10.5584  -17.2169 C   0  0  0  0  0  0  0  0  0  0  0  0
  -19.6107   11.8911  -16.8500 C   0  0  0  0  0  0  0  0  0  0  0  0
  -18.9577   12.9101  -17.4757 C   0  0  0  0  0  0  0  0  0  0  0  0
  -18.0241   12.7044  -18.5013 C   0  0  0  0  0  0  0  0  0  0  0  0
  -17.7638   11.4229  -18.8831 C   0  0  0  0  0  0  0  0  0  0  0  0
  -18.4560   10.3822  -18.2174 C   0  0  0  0  0  0  0  0  0  0  0  0
  -16.8182   11.0953  -19.9114 C   0  0  0  0  0  0  0  0  0  0  0  0
  -15.8468   10.3099  -19.4717 O   0  0  0  0  0  0  0  0  0  0  0  0
  -16.7005   11.4213  -21.2580 N   0  0  0  0  0  0  0  0  0  0  0  0
  -15.5422   10.8540  -21.9929 C   0  0  0  0  0  0  0  0  0  0  0  0
  -14.8008   11.8784  -22.7837 C   0  0  0  0  0  0  0  0  0  0  0  0
  -15.6738   13.0439  -23.1877 C   0  0  0  0  0  0  0  0  0  0  0  0
  -17.0608   12.4384  -23.4050 C   0  0  0  0  0  0  0  0  0  0  0  0
  -17.6086   12.2642  -21.9766 C   0  0  0  0  0  0  0  0  0  0  0  0
  -15.2480   13.5804  -24.4558 N   0  0  0  0  0  0  0  0  0  0  0  0
  -14.4933   14.8153  -24.3080 C   0  0  0  0  0  0  0  0  0  0  0  0
  -13.9910   15.1672  -25.6929 C   0  0  0  0  0  0  0  0  0  0  0  0
  -15.1651   15.7007  -26.4701 C   0  0  0  0  0  0  0  0  0  0  0  0
  -16.4304   15.2017  -25.8641 C   0  0  0  0  0  0  0  0  0  0  0  0
  -16.3777   13.7851  -25.3466 C   0  0  0  0  0  0  0  0  0  0  0  0
  -19.6735    8.7580  -15.4508 C   0  0  0  0  0  0  0  0  0  0  0  0
  -18.5745    8.9216  -14.8941 O   0  0  0  0  0  0  0  0  0  0  0  0
  -20.0711    9.5256  -16.5531 N   0  0  0  0  0  0  0  0  0  0  0  0
  -21.0325    9.3096  -16.9557 H   0  0  0  0  0  0  0  0  0  0  0  0
  -23.1183    4.5084  -13.0468 Cl  0  0  0  0  0  0  0  0  0  0  0  0
  -22.1330    5.7266  -13.7789 C   0  0  0  0  0  0  0  0  0  0  0  0
  -21.3708    6.5685  -12.9748 C   0  0  0  0  0  0  0  0  0  0  0  0
  -20.5804    7.5442  -13.5144 C   0  0  0  0  0  0  0  0  0  0  0  0
  -20.5281    7.7085  -14.8777 C   0  0  0  0  0  0  0  0  0  0  0  0
  -21.2779    6.8819  -15.6923 C   0  0  0  0  0  0  0  0  0  0  0  0
  -22.0891    5.8813  -15.1519 C   0  0  0  0  0  0  0  0  0  0  0  0
 25 26  1  0  0  0
 26 27  2  0  0  0
 27 28  1  0  0  0
 28 29  2  0  0  0
 29 30  1  0  0  0
 30 31  2  0  0  0
 29 21  1  0  0  0
 21 22  2  0  0  0
 21 23  1  0  0  0
 23  1  1  0  0  0
  1  2  2  0  0  0
  2  3  1  0  0  0
  3  4  2  0  0  0
  4  5  1  0  0  0
  5  6  2  0  0  0
  5  7  1  0  0  0
  7  8  2  0  0  0
  7  9  1  0  0  0
  9 10  1  0  0  0
 10 11  1  0  0  0
 11 12  1  0  0  0
 12 13  1  0  0  0
 13 14  1  0  0  0
 12 15  1  0  0  0
 15 16  1  0  0  0
 16 17  1  0  0  0
 17 18  1  0  0  0
 18 19  1  0  0  0
 19 20  1  0  0  0
 31 26  1  0  0  0
  6  1  1  0  0  0
 14  9  1  0  0  0
 20 15  1  0  0  0
 23 24  1  0  0  0
M  END
> <minimizedAffinity>
-8.99638

> <CNNscore>
0.3556310534

> <CNNaffinity>
6.3154897690

> <CNN_VS>
2.2459843159

> <CNNaffinity_variance>
0.0616617575

$$$$
[H]c1c([H])c(C(=O)N2C([H])([H])C([H])([H])C([H])(N3C([H])([H])C([H])([H])C([H])([H])C([H])([H])C3([H])[H])C([H])([H])C2([H])[H])c([H])c(N([H])C(=O)c2c([H])c([H])c(Cl)c([H])c2[H])c1[H]


 31 34  0  0  0  0  0  0  0  0999 V2000
  -18.5279   14.3998  -21.7205 C   0  0  0  0  0  0  0  0  0  0  0  0
  -19.3757   15.3339  -21.1056 C   0  0  0  0  0  0  0  0  0  0  0  0
  -19.8764   15.0986  -19.8605 C   0  0  0  0  0  0  0  0  0  0  0  0
  -19.5878   13.9392  -19.1269 C   0  0  0  0  0  0  0  0  0  0  0  0
  -18.7681   13.0102  -19.6933 C   0  0  0  0  0  0  0  0  0  0  0  0
  -18.2607   13.2791  -20.9878 C   0  0  0  0  0  0  0  0  0  0  0  0
  -18.4166   11.7823  -19.0393 C   0  0  0  0  0  0  0  0  0  0  0  0
  -17.5881   11.0448  -19.7630 O   0  0  0  0  0  0  0  0  0  0  0  0
  -18.7546   11.2026  -17.8215 N   0  0  0  0  0  0  0  0  0  0  0  0
  -18.1515    9.8826  -17.5097 C   0  0  0  0  0  0  0  0  0  0  0  0
  -19.1558    8.8832  -17.0439 C   0  0  0  0  0  0  0  0  0  0  0  0
  -20.3597    9.5280  -16.3968 C   0  0  0  0  0  0  0  0  0  0  0  0
  -19.8120   10.7772  -15.7062 C   0  0  0  0  0  0  0  0  0  0  0  0
  -19.6415   11.7839  -16.8587 C   0  0  0  0  0  0  0  0  0  0  0  0
  -20.8949    8.6786  -15.3628 N   0  0  0  0  0  0  0  0  0  0  0  0
  -21.3296    9.4334  -14.1975 C   0  0  0  0  0  0  0  0  0  0  0  0
  -21.9991    8.4339  -13.2773 C   0  0  0  0  0  0  0  0  0  0  0  0
  -20.9078    7.6188  -12.6358 C   0  0  0  0  0  0  0  0  0  0  0  0
  -19.6852    7.6697  -13.4842 C   0  0  0  0  0  0  0  0  0  0  0  0
  -19.9371    7.6580  -14.9720 C   0  0  0  0  0  0  0  0  0  0  0  0
  -17.0196   14.0092  -23.7270 C   0  0  0  0  0  0  0  0  0  0  0  0
  -16.4338   13.0135  -23.2689 O   0  0  0  0  0  0  0  0  0  0  0  0
  -18.0182   14.6807  -23.0098 N   0  0  0  0  0  0  0  0  0  0  0  0
  -18.4606   15.5205  -23.4915 H   0  0  0  0  0  0  0  0  0  0  0  0
  -15.2607   15.8041  -29.1482 Cl  0  0  0  0  0  0  0  0  0  0  0  0
  -15.7935   15.2576  -27.5964 C   0  0  0  0  0  0  0  0  0  0  0  0
  -15.2960   15.8633  -26.4467 C   0  0  0  0  0  0  0  0  0  0  0  0
  -15.6909   15.4598  -25.2020 C   0  0  0  0  0  0  0  0  0  0  0  0
  -16.5974   14.4357  -25.0687 C   0  0  0  0  0  0  0  0  0  0  0  0
  -17.1026   13.8222  -26.1989 C   0  0  0  0  0  0  0  0  0  0  0  0
  -16.7063   14.2263  -27.4760 C   0  0  0  0  0  0  0  0  0  0  0  0
 25 26  1  0  0  0
 26 27  2  0  0  0
 27 28  1  0  0  0
 28 29  2  0  0  0
 29 30  1  0  0  0
 30 31  2  0  0  0
 29 21  1  0  0  0
 21 22  2  0  0  0
 21 23  1  0  0  0
 23  1  1  0  0  0
  1  2  2  0  0  0
  2  3  1  0  0  0
  3  4  2  0  0  0
  4  5  1  0  0  0
  5  6  2  0  0  0
  5  7  1  0  0  0
  7  8  2  0  0  0
  7  9  1  0  0  0
  9 10  1  0  0  0
 10 11  1  0  0  0
 11 12  1  0  0  0
 12 13  1  0  0  0
 13 14  1  0  0  0
 12 15  1  0  0  0
 15 16  1  0  0  0
 16 17  1  0  0  0
 17 18  1  0  0  0
 18 19  1  0  0  0
 19 20  1  0  0  0
 31 26  1  0  0  0
  6  1  1  0  0  0
 14  9  1  0  0  0
 20 15  1  0  0  0
 23 24  1  0  0  0
M  END
> <minimizedAffinity>
-8.48129

> <CNNscore>
0.3447995484

> <CNNaffinity>
6.1914615631

> <CNN_VS>
2.1348130703

> <CNNaffinity_variance>
0.0938562006

$$$$
[H]c1c([H])c(C(=O)N2C([H])([H])C([H])([H])C([H])(N3C([H])([H])C([H])([H])C([H])([H])C([H])([H])C3([H])[H])C([H])([H])C2([H])[H])c([H])c(N([H])C(=O)c2c([H])c([H])c(Cl)c([H])c2[H])c1[H]


 31 34  0  0  0  0  0  0  0  0999 V2000
  -17.0136   11.8622  -21.3768 C   0  0  0  0  0  0  0  0  0  0  0  0
  -16.1566   10.8035  -21.0392 C   0  0  0  0  0  0  0  0  0  0  0  0
  -16.2453   10.2045  -19.8186 C   0  0  0  0  0  0  0  0  0  0  0  0
  -17.1730   10.5932  -18.8418 C   0  0  0  0  0  0  0  0  0  0  0  0
  -18.0208   11.6183  -19.1354 C   0  0  0  0  0  0  0  0  0  0  0  0
  -17.9084   12.2233  -20.4108 C   0  0  0  0  0  0  0  0  0  0  0  0
  -18.9999   12.1069  -18.2071 C   0  0  0  0  0  0  0  0  0  0  0  0
  -19.7872   11.1445  -17.7514 O   0  0  0  0  0  0  0  0  0  0  0  0
  -19.2999   13.3611  -17.6871 N   0  0  0  0  0  0  0  0  0  0  0  0
  -20.4212   13.4413  -16.7177 C   0  0  0  0  0  0  0  0  0  0  0  0
  -21.3891   14.5288  -17.0414 C   0  0  0  0  0  0  0  0  0  0  0  0
  -20.7547   15.6582  -17.8198 C   0  0  0  0  0  0  0  0  0  0  0  0
  -19.3180   15.7329  -17.3023 C   0  0  0  0  0  0  0  0  0  0  0  0
  -18.6112   14.5709  -18.0241 C   0  0  0  0  0  0  0  0  0  0  0  0
  -21.3828   16.9137  -17.4940 N   0  0  0  0  0  0  0  0  0  0  0  0
  -21.3812   17.1776  -16.0634 C   0  0  0  0  0  0  0  0  0  0  0  0
  -21.9271   18.5805  -15.8959 C   0  0  0  0  0  0  0  0  0  0  0  0
  -23.4142   18.5093  -16.1201 C   0  0  0  0  0  0  0  0  0  0  0  0
  -23.7372   17.3043  -16.9330 C   0  0  0  0  0  0  0  0  0  0  0  0
  -22.7381   16.9748  -18.0149 C   0  0  0  0  0  0  0  0  0  0  0  0
  -16.5073   13.7566  -22.9919 C   0  0  0  0  0  0  0  0  0  0  0  0
  -16.1866   14.5924  -22.1299 O   0  0  0  0  0  0  0  0  0  0  0  0
  -16.9006   12.4547  -22.6564 N   0  0  0  0  0  0  0  0  0  0  0  0
  -17.1528   11.8145  -23.4685 H   0  0  0  0  0  0  0  0  0  0  0  0
  -16.2301   15.7215  -28.6282 Cl  0  0  0  0  0  0  0  0  0  0  0  0
  -16.3292   15.1201  -27.0098 C   0  0  0  0  0  0  0  0  0  0  0  0
  -15.8082   15.8749  -25.9633 C   0  0  0  0  0  0  0  0  0  0  0  0
  -15.8655   15.4343  -24.6709 C   0  0  0  0  0  0  0  0  0  0  0  0
  -16.4467   14.2224  -24.3847 C   0  0  0  0  0  0  0  0  0  0  0  0
  -16.9696   13.4589  -25.4106 C   0  0  0  0  0  0  0  0  0  0  0  0
  -16.9168   13.8992  -26.7352 C   0  0  0  0  0  0  0  0  0  0  0  0
 25 26  1  0  0  0
 26 27  2  0  0  0
 27 28  1  0  0  0
 28 29  2  0  0  0
 29 30  1  0  0  0
 30 31  2  0  0  0
 29 21  1  0  0  0
 21 22  2  0  0  0
 21 23  1  0  0  0
 23  1  1  0  0  0
  1  2  2  0  0  0
  2  3  1  0  0  0
  3  4  2  0  0  0
  4  5  1  0  0  0
  5  6  2  0  0  0
  5  7  1  0  0  0
  7  8  2  0  0  0
  7  9  1  0  0  0
  9 10  1  0  0  0
 10 11  1  0  0  0
 11 12  1  0  0  0
 12 13  1  0  0  0
 13 14  1  0  0  0
 12 15  1  0  0  0
 15 16  1  0  0  0
 16 17  1  0  0  0
 17 18  1  0  0  0
 18 19  1  0  0  0
 19 20  1  0  0  0
 31 26  1  0  0  0
  6  1  1  0  0  0
 14  9  1  0  0  0
 20 15  1  0  0  0
 23 24  1  0  0  0
M  END
> <minimizedAffinity>
-8.97968

> <CNNscore>
0.3401081860

> <CNNaffinity>
6.3447771072

> <CNN_VS>
2.1579105854

> <CNNaffinity_variance>
0.0347667262

$$$$
[H]c1c([H])c(C(=O)N2C([H])([H])C([H])([H])C([H])(N3C([H])([H])C([H])([H])C([H])([H])C([H])([H])C3([H])[H])C([H])([H])C2([H])[H])c([H])c(N([H])C(=O)c2c([H])c([H])c(Cl)c([H])c2[H])c1[H]


 31 34  0  0  0  0  0  0  0  0999 V2000
  -18.7290   13.6834  -20.8731 C   0  0  0  0  0  0  0  0  0  0  0  0
  -19.5787   14.6257  -20.2734 C   0  0  0  0  0  0  0  0  0  0  0  0
  -20.1038   14.3953  -19.0375 C   0  0  0  0  0  0  0  0  0  0  0  0
  -19.8395   13.2332  -18.2989 C   0  0  0  0  0  0  0  0  0  0  0  0
  -19.0187   12.2964  -18.8506 C   0  0  0  0  0  0  0  0  0  0  0  0
  -18.4857   12.5603  -20.1358 C   0  0  0  0  0  0  0  0  0  0  0  0
  -18.6906   11.0653  -18.1906 C   0  0  0  0  0  0  0  0  0  0  0  0
  -17.7739   10.3702  -18.8465 O   0  0  0  0  0  0  0  0  0  0  0  0
  -19.1231   10.4479  -17.0222 N   0  0  0  0  0  0  0  0  0  0  0  0
  -18.5094    9.1402  -16.6805 C   0  0  0  0  0  0  0  0  0  0  0  0
  -19.5202    8.1002  -16.3322 C   0  0  0  0  0  0  0  0  0  0  0  0
  -20.8002    8.6929  -15.7901 C   0  0  0  0  0  0  0  0  0  0  0  0
  -20.3613    9.9423  -15.0259 C   0  0  0  0  0  0  0  0  0  0  0  0
  -20.1155   10.9797  -16.1368 C   0  0  0  0  0  0  0  0  0  0  0  0
  -21.4027    7.8043  -14.8287 N   0  0  0  0  0  0  0  0  0  0  0  0
  -20.4207    6.9622  -14.1631 C   0  0  0  0  0  0  0  0  0  0  0  0
  -21.1761    6.2063  -13.0898 C   0  0  0  0  0  0  0  0  0  0  0  0
  -21.9763    5.1338  -13.7800 C   0  0  0  0  0  0  0  0  0  0  0  0
  -22.1944    5.5144  -15.2029 C   0  0  0  0  0  0  0  0  0  0  0  0
  -22.4335    6.9849  -15.4433 C   0  0  0  0  0  0  0  0  0  0  0  0
  -17.1046   14.7710  -22.4954 C   0  0  0  0  0  0  0  0  0  0  0  0
  -16.4392   15.3787  -21.6395 O   0  0  0  0  0  0  0  0  0  0  0  0
  -18.1937   13.9593  -22.1531 N   0  0  0  0  0  0  0  0  0  0  0  0
  -18.6960   13.4798  -22.9598 H   0  0  0  0  0  0  0  0  0  0  0  0
  -15.4076   15.4753  -28.1812 Cl  0  0  0  0  0  0  0  0  0  0  0  0
  -15.8707   15.2975  -26.5245 C   0  0  0  0  0  0  0  0  0  0  0  0
  -16.9017   14.4253  -26.1892 C   0  0  0  0  0  0  0  0  0  0  0  0
  -17.2982   14.2576  -24.8921 C   0  0  0  0  0  0  0  0  0  0  0  0
  -16.6746   14.9589  -23.8883 C   0  0  0  0  0  0  0  0  0  0  0  0
  -15.6487   15.8296  -24.2019 C   0  0  0  0  0  0  0  0  0  0  0  0
  -15.2350   16.0089  -25.5240 C   0  0  0  0  0  0  0  0  0  0  0  0
 25 26  1  0  0  0
 26 27  2  0  0  0
 27 28  1  0  0  0
 28 29  2  0  0  0
 29 30  1  0  0  0
 30 31  2  0  0  0
 29 21  1  0  0  0
 21 22  2  0  0  0
 21 23  1  0  0  0
 23  1  1  0  0  0
  1  2  2  0  0  0
  2  3  1  0  0  0
  3  4  2  0  0  0
  4  5  1  0  0  0
  5  6  2  0  0  0
  5  7  1  0  0  0
  7  8  2  0  0  0
  7  9  1  0  0  0
  9 10  1  0  0  0
 10 11  1  0  0  0
 11 12  1  0  0  0
 12 13  1  0  0  0
 13 14  1  0  0  0
 12 15  1  0  0  0
 15 16  1  0  0  0
 16 17  1  0  0  0
 17 18  1  0  0  0
 18 19  1  0  0  0
 19 20  1  0  0  0
 31 26  1  0  0  0
  6  1  1  0  0  0
 14  9  1  0  0  0
 20 15  1  0  0  0
 23 24  1  0  0  0
M  END
> <minimizedAffinity>
-8.46934

> <CNNscore>
0.3299294114

> <CNNaffinity>
6.1354126930

> <CNN_VS>
2.0242531300

> <CNNaffinity_variance>
0.1121216565

$$$$
[H]c1c([H])c(C(=O)N2C([H])([H])C([H])([H])C([H])(N3C([H])([H])C([H])([H])C([H])([H])C([H])([H])C3([H])[H])C([H])([H])C2([H])[H])c([H])c(N([H])C(=O)c2c([H])c([H])c(Cl)c([H])c2[H])c1[H]


 31 34  0  0  0  0  0  0  0  0999 V2000
  -18.4389   14.1145  -21.2714 C   0  0  0  0  0  0  0  0  0  0  0  0
  -17.6821   13.9314  -22.4389 C   0  0  0  0  0  0  0  0  0  0  0  0
  -16.9555   12.7932  -22.6205 C   0  0  0  0  0  0  0  0  0  0  0  0
  -16.9143   11.7542  -21.6800 C   0  0  0  0  0  0  0  0  0  0  0  0
  -17.6371   11.8982  -20.5344 C   0  0  0  0  0  0  0  0  0  0  0  0
  -18.3839   13.0901  -20.3703 C   0  0  0  0  0  0  0  0  0  0  0  0
  -17.6577   10.9053  -19.4987 C   0  0  0  0  0  0  0  0  0  0  0  0
  -16.9789    9.8173  -19.8295 O   0  0  0  0  0  0  0  0  0  0  0  0
  -18.2316   10.8371  -18.2340 N   0  0  0  0  0  0  0  0  0  0  0  0
  -18.0030    9.5956  -17.4531 C   0  0  0  0  0  0  0  0  0  0  0  0
  -19.2595    9.0339  -16.8784 C   0  0  0  0  0  0  0  0  0  0  0  0
  -20.3171   10.0895  -16.6521 C   0  0  0  0  0  0  0  0  0  0  0  0
  -19.5383   11.3528  -16.2845 C   0  0  0  0  0  0  0  0  0  0  0  0
  -19.0260   11.8709  -17.6410 C   0  0  0  0  0  0  0  0  0  0  0  0
  -21.1323    9.7537  -15.5121 N   0  0  0  0  0  0  0  0  0  0  0  0
  -21.1596    8.3221  -15.2546 C   0  0  0  0  0  0  0  0  0  0  0  0
  -21.9183    8.1448  -13.9557 C   0  0  0  0  0  0  0  0  0  0  0  0
  -23.3775    8.3569  -14.2598 C   0  0  0  0  0  0  0  0  0  0  0  0
  -23.5138    9.1716  -15.4987 C   0  0  0  0  0  0  0  0  0  0  0  0
  -22.4848   10.2631  -15.6640 C   0  0  0  0  0  0  0  0  0  0  0  0
  -20.4769   15.4716  -20.5943 C   0  0  0  0  0  0  0  0  0  0  0  0
  -21.1457   14.5149  -20.1679 O   0  0  0  0  0  0  0  0  0  0  0  0
  -19.1893   15.3041  -21.1200 N   0  0  0  0  0  0  0  0  0  0  0  0
  -18.6988   16.1870  -21.4560 H   0  0  0  0  0  0  0  0  0  0  0  0
  -23.0344   20.8603  -20.2391 Cl  0  0  0  0  0  0  0  0  0  0  0  0
  -22.3303   19.2843  -20.3455 C   0  0  0  0  0  0  0  0  0  0  0  0
  -20.9482   19.1428  -20.2695 C   0  0  0  0  0  0  0  0  0  0  0  0
  -20.3531   17.9151  -20.3506 C   0  0  0  0  0  0  0  0  0  0  0  0
  -21.1238   16.7887  -20.5109 C   0  0  0  0  0  0  0  0  0  0  0  0
  -22.4980   16.9094  -20.5882 C   0  0  0  0  0  0  0  0  0  0  0  0
  -23.1171   18.1589  -20.5064 C   0  0  0  0  0  0  0  0  0  0  0  0
 25 26  1  0  0  0
 26 27  2  0  0  0
 27 28  1  0  0  0
 28 29  2  0  0  0
 29 30  1  0  0  0
 30 31  2  0  0  0
 29 21  1  0  0  0
 21 22  2  0  0  0
 21 23  1  0  0  0
 23  1  1  0  0  0
  1  2  2  0  0  0
  2  3  1  0  0  0
  3  4  2  0  0  0
  4  5  1  0  0  0
  5  6  2  0  0  0
  5  7  1  0  0  0
  7  8  2  0  0  0
  7  9  1  0  0  0
  9 10  1  0  0  0
 10 11  1  0  0  0
 11 12  1  0  0  0
 12 13  1  0  0  0
 13 14  1  0  0  0
 12 15  1  0  0  0
 15 16  1  0  0  0
 16 17  1  0  0  0
 17 18  1  0  0  0
 18 19  1  0  0  0
 19 20  1  0  0  0
 31 26  1  0  0  0
  6  1  1  0  0  0
 14  9  1  0  0  0
 20 15  1  0  0  0
 23 24  1  0  0  0
M  END
> <minimizedAffinity>
-7.50523

> <CNNscore>
0.3279277086

> <CNNaffinity>
6.1895995140

> <CNN_VS>
2.0297412872

> <CNNaffinity_variance>
0.1136236563

$$$$
[H]c1c([H])c(C(=O)N2C([H])([H])C([H])([H])C([H])(N3C([H])([H])C([H])([H])C([H])([H])C([H])([H])C3([H])[H])C([H])([H])C2([H])[H])c([H])c(N([H])C(=O)c2c([H])c([H])c(Cl)c([H])c2[H])c1[H]


 31 34  0  0  0  0  0  0  0  0999 V2000
  -17.2000   11.9596  -21.2532 C   0  0  0  0  0  0  0  0  0  0  0  0
  -16.4392   10.7982  -21.0490 C   0  0  0  0  0  0  0  0  0  0  0  0
  -16.5387   10.1029  -19.8816 C   0  0  0  0  0  0  0  0  0  0  0  0
  -17.3846   10.4881  -18.8319 C   0  0  0  0  0  0  0  0  0  0  0  0
  -18.1380   11.6112  -18.9956 C   0  0  0  0  0  0  0  0  0  0  0  0
  -18.0164   12.3153  -20.2182 C   0  0  0  0  0  0  0  0  0  0  0  0
  -19.0270   12.1049  -17.9832 C   0  0  0  0  0  0  0  0  0  0  0  0
  -19.9071   11.1937  -17.5970 O   0  0  0  0  0  0  0  0  0  0  0  0
  -19.1650   13.3222  -17.3257 N   0  0  0  0  0  0  0  0  0  0  0  0
  -20.2414   13.4238  -16.3085 C   0  0  0  0  0  0  0  0  0  0  0  0
  -21.0859   14.6412  -16.4795 C   0  0  0  0  0  0  0  0  0  0  0  0
  -20.3476   15.7688  -17.1632 C   0  0  0  0  0  0  0  0  0  0  0  0
  -18.8978   15.6266  -16.6993 C   0  0  0  0  0  0  0  0  0  0  0  0
  -18.3510   14.4762  -17.5646 C   0  0  0  0  0  0  0  0  0  0  0  0
  -20.8168   17.0449  -16.6852 N   0  0  0  0  0  0  0  0  0  0  0  0
  -19.8099   18.0871  -16.8132 C   0  0  0  0  0  0  0  0  0  0  0  0
  -20.4937   19.3802  -16.4201 C   0  0  0  0  0  0  0  0  0  0  0  0
  -20.6341   19.3718  -14.9210 C   0  0  0  0  0  0  0  0  0  0  0  0
  -20.5898   17.9683  -14.4255 C   0  0  0  0  0  0  0  0  0  0  0  0
  -21.2753   16.9551  -15.3092 C   0  0  0  0  0  0  0  0  0  0  0  0
  -15.9922   12.6954  -23.3635 C   0  0  0  0  0  0  0  0  0  0  0  0
  -14.9372   12.0768  -23.1428 O   0  0  0  0  0  0  0  0  0  0  0  0
  -17.0792   12.6516  -22.4812 N   0  0  0  0  0  0  0  0  0  0  0  0
  -17.9380   13.2140  -22.7628 H   0  0  0  0  0  0  0  0  0  0  0  0
  -16.1883   15.8169  -28.4549 Cl  0  0  0  0  0  0  0  0  0  0  0  0
  -16.0989   14.9337  -26.9708 C   0  0  0  0  0  0  0  0  0  0  0  0
  -17.0489   13.9550  -26.6955 C   0  0  0  0  0  0  0  0  0  0  0  0
  -17.0137   13.2360  -25.5337 C   0  0  0  0  0  0  0  0  0  0  0  0
  -16.0253   13.4746  -24.6093 C   0  0  0  0  0  0  0  0  0  0  0  0
  -15.0731   14.4425  -24.8652 C   0  0  0  0  0  0  0  0  0  0  0  0
  -15.0991   15.1832  -26.0492 C   0  0  0  0  0  0  0  0  0  0  0  0
 25 26  1  0  0  0
 26 27  2  0  0  0
 27 28  1  0  0  0
 28 29  2  0  0  0
 29 30  1  0  0  0
 30 31  2  0  0  0
 29 21  1  0  0  0
 21 22  2  0  0  0
 21 23  1  0  0  0
 23  1  1  0  0  0
  1  2  2  0  0  0
  2  3  1  0  0  0
  3  4  2  0  0  0
  4  5  1  0  0  0
  5  6  2  0  0  0
  5  7  1  0  0  0
  7  8  2  0  0  0
  7  9  1  0  0  0
  9 10  1  0  0  0
 10 11  1  0  0  0
 11 12  1  0  0  0
 12 13  1  0  0  0
 13 14  1  0  0  0
 12 15  1  0  0  0
 15 16  1  0  0  0
 16 17  1  0  0  0
 17 18  1  0  0  0
 18 19  1  0  0  0
 19 20  1  0  0  0
 31 26  1  0  0  0
  6  1  1  0  0  0
 14  9  1  0  0  0
 20 15  1  0  0  0
 23 24  1  0  0  0
M  END
> <minimizedAffinity>
-10.06177

> <CNNscore>
0.3233069777

> <CNNaffinity>
6.4114751816

> <CNN_VS>
2.0728745461

> <CNNaffinity_variance>
0.0197278671

$$$$
[H]c1c([H])c(C(=O)N2C([H])([H])C([H])([H])C([H])(N3C([H])([H])C([H])([H])C([H])([H])C([H])([H])C3([H])[H])C([H])([H])C2([H])[H])c([H])c(N([H])C(=O)c2c([H])c([H])c(Cl)c([H])c2[H])c1[H]


 31 34  0  0  0  0  0  0  0  0999 V2000
  -17.5848   11.9503  -21.0766 C   0  0  0  0  0  0  0  0  0  0  0  0
  -16.9249   10.7333  -20.8469 C   0  0  0  0  0  0  0  0  0  0  0  0
  -17.0636   10.0856  -19.6563 C   0  0  0  0  0  0  0  0  0  0  0  0
  -17.8533   10.5759  -18.6066 C   0  0  0  0  0  0  0  0  0  0  0  0
  -18.5084   11.7554  -18.7947 C   0  0  0  0  0  0  0  0  0  0  0  0
  -18.3479   12.4082  -20.0411 C   0  0  0  0  0  0  0  0  0  0  0  0
  -19.3323   12.3562  -17.7852 C   0  0  0  0  0  0  0  0  0  0  0  0
  -20.2614   11.5276  -17.3335 O   0  0  0  0  0  0  0  0  0  0  0  0
  -19.3677   13.6094  -17.1837 N   0  0  0  0  0  0  0  0  0  0  0  0
  -20.4051   13.8328  -16.1458 C   0  0  0  0  0  0  0  0  0  0  0  0
  -21.1687   15.0971  -16.3538 C   0  0  0  0  0  0  0  0  0  0  0  0
  -20.3745   16.1375  -17.1093 C   0  0  0  0  0  0  0  0  0  0  0  0
  -18.9252   15.9159  -16.6759 C   0  0  0  0  0  0  0  0  0  0  0  0
  -18.4836   14.6914  -17.4983 C   0  0  0  0  0  0  0  0  0  0  0  0
  -20.7413   17.4640  -16.6816 N   0  0  0  0  0  0  0  0  0  0  0  0
  -21.7330   18.0719  -17.5552 C   0  0  0  0  0  0  0  0  0  0  0  0
  -22.1244   19.3793  -16.8982 C   0  0  0  0  0  0  0  0  0  0  0  0
  -20.9915   20.3458  -17.1203 C   0  0  0  0  0  0  0  0  0  0  0  0
  -19.7353   19.5887  -17.3773 C   0  0  0  0  0  0  0  0  0  0  0  0
  -19.5742   18.3228  -16.5717 C   0  0  0  0  0  0  0  0  0  0  0  0
  -16.2934   12.6491  -23.1497 C   0  0  0  0  0  0  0  0  0  0  0  0
  -15.2247   12.0949  -22.8412 O   0  0  0  0  0  0  0  0  0  0  0  0
  -17.4263   12.5910  -22.3279 N   0  0  0  0  0  0  0  0  0  0  0  0
  -18.2931   13.0961  -22.6836 H   0  0  0  0  0  0  0  0  0  0  0  0
  -16.3370   15.5172  -28.3915 Cl  0  0  0  0  0  0  0  0  0  0  0  0
  -16.2961   14.7121  -26.8616 C   0  0  0  0  0  0  0  0  0  0  0  0
  -17.1315   13.6224  -26.6362 C   0  0  0  0  0  0  0  0  0  0  0  0
  -17.1301   12.9600  -25.4407 C   0  0  0  0  0  0  0  0  0  0  0  0
  -16.2914   13.3683  -24.4315 C   0  0  0  0  0  0  0  0  0  0  0  0
  -15.4546   14.4483  -24.6368 C   0  0  0  0  0  0  0  0  0  0  0  0
  -15.4474   15.1327  -25.8545 C   0  0  0  0  0  0  0  0  0  0  0  0
 25 26  1  0  0  0
 26 27  2  0  0  0
 27 28  1  0  0  0
 28 29  2  0  0  0
 29 30  1  0  0  0
 30 31  2  0  0  0
 29 21  1  0  0  0
 21 22  2  0  0  0
 21 23  1  0  0  0
 23  1  1  0  0  0
  1  2  2  0  0  0
  2  3  1  0  0  0
  3  4  2  0  0  0
  4  5  1  0  0  0
  5  6  2  0  0  0
  5  7  1  0  0  0
  7  8  2  0  0  0
  7  9  1  0  0  0
  9 10  1  0  0  0
 10 11  1  0  0  0
 11 12  1  0  0  0
 12 13  1  0  0  0
 13 14  1  0  0  0
 12 15  1  0  0  0
 15 16  1  0  0  0
 16 17  1  0  0  0
 17 18  1  0  0  0
 18 19  1  0  0  0
 19 20  1  0  0  0
 31 26  1  0  0  0
  6  1  1  0  0  0
 14  9  1  0  0  0
 20 15  1  0  0  0
 23 24  1  0  0  0
M  END
> <minimizedAffinity>
-9.30215

> <CNNscore>
0.3139798045

> <CNNaffinity>
6.4619598389

> <CNN_VS>
2.0289249420

> <CNNaffinity_variance>
0.0337155424

$$$$
[H]N=C(c1c([H])c([H])c([H])c(C([H])([H])[C@@]([H])(C(=O)N([H])[C@]2([H])C([H])([H])C([H])([H])[C@]([H])(N([H])[H])C([H])([H])C2([H])[H])N([H])C(=O)[C@@]2([H])N(C(=O)[C@@]3([H])N([H])C([H])([H])C([H])([H])C3([H])[H])[C@@]([H])(C([H])([H])[H])C([H])([H])C2([H])[H])c1[H])N([H])[H]


 45 48  0  0  0  0  0  0  0  0999 V2000
  -18.9193   15.6833  -17.6836 C   0  0  0  0  0  0  0  0  0  0  0  0
  -17.6122   16.0330  -19.8418 C   0  0  0  0  0  0  0  0  0  0  0  0
  -18.5859   15.3117  -20.3335 O   0  0  0  0  0  0  0  0  0  0  0  0
  -17.7558   16.2810  -18.4702 N   0  0  0  0  0  0  0  0  0  0  0  0
  -17.1385   16.8554  -17.9190 H   0  0  0  0  0  0  0  0  0  0  0  0
  -16.4605   15.8772  -23.2930 C   0  0  0  0  0  0  0  0  0  0  0  0
  -15.6722   14.9251  -23.1631 O   0  0  0  0  0  0  0  0  0  0  0  0
  -16.8673   16.6131  -22.1511 N   0  0  0  0  0  0  0  0  0  0  0  0
  -17.6669   17.8485  -22.2581 C   0  0  0  0  0  0  0  0  0  0  0  0
  -19.0698   17.7259  -22.6297 C   0  0  0  0  0  0  0  0  0  0  0  0
  -17.4960   18.5299  -20.8966 C   0  0  0  0  0  0  0  0  0  0  0  0
  -16.1920   17.9346  -20.3747 C   0  0  0  0  0  0  0  0  0  0  0  0
  -16.5825   16.4388  -20.7637 C   0  0  0  0  0  0  0  0  0  0  0  0
  -14.9795   16.0643  -25.9336 C   0  0  0  0  0  0  0  0  0  0  0  0
  -15.8885   14.9796  -26.5121 C   0  0  0  0  0  0  0  0  0  0  0  0
  -16.9872   14.9047  -25.4663 C   0  0  0  0  0  0  0  0  0  0  0  0
  -16.9434   16.2286  -24.6532 C   0  0  0  0  0  0  0  0  0  0  0  0
  -15.9586   16.9530  -25.4129 N   0  0  0  0  0  0  0  0  0  0  0  0
  -16.3326   17.6408  -26.0715 H   0  0  0  0  0  0  0  0  0  0  0  0
  -19.5048   16.7507  -16.8774 C   0  0  0  0  0  0  0  0  0  0  0  0
  -19.6528   16.7767  -15.4659 N   0  0  0  0  0  0  0  0  0  0  0  0
  -19.9461   17.7671  -17.5429 O   0  0  0  0  0  0  0  0  0  0  0  0
  -19.3040   16.0315  -14.8537 H   0  0  0  0  0  0  0  0  0  0  0  0
  -20.3469   17.9370  -14.9027 C   0  0  0  0  0  0  0  0  0  0  0  0
  -21.7491   17.5016  -14.4943 C   0  0  0  0  0  0  0  0  0  0  0  0
  -22.4948   18.7789  -14.1822 C   0  0  0  0  0  0  0  0  0  0  0  0
  -21.8827   19.3766  -12.9296 C   0  0  0  0  0  0  0  0  0  0  0  0
  -22.7893   19.0534  -11.8135 N   0  0  0  0  0  0  0  0  0  0  0  0
  -20.5544   18.7908  -12.5843 C   0  0  0  0  0  0  0  0  0  0  0  0
  -19.6591   18.5732  -13.7652 C   0  0  0  0  0  0  0  0  0  0  0  0
  -23.7208   19.5274  -11.9180 H   0  0  0  0  0  0  0  0  0  0  0  0
  -22.9455   18.0276  -11.8031 H   0  0  0  0  0  0  0  0  0  0  0  0
  -18.3006   14.5272  -17.0130 C   0  0  0  0  0  0  0  0  0  0  0  0
  -18.5629   13.1656  -17.3714 C   0  0  0  0  0  0  0  0  0  0  0  0
  -17.7853   12.5896  -18.3786 C   0  0  0  0  0  0  0  0  0  0  0  0
  -17.9005   11.2368  -18.7536 C   0  0  0  0  0  0  0  0  0  0  0  0
  -18.8258   10.4679  -18.0866 C   0  0  0  0  0  0  0  0  0  0  0  0
  -19.5817   11.0122  -17.1092 C   0  0  0  0  0  0  0  0  0  0  0  0
  -19.4611   12.3462  -16.7496 C   0  0  0  0  0  0  0  0  0  0  0  0
  -17.0312   10.7016  -19.7728 C   0  0  0  0  0  0  0  0  0  0  0  0
  -17.0596   11.3241  -21.0600 N   0  0  0  0  0  0  0  0  0  0  0  0
  -16.2402    9.7431  -19.5797 N   0  0  0  0  0  0  0  0  0  0  0  0
  -16.2742   11.9377  -21.3805 H   0  0  0  0  0  0  0  0  0  0  0  0
  -17.8648   11.1771  -21.6948 H   0  0  0  0  0  0  0  0  0  0  0  0
  -16.1259    9.2459  -18.7027 H   0  0  0  0  0  0  0  0  0  0  0  0
 14 15  1  0  0  0
 15 16  1  0  0  0
 16 17  1  0  0  0
 17  6  1  0  0  0
  6  7  2  0  0  0
  6  8  1  0  0  0
  8  9  1  0  0  0
  9 10  1  0  0  0
  9 11  1  0  0  0
 11 12  1  0  0  0
 12 13  1  0  0  0
 13  2  1  0  0  0
  2  3  2  0  0  0
  2  4  1  0  0  0
  4  1  1  0  0  0
  1 33  1  0  0  0
 33 34  1  0  0  0
 34 35  2  0  0  0
 35 36  1  0  0  0
 36 40  1  0  0  0
 40 41  1  0  0  0
 40 42  2  0  0  0
 36 37  2  0  0  0
 37 38  1  0  0  0
 38 39  2  0  0  0
  1 20  1  0  0  0
 20 21  1  0  0  0
 21 24  1  0  0  0
 24 25  1  0  0  0
 25 26  1  0  0  0
 26 27  1  0  0  0
 27 28  1  0  0  0
 27 29  1  0  0  0
 29 30  1  0  0  0
 20 22  2  0  0  0
 17 18  1  0  0  0
 18 14  1  0  0  0
 13  8  1  0  0  0
 39 34  1  0  0  0
 30 24  1  0  0  0
  4  5  1  0  0  0
 41 43  1  0  0  0
 41 44  1  0  0  0
 42 45  1  0  0  0
 21 23  1  0  0  0
 28 31  1  0  0  0
 28 32  1  0  0  0
 18 19  1  0  0  0
M  END
> <minimizedAffinity>
-9.36610

> <CNNscore>
0.7021594048

> <CNNaffinity>
7.2570314407

> <CNN_VS>
5.0955929756

> <CNNaffinity_variance>
0.1032730788

$$$$
[H]N=C(c1c([H])c([H])c([H])c(C([H])([H])[C@@]([H])(C(=O)N([H])[C@]2([H])C([H])([H])C([H])([H])[C@]([H])(N([H])[H])C([H])([H])C2([H])[H])N([H])C(=O)[C@@]2([H])N(C(=O)[C@@]3([H])N([H])C([H])([H])C([H])([H])C3([H])[H])[C@@]([H])(C([H])([H])[H])C([H])([H])C2([H])[H])c1[H])N([H])[H]


 45 48  0  0  0  0  0  0  0  0999 V2000
  -19.2909   14.3709  -19.0915 C   0  0  0  0  0  0  0  0  0  0  0  0
  -17.6169   15.4324  -20.6913 C   0  0  0  0  0  0  0  0  0  0  0  0
  -18.4899   15.0337  -21.5796 O   0  0  0  0  0  0  0  0  0  0  0  0
  -18.0027   15.1384  -19.3768 N   0  0  0  0  0  0  0  0  0  0  0  0
  -17.4916   15.4057  -18.5509 H   0  0  0  0  0  0  0  0  0  0  0  0
  -15.6568   16.1783  -23.6686 C   0  0  0  0  0  0  0  0  0  0  0  0
  -14.8391   15.2478  -23.5674 O   0  0  0  0  0  0  0  0  0  0  0  0
  -16.3932   16.5931  -22.5297 N   0  0  0  0  0  0  0  0  0  0  0  0
  -17.2535   17.7917  -22.5459 C   0  0  0  0  0  0  0  0  0  0  0  0
  -18.5078   17.7242  -23.2831 C   0  0  0  0  0  0  0  0  0  0  0  0
  -17.4797   18.1160  -21.0658 C   0  0  0  0  0  0  0  0  0  0  0  0
  -16.2911   17.4482  -20.3812 C   0  0  0  0  0  0  0  0  0  0  0  0
  -16.4369   16.0862  -21.1966 C   0  0  0  0  0  0  0  0  0  0  0  0
  -14.4328   15.5590  -26.3740 C   0  0  0  0  0  0  0  0  0  0  0  0
  -15.8321   15.3343  -26.9476 C   0  0  0  0  0  0  0  0  0  0  0  0
  -16.7131   15.9028  -25.8490 C   0  0  0  0  0  0  0  0  0  0  0  0
  -15.8274   16.8439  -24.9856 C   0  0  0  0  0  0  0  0  0  0  0  0
  -14.6180   16.8301  -25.7660 N   0  0  0  0  0  0  0  0  0  0  0  0
  -14.4805   17.6406  -26.3750 H   0  0  0  0  0  0  0  0  0  0  0  0
  -20.1967   15.2716  -18.3841 C   0  0  0  0  0  0  0  0  0  0  0  0
  -19.8416   16.3625  -17.5481 N   0  0  0  0  0  0  0  0  0  0  0  0
  -21.4555   15.0202  -18.5356 O   0  0  0  0  0  0  0  0  0  0  0  0
  -18.8711   16.6566  -17.3953 H   0  0  0  0  0  0  0  0  0  0  0  0
  -20.9440   17.0671  -16.8895 C   0  0  0  0  0  0  0  0  0  0  0  0
  -20.6844   17.0601  -15.3878 C   0  0  0  0  0  0  0  0  0  0  0  0
  -21.9664   17.5490  -14.7533 C   0  0  0  0  0  0  0  0  0  0  0  0
  -22.1358   19.0106  -15.1215 C   0  0  0  0  0  0  0  0  0  0  0  0
  -21.7296   19.7990  -13.9443 N   0  0  0  0  0  0  0  0  0  0  0  0
  -21.2569   19.4414  -16.2480 C   0  0  0  0  0  0  0  0  0  0  0  0
  -21.1634   18.4453  -17.3627 C   0  0  0  0  0  0  0  0  0  0  0  0
  -22.3742   19.6436  -13.1297 H   0  0  0  0  0  0  0  0  0  0  0  0
  -20.7748   19.5041  -13.6646 H   0  0  0  0  0  0  0  0  0  0  0  0
  -18.8046   13.1564  -18.4150 C   0  0  0  0  0  0  0  0  0  0  0  0
  -18.1009   12.1022  -19.0816 C   0  0  0  0  0  0  0  0  0  0  0  0
  -17.5430   12.3730  -20.3331 C   0  0  0  0  0  0  0  0  0  0  0  0
  -16.7613   11.4384  -21.0398 C   0  0  0  0  0  0  0  0  0  0  0  0
  -16.5517   10.2115  -20.4540 C   0  0  0  0  0  0  0  0  0  0  0  0
  -17.0833    9.9382  -19.2435 C   0  0  0  0  0  0  0  0  0  0  0  0
  -17.8532   10.8657  -18.5574 C   0  0  0  0  0  0  0  0  0  0  0  0
  -16.1808   11.8063  -22.3080 C   0  0  0  0  0  0  0  0  0  0  0  0
  -16.8680   12.7867  -23.0904 N   0  0  0  0  0  0  0  0  0  0  0  0
  -15.0997   11.3325  -22.7421 N   0  0  0  0  0  0  0  0  0  0  0  0
  -16.5008   13.7634  -23.1758 H   0  0  0  0  0  0  0  0  0  0  0  0
  -17.7454   12.5419  -23.5833 H   0  0  0  0  0  0  0  0  0  0  0  0
  -14.5241   10.6502  -22.2601 H   0  0  0  0  0  0  0  0  0  0  0  0
 14 15  1  0  0  0
 15 16  1  0  0  0
 16 17  1  0  0  0
 17  6  1  0  0  0
  6  7  2  0  0  0
  6  8  1  0  0  0
  8  9  1  0  0  0
  9 10  1  0  0  0
  9 11  1  0  0  0
 11 12  1  0  0  0
 12 13  1  0  0  0
 13  2  1  0  0  0
  2  3  2  0  0  0
  2  4  1  0  0  0
  4  1  1  0  0  0
  1 33  1  0  0  0
 33 34  1  0  0  0
 34 35  2  0  0  0
 35 36  1  0  0  0
 36 40  1  0  0  0
 40 41  1  0  0  0
 40 42  2  0  0  0
 36 37  2  0  0  0
 37 38  1  0  0  0
 38 39  2  0  0  0
  1 20  1  0  0  0
 20 21  1  0  0  0
 21 24  1  0  0  0
 24 25  1  0  0  0
 25 26  1  0  0  0
 26 27  1  0  0  0
 27 28  1  0  0  0
 27 29  1  0  0  0
 29 30  1  0  0  0
 20 22  2  0  0  0
 17 18  1  0  0  0
 18 14  1  0  0  0
 13  8  1  0  0  0
 39 34  1  0  0  0
 30 24  1  0  0  0
  4  5  1  0  0  0
 41 43  1  0  0  0
 41 44  1  0  0  0
 42 45  1  0  0  0
 21 23  1  0  0  0
 28 31  1  0  0  0
 28 32  1  0  0  0
 18 19  1  0  0  0
M  END
> <minimizedAffinity>
-9.32804

> <CNNscore>
0.6011627913

> <CNNaffinity>
7.3837928772

> <CNN_VS>
4.4388613701

> <CNNaffinity_variance>
0.1096625775

$$$$
[H]N=C(c1c([H])c([H])c([H])c(C([H])([H])[C@@]([H])(C(=O)N([H])[C@]2([H])C([H])([H])C([H])([H])[C@]([H])(N([H])[H])C([H])([H])C2([H])[H])N([H])C(=O)[C@@]2([H])N(C(=O)[C@@]3([H])N([H])C([H])([H])C([H])([H])C3([H])[H])[C@@]([H])(C([H])([H])[H])C([H])([H])C2([H])[H])c1[H])N([H])[H]


 45 48  0  0  0  0  0  0  0  0999 V2000
  -19.9799   14.6116  -19.4423 C   0  0  0  0  0  0  0  0  0  0  0  0
  -17.9720   15.3122  -20.8445 C   0  0  0  0  0  0  0  0  0  0  0  0
  -18.6617   14.7311  -21.7916 O   0  0  0  0  0  0  0  0  0  0  0  0
  -18.6296   15.3040  -19.6073 N   0  0  0  0  0  0  0  0  0  0  0  0
  -18.2869   15.7425  -18.7676 H   0  0  0  0  0  0  0  0  0  0  0  0
  -15.7259   16.0264  -23.6206 C   0  0  0  0  0  0  0  0  0  0  0  0
  -15.0376   14.9940  -23.5483 O   0  0  0  0  0  0  0  0  0  0  0  0
  -16.4861   16.4438  -22.4985 N   0  0  0  0  0  0  0  0  0  0  0  0
  -17.1897   17.7403  -22.4663 C   0  0  0  0  0  0  0  0  0  0  0  0
  -18.3864   17.8902  -23.2828 C   0  0  0  0  0  0  0  0  0  0  0  0
  -17.4806   17.9769  -20.9809 C   0  0  0  0  0  0  0  0  0  0  0  0
  -16.4353   17.1123  -20.2831 C   0  0  0  0  0  0  0  0  0  0  0  0
  -16.6876   15.8463  -21.2185 C   0  0  0  0  0  0  0  0  0  0  0  0
  -14.4141   15.4528  -26.2948 C   0  0  0  0  0  0  0  0  0  0  0  0
  -15.7888   15.4652  -26.9638 C   0  0  0  0  0  0  0  0  0  0  0  0
  -16.6597   16.0637  -25.8729 C   0  0  0  0  0  0  0  0  0  0  0  0
  -15.7182   16.8069  -24.8845 C   0  0  0  0  0  0  0  0  0  0  0  0
  -14.4713   16.6875  -25.5935 N   0  0  0  0  0  0  0  0  0  0  0  0
  -14.1877   17.5155  -26.1233 H   0  0  0  0  0  0  0  0  0  0  0  0
  -21.0164   15.6376  -19.5136 C   0  0  0  0  0  0  0  0  0  0  0  0
  -21.2223   16.5777  -20.5570 N   0  0  0  0  0  0  0  0  0  0  0  0
  -21.8131   15.6896  -18.4971 O   0  0  0  0  0  0  0  0  0  0  0  0
  -20.6617   16.5911  -21.4157 H   0  0  0  0  0  0  0  0  0  0  0  0
  -22.2909   17.5582  -20.3519 C   0  0  0  0  0  0  0  0  0  0  0  0
  -21.6830   18.9525  -20.4476 C   0  0  0  0  0  0  0  0  0  0  0  0
  -22.7591   19.8972  -19.9632 C   0  0  0  0  0  0  0  0  0  0  0  0
  -23.8814   19.8810  -20.9835 C   0  0  0  0  0  0  0  0  0  0  0  0
  -23.7412   21.1038  -21.7942 N   0  0  0  0  0  0  0  0  0  0  0  0
  -23.8024   18.7298  -21.9297 C   0  0  0  0  0  0  0  0  0  0  0  0
  -23.4278   17.4328  -21.2810 C   0  0  0  0  0  0  0  0  0  0  0  0
  -23.9007   21.9708  -21.2229 H   0  0  0  0  0  0  0  0  0  0  0  0
  -22.7762   21.1376  -22.1742 H   0  0  0  0  0  0  0  0  0  0  0  0
  -19.8046   13.8462  -18.1963 C   0  0  0  0  0  0  0  0  0  0  0  0
  -19.3307   12.4954  -18.1525 C   0  0  0  0  0  0  0  0  0  0  0  0
  -18.3921   12.0968  -19.1069 C   0  0  0  0  0  0  0  0  0  0  0  0
  -17.7976   10.8199  -19.1072 C   0  0  0  0  0  0  0  0  0  0  0  0
  -18.1727    9.9428  -18.1161 C   0  0  0  0  0  0  0  0  0  0  0  0
  -19.0771   10.3169  -17.1861 C   0  0  0  0  0  0  0  0  0  0  0  0
  -19.6577   11.5764  -17.1967 C   0  0  0  0  0  0  0  0  0  0  0  0
  -16.8020   10.4958  -20.0995 C   0  0  0  0  0  0  0  0  0  0  0  0
  -16.7262   11.3312  -21.2578 N   0  0  0  0  0  0  0  0  0  0  0  0
  -15.9901    9.5422  -19.9850 N   0  0  0  0  0  0  0  0  0  0  0  0
  -15.9422   12.0141  -21.3805 H   0  0  0  0  0  0  0  0  0  0  0  0
  -17.4529   11.2729  -21.9937 H   0  0  0  0  0  0  0  0  0  0  0  0
  -15.9439    8.9039  -19.1978 H   0  0  0  0  0  0  0  0  0  0  0  0
 14 15  1  0  0  0
 15 16  1  0  0  0
 16 17  1  0  0  0
 17  6  1  0  0  0
  6  7  2  0  0  0
  6  8  1  0  0  0
  8  9  1  0  0  0
  9 10  1  0  0  0
  9 11  1  0  0  0
 11 12  1  0  0  0
 12 13  1  0  0  0
 13  2  1  0  0  0
  2  3  2  0  0  0
  2  4  1  0  0  0
  4  1  1  0  0  0
  1 33  1  0  0  0
 33 34  1  0  0  0
 34 35  2  0  0  0
 35 36  1  0  0  0
 36 40  1  0  0  0
 40 41  1  0  0  0
 40 42  2  0  0  0
 36 37  2  0  0  0
 37 38  1  0  0  0
 38 39  2  0  0  0
  1 20  1  0  0  0
 20 21  1  0  0  0
 21 24  1  0  0  0
 24 25  1  0  0  0
 25 26  1  0  0  0
 26 27  1  0  0  0
 27 28  1  0  0  0
 27 29  1  0  0  0
 29 30  1  0  0  0
 20 22  2  0  0  0
 17 18  1  0  0  0
 18 14  1  0  0  0
 13  8  1  0  0  0
 39 34  1  0  0  0
 30 24  1  0  0  0
  4  5  1  0  0  0
 41 43  1  0  0  0
 41 44  1  0  0  0
 42 45  1  0  0  0
 21 23  1  0  0  0
 28 31  1  0  0  0
 28 32  1  0  0  0
 18 19  1  0  0  0
M  END
> <minimizedAffinity>
-9.57164

> <CNNscore>
0.4929967821

> <CNNaffinity>
7.2466568947

> <CNN_VS>
3.5725784302

> <CNNaffinity_variance>
0.1988404840

$$$$
[H]N=C(c1c([H])c([H])c([H])c(C([H])([H])[C@@]([H])(C(=O)N([H])[C@]2([H])C([H])([H])C([H])([H])[C@]([H])(N([H])[H])C([H])([H])C2([H])[H])N([H])C(=O)[C@@]2([H])N(C(=O)[C@@]3([H])N([H])C([H])([H])C([H])([H])C3([H])[H])[C@@]([H])(C([H])([H])[H])C([H])([H])C2([H])[H])c1[H])N([H])[H]


 45 48  0  0  0  0  0  0  0  0999 V2000
  -19.8535   14.3650  -19.4697 C   0  0  0  0  0  0  0  0  0  0  0  0
  -17.9987   15.4919  -20.8032 C   0  0  0  0  0  0  0  0  0  0  0  0
  -18.9568   15.6141  -21.6849 O   0  0  0  0  0  0  0  0  0  0  0  0
  -18.4226   14.8751  -19.6187 N   0  0  0  0  0  0  0  0  0  0  0  0
  -17.8485   14.7339  -18.8031 H   0  0  0  0  0  0  0  0  0  0  0  0
  -15.7459   16.1323  -23.5919 C   0  0  0  0  0  0  0  0  0  0  0  0
  -15.0802   15.0857  -23.5125 O   0  0  0  0  0  0  0  0  0  0  0  0
  -16.4933   16.5761  -22.4714 N   0  0  0  0  0  0  0  0  0  0  0  0
  -17.1682   17.8879  -22.4486 C   0  0  0  0  0  0  0  0  0  0  0  0
  -18.3638   18.0570  -23.2630 C   0  0  0  0  0  0  0  0  0  0  0  0
  -17.4494   18.1439  -20.9645 C   0  0  0  0  0  0  0  0  0  0  0  0
  -16.4211   17.2627  -20.2621 C   0  0  0  0  0  0  0  0  0  0  0  0
  -16.7040   15.9944  -21.1855 C   0  0  0  0  0  0  0  0  0  0  0  0
  -14.4842   15.4907  -26.2748 C   0  0  0  0  0  0  0  0  0  0  0  0
  -15.8650   15.5454  -26.9291 C   0  0  0  0  0  0  0  0  0  0  0  0
  -16.7025   16.1830  -25.8343 C   0  0  0  0  0  0  0  0  0  0  0  0
  -15.7250   16.9014  -24.8627 C   0  0  0  0  0  0  0  0  0  0  0  0
  -14.4908   16.7326  -25.5838 N   0  0  0  0  0  0  0  0  0  0  0  0
  -14.1845   17.5456  -26.1239 H   0  0  0  0  0  0  0  0  0  0  0  0
  -20.2358   14.5185  -18.0689 C   0  0  0  0  0  0  0  0  0  0  0  0
  -21.3063   13.8730  -17.3963 N   0  0  0  0  0  0  0  0  0  0  0  0
  -19.5185   15.3510  -17.3885 O   0  0  0  0  0  0  0  0  0  0  0  0
  -21.9075   13.1737  -17.8451 H   0  0  0  0  0  0  0  0  0  0  0  0
  -21.5292   14.2589  -16.0011 C   0  0  0  0  0  0  0  0  0  0  0  0
  -22.6781   15.2594  -15.9610 C   0  0  0  0  0  0  0  0  0  0  0  0
  -22.6790   15.8186  -14.5566 C   0  0  0  0  0  0  0  0  0  0  0  0
  -23.0899   14.7024  -13.6154 C   0  0  0  0  0  0  0  0  0  0  0  0
  -24.5048   14.9306  -13.2717 N   0  0  0  0  0  0  0  0  0  0  0  0
  -23.0146   13.3479  -14.2373 C   0  0  0  0  0  0  0  0  0  0  0  0
  -21.7999   13.1348  -15.0874 C   0  0  0  0  0  0  0  0  0  0  0  0
  -24.6345   15.8163  -12.7220 H   0  0  0  0  0  0  0  0  0  0  0  0
  -25.0481   15.0116  -14.1521 H   0  0  0  0  0  0  0  0  0  0  0  0
  -19.7821   13.0158  -20.0559 C   0  0  0  0  0  0  0  0  0  0  0  0
  -18.5771   12.2458  -20.1354 C   0  0  0  0  0  0  0  0  0  0  0  0
  -17.8286   12.3160  -21.3125 C   0  0  0  0  0  0  0  0  0  0  0  0
  -16.5881   11.6676  -21.4692 C   0  0  0  0  0  0  0  0  0  0  0  0
  -16.1123   10.9379  -20.4045 C   0  0  0  0  0  0  0  0  0  0  0  0
  -16.8251   10.8642  -19.2603 C   0  0  0  0  0  0  0  0  0  0  0  0
  -18.0466   11.5054  -19.1178 C   0  0  0  0  0  0  0  0  0  0  0  0
  -15.8511   11.8232  -22.6994 C   0  0  0  0  0  0  0  0  0  0  0  0
  -14.5721   11.1894  -22.7889 N   0  0  0  0  0  0  0  0  0  0  0  0
  -16.2841   12.4590  -23.6944 N   0  0  0  0  0  0  0  0  0  0  0  0
  -14.4355   10.3289  -23.3694 H   0  0  0  0  0  0  0  0  0  0  0  0
  -13.7599   11.5747  -22.2744 H   0  0  0  0  0  0  0  0  0  0  0  0
  -17.1830   12.9267  -23.7443 H   0  0  0  0  0  0  0  0  0  0  0  0
 14 15  1  0  0  0
 15 16  1  0  0  0
 16 17  1  0  0  0
 17  6  1  0  0  0
  6  7  2  0  0  0
  6  8  1  0  0  0
  8  9  1  0  0  0
  9 10  1  0  0  0
  9 11  1  0  0  0
 11 12  1  0  0  0
 12 13  1  0  0  0
 13  2  1  0  0  0
  2  3  2  0  0  0
  2  4  1  0  0  0
  4  1  1  0  0  0
  1 33  1  0  0  0
 33 34  1  0  0  0
 34 35  2  0  0  0
 35 36  1  0  0  0
 36 40  1  0  0  0
 40 41  1  0  0  0
 40 42  2  0  0  0
 36 37  2  0  0  0
 37 38  1  0  0  0
 38 39  2  0  0  0
  1 20  1  0  0  0
 20 21  1  0  0  0
 21 24  1  0  0  0
 24 25  1  0  0  0
 25 26  1  0  0  0
 26 27  1  0  0  0
 27 28  1  0  0  0
 27 29  1  0  0  0
 29 30  1  0  0  0
 20 22  2  0  0  0
 17 18  1  0  0  0
 18 14  1  0  0  0
 13  8  1  0  0  0
 39 34  1  0  0  0
 30 24  1  0  0  0
  4  5  1  0  0  0
 41 43  1  0  0  0
 41 44  1  0  0  0
 42 45  1  0  0  0
 21 23  1  0  0  0
 28 31  1  0  0  0
 28 32  1  0  0  0
 18 19  1  0  0  0
M  END
> <minimizedAffinity>
-9.49968

> <CNNscore>
0.4471535981

> <CNNaffinity>
7.1787209511

> <CNN_VS>
3.2099909782

> <CNNaffinity_variance>
0.0424781814

$$$$
[H]N=C(c1c([H])c([H])c([H])c(C([H])([H])[C@@]([H])(C(=O)N([H])[C@]2([H])C([H])([H])C([H])([H])[C@]([H])(N([H])[H])C([H])([H])C2([H])[H])N([H])C(=O)[C@@]2([H])N(C(=O)[C@@]3([H])N([H])C([H])([H])C([H])([H])C3([H])[H])[C@@]([H])(C([H])([H])[H])C([H])([H])C2([H])[H])c1[H])N([H])[H]


 45 48  0  0  0  0  0  0  0  0999 V2000
  -20.3720   15.4806  -19.9353 C   0  0  0  0  0  0  0  0  0  0  0  0
  -18.0155   16.3857  -20.2759 C   0  0  0  0  0  0  0  0  0  0  0  0
  -17.9737   16.2542  -18.9755 O   0  0  0  0  0  0  0  0  0  0  0  0
  -19.2333   15.9668  -20.8279 N   0  0  0  0  0  0  0  0  0  0  0  0
  -19.4438   15.9430  -21.8128 H   0  0  0  0  0  0  0  0  0  0  0  0
  -16.0435   16.4850  -23.3359 C   0  0  0  0  0  0  0  0  0  0  0  0
  -15.2178   15.6075  -23.0309 O   0  0  0  0  0  0  0  0  0  0  0  0
  -16.7909   17.1304  -22.3180 N   0  0  0  0  0  0  0  0  0  0  0  0
  -17.6620   18.2877  -22.5988 C   0  0  0  0  0  0  0  0  0  0  0  0
  -18.9109   18.0480  -23.3088 C   0  0  0  0  0  0  0  0  0  0  0  0
  -17.9007   18.9245  -21.2260 C   0  0  0  0  0  0  0  0  0  0  0  0
  -16.7104   18.4343  -20.4073 C   0  0  0  0  0  0  0  0  0  0  0  0
  -16.8384   16.9259  -20.9066 C   0  0  0  0  0  0  0  0  0  0  0  0
  -14.5655   15.5291  -25.8063 C   0  0  0  0  0  0  0  0  0  0  0  0
  -15.8794   14.9944  -26.3767 C   0  0  0  0  0  0  0  0  0  0  0  0
  -16.9019   15.6341  -25.4537 C   0  0  0  0  0  0  0  0  0  0  0  0
  -16.2118   16.8457  -24.7671 C   0  0  0  0  0  0  0  0  0  0  0  0
  -14.9611   16.8544  -25.4796 N   0  0  0  0  0  0  0  0  0  0  0  0
  -14.8927   17.5400  -26.2357 H   0  0  0  0  0  0  0  0  0  0  0  0
  -20.5195   16.4382  -18.8429 C   0  0  0  0  0  0  0  0  0  0  0  0
  -20.3044   16.2015  -17.4599 N   0  0  0  0  0  0  0  0  0  0  0  0
  -20.9053   17.6210  -19.1934 O   0  0  0  0  0  0  0  0  0  0  0  0
  -19.9667   15.3057  -17.0922 H   0  0  0  0  0  0  0  0  0  0  0  0
  -20.5971   17.3139  -16.5531 C   0  0  0  0  0  0  0  0  0  0  0  0
  -21.2817   16.7507  -15.3135 C   0  0  0  0  0  0  0  0  0  0  0  0
  -21.7970   17.9523  -14.5546 C   0  0  0  0  0  0  0  0  0  0  0  0
  -20.5965   18.7187  -14.0331 C   0  0  0  0  0  0  0  0  0  0  0  0
  -20.4616   18.3833  -12.6043 N   0  0  0  0  0  0  0  0  0  0  0  0
  -19.3146   18.3244  -14.6874 C   0  0  0  0  0  0  0  0  0  0  0  0
  -19.4242   18.1180  -16.1668 C   0  0  0  0  0  0  0  0  0  0  0  0
  -21.2772   18.7336  -12.0428 H   0  0  0  0  0  0  0  0  0  0  0  0
  -20.4222   17.3505  -12.5113 H   0  0  0  0  0  0  0  0  0  0  0  0
  -19.9804   14.0934  -19.6327 C   0  0  0  0  0  0  0  0  0  0  0  0
  -18.9519   13.3860  -20.3347 C   0  0  0  0  0  0  0  0  0  0  0  0
  -18.3513   12.2972  -19.6986 C   0  0  0  0  0  0  0  0  0  0  0  0
  -17.3899   11.4809  -20.3256 C   0  0  0  0  0  0  0  0  0  0  0  0
  -17.0412   11.7878  -21.6204 C   0  0  0  0  0  0  0  0  0  0  0  0
  -17.6163   12.8362  -22.2473 C   0  0  0  0  0  0  0  0  0  0  0  0
  -18.5607   13.6345  -21.6193 C   0  0  0  0  0  0  0  0  0  0  0  0
  -16.8465   10.3462  -19.6198 C   0  0  0  0  0  0  0  0  0  0  0  0
  -17.4293   10.0115  -18.3574 N   0  0  0  0  0  0  0  0  0  0  0  0
  -15.9145    9.6298  -20.0668 N   0  0  0  0  0  0  0  0  0  0  0  0
  -18.0527    9.1766  -18.2550 H   0  0  0  0  0  0  0  0  0  0  0  0
  -17.2433   10.5968  -17.5234 H   0  0  0  0  0  0  0  0  0  0  0  0
  -15.4467    9.7659  -20.9568 H   0  0  0  0  0  0  0  0  0  0  0  0
 14 15  1  0  0  0
 15 16  1  0  0  0
 16 17  1  0  0  0
 17  6  1  0  0  0
  6  7  2  0  0  0
  6  8  1  0  0  0
  8  9  1  0  0  0
  9 10  1  0  0  0
  9 11  1  0  0  0
 11 12  1  0  0  0
 12 13  1  0  0  0
 13  2  1  0  0  0
  2  3  2  0  0  0
  2  4  1  0  0  0
  4  1  1  0  0  0
  1 33  1  0  0  0
 33 34  1  0  0  0
 34 35  2  0  0  0
 35 36  1  0  0  0
 36 40  1  0  0  0
 40 41  1  0  0  0
 40 42  2  0  0  0
 36 37  2  0  0  0
 37 38  1  0  0  0
 38 39  2  0  0  0
  1 20  1  0  0  0
 20 21  1  0  0  0
 21 24  1  0  0  0
 24 25  1  0  0  0
 25 26  1  0  0  0
 26 27  1  0  0  0
 27 28  1  0  0  0
 27 29  1  0  0  0
 29 30  1  0  0  0
 20 22  2  0  0  0
 17 18  1  0  0  0
 18 14  1  0  0  0
 13  8  1  0  0  0
 39 34  1  0  0  0
 30 24  1  0  0  0
  4  5  1  0  0  0
 41 43  1  0  0  0
 41 44  1  0  0  0
 42 45  1  0  0  0
 21 23  1  0  0  0
 28 31  1  0  0  0
 28 32  1  0  0  0
 18 19  1  0  0  0
M  END
> <minimizedAffinity>
-9.60276

> <CNNscore>
0.3810240626

> <CNNaffinity>
7.0068230629

> <CNN_VS>
2.6697680950

> <CNNaffinity_variance>
0.0144809932

$$$$
[H]N=C(c1c([H])c([H])c([H])c(C([H])([H])[C@@]([H])(C(=O)N([H])[C@]2([H])C([H])([H])C([H])([H])[C@]([H])(N([H])[H])C([H])([H])C2([H])[H])N([H])C(=O)[C@@]2([H])N(C(=O)[C@@]3([H])N([H])C([H])([H])C([H])([H])C3([H])[H])[C@@]([H])(C([H])([H])[H])C([H])([H])C2([H])[H])c1[H])N([H])[H]


 45 48  0  0  0  0  0  0  0  0999 V2000
  -17.8682   12.2567  -19.7521 C   0  0  0  0  0  0  0  0  0  0  0  0
  -19.2447   14.1112  -18.6778 C   0  0  0  0  0  0  0  0  0  0  0  0
  -18.1531   14.2637  -17.9740 O   0  0  0  0  0  0  0  0  0  0  0  0
  -19.1367   13.0981  -19.6397 N   0  0  0  0  0  0  0  0  0  0  0  0
  -19.8490   12.8601  -20.3110 H   0  0  0  0  0  0  0  0  0  0  0  0
  -20.2696   17.0679  -16.8150 C   0  0  0  0  0  0  0  0  0  0  0  0
  -20.7130   16.4865  -15.8100 O   0  0  0  0  0  0  0  0  0  0  0  0
  -20.1248   16.3547  -18.0323 N   0  0  0  0  0  0  0  0  0  0  0  0
  -19.7614   17.0249  -19.2955 C   0  0  0  0  0  0  0  0  0  0  0  0
  -18.3911   17.4927  -19.4526 C   0  0  0  0  0  0  0  0  0  0  0  0
  -20.1476   16.0180  -20.3836 C   0  0  0  0  0  0  0  0  0  0  0  0
  -21.1956   15.1502  -19.6937 C   0  0  0  0  0  0  0  0  0  0  0  0
  -20.3457   14.9825  -18.3555 C   0  0  0  0  0  0  0  0  0  0  0  0
  -21.9625   19.4736  -16.0750 C   0  0  0  0  0  0  0  0  0  0  0  0
  -21.0371   19.7513  -14.8901 C   0  0  0  0  0  0  0  0  0  0  0  0
  -19.8570   18.8466  -15.1990 C   0  0  0  0  0  0  0  0  0  0  0  0
  -19.9177   18.5076  -16.7145 C   0  0  0  0  0  0  0  0  0  0  0  0
  -21.0018   19.3649  -17.1166 N   0  0  0  0  0  0  0  0  0  0  0  0
  -20.7237   20.2434  -17.5609 H   0  0  0  0  0  0  0  0  0  0  0  0
  -17.2481   12.5583  -21.0392 C   0  0  0  0  0  0  0  0  0  0  0  0
  -17.3431   13.7689  -21.7742 N   0  0  0  0  0  0  0  0  0  0  0  0
  -16.5547   11.5982  -21.5569 O   0  0  0  0  0  0  0  0  0  0  0  0
  -17.8433   14.5948  -21.4284 H   0  0  0  0  0  0  0  0  0  0  0  0
  -16.6870   13.7919  -23.0836 C   0  0  0  0  0  0  0  0  0  0  0  0
  -17.6582   14.3926  -24.0928 C   0  0  0  0  0  0  0  0  0  0  0  0
  -17.0400   14.1403  -25.4490 C   0  0  0  0  0  0  0  0  0  0  0  0
  -15.7860   14.9878  -25.5497 C   0  0  0  0  0  0  0  0  0  0  0  0
  -16.1267   16.1609  -26.3742 N   0  0  0  0  0  0  0  0  0  0  0  0
  -15.3205   15.5122  -24.2325 C   0  0  0  0  0  0  0  0  0  0  0  0
  -15.4044   14.5167  -23.1165 C   0  0  0  0  0  0  0  0  0  0  0  0
  -16.3559   15.8895  -27.3627 H   0  0  0  0  0  0  0  0  0  0  0  0
  -16.9600   16.6218  -25.9619 H   0  0  0  0  0  0  0  0  0  0  0  0
  -18.3562   10.8927  -19.4866 C   0  0  0  0  0  0  0  0  0  0  0  0
  -18.6895   10.4071  -18.1812 C   0  0  0  0  0  0  0  0  0  0  0  0
  -19.6880   11.0734  -17.4671 C   0  0  0  0  0  0  0  0  0  0  0  0
  -20.1529   10.6340  -16.2122 C   0  0  0  0  0  0  0  0  0  0  0  0
  -19.5843    9.4977  -15.6850 C   0  0  0  0  0  0  0  0  0  0  0  0
  -18.6200    8.8430  -16.3665 C   0  0  0  0  0  0  0  0  0  0  0  0
  -18.1686    9.2860  -17.6008 C   0  0  0  0  0  0  0  0  0  0  0  0
  -21.2192   11.3493  -15.5550 C   0  0  0  0  0  0  0  0  0  0  0  0
  -20.8749   12.5384  -14.8389 N   0  0  0  0  0  0  0  0  0  0  0  0
  -22.4257   10.9975  -15.6022 N   0  0  0  0  0  0  0  0  0  0  0  0
  -21.1123   13.4849  -15.2183 H   0  0  0  0  0  0  0  0  0  0  0  0
  -20.3799   12.4779  -13.9310 H   0  0  0  0  0  0  0  0  0  0  0  0
  -22.7800   10.1858  -16.0973 H   0  0  0  0  0  0  0  0  0  0  0  0
 14 15  1  0  0  0
 15 16  1  0  0  0
 16 17  1  0  0  0
 17  6  1  0  0  0
  6  7  2  0  0  0
  6  8  1  0  0  0
  8  9  1  0  0  0
  9 10  1  0  0  0
  9 11  1  0  0  0
 11 12  1  0  0  0
 12 13  1  0  0  0
 13  2  1  0  0  0
  2  3  2  0  0  0
  2  4  1  0  0  0
  4  1  1  0  0  0
  1 33  1  0  0  0
 33 34  1  0  0  0
 34 35  2  0  0  0
 35 36  1  0  0  0
 36 40  1  0  0  0
 40 41  1  0  0  0
 40 42  2  0  0  0
 36 37  2  0  0  0
 37 38  1  0  0  0
 38 39  2  0  0  0
  1 20  1  0  0  0
 20 21  1  0  0  0
 21 24  1  0  0  0
 24 25  1  0  0  0
 25 26  1  0  0  0
 26 27  1  0  0  0
 27 28  1  0  0  0
 27 29  1  0  0  0
 29 30  1  0  0  0
 20 22  2  0  0  0
 17 18  1  0  0  0
 18 14  1  0  0  0
 13  8  1  0  0  0
 39 34  1  0  0  0
 30 24  1  0  0  0
  4  5  1  0  0  0
 41 43  1  0  0  0
 41 44  1  0  0  0
 42 45  1  0  0  0
 21 23  1  0  0  0
 28 31  1  0  0  0
 28 32  1  0  0  0
 18 19  1  0  0  0
M  END
> <minimizedAffinity>
-8.38946

> <CNNscore>
0.3350745142

> <CNNaffinity>
7.0546050072

> <CNN_VS>
2.3638184071

> <CNNaffinity_variance>
0.2205249518

$$$$
[H]N=C(c1c([H])c([H])c([H])c(C([H])([H])[C@@]([H])(C(=O)N([H])[C@]2([H])C([H])([H])C([H])([H])[C@]([H])(N([H])[H])C([H])([H])C2([H])[H])N([H])C(=O)[C@@]2([H])N(C(=O)[C@@]3([H])N([H])C([H])([H])C([H])([H])C3([H])[H])[C@@]([H])(C([H])([H])[H])C([H])([H])C2([H])[H])c1[H])N([H])[H]


 45 48  0  0  0  0  0  0  0  0999 V2000
  -17.3947   13.4960  -21.6657 C   0  0  0  0  0  0  0  0  0  0  0  0
  -17.8365   15.9716  -21.2602 C   0  0  0  0  0  0  0  0  0  0  0  0
  -16.5315   16.0044  -21.1818 O   0  0  0  0  0  0  0  0  0  0  0  0
  -18.3343   14.6925  -21.5419 N   0  0  0  0  0  0  0  0  0  0  0  0
  -19.3056   14.4698  -21.6893 H   0  0  0  0  0  0  0  0  0  0  0  0
  -21.0937   17.5695  -20.9443 C   0  0  0  0  0  0  0  0  0  0  0  0
  -21.2065   17.9526  -22.1212 O   0  0  0  0  0  0  0  0  0  0  0  0
  -19.8115   17.2498  -20.4295 N   0  0  0  0  0  0  0  0  0  0  0  0
  -19.5923   16.9487  -19.0018 C   0  0  0  0  0  0  0  0  0  0  0  0
  -20.0723   15.6725  -18.4898 C   0  0  0  0  0  0  0  0  0  0  0  0
  -18.0809   17.1076  -18.8085 C   0  0  0  0  0  0  0  0  0  0  0  0
  -17.6804   18.0226  -19.9616 C   0  0  0  0  0  0  0  0  0  0  0  0
  -18.5258   17.2185  -21.0478 C   0  0  0  0  0  0  0  0  0  0  0  0
  -23.0274   19.7100  -20.0063 C   0  0  0  0  0  0  0  0  0  0  0  0
  -24.1649   18.9900  -20.7312 C   0  0  0  0  0  0  0  0  0  0  0  0
  -23.5284   17.6492  -21.0533 C   0  0  0  0  0  0  0  0  0  0  0  0
  -22.3128   17.4731  -20.1009 C   0  0  0  0  0  0  0  0  0  0  0  0
  -22.4884   18.6277  -19.2596 N   0  0  0  0  0  0  0  0  0  0  0  0
  -22.9288   18.4468  -18.3541 H   0  0  0  0  0  0  0  0  0  0  0  0
  -16.8073   13.5294  -23.0021 C   0  0  0  0  0  0  0  0  0  0  0  0
  -16.5796   14.6738  -23.8106 N   0  0  0  0  0  0  0  0  0  0  0  0
  -16.4814   12.3783  -23.4913 O   0  0  0  0  0  0  0  0  0  0  0  0
  -16.7758   15.6294  -23.4942 H   0  0  0  0  0  0  0  0  0  0  0  0
  -16.0452   14.4304  -25.1524 C   0  0  0  0  0  0  0  0  0  0  0  0
  -17.0922   14.8692  -26.1691 C   0  0  0  0  0  0  0  0  0  0  0  0
  -16.6052   14.3482  -27.5020 C   0  0  0  0  0  0  0  0  0  0  0  0
  -15.3491   15.1161  -27.8670 C   0  0  0  0  0  0  0  0  0  0  0  0
  -15.7402   16.1282  -28.8644 N   0  0  0  0  0  0  0  0  0  0  0  0
  -14.7552   15.8577  -26.7162 C   0  0  0  0  0  0  0  0  0  0  0  0
  -14.7568   15.0894  -25.4305 C   0  0  0  0  0  0  0  0  0  0  0  0
  -16.0638   15.6873  -29.7611 H   0  0  0  0  0  0  0  0  0  0  0  0
  -16.5231   16.6875  -28.4758 H   0  0  0  0  0  0  0  0  0  0  0  0
  -18.2550   12.3639  -21.2821 C   0  0  0  0  0  0  0  0  0  0  0  0
  -18.2404   11.7576  -19.9847 C   0  0  0  0  0  0  0  0  0  0  0  0
  -19.1215   12.2498  -19.0192 C   0  0  0  0  0  0  0  0  0  0  0  0
  -19.2505   11.6765  -17.7391 C   0  0  0  0  0  0  0  0  0  0  0  0
  -18.4642   10.5859  -17.4479 C   0  0  0  0  0  0  0  0  0  0  0  0
  -17.6104   10.0989  -18.3734 C   0  0  0  0  0  0  0  0  0  0  0  0
  -17.4903   10.6727  -19.6303 C   0  0  0  0  0  0  0  0  0  0  0  0
  -20.2149   12.2128  -16.8102 C   0  0  0  0  0  0  0  0  0  0  0  0
  -21.2110   13.0985  -17.3286 N   0  0  0  0  0  0  0  0  0  0  0  0
  -20.2386   11.9227  -15.5867 N   0  0  0  0  0  0  0  0  0  0  0  0
  -22.2033   12.7858  -17.4454 H   0  0  0  0  0  0  0  0  0  0  0  0
  -20.9608   14.0663  -17.5999 H   0  0  0  0  0  0  0  0  0  0  0  0
  -19.5942   11.2916  -15.1220 H   0  0  0  0  0  0  0  0  0  0  0  0
 14 15  1  0  0  0
 15 16  1  0  0  0
 16 17  1  0  0  0
 17  6  1  0  0  0
  6  7  2  0  0  0
  6  8  1  0  0  0
  8  9  1  0  0  0
  9 10  1  0  0  0
  9 11  1  0  0  0
 11 12  1  0  0  0
 12 13  1  0  0  0
 13  2  1  0  0  0
  2  3  2  0  0  0
  2  4  1  0  0  0
  4  1  1  0  0  0
  1 33  1  0  0  0
 33 34  1  0  0  0
 34 35  2  0  0  0
 35 36  1  0  0  0
 36 40  1  0  0  0
 40 41  1  0  0  0
 40 42  2  0  0  0
 36 37  2  0  0  0
 37 38  1  0  0  0
 38 39  2  0  0  0
  1 20  1  0  0  0
 20 21  1  0  0  0
 21 24  1  0  0  0
 24 25  1  0  0  0
 25 26  1  0  0  0
 26 27  1  0  0  0
 27 28  1  0  0  0
 27 29  1  0  0  0
 29 30  1  0  0  0
 20 22  2  0  0  0
 17 18  1  0  0  0
 18 14  1  0  0  0
 13  8  1  0  0  0
 39 34  1  0  0  0
 30 24  1  0  0  0
  4  5  1  0  0  0
 41 43  1  0  0  0
 41 44  1  0  0  0
 42 45  1  0  0  0
 21 23  1  0  0  0
 28 31  1  0  0  0
 28 32  1  0  0  0
 18 19  1  0  0  0
M  END
> <minimizedAffinity>
-8.42705

> <CNNscore>
0.2630537748

> <CNNaffinity>
7.2066893578

> <CNN_VS>
1.8957468271

> <CNNaffinity_variance>
0.1959912628

$$$$
[H]N=C(c1c([H])c([H])c([H])c(C([H])([H])[C@@]([H])(C(=O)N([H])[C@]2([H])C([H])([H])C([H])([H])[C@]([H])(N([H])[H])C([H])([H])C2([H])[H])N([H])C(=O)[C@@]2([H])N(C(=O)[C@@]3([H])N([H])C([H])([H])C([H])([H])C3([H])[H])[C@@]([H])(C([H])([H])[H])C([H])([H])C2([H])[H])c1[H])N([H])[H]


 45 48  0  0  0  0  0  0  0  0999 V2000
  -19.7189   12.4098  -17.7407 C   0  0  0  0  0  0  0  0  0  0  0  0
  -20.9052   14.4764  -18.6406 C   0  0  0  0  0  0  0  0  0  0  0  0
  -21.2460   13.6433  -19.5893 O   0  0  0  0  0  0  0  0  0  0  0  0
  -20.1345   13.8747  -17.6369 N   0  0  0  0  0  0  0  0  0  0  0  0
  -19.8157   14.3345  -16.7993 H   0  0  0  0  0  0  0  0  0  0  0  0
  -20.9145   17.7971  -17.1456 C   0  0  0  0  0  0  0  0  0  0  0  0
  -22.0084   17.7141  -16.5616 O   0  0  0  0  0  0  0  0  0  0  0  0
  -20.6242   16.9197  -18.2213 N   0  0  0  0  0  0  0  0  0  0  0  0
  -19.4178   17.0750  -19.0564 C   0  0  0  0  0  0  0  0  0  0  0  0
  -18.1311   16.7212  -18.4728 C   0  0  0  0  0  0  0  0  0  0  0  0
  -19.7183   16.2524  -20.3134 C   0  0  0  0  0  0  0  0  0  0  0  0
  -21.2426   16.1935  -20.3303 C   0  0  0  0  0  0  0  0  0  0  0  0
  -21.3628   15.8350  -18.7817 C   0  0  0  0  0  0  0  0  0  0  0  0
  -21.0366   19.7841  -14.8569 C   0  0  0  0  0  0  0  0  0  0  0  0
  -19.7745   19.1619  -14.2589 C   0  0  0  0  0  0  0  0  0  0  0  0
  -19.2807   18.2977  -15.4060 C   0  0  0  0  0  0  0  0  0  0  0  0
  -19.9432   18.8318  -16.7065 C   0  0  0  0  0  0  0  0  0  0  0  0
  -20.5930   20.0070  -16.1885 N   0  0  0  0  0  0  0  0  0  0  0  0
  -20.1004   20.8884  -16.3533 H   0  0  0  0  0  0  0  0  0  0  0  0
  -20.1628   11.7352  -16.5242 C   0  0  0  0  0  0  0  0  0  0  0  0
  -20.2939   12.3010  -15.2289 N   0  0  0  0  0  0  0  0  0  0  0  0
  -20.4466   10.4815  -16.6597 O   0  0  0  0  0  0  0  0  0  0  0  0
  -20.1230   13.2929  -15.0325 H   0  0  0  0  0  0  0  0  0  0  0  0
  -20.6873   11.3877  -14.1535 C   0  0  0  0  0  0  0  0  0  0  0  0
  -19.4491   11.0648  -13.3257 C   0  0  0  0  0  0  0  0  0  0  0  0
  -19.8546    9.9258  -12.4184 C   0  0  0  0  0  0  0  0  0  0  0  0
  -20.8678   10.4640  -11.4262 C   0  0  0  0  0  0  0  0  0  0  0  0
  -20.1507   10.6825  -10.1573 N   0  0  0  0  0  0  0  0  0  0  0  0
  -21.4417   11.7826  -11.8249 C   0  0  0  0  0  0  0  0  0  0  0  0
  -21.7655   11.8898  -13.2834 C   0  0  0  0  0  0  0  0  0  0  0  0
  -19.8103    9.7800   -9.7413 H   0  0  0  0  0  0  0  0  0  0  0  0
  -19.3271   11.2854  -10.3446 H   0  0  0  0  0  0  0  0  0  0  0  0
  -18.2782   12.4988  -18.0334 C   0  0  0  0  0  0  0  0  0  0  0  0
  -17.6581   11.8868  -19.1700 C   0  0  0  0  0  0  0  0  0  0  0  0
  -17.6292   12.6035  -20.3684 C   0  0  0  0  0  0  0  0  0  0  0  0
  -16.9743   12.1344  -21.5238 C   0  0  0  0  0  0  0  0  0  0  0  0
  -16.3431   10.9145  -21.4468 C   0  0  0  0  0  0  0  0  0  0  0  0
  -16.3615   10.2131  -20.2934 C   0  0  0  0  0  0  0  0  0  0  0  0
  -17.0113   10.6840  -19.1622 C   0  0  0  0  0  0  0  0  0  0  0  0
  -16.9492   12.9517  -22.7122 C   0  0  0  0  0  0  0  0  0  0  0  0
  -16.0398   12.5800  -23.7515 N   0  0  0  0  0  0  0  0  0  0  0  0
  -17.6971   13.9474  -22.8879 N   0  0  0  0  0  0  0  0  0  0  0  0
  -16.3828   12.1374  -24.6361 H   0  0  0  0  0  0  0  0  0  0  0  0
  -15.0229   12.7422  -23.6400 H   0  0  0  0  0  0  0  0  0  0  0  0
  -18.3893   14.2837  -22.2267 H   0  0  0  0  0  0  0  0  0  0  0  0
 14 15  1  0  0  0
 15 16  1  0  0  0
 16 17  1  0  0  0
 17  6  1  0  0  0
  6  7  2  0  0  0
  6  8  1  0  0  0
  8  9  1  0  0  0
  9 10  1  0  0  0
  9 11  1  0  0  0
 11 12  1  0  0  0
 12 13  1  0  0  0
 13  2  1  0  0  0
  2  3  2  0  0  0
  2  4  1  0  0  0
  4  1  1  0  0  0
  1 33  1  0  0  0
 33 34  1  0  0  0
 34 35  2  0  0  0
 35 36  1  0  0  0
 36 40  1  0  0  0
 40 41  1  0  0  0
 40 42  2  0  0  0
 36 37  2  0  0  0
 37 38  1  0  0  0
 38 39  2  0  0  0
  1 20  1  0  0  0
 20 21  1  0  0  0
 21 24  1  0  0  0
 24 25  1  0  0  0
 25 26  1  0  0  0
 26 27  1  0  0  0
 27 28  1  0  0  0
 27 29  1  0  0  0
 29 30  1  0  0  0
 20 22  2  0  0  0
 17 18  1  0  0  0
 18 14  1  0  0  0
 13  8  1  0  0  0
 39 34  1  0  0  0
 30 24  1  0  0  0
  4  5  1  0  0  0
 41 43  1  0  0  0
 41 44  1  0  0  0
 42 45  1  0  0  0
 21 23  1  0  0  0
 28 31  1  0  0  0
 28 32  1  0  0  0
 18 19  1  0  0  0
M  END
> <minimizedAffinity>
-8.51093

> <CNNscore>
0.2500317693

> <CNNaffinity>
6.0965833664

> <CNN_VS>
1.5243395567

> <CNNaffinity_variance>
0.3810024858

$$$$
[H]N=C(c1c([H])c([H])c([H])c(C([H])([H])[C@@]([H])(C(=O)N([H])[C@]2([H])C([H])([H])C([H])([H])[C@]([H])(N([H])[H])C([H])([H])C2([H])[H])N([H])C(=O)[C@@]2([H])N(C(=O)[C@@]3([H])N([H])C([H])([H])C([H])([H])C3([H])[H])[C@@]([H])(C([H])([H])[H])C([H])([H])C2([H])[H])c1[H])N([H])[H]


 45 48  0  0  0  0  0  0  0  0999 V2000
  -19.7803   14.2298  -19.3806 C   0  0  0  0  0  0  0  0  0  0  0  0
  -17.8531   15.0902  -20.8068 C   0  0  0  0  0  0  0  0  0  0  0  0
  -18.5003   14.4473  -21.7439 O   0  0  0  0  0  0  0  0  0  0  0  0
  -18.4954   15.0333  -19.5628 N   0  0  0  0  0  0  0  0  0  0  0  0
  -18.1828   15.5041  -18.7289 H   0  0  0  0  0  0  0  0  0  0  0  0
  -15.7116   15.9919  -23.6109 C   0  0  0  0  0  0  0  0  0  0  0  0
  -14.9396   15.0198  -23.5506 O   0  0  0  0  0  0  0  0  0  0  0  0
  -16.4884   16.3433  -22.4776 N   0  0  0  0  0  0  0  0  0  0  0  0
  -17.2962   17.5772  -22.4324 C   0  0  0  0  0  0  0  0  0  0  0  0
  -18.5122   17.6290  -23.2324 C   0  0  0  0  0  0  0  0  0  0  0  0
  -17.5854   17.7867  -20.9427 C   0  0  0  0  0  0  0  0  0  0  0  0
  -16.4628   17.0103  -20.2613 C   0  0  0  0  0  0  0  0  0  0  0  0
  -16.6224   15.7293  -21.1965 C   0  0  0  0  0  0  0  0  0  0  0  0
  -14.4218   15.5134  -26.3143 C   0  0  0  0  0  0  0  0  0  0  0  0
  -15.8084   15.4310  -26.9533 C   0  0  0  0  0  0  0  0  0  0  0  0
  -16.6946   15.9665  -25.8423 C   0  0  0  0  0  0  0  0  0  0  0  0
  -15.7857   16.7724  -24.8727 C   0  0  0  0  0  0  0  0  0  0  0  0
  -14.5492   16.7405  -25.6088 N   0  0  0  0  0  0  0  0  0  0  0  0
  -14.3354   17.5867  -26.1426 H   0  0  0  0  0  0  0  0  0  0  0  0
  -20.9016   15.1618  -19.4601 C   0  0  0  0  0  0  0  0  0  0  0  0
  -21.1507   16.1190  -20.4782 N   0  0  0  0  0  0  0  0  0  0  0  0
  -21.7387   15.1042  -18.4769 O   0  0  0  0  0  0  0  0  0  0  0  0
  -20.5607   16.2148  -21.3116 H   0  0  0  0  0  0  0  0  0  0  0  0
  -22.3105   16.9924  -20.2847 C   0  0  0  0  0  0  0  0  0  0  0  0
  -21.8041   18.4041  -20.0143 C   0  0  0  0  0  0  0  0  0  0  0  0
  -23.0138   19.1876  -19.5585 C   0  0  0  0  0  0  0  0  0  0  0  0
  -23.9512   19.3208  -20.7435 C   0  0  0  0  0  0  0  0  0  0  0  0
  -23.7758   20.6831  -21.2777 N   0  0  0  0  0  0  0  0  0  0  0  0
  -23.6316   18.3807  -21.8576 C   0  0  0  0  0  0  0  0  0  0  0  0
  -23.2687   17.0001  -21.4043 C   0  0  0  0  0  0  0  0  0  0  0  0
  -24.0919   21.4142  -20.5929 H   0  0  0  0  0  0  0  0  0  0  0  0
  -22.7674   20.8331  -21.4713 H   0  0  0  0  0  0  0  0  0  0  0  0
  -19.5342   13.5002  -18.1252 C   0  0  0  0  0  0  0  0  0  0  0  0
  -18.9668   12.1865  -18.0667 C   0  0  0  0  0  0  0  0  0  0  0  0
  -19.4976   11.2817  -17.1445 C   0  0  0  0  0  0  0  0  0  0  0  0
  -19.0733    9.9414  -17.0579 C   0  0  0  0  0  0  0  0  0  0  0  0
  -18.0919    9.5269  -17.9281 C   0  0  0  0  0  0  0  0  0  0  0  0
  -17.5725   10.3911  -18.8260 C   0  0  0  0  0  0  0  0  0  0  0  0
  -17.9966   11.7095  -18.9010 C   0  0  0  0  0  0  0  0  0  0  0  0
  -19.7003    9.0536  -16.1095 C   0  0  0  0  0  0  0  0  0  0  0  0
  -18.9569    7.9082  -15.6842 N   0  0  0  0  0  0  0  0  0  0  0  0
  -20.8441    9.2489  -15.6244 N   0  0  0  0  0  0  0  0  0  0  0  0
  -18.5336    7.8641  -14.7277 H   0  0  0  0  0  0  0  0  0  0  0  0
  -18.8243    7.1036  -16.3229 H   0  0  0  0  0  0  0  0  0  0  0  0
  -21.4451   10.0371  -15.8409 H   0  0  0  0  0  0  0  0  0  0  0  0
 14 15  1  0  0  0
 15 16  1  0  0  0
 16 17  1  0  0  0
 17  6  1  0  0  0
  6  7  2  0  0  0
  6  8  1  0  0  0
  8  9  1  0  0  0
  9 10  1  0  0  0
  9 11  1  0  0  0
 11 12  1  0  0  0
 12 13  1  0  0  0
 13  2  1  0  0  0
  2  3  2  0  0  0
  2  4  1  0  0  0
  4  1  1  0  0  0
  1 33  1  0  0  0
 33 34  1  0  0  0
 34 35  2  0  0  0
 35 36  1  0  0  0
 36 40  1  0  0  0
 40 41  1  0  0  0
 40 42  2  0  0  0
 36 37  2  0  0  0
 37 38  1  0  0  0
 38 39  2  0  0  0
  1 20  1  0  0  0
 20 21  1  0  0  0
 21 24  1  0  0  0
 24 25  1  0  0  0
 25 26  1  0  0  0
 26 27  1  0  0  0
 27 28  1  0  0  0
 27 29  1  0  0  0
 29 30  1  0  0  0
 20 22  2  0  0  0
 17 18  1  0  0  0
 18 14  1  0  0  0
 13  8  1  0  0  0
 39 34  1  0  0  0
 30 24  1  0  0  0
  4  5  1  0  0  0
 41 43  1  0  0  0
 41 44  1  0  0  0
 42 45  1  0  0  0
 21 23  1  0  0  0
 28 31  1  0  0  0
 28 32  1  0  0  0
 18 19  1  0  0  0
M  END
> <minimizedAffinity>
-9.42943

> <CNNscore>
0.2397556454

> <CNNaffinity>
6.6574964523

> <CNN_VS>
1.5961723328

> <CNNaffinity_variance>
0.0620812550

$$$$
[H]c1c([H])c([H])c([C@@]([H])(N([H])C(=O)[C@@]2([H])N(C(=O)[C@@]([H])(N([H])C(=O)N3C([H])([H])C([H])([H])C([H])(C(C([H])([H])[H])(C([H])([H])[H])C([H])([H])[H])C([H])([H])C3([H])[H])C([H])([H])[H])C([H])([H])C([H])([H])C2([H])[H])C([H])(C([H])([H])[H])C([H])([H])[H])c([H])c1[H]


 37 39  0  0  0  0  0  0  0  0999 V2000
  -18.2957   11.7963  -18.2138 C   0  0  0  0  0  0  0  0  0  0  0  0
  -17.7951   11.3777  -17.1477 O   0  0  0  0  0  0  0  0  0  0  0  0
  -19.4145   12.6584  -18.1332 N   0  0  0  0  0  0  0  0  0  0  0  0
  -20.0095   13.1862  -19.3804 C   0  0  0  0  0  0  0  0  0  0  0  0
  -20.5277   14.5635  -18.8981 C   0  0  0  0  0  0  0  0  0  0  0  0
  -21.1666   14.0935  -17.6184 C   0  0  0  0  0  0  0  0  0  0  0  0
  -20.1446   13.1791  -17.0342 C   0  0  0  0  0  0  0  0  0  0  0  0
  -20.7409   12.1757  -16.1280 C   0  0  0  0  0  0  0  0  0  0  0  0
  -21.9562   12.3712  -15.8039 O   0  0  0  0  0  0  0  0  0  0  0  0
  -20.1011   11.0602  -15.6127 N   0  0  0  0  0  0  0  0  0  0  0  0
  -19.1088   10.8628  -15.8699 H   0  0  0  0  0  0  0  0  0  0  0  0
  -20.7033   10.0867  -14.7226 C   0  0  0  0  0  0  0  0  0  0  0  0
  -20.4514   10.3756  -13.2928 C   0  0  0  0  0  0  0  0  0  0  0  0
  -19.3834    9.7503  -12.6879 C   0  0  0  0  0  0  0  0  0  0  0  0
  -19.0393    9.9254  -11.3624 C   0  0  0  0  0  0  0  0  0  0  0  0
  -19.8233   10.7840  -10.6068 C   0  0  0  0  0  0  0  0  0  0  0  0
  -20.9051   11.4166  -11.2216 C   0  0  0  0  0  0  0  0  0  0  0  0
  -21.2132   11.2195  -12.5287 C   0  0  0  0  0  0  0  0  0  0  0  0
  -20.1921    8.6916  -14.9943 C   0  0  0  0  0  0  0  0  0  0  0  0
  -21.3192    7.6815  -15.0631 C   0  0  0  0  0  0  0  0  0  0  0  0
  -19.3693    8.5878  -16.2544 C   0  0  0  0  0  0  0  0  0  0  0  0
  -16.3368   10.6870  -19.2545 C   0  0  0  0  0  0  0  0  0  0  0  0
  -17.6767   11.3561  -19.4835 C   0  0  0  0  0  0  0  0  0  0  0  0
  -17.4144   12.4849  -20.3635 N   0  0  0  0  0  0  0  0  0  0  0  0
  -17.5167   12.3108  -21.7534 C   0  0  0  0  0  0  0  0  0  0  0  0
  -17.8456   11.1507  -22.1821 O   0  0  0  0  0  0  0  0  0  0  0  0
  -17.2896   13.3079  -22.7379 N   0  0  0  0  0  0  0  0  0  0  0  0
  -16.8938   14.6262  -22.3552 C   0  0  0  0  0  0  0  0  0  0  0  0
  -16.0715   15.3704  -23.3611 C   0  0  0  0  0  0  0  0  0  0  0  0
  -16.3347   15.0235  -24.7875 C   0  0  0  0  0  0  0  0  0  0  0  0
  -16.2550   13.5026  -24.8900 C   0  0  0  0  0  0  0  0  0  0  0  0
  -17.4741   12.9850  -24.1590 C   0  0  0  0  0  0  0  0  0  0  0  0
  -17.1516   13.4254  -19.9666 H   0  0  0  0  0  0  0  0  0  0  0  0
  -15.3852   15.6915  -25.7387 C   0  0  0  0  0  0  0  0  0  0  0  0
  -14.0058   15.0615  -25.5809 C   0  0  0  0  0  0  0  0  0  0  0  0
  -15.8457   15.4868  -27.1429 C   0  0  0  0  0  0  0  0  0  0  0  0
  -15.2120   17.1653  -25.4234 C   0  0  0  0  0  0  0  0  0  0  0  0
 22 23  1  0  0  0
 23 24  1  0  0  0
 24 25  1  0  0  0
 25 26  2  0  0  0
 25 27  1  0  0  0
 27 28  1  0  0  0
 28 29  1  0  0  0
 29 30  1  0  0  0
 30 31  1  0  0  0
 31 32  1  0  0  0
 30 34  1  0  0  0
 34 35  1  0  0  0
 34 36  1  0  0  0
 34 37  1  0  0  0
 23  1  1  0  0  0
  1  2  2  0  0  0
  1  3  1  0  0  0
  3  4  1  0  0  0
  4  5  1  0  0  0
  5  6  1  0  0  0
  6  7  1  0  0  0
  7  8  1  0  0  0
  8  9  2  0  0  0
  8 10  1  0  0  0
 10 12  1  0  0  0
 12 19  1  0  0  0
 19 20  1  0  0  0
 19 21  1  0  0  0
 12 13  1  0  0  0
 13 14  2  0  0  0
 14 15  1  0  0  0
 15 16  2  0  0  0
 16 17  1  0  0  0
 17 18  2  0  0  0
 32 27  1  0  0  0
  7  3  1  0  0  0
 18 13  1  0  0  0
 24 33  1  0  0  0
 10 11  1  0  0  0
M  END
> <minimizedAffinity>
-7.11483

> <CNNscore>
0.5231315494

> <CNNaffinity>
6.9952955246

> <CNN_VS>
3.6594598293

> <CNNaffinity_variance>
0.0956775397

$$$$
[H]c1c([H])c([H])c([C@@]([H])(N([H])C(=O)[C@@]2([H])N(C(=O)[C@@]([H])(N([H])C(=O)N3C([H])([H])C([H])([H])C([H])(C(C([H])([H])[H])(C([H])([H])[H])C([H])([H])[H])C([H])([H])C3([H])[H])C([H])([H])[H])C([H])([H])C([H])([H])C2([H])[H])C([H])(C([H])([H])[H])C([H])([H])[H])c([H])c1[H]


 37 39  0  0  0  0  0  0  0  0999 V2000
  -19.0941   11.3632  -18.0696 C   0  0  0  0  0  0  0  0  0  0  0  0
  -19.8545   12.3493  -18.1777 O   0  0  0  0  0  0  0  0  0  0  0  0
  -19.4392   10.3521  -17.1422 N   0  0  0  0  0  0  0  0  0  0  0  0
  -18.5677    9.1638  -17.0136 C   0  0  0  0  0  0  0  0  0  0  0  0
  -19.6057    8.0785  -16.6356 C   0  0  0  0  0  0  0  0  0  0  0  0
  -20.3516    8.8757  -15.5989 C   0  0  0  0  0  0  0  0  0  0  0  0
  -20.5273   10.2079  -16.2439 C   0  0  0  0  0  0  0  0  0  0  0  0
  -20.6900   11.2939  -15.2550 C   0  0  0  0  0  0  0  0  0  0  0  0
  -19.7237   12.1179  -15.1695 O   0  0  0  0  0  0  0  0  0  0  0  0
  -21.7859   11.4880  -14.4300 N   0  0  0  0  0  0  0  0  0  0  0  0
  -22.6015   10.8387  -14.4850 H   0  0  0  0  0  0  0  0  0  0  0  0
  -21.9266   12.5599  -13.4638 C   0  0  0  0  0  0  0  0  0  0  0  0
  -21.6262   12.1339  -12.0783 C   0  0  0  0  0  0  0  0  0  0  0  0
  -22.3057   12.7533  -11.0526 C   0  0  0  0  0  0  0  0  0  0  0  0
  -22.1194   12.4570   -9.7171 C   0  0  0  0  0  0  0  0  0  0  0  0
  -21.1906   11.4762   -9.4037 C   0  0  0  0  0  0  0  0  0  0  0  0
  -20.5031   10.8498  -10.4446 C   0  0  0  0  0  0  0  0  0  0  0  0
  -20.7130   11.1681  -11.7473 C   0  0  0  0  0  0  0  0  0  0  0  0
  -23.3252   13.1303  -13.4635 C   0  0  0  0  0  0  0  0  0  0  0  0
  -23.4004   14.4396  -14.2221 C   0  0  0  0  0  0  0  0  0  0  0  0
  -24.3598   12.1852  -14.0221 C   0  0  0  0  0  0  0  0  0  0  0  0
  -16.6275   11.6145  -18.1304 C   0  0  0  0  0  0  0  0  0  0  0  0
  -17.8865   11.3293  -18.9236 C   0  0  0  0  0  0  0  0  0  0  0  0
  -17.9439   12.3474  -19.9618 N   0  0  0  0  0  0  0  0  0  0  0  0
  -17.4198   12.0624  -21.2332 C   0  0  0  0  0  0  0  0  0  0  0  0
  -16.9147   10.9013  -21.4188 O   0  0  0  0  0  0  0  0  0  0  0  0
  -17.3977   12.9465  -22.3436 N   0  0  0  0  0  0  0  0  0  0  0  0
  -17.9161   14.2724  -22.2238 C   0  0  0  0  0  0  0  0  0  0  0  0
  -17.2957   15.2918  -23.1281 C   0  0  0  0  0  0  0  0  0  0  0  0
  -16.7929   14.7710  -24.4320 C   0  0  0  0  0  0  0  0  0  0  0  0
  -15.9060   13.5708  -24.1114 C   0  0  0  0  0  0  0  0  0  0  0  0
  -16.8485   12.4910  -23.6277 C   0  0  0  0  0  0  0  0  0  0  0  0
  -18.3745   13.2895  -19.7666 H   0  0  0  0  0  0  0  0  0  0  0  0
  -16.0550   15.8049  -25.2315 C   0  0  0  0  0  0  0  0  0  0  0  0
  -16.3496   15.5856  -26.7112 C   0  0  0  0  0  0  0  0  0  0  0  0
  -16.5206   17.1697  -24.8492 C   0  0  0  0  0  0  0  0  0  0  0  0
  -14.5515   15.6712  -25.0787 C   0  0  0  0  0  0  0  0  0  0  0  0
 22 23  1  0  0  0
 23 24  1  0  0  0
 24 25  1  0  0  0
 25 26  2  0  0  0
 25 27  1  0  0  0
 27 28  1  0  0  0
 28 29  1  0  0  0
 29 30  1  0  0  0
 30 31  1  0  0  0
 31 32  1  0  0  0
 30 34  1  0  0  0
 34 35  1  0  0  0
 34 36  1  0  0  0
 34 37  1  0  0  0
 23  1  1  0  0  0
  1  2  2  0  0  0
  1  3  1  0  0  0
  3  4  1  0  0  0
  4  5  1  0  0  0
  5  6  1  0  0  0
  6  7  1  0  0  0
  7  8  1  0  0  0
  8  9  2  0  0  0
  8 10  1  0  0  0
 10 12  1  0  0  0
 12 19  1  0  0  0
 19 20  1  0  0  0
 19 21  1  0  0  0
 12 13  1  0  0  0
 13 14  2  0  0  0
 14 15  1  0  0  0
 15 16  2  0  0  0
 16 17  1  0  0  0
 17 18  2  0  0  0
 32 27  1  0  0  0
  7  3  1  0  0  0
 18 13  1  0  0  0
 24 33  1  0  0  0
 10 11  1  0  0  0
M  END
> <minimizedAffinity>
-7.25691

> <CNNscore>
0.4285542071

> <CNNaffinity>
6.7778978348

> <CNN_VS>
2.9046967030

> <CNNaffinity_variance>
0.4115386009

$$$$
[H]c1c([H])c([H])c([C@@]([H])(N([H])C(=O)[C@@]2([H])N(C(=O)[C@@]([H])(N([H])C(=O)N3C([H])([H])C([H])([H])C([H])(C(C([H])([H])[H])(C([H])([H])[H])C([H])([H])[H])C([H])([H])C3([H])[H])C([H])([H])[H])C([H])([H])C([H])([H])C2([H])[H])C([H])(C([H])([H])[H])C([H])([H])[H])c([H])c1[H]


 37 39  0  0  0  0  0  0  0  0999 V2000
  -18.7509   12.9866  -20.1532 C   0  0  0  0  0  0  0  0  0  0  0  0
  -18.5002   12.8721  -21.3724 O   0  0  0  0  0  0  0  0  0  0  0  0
  -19.6384   14.0107  -19.7470 N   0  0  0  0  0  0  0  0  0  0  0  0
  -19.9694   14.1507  -18.3121 C   0  0  0  0  0  0  0  0  0  0  0  0
  -21.4175   14.6931  -18.3969 C   0  0  0  0  0  0  0  0  0  0  0  0
  -21.1750   15.7288  -19.4623 C   0  0  0  0  0  0  0  0  0  0  0  0
  -20.3459   15.0061  -20.4684 C   0  0  0  0  0  0  0  0  0  0  0  0
  -19.5157   15.9239  -21.2759 C   0  0  0  0  0  0  0  0  0  0  0  0
  -20.1251   16.9124  -21.7971 O   0  0  0  0  0  0  0  0  0  0  0  0
  -18.1553   15.8023  -21.5075 N   0  0  0  0  0  0  0  0  0  0  0  0
  -17.6226   15.0112  -21.0830 H   0  0  0  0  0  0  0  0  0  0  0  0
  -17.3574   16.7133  -22.3050 C   0  0  0  0  0  0  0  0  0  0  0  0
  -16.3549   16.0211  -23.1458 C   0  0  0  0  0  0  0  0  0  0  0  0
  -15.8807   16.6816  -24.2578 C   0  0  0  0  0  0  0  0  0  0  0  0
  -14.9500   16.1515  -25.1288 C   0  0  0  0  0  0  0  0  0  0  0  0
  -14.4728   14.8782  -24.8567 C   0  0  0  0  0  0  0  0  0  0  0  0
  -14.9547   14.2106  -23.7296 C   0  0  0  0  0  0  0  0  0  0  0  0
  -15.8709   14.7644  -22.8952 C   0  0  0  0  0  0  0  0  0  0  0  0
  -16.6111   17.7029  -21.4417 C   0  0  0  0  0  0  0  0  0  0  0  0
  -17.4441   18.9332  -21.1451 C   0  0  0  0  0  0  0  0  0  0  0  0
  -16.1273   17.1180  -20.1380 C   0  0  0  0  0  0  0  0  0  0  0  0
  -17.5932   10.8033  -19.9438 C   0  0  0  0  0  0  0  0  0  0  0  0
  -18.0974   12.0379  -19.2248 C   0  0  0  0  0  0  0  0  0  0  0  0
  -19.0293   11.5593  -18.2148 N   0  0  0  0  0  0  0  0  0  0  0  0
  -18.6719   10.4611  -17.4156 C   0  0  0  0  0  0  0  0  0  0  0  0
  -17.5242    9.9315  -17.6160 O   0  0  0  0  0  0  0  0  0  0  0  0
  -19.4684    9.8772  -16.3959 N   0  0  0  0  0  0  0  0  0  0  0  0
  -20.7745   10.3848  -16.1177 C   0  0  0  0  0  0  0  0  0  0  0  0
  -21.7489    9.3908  -15.5658 C   0  0  0  0  0  0  0  0  0  0  0  0
  -21.1532    8.2943  -14.7491 C   0  0  0  0  0  0  0  0  0  0  0  0
  -20.0228    7.6937  -15.5805 C   0  0  0  0  0  0  0  0  0  0  0  0
  -18.9414    8.7509  -15.6139 C   0  0  0  0  0  0  0  0  0  0  0  0
  -19.9630   12.0295  -18.0798 H   0  0  0  0  0  0  0  0  0  0  0  0
  -22.1553    7.2525  -14.3454 C   0  0  0  0  0  0  0  0  0  0  0  0
  -21.6245    6.5047  -13.1274 C   0  0  0  0  0  0  0  0  0  0  0  0
  -23.4463    7.9048  -13.9798 C   0  0  0  0  0  0  0  0  0  0  0  0
  -22.3515    6.2070  -15.4271 C   0  0  0  0  0  0  0  0  0  0  0  0
 22 23  1  0  0  0
 23 24  1  0  0  0
 24 25  1  0  0  0
 25 26  2  0  0  0
 25 27  1  0  0  0
 27 28  1  0  0  0
 28 29  1  0  0  0
 29 30  1  0  0  0
 30 31  1  0  0  0
 31 32  1  0  0  0
 30 34  1  0  0  0
 34 35  1  0  0  0
 34 36  1  0  0  0
 34 37  1  0  0  0
 23  1  1  0  0  0
  1  2  2  0  0  0
  1  3  1  0  0  0
  3  4  1  0  0  0
  4  5  1  0  0  0
  5  6  1  0  0  0
  6  7  1  0  0  0
  7  8  1  0  0  0
  8  9  2  0  0  0
  8 10  1  0  0  0
 10 12  1  0  0  0
 12 19  1  0  0  0
 19 20  1  0  0  0
 19 21  1  0  0  0
 12 13  1  0  0  0
 13 14  2  0  0  0
 14 15  1  0  0  0
 15 16  2  0  0  0
 16 17  1  0  0  0
 17 18  2  0  0  0
 32 27  1  0  0  0
  7  3  1  0  0  0
 18 13  1  0  0  0
 24 33  1  0  0  0
 10 11  1  0  0  0
M  END
> <minimizedAffinity>
-7.81831

> <CNNscore>
0.3373911679

> <CNNaffinity>
6.8641786575

> <CNN_VS>
2.3159132004

> <CNNaffinity_variance>
0.1355662346

$$$$
[H]c1c([H])c([H])c([C@@]([H])(N([H])C(=O)[C@@]2([H])N(C(=O)[C@@]([H])(N([H])C(=O)N3C([H])([H])C([H])([H])C([H])(C(C([H])([H])[H])(C([H])([H])[H])C([H])([H])[H])C([H])([H])C3([H])[H])C([H])([H])[H])C([H])([H])C([H])([H])C2([H])[H])C([H])(C([H])([H])[H])C([H])([H])[H])c([H])c1[H]


 37 39  0  0  0  0  0  0  0  0999 V2000
  -20.2906   13.3419  -18.3035 C   0  0  0  0  0  0  0  0  0  0  0  0
  -20.8991   14.2501  -18.9093 O   0  0  0  0  0  0  0  0  0  0  0  0
  -20.7268   12.9983  -17.0022 N   0  0  0  0  0  0  0  0  0  0  0  0
  -20.0378   11.9101  -16.2747 C   0  0  0  0  0  0  0  0  0  0  0  0
  -21.2024   11.3409  -15.4273 C   0  0  0  0  0  0  0  0  0  0  0  0
  -21.7552   12.6567  -14.9481 C   0  0  0  0  0  0  0  0  0  0  0  0
  -21.7674   13.4983  -16.1783 C   0  0  0  0  0  0  0  0  0  0  0  0
  -21.7042   14.9424  -15.8718 C   0  0  0  0  0  0  0  0  0  0  0  0
  -22.0473   15.2765  -14.6924 O   0  0  0  0  0  0  0  0  0  0  0  0
  -21.3087   15.9443  -16.7430 N   0  0  0  0  0  0  0  0  0  0  0  0
  -21.0074   15.7030  -17.7130 H   0  0  0  0  0  0  0  0  0  0  0  0
  -21.2547   17.3577  -16.4239 C   0  0  0  0  0  0  0  0  0  0  0  0
  -22.0563   18.1911  -17.3481 C   0  0  0  0  0  0  0  0  0  0  0  0
  -22.2445   17.7298  -18.6324 C   0  0  0  0  0  0  0  0  0  0  0  0
  -22.9648   18.4076  -19.5955 C   0  0  0  0  0  0  0  0  0  0  0  0
  -23.5267   19.6233  -19.2356 C   0  0  0  0  0  0  0  0  0  0  0  0
  -23.3348   20.0890  -17.9338 C   0  0  0  0  0  0  0  0  0  0  0  0
  -22.6194   19.3940  -17.0131 C   0  0  0  0  0  0  0  0  0  0  0  0
  -19.8393   17.8838  -16.4600 C   0  0  0  0  0  0  0  0  0  0  0  0
  -19.3492   18.2790  -15.0820 C   0  0  0  0  0  0  0  0  0  0  0  0
  -18.8538   16.9163  -17.0671 C   0  0  0  0  0  0  0  0  0  0  0  0
  -17.8718   12.8035  -18.2010 C   0  0  0  0  0  0  0  0  0  0  0  0
  -19.1561   12.6930  -18.9971 C   0  0  0  0  0  0  0  0  0  0  0  0
  -18.8874   13.3270  -20.2790 N   0  0  0  0  0  0  0  0  0  0  0  0
  -17.8999   12.7867  -21.1190 C   0  0  0  0  0  0  0  0  0  0  0  0
  -17.2800   11.7446  -20.7099 O   0  0  0  0  0  0  0  0  0  0  0  0
  -17.5206   13.2895  -22.3912 N   0  0  0  0  0  0  0  0  0  0  0  0
  -18.1397   14.4637  -22.9195 C   0  0  0  0  0  0  0  0  0  0  0  0
  -17.2970   15.2706  -23.8579 C   0  0  0  0  0  0  0  0  0  0  0  0
  -16.2998   14.4962  -24.6515 C   0  0  0  0  0  0  0  0  0  0  0  0
  -15.5176   13.6416  -23.6576 C   0  0  0  0  0  0  0  0  0  0  0  0
  -16.4929   12.5910  -23.1746 C   0  0  0  0  0  0  0  0  0  0  0  0
  -19.4265   14.1817  -20.5789 H   0  0  0  0  0  0  0  0  0  0  0  0
  -15.3897   15.3705  -25.4639 C   0  0  0  0  0  0  0  0  0  0  0  0
  -15.4475   16.7899  -24.9104 C   0  0  0  0  0  0  0  0  0  0  0  0
  -13.9861   14.8752  -25.3621 C   0  0  0  0  0  0  0  0  0  0  0  0
  -15.8386   15.4654  -26.9099 C   0  0  0  0  0  0  0  0  0  0  0  0
 22 23  1  0  0  0
 23 24  1  0  0  0
 24 25  1  0  0  0
 25 26  2  0  0  0
 25 27  1  0  0  0
 27 28  1  0  0  0
 28 29  1  0  0  0
 29 30  1  0  0  0
 30 31  1  0  0  0
 31 32  1  0  0  0
 30 34  1  0  0  0
 34 35  1  0  0  0
 34 36  1  0  0  0
 34 37  1  0  0  0
 23  1  1  0  0  0
  1  2  2  0  0  0
  1  3  1  0  0  0
  3  4  1  0  0  0
  4  5  1  0  0  0
  5  6  1  0  0  0
  6  7  1  0  0  0
  7  8  1  0  0  0
  8  9  2  0  0  0
  8 10  1  0  0  0
 10 12  1  0  0  0
 12 19  1  0  0  0
 19 20  1  0  0  0
 19 21  1  0  0  0
 12 13  1  0  0  0
 13 14  2  0  0  0
 14 15  1  0  0  0
 15 16  2  0  0  0
 16 17  1  0  0  0
 17 18  2  0  0  0
 32 27  1  0  0  0
  7  3  1  0  0  0
 18 13  1  0  0  0
 24 33  1  0  0  0
 10 11  1  0  0  0
M  END
> <minimizedAffinity>
-7.40967

> <CNNscore>
0.2576231360

> <CNNaffinity>
6.7894301414

> <CNN_VS>
1.7491142750

> <CNNaffinity_variance>
0.1457078457

$$$$
[H]c1c([H])c([H])c([C@@]([H])(N([H])C(=O)[C@@]2([H])N(C(=O)[C@@]([H])(N([H])C(=O)N3C([H])([H])C([H])([H])C([H])(C(C([H])([H])[H])(C([H])([H])[H])C([H])([H])[H])C([H])([H])C3([H])[H])C([H])([H])[H])C([H])([H])C([H])([H])C2([H])[H])C([H])(C([H])([H])[H])C([H])([H])[H])c([H])c1[H]


 37 39  0  0  0  0  0  0  0  0999 V2000
  -17.5193   13.6403  -20.4192 C   0  0  0  0  0  0  0  0  0  0  0  0
  -17.8407   14.4052  -19.4843 O   0  0  0  0  0  0  0  0  0  0  0  0
  -17.0711   14.2176  -21.6306 N   0  0  0  0  0  0  0  0  0  0  0  0
  -16.6622   13.3326  -22.7431 C   0  0  0  0  0  0  0  0  0  0  0  0
  -15.5679   14.1962  -23.4176 C   0  0  0  0  0  0  0  0  0  0  0  0
  -16.3206   15.5001  -23.4155 C   0  0  0  0  0  0  0  0  0  0  0  0
  -16.9034   15.5637  -22.0450 C   0  0  0  0  0  0  0  0  0  0  0  0
  -18.1154   16.4072  -21.9885 C   0  0  0  0  0  0  0  0  0  0  0  0
  -18.3929   17.0543  -23.0489 O   0  0  0  0  0  0  0  0  0  0  0  0
  -18.9600   16.5489  -20.8996 N   0  0  0  0  0  0  0  0  0  0  0  0
  -18.7691   16.0212  -20.0193 H   0  0  0  0  0  0  0  0  0  0  0  0
  -20.1451   17.3836  -20.8627 C   0  0  0  0  0  0  0  0  0  0  0  0
  -19.9093   18.6961  -20.2200 C   0  0  0  0  0  0  0  0  0  0  0  0
  -19.6395   18.7124  -18.8693 C   0  0  0  0  0  0  0  0  0  0  0  0
  -19.4059   19.8645  -18.1453 C   0  0  0  0  0  0  0  0  0  0  0  0
  -19.4485   21.0694  -18.8304 C   0  0  0  0  0  0  0  0  0  0  0  0
  -19.7221   21.0506  -20.1991 C   0  0  0  0  0  0  0  0  0  0  0  0
  -19.9470   19.8969  -20.8779 C   0  0  0  0  0  0  0  0  0  0  0  0
  -21.2747   16.7154  -20.1151 C   0  0  0  0  0  0  0  0  0  0  0  0
  -22.6247   17.0518  -20.7148 C   0  0  0  0  0  0  0  0  0  0  0  0
  -21.1385   15.2151  -20.0360 C   0  0  0  0  0  0  0  0  0  0  0  0
  -18.2518   11.4701  -21.3704 C   0  0  0  0  0  0  0  0  0  0  0  0
  -17.6328   12.1837  -20.1859 C   0  0  0  0  0  0  0  0  0  0  0  0
  -18.4959   11.8955  -19.0502 N   0  0  0  0  0  0  0  0  0  0  0  0
  -18.3109   10.7029  -18.3320 C   0  0  0  0  0  0  0  0  0  0  0  0
  -17.3744    9.9198  -18.7158 O   0  0  0  0  0  0  0  0  0  0  0  0
  -19.0693   10.2792  -17.2093 N   0  0  0  0  0  0  0  0  0  0  0  0
  -20.1515   11.0757  -16.7243 C   0  0  0  0  0  0  0  0  0  0  0  0
  -21.2514   10.3230  -16.0420 C   0  0  0  0  0  0  0  0  0  0  0  0
  -20.8353    9.0728  -15.3434 C   0  0  0  0  0  0  0  0  0  0  0  0
  -20.0258    8.2581  -16.3488 C   0  0  0  0  0  0  0  0  0  0  0  0
  -18.7315    9.0187  -16.5348 C   0  0  0  0  0  0  0  0  0  0  0  0
  -19.2521   12.5723  -18.7652 H   0  0  0  0  0  0  0  0  0  0  0  0
  -21.9955    8.2883  -14.8037 C   0  0  0  0  0  0  0  0  0  0  0  0
  -21.8819    6.8465  -15.2863 C   0  0  0  0  0  0  0  0  0  0  0  0
  -21.9637    8.2964  -13.3122 C   0  0  0  0  0  0  0  0  0  0  0  0
  -23.3213    8.8040  -15.3308 C   0  0  0  0  0  0  0  0  0  0  0  0
 22 23  1  0  0  0
 23 24  1  0  0  0
 24 25  1  0  0  0
 25 26  2  0  0  0
 25 27  1  0  0  0
 27 28  1  0  0  0
 28 29  1  0  0  0
 29 30  1  0  0  0
 30 31  1  0  0  0
 31 32  1  0  0  0
 30 34  1  0  0  0
 34 35  1  0  0  0
 34 36  1  0  0  0
 34 37  1  0  0  0
 23  1  1  0  0  0
  1  2  2  0  0  0
  1  3  1  0  0  0
  3  4  1  0  0  0
  4  5  1  0  0  0
  5  6  1  0  0  0
  6  7  1  0  0  0
  7  8  1  0  0  0
  8  9  2  0  0  0
  8 10  1  0  0  0
 10 12  1  0  0  0
 12 19  1  0  0  0
 19 20  1  0  0  0
 19 21  1  0  0  0
 12 13  1  0  0  0
 13 14  2  0  0  0
 14 15  1  0  0  0
 15 16  2  0  0  0
 16 17  1  0  0  0
 17 18  2  0  0  0
 32 27  1  0  0  0
  7  3  1  0  0  0
 18 13  1  0  0  0
 24 33  1  0  0  0
 10 11  1  0  0  0
M  END
> <minimizedAffinity>
-7.33825

> <CNNscore>
0.1584877074

> <CNNaffinity>
6.5093383789

> <CNN_VS>
1.0316500664

> <CNNaffinity_variance>
0.1198294610

$$$$
[H]c1c([H])c([H])c([C@@]([H])(N([H])C(=O)[C@@]2([H])N(C(=O)[C@@]([H])(N([H])C(=O)N3C([H])([H])C([H])([H])C([H])(C(C([H])([H])[H])(C([H])([H])[H])C([H])([H])[H])C([H])([H])C3([H])[H])C([H])([H])[H])C([H])([H])C([H])([H])C2([H])[H])C([H])(C([H])([H])[H])C([H])([H])[H])c([H])c1[H]


 37 39  0  0  0  0  0  0  0  0999 V2000
  -18.9468   15.5098  -19.9004 C   0  0  0  0  0  0  0  0  0  0  0  0
  -19.0130   14.4989  -20.6325 O   0  0  0  0  0  0  0  0  0  0  0  0
  -18.6137   16.7476  -20.4990 N   0  0  0  0  0  0  0  0  0  0  0  0
  -18.5530   17.9625  -19.6573 C   0  0  0  0  0  0  0  0  0  0  0  0
  -18.9868   19.0461  -20.6750 C   0  0  0  0  0  0  0  0  0  0  0  0
  -18.1232   18.5925  -21.8218 C   0  0  0  0  0  0  0  0  0  0  0  0
  -18.3108   17.1138  -21.8354 C   0  0  0  0  0  0  0  0  0  0  0  0
  -17.1670   16.4081  -22.4496 C   0  0  0  0  0  0  0  0  0  0  0  0
  -16.0647   17.0443  -22.4668 O   0  0  0  0  0  0  0  0  0  0  0  0
  -17.1925   15.1354  -22.9963 N   0  0  0  0  0  0  0  0  0  0  0  0
  -18.0769   14.5808  -22.9855 H   0  0  0  0  0  0  0  0  0  0  0  0
  -16.0588   14.4595  -23.5966 C   0  0  0  0  0  0  0  0  0  0  0  0
  -15.8769   14.7927  -25.0274 C   0  0  0  0  0  0  0  0  0  0  0  0
  -16.7629   14.2508  -25.9324 C   0  0  0  0  0  0  0  0  0  0  0  0
  -16.7055   14.4744  -27.2935 C   0  0  0  0  0  0  0  0  0  0  0  0
  -15.6914   15.2949  -27.7640 C   0  0  0  0  0  0  0  0  0  0  0  0
  -14.7947   15.8429  -26.8453 C   0  0  0  0  0  0  0  0  0  0  0  0
  -14.8826   15.6001  -25.5128 C   0  0  0  0  0  0  0  0  0  0  0  0
  -16.1895   12.9579  -23.4997 C   0  0  0  0  0  0  0  0  0  0  0  0
  -14.8598   12.2938  -23.2063 C   0  0  0  0  0  0  0  0  0  0  0  0
  -17.1952   12.5074  -22.4694 C   0  0  0  0  0  0  0  0  0  0  0  0
  -18.0897   15.8549  -17.5988 C   0  0  0  0  0  0  0  0  0  0  0  0
  -19.2235   15.3332  -18.4577 C   0  0  0  0  0  0  0  0  0  0  0  0
  -19.3694   13.9263  -18.1154 N   0  0  0  0  0  0  0  0  0  0  0  0
  -20.2641   13.5561  -17.0980 C   0  0  0  0  0  0  0  0  0  0  0  0
  -20.9199   14.4893  -16.5177 O   0  0  0  0  0  0  0  0  0  0  0  0
  -20.5145   12.2332  -16.6482 N   0  0  0  0  0  0  0  0  0  0  0  0
  -19.8107   11.1289  -17.2194 C   0  0  0  0  0  0  0  0  0  0  0  0
  -19.6206    9.9489  -16.3175 C   0  0  0  0  0  0  0  0  0  0  0  0
  -20.6885    9.7433  -15.2969 C   0  0  0  0  0  0  0  0  0  0  0  0
  -20.8716   11.0782  -14.5797 C   0  0  0  0  0  0  0  0  0  0  0  0
  -21.5123   11.9972  -15.5963 C   0  0  0  0  0  0  0  0  0  0  0  0
  -18.8129   13.1895  -18.6237 H   0  0  0  0  0  0  0  0  0  0  0  0
  -20.3734    8.6372  -14.3326 C   0  0  0  0  0  0  0  0  0  0  0  0
  -21.5747    8.4240  -13.4184 C   0  0  0  0  0  0  0  0  0  0  0  0
  -20.1112    7.3724  -15.0792 C   0  0  0  0  0  0  0  0  0  0  0  0
  -19.2120    8.9930  -13.4235 C   0  0  0  0  0  0  0  0  0  0  0  0
 22 23  1  0  0  0
 23 24  1  0  0  0
 24 25  1  0  0  0
 25 26  2  0  0  0
 25 27  1  0  0  0
 27 28  1  0  0  0
 28 29  1  0  0  0
 29 30  1  0  0  0
 30 31  1  0  0  0
 31 32  1  0  0  0
 30 34  1  0  0  0
 34 35  1  0  0  0
 34 36  1  0  0  0
 34 37  1  0  0  0
 23  1  1  0  0  0
  1  2  2  0  0  0
  1  3  1  0  0  0
  3  4  1  0  0  0
  4  5  1  0  0  0
  5  6  1  0  0  0
  6  7  1  0  0  0
  7  8  1  0  0  0
  8  9  2  0  0  0
  8 10  1  0  0  0
 10 12  1  0  0  0
 12 19  1  0  0  0
 19 20  1  0  0  0
 19 21  1  0  0  0
 12 13  1  0  0  0
 13 14  2  0  0  0
 14 15  1  0  0  0
 15 16  2  0  0  0
 16 17  1  0  0  0
 17 18  2  0  0  0
 32 27  1  0  0  0
  7  3  1  0  0  0
 18 13  1  0  0  0
 24 33  1  0  0  0
 10 11  1  0  0  0
M  END
> <minimizedAffinity>
-8.39641

> <CNNscore>
0.1505247205

> <CNNaffinity>
6.6966714859

> <CNN_VS>
1.0080145597

> <CNNaffinity_variance>
0.0940436944

$$$$
[H]c1c([H])c([H])c([C@@]([H])(N([H])C(=O)[C@@]2([H])N(C(=O)[C@@]([H])(N([H])C(=O)N3C([H])([H])C([H])([H])C([H])(C(C([H])([H])[H])(C([H])([H])[H])C([H])([H])[H])C([H])([H])C3([H])[H])C([H])([H])[H])C([H])([H])C([H])([H])C2([H])[H])C([H])(C([H])([H])[H])C([H])([H])[H])c([H])c1[H]


 37 39  0  0  0  0  0  0  0  0999 V2000
  -21.2213   16.6026  -19.3258 C   0  0  0  0  0  0  0  0  0  0  0  0
  -20.9401   16.3052  -20.5068 O   0  0  0  0  0  0  0  0  0  0  0  0
  -22.4330   17.2906  -19.0806 N   0  0  0  0  0  0  0  0  0  0  0  0
  -22.7993   17.6322  -17.6887 C   0  0  0  0  0  0  0  0  0  0  0  0
  -24.3444   17.5642  -17.7672 C   0  0  0  0  0  0  0  0  0  0  0  0
  -24.5079   18.3336  -19.0509 C   0  0  0  0  0  0  0  0  0  0  0  0
  -23.4618   17.7537  -19.9403 C   0  0  0  0  0  0  0  0  0  0  0  0
  -23.0380   18.6952  -20.9974 C   0  0  0  0  0  0  0  0  0  0  0  0
  -23.2239   19.9299  -20.7500 O   0  0  0  0  0  0  0  0  0  0  0  0
  -22.4645   18.3538  -22.2114 N   0  0  0  0  0  0  0  0  0  0  0  0
  -22.2851   17.3510  -22.4397 H   0  0  0  0  0  0  0  0  0  0  0  0
  -22.0563   19.2931  -23.2377 C   0  0  0  0  0  0  0  0  0  0  0  0
  -22.5893   18.9555  -24.5769 C   0  0  0  0  0  0  0  0  0  0  0  0
  -22.5983   19.9455  -25.5347 C   0  0  0  0  0  0  0  0  0  0  0  0
  -23.0709   19.7685  -26.8197 C   0  0  0  0  0  0  0  0  0  0  0  0
  -23.5627   18.5154  -27.1526 C   0  0  0  0  0  0  0  0  0  0  0  0
  -23.5528   17.5137  -26.1806 C   0  0  0  0  0  0  0  0  0  0  0  0
  -23.0798   17.7252  -24.9261 C   0  0  0  0  0  0  0  0  0  0  0  0
  -20.5526   19.3669  -23.3600 C   0  0  0  0  0  0  0  0  0  0  0  0
  -19.9424   20.2487  -22.2898 C   0  0  0  0  0  0  0  0  0  0  0  0
  -19.8795   18.0174  -23.3195 C   0  0  0  0  0  0  0  0  0  0  0  0
  -18.8711   16.7459  -18.5468 C   0  0  0  0  0  0  0  0  0  0  0  0
  -20.2613   16.2104  -18.2707 C   0  0  0  0  0  0  0  0  0  0  0  0
  -20.1238   14.7638  -18.1918 N   0  0  0  0  0  0  0  0  0  0  0  0
  -20.7564   14.0696  -17.1476 C   0  0  0  0  0  0  0  0  0  0  0  0
  -21.4368   14.7548  -16.3078 O   0  0  0  0  0  0  0  0  0  0  0  0
  -20.7146   12.6670  -16.9329 N   0  0  0  0  0  0  0  0  0  0  0  0
  -19.9594   11.8235  -17.8042 C   0  0  0  0  0  0  0  0  0  0  0  0
  -19.4320   10.5654  -17.1868 C   0  0  0  0  0  0  0  0  0  0  0  0
  -20.2581    9.9979  -16.0824 C   0  0  0  0  0  0  0  0  0  0  0  0
  -20.5174   11.1369  -15.0999 C   0  0  0  0  0  0  0  0  0  0  0  0
  -21.4623   12.0779  -15.8141 C   0  0  0  0  0  0  0  0  0  0  0  0
  -19.5577   14.2383  -18.9090 H   0  0  0  0  0  0  0  0  0  0  0  0
  -19.6097    8.8241  -15.4082 C   0  0  0  0  0  0  0  0  0  0  0  0
  -18.3508    8.4464  -16.1807 C   0  0  0  0  0  0  0  0  0  0  0  0
  -19.2229    9.1894  -14.0144 C   0  0  0  0  0  0  0  0  0  0  0  0
  -20.5002    7.5960  -15.4306 C   0  0  0  0  0  0  0  0  0  0  0  0
 22 23  1  0  0  0
 23 24  1  0  0  0
 24 25  1  0  0  0
 25 26  2  0  0  0
 25 27  1  0  0  0
 27 28  1  0  0  0
 28 29  1  0  0  0
 29 30  1  0  0  0
 30 31  1  0  0  0
 31 32  1  0  0  0
 30 34  1  0  0  0
 34 35  1  0  0  0
 34 36  1  0  0  0
 34 37  1  0  0  0
 23  1  1  0  0  0
  1  2  2  0  0  0
  1  3  1  0  0  0
  3  4  1  0  0  0
  4  5  1  0  0  0
  5  6  1  0  0  0
  6  7  1  0  0  0
  7  8  1  0  0  0
  8  9  2  0  0  0
  8 10  1  0  0  0
 10 12  1  0  0  0
 12 19  1  0  0  0
 19 20  1  0  0  0
 19 21  1  0  0  0
 12 13  1  0  0  0
 13 14  2  0  0  0
 14 15  1  0  0  0
 15 16  2  0  0  0
 16 17  1  0  0  0
 17 18  2  0  0  0
 32 27  1  0  0  0
  7  3  1  0  0  0
 18 13  1  0  0  0
 24 33  1  0  0  0
 10 11  1  0  0  0
M  END
> <minimizedAffinity>
-7.23355

> <CNNscore>
0.1392393559

> <CNNaffinity>
5.7016382217

> <CNN_VS>
0.7938924432

> <CNNaffinity_variance>
0.0467114821

$$$$
[H]c1c([H])c([H])c([C@@]([H])(N([H])C(=O)[C@@]2([H])N(C(=O)[C@@]([H])(N([H])C(=O)N3C([H])([H])C([H])([H])C([H])(C(C([H])([H])[H])(C([H])([H])[H])C([H])([H])[H])C([H])([H])C3([H])[H])C([H])([H])[H])C([H])([H])C([H])([H])C2([H])[H])C([H])(C([H])([H])[H])C([H])([H])[H])c([H])c1[H]


 37 39  0  0  0  0  0  0  0  0999 V2000
  -19.8242   12.5812  -17.5278 C   0  0  0  0  0  0  0  0  0  0  0  0
  -20.9335   13.1140  -17.7465 O   0  0  0  0  0  0  0  0  0  0  0  0
  -19.8059   11.2645  -17.0105 N   0  0  0  0  0  0  0  0  0  0  0  0
  -18.5051   10.6039  -16.7662 C   0  0  0  0  0  0  0  0  0  0  0  0
  -18.8742    9.1233  -17.0304 C   0  0  0  0  0  0  0  0  0  0  0  0
  -20.1588    9.1002  -16.2455 C   0  0  0  0  0  0  0  0  0  0  0  0
  -20.8400   10.3611  -16.6553 C   0  0  0  0  0  0  0  0  0  0  0  0
  -21.7898   10.8448  -15.6319 C   0  0  0  0  0  0  0  0  0  0  0  0
  -22.8735   10.1860  -15.5229 O   0  0  0  0  0  0  0  0  0  0  0  0
  -21.6028   11.9332  -14.7955 N   0  0  0  0  0  0  0  0  0  0  0  0
  -20.7190   12.4863  -14.8491 H   0  0  0  0  0  0  0  0  0  0  0  0
  -22.5482   12.3938  -13.7973 C   0  0  0  0  0  0  0  0  0  0  0  0
  -22.7165   13.8645  -13.7939 C   0  0  0  0  0  0  0  0  0  0  0  0
  -22.1347   14.5815  -14.8162 C   0  0  0  0  0  0  0  0  0  0  0  0
  -22.2089   15.9552  -14.9317 C   0  0  0  0  0  0  0  0  0  0  0  0
  -22.9137   16.6414  -13.9542 C   0  0  0  0  0  0  0  0  0  0  0  0
  -23.5024   15.9130  -12.9191 C   0  0  0  0  0  0  0  0  0  0  0  0
  -23.4078   14.5614  -12.8386 C   0  0  0  0  0  0  0  0  0  0  0  0
  -22.1300   11.9878  -12.4038 C   0  0  0  0  0  0  0  0  0  0  0  0
  -23.0939   10.9909  -11.7936 C   0  0  0  0  0  0  0  0  0  0  0  0
  -20.7349   11.4178  -12.3372 C   0  0  0  0  0  0  0  0  0  0  0  0
  -18.5412   14.6359  -16.9956 C   0  0  0  0  0  0  0  0  0  0  0  0
  -18.6104   13.3720  -17.8283 C   0  0  0  0  0  0  0  0  0  0  0  0
  -18.5927   13.8070  -19.2169 N   0  0  0  0  0  0  0  0  0  0  0  0
  -17.8505   13.0737  -20.1570 C   0  0  0  0  0  0  0  0  0  0  0  0
  -17.2213   12.0407  -19.7391 O   0  0  0  0  0  0  0  0  0  0  0  0
  -17.7312   13.3703  -21.5401 N   0  0  0  0  0  0  0  0  0  0  0  0
  -18.3778   14.5181  -22.0928 C   0  0  0  0  0  0  0  0  0  0  0  0
  -17.7148   15.1155  -23.2951 C   0  0  0  0  0  0  0  0  0  0  0  0
  -16.9674   14.1561  -24.1583 C   0  0  0  0  0  0  0  0  0  0  0  0
  -16.0395   13.3691  -23.2367 C   0  0  0  0  0  0  0  0  0  0  0  0
  -16.9472   12.4844  -22.4109 C   0  0  0  0  0  0  0  0  0  0  0  0
  -19.1308   14.6617  -19.5187 H   0  0  0  0  0  0  0  0  0  0  0  0
  -16.2069   14.8302  -25.2628 C   0  0  0  0  0  0  0  0  0  0  0  0
  -16.4841   16.3284  -25.2082 C   0  0  0  0  0  0  0  0  0  0  0  0
  -14.7430   14.6085  -25.0797 C   0  0  0  0  0  0  0  0  0  0  0  0
  -16.6687   14.3676  -26.6319 C   0  0  0  0  0  0  0  0  0  0  0  0
 22 23  1  0  0  0
 23 24  1  0  0  0
 24 25  1  0  0  0
 25 26  2  0  0  0
 25 27  1  0  0  0
 27 28  1  0  0  0
 28 29  1  0  0  0
 29 30  1  0  0  0
 30 31  1  0  0  0
 31 32  1  0  0  0
 30 34  1  0  0  0
 34 35  1  0  0  0
 34 36  1  0  0  0
 34 37  1  0  0  0
 23  1  1  0  0  0
  1  2  2  0  0  0
  1  3  1  0  0  0
  3  4  1  0  0  0
  4  5  1  0  0  0
  5  6  1  0  0  0
  6  7  1  0  0  0
  7  8  1  0  0  0
  8  9  2  0  0  0
  8 10  1  0  0  0
 10 12  1  0  0  0
 12 19  1  0  0  0
 19 20  1  0  0  0
 19 21  1  0  0  0
 12 13  1  0  0  0
 13 14  2  0  0  0
 14 15  1  0  0  0
 15 16  2  0  0  0
 16 17  1  0  0  0
 17 18  2  0  0  0
 32 27  1  0  0  0
  7  3  1  0  0  0
 18 13  1  0  0  0
 24 33  1  0  0  0
 10 11  1  0  0  0
M  END
> <minimizedAffinity>
-7.27920

> <CNNscore>
0.1333306134

> <CNNaffinity>
6.3777666092

> <CNN_VS>
0.8503515124

> <CNNaffinity_variance>
0.3263281286

$$$$
[H]c1c([H])c([H])c([C@@]([H])(N([H])C(=O)[C@@]2([H])N(C(=O)[C@@]([H])(N([H])C(=O)N3C([H])([H])C([H])([H])C([H])(C(C([H])([H])[H])(C([H])([H])[H])C([H])([H])[H])C([H])([H])C3([H])[H])C([H])([H])[H])C([H])([H])C([H])([H])C2([H])[H])C([H])(C([H])([H])[H])C([H])([H])[H])c([H])c1[H]


 37 39  0  0  0  0  0  0  0  0999 V2000
  -19.5963   15.5604  -19.8813 C   0  0  0  0  0  0  0  0  0  0  0  0
  -20.2351   14.6344  -20.4261 O   0  0  0  0  0  0  0  0  0  0  0  0
  -19.0003   16.5391  -20.7111 N   0  0  0  0  0  0  0  0  0  0  0  0
  -18.2596   17.6581  -20.0886 C   0  0  0  0  0  0  0  0  0  0  0  0
  -18.5154   18.7871  -21.1174 C   0  0  0  0  0  0  0  0  0  0  0  0
  -18.2353   17.9847  -22.3601 C   0  0  0  0  0  0  0  0  0  0  0  0
  -18.9605   16.7049  -22.1192 C   0  0  0  0  0  0  0  0  0  0  0  0
  -18.3813   15.5789  -22.8808 C   0  0  0  0  0  0  0  0  0  0  0  0
  -18.7624   15.4708  -24.0905 O   0  0  0  0  0  0  0  0  0  0  0  0
  -17.4739   14.6496  -22.3987 N   0  0  0  0  0  0  0  0  0  0  0  0
  -17.1299   14.7181  -21.4155 H   0  0  0  0  0  0  0  0  0  0  0  0
  -16.9174   13.5495  -23.1619 C   0  0  0  0  0  0  0  0  0  0  0  0
  -16.5833   12.3748  -22.3254 C   0  0  0  0  0  0  0  0  0  0  0  0
  -17.4435   12.0490  -21.2999 C   0  0  0  0  0  0  0  0  0  0  0  0
  -17.2501   10.9843  -20.4425 C   0  0  0  0  0  0  0  0  0  0  0  0
  -16.1193   10.2053  -20.6361 C   0  0  0  0  0  0  0  0  0  0  0  0
  -15.2490   10.5372  -21.6757 C   0  0  0  0  0  0  0  0  0  0  0  0
  -15.4723   11.5927  -22.4993 C   0  0  0  0  0  0  0  0  0  0  0  0
  -15.6564   13.9557  -23.8874 C   0  0  0  0  0  0  0  0  0  0  0  0
  -15.8700   14.0417  -25.3848 C   0  0  0  0  0  0  0  0  0  0  0  0
  -15.0791   15.2627  -23.4032 C   0  0  0  0  0  0  0  0  0  0  0  0
  -18.1484   16.0072  -17.9179 C   0  0  0  0  0  0  0  0  0  0  0  0
  -19.5124   15.5617  -18.4042 C   0  0  0  0  0  0  0  0  0  0  0  0
  -19.7135   14.2264  -17.8617 N   0  0  0  0  0  0  0  0  0  0  0  0
  -20.5788   14.0519  -16.7693 C   0  0  0  0  0  0  0  0  0  0  0  0
  -21.1597   15.0921  -16.3020 O   0  0  0  0  0  0  0  0  0  0  0  0
  -20.8750   12.8204  -16.1284 N   0  0  0  0  0  0  0  0  0  0  0  0
  -20.2545   11.6097  -16.5644 C   0  0  0  0  0  0  0  0  0  0  0  0
  -20.0837   10.5574  -15.5131 C   0  0  0  0  0  0  0  0  0  0  0  0
  -21.1132   10.5558  -14.4341 C   0  0  0  0  0  0  0  0  0  0  0  0
  -21.1960   11.9855  -13.9058 C   0  0  0  0  0  0  0  0  0  0  0  0
  -21.8348   12.7892  -15.0168 C   0  0  0  0  0  0  0  0  0  0  0  0
  -19.2185   13.3961  -18.2818 H   0  0  0  0  0  0  0  0  0  0  0  0
  -20.8110    9.5781  -13.3361 C   0  0  0  0  0  0  0  0  0  0  0  0
  -20.8362   10.3139  -12.0011 C   0  0  0  0  0  0  0  0  0  0  0  0
  -21.8491    8.5069  -13.3105 C   0  0  0  0  0  0  0  0  0  0  0  0
  -19.4172    8.9936  -13.4670 C   0  0  0  0  0  0  0  0  0  0  0  0
 22 23  1  0  0  0
 23 24  1  0  0  0
 24 25  1  0  0  0
 25 26  2  0  0  0
 25 27  1  0  0  0
 27 28  1  0  0  0
 28 29  1  0  0  0
 29 30  1  0  0  0
 30 31  1  0  0  0
 31 32  1  0  0  0
 30 34  1  0  0  0
 34 35  1  0  0  0
 34 36  1  0  0  0
 34 37  1  0  0  0
 23  1  1  0  0  0
  1  2  2  0  0  0
  1  3  1  0  0  0
  3  4  1  0  0  0
  4  5  1  0  0  0
  5  6  1  0  0  0
  6  7  1  0  0  0
  7  8  1  0  0  0
  8  9  2  0  0  0
  8 10  1  0  0  0
 10 12  1  0  0  0
 12 19  1  0  0  0
 19 20  1  0  0  0
 19 21  1  0  0  0
 12 13  1  0  0  0
 13 14  2  0  0  0
 14 15  1  0  0  0
 15 16  2  0  0  0
 16 17  1  0  0  0
 17 18  2  0  0  0
 32 27  1  0  0  0
  7  3  1  0  0  0
 18 13  1  0  0  0
 24 33  1  0  0  0
 10 11  1  0  0  0
M  END
> <minimizedAffinity>
-7.95684

> <CNNscore>
0.1303456575

> <CNNaffinity>
6.3635749817

> <CNN_VS>
0.8294643760

> <CNNaffinity_variance>
0.3579970896

$$$$
[H]Oc1c([H])c(C([H])([H])C([H])([H])C([H])([H])[H])c([H])c(OC([H])([H])[H])c1C(=O)OC([H])([H])C([H])([H])C([H])([H])ON(c1c([H])c([H])c(F)c([H])c1[H])c1c([H])c([H])c(F)c([H])c1[H]


 35 37  0  0  0  0  0  0  0  0999 V2000
  -17.2036   12.4042  -21.3460 C   0  0  0  0  0  0  0  0  0  0  0  0
  -18.4729   12.9704  -20.8849 C   0  0  0  0  0  0  0  0  0  0  0  0
  -19.1176   12.4242  -19.8166 O   0  0  0  0  0  0  0  0  0  0  0  0
  -18.7881   12.3195  -18.4892 C   0  0  0  0  0  0  0  0  0  0  0  0
  -18.2009   13.2882  -17.9490 O   0  0  0  0  0  0  0  0  0  0  0  0
  -19.6829    8.9170  -16.1061 C   0  0  0  0  0  0  0  0  0  0  0  0
  -20.4715   10.0370  -16.0228 C   0  0  0  0  0  0  0  0  0  0  0  0
  -20.1858   11.1678  -16.8186 C   0  0  0  0  0  0  0  0  0  0  0  0
  -19.0938   11.1138  -17.6812 C   0  0  0  0  0  0  0  0  0  0  0  0
  -18.3399   10.0016  -17.7408 C   0  0  0  0  0  0  0  0  0  0  0  0
  -17.2537    9.9438  -18.5971 O   0  0  0  0  0  0  0  0  0  0  0  0
  -18.6025    8.8641  -16.9598 C   0  0  0  0  0  0  0  0  0  0  0  0
  -16.6627    9.1264  -18.6719 H   0  0  0  0  0  0  0  0  0  0  0  0
  -20.9817   12.2553  -16.7152 O   0  0  0  0  0  0  0  0  0  0  0  0
  -21.2848   13.1748  -15.7720 C   0  0  0  0  0  0  0  0  0  0  0  0
  -19.9475    7.7019  -15.2492 C   0  0  0  0  0  0  0  0  0  0  0  0
  -22.3221    7.0375  -14.8211 C   0  0  0  0  0  0  0  0  0  0  0  0
  -21.1255    6.9316  -15.7504 C   0  0  0  0  0  0  0  0  0  0  0  0
  -16.8715   12.7262  -22.7932 C   0  0  0  0  0  0  0  0  0  0  0  0
  -15.9872   13.7329  -22.7738 O   0  0  0  0  0  0  0  0  0  0  0  0
  -16.2972   14.9153  -23.2962 N   0  0  0  0  0  0  0  0  0  0  0  0
  -16.6641   16.0289  -22.4968 C   0  0  0  0  0  0  0  0  0  0  0  0
  -17.4468   17.0668  -22.9255 C   0  0  0  0  0  0  0  0  0  0  0  0
  -17.8716   18.0573  -22.0793 C   0  0  0  0  0  0  0  0  0  0  0  0
  -17.5299   18.0695  -20.7280 C   0  0  0  0  0  0  0  0  0  0  0  0
  -17.9502   19.0518  -19.8941 F   0  0  0  0  0  0  0  0  0  0  0  0
  -16.7462   17.0307  -20.3074 C   0  0  0  0  0  0  0  0  0  0  0  0
  -16.3151   16.0298  -21.1448 C   0  0  0  0  0  0  0  0  0  0  0  0
  -16.0939   15.0113  -24.7209 C   0  0  0  0  0  0  0  0  0  0  0  0
  -14.8850   15.6286  -25.0555 C   0  0  0  0  0  0  0  0  0  0  0  0
  -14.5799   15.8121  -26.3799 C   0  0  0  0  0  0  0  0  0  0  0  0
  -15.4469   15.3964  -27.3469 C   0  0  0  0  0  0  0  0  0  0  0  0
  -15.1411   15.5891  -28.6664 F   0  0  0  0  0  0  0  0  0  0  0  0
  -16.6375   14.7874  -27.0459 C   0  0  0  0  0  0  0  0  0  0  0  0
  -16.9245   14.6123  -25.6674 C   0  0  0  0  0  0  0  0  0  0  0  0
 17 18  1  0  0  0
 18 16  1  0  0  0
 16  6  1  0  0  0
  6  7  2  0  0  0
  7  8  1  0  0  0
  8 14  1  0  0  0
 14 15  1  0  0  0
  8  9  2  0  0  0
  9  4  1  0  0  0
  4  5  2  0  0  0
  4  3  1  0  0  0
  3  2  1  0  0  0
  2  1  1  0  0  0
  1 19  1  0  0  0
 19 20  1  0  0  0
 20 21  1  0  0  0
 21 22  1  0  0  0
 22 23  2  0  0  0
 23 24  1  0  0  0
 24 25  2  0  0  0
 25 26  1  0  0  0
 25 27  1  0  0  0
 27 28  2  0  0  0
 21 29  1  0  0  0
 29 30  2  0  0  0
 30 31  1  0  0  0
 31 32  2  0  0  0
 32 33  1  0  0  0
 32 34  1  0  0  0
 34 35  2  0  0  0
  9 10  1  0  0  0
 10 11  1  0  0  0
 10 12  2  0  0  0
 12  6  1  0  0  0
 28 22  1  0  0  0
 35 29  1  0  0  0
 11 13  1  0  0  0
M  END
> <minimizedAffinity>
-8.16436

> <CNNscore>
0.4763625264

> <CNNaffinity>
6.5941734314

> <CNN_VS>
3.1412172318

> <CNNaffinity_variance>
0.0861925632

$$$$
[H]Oc1c([H])c(C([H])([H])C([H])([H])C([H])([H])[H])c([H])c(OC([H])([H])[H])c1C(=O)OC([H])([H])C([H])([H])C([H])([H])ON(c1c([H])c([H])c(F)c([H])c1[H])c1c([H])c([H])c(F)c([H])c1[H]


 35 37  0  0  0  0  0  0  0  0999 V2000
  -18.8912   15.6069  -18.1899 C   0  0  0  0  0  0  0  0  0  0  0  0
  -19.4630   15.4590  -19.5299 C   0  0  0  0  0  0  0  0  0  0  0  0
  -20.6686   16.0198  -19.8249 O   0  0  0  0  0  0  0  0  0  0  0  0
  -21.0402   17.2977  -20.1574 C   0  0  0  0  0  0  0  0  0  0  0  0
  -20.7400   18.2241  -19.3657 O   0  0  0  0  0  0  0  0  0  0  0  0
  -23.0970   18.2741  -23.7452 C   0  0  0  0  0  0  0  0  0  0  0  0
  -21.7286   18.1708  -23.7477 C   0  0  0  0  0  0  0  0  0  0  0  0
  -21.0392   17.8374  -22.5614 C   0  0  0  0  0  0  0  0  0  0  0  0
  -21.7797   17.6180  -21.4025 C   0  0  0  0  0  0  0  0  0  0  0  0
  -23.1200   17.7261  -21.4319 C   0  0  0  0  0  0  0  0  0  0  0  0
  -23.8597   17.5086  -20.2822 O   0  0  0  0  0  0  0  0  0  0  0  0
  -23.8293   18.0569  -22.5983 C   0  0  0  0  0  0  0  0  0  0  0  0
  -24.8685   17.5795  -20.2627 H   0  0  0  0  0  0  0  0  0  0  0  0
  -19.6915   17.7418  -22.5959 O   0  0  0  0  0  0  0  0  0  0  0  0
  -18.6434   18.5773  -22.7704 C   0  0  0  0  0  0  0  0  0  0  0  0
  -23.8604   18.6544  -24.9915 C   0  0  0  0  0  0  0  0  0  0  0  0
  -23.3762   18.5021  -27.4422 C   0  0  0  0  0  0  0  0  0  0  0  0
  -23.5224   17.7494  -26.1313 C   0  0  0  0  0  0  0  0  0  0  0  0
  -18.5387   14.2904  -17.5184 C   0  0  0  0  0  0  0  0  0  0  0  0
  -19.4187   13.3814  -17.9600 O   0  0  0  0  0  0  0  0  0  0  0  0
  -19.0460   12.1213  -18.1605 N   0  0  0  0  0  0  0  0  0  0  0  0
  -18.0193   11.7665  -19.0736 C   0  0  0  0  0  0  0  0  0  0  0  0
  -16.9332   10.9955  -18.7577 C   0  0  0  0  0  0  0  0  0  0  0  0
  -16.0332   10.5814  -19.7042 C   0  0  0  0  0  0  0  0  0  0  0  0
  -16.1678   10.9228  -21.0489 C   0  0  0  0  0  0  0  0  0  0  0  0
  -15.2745   10.5131  -21.9824 F   0  0  0  0  0  0  0  0  0  0  0  0
  -17.2538   11.6947  -21.3567 C   0  0  0  0  0  0  0  0  0  0  0  0
  -18.1652   12.1150  -20.4178 C   0  0  0  0  0  0  0  0  0  0  0  0
  -19.6682   11.1660  -17.2769 C   0  0  0  0  0  0  0  0  0  0  0  0
  -20.8216   11.6652  -16.6647 C   0  0  0  0  0  0  0  0  0  0  0  0
  -21.4957   10.8690  -15.7745 C   0  0  0  0  0  0  0  0  0  0  0  0
  -21.0413    9.6135  -15.4974 C   0  0  0  0  0  0  0  0  0  0  0  0
  -21.7133    8.8265  -14.6025 F   0  0  0  0  0  0  0  0  0  0  0  0
  -19.9144    9.0998  -16.0848 C   0  0  0  0  0  0  0  0  0  0  0  0
  -19.2391    9.9476  -17.0006 C   0  0  0  0  0  0  0  0  0  0  0  0
 17 18  1  0  0  0
 18 16  1  0  0  0
 16  6  1  0  0  0
  6  7  2  0  0  0
  7  8  1  0  0  0
  8 14  1  0  0  0
 14 15  1  0  0  0
  8  9  2  0  0  0
  9  4  1  0  0  0
  4  5  2  0  0  0
  4  3  1  0  0  0
  3  2  1  0  0  0
  2  1  1  0  0  0
  1 19  1  0  0  0
 19 20  1  0  0  0
 20 21  1  0  0  0
 21 22  1  0  0  0
 22 23  2  0  0  0
 23 24  1  0  0  0
 24 25  2  0  0  0
 25 26  1  0  0  0
 25 27  1  0  0  0
 27 28  2  0  0  0
 21 29  1  0  0  0
 29 30  2  0  0  0
 30 31  1  0  0  0
 31 32  2  0  0  0
 32 33  1  0  0  0
 32 34  1  0  0  0
 34 35  2  0  0  0
  9 10  1  0  0  0
 10 11  1  0  0  0
 10 12  2  0  0  0
 12  6  1  0  0  0
 28 22  1  0  0  0
 35 29  1  0  0  0
 11 13  1  0  0  0
M  END
> <minimizedAffinity>
-7.51472

> <CNNscore>
0.4666641653

> <CNNaffinity>
6.1838684082

> <CNN_VS>
2.8857898712

> <CNNaffinity_variance>
0.3584382236

$$$$
[H]Oc1c([H])c(C([H])([H])C([H])([H])C([H])([H])[H])c([H])c(OC([H])([H])[H])c1C(=O)OC([H])([H])C([H])([H])C([H])([H])ON(c1c([H])c([H])c(F)c([H])c1[H])c1c([H])c([H])c(F)c([H])c1[H]


 35 37  0  0  0  0  0  0  0  0999 V2000
  -16.5510   17.4825  -21.5771 C   0  0  0  0  0  0  0  0  0  0  0  0
  -16.8251   18.0409  -20.2514 C   0  0  0  0  0  0  0  0  0  0  0  0
  -18.0741   18.4877  -19.9423 O   0  0  0  0  0  0  0  0  0  0  0  0
  -19.2213   17.8414  -19.5578 C   0  0  0  0  0  0  0  0  0  0  0  0
  -20.3178   18.4201  -19.7523 O   0  0  0  0  0  0  0  0  0  0  0  0
  -19.1195   14.0237  -17.6945 C   0  0  0  0  0  0  0  0  0  0  0  0
  -18.8592   15.1517  -16.9575 C   0  0  0  0  0  0  0  0  0  0  0  0
  -18.9005   16.4243  -17.5679 C   0  0  0  0  0  0  0  0  0  0  0  0
  -19.2106   16.5007  -18.9235 C   0  0  0  0  0  0  0  0  0  0  0  0
  -19.4615   15.3772  -19.6189 C   0  0  0  0  0  0  0  0  0  0  0  0
  -19.7703   15.4489  -20.9664 O   0  0  0  0  0  0  0  0  0  0  0  0
  -19.4263   14.0999  -19.0357 C   0  0  0  0  0  0  0  0  0  0  0  0
  -19.9658   14.6282  -21.5243 H   0  0  0  0  0  0  0  0  0  0  0  0
  -18.6408   17.5166  -16.8154 O   0  0  0  0  0  0  0  0  0  0  0  0
  -19.2899   18.2606  -15.8923 C   0  0  0  0  0  0  0  0  0  0  0  0
  -19.0576   12.6473  -17.0763 C   0  0  0  0  0  0  0  0  0  0  0  0
  -18.4255   10.3361  -17.7990 C   0  0  0  0  0  0  0  0  0  0  0  0
  -19.2382   11.5814  -18.1076 C   0  0  0  0  0  0  0  0  0  0  0  0
  -16.3946   15.9713  -21.5920 C   0  0  0  0  0  0  0  0  0  0  0  0
  -17.1846   15.5087  -22.5705 O   0  0  0  0  0  0  0  0  0  0  0  0
  -16.7913   14.4946  -23.3347 N   0  0  0  0  0  0  0  0  0  0  0  0
  -16.3909   14.6686  -24.6850 C   0  0  0  0  0  0  0  0  0  0  0  0
  -17.0704   14.1733  -25.7650 C   0  0  0  0  0  0  0  0  0  0  0  0
  -16.7089   14.4709  -27.0527 C   0  0  0  0  0  0  0  0  0  0  0  0
  -15.6234   15.2961  -27.3418 C   0  0  0  0  0  0  0  0  0  0  0  0
  -15.2672   15.5870  -28.6169 F   0  0  0  0  0  0  0  0  0  0  0  0
  -14.9482   15.7857  -26.2580 C   0  0  0  0  0  0  0  0  0  0  0  0
  -15.3014   15.4970  -24.9616 C   0  0  0  0  0  0  0  0  0  0  0  0
  -16.6706   13.2355  -22.6416 C   0  0  0  0  0  0  0  0  0  0  0  0
  -15.4866   12.5588  -22.9493 C   0  0  0  0  0  0  0  0  0  0  0  0
  -15.2591   11.3314  -22.3812 C   0  0  0  0  0  0  0  0  0  0  0  0
  -16.1776   10.7883  -21.5322 C   0  0  0  0  0  0  0  0  0  0  0  0
  -15.9492    9.5600  -20.9745 F   0  0  0  0  0  0  0  0  0  0  0  0
  -17.3453   11.4314  -21.2129 C   0  0  0  0  0  0  0  0  0  0  0  0
  -17.5517   12.6988  -21.8167 C   0  0  0  0  0  0  0  0  0  0  0  0
 17 18  1  0  0  0
 18 16  1  0  0  0
 16  6  1  0  0  0
  6  7  2  0  0  0
  7  8  1  0  0  0
  8 14  1  0  0  0
 14 15  1  0  0  0
  8  9  2  0  0  0
  9  4  1  0  0  0
  4  5  2  0  0  0
  4  3  1  0  0  0
  3  2  1  0  0  0
  2  1  1  0  0  0
  1 19  1  0  0  0
 19 20  1  0  0  0
 20 21  1  0  0  0
 21 22  1  0  0  0
 22 23  2  0  0  0
 23 24  1  0  0  0
 24 25  2  0  0  0
 25 26  1  0  0  0
 25 27  1  0  0  0
 27 28  2  0  0  0
 21 29  1  0  0  0
 29 30  2  0  0  0
 30 31  1  0  0  0
 31 32  2  0  0  0
 32 33  1  0  0  0
 32 34  1  0  0  0
 34 35  2  0  0  0
  9 10  1  0  0  0
 10 11  1  0  0  0
 10 12  2  0  0  0
 12  6  1  0  0  0
 28 22  1  0  0  0
 35 29  1  0  0  0
 11 13  1  0  0  0
M  END
> <minimizedAffinity>
-7.59270

> <CNNscore>
0.4046808779

> <CNNaffinity>
6.9175577164

> <CNN_VS>
2.7994034290

> <CNNaffinity_variance>
0.2845132649

$$$$
[H]Oc1c([H])c(C([H])([H])C([H])([H])C([H])([H])[H])c([H])c(OC([H])([H])[H])c1C(=O)OC([H])([H])C([H])([H])C([H])([H])ON(c1c([H])c([H])c(F)c([H])c1[H])c1c([H])c([H])c(F)c([H])c1[H]


 35 37  0  0  0  0  0  0  0  0999 V2000
  -17.2026   12.0025  -21.3171 C   0  0  0  0  0  0  0  0  0  0  0  0
  -18.0816   12.8367  -20.4950 C   0  0  0  0  0  0  0  0  0  0  0  0
  -18.8671   12.2676  -19.5389 O   0  0  0  0  0  0  0  0  0  0  0  0
  -18.7360   12.1534  -18.1783 C   0  0  0  0  0  0  0  0  0  0  0  0
  -18.2378   13.1193  -17.5506 O   0  0  0  0  0  0  0  0  0  0  0  0
  -19.9441    8.7293  -15.9710 C   0  0  0  0  0  0  0  0  0  0  0  0
  -20.6153    9.9160  -15.8142 C   0  0  0  0  0  0  0  0  0  0  0  0
  -20.2253   11.0554  -16.5514 C   0  0  0  0  0  0  0  0  0  0  0  0
  -19.1531   10.9410  -17.4328 C   0  0  0  0  0  0  0  0  0  0  0  0
  -18.5156    9.7641  -17.5650 C   0  0  0  0  0  0  0  0  0  0  0  0
  -17.4495    9.6462  -18.4401 O   0  0  0  0  0  0  0  0  0  0  0  0
  -18.8833    8.6166  -16.8432 C   0  0  0  0  0  0  0  0  0  0  0  0
  -16.9445    8.7794  -18.5687 H   0  0  0  0  0  0  0  0  0  0  0  0
  -20.9067   12.2094  -16.3762 O   0  0  0  0  0  0  0  0  0  0  0  0
  -21.7222   12.7460  -15.4413 C   0  0  0  0  0  0  0  0  0  0  0  0
  -20.3209    7.5006  -15.1778 C   0  0  0  0  0  0  0  0  0  0  0  0
  -22.1425    6.0157  -16.0380 C   0  0  0  0  0  0  0  0  0  0  0  0
  -21.7934    7.2529  -15.2293 C   0  0  0  0  0  0  0  0  0  0  0  0
  -17.1483   12.4135  -22.7788 C   0  0  0  0  0  0  0  0  0  0  0  0
  -16.1766   13.3297  -22.8887 O   0  0  0  0  0  0  0  0  0  0  0  0
  -16.4081   14.4919  -23.4911 N   0  0  0  0  0  0  0  0  0  0  0  0
  -16.1147   14.7112  -24.8621 C   0  0  0  0  0  0  0  0  0  0  0  0
  -16.9067   14.2996  -25.8999 C   0  0  0  0  0  0  0  0  0  0  0  0
  -16.6405   14.6410  -27.1999 C   0  0  0  0  0  0  0  0  0  0  0  0
  -15.5432   15.4281  -27.5456 C   0  0  0  0  0  0  0  0  0  0  0  0
  -15.2817   15.7624  -28.8329 F   0  0  0  0  0  0  0  0  0  0  0  0
  -14.7555   15.8339  -26.5040 C   0  0  0  0  0  0  0  0  0  0  0  0
  -15.0123   15.5005  -25.1957 C   0  0  0  0  0  0  0  0  0  0  0  0
  -17.1072   15.4573  -22.6791 C   0  0  0  0  0  0  0  0  0  0  0  0
  -16.3437   15.9122  -21.5999 C   0  0  0  0  0  0  0  0  0  0  0  0
  -16.9008   16.8123  -20.7280 C   0  0  0  0  0  0  0  0  0  0  0  0
  -18.1781   17.2504  -20.9181 C   0  0  0  0  0  0  0  0  0  0  0  0
  -18.7316   18.1423  -20.0407 F   0  0  0  0  0  0  0  0  0  0  0  0
  -18.9472   16.8214  -21.9686 C   0  0  0  0  0  0  0  0  0  0  0  0
  -18.3431   15.8904  -22.8526 C   0  0  0  0  0  0  0  0  0  0  0  0
 17 18  1  0  0  0
 18 16  1  0  0  0
 16  6  1  0  0  0
  6  7  2  0  0  0
  7  8  1  0  0  0
  8 14  1  0  0  0
 14 15  1  0  0  0
  8  9  2  0  0  0
  9  4  1  0  0  0
  4  5  2  0  0  0
  4  3  1  0  0  0
  3  2  1  0  0  0
  2  1  1  0  0  0
  1 19  1  0  0  0
 19 20  1  0  0  0
 20 21  1  0  0  0
 21 22  1  0  0  0
 22 23  2  0  0  0
 23 24  1  0  0  0
 24 25  2  0  0  0
 25 26  1  0  0  0
 25 27  1  0  0  0
 27 28  2  0  0  0
 21 29  1  0  0  0
 29 30  2  0  0  0
 30 31  1  0  0  0
 31 32  2  0  0  0
 32 33  1  0  0  0
 32 34  1  0  0  0
 34 35  2  0  0  0
  9 10  1  0  0  0
 10 11  1  0  0  0
 10 12  2  0  0  0
 12  6  1  0  0  0
 28 22  1  0  0  0
 35 29  1  0  0  0
 11 13  1  0  0  0
M  END
> <minimizedAffinity>
-8.17104

> <CNNscore>
0.3881943822

> <CNNaffinity>
6.5025124550

> <CNN_VS>
2.5242388248

> <CNNaffinity_variance>
0.1160012037

$$$$
[H]Oc1c([H])c(C([H])([H])C([H])([H])C([H])([H])[H])c([H])c(OC([H])([H])[H])c1C(=O)OC([H])([H])C([H])([H])C([H])([H])ON(c1c([H])c([H])c(F)c([H])c1[H])c1c([H])c([H])c(F)c([H])c1[H]


 35 37  0  0  0  0  0  0  0  0999 V2000
  -19.1698   16.6256  -23.6238 C   0  0  0  0  0  0  0  0  0  0  0  0
  -20.0790   17.7232  -23.2876 C   0  0  0  0  0  0  0  0  0  0  0  0
  -20.1875   18.1513  -21.9991 O   0  0  0  0  0  0  0  0  0  0  0  0
  -20.7909   17.6133  -20.8910 C   0  0  0  0  0  0  0  0  0  0  0  0
  -21.9144   18.0608  -20.5554 O   0  0  0  0  0  0  0  0  0  0  0  0
  -18.9277   14.5453  -18.6167 C   0  0  0  0  0  0  0  0  0  0  0  0
  -18.2527   15.7122  -18.8734 C   0  0  0  0  0  0  0  0  0  0  0  0
  -18.8691   16.7397  -19.6204 C   0  0  0  0  0  0  0  0  0  0  0  0
  -20.1671   16.5374  -20.0827 C   0  0  0  0  0  0  0  0  0  0  0  0
  -20.8029   15.3831  -19.8142 C   0  0  0  0  0  0  0  0  0  0  0  0
  -22.0933   15.1781  -20.2716 O   0  0  0  0  0  0  0  0  0  0  0  0
  -20.2121   14.3456  -19.0742 C   0  0  0  0  0  0  0  0  0  0  0  0
  -22.6057   14.3250  -20.0908 H   0  0  0  0  0  0  0  0  0  0  0  0
  -18.1792   17.8779  -19.8557 O   0  0  0  0  0  0  0  0  0  0  0  0
  -16.9218   18.2171  -20.2176 C   0  0  0  0  0  0  0  0  0  0  0  0
  -18.2860   13.4181  -17.8431 C   0  0  0  0  0  0  0  0  0  0  0  0
  -18.8694   10.9850  -17.8988 C   0  0  0  0  0  0  0  0  0  0  0  0
  -19.2909   12.3785  -17.4665 C   0  0  0  0  0  0  0  0  0  0  0  0
  -17.7011   17.0146  -23.6177 C   0  0  0  0  0  0  0  0  0  0  0  0
  -17.0583   16.0928  -22.8877 O   0  0  0  0  0  0  0  0  0  0  0  0
  -16.5893   14.9866  -23.4563 N   0  0  0  0  0  0  0  0  0  0  0  0
  -16.6950   13.7111  -22.8432 C   0  0  0  0  0  0  0  0  0  0  0  0
  -15.7787   12.7042  -22.9854 C   0  0  0  0  0  0  0  0  0  0  0  0
  -15.8650   11.5346  -22.2769 C   0  0  0  0  0  0  0  0  0  0  0  0
  -16.8948   11.2975  -21.3679 C   0  0  0  0  0  0  0  0  0  0  0  0
  -16.9784   10.1386  -20.6700 F   0  0  0  0  0  0  0  0  0  0  0  0
  -17.8075   12.3069  -21.2325 C   0  0  0  0  0  0  0  0  0  0  0  0
  -17.7315   13.4856  -21.9352 C   0  0  0  0  0  0  0  0  0  0  0  0
  -16.0956   15.1678  -24.7993 C   0  0  0  0  0  0  0  0  0  0  0  0
  -16.9333   14.6027  -25.7655 C   0  0  0  0  0  0  0  0  0  0  0  0
  -16.5658   14.6764  -27.0847 C   0  0  0  0  0  0  0  0  0  0  0  0
  -15.4015   15.2920  -27.4385 C   0  0  0  0  0  0  0  0  0  0  0  0
  -15.0359   15.3556  -28.7554 F   0  0  0  0  0  0  0  0  0  0  0  0
  -14.5635   15.8551  -26.5114 C   0  0  0  0  0  0  0  0  0  0  0  0
  -14.9710   15.7622  -25.1554 C   0  0  0  0  0  0  0  0  0  0  0  0
 17 18  1  0  0  0
 18 16  1  0  0  0
 16  6  1  0  0  0
  6  7  2  0  0  0
  7  8  1  0  0  0
  8 14  1  0  0  0
 14 15  1  0  0  0
  8  9  2  0  0  0
  9  4  1  0  0  0
  4  5  2  0  0  0
  4  3  1  0  0  0
  3  2  1  0  0  0
  2  1  1  0  0  0
  1 19  1  0  0  0
 19 20  1  0  0  0
 20 21  1  0  0  0
 21 22  1  0  0  0
 22 23  2  0  0  0
 23 24  1  0  0  0
 24 25  2  0  0  0
 25 26  1  0  0  0
 25 27  1  0  0  0
 27 28  2  0  0  0
 21 29  1  0  0  0
 29 30  2  0  0  0
 30 31  1  0  0  0
 31 32  2  0  0  0
 32 33  1  0  0  0
 32 34  1  0  0  0
 34 35  2  0  0  0
  9 10  1  0  0  0
 10 11  1  0  0  0
 10 12  2  0  0  0
 12  6  1  0  0  0
 28 22  1  0  0  0
 35 29  1  0  0  0
 11 13  1  0  0  0
M  END
> <minimizedAffinity>
-7.32729

> <CNNscore>
0.3804504275

> <CNNaffinity>
6.7733993530

> <CNN_VS>
2.5769426823

> <CNNaffinity_variance>
0.4902701378

$$$$
[H]Oc1c([H])c(C([H])([H])C([H])([H])C([H])([H])[H])c([H])c(OC([H])([H])[H])c1C(=O)OC([H])([H])C([H])([H])C([H])([H])ON(c1c([H])c([H])c(F)c([H])c1[H])c1c([H])c([H])c(F)c([H])c1[H]


 35 37  0  0  0  0  0  0  0  0999 V2000
  -16.0034   11.2916  -21.8181 C   0  0  0  0  0  0  0  0  0  0  0  0
  -17.3812   11.5014  -21.3685 C   0  0  0  0  0  0  0  0  0  0  0  0
  -17.6257   12.0757  -20.1580 O   0  0  0  0  0  0  0  0  0  0  0  0
  -17.5069   11.6142  -18.8717 C   0  0  0  0  0  0  0  0  0  0  0  0
  -16.3559   11.3625  -18.4394 O   0  0  0  0  0  0  0  0  0  0  0  0
  -20.8475   11.0812  -16.3003 C   0  0  0  0  0  0  0  0  0  0  0  0
  -20.6269   12.2999  -16.8914 C   0  0  0  0  0  0  0  0  0  0  0  0
  -19.5243   12.4816  -17.7544 C   0  0  0  0  0  0  0  0  0  0  0  0
  -18.6776   11.4005  -17.9866 C   0  0  0  0  0  0  0  0  0  0  0  0
  -18.9204   10.2183  -17.3930 C   0  0  0  0  0  0  0  0  0  0  0  0
  -18.0814    9.1412  -17.6213 O   0  0  0  0  0  0  0  0  0  0  0  0
  -20.0095   10.0118  -16.5304 C   0  0  0  0  0  0  0  0  0  0  0  0
  -18.2297    8.2360  -17.1950 H   0  0  0  0  0  0  0  0  0  0  0  0
  -19.3342   13.6932  -18.3226 O   0  0  0  0  0  0  0  0  0  0  0  0
  -20.0827   14.6081  -18.9782 C   0  0  0  0  0  0  0  0  0  0  0  0
  -22.0029   10.8631  -15.3526 C   0  0  0  0  0  0  0  0  0  0  0  0
  -20.8830   11.4453  -13.1915 C   0  0  0  0  0  0  0  0  0  0  0  0
  -21.9504   11.8187  -14.2052 C   0  0  0  0  0  0  0  0  0  0  0  0
  -15.6078   12.1372  -23.0167 C   0  0  0  0  0  0  0  0  0  0  0  0
  -16.7032   12.8092  -23.3963 O   0  0  0  0  0  0  0  0  0  0  0  0
  -16.6164   14.0750  -23.7931 N   0  0  0  0  0  0  0  0  0  0  0  0
  -16.2556   14.4354  -25.1174 C   0  0  0  0  0  0  0  0  0  0  0  0
  -16.9438   14.0574  -26.2385 C   0  0  0  0  0  0  0  0  0  0  0  0
  -16.6245   14.5308  -27.4841 C   0  0  0  0  0  0  0  0  0  0  0  0
  -15.5755   15.4262  -27.6859 C   0  0  0  0  0  0  0  0  0  0  0  0
  -15.2611   15.8911  -28.9197 F   0  0  0  0  0  0  0  0  0  0  0  0
  -14.8913   15.7978  -26.5617 C   0  0  0  0  0  0  0  0  0  0  0  0
  -15.2024   15.3325  -25.3065 C   0  0  0  0  0  0  0  0  0  0  0  0
  -17.0535   15.0397  -22.8140 C   0  0  0  0  0  0  0  0  0  0  0  0
  -18.3752   15.4506  -23.0104 C   0  0  0  0  0  0  0  0  0  0  0  0
  -18.9083   16.3909  -22.1664 C   0  0  0  0  0  0  0  0  0  0  0  0
  -18.1546   16.9107  -21.1558 C   0  0  0  0  0  0  0  0  0  0  0  0
  -18.6890   17.8543  -20.3216 F   0  0  0  0  0  0  0  0  0  0  0  0
  -16.8572   16.5241  -20.9407 C   0  0  0  0  0  0  0  0  0  0  0  0
  -16.3344   15.5503  -21.8305 C   0  0  0  0  0  0  0  0  0  0  0  0
 17 18  1  0  0  0
 18 16  1  0  0  0
 16  6  1  0  0  0
  6  7  2  0  0  0
  7  8  1  0  0  0
  8 14  1  0  0  0
 14 15  1  0  0  0
  8  9  2  0  0  0
  9  4  1  0  0  0
  4  5  2  0  0  0
  4  3  1  0  0  0
  3  2  1  0  0  0
  2  1  1  0  0  0
  1 19  1  0  0  0
 19 20  1  0  0  0
 20 21  1  0  0  0
 21 22  1  0  0  0
 22 23  2  0  0  0
 23 24  1  0  0  0
 24 25  2  0  0  0
 25 26  1  0  0  0
 25 27  1  0  0  0
 27 28  2  0  0  0
 21 29  1  0  0  0
 29 30  2  0  0  0
 30 31  1  0  0  0
 31 32  2  0  0  0
 32 33  1  0  0  0
 32 34  1  0  0  0
 34 35  2  0  0  0
  9 10  1  0  0  0
 10 11  1  0  0  0
 10 12  2  0  0  0
 12  6  1  0  0  0
 28 22  1  0  0  0
 35 29  1  0  0  0
 11 13  1  0  0  0
M  END
> <minimizedAffinity>
-7.97234

> <CNNscore>
0.3438037634

> <CNNaffinity>
6.6697854996

> <CNN_VS>
2.2930972576

> <CNNaffinity_variance>
0.0618909895

$$$$
[H]Oc1c([H])c(C([H])([H])C([H])([H])C([H])([H])[H])c([H])c(OC([H])([H])[H])c1C(=O)OC([H])([H])C([H])([H])C([H])([H])ON(c1c([H])c([H])c(F)c([H])c1[H])c1c([H])c([H])c(F)c([H])c1[H]


 35 37  0  0  0  0  0  0  0  0999 V2000
  -17.1187   10.7488  -18.4146 C   0  0  0  0  0  0  0  0  0  0  0  0
  -17.3443   11.1937  -19.7914 C   0  0  0  0  0  0  0  0  0  0  0  0
  -17.2203   12.5112  -20.1135 O   0  0  0  0  0  0  0  0  0  0  0  0
  -17.9405   13.3353  -20.9403 C   0  0  0  0  0  0  0  0  0  0  0  0
  -19.1852   13.3829  -20.7873 O   0  0  0  0  0  0  0  0  0  0  0  0
  -16.0510   15.6515  -23.9606 C   0  0  0  0  0  0  0  0  0  0  0  0
  -15.7828   14.3094  -23.8597 C   0  0  0  0  0  0  0  0  0  0  0  0
  -16.4142   13.5317  -22.8645 C   0  0  0  0  0  0  0  0  0  0  0  0
  -17.3074   14.1586  -21.9992 C   0  0  0  0  0  0  0  0  0  0  0  0
  -17.5500   15.4756  -22.1236 C   0  0  0  0  0  0  0  0  0  0  0  0
  -18.4372   16.1025  -21.2657 O   0  0  0  0  0  0  0  0  0  0  0  0
  -16.9348   16.2713  -23.1042 C   0  0  0  0  0  0  0  0  0  0  0  0
  -18.6473   17.0900  -21.3265 H   0  0  0  0  0  0  0  0  0  0  0  0
  -16.1306   12.2122  -22.7913 O   0  0  0  0  0  0  0  0  0  0  0  0
  -15.0374   11.4439  -22.5872 C   0  0  0  0  0  0  0  0  0  0  0  0
  -15.3721   16.5145  -24.9974 C   0  0  0  0  0  0  0  0  0  0  0  0
  -15.8527   15.6164  -27.2834 C   0  0  0  0  0  0  0  0  0  0  0  0
  -14.8609   15.6929  -26.1358 C   0  0  0  0  0  0  0  0  0  0  0  0
  -18.3501   10.1648  -17.7431 C   0  0  0  0  0  0  0  0  0  0  0  0
  -19.3794   10.9630  -18.0580 O   0  0  0  0  0  0  0  0  0  0  0  0
  -19.9355   11.7443  -17.1374 N   0  0  0  0  0  0  0  0  0  0  0  0
  -20.5487   11.2257  -15.9674 C   0  0  0  0  0  0  0  0  0  0  0  0
  -21.6016   10.3511  -15.9666 C   0  0  0  0  0  0  0  0  0  0  0  0
  -22.0795    9.7866  -14.8132 C   0  0  0  0  0  0  0  0  0  0  0  0
  -21.5226   10.0710  -13.5674 C   0  0  0  0  0  0  0  0  0  0  0  0
  -21.9990    9.5123  -12.4280 F   0  0  0  0  0  0  0  0  0  0  0  0
  -20.4725   10.9470  -13.5757 C   0  0  0  0  0  0  0  0  0  0  0  0
  -19.9820   11.5185  -14.7253 C   0  0  0  0  0  0  0  0  0  0  0  0
  -19.7401   13.1567  -17.3548 C   0  0  0  0  0  0  0  0  0  0  0  0
  -20.8911   13.7973  -17.8232 C   0  0  0  0  0  0  0  0  0  0  0  0
  -20.8350   15.1391  -18.1012 C   0  0  0  0  0  0  0  0  0  0  0  0
  -19.6723   15.8283  -17.9210 C   0  0  0  0  0  0  0  0  0  0  0  0
  -19.6198   17.1651  -18.2074 F   0  0  0  0  0  0  0  0  0  0  0  0
  -18.5305   15.2247  -17.4617 C   0  0  0  0  0  0  0  0  0  0  0  0
  -18.6203   13.8362  -17.1835 C   0  0  0  0  0  0  0  0  0  0  0  0
 17 18  1  0  0  0
 18 16  1  0  0  0
 16  6  1  0  0  0
  6  7  2  0  0  0
  7  8  1  0  0  0
  8 14  1  0  0  0
 14 15  1  0  0  0
  8  9  2  0  0  0
  9  4  1  0  0  0
  4  5  2  0  0  0
  4  3  1  0  0  0
  3  2  1  0  0  0
  2  1  1  0  0  0
  1 19  1  0  0  0
 19 20  1  0  0  0
 20 21  1  0  0  0
 21 22  1  0  0  0
 22 23  2  0  0  0
 23 24  1  0  0  0
 24 25  2  0  0  0
 25 26  1  0  0  0
 25 27  1  0  0  0
 27 28  2  0  0  0
 21 29  1  0  0  0
 29 30  2  0  0  0
 30 31  1  0  0  0
 31 32  2  0  0  0
 32 33  1  0  0  0
 32 34  1  0  0  0
 34 35  2  0  0  0
  9 10  1  0  0  0
 10 11  1  0  0  0
 10 12  2  0  0  0
 12  6  1  0  0  0
 28 22  1  0  0  0
 35 29  1  0  0  0
 11 13  1  0  0  0
M  END
> <minimizedAffinity>
-6.71178

> <CNNscore>
0.3196677864

> <CNNaffinity>
6.3234777451

> <CNN_VS>
2.0214121342

> <CNNaffinity_variance>
0.2118447572

$$$$
[H]Oc1c([H])c(C([H])([H])C([H])([H])C([H])([H])[H])c([H])c(OC([H])([H])[H])c1C(=O)OC([H])([H])C([H])([H])C([H])([H])ON(c1c([H])c([H])c(F)c([H])c1[H])c1c([H])c([H])c(F)c([H])c1[H]


 35 37  0  0  0  0  0  0  0  0999 V2000
  -19.2591   17.0353  -23.5056 C   0  0  0  0  0  0  0  0  0  0  0  0
  -19.5846   18.3818  -23.0307 C   0  0  0  0  0  0  0  0  0  0  0  0
  -19.3517   18.7243  -21.7332 O   0  0  0  0  0  0  0  0  0  0  0  0
  -19.8805   18.2807  -20.5478 C   0  0  0  0  0  0  0  0  0  0  0  0
  -20.3713   19.1310  -19.7660 O   0  0  0  0  0  0  0  0  0  0  0  0
  -19.8223   14.1696  -19.4745 C   0  0  0  0  0  0  0  0  0  0  0  0
  -18.6856   14.9271  -19.3428 C   0  0  0  0  0  0  0  0  0  0  0  0
  -18.7001   16.2960  -19.6885 C   0  0  0  0  0  0  0  0  0  0  0  0
  -19.8879   16.8490  -20.1606 C   0  0  0  0  0  0  0  0  0  0  0  0
  -20.9857   16.0809  -20.2781 C   0  0  0  0  0  0  0  0  0  0  0  0
  -22.1684   16.6268  -20.7467 O   0  0  0  0  0  0  0  0  0  0  0  0
  -20.9973   14.7173  -19.9416 C   0  0  0  0  0  0  0  0  0  0  0  0
  -23.0154   16.0836  -20.8490 H   0  0  0  0  0  0  0  0  0  0  0  0
  -17.5651   17.0161  -19.5465 O   0  0  0  0  0  0  0  0  0  0  0  0
  -16.3416   17.0596  -20.1192 C   0  0  0  0  0  0  0  0  0  0  0  0
  -19.8312   12.6975  -19.1376 C   0  0  0  0  0  0  0  0  0  0  0  0
  -18.2812   11.0085  -18.1336 C   0  0  0  0  0  0  0  0  0  0  0  0
  -18.8940   12.3930  -18.0146 C   0  0  0  0  0  0  0  0  0  0  0  0
  -17.8023   16.6476  -23.3168 C   0  0  0  0  0  0  0  0  0  0  0  0
  -17.7780   15.3268  -23.0920 O   0  0  0  0  0  0  0  0  0  0  0  0
  -16.9858   14.5338  -23.8067 N   0  0  0  0  0  0  0  0  0  0  0  0
  -16.4872   14.9045  -25.0826 C   0  0  0  0  0  0  0  0  0  0  0  0
  -15.3575   15.6500  -25.2868 C   0  0  0  0  0  0  0  0  0  0  0  0
  -14.8519   15.8788  -26.5396 C   0  0  0  0  0  0  0  0  0  0  0  0
  -15.4597   15.3671  -27.6849 C   0  0  0  0  0  0  0  0  0  0  0  0
  -14.9579   15.5970  -28.9229 F   0  0  0  0  0  0  0  0  0  0  0  0
  -16.5888   14.6251  -27.4733 C   0  0  0  0  0  0  0  0  0  0  0  0
  -17.1053   14.3861  -26.2223 C   0  0  0  0  0  0  0  0  0  0  0  0
  -16.5639   13.3364  -23.1223 C   0  0  0  0  0  0  0  0  0  0  0  0
  -17.4926   12.8987  -22.1733 C   0  0  0  0  0  0  0  0  0  0  0  0
  -17.2017   11.7854  -21.4272 C   0  0  0  0  0  0  0  0  0  0  0  0
  -16.0244   11.1231  -21.6145 C   0  0  0  0  0  0  0  0  0  0  0  0
  -15.7359   10.0177  -20.8619 F   0  0  0  0  0  0  0  0  0  0  0  0
  -15.0978   11.5304  -22.5390 C   0  0  0  0  0  0  0  0  0  0  0  0
  -15.4276   12.6852  -23.2947 C   0  0  0  0  0  0  0  0  0  0  0  0
 17 18  1  0  0  0
 18 16  1  0  0  0
 16  6  1  0  0  0
  6  7  2  0  0  0
  7  8  1  0  0  0
  8 14  1  0  0  0
 14 15  1  0  0  0
  8  9  2  0  0  0
  9  4  1  0  0  0
  4  5  2  0  0  0
  4  3  1  0  0  0
  3  2  1  0  0  0
  2  1  1  0  0  0
  1 19  1  0  0  0
 19 20  1  0  0  0
 20 21  1  0  0  0
 21 22  1  0  0  0
 22 23  2  0  0  0
 23 24  1  0  0  0
 24 25  2  0  0  0
 25 26  1  0  0  0
 25 27  1  0  0  0
 27 28  2  0  0  0
 21 29  1  0  0  0
 29 30  2  0  0  0
 30 31  1  0  0  0
 31 32  2  0  0  0
 32 33  1  0  0  0
 32 34  1  0  0  0
 34 35  2  0  0  0
  9 10  1  0  0  0
 10 11  1  0  0  0
 10 12  2  0  0  0
 12  6  1  0  0  0
 28 22  1  0  0  0
 35 29  1  0  0  0
 11 13  1  0  0  0
M  END
> <minimizedAffinity>
-7.31679

> <CNNscore>
0.3064133227

> <CNNaffinity>
6.6639604568

> <CNN_VS>
2.0419263840

> <CNNaffinity_variance>
0.5299886465

$$$$
[H]Oc1c([H])c(C([H])([H])C([H])([H])C([H])([H])[H])c([H])c(OC([H])([H])[H])c1C(=O)OC([H])([H])C([H])([H])C([H])([H])ON(c1c([H])c([H])c(F)c([H])c1[H])c1c([H])c([H])c(F)c([H])c1[H]


 35 37  0  0  0  0  0  0  0  0999 V2000
  -16.4157   10.0945  -20.0652 C   0  0  0  0  0  0  0  0  0  0  0  0
  -16.1233   10.8614  -21.2780 C   0  0  0  0  0  0  0  0  0  0  0  0
  -16.9995   11.8072  -21.7170 O   0  0  0  0  0  0  0  0  0  0  0  0
  -16.9342   13.1762  -21.7748 C   0  0  0  0  0  0  0  0  0  0  0  0
  -17.1199   13.8208  -20.7141 O   0  0  0  0  0  0  0  0  0  0  0  0
  -16.2339   15.2846  -25.3970 C   0  0  0  0  0  0  0  0  0  0  0  0
  -17.3122   15.6106  -24.6133 C   0  0  0  0  0  0  0  0  0  0  0  0
  -17.5457   14.9206  -23.4037 C   0  0  0  0  0  0  0  0  0  0  0  0
  -16.6597   13.9121  -23.0328 C   0  0  0  0  0  0  0  0  0  0  0  0
  -15.6116   13.6161  -23.8219 C   0  0  0  0  0  0  0  0  0  0  0  0
  -14.7285   12.6145  -23.4568 O   0  0  0  0  0  0  0  0  0  0  0  0
  -15.3575   14.2867  -25.0296 C   0  0  0  0  0  0  0  0  0  0  0  0
  -13.9283   12.3620  -24.0216 H   0  0  0  0  0  0  0  0  0  0  0  0
  -18.6154   15.2655  -22.6529 O   0  0  0  0  0  0  0  0  0  0  0  0
  -19.1350   16.3988  -22.1307 C   0  0  0  0  0  0  0  0  0  0  0  0
  -15.9724   15.9865  -26.7084 C   0  0  0  0  0  0  0  0  0  0  0  0
  -16.9836   13.9884  -27.8258 C   0  0  0  0  0  0  0  0  0  0  0  0
  -15.8592   15.0093  -27.8329 C   0  0  0  0  0  0  0  0  0  0  0  0
  -16.9235   10.9370  -18.9074 C   0  0  0  0  0  0  0  0  0  0  0  0
  -18.2402   10.7082  -18.8090 O   0  0  0  0  0  0  0  0  0  0  0  0
  -18.9751   11.3621  -17.9149 N   0  0  0  0  0  0  0  0  0  0  0  0
  -19.1742   12.7660  -17.9725 C   0  0  0  0  0  0  0  0  0  0  0  0
  -18.4857   13.6783  -17.2193 C   0  0  0  0  0  0  0  0  0  0  0  0
  -18.6298   15.0290  -17.3988 C   0  0  0  0  0  0  0  0  0  0  0  0
  -19.4901   15.5574  -18.3599 C   0  0  0  0  0  0  0  0  0  0  0  0
  -19.6318   16.8942  -18.5336 F   0  0  0  0  0  0  0  0  0  0  0  0
  -20.1760   14.6402  -19.1072 C   0  0  0  0  0  0  0  0  0  0  0  0
  -20.0392   13.2831  -18.9390 C   0  0  0  0  0  0  0  0  0  0  0  0
  -19.6634   10.5149  -16.9721 C   0  0  0  0  0  0  0  0  0  0  0  0
  -19.0747    9.2531  -16.8471 C   0  0  0  0  0  0  0  0  0  0  0  0
  -19.6483    8.3358  -16.0043 C   0  0  0  0  0  0  0  0  0  0  0  0
  -20.7735    8.6577  -15.3045 C   0  0  0  0  0  0  0  0  0  0  0  0
  -21.3462    7.7360  -14.4711 F   0  0  0  0  0  0  0  0  0  0  0  0
  -21.3695    9.8879  -15.4078 C   0  0  0  0  0  0  0  0  0  0  0  0
  -20.7527   10.8146  -16.2877 C   0  0  0  0  0  0  0  0  0  0  0  0
 17 18  1  0  0  0
 18 16  1  0  0  0
 16  6  1  0  0  0
  6  7  2  0  0  0
  7  8  1  0  0  0
  8 14  1  0  0  0
 14 15  1  0  0  0
  8  9  2  0  0  0
  9  4  1  0  0  0
  4  5  2  0  0  0
  4  3  1  0  0  0
  3  2  1  0  0  0
  2  1  1  0  0  0
  1 19  1  0  0  0
 19 20  1  0  0  0
 20 21  1  0  0  0
 21 22  1  0  0  0
 22 23  2  0  0  0
 23 24  1  0  0  0
 24 25  2  0  0  0
 25 26  1  0  0  0
 25 27  1  0  0  0
 27 28  2  0  0  0
 21 29  1  0  0  0
 29 30  2  0  0  0
 30 31  1  0  0  0
 31 32  2  0  0  0
 32 33  1  0  0  0
 32 34  1  0  0  0
 34 35  2  0  0  0
  9 10  1  0  0  0
 10 11  1  0  0  0
 10 12  2  0  0  0
 12  6  1  0  0  0
 28 22  1  0  0  0
 35 29  1  0  0  0
 11 13  1  0  0  0
M  END
> <minimizedAffinity>
-7.84528

> <CNNscore>
0.2928622067

> <CNNaffinity>
6.5515761375

> <CNN_VS>
1.9187090397

> <CNNaffinity_variance>
0.1317248046

$$$$
[H]ON([H])C(=O)[C@@]([H])(N(C([H])([H])c1c([H])c([H])c([H])c([H])c1[H])S(=O)(=O)c1c([H])c([H])c(OC([H])([H])[H])c([H])c1[H])C([H])(C([H])([H])[H])C([H])([H])[H]


 29 30  0  0  0  0  0  0  0  0999 V2000
  -18.1981   15.0734  -19.8427 N   0  0  0  0  0  0  0  0  0  0  0  0
  -17.4992   16.2227  -20.9321 S   0  0  0  0  0  0  0  0  0  0  0  0
  -16.2086   16.7005  -20.2966 O   0  0  0  0  0  0  0  0  0  0  0  0
  -18.3654   17.4509  -21.0480 O   0  0  0  0  0  0  0  0  0  0  0  0
  -16.7326   14.7428  -25.1490 C   0  0  0  0  0  0  0  0  0  0  0  0
  -17.9733   15.1583  -24.7480 C   0  0  0  0  0  0  0  0  0  0  0  0
  -18.2222   15.6086  -23.4595 C   0  0  0  0  0  0  0  0  0  0  0  0
  -17.2028   15.6475  -22.5341 C   0  0  0  0  0  0  0  0  0  0  0  0
  -15.9585   15.2262  -22.9539 C   0  0  0  0  0  0  0  0  0  0  0  0
  -15.7000   14.7740  -24.2418 C   0  0  0  0  0  0  0  0  0  0  0  0
  -16.1036   15.1469  -27.4909 C   0  0  0  0  0  0  0  0  0  0  0  0
  -16.4541   14.2869  -26.4329 O   0  0  0  0  0  0  0  0  0  0  0  0
  -18.5180   13.9171  -20.6008 C   0  0  0  0  0  0  0  0  0  0  0  0
  -17.7466   12.7059  -20.2705 C   0  0  0  0  0  0  0  0  0  0  0  0
  -17.1517   12.0149  -21.3369 C   0  0  0  0  0  0  0  0  0  0  0  0
  -16.4170   10.8709  -21.1172 C   0  0  0  0  0  0  0  0  0  0  0  0
  -16.2319   10.3568  -19.8690 C   0  0  0  0  0  0  0  0  0  0  0  0
  -16.8022   11.0123  -18.8109 C   0  0  0  0  0  0  0  0  0  0  0  0
  -17.5416   12.1639  -19.0323 C   0  0  0  0  0  0  0  0  0  0  0  0
  -19.3198   15.6976  -19.1705 C   0  0  0  0  0  0  0  0  0  0  0  0
  -18.7787   16.0459  -17.7723 C   0  0  0  0  0  0  0  0  0  0  0  0
  -18.2780   15.1697  -17.0368 O   0  0  0  0  0  0  0  0  0  0  0  0
  -18.8271   17.3632  -17.2639 N   0  0  0  0  0  0  0  0  0  0  0  0
  -18.3591   17.7020  -16.0454 O   0  0  0  0  0  0  0  0  0  0  0  0
  -19.2471   18.1103  -17.8391 H   0  0  0  0  0  0  0  0  0  0  0  0
  -17.3635   17.5804  -16.0770 H   0  0  0  0  0  0  0  0  0  0  0  0
  -20.5245   14.8931  -18.9433 C   0  0  0  0  0  0  0  0  0  0  0  0
  -21.5404   15.1824  -20.0631 C   0  0  0  0  0  0  0  0  0  0  0  0
  -21.2824   15.3197  -17.6739 C   0  0  0  0  0  0  0  0  0  0  0  0
 11 12  1  0  0  0
 12  5  1  0  0  0
  5  6  2  0  0  0
  6  7  1  0  0  0
  7  8  2  0  0  0
  8  9  1  0  0  0
  9 10  2  0  0  0
  8  2  1  0  0  0
  2  3  2  0  0  0
  2  4  2  0  0  0
  2  1  1  0  0  0
  1 13  1  0  0  0
 13 14  1  0  0  0
 14 15  2  0  0  0
 15 16  1  0  0  0
 16 17  2  0  0  0
 17 18  1  0  0  0
 18 19  2  0  0  0
  1 20  1  0  0  0
 20 27  1  0  0  0
 27 28  1  0  0  0
 27 29  1  0  0  0
 20 21  1  0  0  0
 21 22  2  0  0  0
 21 23  1  0  0  0
 23 24  1  0  0  0
 10  5  1  0  0  0
 19 14  1  0  0  0
 23 25  1  0  0  0
 24 26  1  0  0  0
M  END
> <minimizedAffinity>
-7.64863

> <CNNscore>
0.2433624566

> <CNNaffinity>
6.0223054886

> <CNN_VS>
1.4656031132

> <CNNaffinity_variance>
0.1697227061

$$$$
[H]ON([H])C(=O)[C@@]([H])(N(C([H])([H])c1c([H])c([H])c([H])c([H])c1[H])S(=O)(=O)c1c([H])c([H])c(OC([H])([H])[H])c([H])c1[H])C([H])(C([H])([H])[H])C([H])([H])[H]


 29 30  0  0  0  0  0  0  0  0999 V2000
  -19.7499   16.1255  -20.0048 N   0  0  0  0  0  0  0  0  0  0  0  0
  -20.1669   14.5670  -19.3776 S   0  0  0  0  0  0  0  0  0  0  0  0
  -21.4560   14.1513  -20.0581 O   0  0  0  0  0  0  0  0  0  0  0  0
  -20.4989   14.6484  -17.9095 O   0  0  0  0  0  0  0  0  0  0  0  0
  -17.0301   11.3277  -19.8547 C   0  0  0  0  0  0  0  0  0  0  0  0
  -17.3535   11.8392  -18.6272 C   0  0  0  0  0  0  0  0  0  0  0  0
  -18.3077   12.8339  -18.4682 C   0  0  0  0  0  0  0  0  0  0  0  0
  -18.9650   13.3405  -19.5674 C   0  0  0  0  0  0  0  0  0  0  0  0
  -18.6282   12.8142  -20.7969 C   0  0  0  0  0  0  0  0  0  0  0  0
  -17.6745   11.8182  -20.9657 C   0  0  0  0  0  0  0  0  0  0  0  0
  -15.4046   10.1394  -21.2650 C   0  0  0  0  0  0  0  0  0  0  0  0
  -16.0786   10.3314  -20.0441 O   0  0  0  0  0  0  0  0  0  0  0  0
  -19.9718   16.0873  -21.4061 C   0  0  0  0  0  0  0  0  0  0  0  0
  -20.6201   17.2793  -21.9805 C   0  0  0  0  0  0  0  0  0  0  0  0
  -21.6144   17.9012  -21.2103 C   0  0  0  0  0  0  0  0  0  0  0  0
  -22.2740   19.0179  -21.6739 C   0  0  0  0  0  0  0  0  0  0  0  0
  -21.9992   19.5699  -22.8889 C   0  0  0  0  0  0  0  0  0  0  0  0
  -21.0328   18.9819  -23.6602 C   0  0  0  0  0  0  0  0  0  0  0  0
  -20.3690   17.8579  -23.1934 C   0  0  0  0  0  0  0  0  0  0  0  0
  -18.3918   16.4353  -19.6057 C   0  0  0  0  0  0  0  0  0  0  0  0
  -18.5496   17.5461  -18.5519 C   0  0  0  0  0  0  0  0  0  0  0  0
  -18.7410   18.7333  -18.8887 O   0  0  0  0  0  0  0  0  0  0  0  0
  -18.4829   17.2718  -17.1677 N   0  0  0  0  0  0  0  0  0  0  0  0
  -18.6202   18.2207  -16.2194 O   0  0  0  0  0  0  0  0  0  0  0  0
  -18.3117   16.3036  -16.8534 H   0  0  0  0  0  0  0  0  0  0  0  0
  -19.5692   18.5429  -16.2720 H   0  0  0  0  0  0  0  0  0  0  0  0
  -17.4789   16.9735  -20.6193 C   0  0  0  0  0  0  0  0  0  0  0  0
  -16.8796   15.8071  -21.4255 C   0  0  0  0  0  0  0  0  0  0  0  0
  -16.2366   17.6342  -19.9964 C   0  0  0  0  0  0  0  0  0  0  0  0
 11 12  1  0  0  0
 12  5  1  0  0  0
  5  6  2  0  0  0
  6  7  1  0  0  0
  7  8  2  0  0  0
  8  9  1  0  0  0
  9 10  2  0  0  0
  8  2  1  0  0  0
  2  3  2  0  0  0
  2  4  2  0  0  0
  2  1  1  0  0  0
  1 13  1  0  0  0
 13 14  1  0  0  0
 14 15  2  0  0  0
 15 16  1  0  0  0
 16 17  2  0  0  0
 17 18  1  0  0  0
 18 19  2  0  0  0
  1 20  1  0  0  0
 20 27  1  0  0  0
 27 28  1  0  0  0
 27 29  1  0  0  0
 20 21  1  0  0  0
 21 22  2  0  0  0
 21 23  1  0  0  0
 23 24  1  0  0  0
 10  5  1  0  0  0
 19 14  1  0  0  0
 23 25  1  0  0  0
 24 26  1  0  0  0
M  END
> <minimizedAffinity>
-6.48629

> <CNNscore>
0.2211044282

> <CNNaffinity>
5.6371655464

> <CNN_VS>
1.2464022636

> <CNNaffinity_variance>
0.1481597871

$$$$
[H]ON([H])C(=O)[C@@]([H])(N(C([H])([H])c1c([H])c([H])c([H])c([H])c1[H])S(=O)(=O)c1c([H])c([H])c(OC([H])([H])[H])c([H])c1[H])C([H])(C([H])([H])[H])C([H])([H])[H]


 29 30  0  0  0  0  0  0  0  0999 V2000
  -19.8997   15.7526  -18.8511 N   0  0  0  0  0  0  0  0  0  0  0  0
  -20.3481   14.0846  -18.9651 S   0  0  0  0  0  0  0  0  0  0  0  0
  -21.4150   13.9898  -20.0376 O   0  0  0  0  0  0  0  0  0  0  0  0
  -21.0151   13.6182  -17.6963 O   0  0  0  0  0  0  0  0  0  0  0  0
  -16.9465   11.2267  -19.8716 C   0  0  0  0  0  0  0  0  0  0  0  0
  -17.7087   11.7749  -20.8673 C   0  0  0  0  0  0  0  0  0  0  0  0
  -18.7553   12.6466  -20.6031 C   0  0  0  0  0  0  0  0  0  0  0  0
  -19.0576   12.9867  -19.3031 C   0  0  0  0  0  0  0  0  0  0  0  0
  -18.2799   12.4263  -18.3115 C   0  0  0  0  0  0  0  0  0  0  0  0
  -17.2301   11.5530  -18.5666 C   0  0  0  0  0  0  0  0  0  0  0  0
  -15.2876   10.2027  -21.3693 C   0  0  0  0  0  0  0  0  0  0  0  0
  -15.8922   10.3508  -20.1066 O   0  0  0  0  0  0  0  0  0  0  0  0
  -20.9352   16.4183  -18.1446 C   0  0  0  0  0  0  0  0  0  0  0  0
  -20.5388   17.0351  -16.8666 C   0  0  0  0  0  0  0  0  0  0  0  0
  -21.3785   16.8189  -15.7635 C   0  0  0  0  0  0  0  0  0  0  0  0
  -21.0847   17.3627  -14.5327 C   0  0  0  0  0  0  0  0  0  0  0  0
  -19.9777   18.1293  -14.3245 C   0  0  0  0  0  0  0  0  0  0  0  0
  -19.1417   18.3556  -15.3849 C   0  0  0  0  0  0  0  0  0  0  0  0
  -19.4377   17.8081  -16.6237 C   0  0  0  0  0  0  0  0  0  0  0  0
  -19.6456   16.2545  -20.1865 C   0  0  0  0  0  0  0  0  0  0  0  0
  -18.1151   16.4047  -20.2508 C   0  0  0  0  0  0  0  0  0  0  0  0
  -17.4332   15.7320  -21.0521 O   0  0  0  0  0  0  0  0  0  0  0  0
  -17.4208   17.3029  -19.4100 N   0  0  0  0  0  0  0  0  0  0  0  0
  -16.0819   17.4607  -19.4434 O   0  0  0  0  0  0  0  0  0  0  0  0
  -17.9511   17.8649  -18.7256 H   0  0  0  0  0  0  0  0  0  0  0  0
  -15.8644   17.8741  -20.3316 H   0  0  0  0  0  0  0  0  0  0  0  0
  -20.1911   17.5670  -20.5474 C   0  0  0  0  0  0  0  0  0  0  0  0
  -21.6356   17.3899  -21.0490 C   0  0  0  0  0  0  0  0  0  0  0  0
  -19.4782   18.1825  -21.7642 C   0  0  0  0  0  0  0  0  0  0  0  0
 11 12  1  0  0  0
 12  5  1  0  0  0
  5  6  2  0  0  0
  6  7  1  0  0  0
  7  8  2  0  0  0
  8  9  1  0  0  0
  9 10  2  0  0  0
  8  2  1  0  0  0
  2  3  2  0  0  0
  2  4  2  0  0  0
  2  1  1  0  0  0
  1 13  1  0  0  0
 13 14  1  0  0  0
 14 15  2  0  0  0
 15 16  1  0  0  0
 16 17  2  0  0  0
 17 18  1  0  0  0
 18 19  2  0  0  0
  1 20  1  0  0  0
 20 27  1  0  0  0
 27 28  1  0  0  0
 27 29  1  0  0  0
 20 21  1  0  0  0
 21 22  2  0  0  0
 21 23  1  0  0  0
 23 24  1  0  0  0
 10  5  1  0  0  0
 19 14  1  0  0  0
 23 25  1  0  0  0
 24 26  1  0  0  0
M  END
> <minimizedAffinity>
-6.50555

> <CNNscore>
0.2206801474

> <CNNaffinity>
5.5336303711

> <CNN_VS>
1.2211623192

> <CNNaffinity_variance>
0.1344998181

$$$$
[H]ON([H])C(=O)[C@@]([H])(N(C([H])([H])c1c([H])c([H])c([H])c([H])c1[H])S(=O)(=O)c1c([H])c([H])c(OC([H])([H])[H])c([H])c1[H])C([H])(C([H])([H])[H])C([H])([H])[H]


 29 30  0  0  0  0  0  0  0  0999 V2000
  -18.3767   15.0451  -21.6912 N   0  0  0  0  0  0  0  0  0  0  0  0
  -18.6761   14.0310  -20.3207 S   0  0  0  0  0  0  0  0  0  0  0  0
  -17.3705   13.3306  -20.0002 O   0  0  0  0  0  0  0  0  0  0  0  0
  -19.6452   12.9295  -20.6671 O   0  0  0  0  0  0  0  0  0  0  0  0
  -20.2571   16.1621  -16.6439 C   0  0  0  0  0  0  0  0  0  0  0  0
  -18.9436   15.7931  -16.7511 C   0  0  0  0  0  0  0  0  0  0  0  0
  -18.4484   15.1363  -17.8684 C   0  0  0  0  0  0  0  0  0  0  0  0
  -19.2872   14.8335  -18.9180 C   0  0  0  0  0  0  0  0  0  0  0  0
  -20.6075   15.2124  -18.7949 C   0  0  0  0  0  0  0  0  0  0  0  0
  -21.1121   15.8705  -17.6803 C   0  0  0  0  0  0  0  0  0  0  0  0
  -20.0736   17.8124  -14.8312 C   0  0  0  0  0  0  0  0  0  0  0  0
  -20.7810   16.8208  -15.5370 O   0  0  0  0  0  0  0  0  0  0  0  0
  -17.1043   14.6874  -22.2082 C   0  0  0  0  0  0  0  0  0  0  0  0
  -17.0616   14.4033  -23.6534 C   0  0  0  0  0  0  0  0  0  0  0  0
  -17.5524   13.1588  -24.0762 C   0  0  0  0  0  0  0  0  0  0  0  0
  -17.5455   12.8106  -25.4087 C   0  0  0  0  0  0  0  0  0  0  0  0
  -17.0678   13.6456  -26.3736 C   0  0  0  0  0  0  0  0  0  0  0  0
  -16.5829   14.8663  -25.9874 C   0  0  0  0  0  0  0  0  0  0  0  0
  -16.5900   15.2166  -24.6460 C   0  0  0  0  0  0  0  0  0  0  0  0
  -18.5060   16.4282  -21.2788 C   0  0  0  0  0  0  0  0  0  0  0  0
  -19.5837   17.0043  -22.2147 C   0  0  0  0  0  0  0  0  0  0  0  0
  -19.3902   17.0928  -23.4452 O   0  0  0  0  0  0  0  0  0  0  0  0
  -20.8290   17.4566  -21.7242 N   0  0  0  0  0  0  0  0  0  0  0  0
  -21.7951   17.9632  -22.5170 O   0  0  0  0  0  0  0  0  0  0  0  0
  -21.0178   17.4115  -20.7103 H   0  0  0  0  0  0  0  0  0  0  0  0
  -22.1166   17.2083  -23.0947 H   0  0  0  0  0  0  0  0  0  0  0  0
  -17.3400   17.3052  -21.4251 C   0  0  0  0  0  0  0  0  0  0  0  0
  -16.3853   17.0735  -20.2400 C   0  0  0  0  0  0  0  0  0  0  0  0
  -17.7057   18.7933  -21.2853 C   0  0  0  0  0  0  0  0  0  0  0  0
 11 12  1  0  0  0
 12  5  1  0  0  0
  5  6  2  0  0  0
  6  7  1  0  0  0
  7  8  2  0  0  0
  8  9  1  0  0  0
  9 10  2  0  0  0
  8  2  1  0  0  0
  2  3  2  0  0  0
  2  4  2  0  0  0
  2  1  1  0  0  0
  1 13  1  0  0  0
 13 14  1  0  0  0
 14 15  2  0  0  0
 15 16  1  0  0  0
 16 17  2  0  0  0
 17 18  1  0  0  0
 18 19  2  0  0  0
  1 20  1  0  0  0
 20 27  1  0  0  0
 27 28  1  0  0  0
 27 29  1  0  0  0
 20 21  1  0  0  0
 21 22  2  0  0  0
 21 23  1  0  0  0
 23 24  1  0  0  0
 10  5  1  0  0  0
 19 14  1  0  0  0
 23 25  1  0  0  0
 24 26  1  0  0  0
M  END
> <minimizedAffinity>
-6.03827

> <CNNscore>
0.2171879858

> <CNNaffinity>
5.6438717842

> <CNN_VS>
1.2257812023

> <CNNaffinity_variance>
0.3135617077

$$$$
[H]ON([H])C(=O)[C@@]([H])(N(C([H])([H])c1c([H])c([H])c([H])c([H])c1[H])S(=O)(=O)c1c([H])c([H])c(OC([H])([H])[H])c([H])c1[H])C([H])(C([H])([H])[H])C([H])([H])[H]


 29 30  0  0  0  0  0  0  0  0999 V2000
  -20.5530    8.8754  -13.5456 N   0  0  0  0  0  0  0  0  0  0  0  0
  -22.1530    9.2744  -13.0196 S   0  0  0  0  0  0  0  0  0  0  0  0
  -22.3293    8.6581  -11.6459 O   0  0  0  0  0  0  0  0  0  0  0  0
  -23.1880    8.6097  -13.8909 O   0  0  0  0  0  0  0  0  0  0  0  0
  -23.1581   13.6946  -12.9104 C   0  0  0  0  0  0  0  0  0  0  0  0
  -23.2129   12.9740  -14.0725 C   0  0  0  0  0  0  0  0  0  0  0  0
  -22.9031   11.6224  -14.1204 C   0  0  0  0  0  0  0  0  0  0  0  0
  -22.5242   10.9612  -12.9731 C   0  0  0  0  0  0  0  0  0  0  0  0
  -22.4744   11.7012  -11.8104 C   0  0  0  0  0  0  0  0  0  0  0  0
  -22.7830   13.0545  -11.7530 C   0  0  0  0  0  0  0  0  0  0  0  0
  -23.0356   15.9858  -13.7929 C   0  0  0  0  0  0  0  0  0  0  0  0
  -23.4627   15.0492  -12.8326 O   0  0  0  0  0  0  0  0  0  0  0  0
  -19.6799    9.8639  -13.0213 C   0  0  0  0  0  0  0  0  0  0  0  0
  -18.9696    9.4943  -11.7844 C   0  0  0  0  0  0  0  0  0  0  0  0
  -18.8995   10.4633  -10.7722 C   0  0  0  0  0  0  0  0  0  0  0  0
  -18.2506   10.2021   -9.5857 C   0  0  0  0  0  0  0  0  0  0  0  0
  -17.6504    9.0047   -9.3362 C   0  0  0  0  0  0  0  0  0  0  0  0
  -17.7044    8.0417  -10.3079 C   0  0  0  0  0  0  0  0  0  0  0  0
  -18.3577    8.3048  -11.5020 C   0  0  0  0  0  0  0  0  0  0  0  0
  -20.5568    8.7625  -14.9902 C   0  0  0  0  0  0  0  0  0  0  0  0
  -20.2391    7.2800  -15.2561 C   0  0  0  0  0  0  0  0  0  0  0  0
  -20.8799    6.6242  -16.1039 O   0  0  0  0  0  0  0  0  0  0  0  0
  -19.2170    6.6020  -14.5552 N   0  0  0  0  0  0  0  0  0  0  0  0
  -18.9115    5.3056  -14.7664 O   0  0  0  0  0  0  0  0  0  0  0  0
  -18.6763    7.1094  -13.8370 H   0  0  0  0  0  0  0  0  0  0  0  0
  -18.5331    5.2480  -15.6940 H   0  0  0  0  0  0  0  0  0  0  0  0
  -19.5591    9.5263  -15.7462 C   0  0  0  0  0  0  0  0  0  0  0  0
  -20.2648   10.6711  -16.4952 C   0  0  0  0  0  0  0  0  0  0  0  0
  -18.9337    8.7042  -16.8867 C   0  0  0  0  0  0  0  0  0  0  0  0
 11 12  1  0  0  0
 12  5  1  0  0  0
  5  6  2  0  0  0
  6  7  1  0  0  0
  7  8  2  0  0  0
  8  9  1  0  0  0
  9 10  2  0  0  0
  8  2  1  0  0  0
  2  3  2  0  0  0
  2  4  2  0  0  0
  2  1  1  0  0  0
  1 13  1  0  0  0
 13 14  1  0  0  0
 14 15  2  0  0  0
 15 16  1  0  0  0
 16 17  2  0  0  0
 17 18  1  0  0  0
 18 19  2  0  0  0
  1 20  1  0  0  0
 20 27  1  0  0  0
 27 28  1  0  0  0
 27 29  1  0  0  0
 20 21  1  0  0  0
 21 22  2  0  0  0
 21 23  1  0  0  0
 23 24  1  0  0  0
 10  5  1  0  0  0
 19 14  1  0  0  0
 23 25  1  0  0  0
 24 26  1  0  0  0
M  END
> <minimizedAffinity>
-5.24919

> <CNNscore>
0.1897650808

> <CNNaffinity>
4.5549917221

> <CNN_VS>
0.8643783927

> <CNNaffinity_variance>
0.2382498533

$$$$
[H]ON([H])C(=O)[C@@]([H])(N(C([H])([H])c1c([H])c([H])c([H])c([H])c1[H])S(=O)(=O)c1c([H])c([H])c(OC([H])([H])[H])c([H])c1[H])C([H])(C([H])([H])[H])C([H])([H])[H]


 29 30  0  0  0  0  0  0  0  0999 V2000
  -21.2872    9.7093  -13.7880 N   0  0  0  0  0  0  0  0  0  0  0  0
  -21.5884   10.4530  -15.3218 S   0  0  0  0  0  0  0  0  0  0  0  0
  -22.0746   11.8605  -15.0385 O   0  0  0  0  0  0  0  0  0  0  0  0
  -22.7287    9.7729  -16.0355 O   0  0  0  0  0  0  0  0  0  0  0  0
  -18.0530   10.5711  -18.1586 C   0  0  0  0  0  0  0  0  0  0  0  0
  -18.8050   11.6852  -17.9013 C   0  0  0  0  0  0  0  0  0  0  0  0
  -19.8920   11.6612  -17.0394 C   0  0  0  0  0  0  0  0  0  0  0  0
  -20.2468   10.4887  -16.4099 C   0  0  0  0  0  0  0  0  0  0  0  0
  -19.4788    9.3753  -16.6792 C   0  0  0  0  0  0  0  0  0  0  0  0
  -18.3888    9.3899  -17.5404 C   0  0  0  0  0  0  0  0  0  0  0  0
  -17.0298   10.0987  -20.3433 C   0  0  0  0  0  0  0  0  0  0  0  0
  -16.9590   10.5655  -19.0171 O   0  0  0  0  0  0  0  0  0  0  0  0
  -20.0666   10.2410  -13.2961 C   0  0  0  0  0  0  0  0  0  0  0  0
  -20.0864   10.6857  -11.8915 C   0  0  0  0  0  0  0  0  0  0  0  0
  -21.1268   11.5447  -11.5063 C   0  0  0  0  0  0  0  0  0  0  0  0
  -21.2177   12.0113  -10.2137 C   0  0  0  0  0  0  0  0  0  0  0  0
  -20.3137   11.6679   -9.2538 C   0  0  0  0  0  0  0  0  0  0  0  0
  -19.2885   10.8306   -9.6039 C   0  0  0  0  0  0  0  0  0  0  0  0
  -19.1973   10.3610  -10.9051 C   0  0  0  0  0  0  0  0  0  0  0  0
  -21.3056    8.2708  -13.9610 C   0  0  0  0  0  0  0  0  0  0  0  0
  -22.5699    7.8143  -13.2110 C   0  0  0  0  0  0  0  0  0  0  0  0
  -23.2242    6.8216  -13.5929 O   0  0  0  0  0  0  0  0  0  0  0  0
  -23.0420    8.4959  -12.0672 N   0  0  0  0  0  0  0  0  0  0  0  0
  -24.1434    8.1202  -11.3858 O   0  0  0  0  0  0  0  0  0  0  0  0
  -22.5337    9.3294  -11.7316 H   0  0  0  0  0  0  0  0  0  0  0  0
  -23.9320    7.2334  -10.9664 H   0  0  0  0  0  0  0  0  0  0  0  0
  -20.2010    7.4917  -13.3925 C   0  0  0  0  0  0  0  0  0  0  0  0
  -19.9115    6.2886  -14.3080 C   0  0  0  0  0  0  0  0  0  0  0  0
  -20.5811    6.8245  -12.0590 C   0  0  0  0  0  0  0  0  0  0  0  0
 11 12  1  0  0  0
 12  5  1  0  0  0
  5  6  2  0  0  0
  6  7  1  0  0  0
  7  8  2  0  0  0
  8  9  1  0  0  0
  9 10  2  0  0  0
  8  2  1  0  0  0
  2  3  2  0  0  0
  2  4  2  0  0  0
  2  1  1  0  0  0
  1 13  1  0  0  0
 13 14  1  0  0  0
 14 15  2  0  0  0
 15 16  1  0  0  0
 16 17  2  0  0  0
 17 18  1  0  0  0
 18 19  2  0  0  0
  1 20  1  0  0  0
 20 27  1  0  0  0
 27 28  1  0  0  0
 27 29  1  0  0  0
 20 21  1  0  0  0
 21 22  2  0  0  0
 21 23  1  0  0  0
 23 24  1  0  0  0
 10  5  1  0  0  0
 19 14  1  0  0  0
 23 25  1  0  0  0
 24 26  1  0  0  0
M  END
> <minimizedAffinity>
-5.37015

> <CNNscore>
0.1847222000

> <CNNaffinity>
4.6658539772

> <CNN_VS>
0.8618867993

> <CNNaffinity_variance>
0.1479541510

$$$$
[H]ON([H])C(=O)[C@@]([H])(N(C([H])([H])c1c([H])c([H])c([H])c([H])c1[H])S(=O)(=O)c1c([H])c([H])c(OC([H])([H])[H])c([H])c1[H])C([H])(C([H])([H])[H])C([H])([H])[H]


 29 30  0  0  0  0  0  0  0  0999 V2000
  -17.9627   14.8625  -20.0632 N   0  0  0  0  0  0  0  0  0  0  0  0
  -17.0953   16.0892  -20.9229 S   0  0  0  0  0  0  0  0  0  0  0  0
  -16.1199   15.3764  -21.8384 O   0  0  0  0  0  0  0  0  0  0  0  0
  -16.2405   16.9025  -19.9847 O   0  0  0  0  0  0  0  0  0  0  0  0
  -19.6174   19.0102  -23.3035 C   0  0  0  0  0  0  0  0  0  0  0  0
  -18.7328   19.4360  -22.3501 C   0  0  0  0  0  0  0  0  0  0  0  0
  -17.9590   18.5525  -21.6114 C   0  0  0  0  0  0  0  0  0  0  0  0
  -18.0671   17.1962  -21.8258 C   0  0  0  0  0  0  0  0  0  0  0  0
  -18.9624   16.7833  -22.7902 C   0  0  0  0  0  0  0  0  0  0  0  0
  -19.7410   17.6606  -23.5346 C   0  0  0  0  0  0  0  0  0  0  0  0
  -21.7907   19.6897  -24.2300 C   0  0  0  0  0  0  0  0  0  0  0  0
  -20.4054   19.8721  -24.0585 O   0  0  0  0  0  0  0  0  0  0  0  0
  -18.1745   13.7876  -20.9655 C   0  0  0  0  0  0  0  0  0  0  0  0
  -17.6498   12.4805  -20.5326 C   0  0  0  0  0  0  0  0  0  0  0  0
  -16.7978   11.8066  -21.4205 C   0  0  0  0  0  0  0  0  0  0  0  0
  -16.2666   10.5778  -21.0968 C   0  0  0  0  0  0  0  0  0  0  0  0
  -16.5372    9.9602  -19.9128 C   0  0  0  0  0  0  0  0  0  0  0  0
  -17.3662   10.5969  -19.0285 C   0  0  0  0  0  0  0  0  0  0  0  0
  -17.9007   11.8338  -19.3545 C   0  0  0  0  0  0  0  0  0  0  0  0
  -19.1676   15.4493  -19.5124 C   0  0  0  0  0  0  0  0  0  0  0  0
  -18.9453   15.4142  -17.9897 C   0  0  0  0  0  0  0  0  0  0  0  0
  -18.3004   14.4897  -17.4523 O   0  0  0  0  0  0  0  0  0  0  0  0
  -19.4599   16.4192  -17.1405 N   0  0  0  0  0  0  0  0  0  0  0  0
  -19.2803   16.4197  -15.8039 O   0  0  0  0  0  0  0  0  0  0  0  0
  -20.0100   17.1912  -17.5490 H   0  0  0  0  0  0  0  0  0  0  0  0
  -18.3000   16.5656  -15.6468 H   0  0  0  0  0  0  0  0  0  0  0  0
  -20.4411   14.7607  -19.7458 C   0  0  0  0  0  0  0  0  0  0  0  0
  -21.5146   15.8011  -20.1129 C   0  0  0  0  0  0  0  0  0  0  0  0
  -21.0053   14.1233  -18.4639 C   0  0  0  0  0  0  0  0  0  0  0  0
 11 12  1  0  0  0
 12  5  1  0  0  0
  5  6  2  0  0  0
  6  7  1  0  0  0
  7  8  2  0  0  0
  8  9  1  0  0  0
  9 10  2  0  0  0
  8  2  1  0  0  0
  2  3  2  0  0  0
  2  4  2  0  0  0
  2  1  1  0  0  0
  1 13  1  0  0  0
 13 14  1  0  0  0
 14 15  2  0  0  0
 15 16  1  0  0  0
 16 17  2  0  0  0
 17 18  1  0  0  0
 18 19  2  0  0  0
  1 20  1  0  0  0
 20 27  1  0  0  0
 27 28  1  0  0  0
 27 29  1  0  0  0
 20 21  1  0  0  0
 21 22  2  0  0  0
 21 23  1  0  0  0
 23 24  1  0  0  0
 10  5  1  0  0  0
 19 14  1  0  0  0
 23 25  1  0  0  0
 24 26  1  0  0  0
M  END
> <minimizedAffinity>
-7.17981

> <CNNscore>
0.1734313518

> <CNNaffinity>
5.4551000595

> <CNN_VS>
0.9460853934

> <CNNaffinity_variance>
0.7209637165

$$$$
[H]ON([H])C(=O)[C@@]([H])(N(C([H])([H])c1c([H])c([H])c([H])c([H])c1[H])S(=O)(=O)c1c([H])c([H])c(OC([H])([H])[H])c([H])c1[H])C([H])(C([H])([H])[H])C([H])([H])[H]


 29 30  0  0  0  0  0  0  0  0999 V2000
  -18.6153   14.8803  -20.9915 N   0  0  0  0  0  0  0  0  0  0  0  0
  -20.0134   15.5359  -20.2095 S   0  0  0  0  0  0  0  0  0  0  0  0
  -20.9912   14.3918  -20.0281 O   0  0  0  0  0  0  0  0  0  0  0  0
  -20.7172   16.5243  -21.1039 O   0  0  0  0  0  0  0  0  0  0  0  0
  -19.2765   17.6234  -16.2522 C   0  0  0  0  0  0  0  0  0  0  0  0
  -19.1994   18.2934  -17.4431 C   0  0  0  0  0  0  0  0  0  0  0  0
  -19.4178   17.6653  -18.6608 C   0  0  0  0  0  0  0  0  0  0  0  0
  -19.7232   16.3228  -18.6990 C   0  0  0  0  0  0  0  0  0  0  0  0
  -19.7976   15.6622  -17.4906 C   0  0  0  0  0  0  0  0  0  0  0  0
  -19.5808   16.2827  -16.2667 C   0  0  0  0  0  0  0  0  0  0  0  0
  -20.0248   18.2275  -13.9898 C   0  0  0  0  0  0  0  0  0  0  0  0
  -19.0628   18.2264  -15.0175 O   0  0  0  0  0  0  0  0  0  0  0  0
  -17.7709   14.3611  -19.9758 C   0  0  0  0  0  0  0  0  0  0  0  0
  -17.5592   12.9033  -20.0077 C   0  0  0  0  0  0  0  0  0  0  0  0
  -17.7226   12.2059  -18.8013 C   0  0  0  0  0  0  0  0  0  0  0  0
  -17.5394   10.8421  -18.7415 C   0  0  0  0  0  0  0  0  0  0  0  0
  -17.1943   10.1084  -19.8365 C   0  0  0  0  0  0  0  0  0  0  0  0
  -17.0286   10.7651  -21.0263 C   0  0  0  0  0  0  0  0  0  0  0  0
  -17.2131   12.1378  -21.0863 C   0  0  0  0  0  0  0  0  0  0  0  0
  -18.0213   15.9128  -21.8165 C   0  0  0  0  0  0  0  0  0  0  0  0
  -18.2696   15.4361  -23.2589 C   0  0  0  0  0  0  0  0  0  0  0  0
  -18.9224   16.1309  -24.0654 O   0  0  0  0  0  0  0  0  0  0  0  0
  -17.7743   14.1990  -23.7280 N   0  0  0  0  0  0  0  0  0  0  0  0
  -17.9711   13.7538  -24.9857 O   0  0  0  0  0  0  0  0  0  0  0  0
  -17.2422   13.5923  -23.0843 H   0  0  0  0  0  0  0  0  0  0  0  0
  -17.4595   14.3695  -25.5907 H   0  0  0  0  0  0  0  0  0  0  0  0
  -16.5755   16.1345  -21.7127 C   0  0  0  0  0  0  0  0  0  0  0  0
  -16.3027   17.1516  -20.5899 C   0  0  0  0  0  0  0  0  0  0  0  0
  -15.9997   16.8337  -22.9566 C   0  0  0  0  0  0  0  0  0  0  0  0
 11 12  1  0  0  0
 12  5  1  0  0  0
  5  6  2  0  0  0
  6  7  1  0  0  0
  7  8  2  0  0  0
  8  9  1  0  0  0
  9 10  2  0  0  0
  8  2  1  0  0  0
  2  3  2  0  0  0
  2  4  2  0  0  0
  2  1  1  0  0  0
  1 13  1  0  0  0
 13 14  1  0  0  0
 14 15  2  0  0  0
 15 16  1  0  0  0
 16 17  2  0  0  0
 17 18  1  0  0  0
 18 19  2  0  0  0
  1 20  1  0  0  0
 20 27  1  0  0  0
 27 28  1  0  0  0
 27 29  1  0  0  0
 20 21  1  0  0  0
 21 22  2  0  0  0
 21 23  1  0  0  0
 23 24  1  0  0  0
 10  5  1  0  0  0
 19 14  1  0  0  0
 23 25  1  0  0  0
 24 26  1  0  0  0
M  END
> <minimizedAffinity>
-7.00431

> <CNNscore>
0.1588529199

> <CNNaffinity>
5.5501403809

> <CNN_VS>
0.8816559911

> <CNNaffinity_variance>
0.2037237138

$$$$
[H]ON([H])C(=O)[C@@]([H])(N(C([H])([H])c1c([H])c([H])c([H])c([H])c1[H])S(=O)(=O)c1c([H])c([H])c(OC([H])([H])[H])c([H])c1[H])C([H])(C([H])([H])[H])C([H])([H])[H]


 29 30  0  0  0  0  0  0  0  0999 V2000
  -20.5111    9.1848  -13.5666 N   0  0  0  0  0  0  0  0  0  0  0  0
  -20.3177    8.5066  -15.1473 S   0  0  0  0  0  0  0  0  0  0  0  0
  -21.6920    8.0575  -15.6028 O   0  0  0  0  0  0  0  0  0  0  0  0
  -19.4841    7.2516  -15.0968 O   0  0  0  0  0  0  0  0  0  0  0  0
  -18.4588   11.2259  -18.2635 C   0  0  0  0  0  0  0  0  0  0  0  0
  -18.0396    9.9340  -18.0956 C   0  0  0  0  0  0  0  0  0  0  0  0
  -18.5965    9.0933  -17.1426 C   0  0  0  0  0  0  0  0  0  0  0  0
  -19.6063    9.5512  -16.3254 C   0  0  0  0  0  0  0  0  0  0  0  0
  -20.0177   10.8549  -16.5075 C   0  0  0  0  0  0  0  0  0  0  0  0
  -19.4661   11.7036  -17.4590 C   0  0  0  0  0  0  0  0  0  0  0  0
  -17.2713   11.6408  -20.3756 C   0  0  0  0  0  0  0  0  0  0  0  0
  -17.9194   12.0906  -19.2096 O   0  0  0  0  0  0  0  0  0  0  0  0
  -19.9613    8.2586  -12.6423 C   0  0  0  0  0  0  0  0  0  0  0  0
  -19.0820    8.8353  -11.6102 C   0  0  0  0  0  0  0  0  0  0  0  0
  -18.0805    8.0048  -11.0850 C   0  0  0  0  0  0  0  0  0  0  0  0
  -17.2182    8.4627  -10.1136 C   0  0  0  0  0  0  0  0  0  0  0  0
  -17.2916    9.7298   -9.6181 C   0  0  0  0  0  0  0  0  0  0  0  0
  -18.2604   10.5607  -10.1139 C   0  0  0  0  0  0  0  0  0  0  0  0
  -19.1283   10.0994  -11.0916 C   0  0  0  0  0  0  0  0  0  0  0  0
  -21.9121    9.4953  -13.3659 C   0  0  0  0  0  0  0  0  0  0  0  0
  -22.0178   10.9972  -13.6860 C   0  0  0  0  0  0  0  0  0  0  0  0
  -21.2835   11.8320  -13.1171 O   0  0  0  0  0  0  0  0  0  0  0  0
  -22.9455   11.4923  -14.6294 N   0  0  0  0  0  0  0  0  0  0  0  0
  -23.0611   12.8007  -14.9349 O   0  0  0  0  0  0  0  0  0  0  0  0
  -23.5781   10.8321  -15.1085 H   0  0  0  0  0  0  0  0  0  0  0  0
  -22.2096   13.0633  -15.3965 H   0  0  0  0  0  0  0  0  0  0  0  0
  -22.4702    9.3340  -12.0195 C   0  0  0  0  0  0  0  0  0  0  0  0
  -23.2216    7.9925  -11.9447 C   0  0  0  0  0  0  0  0  0  0  0  0
  -23.5736   10.3627  -11.7161 C   0  0  0  0  0  0  0  0  0  0  0  0
 11 12  1  0  0  0
 12  5  1  0  0  0
  5  6  2  0  0  0
  6  7  1  0  0  0
  7  8  2  0  0  0
  8  9  1  0  0  0
  9 10  2  0  0  0
  8  2  1  0  0  0
  2  3  2  0  0  0
  2  4  2  0  0  0
  2  1  1  0  0  0
  1 13  1  0  0  0
 13 14  1  0  0  0
 14 15  2  0  0  0
 15 16  1  0  0  0
 16 17  2  0  0  0
 17 18  1  0  0  0
 18 19  2  0  0  0
  1 20  1  0  0  0
 20 27  1  0  0  0
 27 28  1  0  0  0
 27 29  1  0  0  0
 20 21  1  0  0  0
 21 22  2  0  0  0
 21 23  1  0  0  0
 23 24  1  0  0  0
 10  5  1  0  0  0
 19 14  1  0  0  0
 23 25  1  0  0  0
 24 26  1  0  0  0
M  END
> <minimizedAffinity>
-5.99760

> <CNNscore>
0.1529117972

> <CNNaffinity>
4.6217923164

> <CNN_VS>
0.7067265511

> <CNNaffinity_variance>
0.2799722552

$$$$
[H]c1c([H])c([H])c(-c2c([H])c([H])c(C3([H])C(=O)N([H])C(=O)C(C([H])([H])[H])=C3c3c([H])c([H])c(C(F)(F)F)c([H])c3[H])c([H])c2[H])c([H])c1[H]


 32 35  0  0  0  0  0  0  0  0999 V2000
  -20.4712   11.8277  -16.6724 C   0  0  0  0  0  0  0  0  0  0  0  0
  -19.4577   11.3885  -17.7299 C   0  0  0  0  0  0  0  0  0  0  0  0
  -19.0977   12.3162  -18.6654 C   0  0  0  0  0  0  0  0  0  0  0  0
  -18.1745   11.8457  -19.6643 C   0  0  0  0  0  0  0  0  0  0  0  0
  -17.1262   10.9321  -19.1596 C   0  0  0  0  0  0  0  0  0  0  0  0
  -15.9280   10.9712  -19.4958 O   0  0  0  0  0  0  0  0  0  0  0  0
  -17.5474    9.9119  -18.2166 N   0  0  0  0  0  0  0  0  0  0  0  0
  -18.7338   10.1589  -17.4804 C   0  0  0  0  0  0  0  0  0  0  0  0
  -19.1462    9.3036  -16.6126 O   0  0  0  0  0  0  0  0  0  0  0  0
  -16.9837    9.0356  -18.1015 H   0  0  0  0  0  0  0  0  0  0  0  0
  -17.7539   12.6169  -20.7924 C   0  0  0  0  0  0  0  0  0  0  0  0
  -17.5911   11.9627  -22.0216 C   0  0  0  0  0  0  0  0  0  0  0  0
  -17.0677   12.5951  -23.1063 C   0  0  0  0  0  0  0  0  0  0  0  0
  -16.6533   13.9583  -23.0476 C   0  0  0  0  0  0  0  0  0  0  0  0
  -16.8352   14.5431  -21.8390 C   0  0  0  0  0  0  0  0  0  0  0  0
  -17.3714   13.9252  -20.7043 C   0  0  0  0  0  0  0  0  0  0  0  0
  -16.0335   14.5342  -24.2277 C   0  0  0  0  0  0  0  0  0  0  0  0
  -14.6442   14.5046  -24.2682 C   0  0  0  0  0  0  0  0  0  0  0  0
  -13.9491   15.0262  -25.3381 C   0  0  0  0  0  0  0  0  0  0  0  0
  -14.6281   15.5994  -26.4108 C   0  0  0  0  0  0  0  0  0  0  0  0
  -16.0020   15.6211  -26.3762 C   0  0  0  0  0  0  0  0  0  0  0  0
  -16.6905   15.0944  -25.2905 C   0  0  0  0  0  0  0  0  0  0  0  0
  -19.7126   13.6458  -18.4800 C   0  0  0  0  0  0  0  0  0  0  0  0
  -20.8266   14.0930  -19.1433 C   0  0  0  0  0  0  0  0  0  0  0  0
  -21.2726   15.4019  -18.9849 C   0  0  0  0  0  0  0  0  0  0  0  0
  -20.6147   16.2743  -18.1590 C   0  0  0  0  0  0  0  0  0  0  0  0
  -19.4905   15.8224  -17.4878 C   0  0  0  0  0  0  0  0  0  0  0  0
  -19.0713   14.5244  -17.6714 C   0  0  0  0  0  0  0  0  0  0  0  0
  -21.0354   17.7290  -18.0096 C   0  0  0  0  0  0  0  0  0  0  0  0
  -22.1501   17.8869  -17.2557 F   0  0  0  0  0  0  0  0  0  0  0  0
  -21.3028   18.1768  -19.3060 F   0  0  0  0  0  0  0  0  0  0  0  0
  -19.9365   18.4221  -17.5120 F   0  0  0  0  0  0  0  0  0  0  0  0
  1  2  1  0  0  0
  2  3  2  0  0  0
  3  4  1  0  0  0
  4  5  1  0  0  0
  5  6  2  0  0  0
  5  7  1  0  0  0
  7  8  1  0  0  0
  8  9  2  0  0  0
  4 11  1  0  0  0
 11 12  2  0  0  0
 12 13  1  0  0  0
 13 14  2  0  0  0
 14 15  1  0  0  0
 15 16  2  0  0  0
 14 17  1  0  0  0
 17 18  2  0  0  0
 18 19  1  0  0  0
 19 20  2  0  0  0
 20 21  1  0  0  0
 21 22  2  0  0  0
  3 23  1  0  0  0
 23 24  2  0  0  0
 24 25  1  0  0  0
 25 26  2  0  0  0
 26 27  1  0  0  0
 27 28  2  0  0  0
 26 29  1  0  0  0
 29 30  1  0  0  0
 29 31  1  0  0  0
 29 32  1  0  0  0
  8  2  1  0  0  0
 16 11  1  0  0  0
 22 17  1  0  0  0
 28 23  1  0  0  0
  7 10  1  0  0  0
M  END
> <minimizedAffinity>
-10.36747

> <CNNscore>
0.5920917988

> <CNNaffinity>
6.7859611511

> <CNN_VS>
4.0179119110

> <CNNaffinity_variance>
0.4441252351

$$$$
[H]c1c([H])c([H])c(-c2c([H])c([H])c(C3([H])C(=O)N([H])C(=O)C(C([H])([H])[H])=C3c3c([H])c([H])c(C(F)(F)F)c([H])c3[H])c([H])c2[H])c([H])c1[H]


 32 35  0  0  0  0  0  0  0  0999 V2000
  -17.3692   10.4919  -19.7651 C   0  0  0  0  0  0  0  0  0  0  0  0
  -16.9670   11.2829  -21.0105 C   0  0  0  0  0  0  0  0  0  0  0  0
  -17.5113   12.5270  -21.1564 C   0  0  0  0  0  0  0  0  0  0  0  0
  -17.1373   13.2165  -22.3631 C   0  0  0  0  0  0  0  0  0  0  0  0
  -15.7293   13.0267  -22.7756 C   0  0  0  0  0  0  0  0  0  0  0  0
  -14.9891   13.9284  -23.2107 O   0  0  0  0  0  0  0  0  0  0  0  0
  -15.1945   11.6810  -22.6737 N   0  0  0  0  0  0  0  0  0  0  0  0
  -15.8252   10.7996  -21.7596 C   0  0  0  0  0  0  0  0  0  0  0  0
  -15.3829    9.6013  -21.6068 O   0  0  0  0  0  0  0  0  0  0  0  0
  -14.3761   11.3933  -23.2622 H   0  0  0  0  0  0  0  0  0  0  0  0
  -17.6762   14.4787  -22.7638 C   0  0  0  0  0  0  0  0  0  0  0  0
  -17.6900   15.5229  -21.8284 C   0  0  0  0  0  0  0  0  0  0  0  0
  -18.3043   16.7088  -22.0870 C   0  0  0  0  0  0  0  0  0  0  0  0
  -18.9704   16.9500  -23.3246 C   0  0  0  0  0  0  0  0  0  0  0  0
  -18.9242   15.9107  -24.1926 C   0  0  0  0  0  0  0  0  0  0  0  0
  -18.3011   14.6798  -23.9617 C   0  0  0  0  0  0  0  0  0  0  0  0
  -19.6669   18.2135  -23.4894 C   0  0  0  0  0  0  0  0  0  0  0  0
  -18.8907   19.3615  -23.3783 C   0  0  0  0  0  0  0  0  0  0  0  0
  -19.4465   20.6157  -23.5129 C   0  0  0  0  0  0  0  0  0  0  0  0
  -20.8087   20.7622  -23.7648 C   0  0  0  0  0  0  0  0  0  0  0  0
  -21.5754   19.6277  -23.8839 C   0  0  0  0  0  0  0  0  0  0  0  0
  -21.0033   18.3694  -23.7434 C   0  0  0  0  0  0  0  0  0  0  0  0
  -18.3817   12.9510  -20.0415 C   0  0  0  0  0  0  0  0  0  0  0  0
  -19.7489   13.0384  -20.1048 C   0  0  0  0  0  0  0  0  0  0  0  0
  -20.4801   13.5521  -19.0376 C   0  0  0  0  0  0  0  0  0  0  0  0
  -19.8543   13.9774  -17.8960 C   0  0  0  0  0  0  0  0  0  0  0  0
  -18.4735   13.8878  -17.8313 C   0  0  0  0  0  0  0  0  0  0  0  0
  -17.7791   13.3816  -18.9064 C   0  0  0  0  0  0  0  0  0  0  0  0
  -20.6141   14.6023  -16.7350 C   0  0  0  0  0  0  0  0  0  0  0  0
  -20.9164   13.7151  -15.7566 F   0  0  0  0  0  0  0  0  0  0  0  0
  -21.8036   15.0883  -17.2840 F   0  0  0  0  0  0  0  0  0  0  0  0
  -19.8554   15.6771  -16.2827 F   0  0  0  0  0  0  0  0  0  0  0  0
  1  2  1  0  0  0
  2  3  2  0  0  0
  3  4  1  0  0  0
  4  5  1  0  0  0
  5  6  2  0  0  0
  5  7  1  0  0  0
  7  8  1  0  0  0
  8  9  2  0  0  0
  4 11  1  0  0  0
 11 12  2  0  0  0
 12 13  1  0  0  0
 13 14  2  0  0  0
 14 15  1  0  0  0
 15 16  2  0  0  0
 14 17  1  0  0  0
 17 18  2  0  0  0
 18 19  1  0  0  0
 19 20  2  0  0  0
 20 21  1  0  0  0
 21 22  2  0  0  0
  3 23  1  0  0  0
 23 24  2  0  0  0
 24 25  1  0  0  0
 25 26  2  0  0  0
 26 27  1  0  0  0
 27 28  2  0  0  0
 26 29  1  0  0  0
 29 30  1  0  0  0
 29 31  1  0  0  0
 29 32  1  0  0  0
  8  2  1  0  0  0
 16 11  1  0  0  0
 22 17  1  0  0  0
 28 23  1  0  0  0
  7 10  1  0  0  0
M  END
> <minimizedAffinity>
-8.65554

> <CNNscore>
0.5076434612

> <CNNaffinity>
6.7127318382

> <CNN_VS>
3.4076743126

> <CNNaffinity_variance>
0.4854160249

$$$$
[H]c1c([H])c([H])c(-c2c([H])c([H])c(C3([H])C(=O)N([H])C(=O)C(C([H])([H])[H])=C3c3c([H])c([H])c(C(F)(F)F)c([H])c3[H])c([H])c2[H])c([H])c1[H]


 32 35  0  0  0  0  0  0  0  0999 V2000
  -15.3146   10.9988  -22.6487 C   0  0  0  0  0  0  0  0  0  0  0  0
  -16.1721   11.6117  -21.5408 C   0  0  0  0  0  0  0  0  0  0  0  0
  -16.7067   12.8451  -21.7823 C   0  0  0  0  0  0  0  0  0  0  0  0
  -17.4708   13.3997  -20.6961 C   0  0  0  0  0  0  0  0  0  0  0  0
  -18.2984   12.4218  -19.9563 C   0  0  0  0  0  0  0  0  0  0  0  0
  -19.4644   12.6262  -19.5703 O   0  0  0  0  0  0  0  0  0  0  0  0
  -17.6834   11.1422  -19.6535 N   0  0  0  0  0  0  0  0  0  0  0  0
  -16.6051   10.7296  -20.4765 C   0  0  0  0  0  0  0  0  0  0  0  0
  -16.0339    9.5950  -20.2734 O   0  0  0  0  0  0  0  0  0  0  0  0
  -18.0368   10.5638  -18.8539 H   0  0  0  0  0  0  0  0  0  0  0  0
  -18.0236   14.7183  -20.6974 C   0  0  0  0  0  0  0  0  0  0  0  0
  -18.9850   15.0353  -21.6673 C   0  0  0  0  0  0  0  0  0  0  0  0
  -19.4593   16.3011  -21.8196 C   0  0  0  0  0  0  0  0  0  0  0  0
  -18.9991   17.3741  -21.0006 C   0  0  0  0  0  0  0  0  0  0  0  0
  -18.0740   17.0128  -20.0790 C   0  0  0  0  0  0  0  0  0  0  0  0
  -17.5658   15.7229  -19.8930 C   0  0  0  0  0  0  0  0  0  0  0  0
  -19.4991   18.7084  -21.2803 C   0  0  0  0  0  0  0  0  0  0  0  0
  -20.8797   18.8671  -21.2433 C   0  0  0  0  0  0  0  0  0  0  0  0
  -21.4657   20.0888  -21.4964 C   0  0  0  0  0  0  0  0  0  0  0  0
  -20.6819   21.2002  -21.7976 C   0  0  0  0  0  0  0  0  0  0  0  0
  -19.3163   21.0466  -21.8255 C   0  0  0  0  0  0  0  0  0  0  0  0
  -18.7383   19.8091  -21.5712 C   0  0  0  0  0  0  0  0  0  0  0  0
  -16.4147   13.3889  -23.1237 C   0  0  0  0  0  0  0  0  0  0  0  0
  -15.4247   14.2962  -23.4026 C   0  0  0  0  0  0  0  0  0  0  0  0
  -15.2921   14.8362  -24.6786 C   0  0  0  0  0  0  0  0  0  0  0  0
  -16.1421   14.4715  -25.6887 C   0  0  0  0  0  0  0  0  0  0  0  0
  -17.1411   13.5541  -25.4076 C   0  0  0  0  0  0  0  0  0  0  0  0
  -17.2498   13.0440  -24.1340 C   0  0  0  0  0  0  0  0  0  0  0  0
  -16.0674   15.0872  -27.0783 C   0  0  0  0  0  0  0  0  0  0  0  0
  -16.6775   14.3369  -28.0273 F   0  0  0  0  0  0  0  0  0  0  0  0
  -14.7053   15.1705  -27.3785 F   0  0  0  0  0  0  0  0  0  0  0  0
  -16.5864   16.3744  -26.9822 F   0  0  0  0  0  0  0  0  0  0  0  0
  1  2  1  0  0  0
  2  3  2  0  0  0
  3  4  1  0  0  0
  4  5  1  0  0  0
  5  6  2  0  0  0
  5  7  1  0  0  0
  7  8  1  0  0  0
  8  9  2  0  0  0
  4 11  1  0  0  0
 11 12  2  0  0  0
 12 13  1  0  0  0
 13 14  2  0  0  0
 14 15  1  0  0  0
 15 16  2  0  0  0
 14 17  1  0  0  0
 17 18  2  0  0  0
 18 19  1  0  0  0
 19 20  2  0  0  0
 20 21  1  0  0  0
 21 22  2  0  0  0
  3 23  1  0  0  0
 23 24  2  0  0  0
 24 25  1  0  0  0
 25 26  2  0  0  0
 26 27  1  0  0  0
 27 28  2  0  0  0
 26 29  1  0  0  0
 29 30  1  0  0  0
 29 31  1  0  0  0
 29 32  1  0  0  0
  8  2  1  0  0  0
 16 11  1  0  0  0
 22 17  1  0  0  0
 28 23  1  0  0  0
  7 10  1  0  0  0
M  END
> <minimizedAffinity>
-9.40434

> <CNNscore>
0.4792428315

> <CNNaffinity>
6.8714156151

> <CNN_VS>
3.2930767536

> <CNNaffinity_variance>
0.5333200693

$$$$
[H]c1c([H])c([H])c(-c2c([H])c([H])c(C3([H])C(=O)N([H])C(=O)C(C([H])([H])[H])=C3c3c([H])c([H])c(C(F)(F)F)c([H])c3[H])c([H])c2[H])c([H])c1[H]


 32 35  0  0  0  0  0  0  0  0999 V2000
  -17.3445   10.1103  -18.5936 C   0  0  0  0  0  0  0  0  0  0  0  0
  -17.5617   11.1233  -19.7183 C   0  0  0  0  0  0  0  0  0  0  0  0
  -18.4540   12.1298  -19.4813 C   0  0  0  0  0  0  0  0  0  0  0  0
  -18.6570   13.0340  -20.5825 C   0  0  0  0  0  0  0  0  0  0  0  0
  -17.4355   13.3615  -21.3502 C   0  0  0  0  0  0  0  0  0  0  0  0
  -17.1402   14.4980  -21.7640 O   0  0  0  0  0  0  0  0  0  0  0  0
  -16.5358   12.2615  -21.6467 N   0  0  0  0  0  0  0  0  0  0  0  0
  -16.5979   11.1261  -20.7997 C   0  0  0  0  0  0  0  0  0  0  0  0
  -15.8099   10.1286  -20.9967 O   0  0  0  0  0  0  0  0  0  0  0  0
  -15.8765   12.3243  -22.4593 H   0  0  0  0  0  0  0  0  0  0  0  0
  -19.6233   14.0878  -20.5854 C   0  0  0  0  0  0  0  0  0  0  0  0
  -19.2369   15.3429  -21.0764 C   0  0  0  0  0  0  0  0  0  0  0  0
  -20.0523   16.4283  -20.9902 C   0  0  0  0  0  0  0  0  0  0  0  0
  -21.3439   16.3458  -20.3913 C   0  0  0  0  0  0  0  0  0  0  0  0
  -21.6681   15.1113  -19.9368 C   0  0  0  0  0  0  0  0  0  0  0  0
  -20.8570   13.9741  -20.0103 C   0  0  0  0  0  0  0  0  0  0  0  0
  -22.1187   17.5679  -20.2698 C   0  0  0  0  0  0  0  0  0  0  0  0
  -21.3918   18.7501  -20.1869 C   0  0  0  0  0  0  0  0  0  0  0  0
  -22.0225   19.9697  -20.0652 C   0  0  0  0  0  0  0  0  0  0  0  0
  -23.4127   20.0457  -20.0219 C   0  0  0  0  0  0  0  0  0  0  0  0
  -24.1326   18.8784  -20.1129 C   0  0  0  0  0  0  0  0  0  0  0  0
  -23.4846   17.6553  -20.2325 C   0  0  0  0  0  0  0  0  0  0  0  0
  -19.0469   12.1190  -18.1290 C   0  0  0  0  0  0  0  0  0  0  0  0
  -18.8803   13.1073  -17.1929 C   0  0  0  0  0  0  0  0  0  0  0  0
  -19.3876   12.9615  -15.9050 C   0  0  0  0  0  0  0  0  0  0  0  0
  -20.0705   11.8312  -15.5416 C   0  0  0  0  0  0  0  0  0  0  0  0
  -20.2402   10.8336  -16.4874 C   0  0  0  0  0  0  0  0  0  0  0  0
  -19.7203   11.0055  -17.7501 C   0  0  0  0  0  0  0  0  0  0  0  0
  -20.5842   11.6095  -14.1265 C   0  0  0  0  0  0  0  0  0  0  0  0
  -19.5924   11.5096  -13.2088 F   0  0  0  0  0  0  0  0  0  0  0  0
  -21.2826   10.3999  -14.1666 F   0  0  0  0  0  0  0  0  0  0  0  0
  -21.4806   12.6375  -13.8525 F   0  0  0  0  0  0  0  0  0  0  0  0
  1  2  1  0  0  0
  2  3  2  0  0  0
  3  4  1  0  0  0
  4  5  1  0  0  0
  5  6  2  0  0  0
  5  7  1  0  0  0
  7  8  1  0  0  0
  8  9  2  0  0  0
  4 11  1  0  0  0
 11 12  2  0  0  0
 12 13  1  0  0  0
 13 14  2  0  0  0
 14 15  1  0  0  0
 15 16  2  0  0  0
 14 17  1  0  0  0
 17 18  2  0  0  0
 18 19  1  0  0  0
 19 20  2  0  0  0
 20 21  1  0  0  0
 21 22  2  0  0  0
  3 23  1  0  0  0
 23 24  2  0  0  0
 24 25  1  0  0  0
 25 26  2  0  0  0
 26 27  1  0  0  0
 27 28  2  0  0  0
 26 29  1  0  0  0
 29 30  1  0  0  0
 29 31  1  0  0  0
 29 32  1  0  0  0
  8  2  1  0  0  0
 16 11  1  0  0  0
 22 17  1  0  0  0
 28 23  1  0  0  0
  7 10  1  0  0  0
M  END
> <minimizedAffinity>
-8.11658

> <CNNscore>
0.4400173426

> <CNNaffinity>
6.4412765503

> <CNN_VS>
2.8342733383

> <CNNaffinity_variance>
0.4744563103

$$$$
[H]c1c([H])c([H])c(-c2c([H])c([H])c(C3([H])C(=O)N([H])C(=O)C(C([H])([H])[H])=C3c3c([H])c([H])c(C(F)(F)F)c([H])c3[H])c([H])c2[H])c([H])c1[H]


 32 35  0  0  0  0  0  0  0  0999 V2000
  -19.4267   17.0869  -15.9195 C   0  0  0  0  0  0  0  0  0  0  0  0
  -20.1752   18.0728  -16.8173 C   0  0  0  0  0  0  0  0  0  0  0  0
  -20.5408   17.6279  -18.0557 C   0  0  0  0  0  0  0  0  0  0  0  0
  -21.2051   18.6027  -18.8803 C   0  0  0  0  0  0  0  0  0  0  0  0
  -22.1463   19.4876  -18.1595 C   0  0  0  0  0  0  0  0  0  0  0  0
  -23.2674   19.8265  -18.5820 O   0  0  0  0  0  0  0  0  0  0  0  0
  -21.7065   20.0011  -16.8749 N   0  0  0  0  0  0  0  0  0  0  0  0
  -20.7074   19.2648  -16.1893 C   0  0  0  0  0  0  0  0  0  0  0  0
  -20.2928   19.6559  -15.0361 O   0  0  0  0  0  0  0  0  0  0  0  0
  -22.1227   20.8826  -16.4893 H   0  0  0  0  0  0  0  0  0  0  0  0
  -21.5732   18.3804  -20.2438 C   0  0  0  0  0  0  0  0  0  0  0  0
  -20.9518   19.1533  -21.2348 C   0  0  0  0  0  0  0  0  0  0  0  0
  -21.3411   19.0970  -22.5370 C   0  0  0  0  0  0  0  0  0  0  0  0
  -22.4064   18.2492  -22.9614 C   0  0  0  0  0  0  0  0  0  0  0  0
  -22.9693   17.5229  -21.9658 C   0  0  0  0  0  0  0  0  0  0  0  0
  -22.5940   17.5538  -20.6186 C   0  0  0  0  0  0  0  0  0  0  0  0
  -22.8099   18.3069  -24.3551 C   0  0  0  0  0  0  0  0  0  0  0  0
  -22.7698   19.5605  -24.9547 C   0  0  0  0  0  0  0  0  0  0  0  0
  -23.1346   19.7345  -26.2725 C   0  0  0  0  0  0  0  0  0  0  0  0
  -23.5553   18.6499  -27.0388 C   0  0  0  0  0  0  0  0  0  0  0  0
  -23.5867   17.4085  -26.4498 C   0  0  0  0  0  0  0  0  0  0  0  0
  -23.2190   17.2472  -25.1197 C   0  0  0  0  0  0  0  0  0  0  0  0
  -20.1986   16.2173  -18.3271 C   0  0  0  0  0  0  0  0  0  0  0  0
  -21.0009   15.1455  -18.0295 C   0  0  0  0  0  0  0  0  0  0  0  0
  -20.5499   13.8429  -18.2220 C   0  0  0  0  0  0  0  0  0  0  0  0
  -19.2971   13.5983  -18.7185 C   0  0  0  0  0  0  0  0  0  0  0  0
  -18.4873   14.6807  -19.0206 C   0  0  0  0  0  0  0  0  0  0  0  0
  -18.9603   15.9562  -18.8122 C   0  0  0  0  0  0  0  0  0  0  0  0
  -18.7470   12.1890  -18.8830 C   0  0  0  0  0  0  0  0  0  0  0  0
  -19.4224   11.2650  -18.1579 F   0  0  0  0  0  0  0  0  0  0  0  0
  -17.4288   12.2453  -18.4228 F   0  0  0  0  0  0  0  0  0  0  0  0
  -18.7360   11.9123  -20.2463 F   0  0  0  0  0  0  0  0  0  0  0  0
  1  2  1  0  0  0
  2  3  2  0  0  0
  3  4  1  0  0  0
  4  5  1  0  0  0
  5  6  2  0  0  0
  5  7  1  0  0  0
  7  8  1  0  0  0
  8  9  2  0  0  0
  4 11  1  0  0  0
 11 12  2  0  0  0
 12 13  1  0  0  0
 13 14  2  0  0  0
 14 15  1  0  0  0
 15 16  2  0  0  0
 14 17  1  0  0  0
 17 18  2  0  0  0
 18 19  1  0  0  0
 19 20  2  0  0  0
 20 21  1  0  0  0
 21 22  2  0  0  0
  3 23  1  0  0  0
 23 24  2  0  0  0
 24 25  1  0  0  0
 25 26  2  0  0  0
 26 27  1  0  0  0
 27 28  2  0  0  0
 26 29  1  0  0  0
 29 30  1  0  0  0
 29 31  1  0  0  0
 29 32  1  0  0  0
  8  2  1  0  0  0
 16 11  1  0  0  0
 22 17  1  0  0  0
 28 23  1  0  0  0
  7 10  1  0  0  0
M  END
> <minimizedAffinity>
-7.69584

> <CNNscore>
0.3412283063

> <CNNaffinity>
5.8186063766

> <CNN_VS>
1.9854731560

> <CNNaffinity_variance>
0.0969370157

$$$$
[H]c1c([H])c([H])c(-c2c([H])c([H])c(C3([H])C(=O)N([H])C(=O)C(C([H])([H])[H])=C3c3c([H])c([H])c(C(F)(F)F)c([H])c3[H])c([H])c2[H])c([H])c1[H]


 32 35  0  0  0  0  0  0  0  0999 V2000
  -16.0748   11.2630  -22.0643 C   0  0  0  0  0  0  0  0  0  0  0  0
  -16.7919   11.7984  -20.8243 C   0  0  0  0  0  0  0  0  0  0  0  0
  -17.2740   13.0746  -20.8906 C   0  0  0  0  0  0  0  0  0  0  0  0
  -17.9035   13.5498  -19.6868 C   0  0  0  0  0  0  0  0  0  0  0  0
  -18.7162   12.5416  -18.9714 C   0  0  0  0  0  0  0  0  0  0  0  0
  -19.8287   12.7610  -18.4574 O   0  0  0  0  0  0  0  0  0  0  0  0
  -18.1513   11.2092  -18.8568 N   0  0  0  0  0  0  0  0  0  0  0  0
  -17.1773   10.8326  -19.8158 C   0  0  0  0  0  0  0  0  0  0  0  0
  -16.6567    9.6568  -19.7814 O   0  0  0  0  0  0  0  0  0  0  0  0
  -18.4639   10.5687  -18.0881 H   0  0  0  0  0  0  0  0  0  0  0  0
  -18.3770   14.8866  -19.5049 C   0  0  0  0  0  0  0  0  0  0  0  0
  -18.1955   15.4919  -18.2535 C   0  0  0  0  0  0  0  0  0  0  0  0
  -18.7337   16.7062  -17.9597 C   0  0  0  0  0  0  0  0  0  0  0  0
  -19.5151   17.4260  -18.9109 C   0  0  0  0  0  0  0  0  0  0  0  0
  -19.6565   16.7983  -20.1033 C   0  0  0  0  0  0  0  0  0  0  0  0
  -19.1164   15.5528  -20.4405 C   0  0  0  0  0  0  0  0  0  0  0  0
  -20.1173   18.6787  -18.4906 C   0  0  0  0  0  0  0  0  0  0  0  0
  -19.7984   19.7986  -19.2501 C   0  0  0  0  0  0  0  0  0  0  0  0
  -20.3094   21.0409  -18.9410 C   0  0  0  0  0  0  0  0  0  0  0  0
  -21.1631   21.2035  -17.8523 C   0  0  0  0  0  0  0  0  0  0  0  0
  -21.4864   20.0954  -17.1062 C   0  0  0  0  0  0  0  0  0  0  0  0
  -20.9623   18.8493  -17.4268 C   0  0  0  0  0  0  0  0  0  0  0  0
  -17.0733   13.7399  -22.1934 C   0  0  0  0  0  0  0  0  0  0  0  0
  -17.8225   13.5030  -23.3175 C   0  0  0  0  0  0  0  0  0  0  0  0
  -17.4920   14.0970  -24.5321 C   0  0  0  0  0  0  0  0  0  0  0  0
  -16.4151   14.9371  -24.6345 C   0  0  0  0  0  0  0  0  0  0  0  0
  -15.6593   15.1777  -23.4989 C   0  0  0  0  0  0  0  0  0  0  0  0
  -16.0083   14.5693  -22.3147 C   0  0  0  0  0  0  0  0  0  0  0  0
  -15.9865   15.5543  -25.9577 C   0  0  0  0  0  0  0  0  0  0  0  0
  -16.8156   16.5392  -26.3800 F   0  0  0  0  0  0  0  0  0  0  0  0
  -16.0193   14.5106  -26.8861 F   0  0  0  0  0  0  0  0  0  0  0  0
  -14.6702   15.9773  -25.8028 F   0  0  0  0  0  0  0  0  0  0  0  0
  1  2  1  0  0  0
  2  3  2  0  0  0
  3  4  1  0  0  0
  4  5  1  0  0  0
  5  6  2  0  0  0
  5  7  1  0  0  0
  7  8  1  0  0  0
  8  9  2  0  0  0
  4 11  1  0  0  0
 11 12  2  0  0  0
 12 13  1  0  0  0
 13 14  2  0  0  0
 14 15  1  0  0  0
 15 16  2  0  0  0
 14 17  1  0  0  0
 17 18  2  0  0  0
 18 19  1  0  0  0
 19 20  2  0  0  0
 20 21  1  0  0  0
 21 22  2  0  0  0
  3 23  1  0  0  0
 23 24  2  0  0  0
 24 25  1  0  0  0
 25 26  2  0  0  0
 26 27  1  0  0  0
 27 28  2  0  0  0
 26 29  1  0  0  0
 29 30  1  0  0  0
 29 31  1  0  0  0
 29 32  1  0  0  0
  8  2  1  0  0  0
 16 11  1  0  0  0
 22 17  1  0  0  0
 28 23  1  0  0  0
  7 10  1  0  0  0
M  END
> <minimizedAffinity>
-8.03041

> <CNNscore>
0.3363199234

> <CNNaffinity>
6.6034455299

> <CNN_VS>
2.2208702564

> <CNNaffinity_variance>
0.6711770296

$$$$
[H]c1c([H])c([H])c(-c2c([H])c([H])c(C3([H])C(=O)N([H])C(=O)C(C([H])([H])[H])=C3c3c([H])c([H])c(C(F)(F)F)c([H])c3[H])c([H])c2[H])c([H])c1[H]


 32 35  0  0  0  0  0  0  0  0999 V2000
  -18.5643    9.2428  -17.3491 C   0  0  0  0  0  0  0  0  0  0  0  0
  -18.5546   10.5197  -18.1905 C   0  0  0  0  0  0  0  0  0  0  0  0
  -19.3164   11.5615  -17.7436 C   0  0  0  0  0  0  0  0  0  0  0  0
  -19.3092   12.7262  -18.5891 C   0  0  0  0  0  0  0  0  0  0  0  0
  -17.9996   13.0416  -19.2005 C   0  0  0  0  0  0  0  0  0  0  0  0
  -17.5210   14.1864  -19.3031 O   0  0  0  0  0  0  0  0  0  0  0  0
  -17.2388   11.9235  -19.7282 N   0  0  0  0  0  0  0  0  0  0  0  0
  -17.5199   10.6392  -19.1972 C   0  0  0  0  0  0  0  0  0  0  0  0
  -16.8630    9.6120  -19.6073 O   0  0  0  0  0  0  0  0  0  0  0  0
  -16.5172   12.0813  -20.4720 H   0  0  0  0  0  0  0  0  0  0  0  0
  -20.1193   13.8829  -18.3653 C   0  0  0  0  0  0  0  0  0  0  0  0
  -20.1379   14.4431  -17.0803 C   0  0  0  0  0  0  0  0  0  0  0  0
  -20.9818   15.4587  -16.7532 C   0  0  0  0  0  0  0  0  0  0  0  0
  -21.8957   16.0046  -17.7022 C   0  0  0  0  0  0  0  0  0  0  0  0
  -21.8341   15.4297  -18.9275 C   0  0  0  0  0  0  0  0  0  0  0  0
  -20.9791   14.3870  -19.2993 C   0  0  0  0  0  0  0  0  0  0  0  0
  -22.8150   17.0336  -17.2498 C   0  0  0  0  0  0  0  0  0  0  0  0
  -23.7399   17.4848  -18.1846 C   0  0  0  0  0  0  0  0  0  0  0  0
  -24.6586   18.4620  -17.8668 C   0  0  0  0  0  0  0  0  0  0  0  0
  -24.6809   19.0240  -16.5925 C   0  0  0  0  0  0  0  0  0  0  0  0
  -23.7730   18.5723  -15.6647 C   0  0  0  0  0  0  0  0  0  0  0  0
  -22.8504   17.5886  -15.9986 C   0  0  0  0  0  0  0  0  0  0  0  0
  -20.0064   11.3123  -16.4622 C   0  0  0  0  0  0  0  0  0  0  0  0
  -21.3302   10.9760  -16.3379 C   0  0  0  0  0  0  0  0  0  0  0  0
  -21.9226   10.8662  -15.0832 C   0  0  0  0  0  0  0  0  0  0  0  0
  -21.1982   11.0851  -13.9416 C   0  0  0  0  0  0  0  0  0  0  0  0
  -19.8608   11.4233  -14.0669 C   0  0  0  0  0  0  0  0  0  0  0  0
  -19.3067   11.5305  -15.3222 C   0  0  0  0  0  0  0  0  0  0  0  0
  -21.8262   11.0361  -12.5564 C   0  0  0  0  0  0  0  0  0  0  0  0
  -22.7937   11.9675  -12.3764 F   0  0  0  0  0  0  0  0  0  0  0  0
  -20.7833   11.2933  -11.6628 F   0  0  0  0  0  0  0  0  0  0  0  0
  -22.2771    9.7348  -12.3591 F   0  0  0  0  0  0  0  0  0  0  0  0
  1  2  1  0  0  0
  2  3  2  0  0  0
  3  4  1  0  0  0
  4  5  1  0  0  0
  5  6  2  0  0  0
  5  7  1  0  0  0
  7  8  1  0  0  0
  8  9  2  0  0  0
  4 11  1  0  0  0
 11 12  2  0  0  0
 12 13  1  0  0  0
 13 14  2  0  0  0
 14 15  1  0  0  0
 15 16  2  0  0  0
 14 17  1  0  0  0
 17 18  2  0  0  0
 18 19  1  0  0  0
 19 20  2  0  0  0
 20 21  1  0  0  0
 21 22  2  0  0  0
  3 23  1  0  0  0
 23 24  2  0  0  0
 24 25  1  0  0  0
 25 26  2  0  0  0
 26 27  1  0  0  0
 27 28  2  0  0  0
 26 29  1  0  0  0
 29 30  1  0  0  0
 29 31  1  0  0  0
 29 32  1  0  0  0
  8  2  1  0  0  0
 16 11  1  0  0  0
 22 17  1  0  0  0
 28 23  1  0  0  0
  7 10  1  0  0  0
M  END
> <minimizedAffinity>
-6.05672

> <CNNscore>
0.2951546907

> <CNNaffinity>
5.7094402313

> <CNN_VS>
1.6851680279

> <CNNaffinity_variance>
0.4872754514

$$$$
[H]c1c([H])c([H])c(-c2c([H])c([H])c(C3([H])C(=O)N([H])C(=O)C(C([H])([H])[H])=C3c3c([H])c([H])c(C(F)(F)F)c([H])c3[H])c([H])c2[H])c([H])c1[H]


 32 35  0  0  0  0  0  0  0  0999 V2000
  -18.3233   15.4967  -17.0550 C   0  0  0  0  0  0  0  0  0  0  0  0
  -19.2732   16.6386  -17.4184 C   0  0  0  0  0  0  0  0  0  0  0  0
  -19.7436   16.6684  -18.7003 C   0  0  0  0  0  0  0  0  0  0  0  0
  -20.6001   17.7834  -19.0076 C   0  0  0  0  0  0  0  0  0  0  0  0
  -21.5284   18.1708  -17.9228 C   0  0  0  0  0  0  0  0  0  0  0  0
  -22.7218   18.4853  -18.0878 O   0  0  0  0  0  0  0  0  0  0  0  0
  -20.9858   18.1957  -16.5766 N   0  0  0  0  0  0  0  0  0  0  0  0
  -19.8402   17.3995  -16.3239 C   0  0  0  0  0  0  0  0  0  0  0  0
  -19.3265   17.3611  -15.1452 O   0  0  0  0  0  0  0  0  0  0  0  0
  -21.4372   18.7862  -15.8374 H   0  0  0  0  0  0  0  0  0  0  0  0
  -21.1111   18.0645  -20.3131 C   0  0  0  0  0  0  0  0  0  0  0  0
  -22.2964   17.4319  -20.7136 C   0  0  0  0  0  0  0  0  0  0  0  0
  -22.7741   17.5417  -21.9825 C   0  0  0  0  0  0  0  0  0  0  0  0
  -22.0901   18.3052  -22.9740 C   0  0  0  0  0  0  0  0  0  0  0  0
  -20.9537   18.8972  -22.5337 C   0  0  0  0  0  0  0  0  0  0  0  0
  -20.4345   18.8079  -21.2379 C   0  0  0  0  0  0  0  0  0  0  0  0
  -22.6264   18.3070  -24.3234 C   0  0  0  0  0  0  0  0  0  0  0  0
  -22.6941   19.5434  -24.9555 C   0  0  0  0  0  0  0  0  0  0  0  0
  -23.1893   19.6651  -26.2362 C   0  0  0  0  0  0  0  0  0  0  0  0
  -23.6367   18.5437  -26.9308 C   0  0  0  0  0  0  0  0  0  0  0  0
  -23.5618   17.3195  -26.3103 C   0  0  0  0  0  0  0  0  0  0  0  0
  -23.0631   17.2109  -25.0182 C   0  0  0  0  0  0  0  0  0  0  0  0
  -19.2978   15.5418  -19.5443 C   0  0  0  0  0  0  0  0  0  0  0  0
  -19.9415   14.3348  -19.6434 C   0  0  0  0  0  0  0  0  0  0  0  0
  -19.3890   13.2913  -20.3805 C   0  0  0  0  0  0  0  0  0  0  0  0
  -18.1930   13.4448  -21.0300 C   0  0  0  0  0  0  0  0  0  0  0  0
  -17.5436   14.6643  -20.9312 C   0  0  0  0  0  0  0  0  0  0  0  0
  -18.1129   15.6738  -20.1889 C   0  0  0  0  0  0  0  0  0  0  0  0
  -17.5283   12.3079  -21.7923 C   0  0  0  0  0  0  0  0  0  0  0  0
  -18.3213   11.2168  -21.9206 F   0  0  0  0  0  0  0  0  0  0  0  0
  -16.4034   11.9597  -21.0402 F   0  0  0  0  0  0  0  0  0  0  0  0
  -17.1100   12.8260  -23.0138 F   0  0  0  0  0  0  0  0  0  0  0  0
  1  2  1  0  0  0
  2  3  2  0  0  0
  3  4  1  0  0  0
  4  5  1  0  0  0
  5  6  2  0  0  0
  5  7  1  0  0  0
  7  8  1  0  0  0
  8  9  2  0  0  0
  4 11  1  0  0  0
 11 12  2  0  0  0
 12 13  1  0  0  0
 13 14  2  0  0  0
 14 15  1  0  0  0
 15 16  2  0  0  0
 14 17  1  0  0  0
 17 18  2  0  0  0
 18 19  1  0  0  0
 19 20  2  0  0  0
 20 21  1  0  0  0
 21 22  2  0  0  0
  3 23  1  0  0  0
 23 24  2  0  0  0
 24 25  1  0  0  0
 25 26  2  0  0  0
 26 27  1  0  0  0
 27 28  2  0  0  0
 26 29  1  0  0  0
 29 30  1  0  0  0
 29 31  1  0  0  0
 29 32  1  0  0  0
  8  2  1  0  0  0
 16 11  1  0  0  0
 22 17  1  0  0  0
 28 23  1  0  0  0
  7 10  1  0  0  0
M  END
> <minimizedAffinity>
-8.77351

> <CNNscore>
0.2138740420

> <CNNaffinity>
5.8024244308

> <CNN_VS>
1.2409880161

> <CNNaffinity_variance>
0.2080245316

$$$$
[H]c1c([H])c([H])c(-c2c([H])c([H])c(C3([H])C(=O)N([H])C(=O)C(C([H])([H])[H])=C3c3c([H])c([H])c(C(F)(F)F)c([H])c3[H])c([H])c2[H])c([H])c1[H]


 32 35  0  0  0  0  0  0  0  0999 V2000
  -16.4022   11.0016  -20.6789 C   0  0  0  0  0  0  0  0  0  0  0  0
  -17.3345   11.7451  -19.7216 C   0  0  0  0  0  0  0  0  0  0  0  0
  -17.8338   12.9424  -20.1488 C   0  0  0  0  0  0  0  0  0  0  0  0
  -18.6720   13.6252  -19.1988 C   0  0  0  0  0  0  0  0  0  0  0  0
  -19.5659   12.7453  -18.4144 C   0  0  0  0  0  0  0  0  0  0  0  0
  -20.7554   12.9979  -18.1471 O   0  0  0  0  0  0  0  0  0  0  0  0
  -18.9916   11.5092  -17.9148 N   0  0  0  0  0  0  0  0  0  0  0  0
  -17.8585   10.9978  -18.5967 C   0  0  0  0  0  0  0  0  0  0  0  0
  -17.3186    9.8939  -18.2165 O   0  0  0  0  0  0  0  0  0  0  0  0
  -19.4123   11.0315  -17.0819 H   0  0  0  0  0  0  0  0  0  0  0  0
  -19.2068   14.9359  -19.3998 C   0  0  0  0  0  0  0  0  0  0  0  0
  -20.1956   15.1076  -20.3787 C   0  0  0  0  0  0  0  0  0  0  0  0
  -20.6577   16.3401  -20.7223 C   0  0  0  0  0  0  0  0  0  0  0  0
  -20.1562   17.5239  -20.1052 C   0  0  0  0  0  0  0  0  0  0  0  0
  -19.2059   17.3012  -19.1655 C   0  0  0  0  0  0  0  0  0  0  0  0
  -18.7092   16.0499  -18.7858 C   0  0  0  0  0  0  0  0  0  0  0  0
  -20.6473   18.8035  -20.5848 C   0  0  0  0  0  0  0  0  0  0  0  0
  -21.7353   18.7589  -21.4491 C   0  0  0  0  0  0  0  0  0  0  0  0
  -22.2824   19.9121  -21.9695 C   0  0  0  0  0  0  0  0  0  0  0  0
  -21.7532   21.1575  -21.6389 C   0  0  0  0  0  0  0  0  0  0  0  0
  -20.6832   21.2034  -20.7774 C   0  0  0  0  0  0  0  0  0  0  0  0
  -20.1394   20.0334  -20.2620 C   0  0  0  0  0  0  0  0  0  0  0  0
  -17.4332   13.3211  -21.5187 C   0  0  0  0  0  0  0  0  0  0  0  0
  -17.7078   12.5893  -22.6456 C   0  0  0  0  0  0  0  0  0  0  0  0
  -17.1964   12.9684  -23.8834 C   0  0  0  0  0  0  0  0  0  0  0  0
  -16.4118   14.0840  -24.0087 C   0  0  0  0  0  0  0  0  0  0  0  0
  -16.1357   14.8241  -22.8708 C   0  0  0  0  0  0  0  0  0  0  0  0
  -16.6507   14.4186  -21.6607 C   0  0  0  0  0  0  0  0  0  0  0  0
  -15.7839   14.4938  -25.3329 C   0  0  0  0  0  0  0  0  0  0  0  0
  -14.4405   14.3199  -25.3623 F   0  0  0  0  0  0  0  0  0  0  0  0
  -16.0639   15.8553  -25.4749 F   0  0  0  0  0  0  0  0  0  0  0  0
  -16.4478   13.7913  -26.3334 F   0  0  0  0  0  0  0  0  0  0  0  0
  1  2  1  0  0  0
  2  3  2  0  0  0
  3  4  1  0  0  0
  4  5  1  0  0  0
  5  6  2  0  0  0
  5  7  1  0  0  0
  7  8  1  0  0  0
  8  9  2  0  0  0
  4 11  1  0  0  0
 11 12  2  0  0  0
 12 13  1  0  0  0
 13 14  2  0  0  0
 14 15  1  0  0  0
 15 16  2  0  0  0
 14 17  1  0  0  0
 17 18  2  0  0  0
 18 19  1  0  0  0
 19 20  2  0  0  0
 20 21  1  0  0  0
 21 22  2  0  0  0
  3 23  1  0  0  0
 23 24  2  0  0  0
 24 25  1  0  0  0
 25 26  2  0  0  0
 26 27  1  0  0  0
 27 28  2  0  0  0
 26 29  1  0  0  0
 29 30  1  0  0  0
 29 31  1  0  0  0
 29 32  1  0  0  0
  8  2  1  0  0  0
 16 11  1  0  0  0
 22 17  1  0  0  0
 28 23  1  0  0  0
  7 10  1  0  0  0
M  END
> <minimizedAffinity>
-8.55177

> <CNNscore>
0.2040091455

> <CNNaffinity>
6.2390861511

> <CNN_VS>
1.2728306055

> <CNNaffinity_variance>
0.4648814201

$$$$
[H]OC([H])([H])[C@@]1(C([H])([H])[H])C([H])([H])[C@@]2([H])O[C@]1(C([H])([H])[H])n1c3c([H])c([H])c([H])c([H])c3c3c4c(c5c6c([H])c([H])c([H])c([H])c6n2c5c31)C(=O)N([H])C4([H])[H]


 35 42  0  0  0  0  0  0  0  0999 V2000
  -20.8053   16.9064  -21.1503 C   0  0  0  0  0  0  0  0  0  0  0  0
  -19.8834   15.9810  -20.4271 C   0  0  0  0  0  0  0  0  0  0  0  0
  -20.6254   14.8753  -19.9499 O   0  0  0  0  0  0  0  0  0  0  0  0
  -20.0684   14.3860  -18.8031 C   0  0  0  0  0  0  0  0  0  0  0  0
  -19.0223   15.3843  -18.3043 C   0  0  0  0  0  0  0  0  0  0  0  0
  -19.5091   16.6050  -19.1195 C   0  0  0  0  0  0  0  0  0  0  0  0
  -18.4092   17.5909  -19.3165 C   0  0  0  0  0  0  0  0  0  0  0  0
  -19.2307   13.2161  -19.1224 N   0  0  0  0  0  0  0  0  0  0  0  0
  -19.0978   12.0825  -18.4943 C   0  0  0  0  0  0  0  0  0  0  0  0
  -19.7191   11.5728  -17.3516 C   0  0  0  0  0  0  0  0  0  0  0  0
  -19.4010   10.3202  -16.8722 C   0  0  0  0  0  0  0  0  0  0  0  0
  -18.4588    9.5469  -17.5175 C   0  0  0  0  0  0  0  0  0  0  0  0
  -17.8351   10.0391  -18.6508 C   0  0  0  0  0  0  0  0  0  0  0  0
  -18.1496   11.2905  -19.1340 C   0  0  0  0  0  0  0  0  0  0  0  0
  -17.7061   12.0216  -20.2066 C   0  0  0  0  0  0  0  0  0  0  0  0
  -16.7802   11.8616  -21.2044 C   0  0  0  0  0  0  0  0  0  0  0  0
  -15.9063   10.7587  -21.5159 C   0  0  0  0  0  0  0  0  0  0  0  0
  -15.7038    9.6413  -21.0161 O   0  0  0  0  0  0  0  0  0  0  0  0
  -15.1489   11.1533  -22.6825 N   0  0  0  0  0  0  0  0  0  0  0  0
  -15.5246   12.4655  -23.0985 C   0  0  0  0  0  0  0  0  0  0  0  0
  -16.5722   12.8902  -22.1362 C   0  0  0  0  0  0  0  0  0  0  0  0
  -17.2676   14.0764  -22.0988 C   0  0  0  0  0  0  0  0  0  0  0  0
  -17.3048   15.2484  -22.8150 C   0  0  0  0  0  0  0  0  0  0  0  0
  -16.5550   15.6264  -23.9128 C   0  0  0  0  0  0  0  0  0  0  0  0
  -16.7007   16.8594  -24.5069 C   0  0  0  0  0  0  0  0  0  0  0  0
  -17.6238   17.7105  -23.9679 C   0  0  0  0  0  0  0  0  0  0  0  0
  -18.3831   17.3612  -22.8762 C   0  0  0  0  0  0  0  0  0  0  0  0
  -18.2310   16.1226  -22.2892 C   0  0  0  0  0  0  0  0  0  0  0  0
  -18.7884   15.4675  -21.2162 N   0  0  0  0  0  0  0  0  0  0  0  0
  -18.1954   14.2369  -21.1040 C   0  0  0  0  0  0  0  0  0  0  0  0
  -18.4069   13.2281  -20.1741 C   0  0  0  0  0  0  0  0  0  0  0  0
  -14.4246   10.5862  -23.1752 H   0  0  0  0  0  0  0  0  0  0  0  0
  -20.6218   17.0945  -18.2606 C   0  0  0  0  0  0  0  0  0  0  0  0
  -20.3156   17.4284  -16.9572 O   0  0  0  0  0  0  0  0  0  0  0  0
  -21.1751   17.5695  -16.4898 H   0  0  0  0  0  0  0  0  0  0  0  0
  2  1  1  0  0  0
  2  3  1  0  0  0
  3  4  1  0  0  0
  4  5  1  0  0  0
  5  6  1  0  0  0
  6  7  1  0  0  0
  6 33  1  0  0  0
 33 34  1  0  0  0
  4  8  1  0  0  0
  8  9  1  0  0  0
  9 10  2  0  0  0
 10 11  1  0  0  0
 11 12  2  0  0  0
 12 13  1  0  0  0
 13 14  2  0  0  0
 14 15  1  0  0  0
 15 16  2  0  0  0
 16 17  1  0  0  0
 17 18  2  0  0  0
 17 19  1  0  0  0
 19 20  1  0  0  0
 20 21  1  0  0  0
 21 22  2  0  0  0
 22 23  1  0  0  0
 23 24  2  0  0  0
 24 25  1  0  0  0
 25 26  2  0  0  0
 26 27  1  0  0  0
 27 28  2  0  0  0
 28 29  1  0  0  0
 29 30  1  0  0  0
 30 31  2  0  0  0
  6  2  1  0  0  0
 31  8  1  0  0  0
 29  2  1  0  0  0
 14  9  1  0  0  0
 31 15  1  0  0  0
 21 16  1  0  0  0
 30 22  1  0  0  0
 28 23  1  0  0  0
 34 35  1  0  0  0
 19 32  1  0  0  0
M  END
> <minimizedAffinity>
-11.51880

> <CNNscore>
0.9691110849

> <CNNaffinity>
7.4029312134

> <CNN_VS>
7.1742625237

> <CNNaffinity_variance>
0.0552719161

$$$$
[H]OC([H])([H])[C@@]1(C([H])([H])[H])C([H])([H])[C@@]2([H])O[C@]1(C([H])([H])[H])n1c3c([H])c([H])c([H])c([H])c3c3c4c(c5c6c([H])c([H])c([H])c([H])c6n2c5c31)C(=O)N([H])C4([H])[H]


 35 42  0  0  0  0  0  0  0  0999 V2000
  -18.3305   17.6564  -22.8827 C   0  0  0  0  0  0  0  0  0  0  0  0
  -18.0275   16.7812  -21.7116 C   0  0  0  0  0  0  0  0  0  0  0  0
  -19.2449   16.3582  -21.1285 O   0  0  0  0  0  0  0  0  0  0  0  0
  -19.0866   16.1558  -19.7873 C   0  0  0  0  0  0  0  0  0  0  0  0
  -17.7351   16.7328  -19.3630 C   0  0  0  0  0  0  0  0  0  0  0  0
  -17.5088   17.6357  -20.5981 C   0  0  0  0  0  0  0  0  0  0  0  0
  -16.0590   17.9166  -20.7980 C   0  0  0  0  0  0  0  0  0  0  0  0
  -18.8888   14.7188  -19.5258 N   0  0  0  0  0  0  0  0  0  0  0  0
  -19.3672   13.9648  -18.5773 C   0  0  0  0  0  0  0  0  0  0  0  0
  -20.2482   14.2357  -17.5275 C   0  0  0  0  0  0  0  0  0  0  0  0
  -20.6097   13.2497  -16.6346 C   0  0  0  0  0  0  0  0  0  0  0  0
  -20.1038   11.9734  -16.7651 C   0  0  0  0  0  0  0  0  0  0  0  0
  -19.2299   11.6905  -17.8005 C   0  0  0  0  0  0  0  0  0  0  0  0
  -18.8655   12.6726  -18.6956 C   0  0  0  0  0  0  0  0  0  0  0  0
  -18.0396   12.6852  -19.7908 C   0  0  0  0  0  0  0  0  0  0  0  0
  -17.2252   11.7888  -20.4324 C   0  0  0  0  0  0  0  0  0  0  0  0
  -16.9643   10.3950  -20.1745 C   0  0  0  0  0  0  0  0  0  0  0  0
  -17.3637    9.5767  -19.3317 O   0  0  0  0  0  0  0  0  0  0  0  0
  -16.0176    9.9632  -21.1783 N   0  0  0  0  0  0  0  0  0  0  0  0
  -15.6831   11.0465  -22.0447 C   0  0  0  0  0  0  0  0  0  0  0  0
  -16.4741   12.1989  -21.5447 C   0  0  0  0  0  0  0  0  0  0  0  0
  -16.5167   13.4832  -22.0356 C   0  0  0  0  0  0  0  0  0  0  0  0
  -15.9289   14.1956  -23.0528 C   0  0  0  0  0  0  0  0  0  0  0  0
  -15.0024   13.7793  -23.9901 C   0  0  0  0  0  0  0  0  0  0  0  0
  -14.4903   14.6337  -24.9399 C   0  0  0  0  0  0  0  0  0  0  0  0
  -14.9335   15.9261  -24.9256 C   0  0  0  0  0  0  0  0  0  0  0  0
  -15.8541   16.3678  -24.0049 C   0  0  0  0  0  0  0  0  0  0  0  0
  -16.3627   15.5034  -23.0584 C   0  0  0  0  0  0  0  0  0  0  0  0
  -17.2518   15.6012  -22.0137 N   0  0  0  0  0  0  0  0  0  0  0  0
  -17.3323   14.3797  -21.3973 C   0  0  0  0  0  0  0  0  0  0  0  0
  -18.0767   13.9867  -20.2936 C   0  0  0  0  0  0  0  0  0  0  0  0
  -15.6159    9.0059  -21.2836 H   0  0  0  0  0  0  0  0  0  0  0  0
  -18.3172   18.8296  -20.2288 C   0  0  0  0  0  0  0  0  0  0  0  0
  -17.9335   19.5308  -19.1040 O   0  0  0  0  0  0  0  0  0  0  0  0
  -18.6566   20.1764  -18.9102 H   0  0  0  0  0  0  0  0  0  0  0  0
  2  1  1  0  0  0
  2  3  1  0  0  0
  3  4  1  0  0  0
  4  5  1  0  0  0
  5  6  1  0  0  0
  6  7  1  0  0  0
  6 33  1  0  0  0
 33 34  1  0  0  0
  4  8  1  0  0  0
  8  9  1  0  0  0
  9 10  2  0  0  0
 10 11  1  0  0  0
 11 12  2  0  0  0
 12 13  1  0  0  0
 13 14  2  0  0  0
 14 15  1  0  0  0
 15 16  2  0  0  0
 16 17  1  0  0  0
 17 18  2  0  0  0
 17 19  1  0  0  0
 19 20  1  0  0  0
 20 21  1  0  0  0
 21 22  2  0  0  0
 22 23  1  0  0  0
 23 24  2  0  0  0
 24 25  1  0  0  0
 25 26  2  0  0  0
 26 27  1  0  0  0
 27 28  2  0  0  0
 28 29  1  0  0  0
 29 30  1  0  0  0
 30 31  2  0  0  0
  6  2  1  0  0  0
 31  8  1  0  0  0
 29  2  1  0  0  0
 14  9  1  0  0  0
 31 15  1  0  0  0
 21 16  1  0  0  0
 30 22  1  0  0  0
 28 23  1  0  0  0
 34 35  1  0  0  0
 19 32  1  0  0  0
M  END
> <minimizedAffinity>
-11.65399

> <CNNscore>
0.7143413424

> <CNNaffinity>
7.1432547569

> <CNN_VS>
5.1027221680

> <CNNaffinity_variance>
0.0722840279

$$$$
[H]OC([H])([H])[C@@]1(C([H])([H])[H])C([H])([H])[C@@]2([H])O[C@]1(C([H])([H])[H])n1c3c([H])c([H])c([H])c([H])c3c3c4c(c5c6c([H])c([H])c([H])c([H])c6n2c5c31)C(=O)N([H])C4([H])[H]


 35 42  0  0  0  0  0  0  0  0999 V2000
  -18.9507   17.0254  -22.7583 C   0  0  0  0  0  0  0  0  0  0  0  0
  -18.6745   16.3598  -21.4506 C   0  0  0  0  0  0  0  0  0  0  0  0
  -19.9048   16.0345  -20.8330 O   0  0  0  0  0  0  0  0  0  0  0  0
  -19.7778   16.0602  -19.4736 C   0  0  0  0  0  0  0  0  0  0  0  0
  -18.4371   16.7065  -19.1209 C   0  0  0  0  0  0  0  0  0  0  0  0
  -18.1827   17.3911  -20.4842 C   0  0  0  0  0  0  0  0  0  0  0  0
  -16.7289   17.6414  -20.6950 C   0  0  0  0  0  0  0  0  0  0  0  0
  -19.5850   14.6881  -18.9707 N   0  0  0  0  0  0  0  0  0  0  0  0
  -20.0849   14.1012  -17.9207 C   0  0  0  0  0  0  0  0  0  0  0  0
  -20.9904   14.5398  -16.9515 C   0  0  0  0  0  0  0  0  0  0  0  0
  -21.3719   13.7154  -15.9147 C   0  0  0  0  0  0  0  0  0  0  0  0
  -20.8620   12.4376  -15.8182 C   0  0  0  0  0  0  0  0  0  0  0  0
  -19.9639   11.9897  -16.7712 C   0  0  0  0  0  0  0  0  0  0  0  0
  -19.5794   12.8098  -17.8095 C   0  0  0  0  0  0  0  0  0  0  0  0
  -18.7281   12.6430  -18.8721 C   0  0  0  0  0  0  0  0  0  0  0  0
  -17.8981   11.6557  -19.3357 C   0  0  0  0  0  0  0  0  0  0  0  0
  -17.6422   10.3260  -18.8423 C   0  0  0  0  0  0  0  0  0  0  0  0
  -18.0605    9.6584  -17.8837 O   0  0  0  0  0  0  0  0  0  0  0  0
  -16.6719    9.7368  -19.7376 N   0  0  0  0  0  0  0  0  0  0  0  0
  -16.3181   10.6614  -20.7652 C   0  0  0  0  0  0  0  0  0  0  0  0
  -17.1216   11.8775  -20.4835 C   0  0  0  0  0  0  0  0  0  0  0  0
  -17.1537   13.0613  -21.1832 C   0  0  0  0  0  0  0  0  0  0  0  0
  -16.5428   13.5963  -22.2916 C   0  0  0  0  0  0  0  0  0  0  0  0
  -15.5943   13.0334  -23.1244 C   0  0  0  0  0  0  0  0  0  0  0  0
  -15.0608   13.7193  -24.1919 C   0  0  0  0  0  0  0  0  0  0  0  0
  -15.5053   14.9937  -24.4043 C   0  0  0  0  0  0  0  0  0  0  0  0
  -16.4476   15.5789  -23.5919 C   0  0  0  0  0  0  0  0  0  0  0  0
  -16.9775   14.8826  -22.5259 C   0  0  0  0  0  0  0  0  0  0  0  0
  -17.8909   15.1496  -21.5331 N   0  0  0  0  0  0  0  0  0  0  0  0
  -17.9848   14.0481  -20.7229 C   0  0  0  0  0  0  0  0  0  0  0  0
  -18.7545   13.8418  -19.5863 C   0  0  0  0  0  0  0  0  0  0  0  0
  -16.2669    8.7773  -19.6720 H   0  0  0  0  0  0  0  0  0  0  0  0
  -19.0006   18.6261  -20.3386 C   0  0  0  0  0  0  0  0  0  0  0  0
  -18.3262   19.8098  -20.1194 O   0  0  0  0  0  0  0  0  0  0  0  0
  -19.0073   20.4863  -19.8837 H   0  0  0  0  0  0  0  0  0  0  0  0
  2  1  1  0  0  0
  2  3  1  0  0  0
  3  4  1  0  0  0
  4  5  1  0  0  0
  5  6  1  0  0  0
  6  7  1  0  0  0
  6 33  1  0  0  0
 33 34  1  0  0  0
  4  8  1  0  0  0
  8  9  1  0  0  0
  9 10  2  0  0  0
 10 11  1  0  0  0
 11 12  2  0  0  0
 12 13  1  0  0  0
 13 14  2  0  0  0
 14 15  1  0  0  0
 15 16  2  0  0  0
 16 17  1  0  0  0
 17 18  2  0  0  0
 17 19  1  0  0  0
 19 20  1  0  0  0
 20 21  1  0  0  0
 21 22  2  0  0  0
 22 23  1  0  0  0
 23 24  2  0  0  0
 24 25  1  0  0  0
 25 26  2  0  0  0
 26 27  1  0  0  0
 27 28  2  0  0  0
 28 29  1  0  0  0
 29 30  1  0  0  0
 30 31  2  0  0  0
  6  2  1  0  0  0
 31  8  1  0  0  0
 29  2  1  0  0  0
 14  9  1  0  0  0
 31 15  1  0  0  0
 21 16  1  0  0  0
 30 22  1  0  0  0
 28 23  1  0  0  0
 34 35  1  0  0  0
 19 32  1  0  0  0
M  END
> <minimizedAffinity>
-11.18222

> <CNNscore>
0.5792697072

> <CNNaffinity>
6.9026021957

> <CNN_VS>
3.9984683990

> <CNNaffinity_variance>
0.0639438108

$$$$
[H]OC([H])([H])[C@@]1(C([H])([H])[H])C([H])([H])[C@@]2([H])O[C@]1(C([H])([H])[H])n1c3c([H])c([H])c([H])c([H])c3c3c4c(c5c6c([H])c([H])c([H])c([H])c6n2c5c31)C(=O)N([H])C4([H])[H]


 35 42  0  0  0  0  0  0  0  0999 V2000
  -19.7486   16.2692  -17.4652 C   0  0  0  0  0  0  0  0  0  0  0  0
  -19.4374   15.7921  -18.8454 C   0  0  0  0  0  0  0  0  0  0  0  0
  -18.3501   16.5400  -19.3545 O   0  0  0  0  0  0  0  0  0  0  0  0
  -18.4394   16.6476  -20.7129 C   0  0  0  0  0  0  0  0  0  0  0  0
  -19.8244   16.1680  -21.1503 C   0  0  0  0  0  0  0  0  0  0  0  0
  -20.5138   16.2682  -19.7695 C   0  0  0  0  0  0  0  0  0  0  0  0
  -21.6947   15.3625  -19.6933 C   0  0  0  0  0  0  0  0  0  0  0  0
  -17.5662   15.6424  -21.3452 N   0  0  0  0  0  0  0  0  0  0  0  0
  -16.7836   15.7438  -22.3817 C   0  0  0  0  0  0  0  0  0  0  0  0
  -16.4708   16.8242  -23.2102 C   0  0  0  0  0  0  0  0  0  0  0  0
  -15.5966   16.6769  -24.2657 C   0  0  0  0  0  0  0  0  0  0  0  0
  -15.0141   15.4531  -24.5210 C   0  0  0  0  0  0  0  0  0  0  0  0
  -15.3147   14.3738  -23.7084 C   0  0  0  0  0  0  0  0  0  0  0  0
  -16.1879   14.5159  -22.6521 C   0  0  0  0  0  0  0  0  0  0  0  0
  -16.6625   13.6469  -21.7028 C   0  0  0  0  0  0  0  0  0  0  0  0
  -16.5177   12.3152  -21.4126 C   0  0  0  0  0  0  0  0  0  0  0  0
  -15.7187   11.2922  -22.0387 C   0  0  0  0  0  0  0  0  0  0  0  0
  -14.9343   11.2676  -22.9998 O   0  0  0  0  0  0  0  0  0  0  0  0
  -15.9652   10.0725  -21.3027 N   0  0  0  0  0  0  0  0  0  0  0  0
  -16.8934   10.3092  -20.2451 C   0  0  0  0  0  0  0  0  0  0  0  0
  -17.2251   11.7531  -20.3388 C   0  0  0  0  0  0  0  0  0  0  0  0
  -18.0738   12.4880  -19.5440 C   0  0  0  0  0  0  0  0  0  0  0  0
  -18.8953   12.2636  -18.4657 C   0  0  0  0  0  0  0  0  0  0  0  0
  -19.1452   11.0858  -17.7871 C   0  0  0  0  0  0  0  0  0  0  0  0
  -20.0231   11.0253  -16.7287 C   0  0  0  0  0  0  0  0  0  0  0  0
  -20.6494   12.1842  -16.3658 C   0  0  0  0  0  0  0  0  0  0  0  0
  -20.4202   13.3698  -17.0230 C   0  0  0  0  0  0  0  0  0  0  0  0
  -19.5372   13.4206  -18.0811 C   0  0  0  0  0  0  0  0  0  0  0  0
  -19.0938   14.3932  -18.9465 N   0  0  0  0  0  0  0  0  0  0  0  0
  -18.2175   13.8197  -19.8307 C   0  0  0  0  0  0  0  0  0  0  0  0
  -17.5261   14.3860  -20.8929 C   0  0  0  0  0  0  0  0  0  0  0  0
  -15.5430    9.1367  -21.4899 H   0  0  0  0  0  0  0  0  0  0  0  0
  -20.8512   17.7172  -19.7252 C   0  0  0  0  0  0  0  0  0  0  0  0
  -21.6485   18.2128  -20.7365 O   0  0  0  0  0  0  0  0  0  0  0  0
  -21.6371   19.1976  -20.6516 H   0  0  0  0  0  0  0  0  0  0  0  0
  2  1  1  0  0  0
  2  3  1  0  0  0
  3  4  1  0  0  0
  4  5  1  0  0  0
  5  6  1  0  0  0
  6  7  1  0  0  0
  6 33  1  0  0  0
 33 34  1  0  0  0
  4  8  1  0  0  0
  8  9  1  0  0  0
  9 10  2  0  0  0
 10 11  1  0  0  0
 11 12  2  0  0  0
 12 13  1  0  0  0
 13 14  2  0  0  0
 14 15  1  0  0  0
 15 16  2  0  0  0
 16 17  1  0  0  0
 17 18  2  0  0  0
 17 19  1  0  0  0
 19 20  1  0  0  0
 20 21  1  0  0  0
 21 22  2  0  0  0
 22 23  1  0  0  0
 23 24  2  0  0  0
 24 25  1  0  0  0
 25 26  2  0  0  0
 26 27  1  0  0  0
 27 28  2  0  0  0
 28 29  1  0  0  0
 29 30  1  0  0  0
 30 31  2  0  0  0
  6  2  1  0  0  0
 31  8  1  0  0  0
 29  2  1  0  0  0
 14  9  1  0  0  0
 31 15  1  0  0  0
 21 16  1  0  0  0
 30 22  1  0  0  0
 28 23  1  0  0  0
 34 35  1  0  0  0
 19 32  1  0  0  0
M  END
> <minimizedAffinity>
-10.71860

> <CNNscore>
0.4919310808

> <CNNaffinity>
6.6835265160

> <CNN_VS>
3.2878344059

> <CNNaffinity_variance>
0.0945126265

$$$$
[H]OC([H])([H])[C@@]1(C([H])([H])[H])C([H])([H])[C@@]2([H])O[C@]1(C([H])([H])[H])n1c3c([H])c([H])c([H])c([H])c3c3c4c(c5c6c([H])c([H])c([H])c([H])c6n2c5c31)C(=O)N([H])C4([H])[H]


 35 42  0  0  0  0  0  0  0  0999 V2000
  -19.5422   18.8780  -20.1625 C   0  0  0  0  0  0  0  0  0  0  0  0
  -19.1737   17.9089  -21.2369 C   0  0  0  0  0  0  0  0  0  0  0  0
  -17.8603   18.1924  -21.6790 O   0  0  0  0  0  0  0  0  0  0  0  0
  -17.7153   17.8518  -22.9935 C   0  0  0  0  0  0  0  0  0  0  0  0
  -19.0985   17.5586  -23.5769 C   0  0  0  0  0  0  0  0  0  0  0  0
  -19.9297   18.2625  -22.4790 C   0  0  0  0  0  0  0  0  0  0  0  0
  -21.3115   17.7083  -22.4151 C   0  0  0  0  0  0  0  0  0  0  0  0
  -17.0679   16.5313  -23.0919 N   0  0  0  0  0  0  0  0  0  0  0  0
  -16.1435   16.1085  -23.9067 C   0  0  0  0  0  0  0  0  0  0  0  0
  -15.4279   16.7537  -24.9182 C   0  0  0  0  0  0  0  0  0  0  0  0
  -14.4818   16.0770  -25.6579 C   0  0  0  0  0  0  0  0  0  0  0  0
  -14.2263   14.7448  -25.4088 C   0  0  0  0  0  0  0  0  0  0  0  0
  -14.9277   14.0928  -24.4096 C   0  0  0  0  0  0  0  0  0  0  0  0
  -15.8743   14.7647  -23.6674 C   0  0  0  0  0  0  0  0  0  0  0  0
  -16.7036   14.3887  -22.6415 C   0  0  0  0  0  0  0  0  0  0  0  0
  -16.9739   13.2344  -21.9537 C   0  0  0  0  0  0  0  0  0  0  0  0
  -16.4029   11.9153  -22.0581 C   0  0  0  0  0  0  0  0  0  0  0  0
  -15.5225   11.4020  -22.7659 O   0  0  0  0  0  0  0  0  0  0  0  0
  -17.0801   11.0972  -21.0771 N   0  0  0  0  0  0  0  0  0  0  0  0
  -18.0532   11.8680  -20.3736 C   0  0  0  0  0  0  0  0  0  0  0  0
  -17.9587   13.2311  -20.9538 C   0  0  0  0  0  0  0  0  0  0  0  0
  -18.6809   14.3534  -20.6205 C   0  0  0  0  0  0  0  0  0  0  0  0
  -19.6821   14.6857  -19.7401 C   0  0  0  0  0  0  0  0  0  0  0  0
  -20.3427   13.8874  -18.8255 C   0  0  0  0  0  0  0  0  0  0  0  0
  -21.3496   14.3752  -18.0239 C   0  0  0  0  0  0  0  0  0  0  0  0
  -21.6804   15.6934  -18.1642 C   0  0  0  0  0  0  0  0  0  0  0  0
  -21.0406   16.5106  -19.0659 C   0  0  0  0  0  0  0  0  0  0  0  0
  -20.0315   16.0128  -19.8633 C   0  0  0  0  0  0  0  0  0  0  0  0
  -19.2159   16.5188  -20.8482 N   0  0  0  0  0  0  0  0  0  0  0  0
  -18.4100   15.5086  -21.3049 C   0  0  0  0  0  0  0  0  0  0  0  0
  -17.4411   15.5230  -22.2989 C   0  0  0  0  0  0  0  0  0  0  0  0
  -16.9079   10.0862  -20.8844 H   0  0  0  0  0  0  0  0  0  0  0  0
  -19.8595   19.6780  -22.9336 C   0  0  0  0  0  0  0  0  0  0  0  0
  -20.3236   19.9592  -24.2023 O   0  0  0  0  0  0  0  0  0  0  0  0
  -20.0560   20.8892  -24.4039 H   0  0  0  0  0  0  0  0  0  0  0  0
  2  1  1  0  0  0
  2  3  1  0  0  0
  3  4  1  0  0  0
  4  5  1  0  0  0
  5  6  1  0  0  0
  6  7  1  0  0  0
  6 33  1  0  0  0
 33 34  1  0  0  0
  4  8  1  0  0  0
  8  9  1  0  0  0
  9 10  2  0  0  0
 10 11  1  0  0  0
 11 12  2  0  0  0
 12 13  1  0  0  0
 13 14  2  0  0  0
 14 15  1  0  0  0
 15 16  2  0  0  0
 16 17  1  0  0  0
 17 18  2  0  0  0
 17 19  1  0  0  0
 19 20  1  0  0  0
 20 21  1  0  0  0
 21 22  2  0  0  0
 22 23  1  0  0  0
 23 24  2  0  0  0
 24 25  1  0  0  0
 25 26  2  0  0  0
 26 27  1  0  0  0
 27 28  2  0  0  0
 28 29  1  0  0  0
 29 30  1  0  0  0
 30 31  2  0  0  0
  6  2  1  0  0  0
 31  8  1  0  0  0
 29  2  1  0  0  0
 14  9  1  0  0  0
 31 15  1  0  0  0
 21 16  1  0  0  0
 30 22  1  0  0  0
 28 23  1  0  0  0
 34 35  1  0  0  0
 19 32  1  0  0  0
M  END
> <minimizedAffinity>
-10.48470

> <CNNscore>
0.3752287924

> <CNNaffinity>
6.4814553261

> <CNN_VS>
2.4320287704

> <CNNaffinity_variance>
0.2103585899

$$$$
[H]OC([H])([H])[C@@]1(C([H])([H])[H])C([H])([H])[C@@]2([H])O[C@]1(C([H])([H])[H])n1c3c([H])c([H])c([H])c([H])c3c3c4c(c5c6c([H])c([H])c([H])c([H])c6n2c5c31)C(=O)N([H])C4([H])[H]


 35 42  0  0  0  0  0  0  0  0999 V2000
  -21.8580   16.6427  -19.0056 C   0  0  0  0  0  0  0  0  0  0  0  0
  -20.5189   16.0081  -19.1885 C   0  0  0  0  0  0  0  0  0  0  0  0
  -20.6444   14.6115  -19.0027 O   0  0  0  0  0  0  0  0  0  0  0  0
  -19.4832   14.0896  -18.5085 C   0  0  0  0  0  0  0  0  0  0  0  0
  -18.5777   15.2420  -18.0710 C   0  0  0  0  0  0  0  0  0  0  0  0
  -19.6689   16.3357  -18.0012 C   0  0  0  0  0  0  0  0  0  0  0  0
  -19.0761   17.6945  -18.1525 C   0  0  0  0  0  0  0  0  0  0  0  0
  -18.6998   13.5008  -19.6095 N   0  0  0  0  0  0  0  0  0  0  0  0
  -18.0173   12.3921  -19.6543 C   0  0  0  0  0  0  0  0  0  0  0  0
  -17.8287   11.3761  -18.7143 C   0  0  0  0  0  0  0  0  0  0  0  0
  -17.0439   10.2806  -19.0040 C   0  0  0  0  0  0  0  0  0  0  0  0
  -16.4293   10.1707  -20.2337 C   0  0  0  0  0  0  0  0  0  0  0  0
  -16.6072   11.1697  -21.1749 C   0  0  0  0  0  0  0  0  0  0  0  0
  -17.3907   12.2667  -20.8902 C   0  0  0  0  0  0  0  0  0  0  0  0
  -17.7385   13.3836  -21.6066 C   0  0  0  0  0  0  0  0  0  0  0  0
  -17.4538   13.8997  -22.8441 C   0  0  0  0  0  0  0  0  0  0  0  0
  -16.6510   13.3817  -23.9231 C   0  0  0  0  0  0  0  0  0  0  0  0
  -15.9807   12.3512  -24.0916 O   0  0  0  0  0  0  0  0  0  0  0  0
  -16.7143   14.3594  -24.9863 N   0  0  0  0  0  0  0  0  0  0  0  0
  -17.5269   15.4656  -24.5966 C   0  0  0  0  0  0  0  0  0  0  0  0
  -17.9885   15.1405  -23.2236 C   0  0  0  0  0  0  0  0  0  0  0  0
  -18.8036   15.8803  -22.3988 C   0  0  0  0  0  0  0  0  0  0  0  0
  -19.4610   17.0859  -22.4453 C   0  0  0  0  0  0  0  0  0  0  0  0
  -19.4912   18.0268  -23.4573 C   0  0  0  0  0  0  0  0  0  0  0  0
  -20.1885   19.2072  -23.3360 C   0  0  0  0  0  0  0  0  0  0  0  0
  -20.8592   19.4224  -22.1652 C   0  0  0  0  0  0  0  0  0  0  0  0
  -20.8463   18.5044  -21.1418 C   0  0  0  0  0  0  0  0  0  0  0  0
  -20.1462   17.3236  -21.2738 C   0  0  0  0  0  0  0  0  0  0  0  0
  -19.9091   16.2265  -20.4791 N   0  0  0  0  0  0  0  0  0  0  0  0
  -19.0916   15.3647  -21.1628 C   0  0  0  0  0  0  0  0  0  0  0  0
  -18.5651   14.1403  -20.7747 C   0  0  0  0  0  0  0  0  0  0  0  0
  -16.2460   14.2977  -25.9168 H   0  0  0  0  0  0  0  0  0  0  0  0
  -20.2520   16.0696  -16.6579 C   0  0  0  0  0  0  0  0  0  0  0  0
  -19.4755   16.3750  -15.5589 O   0  0  0  0  0  0  0  0  0  0  0  0
  -19.9326   15.9904  -14.7713 H   0  0  0  0  0  0  0  0  0  0  0  0
  2  1  1  0  0  0
  2  3  1  0  0  0
  3  4  1  0  0  0
  4  5  1  0  0  0
  5  6  1  0  0  0
  6  7  1  0  0  0
  6 33  1  0  0  0
 33 34  1  0  0  0
  4  8  1  0  0  0
  8  9  1  0  0  0
  9 10  2  0  0  0
 10 11  1  0  0  0
 11 12  2  0  0  0
 12 13  1  0  0  0
 13 14  2  0  0  0
 14 15  1  0  0  0
 15 16  2  0  0  0
 16 17  1  0  0  0
 17 18  2  0  0  0
 17 19  1  0  0  0
 19 20  1  0  0  0
 20 21  1  0  0  0
 21 22  2  0  0  0
 22 23  1  0  0  0
 23 24  2  0  0  0
 24 25  1  0  0  0
 25 26  2  0  0  0
 26 27  1  0  0  0
 27 28  2  0  0  0
 28 29  1  0  0  0
 29 30  1  0  0  0
 30 31  2  0  0  0
  6  2  1  0  0  0
 31  8  1  0  0  0
 29  2  1  0  0  0
 14  9  1  0  0  0
 31 15  1  0  0  0
 21 16  1  0  0  0
 30 22  1  0  0  0
 28 23  1  0  0  0
 34 35  1  0  0  0
 19 32  1  0  0  0
M  END
> <minimizedAffinity>
-11.49911

> <CNNscore>
0.3109728098

> <CNNaffinity>
6.3615303040

> <CNN_VS>
1.9782629013

> <CNNaffinity_variance>
0.3645891547

$$$$
[H]OC([H])([H])[C@@]1(C([H])([H])[H])C([H])([H])[C@@]2([H])O[C@]1(C([H])([H])[H])n1c3c([H])c([H])c([H])c([H])c3c3c4c(c5c6c([H])c([H])c([H])c([H])c6n2c5c31)C(=O)N([H])C4([H])[H]


 35 42  0  0  0  0  0  0  0  0999 V2000
  -16.9447   12.6711  -24.8496 C   0  0  0  0  0  0  0  0  0  0  0  0
  -17.1560   13.8547  -23.9642 C   0  0  0  0  0  0  0  0  0  0  0  0
  -18.2934   14.5657  -24.4134 O   0  0  0  0  0  0  0  0  0  0  0  0
  -18.1657   15.8962  -24.1332 C   0  0  0  0  0  0  0  0  0  0  0  0
  -16.7246   16.1671  -23.6981 C   0  0  0  0  0  0  0  0  0  0  0  0
  -16.0996   14.8710  -24.2651 C   0  0  0  0  0  0  0  0  0  0  0  0
  -14.8376   14.5278  -23.5510 C   0  0  0  0  0  0  0  0  0  0  0  0
  -18.9103   16.2140  -22.9015 N   0  0  0  0  0  0  0  0  0  0  0  0
  -19.6608   17.2397  -22.6156 C   0  0  0  0  0  0  0  0  0  0  0  0
  -20.0496   18.3484  -23.3713 C   0  0  0  0  0  0  0  0  0  0  0  0
  -20.8656   19.3205  -22.8336 C   0  0  0  0  0  0  0  0  0  0  0  0
  -21.3129   19.2124  -21.5335 C   0  0  0  0  0  0  0  0  0  0  0  0
  -20.9357   18.1193  -20.7730 C   0  0  0  0  0  0  0  0  0  0  0  0
  -20.1202   17.1449  -21.3058 C   0  0  0  0  0  0  0  0  0  0  0  0
  -19.5960   15.9811  -20.8034 C   0  0  0  0  0  0  0  0  0  0  0  0
  -19.6173   15.3171  -19.6045 C   0  0  0  0  0  0  0  0  0  0  0  0
  -20.2865   15.6234  -18.3654 C   0  0  0  0  0  0  0  0  0  0  0  0
  -21.0289   16.5404  -17.9812 O   0  0  0  0  0  0  0  0  0  0  0  0
  -19.9463   14.5630  -17.4434 N   0  0  0  0  0  0  0  0  0  0  0  0
  -19.0857   13.6145  -18.0725 C   0  0  0  0  0  0  0  0  0  0  0  0
  -18.8969   14.1221  -19.4547 C   0  0  0  0  0  0  0  0  0  0  0  0
  -18.1556   13.5704  -20.4736 C   0  0  0  0  0  0  0  0  0  0  0  0
  -17.3557   12.4686  -20.6586 C   0  0  0  0  0  0  0  0  0  0  0  0
  -17.0141   11.4754  -19.7603 C   0  0  0  0  0  0  0  0  0  0  0  0
  -16.1738   10.4401  -20.1015 C   0  0  0  0  0  0  0  0  0  0  0  0
  -15.6804   10.4261  -21.3755 C   0  0  0  0  0  0  0  0  0  0  0  0
  -16.0029   11.4010  -22.2897 C   0  0  0  0  0  0  0  0  0  0  0  0
  -16.8473   12.4334  -21.9388 C   0  0  0  0  0  0  0  0  0  0  0  0
  -17.3539   13.5467  -22.5673 N   0  0  0  0  0  0  0  0  0  0  0  0
  -18.1356   14.2311  -21.6734 C   0  0  0  0  0  0  0  0  0  0  0  0
  -18.8409   15.4161  -21.8322 C   0  0  0  0  0  0  0  0  0  0  0  0
  -20.2656   14.4725  -16.4541 H   0  0  0  0  0  0  0  0  0  0  0  0
  -15.9108   15.2480  -25.6926 C   0  0  0  0  0  0  0  0  0  0  0  0
  -15.2442   16.4277  -25.9529 O   0  0  0  0  0  0  0  0  0  0  0  0
  -15.3506   16.6079  -26.9191 H   0  0  0  0  0  0  0  0  0  0  0  0
  2  1  1  0  0  0
  2  3  1  0  0  0
  3  4  1  0  0  0
  4  5  1  0  0  0
  5  6  1  0  0  0
  6  7  1  0  0  0
  6 33  1  0  0  0
 33 34  1  0  0  0
  4  8  1  0  0  0
  8  9  1  0  0  0
  9 10  2  0  0  0
 10 11  1  0  0  0
 11 12  2  0  0  0
 12 13  1  0  0  0
 13 14  2  0  0  0
 14 15  1  0  0  0
 15 16  2  0  0  0
 16 17  1  0  0  0
 17 18  2  0  0  0
 17 19  1  0  0  0
 19 20  1  0  0  0
 20 21  1  0  0  0
 21 22  2  0  0  0
 22 23  1  0  0  0
 23 24  2  0  0  0
 24 25  1  0  0  0
 25 26  2  0  0  0
 26 27  1  0  0  0
 27 28  2  0  0  0
 28 29  1  0  0  0
 29 30  1  0  0  0
 30 31  2  0  0  0
  6  2  1  0  0  0
 31  8  1  0  0  0
 29  2  1  0  0  0
 14  9  1  0  0  0
 31 15  1  0  0  0
 21 16  1  0  0  0
 30 22  1  0  0  0
 28 23  1  0  0  0
 34 35  1  0  0  0
 19 32  1  0  0  0
M  END
> <minimizedAffinity>
-11.15237

> <CNNscore>
0.2958996892

> <CNNaffinity>
6.3343801498

> <CNN_VS>
1.8743411303

> <CNNaffinity_variance>
0.7281721234

$$$$
[H]OC([H])([H])[C@@]1(C([H])([H])[H])C([H])([H])[C@@]2([H])O[C@]1(C([H])([H])[H])n1c3c([H])c([H])c([H])c([H])c3c3c4c(c5c6c([H])c([H])c([H])c([H])c6n2c5c31)C(=O)N([H])C4([H])[H]


 35 42  0  0  0  0  0  0  0  0999 V2000
  -19.3471   19.6444  -23.9810 C   0  0  0  0  0  0  0  0  0  0  0  0
  -19.7487   18.9656  -22.7132 C   0  0  0  0  0  0  0  0  0  0  0  0
  -18.7285   19.1508  -21.7511 O   0  0  0  0  0  0  0  0  0  0  0  0
  -18.6886   18.0930  -20.8884 C   0  0  0  0  0  0  0  0  0  0  0  0
  -19.5652   16.9723  -21.4496 C   0  0  0  0  0  0  0  0  0  0  0  0
  -19.6347   17.4861  -22.9067 C   0  0  0  0  0  0  0  0  0  0  0  0
  -20.8447   16.9636  -23.6019 C   0  0  0  0  0  0  0  0  0  0  0  0
  -19.4097   18.4394  -19.6504 N   0  0  0  0  0  0  0  0  0  0  0  0
  -19.1110   18.1893  -18.4073 C   0  0  0  0  0  0  0  0  0  0  0  0
  -18.0091   17.5601  -17.8229 C   0  0  0  0  0  0  0  0  0  0  0  0
  -17.9216   17.4122  -16.4552 C   0  0  0  0  0  0  0  0  0  0  0  0
  -18.9268   17.8861  -15.6385 C   0  0  0  0  0  0  0  0  0  0  0  0
  -20.0245   18.5115  -16.2037 C   0  0  0  0  0  0  0  0  0  0  0  0
  -20.1167   18.6618  -17.5702 C   0  0  0  0  0  0  0  0  0  0  0  0
  -21.0608   19.2238  -18.3914 C   0  0  0  0  0  0  0  0  0  0  0  0
  -22.2830   19.8244  -18.2362 C   0  0  0  0  0  0  0  0  0  0  0  0
  -23.0429   20.1302  -17.0504 C   0  0  0  0  0  0  0  0  0  0  0  0
  -22.8620   19.9635  -15.8342 O   0  0  0  0  0  0  0  0  0  0  0  0
  -24.2609   20.7678  -17.4978 N   0  0  0  0  0  0  0  0  0  0  0  0
  -24.2788   20.8617  -18.9214 C   0  0  0  0  0  0  0  0  0  0  0  0
  -22.9990   20.2537  -19.3643 C   0  0  0  0  0  0  0  0  0  0  0  0
  -22.5245   20.1004  -20.6463 C   0  0  0  0  0  0  0  0  0  0  0  0
  -22.9511   20.3823  -21.9216 C   0  0  0  0  0  0  0  0  0  0  0  0
  -24.1316   20.9670  -22.3395 C   0  0  0  0  0  0  0  0  0  0  0  0
  -24.4187   21.1608  -23.6716 C   0  0  0  0  0  0  0  0  0  0  0  0
  -23.4854   20.7498  -24.5810 C   0  0  0  0  0  0  0  0  0  0  0  0
  -22.3028   20.1650  -24.1939 C   0  0  0  0  0  0  0  0  0  0  0  0
  -22.0236   19.9769  -22.8565 C   0  0  0  0  0  0  0  0  0  0  0  0
  -20.9874   19.4315  -22.1353 N   0  0  0  0  0  0  0  0  0  0  0  0
  -21.3018   19.5030  -20.8032 C   0  0  0  0  0  0  0  0  0  0  0  0
  -20.5863   19.0705  -19.6950 C   0  0  0  0  0  0  0  0  0  0  0  0
  -25.0361   21.1205  -16.8949 H   0  0  0  0  0  0  0  0  0  0  0  0
  -18.3479   16.9724  -23.4505 C   0  0  0  0  0  0  0  0  0  0  0  0
  -18.4013   16.2440  -24.6212 O   0  0  0  0  0  0  0  0  0  0  0  0
  -17.5058   15.8455  -24.7499 H   0  0  0  0  0  0  0  0  0  0  0  0
  2  1  1  0  0  0
  2  3  1  0  0  0
  3  4  1  0  0  0
  4  5  1  0  0  0
  5  6  1  0  0  0
  6  7  1  0  0  0
  6 33  1  0  0  0
 33 34  1  0  0  0
  4  8  1  0  0  0
  8  9  1  0  0  0
  9 10  2  0  0  0
 10 11  1  0  0  0
 11 12  2  0  0  0
 12 13  1  0  0  0
 13 14  2  0  0  0
 14 15  1  0  0  0
 15 16  2  0  0  0
 16 17  1  0  0  0
 17 18  2  0  0  0
 17 19  1  0  0  0
 19 20  1  0  0  0
 20 21  1  0  0  0
 21 22  2  0  0  0
 22 23  1  0  0  0
 23 24  2  0  0  0
 24 25  1  0  0  0
 25 26  2  0  0  0
 26 27  1  0  0  0
 27 28  2  0  0  0
 28 29  1  0  0  0
 29 30  1  0  0  0
 30 31  2  0  0  0
  6  2  1  0  0  0
 31  8  1  0  0  0
 29  2  1  0  0  0
 14  9  1  0  0  0
 31 15  1  0  0  0
 21 16  1  0  0  0
 30 22  1  0  0  0
 28 23  1  0  0  0
 34 35  1  0  0  0
 19 32  1  0  0  0
M  END
> <minimizedAffinity>
-2.53811

> <CNNscore>
0.2624584734

> <CNNaffinity>
5.5984101295

> <CNN_VS>
1.4693502188

> <CNNaffinity_variance>
0.7599596381

$$$$
[H]OC([H])([H])[C@@]1(C([H])([H])[H])C([H])([H])[C@@]2([H])O[C@]1(C([H])([H])[H])n1c3c([H])c([H])c([H])c([H])c3c3c4c(c5c6c([H])c([H])c([H])c([H])c6n2c5c31)C(=O)N([H])C4([H])[H]


 35 42  0  0  0  0  0  0  0  0999 V2000
  -16.0613   17.0799  -23.4412 C   0  0  0  0  0  0  0  0  0  0  0  0
  -16.8880   16.0060  -22.8147 C   0  0  0  0  0  0  0  0  0  0  0  0
  -16.0453   14.9263  -22.4614 O   0  0  0  0  0  0  0  0  0  0  0  0
  -16.7307   13.7466  -22.5215 C   0  0  0  0  0  0  0  0  0  0  0  0
  -18.0682   13.9946  -23.2209 C   0  0  0  0  0  0  0  0  0  0  0  0
  -17.6984   15.3422  -23.8833 C   0  0  0  0  0  0  0  0  0  0  0  0
  -18.9176   16.1466  -24.1785 C   0  0  0  0  0  0  0  0  0  0  0  0
  -17.1721   13.3637  -21.1684 N   0  0  0  0  0  0  0  0  0  0  0  0
  -17.1839   12.1973  -20.5882 C   0  0  0  0  0  0  0  0  0  0  0  0
  -16.7526   10.9397  -21.0170 C   0  0  0  0  0  0  0  0  0  0  0  0
  -16.8757    9.8339  -20.2033 C   0  0  0  0  0  0  0  0  0  0  0  0
  -17.4300    9.9535  -18.9462 C   0  0  0  0  0  0  0  0  0  0  0  0
  -17.8618   11.1933  -18.5081 C   0  0  0  0  0  0  0  0  0  0  0  0
  -17.7409   12.3017  -19.3176 C   0  0  0  0  0  0  0  0  0  0  0  0
  -18.0728   13.6229  -19.1564 C   0  0  0  0  0  0  0  0  0  0  0  0
  -18.6702   14.3870  -18.1880 C   0  0  0  0  0  0  0  0  0  0  0  0
  -19.1632   14.0394  -16.8791 C   0  0  0  0  0  0  0  0  0  0  0  0
  -19.2137   12.9900  -16.2190 O   0  0  0  0  0  0  0  0  0  0  0  0
  -19.6903   15.2564  -16.3036 N   0  0  0  0  0  0  0  0  0  0  0  0
  -19.5420   16.3428  -17.2167 C   0  0  0  0  0  0  0  0  0  0  0  0
  -18.8829   15.7562  -18.4106 C   0  0  0  0  0  0  0  0  0  0  0  0
  -18.5121   16.3843  -19.5768 C   0  0  0  0  0  0  0  0  0  0  0  0
  -18.5784   17.6499  -20.1076 C   0  0  0  0  0  0  0  0  0  0  0  0
  -19.1110   18.8013  -19.5590 C   0  0  0  0  0  0  0  0  0  0  0  0
  -19.1184   19.9980  -20.2389 C   0  0  0  0  0  0  0  0  0  0  0  0
  -18.5748   20.0111  -21.4924 C   0  0  0  0  0  0  0  0  0  0  0  0
  -18.0385   18.8810  -22.0629 C   0  0  0  0  0  0  0  0  0  0  0  0
  -18.0341   17.6870  -21.3728 C   0  0  0  0  0  0  0  0  0  0  0  0
  -17.6125   16.4035  -21.6304 N   0  0  0  0  0  0  0  0  0  0  0  0
  -17.9122   15.6227  -20.5446 C   0  0  0  0  0  0  0  0  0  0  0  0
  -17.7004   14.2666  -20.3374 C   0  0  0  0  0  0  0  0  0  0  0  0
  -20.1237   15.3617  -15.3602 H   0  0  0  0  0  0  0  0  0  0  0  0
  -16.9683   14.8732  -25.0926 C   0  0  0  0  0  0  0  0  0  0  0  0
  -17.5544   13.8694  -25.8363 O   0  0  0  0  0  0  0  0  0  0  0  0
  -16.8777   13.5675  -26.4907 H   0  0  0  0  0  0  0  0  0  0  0  0
  2  1  1  0  0  0
  2  3  1  0  0  0
  3  4  1  0  0  0
  4  5  1  0  0  0
  5  6  1  0  0  0
  6  7  1  0  0  0
  6 33  1  0  0  0
 33 34  1  0  0  0
  4  8  1  0  0  0
  8  9  1  0  0  0
  9 10  2  0  0  0
 10 11  1  0  0  0
 11 12  2  0  0  0
 12 13  1  0  0  0
 13 14  2  0  0  0
 14 15  1  0  0  0
 15 16  2  0  0  0
 16 17  1  0  0  0
 17 18  2  0  0  0
 17 19  1  0  0  0
 19 20  1  0  0  0
 20 21  1  0  0  0
 21 22  2  0  0  0
 22 23  1  0  0  0
 23 24  2  0  0  0
 24 25  1  0  0  0
 25 26  2  0  0  0
 26 27  1  0  0  0
 27 28  2  0  0  0
 28 29  1  0  0  0
 29 30  1  0  0  0
 30 31  2  0  0  0
  6  2  1  0  0  0
 31  8  1  0  0  0
 29  2  1  0  0  0
 14  9  1  0  0  0
 31 15  1  0  0  0
 21 16  1  0  0  0
 30 22  1  0  0  0
 28 23  1  0  0  0
 34 35  1  0  0  0
 19 32  1  0  0  0
M  END
> <minimizedAffinity>
-10.80352

> <CNNscore>
0.2529016733

> <CNNaffinity>
6.3703031540

> <CNN_VS>
1.6110603809

> <CNNaffinity_variance>
0.3802942932

$$$$
[H]N=C(N([H])[H])N([H])C([H])([H])C([H])([H])C([H])([H])[C@@]([H])(C(=O)N([H])[C@]([H])(C(=O)N([H])[H])C([H])([H])c1c([H])n([H])c2c([H])c([H])c([H])c([H])c12)N([H])C(=O)[C@@]([H])(N([H])C(=O)[C@@]([H])(N([H])C(=O)[C@@]([H])(N([H])[H])C([H])([H])c1c([H])c([H])c(O[H])c([H])c1[H])C([H])([H])C([H])(C([H])([H])[H])C([H])([H])[H])C([H])([H])c1c([H])c([H])c([H])c([H])c1[H]


 71 74  0  0  0  0  0  0  0  0999 V2000
  -17.5583   15.9088  -21.2659 C   0  0  0  0  0  0  0  0  0  0  0  0
  -16.4200   16.5270  -20.9674 O   0  0  0  0  0  0  0  0  0  0  0  0
  -18.1176   16.4376  -22.4477 N   0  0  0  0  0  0  0  0  0  0  0  0
  -18.9798   16.0939  -22.8850 H   0  0  0  0  0  0  0  0  0  0  0  0
  -17.9678   14.8667  -20.3594 C   0  0  0  0  0  0  0  0  0  0  0  0
  -18.7350   15.8177  -18.1835 C   0  0  0  0  0  0  0  0  0  0  0  0
  -17.5569   15.6145  -17.8079 O   0  0  0  0  0  0  0  0  0  0  0  0
  -19.0676   15.4529  -19.4976 N   0  0  0  0  0  0  0  0  0  0  0  0
  -19.9863   15.5387  -19.9525 H   0  0  0  0  0  0  0  0  0  0  0  0
  -19.7559   16.4414  -17.2255 C   0  0  0  0  0  0  0  0  0  0  0  0
  -20.0689   15.3789  -16.2262 N   0  0  0  0  0  0  0  0  0  0  0  0
  -20.9071   14.3129  -16.5699 C   0  0  0  0  0  0  0  0  0  0  0  0
  -21.3418   14.3270  -17.7843 O   0  0  0  0  0  0  0  0  0  0  0  0
  -19.6656   15.4407  -15.2720 H   0  0  0  0  0  0  0  0  0  0  0  0
  -21.3556   13.1922  -15.7536 C   0  0  0  0  0  0  0  0  0  0  0  0
  -22.7056   13.4645  -15.2814 N   0  0  0  0  0  0  0  0  0  0  0  0
  -22.8364   14.4753  -15.1663 H   0  0  0  0  0  0  0  0  0  0  0  0
  -22.8400   12.9650  -14.3813 H   0  0  0  0  0  0  0  0  0  0  0  0
  -21.1606   11.8260  -16.2505 C   0  0  0  0  0  0  0  0  0  0  0  0
  -20.4653   10.8385  -15.4220 C   0  0  0  0  0  0  0  0  0  0  0  0
  -20.0899   11.0885  -14.1235 C   0  0  0  0  0  0  0  0  0  0  0  0
  -19.4339   10.1403  -13.3450 C   0  0  0  0  0  0  0  0  0  0  0  0
  -19.1375    8.9064  -13.8569 C   0  0  0  0  0  0  0  0  0  0  0  0
  -18.4750    7.9545  -13.0624 O   0  0  0  0  0  0  0  0  0  0  0  0
  -19.5061    8.6228  -15.1751 C   0  0  0  0  0  0  0  0  0  0  0  0
  -20.1523    9.5665  -15.9334 C   0  0  0  0  0  0  0  0  0  0  0  0
  -19.1183    7.3477  -12.5201 H   0  0  0  0  0  0  0  0  0  0  0  0
  -19.2334   17.6376  -16.5408 C   0  0  0  0  0  0  0  0  0  0  0  0
  -20.7280   19.5714  -16.1958 C   0  0  0  0  0  0  0  0  0  0  0  0
  -20.2134   18.2812  -15.6061 C   0  0  0  0  0  0  0  0  0  0  0  0
  -19.6321   18.6091  -14.2531 C   0  0  0  0  0  0  0  0  0  0  0  0
  -18.5217   13.6134  -20.9375 C   0  0  0  0  0  0  0  0  0  0  0  0
  -17.9841   12.3794  -20.3859 C   0  0  0  0  0  0  0  0  0  0  0  0
  -18.3790   12.0284  -19.0553 C   0  0  0  0  0  0  0  0  0  0  0  0
  -17.9463   10.8758  -18.4826 C   0  0  0  0  0  0  0  0  0  0  0  0
  -17.1210    9.9809  -19.1125 C   0  0  0  0  0  0  0  0  0  0  0  0
  -16.7388   10.3332  -20.4212 C   0  0  0  0  0  0  0  0  0  0  0  0
  -17.1702   11.4869  -20.9994 C   0  0  0  0  0  0  0  0  0  0  0  0
  -17.4143   17.5437  -23.1471 C   0  0  0  0  0  0  0  0  0  0  0  0
  -18.4020   18.6842  -23.0345 C   0  0  0  0  0  0  0  0  0  0  0  0
  -18.4933   19.3814  -24.1266 O   0  0  0  0  0  0  0  0  0  0  0  0
  -19.0949   18.8687  -21.8808 N   0  0  0  0  0  0  0  0  0  0  0  0
  -18.9364   18.1793  -21.0742 H   0  0  0  0  0  0  0  0  0  0  0  0
  -20.0404   19.9118  -21.6179 C   0  0  0  0  0  0  0  0  0  0  0  0
  -19.9645   20.3663  -20.2412 C   0  0  0  0  0  0  0  0  0  0  0  0
  -18.7651   20.3649  -19.4927 N   0  0  0  0  0  0  0  0  0  0  0  0
  -21.0354   20.7740  -19.7054 O   0  0  0  0  0  0  0  0  0  0  0  0
  -18.7577   20.7103  -18.4952 H   0  0  0  0  0  0  0  0  0  0  0  0
  -17.8501   20.0314  -19.8653 H   0  0  0  0  0  0  0  0  0  0  0  0
  -21.4267   19.3124  -22.0002 C   0  0  0  0  0  0  0  0  0  0  0  0
  -21.8231   19.8036  -23.3250 C   0  0  0  0  0  0  0  0  0  0  0  0
  -21.7172   21.1428  -23.7279 C   0  0  0  0  0  0  0  0  0  0  0  0
  -22.2838   21.1971  -24.9407 N   0  0  0  0  0  0  0  0  0  0  0  0
  -22.7259   19.9898  -25.3107 C   0  0  0  0  0  0  0  0  0  0  0  0
  -23.3485   19.5082  -26.4575 C   0  0  0  0  0  0  0  0  0  0  0  0
  -23.6694   18.1945  -26.5910 C   0  0  0  0  0  0  0  0  0  0  0  0
  -23.3840   17.2587  -25.5616 C   0  0  0  0  0  0  0  0  0  0  0  0
  -22.7791   17.7546  -24.4558 C   0  0  0  0  0  0  0  0  0  0  0  0
  -22.4571   19.0890  -24.3305 C   0  0  0  0  0  0  0  0  0  0  0  0
  -22.3709   22.0670  -25.5305 H   0  0  0  0  0  0  0  0  0  0  0  0
  -17.0070   17.2178  -24.5186 C   0  0  0  0  0  0  0  0  0  0  0  0
  -15.5721   16.7581  -24.5359 C   0  0  0  0  0  0  0  0  0  0  0  0
  -15.5186   15.2796  -24.3628 C   0  0  0  0  0  0  0  0  0  0  0  0
  -16.1139   14.5876  -25.4551 N   0  0  0  0  0  0  0  0  0  0  0  0
  -15.7113   14.7441  -26.4279 H   0  0  0  0  0  0  0  0  0  0  0  0
  -17.2087   13.7004  -25.3853 C   0  0  0  0  0  0  0  0  0  0  0  0
  -17.1886   12.4419  -26.0599 N   0  0  0  0  0  0  0  0  0  0  0  0
  -18.2556   14.0203  -24.6911 N   0  0  0  0  0  0  0  0  0  0  0  0
  -17.6141   11.6087  -25.6244 H   0  0  0  0  0  0  0  0  0  0  0  0
  -16.7196   12.4242  -27.0025 H   0  0  0  0  0  0  0  0  0  0  0  0
  -18.2983   14.9168  -24.1858 H   0  0  0  0  0  0  0  0  0  0  0  0
 29 30  1  0  0  0
 30 31  1  0  0  0
 30 28  1  0  0  0
 28 10  1  0  0  0
 10 11  1  0  0  0
 11 12  1  0  0  0
 12 13  2  0  0  0
 12 15  1  0  0  0
 15 16  1  0  0  0
 15 19  1  0  0  0
 19 20  1  0  0  0
 20 21  2  0  0  0
 21 22  1  0  0  0
 22 23  2  0  0  0
 23 24  1  0  0  0
 23 25  1  0  0  0
 25 26  2  0  0  0
 10  6  1  0  0  0
  6  7  2  0  0  0
  6  8  1  0  0  0
  8  5  1  0  0  0
  5 32  1  0  0  0
 32 33  1  0  0  0
 33 34  2  0  0  0
 34 35  1  0  0  0
 35 36  2  0  0  0
 36 37  1  0  0  0
 37 38  2  0  0  0
  5  1  1  0  0  0
  1  2  2  0  0  0
  1  3  1  0  0  0
  3 39  1  0  0  0
 39 61  1  0  0  0
 61 62  1  0  0  0
 62 63  1  0  0  0
 63 64  1  0  0  0
 64 66  1  0  0  0
 66 67  1  0  0  0
 66 68  2  0  0  0
 39 40  1  0  0  0
 40 41  2  0  0  0
 40 42  1  0  0  0
 42 44  1  0  0  0
 44 50  1  0  0  0
 50 51  1  0  0  0
 51 52  2  0  0  0
 52 53  1  0  0  0
 53 54  1  0  0  0
 54 55  2  0  0  0
 55 56  1  0  0  0
 56 57  2  0  0  0
 57 58  1  0  0  0
 58 59  2  0  0  0
 44 45  1  0  0  0
 45 46  1  0  0  0
 45 47  2  0  0  0
 26 20  1  0  0  0
 38 33  1  0  0  0
 59 51  1  0  0  0
 59 54  1  0  0  0
 11 14  1  0  0  0
 16 17  1  0  0  0
 16 18  1  0  0  0
 24 27  1  0  0  0
  8  9  1  0  0  0
  3  4  1  0  0  0
 64 65  1  0  0  0
 67 69  1  0  0  0
 67 70  1  0  0  0
 68 71  1  0  0  0
 42 43  1  0  0  0
 53 60  1  0  0  0
 46 48  1  0  0  0
 46 49  1  0  0  0
M  END
> <minimizedAffinity>
-9.12955

> <CNNscore>
0.3850294352

> <CNNaffinity>
7.7977294922

> <CNN_VS>
3.0023553371

> <CNNaffinity_variance>
0.8615381122

$$$$
[H]N=C(N([H])[H])N([H])C([H])([H])C([H])([H])C([H])([H])[C@@]([H])(C(=O)N([H])[C@]([H])(C(=O)N([H])[H])C([H])([H])c1c([H])n([H])c2c([H])c([H])c([H])c([H])c12)N([H])C(=O)[C@@]([H])(N([H])C(=O)[C@@]([H])(N([H])C(=O)[C@@]([H])(N([H])[H])C([H])([H])c1c([H])c([H])c(O[H])c([H])c1[H])C([H])([H])C([H])(C([H])([H])[H])C([H])([H])[H])C([H])([H])c1c([H])c([H])c([H])c([H])c1[H]


 71 74  0  0  0  0  0  0  0  0999 V2000
  -18.9745   16.0387  -20.4593 C   0  0  0  0  0  0  0  0  0  0  0  0
  -20.1604   15.5627  -20.0933 O   0  0  0  0  0  0  0  0  0  0  0  0
  -17.9339   15.2978  -19.8616 N   0  0  0  0  0  0  0  0  0  0  0  0
  -16.9350   15.4662  -20.0244 H   0  0  0  0  0  0  0  0  0  0  0  0
  -18.9957   17.1654  -21.3567 C   0  0  0  0  0  0  0  0  0  0  0  0
  -20.9422   17.9104  -22.7292 C   0  0  0  0  0  0  0  0  0  0  0  0
  -20.1553   17.8045  -23.6987 O   0  0  0  0  0  0  0  0  0  0  0  0
  -20.4401   17.6130  -21.4524 N   0  0  0  0  0  0  0  0  0  0  0  0
  -20.9466   17.6636  -20.5585 H   0  0  0  0  0  0  0  0  0  0  0  0
  -22.3930   18.3503  -22.9545 C   0  0  0  0  0  0  0  0  0  0  0  0
  -22.7860   19.0841  -21.7165 N   0  0  0  0  0  0  0  0  0  0  0  0
  -23.7999   18.5840  -20.8926 C   0  0  0  0  0  0  0  0  0  0  0  0
  -24.3191   17.4680  -21.2783 O   0  0  0  0  0  0  0  0  0  0  0  0
  -22.3061   19.9721  -21.4754 H   0  0  0  0  0  0  0  0  0  0  0  0
  -24.3493   19.1427  -19.6640 C   0  0  0  0  0  0  0  0  0  0  0  0
  -25.3311   20.1611  -20.0079 N   0  0  0  0  0  0  0  0  0  0  0  0
  -25.0718   20.6090  -20.8934 H   0  0  0  0  0  0  0  0  0  0  0  0
  -25.3640   20.8527  -19.2344 H   0  0  0  0  0  0  0  0  0  0  0  0
  -24.7810   18.2321  -18.5981 C   0  0  0  0  0  0  0  0  0  0  0  0
  -23.8385   17.8330  -17.5505 C   0  0  0  0  0  0  0  0  0  0  0  0
  -24.0980   18.0039  -16.2115 C   0  0  0  0  0  0  0  0  0  0  0  0
  -23.1963   17.6161  -15.2255 C   0  0  0  0  0  0  0  0  0  0  0  0
  -22.0017   17.0413  -15.5644 C   0  0  0  0  0  0  0  0  0  0  0  0
  -21.0972   16.6522  -14.5611 O   0  0  0  0  0  0  0  0  0  0  0  0
  -21.7091   16.8551  -16.9185 C   0  0  0  0  0  0  0  0  0  0  0  0
  -22.6063   17.2422  -17.8820 C   0  0  0  0  0  0  0  0  0  0  0  0
  -21.2375   15.6785  -14.2318 H   0  0  0  0  0  0  0  0  0  0  0  0
  -22.5430   19.2285  -24.1288 C   0  0  0  0  0  0  0  0  0  0  0  0
  -23.3760   17.2476  -25.3432 C   0  0  0  0  0  0  0  0  0  0  0  0
  -23.5372   18.7336  -25.1364 C   0  0  0  0  0  0  0  0  0  0  0  0
  -23.4047   19.3897  -26.4884 C   0  0  0  0  0  0  0  0  0  0  0  0
  -18.2142   18.3741  -20.9819 C   0  0  0  0  0  0  0  0  0  0  0  0
  -18.7975   19.1951  -19.9323 C   0  0  0  0  0  0  0  0  0  0  0  0
  -19.2883   20.4871  -20.3058 C   0  0  0  0  0  0  0  0  0  0  0  0
  -19.8766   21.2991  -19.3903 C   0  0  0  0  0  0  0  0  0  0  0  0
  -20.0438   20.9585  -18.0731 C   0  0  0  0  0  0  0  0  0  0  0  0
  -19.5597   19.6856  -17.7147 C   0  0  0  0  0  0  0  0  0  0  0  0
  -18.9699   18.8683  -18.6288 C   0  0  0  0  0  0  0  0  0  0  0  0
  -18.2779   14.1692  -18.9586 C   0  0  0  0  0  0  0  0  0  0  0  0
  -18.2028   12.9741  -19.8832 C   0  0  0  0  0  0  0  0  0  0  0  0
  -19.2945   12.2702  -19.8866 O   0  0  0  0  0  0  0  0  0  0  0  0
  -17.0795   12.7526  -20.6141 N   0  0  0  0  0  0  0  0  0  0  0  0
  -16.2701   13.4519  -20.5309 H   0  0  0  0  0  0  0  0  0  0  0  0
  -16.8530   11.6575  -21.5088 C   0  0  0  0  0  0  0  0  0  0  0  0
  -16.3335   10.4959  -20.8098 C   0  0  0  0  0  0  0  0  0  0  0  0
  -16.9834    9.9080  -19.7004 N   0  0  0  0  0  0  0  0  0  0  0  0
  -15.2444   10.0068  -21.2279 O   0  0  0  0  0  0  0  0  0  0  0  0
  -16.5699    9.0599  -19.2271 H   0  0  0  0  0  0  0  0  0  0  0  0
  -17.8751   10.2655  -19.2950 H   0  0  0  0  0  0  0  0  0  0  0  0
  -15.8867   12.2126  -22.5975 C   0  0  0  0  0  0  0  0  0  0  0  0
  -16.6227   13.1155  -23.4900 C   0  0  0  0  0  0  0  0  0  0  0  0
  -17.5166   12.6817  -24.4798 C   0  0  0  0  0  0  0  0  0  0  0  0
  -17.8811   13.7878  -25.1420 N   0  0  0  0  0  0  0  0  0  0  0  0
  -17.2787   14.8665  -24.6287 C   0  0  0  0  0  0  0  0  0  0  0  0
  -17.3331   16.2247  -24.9236 C   0  0  0  0  0  0  0  0  0  0  0  0
  -16.6251   17.1348  -24.2045 C   0  0  0  0  0  0  0  0  0  0  0  0
  -15.7970   16.7347  -23.1224 C   0  0  0  0  0  0  0  0  0  0  0  0
  -15.7613   15.4068  -22.8580 C   0  0  0  0  0  0  0  0  0  0  0  0
  -16.4839   14.4918  -23.5932 C   0  0  0  0  0  0  0  0  0  0  0  0
  -18.5522   13.8139  -25.9551 H   0  0  0  0  0  0  0  0  0  0  0  0
  -19.5617   14.3299  -18.2665 C   0  0  0  0  0  0  0  0  0  0  0  0
  -19.4009   14.0186  -16.8009 C   0  0  0  0  0  0  0  0  0  0  0  0
  -20.5393   13.1750  -16.3411 C   0  0  0  0  0  0  0  0  0  0  0  0
  -20.5840   11.9196  -17.0105 N   0  0  0  0  0  0  0  0  0  0  0  0
  -21.2409   11.8169  -17.8416 H   0  0  0  0  0  0  0  0  0  0  0  0
  -19.8377   10.7690  -16.6792 C   0  0  0  0  0  0  0  0  0  0  0  0
  -19.9749   10.1360  -15.4066 N   0  0  0  0  0  0  0  0  0  0  0  0
  -19.0141   10.2630  -17.5430 N   0  0  0  0  0  0  0  0  0  0  0  0
  -19.9399    9.1077  -15.3279 H   0  0  0  0  0  0  0  0  0  0  0  0
  -20.1141   10.7733  -14.5800 H   0  0  0  0  0  0  0  0  0  0  0  0
  -18.8981   10.6905  -18.4728 H   0  0  0  0  0  0  0  0  0  0  0  0
 29 30  1  0  0  0
 30 31  1  0  0  0
 30 28  1  0  0  0
 28 10  1  0  0  0
 10 11  1  0  0  0
 11 12  1  0  0  0
 12 13  2  0  0  0
 12 15  1  0  0  0
 15 16  1  0  0  0
 15 19  1  0  0  0
 19 20  1  0  0  0
 20 21  2  0  0  0
 21 22  1  0  0  0
 22 23  2  0  0  0
 23 24  1  0  0  0
 23 25  1  0  0  0
 25 26  2  0  0  0
 10  6  1  0  0  0
  6  7  2  0  0  0
  6  8  1  0  0  0
  8  5  1  0  0  0
  5 32  1  0  0  0
 32 33  1  0  0  0
 33 34  2  0  0  0
 34 35  1  0  0  0
 35 36  2  0  0  0
 36 37  1  0  0  0
 37 38  2  0  0  0
  5  1  1  0  0  0
  1  2  2  0  0  0
  1  3  1  0  0  0
  3 39  1  0  0  0
 39 61  1  0  0  0
 61 62  1  0  0  0
 62 63  1  0  0  0
 63 64  1  0  0  0
 64 66  1  0  0  0
 66 67  1  0  0  0
 66 68  2  0  0  0
 39 40  1  0  0  0
 40 41  2  0  0  0
 40 42  1  0  0  0
 42 44  1  0  0  0
 44 50  1  0  0  0
 50 51  1  0  0  0
 51 52  2  0  0  0
 52 53  1  0  0  0
 53 54  1  0  0  0
 54 55  2  0  0  0
 55 56  1  0  0  0
 56 57  2  0  0  0
 57 58  1  0  0  0
 58 59  2  0  0  0
 44 45  1  0  0  0
 45 46  1  0  0  0
 45 47  2  0  0  0
 26 20  1  0  0  0
 38 33  1  0  0  0
 59 51  1  0  0  0
 59 54  1  0  0  0
 11 14  1  0  0  0
 16 17  1  0  0  0
 16 18  1  0  0  0
 24 27  1  0  0  0
  8  9  1  0  0  0
  3  4  1  0  0  0
 64 65  1  0  0  0
 67 69  1  0  0  0
 67 70  1  0  0  0
 68 71  1  0  0  0
 42 43  1  0  0  0
 53 60  1  0  0  0
 46 48  1  0  0  0
 46 49  1  0  0  0
M  END
> <minimizedAffinity>
-7.83471

> <CNNscore>
0.3356612921

> <CNNaffinity>
7.7036156654

> <CNN_VS>
2.5858056545

> <CNNaffinity_variance>
0.6347855926

$$$$
[H]N=C(N([H])[H])N([H])C([H])([H])C([H])([H])C([H])([H])[C@@]([H])(C(=O)N([H])[C@]([H])(C(=O)N([H])[H])C([H])([H])c1c([H])n([H])c2c([H])c([H])c([H])c([H])c12)N([H])C(=O)[C@@]([H])(N([H])C(=O)[C@@]([H])(N([H])C(=O)[C@@]([H])(N([H])[H])C([H])([H])c1c([H])c([H])c(O[H])c([H])c1[H])C([H])([H])C([H])(C([H])([H])[H])C([H])([H])[H])C([H])([H])c1c([H])c([H])c([H])c([H])c1[H]


 71 74  0  0  0  0  0  0  0  0999 V2000
  -18.0652   15.1465  -20.7940 C   0  0  0  0  0  0  0  0  0  0  0  0
  -16.8017   15.4408  -21.0835 O   0  0  0  0  0  0  0  0  0  0  0  0
  -18.9254   15.5716  -21.8276 N   0  0  0  0  0  0  0  0  0  0  0  0
  -19.9405   15.4227  -21.8347 H   0  0  0  0  0  0  0  0  0  0  0  0
  -18.2862   14.4787  -19.5368 C   0  0  0  0  0  0  0  0  0  0  0  0
  -19.2014   15.5358  -17.4697 C   0  0  0  0  0  0  0  0  0  0  0  0
  -18.1476   15.1262  -16.9291 O   0  0  0  0  0  0  0  0  0  0  0  0
  -19.3869   15.2436  -18.8302 N   0  0  0  0  0  0  0  0  0  0  0  0
  -20.1963   15.4925  -19.4142 H   0  0  0  0  0  0  0  0  0  0  0  0
  -20.2335   16.3232  -16.6550 C   0  0  0  0  0  0  0  0  0  0  0  0
  -20.6780   15.3991  -15.5714 N   0  0  0  0  0  0  0  0  0  0  0  0
  -21.3686   14.2241  -15.8863 C   0  0  0  0  0  0  0  0  0  0  0  0
  -21.5528   14.0175  -17.1462 O   0  0  0  0  0  0  0  0  0  0  0  0
  -20.4770   15.6387  -14.5819 H   0  0  0  0  0  0  0  0  0  0  0  0
  -21.9060   13.2035  -14.9958 C   0  0  0  0  0  0  0  0  0  0  0  0
  -23.0156   13.7717  -14.2440 N   0  0  0  0  0  0  0  0  0  0  0  0
  -22.8606   14.7755  -14.1007 H   0  0  0  0  0  0  0  0  0  0  0  0
  -23.0821   13.2703  -13.3374 H   0  0  0  0  0  0  0  0  0  0  0  0
  -22.1689   11.8615  -15.5267 C   0  0  0  0  0  0  0  0  0  0  0  0
  -21.0693   10.9058  -15.6768 C   0  0  0  0  0  0  0  0  0  0  0  0
  -20.7119   10.0211  -14.6873 C   0  0  0  0  0  0  0  0  0  0  0  0
  -19.6682    9.1147  -14.8438 C   0  0  0  0  0  0  0  0  0  0  0  0
  -18.9525    9.0744  -16.0095 C   0  0  0  0  0  0  0  0  0  0  0  0
  -17.9001    8.1545  -16.1586 O   0  0  0  0  0  0  0  0  0  0  0  0
  -19.2922    9.9625  -17.0341 C   0  0  0  0  0  0  0  0  0  0  0  0
  -20.3233   10.8524  -16.8677 C   0  0  0  0  0  0  0  0  0  0  0  0
  -18.1996    7.2424  -16.5516 H   0  0  0  0  0  0  0  0  0  0  0  0
  -19.6731   17.5538  -16.0682 C   0  0  0  0  0  0  0  0  0  0  0  0
  -21.3285   19.2457  -15.3684 C   0  0  0  0  0  0  0  0  0  0  0  0
  -20.4649   18.0941  -14.9152 C   0  0  0  0  0  0  0  0  0  0  0  0
  -19.6103   18.5972  -13.7783 C   0  0  0  0  0  0  0  0  0  0  0  0
  -18.7256   13.0581  -19.5661 C   0  0  0  0  0  0  0  0  0  0  0  0
  -17.7047   12.0958  -19.9502 C   0  0  0  0  0  0  0  0  0  0  0  0
  -17.4731   11.9080  -21.3505 C   0  0  0  0  0  0  0  0  0  0  0  0
  -16.5144   11.0520  -21.7883 C   0  0  0  0  0  0  0  0  0  0  0  0
  -15.7138   10.3197  -20.9507 C   0  0  0  0  0  0  0  0  0  0  0  0
  -15.9472   10.5115  -19.5753 C   0  0  0  0  0  0  0  0  0  0  0  0
  -16.9065   11.3685  -19.1319 C   0  0  0  0  0  0  0  0  0  0  0  0
  -18.3463   16.2522  -23.0145 C   0  0  0  0  0  0  0  0  0  0  0  0
  -18.8387   17.6735  -22.8509 C   0  0  0  0  0  0  0  0  0  0  0  0
  -18.4613   18.4521  -23.8196 O   0  0  0  0  0  0  0  0  0  0  0  0
  -19.6106   18.0042  -21.7833 N   0  0  0  0  0  0  0  0  0  0  0  0
  -19.8718   17.2337  -21.0838 H   0  0  0  0  0  0  0  0  0  0  0  0
  -20.1284   19.3052  -21.4827 C   0  0  0  0  0  0  0  0  0  0  0  0
  -19.4723   19.8865  -20.3254 C   0  0  0  0  0  0  0  0  0  0  0  0
  -18.7290   19.1240  -19.3954 N   0  0  0  0  0  0  0  0  0  0  0  0
  -19.5887   21.1350  -20.1593 O   0  0  0  0  0  0  0  0  0  0  0  0
  -18.2645   19.5920  -18.5710 H   0  0  0  0  0  0  0  0  0  0  0  0
  -18.6025   18.0911  -19.4625 H   0  0  0  0  0  0  0  0  0  0  0  0
  -21.6611   19.1008  -21.2920 C   0  0  0  0  0  0  0  0  0  0  0  0
  -22.3810   19.7397  -22.3998 C   0  0  0  0  0  0  0  0  0  0  0  0
  -22.8556   21.0591  -22.3681 C   0  0  0  0  0  0  0  0  0  0  0  0
  -23.5470   21.2176  -23.5047 N   0  0  0  0  0  0  0  0  0  0  0  0
  -23.5280   20.0939  -24.2305 C   0  0  0  0  0  0  0  0  0  0  0  0
  -24.0539   19.7458  -25.4703 C   0  0  0  0  0  0  0  0  0  0  0  0
  -23.8531   18.5123  -26.0041 C   0  0  0  0  0  0  0  0  0  0  0  0
  -23.0991   17.5258  -25.3150 C   0  0  0  0  0  0  0  0  0  0  0  0
  -22.6000   17.8906  -24.1098 C   0  0  0  0  0  0  0  0  0  0  0  0
  -22.8090   19.1447  -23.5774 C   0  0  0  0  0  0  0  0  0  0  0  0
  -24.0390   22.1036  -23.7962 H   0  0  0  0  0  0  0  0  0  0  0  0
  -18.6991   15.6240  -24.2927 C   0  0  0  0  0  0  0  0  0  0  0  0
  -18.0243   14.2819  -24.4122 C   0  0  0  0  0  0  0  0  0  0  0  0
  -16.5474   14.4681  -24.4671 C   0  0  0  0  0  0  0  0  0  0  0  0
  -16.1404   15.2119  -25.6105 N   0  0  0  0  0  0  0  0  0  0  0  0
  -16.4493   14.8679  -26.5692 H   0  0  0  0  0  0  0  0  0  0  0  0
  -15.3489   16.3799  -25.6093 C   0  0  0  0  0  0  0  0  0  0  0  0
  -14.0315   16.3846  -26.1603 N   0  0  0  0  0  0  0  0  0  0  0  0
  -15.8202   17.4785  -25.1079 N   0  0  0  0  0  0  0  0  0  0  0  0
  -13.6841   17.2074  -26.6771 H   0  0  0  0  0  0  0  0  0  0  0  0
  -13.4587   15.5139  -26.0098 H   0  0  0  0  0  0  0  0  0  0  0  0
  -16.7698   17.5108  -24.7105 H   0  0  0  0  0  0  0  0  0  0  0  0
 29 30  1  0  0  0
 30 31  1  0  0  0
 30 28  1  0  0  0
 28 10  1  0  0  0
 10 11  1  0  0  0
 11 12  1  0  0  0
 12 13  2  0  0  0
 12 15  1  0  0  0
 15 16  1  0  0  0
 15 19  1  0  0  0
 19 20  1  0  0  0
 20 21  2  0  0  0
 21 22  1  0  0  0
 22 23  2  0  0  0
 23 24  1  0  0  0
 23 25  1  0  0  0
 25 26  2  0  0  0
 10  6  1  0  0  0
  6  7  2  0  0  0
  6  8  1  0  0  0
  8  5  1  0  0  0
  5 32  1  0  0  0
 32 33  1  0  0  0
 33 34  2  0  0  0
 34 35  1  0  0  0
 35 36  2  0  0  0
 36 37  1  0  0  0
 37 38  2  0  0  0
  5  1  1  0  0  0
  1  2  2  0  0  0
  1  3  1  0  0  0
  3 39  1  0  0  0
 39 61  1  0  0  0
 61 62  1  0  0  0
 62 63  1  0  0  0
 63 64  1  0  0  0
 64 66  1  0  0  0
 66 67  1  0  0  0
 66 68  2  0  0  0
 39 40  1  0  0  0
 40 41  2  0  0  0
 40 42  1  0  0  0
 42 44  1  0  0  0
 44 50  1  0  0  0
 50 51  1  0  0  0
 51 52  2  0  0  0
 52 53  1  0  0  0
 53 54  1  0  0  0
 54 55  2  0  0  0
 55 56  1  0  0  0
 56 57  2  0  0  0
 57 58  1  0  0  0
 58 59  2  0  0  0
 44 45  1  0  0  0
 45 46  1  0  0  0
 45 47  2  0  0  0
 26 20  1  0  0  0
 38 33  1  0  0  0
 59 51  1  0  0  0
 59 54  1  0  0  0
 11 14  1  0  0  0
 16 17  1  0  0  0
 16 18  1  0  0  0
 24 27  1  0  0  0
  8  9  1  0  0  0
  3  4  1  0  0  0
 64 65  1  0  0  0
 67 69  1  0  0  0
 67 70  1  0  0  0
 68 71  1  0  0  0
 42 43  1  0  0  0
 53 60  1  0  0  0
 46 48  1  0  0  0
 46 49  1  0  0  0
M  END
> <minimizedAffinity>
-9.01694

> <CNNscore>
0.3234145343

> <CNNaffinity>
7.7836685181

> <CNN_VS>
2.5173516273

> <CNNaffinity_variance>
0.8082394600

$$$$
[H]N=C(N([H])[H])N([H])C([H])([H])C([H])([H])C([H])([H])[C@@]([H])(C(=O)N([H])[C@]([H])(C(=O)N([H])[H])C([H])([H])c1c([H])n([H])c2c([H])c([H])c([H])c([H])c12)N([H])C(=O)[C@@]([H])(N([H])C(=O)[C@@]([H])(N([H])C(=O)[C@@]([H])(N([H])[H])C([H])([H])c1c([H])c([H])c(O[H])c([H])c1[H])C([H])([H])C([H])(C([H])([H])[H])C([H])([H])[H])C([H])([H])c1c([H])c([H])c([H])c([H])c1[H]


 71 74  0  0  0  0  0  0  0  0999 V2000
  -20.2562   11.9837  -16.8856 C   0  0  0  0  0  0  0  0  0  0  0  0
  -20.6537   12.7577  -15.8807 O   0  0  0  0  0  0  0  0  0  0  0  0
  -20.6187   10.6406  -16.6539 N   0  0  0  0  0  0  0  0  0  0  0  0
  -20.4416    9.8712  -17.3091 H   0  0  0  0  0  0  0  0  0  0  0  0
  -19.5677   12.6495  -17.9617 C   0  0  0  0  0  0  0  0  0  0  0  0
  -18.9686   14.9483  -17.1972 C   0  0  0  0  0  0  0  0  0  0  0  0
  -17.9316   14.4068  -16.7480 O   0  0  0  0  0  0  0  0  0  0  0  0
  -19.9029   14.1223  -17.8418 N   0  0  0  0  0  0  0  0  0  0  0  0
  -20.8041   14.4045  -18.2499 H   0  0  0  0  0  0  0  0  0  0  0  0
  -19.1859   16.4569  -17.0360 C   0  0  0  0  0  0  0  0  0  0  0  0
  -18.2177   17.1030  -17.9692 N   0  0  0  0  0  0  0  0  0  0  0  0
  -18.2923   16.8564  -19.3441 C   0  0  0  0  0  0  0  0  0  0  0  0
  -19.2491   16.0721  -19.7092 O   0  0  0  0  0  0  0  0  0  0  0  0
  -17.4842   17.7312  -17.5893 H   0  0  0  0  0  0  0  0  0  0  0  0
  -17.4460   17.3595  -20.4184 C   0  0  0  0  0  0  0  0  0  0  0  0
  -16.9465   18.6756  -20.0470 N   0  0  0  0  0  0  0  0  0  0  0  0
  -17.6321   19.1523  -19.4514 H   0  0  0  0  0  0  0  0  0  0  0  0
  -16.7704   19.2121  -20.9181 H   0  0  0  0  0  0  0  0  0  0  0  0
  -16.4285   16.4756  -20.9971 C   0  0  0  0  0  0  0  0  0  0  0  0
  -16.7002   15.7701  -22.2515 C   0  0  0  0  0  0  0  0  0  0  0  0
  -17.9609   15.6673  -22.7896 C   0  0  0  0  0  0  0  0  0  0  0  0
  -18.2054   14.9983  -23.9846 C   0  0  0  0  0  0  0  0  0  0  0  0
  -17.1794   14.4119  -24.6746 C   0  0  0  0  0  0  0  0  0  0  0  0
  -17.4361   13.7387  -25.8816 O   0  0  0  0  0  0  0  0  0  0  0  0
  -15.8858   14.4990  -24.1519 C   0  0  0  0  0  0  0  0  0  0  0  0
  -15.6573   15.1611  -22.9719 C   0  0  0  0  0  0  0  0  0  0  0  0
  -17.3757   14.3497  -26.7177 H   0  0  0  0  0  0  0  0  0  0  0  0
  -20.5603   16.8705  -17.3714 C   0  0  0  0  0  0  0  0  0  0  0  0
  -22.1532   18.5446  -16.5038 C   0  0  0  0  0  0  0  0  0  0  0  0
  -21.3764   17.2906  -16.1857 C   0  0  0  0  0  0  0  0  0  0  0  0
  -20.5517   17.5761  -14.9552 C   0  0  0  0  0  0  0  0  0  0  0  0
  -18.0832   12.5671  -18.0005 C   0  0  0  0  0  0  0  0  0  0  0  0
  -17.5164   12.0815  -19.2490 C   0  0  0  0  0  0  0  0  0  0  0  0
  -16.6558   10.9394  -19.1789 C   0  0  0  0  0  0  0  0  0  0  0  0
  -16.1144   10.4064  -20.3042 C   0  0  0  0  0  0  0  0  0  0  0  0
  -16.3408   10.9029  -21.5616 C   0  0  0  0  0  0  0  0  0  0  0  0
  -17.1894   12.0251  -21.6215 C   0  0  0  0  0  0  0  0  0  0  0  0
  -17.7345   12.5625  -20.4966 C   0  0  0  0  0  0  0  0  0  0  0  0
  -21.3377   10.2929  -15.4011 C   0  0  0  0  0  0  0  0  0  0  0  0
  -20.4177    9.2731  -14.7666 C   0  0  0  0  0  0  0  0  0  0  0  0
  -19.4145    8.9565  -15.5285 O   0  0  0  0  0  0  0  0  0  0  0  0
  -20.6784    8.8110  -13.5162 N   0  0  0  0  0  0  0  0  0  0  0  0
  -21.5312    9.2013  -12.9951 H   0  0  0  0  0  0  0  0  0  0  0  0
  -19.9169    7.8333  -12.7983 C   0  0  0  0  0  0  0  0  0  0  0  0
  -20.1306    6.4977  -13.3258 C   0  0  0  0  0  0  0  0  0  0  0  0
  -19.3718    5.9571  -14.3892 N   0  0  0  0  0  0  0  0  0  0  0  0
  -21.0474    5.8052  -12.7966 O   0  0  0  0  0  0  0  0  0  0  0  0
  -19.5601    4.9780  -14.7358 H   0  0  0  0  0  0  0  0  0  0  0  0
  -18.6111    6.4748  -14.8799 H   0  0  0  0  0  0  0  0  0  0  0  0
  -20.3490    7.9913  -11.3098 C   0  0  0  0  0  0  0  0  0  0  0  0
  -19.3517    8.7955  -10.5940 C   0  0  0  0  0  0  0  0  0  0  0  0
  -19.4156   10.1907  -10.4665 C   0  0  0  0  0  0  0  0  0  0  0  0
  -18.2768   10.5464   -9.8569 N   0  0  0  0  0  0  0  0  0  0  0  0
  -17.5225    9.4719   -9.5995 C   0  0  0  0  0  0  0  0  0  0  0  0
  -16.2930    9.2927   -8.9742 C   0  0  0  0  0  0  0  0  0  0  0  0
  -15.7545    8.0556   -8.8115 C   0  0  0  0  0  0  0  0  0  0  0  0
  -16.4253    6.8937   -9.2769 C   0  0  0  0  0  0  0  0  0  0  0  0
  -17.6194    7.0970   -9.8831 C   0  0  0  0  0  0  0  0  0  0  0  0
  -18.1572    8.3560  -10.0427 C   0  0  0  0  0  0  0  0  0  0  0  0
  -18.0058   11.5347   -9.6079 H   0  0  0  0  0  0  0  0  0  0  0  0
  -22.7139    9.8299  -15.6128 C   0  0  0  0  0  0  0  0  0  0  0  0
  -23.6626   10.6164  -14.7455 C   0  0  0  0  0  0  0  0  0  0  0  0
  -24.9414    9.8672  -14.5964 C   0  0  0  0  0  0  0  0  0  0  0  0
  -25.1780    9.4680  -13.2506 N   0  0  0  0  0  0  0  0  0  0  0  0
  -25.5326   10.2005  -12.5647 H   0  0  0  0  0  0  0  0  0  0  0  0
  -24.9832    8.1772  -12.7154 C   0  0  0  0  0  0  0  0  0  0  0  0
  -23.6842    7.5874  -12.6534 N   0  0  0  0  0  0  0  0  0  0  0  0
  -25.9956    7.5075  -12.2603 N   0  0  0  0  0  0  0  0  0  0  0  0
  -23.4119    7.0067  -11.8450 H   0  0  0  0  0  0  0  0  0  0  0  0
  -23.0420    7.7845  -13.4643 H   0  0  0  0  0  0  0  0  0  0  0  0
  -26.9443    7.9078  -12.2826 H   0  0  0  0  0  0  0  0  0  0  0  0
 29 30  1  0  0  0
 30 31  1  0  0  0
 30 28  1  0  0  0
 28 10  1  0  0  0
 10 11  1  0  0  0
 11 12  1  0  0  0
 12 13  2  0  0  0
 12 15  1  0  0  0
 15 16  1  0  0  0
 15 19  1  0  0  0
 19 20  1  0  0  0
 20 21  2  0  0  0
 21 22  1  0  0  0
 22 23  2  0  0  0
 23 24  1  0  0  0
 23 25  1  0  0  0
 25 26  2  0  0  0
 10  6  1  0  0  0
  6  7  2  0  0  0
  6  8  1  0  0  0
  8  5  1  0  0  0
  5 32  1  0  0  0
 32 33  1  0  0  0
 33 34  2  0  0  0
 34 35  1  0  0  0
 35 36  2  0  0  0
 36 37  1  0  0  0
 37 38  2  0  0  0
  5  1  1  0  0  0
  1  2  2  0  0  0
  1  3  1  0  0  0
  3 39  1  0  0  0
 39 61  1  0  0  0
 61 62  1  0  0  0
 62 63  1  0  0  0
 63 64  1  0  0  0
 64 66  1  0  0  0
 66 67  1  0  0  0
 66 68  2  0  0  0
 39 40  1  0  0  0
 40 41  2  0  0  0
 40 42  1  0  0  0
 42 44  1  0  0  0
 44 50  1  0  0  0
 50 51  1  0  0  0
 51 52  2  0  0  0
 52 53  1  0  0  0
 53 54  1  0  0  0
 54 55  2  0  0  0
 55 56  1  0  0  0
 56 57  2  0  0  0
 57 58  1  0  0  0
 58 59  2  0  0  0
 44 45  1  0  0  0
 45 46  1  0  0  0
 45 47  2  0  0  0
 26 20  1  0  0  0
 38 33  1  0  0  0
 59 51  1  0  0  0
 59 54  1  0  0  0
 11 14  1  0  0  0
 16 17  1  0  0  0
 16 18  1  0  0  0
 24 27  1  0  0  0
  8  9  1  0  0  0
  3  4  1  0  0  0
 64 65  1  0  0  0
 67 69  1  0  0  0
 67 70  1  0  0  0
 68 71  1  0  0  0
 42 43  1  0  0  0
 53 60  1  0  0  0
 46 48  1  0  0  0
 46 49  1  0  0  0
M  END
> <minimizedAffinity>
-8.48610

> <CNNscore>
0.2968205512

> <CNNaffinity>
7.3742494583

> <CNN_VS>
2.1888287067

> <CNNaffinity_variance>
0.6105550528

$$$$
[H]N=C(N([H])[H])N([H])C([H])([H])C([H])([H])C([H])([H])[C@@]([H])(C(=O)N([H])[C@]([H])(C(=O)N([H])[H])C([H])([H])c1c([H])n([H])c2c([H])c([H])c([H])c([H])c12)N([H])C(=O)[C@@]([H])(N([H])C(=O)[C@@]([H])(N([H])C(=O)[C@@]([H])(N([H])[H])C([H])([H])c1c([H])c([H])c(O[H])c([H])c1[H])C([H])([H])C([H])(C([H])([H])[H])C([H])([H])[H])C([H])([H])c1c([H])c([H])c([H])c([H])c1[H]


 71 74  0  0  0  0  0  0  0  0999 V2000
  -20.0637   17.3795  -17.6386 C   0  0  0  0  0  0  0  0  0  0  0  0
  -21.1357   16.9771  -16.9634 O   0  0  0  0  0  0  0  0  0  0  0  0
  -19.9633   18.7861  -17.6221 N   0  0  0  0  0  0  0  0  0  0  0  0
  -19.1987   19.3177  -18.0530 H   0  0  0  0  0  0  0  0  0  0  0  0
  -19.2568   16.3382  -18.2217 C   0  0  0  0  0  0  0  0  0  0  0  0
  -18.4091   16.9432  -20.4896 C   0  0  0  0  0  0  0  0  0  0  0  0
  -19.3908   16.2864  -20.9083 O   0  0  0  0  0  0  0  0  0  0  0  0
  -18.2321   17.0277  -19.0995 N   0  0  0  0  0  0  0  0  0  0  0  0
  -17.4755   17.5117  -18.5980 H   0  0  0  0  0  0  0  0  0  0  0  0
  -17.4519   17.6188  -21.4777 C   0  0  0  0  0  0  0  0  0  0  0  0
  -17.7613   17.0197  -22.8084 N   0  0  0  0  0  0  0  0  0  0  0  0
  -16.7276   16.7008  -23.6954 C   0  0  0  0  0  0  0  0  0  0  0  0
  -15.5376   16.9424  -23.2599 O   0  0  0  0  0  0  0  0  0  0  0  0
  -18.7498   16.8481  -23.0736 H   0  0  0  0  0  0  0  0  0  0  0  0
  -16.8045   16.1350  -25.0360 C   0  0  0  0  0  0  0  0  0  0  0  0
  -15.6000   16.4967  -25.7694 N   0  0  0  0  0  0  0  0  0  0  0  0
  -15.2526   17.4042  -25.4413 H   0  0  0  0  0  0  0  0  0  0  0  0
  -15.8346   16.5291  -26.7802 H   0  0  0  0  0  0  0  0  0  0  0  0
  -17.2026   14.7322  -25.1954 C   0  0  0  0  0  0  0  0  0  0  0  0
  -16.9149   13.7650  -24.1340 C   0  0  0  0  0  0  0  0  0  0  0  0
  -17.8441   13.3975  -23.1900 C   0  0  0  0  0  0  0  0  0  0  0  0
  -17.5599   12.4738  -22.1893 C   0  0  0  0  0  0  0  0  0  0  0  0
  -16.3241   11.8911  -22.1128 C   0  0  0  0  0  0  0  0  0  0  0  0
  -16.0465   10.9583  -21.0984 O   0  0  0  0  0  0  0  0  0  0  0  0
  -15.3577   12.2453  -23.0587 C   0  0  0  0  0  0  0  0  0  0  0  0
  -15.6498   13.1582  -24.0408 C   0  0  0  0  0  0  0  0  0  0  0  0
  -16.2645    9.9796  -21.3646 H   0  0  0  0  0  0  0  0  0  0  0  0
  -17.6309   19.0809  -21.5304 C   0  0  0  0  0  0  0  0  0  0  0  0
  -19.1898   20.0839  -23.1603 C   0  0  0  0  0  0  0  0  0  0  0  0
  -19.0465   19.5130  -21.7708 C   0  0  0  0  0  0  0  0  0  0  0  0
  -19.5296   20.5651  -20.8036 C   0  0  0  0  0  0  0  0  0  0  0  0
  -18.4867   15.4538  -17.3070 C   0  0  0  0  0  0  0  0  0  0  0  0
  -18.7830   14.0337  -17.4140 C   0  0  0  0  0  0  0  0  0  0  0  0
  -18.1621   13.3123  -18.4834 C   0  0  0  0  0  0  0  0  0  0  0  0
  -18.3625   11.9774  -18.6304 C   0  0  0  0  0  0  0  0  0  0  0  0
  -19.1518   11.2337  -17.7921 C   0  0  0  0  0  0  0  0  0  0  0  0
  -19.7573   11.9508  -16.7423 C   0  0  0  0  0  0  0  0  0  0  0  0
  -19.5590   13.2883  -16.5908 C   0  0  0  0  0  0  0  0  0  0  0  0
  -21.0012   19.5756  -16.9102 C   0  0  0  0  0  0  0  0  0  0  0  0
  -21.8849   20.0523  -18.0420 C   0  0  0  0  0  0  0  0  0  0  0  0
  -22.0691   21.3380  -18.0302 O   0  0  0  0  0  0  0  0  0  0  0  0
  -22.3702   19.1604  -18.9443 N   0  0  0  0  0  0  0  0  0  0  0  0
  -22.0943   18.1287  -18.8415 H   0  0  0  0  0  0  0  0  0  0  0  0
  -23.2328   19.4564  -20.0485 C   0  0  0  0  0  0  0  0  0  0  0  0
  -24.6206   19.1686  -19.7337 C   0  0  0  0  0  0  0  0  0  0  0  0
  -25.6301   20.1584  -19.7192 N   0  0  0  0  0  0  0  0  0  0  0  0
  -24.9160   17.9700  -19.4580 O   0  0  0  0  0  0  0  0  0  0  0  0
  -26.6276   19.9004  -19.4894 H   0  0  0  0  0  0  0  0  0  0  0  0
  -25.4565   21.1661  -19.9232 H   0  0  0  0  0  0  0  0  0  0  0  0
  -22.6772   18.6169  -21.2375 C   0  0  0  0  0  0  0  0  0  0  0  0
  -22.8273   19.3762  -22.4843 C   0  0  0  0  0  0  0  0  0  0  0  0
  -22.8354   20.7770  -22.5522 C   0  0  0  0  0  0  0  0  0  0  0  0
  -23.1088   21.0713  -23.8303 N   0  0  0  0  0  0  0  0  0  0  0  0
  -23.2656   19.9543  -24.5498 C   0  0  0  0  0  0  0  0  0  0  0  0
  -23.5268   19.7099  -25.8939 C   0  0  0  0  0  0  0  0  0  0  0  0
  -23.6056   18.4440  -26.3817 C   0  0  0  0  0  0  0  0  0  0  0  0
  -23.4268   17.3170  -25.5364 C   0  0  0  0  0  0  0  0  0  0  0  0
  -23.1753   17.5834  -24.2324 C   0  0  0  0  0  0  0  0  0  0  0  0
  -23.0968   18.8714  -23.7477 C   0  0  0  0  0  0  0  0  0  0  0  0
  -23.1884   22.0464  -24.2241 H   0  0  0  0  0  0  0  0  0  0  0  0
  -20.4601   20.6440  -16.0625 C   0  0  0  0  0  0  0  0  0  0  0  0
  -21.3711   20.8811  -14.8858 C   0  0  0  0  0  0  0  0  0  0  0  0
  -20.7265   20.3709  -13.6436 C   0  0  0  0  0  0  0  0  0  0  0  0
  -21.2668   19.1202  -13.2311 N   0  0  0  0  0  0  0  0  0  0  0  0
  -21.9979   19.1199  -12.4576 H   0  0  0  0  0  0  0  0  0  0  0  0
  -20.9253   17.8518  -13.7459 C   0  0  0  0  0  0  0  0  0  0  0  0
  -21.8997   16.8158  -13.8747 N   0  0  0  0  0  0  0  0  0  0  0  0
  -19.7072   17.6137  -14.1203 N   0  0  0  0  0  0  0  0  0  0  0  0
  -21.8785   16.1761  -14.6841 H   0  0  0  0  0  0  0  0  0  0  0  0
  -22.6216   16.7555  -13.1105 H   0  0  0  0  0  0  0  0  0  0  0  0
  -18.9826   18.3420  -14.0485 H   0  0  0  0  0  0  0  0  0  0  0  0
 29 30  1  0  0  0
 30 31  1  0  0  0
 30 28  1  0  0  0
 28 10  1  0  0  0
 10 11  1  0  0  0
 11 12  1  0  0  0
 12 13  2  0  0  0
 12 15  1  0  0  0
 15 16  1  0  0  0
 15 19  1  0  0  0
 19 20  1  0  0  0
 20 21  2  0  0  0
 21 22  1  0  0  0
 22 23  2  0  0  0
 23 24  1  0  0  0
 23 25  1  0  0  0
 25 26  2  0  0  0
 10  6  1  0  0  0
  6  7  2  0  0  0
  6  8  1  0  0  0
  8  5  1  0  0  0
  5 32  1  0  0  0
 32 33  1  0  0  0
 33 34  2  0  0  0
 34 35  1  0  0  0
 35 36  2  0  0  0
 36 37  1  0  0  0
 37 38  2  0  0  0
  5  1  1  0  0  0
  1  2  2  0  0  0
  1  3  1  0  0  0
  3 39  1  0  0  0
 39 61  1  0  0  0
 61 62  1  0  0  0
 62 63  1  0  0  0
 63 64  1  0  0  0
 64 66  1  0  0  0
 66 67  1  0  0  0
 66 68  2  0  0  0
 39 40  1  0  0  0
 40 41  2  0  0  0
 40 42  1  0  0  0
 42 44  1  0  0  0
 44 50  1  0  0  0
 50 51  1  0  0  0
 51 52  2  0  0  0
 52 53  1  0  0  0
 53 54  1  0  0  0
 54 55  2  0  0  0
 55 56  1  0  0  0
 56 57  2  0  0  0
 57 58  1  0  0  0
 58 59  2  0  0  0
 44 45  1  0  0  0
 45 46  1  0  0  0
 45 47  2  0  0  0
 26 20  1  0  0  0
 38 33  1  0  0  0
 59 51  1  0  0  0
 59 54  1  0  0  0
 11 14  1  0  0  0
 16 17  1  0  0  0
 16 18  1  0  0  0
 24 27  1  0  0  0
  8  9  1  0  0  0
  3  4  1  0  0  0
 64 65  1  0  0  0
 67 69  1  0  0  0
 67 70  1  0  0  0
 68 71  1  0  0  0
 42 43  1  0  0  0
 53 60  1  0  0  0
 46 48  1  0  0  0
 46 49  1  0  0  0
M  END
> <minimizedAffinity>
-7.78924

> <CNNscore>
0.2882216275

> <CNNaffinity>
7.8219337463

> <CNN_VS>
2.2544505596

> <CNNaffinity_variance>
0.4327952266

$$$$
[H]N=C(N([H])[H])N([H])C([H])([H])C([H])([H])C([H])([H])[C@@]([H])(C(=O)N([H])[C@]([H])(C(=O)N([H])[H])C([H])([H])c1c([H])n([H])c2c([H])c([H])c([H])c([H])c12)N([H])C(=O)[C@@]([H])(N([H])C(=O)[C@@]([H])(N([H])C(=O)[C@@]([H])(N([H])[H])C([H])([H])c1c([H])c([H])c(O[H])c([H])c1[H])C([H])([H])C([H])(C([H])([H])[H])C([H])([H])[H])C([H])([H])c1c([H])c([H])c([H])c([H])c1[H]


 71 74  0  0  0  0  0  0  0  0999 V2000
  -19.6158   16.2398  -18.5990 C   0  0  0  0  0  0  0  0  0  0  0  0
  -20.1859   16.8840  -19.6124 O   0  0  0  0  0  0  0  0  0  0  0  0
  -18.4208   15.6163  -19.0139 N   0  0  0  0  0  0  0  0  0  0  0  0
  -17.7970   15.0882  -18.3936 H   0  0  0  0  0  0  0  0  0  0  0  0
  -20.3063   16.3109  -17.3367 C   0  0  0  0  0  0  0  0  0  0  0  0
  -19.8134   13.9863  -16.5745 C   0  0  0  0  0  0  0  0  0  0  0  0
  -18.6295   14.3872  -16.4848 O   0  0  0  0  0  0  0  0  0  0  0  0
  -20.7757   14.9049  -17.0225 N   0  0  0  0  0  0  0  0  0  0  0  0
  -21.7800   14.7328  -17.1646 H   0  0  0  0  0  0  0  0  0  0  0  0
  -20.1718   12.5430  -16.2038 C   0  0  0  0  0  0  0  0  0  0  0  0
  -21.6473   12.5405  -15.9839 N   0  0  0  0  0  0  0  0  0  0  0  0
  -22.1665   12.4733  -14.6867 C   0  0  0  0  0  0  0  0  0  0  0  0
  -21.2858   12.4394  -13.7449 O   0  0  0  0  0  0  0  0  0  0  0  0
  -22.2853   12.5818  -16.8014 H   0  0  0  0  0  0  0  0  0  0  0  0
  -23.5565   12.4379  -14.2505 C   0  0  0  0  0  0  0  0  0  0  0  0
  -24.2537   13.5886  -14.8066 N   0  0  0  0  0  0  0  0  0  0  0  0
  -23.6014   14.3731  -14.9112 H   0  0  0  0  0  0  0  0  0  0  0  0
  -25.0341   13.8336  -14.1672 H   0  0  0  0  0  0  0  0  0  0  0  0
  -24.3034   11.1796  -14.3531 C   0  0  0  0  0  0  0  0  0  0  0  0
  -23.5864    9.9027  -14.3728 C   0  0  0  0  0  0  0  0  0  0  0  0
  -23.4058    9.1682  -15.5206 C   0  0  0  0  0  0  0  0  0  0  0  0
  -22.7185    7.9587  -15.5272 C   0  0  0  0  0  0  0  0  0  0  0  0
  -22.1903    7.4539  -14.3701 C   0  0  0  0  0  0  0  0  0  0  0  0
  -21.4969    6.2313  -14.3868 O   0  0  0  0  0  0  0  0  0  0  0  0
  -22.3583    8.1781  -13.1863 C   0  0  0  0  0  0  0  0  0  0  0  0
  -23.0387    9.3697  -13.1924 C   0  0  0  0  0  0  0  0  0  0  0  0
  -20.4798    6.3342  -14.5637 H   0  0  0  0  0  0  0  0  0  0  0  0
  -19.8196   11.5815  -17.2640 C   0  0  0  0  0  0  0  0  0  0  0  0
  -19.5327   10.0890  -15.3191 C   0  0  0  0  0  0  0  0  0  0  0  0
  -19.7859   10.1543  -16.8053 C   0  0  0  0  0  0  0  0  0  0  0  0
  -18.7167    9.3288  -17.4772 C   0  0  0  0  0  0  0  0  0  0  0  0
  -19.5417   16.7655  -16.1447 C   0  0  0  0  0  0  0  0  0  0  0  0
  -19.9407   18.0539  -15.6000 C   0  0  0  0  0  0  0  0  0  0  0  0
  -19.8023   18.2407  -14.1874 C   0  0  0  0  0  0  0  0  0  0  0  0
  -20.1220   19.4263  -13.6079 C   0  0  0  0  0  0  0  0  0  0  0  0
  -20.5892   20.5088  -14.3069 C   0  0  0  0  0  0  0  0  0  0  0  0
  -20.7208   20.3170  -15.6958 C   0  0  0  0  0  0  0  0  0  0  0  0
  -20.4013   19.1308  -16.2809 C   0  0  0  0  0  0  0  0  0  0  0  0
  -17.9934   15.7456  -20.4309 C   0  0  0  0  0  0  0  0  0  0  0  0
  -18.1596   14.3357  -20.9541 C   0  0  0  0  0  0  0  0  0  0  0  0
  -19.4046   13.9982  -21.1063 O   0  0  0  0  0  0  0  0  0  0  0  0
  -17.0637   13.5827  -21.2317 N   0  0  0  0  0  0  0  0  0  0  0  0
  -16.0943   14.0201  -21.0897 H   0  0  0  0  0  0  0  0  0  0  0  0
  -17.0622   12.2318  -21.7072 C   0  0  0  0  0  0  0  0  0  0  0  0
  -16.8291   11.2870  -20.6297 C   0  0  0  0  0  0  0  0  0  0  0  0
  -16.4677    9.9381  -20.8506 N   0  0  0  0  0  0  0  0  0  0  0  0
  -16.9664   11.7119  -19.4462 O   0  0  0  0  0  0  0  0  0  0  0  0
  -16.3032    9.2889  -20.0346 H   0  0  0  0  0  0  0  0  0  0  0  0
  -16.3499    9.5174  -21.7973 H   0  0  0  0  0  0  0  0  0  0  0  0
  -15.9706   12.1909  -22.8180 C   0  0  0  0  0  0  0  0  0  0  0  0
  -16.4222   12.9709  -23.9761 C   0  0  0  0  0  0  0  0  0  0  0  0
  -17.6858   12.8330  -24.5689 C   0  0  0  0  0  0  0  0  0  0  0  0
  -17.6616   13.6238  -25.6501 N   0  0  0  0  0  0  0  0  0  0  0  0
  -16.4779   14.2373  -25.7610 C   0  0  0  0  0  0  0  0  0  0  0  0
  -15.9578   15.1585  -26.6641 C   0  0  0  0  0  0  0  0  0  0  0  0
  -14.7023   15.6589  -26.5221 C   0  0  0  0  0  0  0  0  0  0  0  0
  -13.8678   15.2584  -25.4451 C   0  0  0  0  0  0  0  0  0  0  0  0
  -14.3984   14.3597  -24.5817 C   0  0  0  0  0  0  0  0  0  0  0  0
  -15.6734   13.8587  -24.7344 C   0  0  0  0  0  0  0  0  0  0  0  0
  -18.4620   13.7529  -26.3245 H   0  0  0  0  0  0  0  0  0  0  0  0
  -16.6485   16.3078  -20.5986 C   0  0  0  0  0  0  0  0  0  0  0  0
  -16.7245   17.8099  -20.6919 C   0  0  0  0  0  0  0  0  0  0  0  0
  -17.7227   18.1967  -21.7276 C   0  0  0  0  0  0  0  0  0  0  0  0
  -18.5934   19.2289  -21.2775 N   0  0  0  0  0  0  0  0  0  0  0  0
  -19.2101   19.0325  -20.4325 H   0  0  0  0  0  0  0  0  0  0  0  0
  -18.7336   20.5117  -21.8479 C   0  0  0  0  0  0  0  0  0  0  0  0
  -19.3482   20.6938  -23.1239 N   0  0  0  0  0  0  0  0  0  0  0  0
  -18.3068   21.5538  -21.2057 N   0  0  0  0  0  0  0  0  0  0  0  0
  -19.9515   21.5120  -23.3014 H   0  0  0  0  0  0  0  0  0  0  0  0
  -19.1515   19.9545  -23.8474 H   0  0  0  0  0  0  0  0  0  0  0  0
  -17.8665   21.4576  -20.2797 H   0  0  0  0  0  0  0  0  0  0  0  0
 29 30  1  0  0  0
 30 31  1  0  0  0
 30 28  1  0  0  0
 28 10  1  0  0  0
 10 11  1  0  0  0
 11 12  1  0  0  0
 12 13  2  0  0  0
 12 15  1  0  0  0
 15 16  1  0  0  0
 15 19  1  0  0  0
 19 20  1  0  0  0
 20 21  2  0  0  0
 21 22  1  0  0  0
 22 23  2  0  0  0
 23 24  1  0  0  0
 23 25  1  0  0  0
 25 26  2  0  0  0
 10  6  1  0  0  0
  6  7  2  0  0  0
  6  8  1  0  0  0
  8  5  1  0  0  0
  5 32  1  0  0  0
 32 33  1  0  0  0
 33 34  2  0  0  0
 34 35  1  0  0  0
 35 36  2  0  0  0
 36 37  1  0  0  0
 37 38  2  0  0  0
  5  1  1  0  0  0
  1  2  2  0  0  0
  1  3  1  0  0  0
  3 39  1  0  0  0
 39 61  1  0  0  0
 61 62  1  0  0  0
 62 63  1  0  0  0
 63 64  1  0  0  0
 64 66  1  0  0  0
 66 67  1  0  0  0
 66 68  2  0  0  0
 39 40  1  0  0  0
 40 41  2  0  0  0
 40 42  1  0  0  0
 42 44  1  0  0  0
 44 50  1  0  0  0
 50 51  1  0  0  0
 51 52  2  0  0  0
 52 53  1  0  0  0
 53 54  1  0  0  0
 54 55  2  0  0  0
 55 56  1  0  0  0
 56 57  2  0  0  0
 57 58  1  0  0  0
 58 59  2  0  0  0
 44 45  1  0  0  0
 45 46  1  0  0  0
 45 47  2  0  0  0
 26 20  1  0  0  0
 38 33  1  0  0  0
 59 51  1  0  0  0
 59 54  1  0  0  0
 11 14  1  0  0  0
 16 17  1  0  0  0
 16 18  1  0  0  0
 24 27  1  0  0  0
  8  9  1  0  0  0
  3  4  1  0  0  0
 64 65  1  0  0  0
 67 69  1  0  0  0
 67 70  1  0  0  0
 68 71  1  0  0  0
 42 43  1  0  0  0
 53 60  1  0  0  0
 46 48  1  0  0  0
 46 49  1  0  0  0
M  END
> <minimizedAffinity>
-8.33589

> <CNNscore>
0.2675120533

> <CNNaffinity>
7.5226030350

> <CNN_VS>
2.0123870373

> <CNNaffinity_variance>
0.6405150890

$$$$
[H]N=C(N([H])[H])N([H])C([H])([H])C([H])([H])C([H])([H])[C@@]([H])(C(=O)N([H])[C@]([H])(C(=O)N([H])[H])C([H])([H])c1c([H])n([H])c2c([H])c([H])c([H])c([H])c12)N([H])C(=O)[C@@]([H])(N([H])C(=O)[C@@]([H])(N([H])C(=O)[C@@]([H])(N([H])[H])C([H])([H])c1c([H])c([H])c(O[H])c([H])c1[H])C([H])([H])C([H])(C([H])([H])[H])C([H])([H])[H])C([H])([H])c1c([H])c([H])c([H])c([H])c1[H]


 71 74  0  0  0  0  0  0  0  0999 V2000
  -18.1527   17.3867  -23.0977 C   0  0  0  0  0  0  0  0  0  0  0  0
  -18.4934   16.8359  -24.2585 O   0  0  0  0  0  0  0  0  0  0  0  0
  -17.2712   16.5461  -22.3868 N   0  0  0  0  0  0  0  0  0  0  0  0
  -16.8532   16.7796  -21.4794 H   0  0  0  0  0  0  0  0  0  0  0  0
  -18.7283   18.6773  -22.8177 C   0  0  0  0  0  0  0  0  0  0  0  0
  -21.1177   19.0792  -23.4153 C   0  0  0  0  0  0  0  0  0  0  0  0
  -20.6513   19.8100  -24.3201 O   0  0  0  0  0  0  0  0  0  0  0  0
  -20.2031   18.4446  -22.5599 N   0  0  0  0  0  0  0  0  0  0  0  0
  -20.4204   17.8290  -21.7649 H   0  0  0  0  0  0  0  0  0  0  0  0
  -22.6329   18.9013  -23.2683 C   0  0  0  0  0  0  0  0  0  0  0  0
  -22.9676   19.4226  -21.9112 N   0  0  0  0  0  0  0  0  0  0  0  0
  -23.7776   18.6758  -21.0492 C   0  0  0  0  0  0  0  0  0  0  0  0
  -24.1675   17.5369  -21.5129 O   0  0  0  0  0  0  0  0  0  0  0  0
  -22.6006   20.3469  -21.6146 H   0  0  0  0  0  0  0  0  0  0  0  0
  -24.2403   19.0005  -19.7061 C   0  0  0  0  0  0  0  0  0  0  0  0
  -25.2237   20.0704  -19.7929 N   0  0  0  0  0  0  0  0  0  0  0  0
  -25.0119   20.6730  -20.5954 H   0  0  0  0  0  0  0  0  0  0  0  0
  -25.1967   20.6070  -18.9046 H   0  0  0  0  0  0  0  0  0  0  0  0
  -24.6210   17.9108  -18.8010 C   0  0  0  0  0  0  0  0  0  0  0  0
  -23.7663   17.5752  -17.6600 C   0  0  0  0  0  0  0  0  0  0  0  0
  -23.0571   16.4003  -17.5815 C   0  0  0  0  0  0  0  0  0  0  0  0
  -22.2447   16.0951  -16.4941 C   0  0  0  0  0  0  0  0  0  0  0  0
  -22.1235   16.9717  -15.4503 C   0  0  0  0  0  0  0  0  0  0  0  0
  -21.2997   16.6548  -14.3562 O   0  0  0  0  0  0  0  0  0  0  0  0
  -22.8333   18.1749  -15.5012 C   0  0  0  0  0  0  0  0  0  0  0  0
  -23.6319   18.4644  -16.5789 C   0  0  0  0  0  0  0  0  0  0  0  0
  -20.3193   16.9744  -14.4696 H   0  0  0  0  0  0  0  0  0  0  0  0
  -23.3923   19.6406  -24.2926 C   0  0  0  0  0  0  0  0  0  0  0  0
  -23.5128   17.3419  -25.1836 C   0  0  0  0  0  0  0  0  0  0  0  0
  -23.9299   18.7768  -25.3940 C   0  0  0  0  0  0  0  0  0  0  0  0
  -23.4550   19.1832  -26.7671 C   0  0  0  0  0  0  0  0  0  0  0  0
  -18.2187   19.4311  -21.6412 C   0  0  0  0  0  0  0  0  0  0  0  0
  -18.9152   19.1811  -20.3890 C   0  0  0  0  0  0  0  0  0  0  0  0
  -18.4157   18.1268  -19.5590 C   0  0  0  0  0  0  0  0  0  0  0  0
  -18.9910   17.8538  -18.3598 C   0  0  0  0  0  0  0  0  0  0  0  0
  -20.0645   18.5445  -17.8605 C   0  0  0  0  0  0  0  0  0  0  0  0
  -20.5484   19.5805  -18.6824 C   0  0  0  0  0  0  0  0  0  0  0  0
  -19.9750   19.8580  -19.8847 C   0  0  0  0  0  0  0  0  0  0  0  0
  -16.8761   15.2444  -22.9841 C   0  0  0  0  0  0  0  0  0  0  0  0
  -17.6307   14.2489  -22.1305 C   0  0  0  0  0  0  0  0  0  0  0  0
  -17.4292   13.0184  -22.4944 O   0  0  0  0  0  0  0  0  0  0  0  0
  -18.3956   14.6858  -21.0965 N   0  0  0  0  0  0  0  0  0  0  0  0
  -18.4299   15.7393  -20.8964 H   0  0  0  0  0  0  0  0  0  0  0  0
  -19.1818   13.8702  -20.2204 C   0  0  0  0  0  0  0  0  0  0  0  0
  -20.4964   14.4434  -19.9940 C   0  0  0  0  0  0  0  0  0  0  0  0
  -20.8962   15.6914  -20.5247 N   0  0  0  0  0  0  0  0  0  0  0  0
  -21.3035   13.7794  -19.2816 O   0  0  0  0  0  0  0  0  0  0  0  0
  -21.8653   16.0656  -20.3373 H   0  0  0  0  0  0  0  0  0  0  0  0
  -20.2798   16.2971  -21.1082 H   0  0  0  0  0  0  0  0  0  0  0  0
  -18.3324   13.7286  -18.9221 C   0  0  0  0  0  0  0  0  0  0  0  0
  -18.0311   12.3118  -18.6871 C   0  0  0  0  0  0  0  0  0  0  0  0
  -17.0186   11.6053  -19.3525 C   0  0  0  0  0  0  0  0  0  0  0  0
  -17.1445   10.3343  -18.9480 N   0  0  0  0  0  0  0  0  0  0  0  0
  -18.1570   10.2115  -18.0822 C   0  0  0  0  0  0  0  0  0  0  0  0
  -18.6775    9.1406  -17.3634 C   0  0  0  0  0  0  0  0  0  0  0  0
  -19.7183    9.3025  -16.5046 C   0  0  0  0  0  0  0  0  0  0  0  0
  -20.3196   10.5740  -16.3083 C   0  0  0  0  0  0  0  0  0  0  0  0
  -19.7943   11.5986  -17.0216 C   0  0  0  0  0  0  0  0  0  0  0  0
  -18.7380   11.4239  -17.8897 C   0  0  0  0  0  0  0  0  0  0  0  0
  -16.5321    9.5351  -19.2616 H   0  0  0  0  0  0  0  0  0  0  0  0
  -15.4256   15.0300  -23.0394 C   0  0  0  0  0  0  0  0  0  0  0  0
  -14.9352   15.1782  -24.4565 C   0  0  0  0  0  0  0  0  0  0  0  0
  -16.0311   14.8305  -25.4037 C   0  0  0  0  0  0  0  0  0  0  0  0
  -16.1942   13.4236  -25.5456 N   0  0  0  0  0  0  0  0  0  0  0  0
  -15.3619   12.7972  -25.3270 H   0  0  0  0  0  0  0  0  0  0  0  0
  -17.3660   12.7557  -25.9595 C   0  0  0  0  0  0  0  0  0  0  0  0
  -18.6154   12.9724  -25.3027 N   0  0  0  0  0  0  0  0  0  0  0  0
  -17.3209   11.9330  -26.9603 N   0  0  0  0  0  0  0  0  0  0  0  0
  -19.4931   12.9987  -25.8447 H   0  0  0  0  0  0  0  0  0  0  0  0
  -18.5781   13.1035  -24.2586 H   0  0  0  0  0  0  0  0  0  0  0  0
  -16.4374   11.7610  -27.4608 H   0  0  0  0  0  0  0  0  0  0  0  0
 29 30  1  0  0  0
 30 31  1  0  0  0
 30 28  1  0  0  0
 28 10  1  0  0  0
 10 11  1  0  0  0
 11 12  1  0  0  0
 12 13  2  0  0  0
 12 15  1  0  0  0
 15 16  1  0  0  0
 15 19  1  0  0  0
 19 20  1  0  0  0
 20 21  2  0  0  0
 21 22  1  0  0  0
 22 23  2  0  0  0
 23 24  1  0  0  0
 23 25  1  0  0  0
 25 26  2  0  0  0
 10  6  1  0  0  0
  6  7  2  0  0  0
  6  8  1  0  0  0
  8  5  1  0  0  0
  5 32  1  0  0  0
 32 33  1  0  0  0
 33 34  2  0  0  0
 34 35  1  0  0  0
 35 36  2  0  0  0
 36 37  1  0  0  0
 37 38  2  0  0  0
  5  1  1  0  0  0
  1  2  2  0  0  0
  1  3  1  0  0  0
  3 39  1  0  0  0
 39 61  1  0  0  0
 61 62  1  0  0  0
 62 63  1  0  0  0
 63 64  1  0  0  0
 64 66  1  0  0  0
 66 67  1  0  0  0
 66 68  2  0  0  0
 39 40  1  0  0  0
 40 41  2  0  0  0
 40 42  1  0  0  0
 42 44  1  0  0  0
 44 50  1  0  0  0
 50 51  1  0  0  0
 51 52  2  0  0  0
 52 53  1  0  0  0
 53 54  1  0  0  0
 54 55  2  0  0  0
 55 56  1  0  0  0
 56 57  2  0  0  0
 57 58  1  0  0  0
 58 59  2  0  0  0
 44 45  1  0  0  0
 45 46  1  0  0  0
 45 47  2  0  0  0
 26 20  1  0  0  0
 38 33  1  0  0  0
 59 51  1  0  0  0
 59 54  1  0  0  0
 11 14  1  0  0  0
 16 17  1  0  0  0
 16 18  1  0  0  0
 24 27  1  0  0  0
  8  9  1  0  0  0
  3  4  1  0  0  0
 64 65  1  0  0  0
 67 69  1  0  0  0
 67 70  1  0  0  0
 68 71  1  0  0  0
 42 43  1  0  0  0
 53 60  1  0  0  0
 46 48  1  0  0  0
 46 49  1  0  0  0
M  END
> <minimizedAffinity>
-8.57541

> <CNNscore>
0.2492118776

> <CNNaffinity>
7.5690588951

> <CNN_VS>
1.8862993717

> <CNNaffinity_variance>
0.9646813273

$$$$
[H]N=C(N([H])[H])N([H])C([H])([H])C([H])([H])C([H])([H])[C@@]([H])(C(=O)N([H])[C@]([H])(C(=O)N([H])[H])C([H])([H])c1c([H])n([H])c2c([H])c([H])c([H])c([H])c12)N([H])C(=O)[C@@]([H])(N([H])C(=O)[C@@]([H])(N([H])C(=O)[C@@]([H])(N([H])[H])C([H])([H])c1c([H])c([H])c(O[H])c([H])c1[H])C([H])([H])C([H])(C([H])([H])[H])C([H])([H])[H])C([H])([H])c1c([H])c([H])c([H])c([H])c1[H]


 71 74  0  0  0  0  0  0  0  0999 V2000
  -19.7203   16.1457  -18.6821 C   0  0  0  0  0  0  0  0  0  0  0  0
  -20.5123   16.5688  -19.6623 O   0  0  0  0  0  0  0  0  0  0  0  0
  -18.5198   15.6200  -19.2030 N   0  0  0  0  0  0  0  0  0  0  0  0
  -17.7469   15.2629  -18.6305 H   0  0  0  0  0  0  0  0  0  0  0  0
  -20.2294   16.3074  -17.3442 C   0  0  0  0  0  0  0  0  0  0  0  0
  -19.7899   13.9660  -16.6009 C   0  0  0  0  0  0  0  0  0  0  0  0
  -18.5813   14.2738  -16.7227 O   0  0  0  0  0  0  0  0  0  0  0  0
  -20.7428   14.9491  -16.9114 N   0  0  0  0  0  0  0  0  0  0  0  0
  -21.7666   14.8542  -16.8785 H   0  0  0  0  0  0  0  0  0  0  0  0
  -20.1875   12.5628  -16.1297 C   0  0  0  0  0  0  0  0  0  0  0  0
  -21.6565   12.6260  -15.8778 N   0  0  0  0  0  0  0  0  0  0  0  0
  -22.1613   12.4045  -14.5921 C   0  0  0  0  0  0  0  0  0  0  0  0
  -21.2722   12.1750  -13.6861 O   0  0  0  0  0  0  0  0  0  0  0  0
  -22.3013   12.8285  -16.6653 H   0  0  0  0  0  0  0  0  0  0  0  0
  -23.5443   12.3979  -14.1329 C   0  0  0  0  0  0  0  0  0  0  0  0
  -23.7462   11.2474  -13.2640 N   0  0  0  0  0  0  0  0  0  0  0  0
  -23.1301   10.4803  -13.5540 H   0  0  0  0  0  0  0  0  0  0  0  0
  -24.7444   10.9685  -13.3238 H   0  0  0  0  0  0  0  0  0  0  0  0
  -24.1317   13.6418  -13.6236 C   0  0  0  0  0  0  0  0  0  0  0  0
  -23.9762   14.8871  -14.3787 C   0  0  0  0  0  0  0  0  0  0  0  0
  -23.1853   15.9253  -13.9473 C   0  0  0  0  0  0  0  0  0  0  0  0
  -23.0420   17.1015  -14.6762 C   0  0  0  0  0  0  0  0  0  0  0  0
  -23.6953   17.2640  -15.8676 C   0  0  0  0  0  0  0  0  0  0  0  0
  -23.5438   18.4559  -16.5973 O   0  0  0  0  0  0  0  0  0  0  0  0
  -24.5076   16.2257  -16.3322 C   0  0  0  0  0  0  0  0  0  0  0  0
  -24.6415   15.0703  -15.6040 C   0  0  0  0  0  0  0  0  0  0  0  0
  -22.7537   18.4327  -17.2692 H   0  0  0  0  0  0  0  0  0  0  0  0
  -19.8934   11.5236  -17.1329 C   0  0  0  0  0  0  0  0  0  0  0  0
  -18.6412    9.4492  -17.6030 C   0  0  0  0  0  0  0  0  0  0  0  0
  -19.3736   10.2438  -16.5498 C   0  0  0  0  0  0  0  0  0  0  0  0
  -20.4539    9.3527  -15.9888 C   0  0  0  0  0  0  0  0  0  0  0  0
  -19.2841   16.7472  -16.2835 C   0  0  0  0  0  0  0  0  0  0  0  0
  -19.6676   17.9523  -15.5647 C   0  0  0  0  0  0  0  0  0  0  0  0
  -20.1549   19.0524  -16.3405 C   0  0  0  0  0  0  0  0  0  0  0  0
  -20.5639   20.1997  -15.7404 C   0  0  0  0  0  0  0  0  0  0  0  0
  -20.5443   20.3926  -14.3835 C   0  0  0  0  0  0  0  0  0  0  0  0
  -20.0651   19.3052  -13.6280 C   0  0  0  0  0  0  0  0  0  0  0  0
  -19.6546   18.1534  -14.2250 C   0  0  0  0  0  0  0  0  0  0  0  0
  -18.3185   15.6019  -20.6750 C   0  0  0  0  0  0  0  0  0  0  0  0
  -18.3508   14.1230  -20.9927 C   0  0  0  0  0  0  0  0  0  0  0  0
  -19.5236   13.5945  -20.8127 O   0  0  0  0  0  0  0  0  0  0  0  0
  -17.2283   13.5012  -21.4379 N   0  0  0  0  0  0  0  0  0  0  0  0
  -16.3398   14.0871  -21.5738 H   0  0  0  0  0  0  0  0  0  0  0  0
  -17.0991   12.1106  -21.7550 C   0  0  0  0  0  0  0  0  0  0  0  0
  -16.7657   11.3242  -20.5811 C   0  0  0  0  0  0  0  0  0  0  0  0
  -16.2551   10.0077  -20.6533 N   0  0  0  0  0  0  0  0  0  0  0  0
  -16.9535   11.8609  -19.4512 O   0  0  0  0  0  0  0  0  0  0  0  0
  -16.0220    9.4763  -19.7715 H   0  0  0  0  0  0  0  0  0  0  0  0
  -16.0879    9.4994  -21.5482 H   0  0  0  0  0  0  0  0  0  0  0  0
  -16.0184   12.0457  -22.8753 C   0  0  0  0  0  0  0  0  0  0  0  0
  -16.4431   12.8702  -24.0126 C   0  0  0  0  0  0  0  0  0  0  0  0
  -17.6864   12.7454  -24.6496 C   0  0  0  0  0  0  0  0  0  0  0  0
  -17.6380   13.5820  -25.6949 N   0  0  0  0  0  0  0  0  0  0  0  0
  -16.4584   14.2114  -25.7428 C   0  0  0  0  0  0  0  0  0  0  0  0
  -15.9213   15.1755  -26.5894 C   0  0  0  0  0  0  0  0  0  0  0  0
  -14.6763   15.6816  -26.3873 C   0  0  0  0  0  0  0  0  0  0  0  0
  -13.8707   15.2435  -25.3030 C   0  0  0  0  0  0  0  0  0  0  0  0
  -14.4173   14.3035  -24.4956 C   0  0  0  0  0  0  0  0  0  0  0  0
  -15.6814   13.7970  -24.7089 C   0  0  0  0  0  0  0  0  0  0  0  0
  -18.4188   13.7321  -26.3877 H   0  0  0  0  0  0  0  0  0  0  0  0
  -17.1059   16.2986  -21.1191 C   0  0  0  0  0  0  0  0  0  0  0  0
  -16.7241   17.3592  -20.1192 C   0  0  0  0  0  0  0  0  0  0  0  0
  -17.4499   18.6227  -20.4287 C   0  0  0  0  0  0  0  0  0  0  0  0
  -17.8035   18.7175  -21.8043 N   0  0  0  0  0  0  0  0  0  0  0  0
  -17.0671   18.4659  -22.5304 H   0  0  0  0  0  0  0  0  0  0  0  0
  -19.0524   19.1236  -22.3200 C   0  0  0  0  0  0  0  0  0  0  0  0
  -19.1439   20.0777  -23.3785 N   0  0  0  0  0  0  0  0  0  0  0  0
  -20.1449   18.6207  -21.8363 N   0  0  0  0  0  0  0  0  0  0  0  0
  -19.8628   19.9774  -24.1119 H   0  0  0  0  0  0  0  0  0  0  0  0
  -18.4444   20.8646  -23.3603 H   0  0  0  0  0  0  0  0  0  0  0  0
  -20.1132   17.9241  -21.0784 H   0  0  0  0  0  0  0  0  0  0  0  0
 29 30  1  0  0  0
 30 31  1  0  0  0
 30 28  1  0  0  0
 28 10  1  0  0  0
 10 11  1  0  0  0
 11 12  1  0  0  0
 12 13  2  0  0  0
 12 15  1  0  0  0
 15 16  1  0  0  0
 15 19  1  0  0  0
 19 20  1  0  0  0
 20 21  2  0  0  0
 21 22  1  0  0  0
 22 23  2  0  0  0
 23 24  1  0  0  0
 23 25  1  0  0  0
 25 26  2  0  0  0
 10  6  1  0  0  0
  6  7  2  0  0  0
  6  8  1  0  0  0
  8  5  1  0  0  0
  5 32  1  0  0  0
 32 33  1  0  0  0
 33 34  2  0  0  0
 34 35  1  0  0  0
 35 36  2  0  0  0
 36 37  1  0  0  0
 37 38  2  0  0  0
  5  1  1  0  0  0
  1  2  2  0  0  0
  1  3  1  0  0  0
  3 39  1  0  0  0
 39 61  1  0  0  0
 61 62  1  0  0  0
 62 63  1  0  0  0
 63 64  1  0  0  0
 64 66  1  0  0  0
 66 67  1  0  0  0
 66 68  2  0  0  0
 39 40  1  0  0  0
 40 41  2  0  0  0
 40 42  1  0  0  0
 42 44  1  0  0  0
 44 50  1  0  0  0
 50 51  1  0  0  0
 51 52  2  0  0  0
 52 53  1  0  0  0
 53 54  1  0  0  0
 54 55  2  0  0  0
 55 56  1  0  0  0
 56 57  2  0  0  0
 57 58  1  0  0  0
 58 59  2  0  0  0
 44 45  1  0  0  0
 45 46  1  0  0  0
 45 47  2  0  0  0
 26 20  1  0  0  0
 38 33  1  0  0  0
 59 51  1  0  0  0
 59 54  1  0  0  0
 11 14  1  0  0  0
 16 17  1  0  0  0
 16 18  1  0  0  0
 24 27  1  0  0  0
  8  9  1  0  0  0
  3  4  1  0  0  0
 64 65  1  0  0  0
 67 69  1  0  0  0
 67 70  1  0  0  0
 68 71  1  0  0  0
 42 43  1  0  0  0
 53 60  1  0  0  0
 46 48  1  0  0  0
 46 49  1  0  0  0
M  END
> <minimizedAffinity>
-7.81211

> <CNNscore>
0.2491951585

> <CNNaffinity>
7.7326002121

> <CNN_VS>
1.9269264936

> <CNNaffinity_variance>
0.2631706893

$$$$
[H]N=C(N([H])[H])N([H])C([H])([H])C([H])([H])C([H])([H])[C@@]([H])(C(=O)N([H])[C@]([H])(C(=O)N([H])[H])C([H])([H])c1c([H])n([H])c2c([H])c([H])c([H])c([H])c12)N([H])C(=O)[C@@]([H])(N([H])C(=O)[C@@]([H])(N([H])C(=O)[C@@]([H])(N([H])[H])C([H])([H])c1c([H])c([H])c(O[H])c([H])c1[H])C([H])([H])C([H])(C([H])([H])[H])C([H])([H])[H])C([H])([H])c1c([H])c([H])c([H])c([H])c1[H]


 71 74  0  0  0  0  0  0  0  0999 V2000
  -19.1303   16.3571  -19.7110 C   0  0  0  0  0  0  0  0  0  0  0  0
  -20.3234   15.8053  -19.5139 O   0  0  0  0  0  0  0  0  0  0  0  0
  -18.1015   15.4618  -19.3516 N   0  0  0  0  0  0  0  0  0  0  0  0
  -17.0997   15.6613  -19.4479 H   0  0  0  0  0  0  0  0  0  0  0  0
  -19.1336   17.7000  -20.2325 C   0  0  0  0  0  0  0  0  0  0  0  0
  -20.8719   18.5903  -21.7861 C   0  0  0  0  0  0  0  0  0  0  0  0
  -19.9139   18.7732  -22.5729 O   0  0  0  0  0  0  0  0  0  0  0  0
  -20.5796   18.0446  -20.5261 N   0  0  0  0  0  0  0  0  0  0  0  0
  -21.2435   17.8473  -19.7654 H   0  0  0  0  0  0  0  0  0  0  0  0
  -22.2994   18.9570  -22.2064 C   0  0  0  0  0  0  0  0  0  0  0  0
  -22.9392   19.5361  -20.9895 N   0  0  0  0  0  0  0  0  0  0  0  0
  -23.9415   18.8298  -20.3162 C   0  0  0  0  0  0  0  0  0  0  0  0
  -24.2267   17.6744  -20.8140 O   0  0  0  0  0  0  0  0  0  0  0  0
  -22.6396   20.4701  -20.6507 H   0  0  0  0  0  0  0  0  0  0  0  0
  -24.7050   19.2125  -19.1355 C   0  0  0  0  0  0  0  0  0  0  0  0
  -25.7141   20.1875  -19.5232 N   0  0  0  0  0  0  0  0  0  0  0  0
  -25.3730   20.7453  -20.3136 H   0  0  0  0  0  0  0  0  0  0  0  0
  -25.9158   20.7883  -18.7009 H   0  0  0  0  0  0  0  0  0  0  0  0
  -25.2009   18.1642  -18.2372 C   0  0  0  0  0  0  0  0  0  0  0  0
  -24.3047   17.5671  -17.2446 C   0  0  0  0  0  0  0  0  0  0  0  0
  -23.2389   16.7700  -17.5883 C   0  0  0  0  0  0  0  0  0  0  0  0
  -22.3918   16.2124  -16.6359 C   0  0  0  0  0  0  0  0  0  0  0  0
  -22.5966   16.4453  -15.3031 C   0  0  0  0  0  0  0  0  0  0  0  0
  -21.7349   15.8780  -14.3482 O   0  0  0  0  0  0  0  0  0  0  0  0
  -23.6730   17.2517  -14.9225 C   0  0  0  0  0  0  0  0  0  0  0  0
  -24.5021   17.7956  -15.8712 C   0  0  0  0  0  0  0  0  0  0  0  0
  -20.9203   16.4775  -14.1173 H   0  0  0  0  0  0  0  0  0  0  0  0
  -22.3321   19.9373  -23.3067 C   0  0  0  0  0  0  0  0  0  0  0  0
  -23.3667   18.0976  -24.5865 C   0  0  0  0  0  0  0  0  0  0  0  0
  -23.2987   19.5936  -24.4002 C   0  0  0  0  0  0  0  0  0  0  0  0
  -22.9379   20.1941  -25.7364 C   0  0  0  0  0  0  0  0  0  0  0  0
  -18.6192   18.7907  -19.3619 C   0  0  0  0  0  0  0  0  0  0  0  0
  -19.3623   19.0113  -18.1310 C   0  0  0  0  0  0  0  0  0  0  0  0
  -18.9560   18.2683  -16.9767 C   0  0  0  0  0  0  0  0  0  0  0  0
  -19.5783   18.4429  -15.7826 C   0  0  0  0  0  0  0  0  0  0  0  0
  -20.6152   19.3185  -15.5903 C   0  0  0  0  0  0  0  0  0  0  0  0
  -21.0074   20.0462  -16.7303 C   0  0  0  0  0  0  0  0  0  0  0  0
  -20.3864   19.8749  -17.9289 C   0  0  0  0  0  0  0  0  0  0  0  0
  -18.4633   14.1191  -18.8286 C   0  0  0  0  0  0  0  0  0  0  0  0
  -18.3568   13.2471  -20.0605 C   0  0  0  0  0  0  0  0  0  0  0  0
  -19.4841   12.6864  -20.3799 O   0  0  0  0  0  0  0  0  0  0  0  0
  -17.1712   13.1408  -20.7146 N   0  0  0  0  0  0  0  0  0  0  0  0
  -16.3334   13.7014  -20.3474 H   0  0  0  0  0  0  0  0  0  0  0  0
  -16.9116   12.3403  -21.8734 C   0  0  0  0  0  0  0  0  0  0  0  0
  -16.3943   11.0323  -21.5136 C   0  0  0  0  0  0  0  0  0  0  0  0
  -15.0971   10.5922  -21.8639 N   0  0  0  0  0  0  0  0  0  0  0  0
  -17.1595   10.2659  -20.8602 O   0  0  0  0  0  0  0  0  0  0  0  0
  -14.7624    9.6335  -21.5751 H   0  0  0  0  0  0  0  0  0  0  0  0
  -14.4192   11.1647  -22.4115 H   0  0  0  0  0  0  0  0  0  0  0  0
  -15.9277   13.1822  -22.7396 C   0  0  0  0  0  0  0  0  0  0  0  0
  -16.5030   13.3863  -24.0741 C   0  0  0  0  0  0  0  0  0  0  0  0
  -17.6311   12.7046  -24.5534 C   0  0  0  0  0  0  0  0  0  0  0  0
  -17.7599   13.0817  -25.8325 N   0  0  0  0  0  0  0  0  0  0  0  0
  -16.7960   13.9458  -26.1702 C   0  0  0  0  0  0  0  0  0  0  0  0
  -16.5002   14.6421  -27.3374 C   0  0  0  0  0  0  0  0  0  0  0  0
  -15.4525   15.5053  -27.4014 C   0  0  0  0  0  0  0  0  0  0  0  0
  -14.6140   15.7297  -26.2775 C   0  0  0  0  0  0  0  0  0  0  0  0
  -14.9236   15.0381  -25.1548 C   0  0  0  0  0  0  0  0  0  0  0  0
  -15.9889   14.1652  -25.1002 C   0  0  0  0  0  0  0  0  0  0  0  0
  -18.5158   12.7502  -26.4889 H   0  0  0  0  0  0  0  0  0  0  0  0
  -19.7661   14.0732  -18.1551 C   0  0  0  0  0  0  0  0  0  0  0  0
  -19.6112   13.5029  -16.7689 C   0  0  0  0  0  0  0  0  0  0  0  0
  -20.8899   12.8681  -16.3437 C   0  0  0  0  0  0  0  0  0  0  0  0
  -20.9922   12.7587  -14.9281 N   0  0  0  0  0  0  0  0  0  0  0  0
  -20.1140   12.5139  -14.3787 H   0  0  0  0  0  0  0  0  0  0  0  0
  -22.1608   12.9391  -14.1584 C   0  0  0  0  0  0  0  0  0  0  0  0
  -23.4519   12.9794  -14.7671 N   0  0  0  0  0  0  0  0  0  0  0  0
  -22.0730   13.0634  -12.8710 N   0  0  0  0  0  0  0  0  0  0  0  0
  -24.2651   12.5524  -14.2967 H   0  0  0  0  0  0  0  0  0  0  0  0
  -23.5127   13.4576  -15.7033 H   0  0  0  0  0  0  0  0  0  0  0  0
  -21.1576   13.0302  -12.4002 H   0  0  0  0  0  0  0  0  0  0  0  0
 29 30  1  0  0  0
 30 31  1  0  0  0
 30 28  1  0  0  0
 28 10  1  0  0  0
 10 11  1  0  0  0
 11 12  1  0  0  0
 12 13  2  0  0  0
 12 15  1  0  0  0
 15 16  1  0  0  0
 15 19  1  0  0  0
 19 20  1  0  0  0
 20 21  2  0  0  0
 21 22  1  0  0  0
 22 23  2  0  0  0
 23 24  1  0  0  0
 23 25  1  0  0  0
 25 26  2  0  0  0
 10  6  1  0  0  0
  6  7  2  0  0  0
  6  8  1  0  0  0
  8  5  1  0  0  0
  5 32  1  0  0  0
 32 33  1  0  0  0
 33 34  2  0  0  0
 34 35  1  0  0  0
 35 36  2  0  0  0
 36 37  1  0  0  0
 37 38  2  0  0  0
  5  1  1  0  0  0
  1  2  2  0  0  0
  1  3  1  0  0  0
  3 39  1  0  0  0
 39 61  1  0  0  0
 61 62  1  0  0  0
 62 63  1  0  0  0
 63 64  1  0  0  0
 64 66  1  0  0  0
 66 67  1  0  0  0
 66 68  2  0  0  0
 39 40  1  0  0  0
 40 41  2  0  0  0
 40 42  1  0  0  0
 42 44  1  0  0  0
 44 50  1  0  0  0
 50 51  1  0  0  0
 51 52  2  0  0  0
 52 53  1  0  0  0
 53 54  1  0  0  0
 54 55  2  0  0  0
 55 56  1  0  0  0
 56 57  2  0  0  0
 57 58  1  0  0  0
 58 59  2  0  0  0
 44 45  1  0  0  0
 45 46  1  0  0  0
 45 47  2  0  0  0
 26 20  1  0  0  0
 38 33  1  0  0  0
 59 51  1  0  0  0
 59 54  1  0  0  0
 11 14  1  0  0  0
 16 17  1  0  0  0
 16 18  1  0  0  0
 24 27  1  0  0  0
  8  9  1  0  0  0
  3  4  1  0  0  0
 64 65  1  0  0  0
 67 69  1  0  0  0
 67 70  1  0  0  0
 68 71  1  0  0  0
 42 43  1  0  0  0
 53 60  1  0  0  0
 46 48  1  0  0  0
 46 49  1  0  0  0
M  END
> <minimizedAffinity>
-7.74060

> <CNNscore>
0.2426718175

> <CNNaffinity>
7.6033759117

> <CNN_VS>
1.8451250792

> <CNNaffinity_variance>
0.3187701106

$$$$
[H]c1nc(N([H])c2c([H])c([H])c(C(=O)N([H])c3c([H])c([H])c([H])c(C(F)(F)F)c3[H])c([H])c2OC([H])([H])[H])nc([H])c1Cl


 31 33  0  0  0  0  0  0  0  0999 V2000
  -18.5586   11.2932  -17.7796 C   0  0  0  0  0  0  0  0  0  0  0  0
  -17.8926   11.2023  -19.0005 C   0  0  0  0  0  0  0  0  0  0  0  0
  -17.6521   12.2607  -19.7966 C   0  0  0  0  0  0  0  0  0  0  0  0
  -18.0704   13.5081  -19.3931 C   0  0  0  0  0  0  0  0  0  0  0  0
  -18.7577   13.6837  -18.1470 C   0  0  0  0  0  0  0  0  0  0  0  0
  -18.9827   12.5798  -17.3791 C   0  0  0  0  0  0  0  0  0  0  0  0
  -17.1441   12.1896  -21.1984 C   0  0  0  0  0  0  0  0  0  0  0  0
  -16.7185   11.0624  -21.5638 O   0  0  0  0  0  0  0  0  0  0  0  0
  -17.2030   13.3063  -21.9995 N   0  0  0  0  0  0  0  0  0  0  0  0
  -17.4465   14.2552  -21.5088 H   0  0  0  0  0  0  0  0  0  0  0  0
  -16.9456   13.4434  -23.3765 C   0  0  0  0  0  0  0  0  0  0  0  0
  -17.7655   12.9786  -24.3681 C   0  0  0  0  0  0  0  0  0  0  0  0
  -17.6254   13.2600  -25.7032 C   0  0  0  0  0  0  0  0  0  0  0  0
  -16.5835   14.0697  -26.1106 C   0  0  0  0  0  0  0  0  0  0  0  0
  -15.7360   14.5545  -25.1542 C   0  0  0  0  0  0  0  0  0  0  0  0
  -15.8974   14.2574  -23.8097 C   0  0  0  0  0  0  0  0  0  0  0  0
  -14.6361   15.4671  -25.5640 C   0  0  0  0  0  0  0  0  0  0  0  0
  -14.8755   16.7079  -25.0460 F   0  0  0  0  0  0  0  0  0  0  0  0
  -14.6005   15.5527  -26.9495 F   0  0  0  0  0  0  0  0  0  0  0  0
  -13.4497   15.0059  -25.0810 F   0  0  0  0  0  0  0  0  0  0  0  0
  -18.7273    8.9145  -17.0257 C   0  0  0  0  0  0  0  0  0  0  0  0
  -18.8433   10.2827  -16.9449 O   0  0  0  0  0  0  0  0  0  0  0  0
  -19.7029   12.7648  -16.1404 N   0  0  0  0  0  0  0  0  0  0  0  0
  -19.5668   13.6722  -15.6534 H   0  0  0  0  0  0  0  0  0  0  0  0
  -20.5109   11.7718  -15.5633 C   0  0  0  0  0  0  0  0  0  0  0  0
  -20.1655   11.1550  -14.4046 N   0  0  0  0  0  0  0  0  0  0  0  0
  -20.7799   10.1545  -13.8039 C   0  0  0  0  0  0  0  0  0  0  0  0
  -21.9175    9.6412  -14.4006 C   0  0  0  0  0  0  0  0  0  0  0  0
  -22.8155    8.3213  -13.7226 Cl  0  0  0  0  0  0  0  0  0  0  0  0
  -22.3077   10.2265  -15.5616 C   0  0  0  0  0  0  0  0  0  0  0  0
  -21.6628   11.2611  -16.1552 N   0  0  0  0  0  0  0  0  0  0  0  0
 21 22  1  0  0  0
 22  1  1  0  0  0
  1  2  2  0  0  0
  2  3  1  0  0  0
  3  4  2  0  0  0
  4  5  1  0  0  0
  5  6  2  0  0  0
  6 23  1  0  0  0
 23 25  1  0  0  0
 25 26  2  0  0  0
 26 27  1  0  0  0
 27 28  2  0  0  0
 28 29  1  0  0  0
 28 30  1  0  0  0
 30 31  2  0  0  0
  3  7  1  0  0  0
  7  8  2  0  0  0
  7  9  1  0  0  0
  9 11  1  0  0  0
 11 12  2  0  0  0
 12 13  1  0  0  0
 13 14  2  0  0  0
 14 15  1  0  0  0
 15 16  2  0  0  0
 15 17  1  0  0  0
 17 18  1  0  0  0
 17 19  1  0  0  0
 17 20  1  0  0  0
  6  1  1  0  0  0
 31 25  1  0  0  0
 16 11  1  0  0  0
 23 24  1  0  0  0
  9 10  1  0  0  0
M  END
> <minimizedAffinity>
-8.23994

> <CNNscore>
0.3107888401

> <CNNaffinity>
6.3442625999

> <CNN_VS>
1.9717260599

> <CNNaffinity_variance>
0.1366400421

$$$$
[H]c1nc(N([H])c2c([H])c([H])c(C(=O)N([H])c3c([H])c([H])c([H])c(C(F)(F)F)c3[H])c([H])c2OC([H])([H])[H])nc([H])c1Cl


 31 33  0  0  0  0  0  0  0  0999 V2000
  -19.4081   12.7872  -18.9417 C   0  0  0  0  0  0  0  0  0  0  0  0
  -18.8491   12.8638  -20.2160 C   0  0  0  0  0  0  0  0  0  0  0  0
  -17.8611   12.0561  -20.6440 C   0  0  0  0  0  0  0  0  0  0  0  0
  -17.3727   11.0906  -19.7937 C   0  0  0  0  0  0  0  0  0  0  0  0
  -17.9003   10.9456  -18.4683 C   0  0  0  0  0  0  0  0  0  0  0  0
  -18.8962   11.7919  -18.0798 C   0  0  0  0  0  0  0  0  0  0  0  0
  -17.0843   12.2353  -21.9060 C   0  0  0  0  0  0  0  0  0  0  0  0
  -16.0597   11.5122  -22.0187 O   0  0  0  0  0  0  0  0  0  0  0  0
  -17.5338   13.1178  -22.8607 N   0  0  0  0  0  0  0  0  0  0  0  0
  -18.3445   13.7939  -22.5671 H   0  0  0  0  0  0  0  0  0  0  0  0
  -17.0773   13.3357  -24.1742 C   0  0  0  0  0  0  0  0  0  0  0  0
  -17.6697   12.8228  -25.2956 C   0  0  0  0  0  0  0  0  0  0  0  0
  -17.3514   13.1696  -26.5838 C   0  0  0  0  0  0  0  0  0  0  0  0
  -16.3573   14.1038  -26.7991 C   0  0  0  0  0  0  0  0  0  0  0  0
  -15.7345   14.6410  -25.7075 C   0  0  0  0  0  0  0  0  0  0  0  0
  -16.0735   14.2759  -24.4138 C   0  0  0  0  0  0  0  0  0  0  0  0
  -14.6951   15.6839  -25.9136 C   0  0  0  0  0  0  0  0  0  0  0  0
  -14.6888   16.0472  -27.2302 F   0  0  0  0  0  0  0  0  0  0  0  0
  -13.4505   15.1664  -25.5796 F   0  0  0  0  0  0  0  0  0  0  0  0
  -14.9804   16.7764  -25.1530 F   0  0  0  0  0  0  0  0  0  0  0  0
  -21.2268   14.5033  -18.9909 C   0  0  0  0  0  0  0  0  0  0  0  0
  -20.3816   13.5651  -18.4456 O   0  0  0  0  0  0  0  0  0  0  0  0
  -19.3985   11.6562  -16.7320 N   0  0  0  0  0  0  0  0  0  0  0  0
  -19.1527   12.4134  -16.0647 H   0  0  0  0  0  0  0  0  0  0  0  0
  -20.1371   10.5453  -16.2933 C   0  0  0  0  0  0  0  0  0  0  0  0
  -21.4752   10.6181  -16.0773 N   0  0  0  0  0  0  0  0  0  0  0  0
  -22.2693    9.6869  -15.5861 C   0  0  0  0  0  0  0  0  0  0  0  0
  -21.7044    8.4748  -15.2318 C   0  0  0  0  0  0  0  0  0  0  0  0
  -22.6318    7.1691  -14.5661 Cl  0  0  0  0  0  0  0  0  0  0  0  0
  -20.3675    8.3497  -15.4317 C   0  0  0  0  0  0  0  0  0  0  0  0
  -19.5734    9.3204  -15.9471 N   0  0  0  0  0  0  0  0  0  0  0  0
 21 22  1  0  0  0
 22  1  1  0  0  0
  1  2  2  0  0  0
  2  3  1  0  0  0
  3  4  2  0  0  0
  4  5  1  0  0  0
  5  6  2  0  0  0
  6 23  1  0  0  0
 23 25  1  0  0  0
 25 26  2  0  0  0
 26 27  1  0  0  0
 27 28  2  0  0  0
 28 29  1  0  0  0
 28 30  1  0  0  0
 30 31  2  0  0  0
  3  7  1  0  0  0
  7  8  2  0  0  0
  7  9  1  0  0  0
  9 11  1  0  0  0
 11 12  2  0  0  0
 12 13  1  0  0  0
 13 14  2  0  0  0
 14 15  1  0  0  0
 15 16  2  0  0  0
 15 17  1  0  0  0
 17 18  1  0  0  0
 17 19  1  0  0  0
 17 20  1  0  0  0
  6  1  1  0  0  0
 31 25  1  0  0  0
 16 11  1  0  0  0
 23 24  1  0  0  0
  9 10  1  0  0  0
M  END
> <minimizedAffinity>
-8.84921

> <CNNscore>
0.2928536832

> <CNNaffinity>
6.4425673485

> <CNN_VS>
1.8867295980

> <CNNaffinity_variance>
0.2478540689

$$$$
[H]c1nc(N([H])c2c([H])c([H])c(C(=O)N([H])c3c([H])c([H])c([H])c(C(F)(F)F)c3[H])c([H])c2OC([H])([H])[H])nc([H])c1Cl


 31 33  0  0  0  0  0  0  0  0999 V2000
  -17.4658   12.1982  -21.1140 C   0  0  0  0  0  0  0  0  0  0  0  0
  -18.3409   12.6714  -20.1379 C   0  0  0  0  0  0  0  0  0  0  0  0
  -18.9185   13.8863  -20.1834 C   0  0  0  0  0  0  0  0  0  0  0  0
  -18.6493   14.7138  -21.2496 C   0  0  0  0  0  0  0  0  0  0  0  0
  -17.7633   14.2962  -22.2967 C   0  0  0  0  0  0  0  0  0  0  0  0
  -17.1986   13.0589  -22.2018 C   0  0  0  0  0  0  0  0  0  0  0  0
  -19.6816   14.5225  -19.0694 C   0  0  0  0  0  0  0  0  0  0  0  0
  -20.4973   13.7711  -18.4733 O   0  0  0  0  0  0  0  0  0  0  0  0
  -19.4335   15.8346  -18.7388 N   0  0  0  0  0  0  0  0  0  0  0  0
  -18.8187   16.4132  -19.4371 H   0  0  0  0  0  0  0  0  0  0  0  0
  -19.8940   16.5920  -17.6454 C   0  0  0  0  0  0  0  0  0  0  0  0
  -19.1198   16.9673  -16.5818 C   0  0  0  0  0  0  0  0  0  0  0  0
  -19.4985   17.8520  -15.6045 C   0  0  0  0  0  0  0  0  0  0  0  0
  -20.7544   18.4228  -15.6690 C   0  0  0  0  0  0  0  0  0  0  0  0
  -21.5647   18.0742  -16.7130 C   0  0  0  0  0  0  0  0  0  0  0  0
  -21.1603   17.1780  -17.6903 C   0  0  0  0  0  0  0  0  0  0  0  0
  -22.9023   18.7128  -16.8292 C   0  0  0  0  0  0  0  0  0  0  0  0
  -23.2847   18.7018  -18.1403 F   0  0  0  0  0  0  0  0  0  0  0  0
  -22.8249   20.0279  -16.3900 F   0  0  0  0  0  0  0  0  0  0  0  0
  -23.8123   18.0147  -16.0956 F   0  0  0  0  0  0  0  0  0  0  0  0
  -16.0445   10.3395  -20.2305 C   0  0  0  0  0  0  0  0  0  0  0  0
  -16.8461   11.0088  -21.1259 O   0  0  0  0  0  0  0  0  0  0  0  0
  -16.2840   12.6614  -23.2472 N   0  0  0  0  0  0  0  0  0  0  0  0
  -15.6251   11.8906  -23.0216 H   0  0  0  0  0  0  0  0  0  0  0  0
  -16.2202   13.2969  -24.4978 C   0  0  0  0  0  0  0  0  0  0  0  0
  -15.4190   14.3715  -24.7121 N   0  0  0  0  0  0  0  0  0  0  0  0
  -15.3284   15.1114  -25.8000 C   0  0  0  0  0  0  0  0  0  0  0  0
  -16.1369   14.7855  -26.8742 C   0  0  0  0  0  0  0  0  0  0  0  0
  -16.1247   15.6802  -28.3599 Cl  0  0  0  0  0  0  0  0  0  0  0  0
  -16.9555   13.7148  -26.7116 C   0  0  0  0  0  0  0  0  0  0  0  0
  -17.0238   12.9640  -25.5846 N   0  0  0  0  0  0  0  0  0  0  0  0
 21 22  1  0  0  0
 22  1  1  0  0  0
  1  2  2  0  0  0
  2  3  1  0  0  0
  3  4  2  0  0  0
  4  5  1  0  0  0
  5  6  2  0  0  0
  6 23  1  0  0  0
 23 25  1  0  0  0
 25 26  2  0  0  0
 26 27  1  0  0  0
 27 28  2  0  0  0
 28 29  1  0  0  0
 28 30  1  0  0  0
 30 31  2  0  0  0
  3  7  1  0  0  0
  7  8  2  0  0  0
  7  9  1  0  0  0
  9 11  1  0  0  0
 11 12  2  0  0  0
 12 13  1  0  0  0
 13 14  2  0  0  0
 14 15  1  0  0  0
 15 16  2  0  0  0
 15 17  1  0  0  0
 17 18  1  0  0  0
 17 19  1  0  0  0
 17 20  1  0  0  0
  6  1  1  0  0  0
 31 25  1  0  0  0
 16 11  1  0  0  0
 23 24  1  0  0  0
  9 10  1  0  0  0
M  END
> <minimizedAffinity>
-7.39618

> <CNNscore>
0.2794585526

> <CNNaffinity>
6.3865041733

> <CNN_VS>
1.7847632170

> <CNNaffinity_variance>
0.1316187978

$$$$
[H]c1nc(N([H])c2c([H])c([H])c(C(=O)N([H])c3c([H])c([H])c([H])c(C(F)(F)F)c3[H])c([H])c2OC([H])([H])[H])nc([H])c1Cl


 31 33  0  0  0  0  0  0  0  0999 V2000
  -18.4140   14.8566  -20.3337 C   0  0  0  0  0  0  0  0  0  0  0  0
  -18.3315   13.8424  -19.3814 C   0  0  0  0  0  0  0  0  0  0  0  0
  -17.8971   12.5984  -19.6562 C   0  0  0  0  0  0  0  0  0  0  0  0
  -17.4995   12.2984  -20.9390 C   0  0  0  0  0  0  0  0  0  0  0  0
  -17.5500   13.2901  -21.9734 C   0  0  0  0  0  0  0  0  0  0  0  0
  -18.0032   14.5336  -21.6461 C   0  0  0  0  0  0  0  0  0  0  0  0
  -17.9940   11.4266  -18.7365 C   0  0  0  0  0  0  0  0  0  0  0  0
  -17.0087   10.6429  -18.7521 O   0  0  0  0  0  0  0  0  0  0  0  0
  -19.0943   11.2918  -17.9220 N   0  0  0  0  0  0  0  0  0  0  0  0
  -19.9438   11.9537  -18.1241 H   0  0  0  0  0  0  0  0  0  0  0  0
  -19.3350   10.3837  -16.8738 C   0  0  0  0  0  0  0  0  0  0  0  0
  -19.0307    9.0507  -16.9182 C   0  0  0  0  0  0  0  0  0  0  0  0
  -19.0887    8.1930  -15.8495 C   0  0  0  0  0  0  0  0  0  0  0  0
  -19.4848    8.6817  -14.6201 C   0  0  0  0  0  0  0  0  0  0  0  0
  -19.8025   10.0080  -14.5290 C   0  0  0  0  0  0  0  0  0  0  0  0
  -19.7358   10.8569  -15.6230 C   0  0  0  0  0  0  0  0  0  0  0  0
  -20.1850   10.5663  -13.2052 C   0  0  0  0  0  0  0  0  0  0  0  0
  -21.0810    9.7231  -12.6123 F   0  0  0  0  0  0  0  0  0  0  0  0
  -20.7798   11.8084  -13.3834 F   0  0  0  0  0  0  0  0  0  0  0  0
  -19.0829   10.6712  -12.4128 F   0  0  0  0  0  0  0  0  0  0  0  0
  -18.2833   17.2429  -19.5963 C   0  0  0  0  0  0  0  0  0  0  0  0
  -18.8482   16.1099  -20.1341 O   0  0  0  0  0  0  0  0  0  0  0  0
  -18.0784   15.5155  -22.7033 N   0  0  0  0  0  0  0  0  0  0  0  0
  -18.7207   16.3174  -22.5497 H   0  0  0  0  0  0  0  0  0  0  0  0
  -17.3777   15.3985  -23.9147 C   0  0  0  0  0  0  0  0  0  0  0  0
  -16.3459   16.2240  -24.2249 N   0  0  0  0  0  0  0  0  0  0  0  0
  -15.6646   16.2822  -25.3525 C   0  0  0  0  0  0  0  0  0  0  0  0
  -16.0191   15.4134  -26.3691 C   0  0  0  0  0  0  0  0  0  0  0  0
  -15.2129   15.3910  -27.9045 Cl  0  0  0  0  0  0  0  0  0  0  0  0
  -17.0446   14.5633  -26.1074 C   0  0  0  0  0  0  0  0  0  0  0  0
  -17.7243   14.5172  -24.9351 N   0  0  0  0  0  0  0  0  0  0  0  0
 21 22  1  0  0  0
 22  1  1  0  0  0
  1  2  2  0  0  0
  2  3  1  0  0  0
  3  4  2  0  0  0
  4  5  1  0  0  0
  5  6  2  0  0  0
  6 23  1  0  0  0
 23 25  1  0  0  0
 25 26  2  0  0  0
 26 27  1  0  0  0
 27 28  2  0  0  0
 28 29  1  0  0  0
 28 30  1  0  0  0
 30 31  2  0  0  0
  3  7  1  0  0  0
  7  8  2  0  0  0
  7  9  1  0  0  0
  9 11  1  0  0  0
 11 12  2  0  0  0
 12 13  1  0  0  0
 13 14  2  0  0  0
 14 15  1  0  0  0
 15 16  2  0  0  0
 15 17  1  0  0  0
 17 18  1  0  0  0
 17 19  1  0  0  0
 17 20  1  0  0  0
  6  1  1  0  0  0
 31 25  1  0  0  0
 16 11  1  0  0  0
 23 24  1  0  0  0
  9 10  1  0  0  0
M  END
> <minimizedAffinity>
-7.86191

> <CNNscore>
0.2590381801

> <CNNaffinity>
6.3819589615

> <CNN_VS>
1.6531710625

> <CNNaffinity_variance>
0.2999928594

$$$$
[H]c1nc(N([H])c2c([H])c([H])c(C(=O)N([H])c3c([H])c([H])c([H])c(C(F)(F)F)c3[H])c([H])c2OC([H])([H])[H])nc([H])c1Cl


 31 33  0  0  0  0  0  0  0  0999 V2000
  -17.7071   10.8804  -18.8238 C   0  0  0  0  0  0  0  0  0  0  0  0
  -17.9040   12.2112  -19.1880 C   0  0  0  0  0  0  0  0  0  0  0  0
  -18.8181   13.0126  -18.6100 C   0  0  0  0  0  0  0  0  0  0  0  0
  -19.6010   12.5094  -17.5963 C   0  0  0  0  0  0  0  0  0  0  0  0
  -19.4541   11.1511  -17.1613 C   0  0  0  0  0  0  0  0  0  0  0  0
  -18.5185   10.3779  -17.7824 C   0  0  0  0  0  0  0  0  0  0  0  0
  -19.2177   14.3636  -19.1032 C   0  0  0  0  0  0  0  0  0  0  0  0
  -20.3077   14.8041  -18.6526 O   0  0  0  0  0  0  0  0  0  0  0  0
  -18.3861   15.0473  -19.9595 N   0  0  0  0  0  0  0  0  0  0  0  0
  -17.5521   14.4848  -20.3938 H   0  0  0  0  0  0  0  0  0  0  0  0
  -18.4614   16.3745  -20.4222 C   0  0  0  0  0  0  0  0  0  0  0  0
  -17.5893   17.3683  -20.0707 C   0  0  0  0  0  0  0  0  0  0  0  0
  -17.5372   18.6115  -20.6475 C   0  0  0  0  0  0  0  0  0  0  0  0
  -18.4229   18.9159  -21.6625 C   0  0  0  0  0  0  0  0  0  0  0  0
  -19.3157   17.9542  -22.0447 C   0  0  0  0  0  0  0  0  0  0  0  0
  -19.3498   16.7035  -21.4476 C   0  0  0  0  0  0  0  0  0  0  0  0
  -20.2463   18.2428  -23.1677 C   0  0  0  0  0  0  0  0  0  0  0  0
  -20.2015   17.2063  -24.0560 F   0  0  0  0  0  0  0  0  0  0  0  0
  -19.8474   19.4080  -23.8090 F   0  0  0  0  0  0  0  0  0  0  0  0
  -21.5167   18.3665  -22.6940 F   0  0  0  0  0  0  0  0  0  0  0  0
  -16.0815   10.0210  -20.5191 C   0  0  0  0  0  0  0  0  0  0  0  0
  -16.8276   10.0236  -19.3635 O   0  0  0  0  0  0  0  0  0  0  0  0
  -18.4008    9.0024  -17.3563 N   0  0  0  0  0  0  0  0  0  0  0  0
  -17.8896    8.3596  -17.9925 H   0  0  0  0  0  0  0  0  0  0  0  0
  -18.9818    8.5087  -16.1770 C   0  0  0  0  0  0  0  0  0  0  0  0
  -19.9954    7.6063  -16.2044 N   0  0  0  0  0  0  0  0  0  0  0  0
  -20.6852    7.1303  -15.1862 C   0  0  0  0  0  0  0  0  0  0  0  0
  -20.3683    7.5866  -13.9192 C   0  0  0  0  0  0  0  0  0  0  0  0
  -21.2018    7.0505  -12.4959 Cl  0  0  0  0  0  0  0  0  0  0  0  0
  -19.3576    8.4892  -13.8372 C   0  0  0  0  0  0  0  0  0  0  0  0
  -18.6571    8.9570  -14.8997 N   0  0  0  0  0  0  0  0  0  0  0  0
 21 22  1  0  0  0
 22  1  1  0  0  0
  1  2  2  0  0  0
  2  3  1  0  0  0
  3  4  2  0  0  0
  4  5  1  0  0  0
  5  6  2  0  0  0
  6 23  1  0  0  0
 23 25  1  0  0  0
 25 26  2  0  0  0
 26 27  1  0  0  0
 27 28  2  0  0  0
 28 29  1  0  0  0
 28 30  1  0  0  0
 30 31  2  0  0  0
  3  7  1  0  0  0
  7  8  2  0  0  0
  7  9  1  0  0  0
  9 11  1  0  0  0
 11 12  2  0  0  0
 12 13  1  0  0  0
 13 14  2  0  0  0
 14 15  1  0  0  0
 15 16  2  0  0  0
 15 17  1  0  0  0
 17 18  1  0  0  0
 17 19  1  0  0  0
 17 20  1  0  0  0
  6  1  1  0  0  0
 31 25  1  0  0  0
 16 11  1  0  0  0
 23 24  1  0  0  0
  9 10  1  0  0  0
M  END
> <minimizedAffinity>
-7.26346

> <CNNscore>
0.2307393402

> <CNNaffinity>
6.0584154129

> <CNN_VS>
1.3979147673

> <CNNaffinity_variance>
0.0338387452

$$$$
[H]c1nc(N([H])c2c([H])c([H])c(C(=O)N([H])c3c([H])c([H])c([H])c(C(F)(F)F)c3[H])c([H])c2OC([H])([H])[H])nc([H])c1Cl


 31 33  0  0  0  0  0  0  0  0999 V2000
  -17.1429   13.2983  -22.4763 C   0  0  0  0  0  0  0  0  0  0  0  0
  -17.1798   12.3078  -21.4965 C   0  0  0  0  0  0  0  0  0  0  0  0
  -17.9698   12.3677  -20.4084 C   0  0  0  0  0  0  0  0  0  0  0  0
  -18.7992   13.4536  -20.2447 C   0  0  0  0  0  0  0  0  0  0  0  0
  -18.8223   14.5113  -21.2124 C   0  0  0  0  0  0  0  0  0  0  0  0
  -17.9992   14.4070  -22.2943 C   0  0  0  0  0  0  0  0  0  0  0  0
  -17.8902   11.4528  -19.2316 C   0  0  0  0  0  0  0  0  0  0  0  0
  -16.7265   11.1475  -18.8605 O   0  0  0  0  0  0  0  0  0  0  0  0
  -19.0475   11.0398  -18.6130 N   0  0  0  0  0  0  0  0  0  0  0  0
  -19.9888   11.2501  -19.1329 H   0  0  0  0  0  0  0  0  0  0  0  0
  -19.2236   10.3268  -17.4122 C   0  0  0  0  0  0  0  0  0  0  0  0
  -18.6984    9.0887  -17.1620 C   0  0  0  0  0  0  0  0  0  0  0  0
  -18.7053    8.4615  -15.9423 C   0  0  0  0  0  0  0  0  0  0  0  0
  -19.2831    9.1019  -14.8639 C   0  0  0  0  0  0  0  0  0  0  0  0
  -19.8245   10.3402  -15.0678 C   0  0  0  0  0  0  0  0  0  0  0  0
  -19.8053   10.9557  -16.3099 C   0  0  0  0  0  0  0  0  0  0  0  0
  -20.4087   11.0688  -13.9109 C   0  0  0  0  0  0  0  0  0  0  0  0
  -21.0424   12.1888  -14.3686 F   0  0  0  0  0  0  0  0  0  0  0  0
  -19.3927   11.4450  -13.0424 F   0  0  0  0  0  0  0  0  0  0  0  0
  -21.3141   10.2752  -13.2753 F   0  0  0  0  0  0  0  0  0  0  0  0
  -15.0549   13.6185  -23.8152 C   0  0  0  0  0  0  0  0  0  0  0  0
  -16.3738   13.3104  -23.5750 O   0  0  0  0  0  0  0  0  0  0  0  0
  -18.0090   15.4934  -23.2467 N   0  0  0  0  0  0  0  0  0  0  0  0
  -17.7902   15.2505  -24.2328 H   0  0  0  0  0  0  0  0  0  0  0  0
  -18.2424   16.8307  -22.8876 C   0  0  0  0  0  0  0  0  0  0  0  0
  -17.3990   17.5068  -22.0667 N   0  0  0  0  0  0  0  0  0  0  0  0
  -17.5418   18.7251  -21.5823 C   0  0  0  0  0  0  0  0  0  0  0  0
  -18.6808   19.4301  -21.9279 C   0  0  0  0  0  0  0  0  0  0  0  0
  -18.9976   21.0359  -21.3539 Cl  0  0  0  0  0  0  0  0  0  0  0  0
  -19.5560   18.7985  -22.7512 C   0  0  0  0  0  0  0  0  0  0  0  0
  -19.3818   17.5471  -23.2433 N   0  0  0  0  0  0  0  0  0  0  0  0
 21 22  1  0  0  0
 22  1  1  0  0  0
  1  2  2  0  0  0
  2  3  1  0  0  0
  3  4  2  0  0  0
  4  5  1  0  0  0
  5  6  2  0  0  0
  6 23  1  0  0  0
 23 25  1  0  0  0
 25 26  2  0  0  0
 26 27  1  0  0  0
 27 28  2  0  0  0
 28 29  1  0  0  0
 28 30  1  0  0  0
 30 31  2  0  0  0
  3  7  1  0  0  0
  7  8  2  0  0  0
  7  9  1  0  0  0
  9 11  1  0  0  0
 11 12  2  0  0  0
 12 13  1  0  0  0
 13 14  2  0  0  0
 14 15  1  0  0  0
 15 16  2  0  0  0
 15 17  1  0  0  0
 17 18  1  0  0  0
 17 19  1  0  0  0
 17 20  1  0  0  0
  6  1  1  0  0  0
 31 25  1  0  0  0
 16 11  1  0  0  0
 23 24  1  0  0  0
  9 10  1  0  0  0
M  END
> <minimizedAffinity>
-7.39879

> <CNNscore>
0.2208108157

> <CNNaffinity>
6.1895570755

> <CNN_VS>
1.3667211533

> <CNNaffinity_variance>
0.3044677973

$$$$
[H]c1nc(N([H])c2c([H])c([H])c(C(=O)N([H])c3c([H])c([H])c([H])c(C(F)(F)F)c3[H])c([H])c2OC([H])([H])[H])nc([H])c1Cl


 31 33  0  0  0  0  0  0  0  0999 V2000
  -17.4735   12.0605  -21.1798 C   0  0  0  0  0  0  0  0  0  0  0  0
  -18.5384   12.2925  -20.3111 C   0  0  0  0  0  0  0  0  0  0  0  0
  -19.2658   13.4251  -20.3128 C   0  0  0  0  0  0  0  0  0  0  0  0
  -18.9614   14.4125  -21.2218 C   0  0  0  0  0  0  0  0  0  0  0  0
  -17.8832   14.2458  -22.1522 C   0  0  0  0  0  0  0  0  0  0  0  0
  -17.1725   13.0832  -22.1066 C   0  0  0  0  0  0  0  0  0  0  0  0
  -20.2636   13.8126  -19.2725 C   0  0  0  0  0  0  0  0  0  0  0  0
  -21.4118   14.0983  -19.7030 O   0  0  0  0  0  0  0  0  0  0  0  0
  -19.9015   13.7984  -17.9454 N   0  0  0  0  0  0  0  0  0  0  0  0
  -18.8341   13.6861  -17.7248 H   0  0  0  0  0  0  0  0  0  0  0  0
  -20.6929   13.9592  -16.7925 C   0  0  0  0  0  0  0  0  0  0  0  0
  -21.4070   15.0872  -16.4939 C   0  0  0  0  0  0  0  0  0  0  0  0
  -22.3210   15.1952  -15.4771 C   0  0  0  0  0  0  0  0  0  0  0  0
  -22.5589   14.0986  -14.6720 C   0  0  0  0  0  0  0  0  0  0  0  0
  -21.8649   12.9500  -14.9309 C   0  0  0  0  0  0  0  0  0  0  0  0
  -20.9459   12.8634  -15.9653 C   0  0  0  0  0  0  0  0  0  0  0  0
  -22.1400   11.7428  -14.1078 C   0  0  0  0  0  0  0  0  0  0  0  0
  -21.4029   10.7002  -14.5927 F   0  0  0  0  0  0  0  0  0  0  0  0
  -23.4888   11.4239  -14.1938 F   0  0  0  0  0  0  0  0  0  0  0  0
  -21.7832   11.9749  -12.8146 F   0  0  0  0  0  0  0  0  0  0  0  0
  -16.2203   10.0945  -20.2744 C   0  0  0  0  0  0  0  0  0  0  0  0
  -16.7000   10.9657  -21.2247 O   0  0  0  0  0  0  0  0  0  0  0  0
  -16.0693   12.9395  -23.0283 N   0  0  0  0  0  0  0  0  0  0  0  0
  -15.2364   12.4245  -22.6816 H   0  0  0  0  0  0  0  0  0  0  0  0
  -16.0627   13.5008  -24.3155 C   0  0  0  0  0  0  0  0  0  0  0  0
  -15.3280   14.6037  -24.6093 N   0  0  0  0  0  0  0  0  0  0  0  0
  -15.2979   15.2805  -25.7408 C   0  0  0  0  0  0  0  0  0  0  0  0
  -16.1041   14.8453  -26.7774 C   0  0  0  0  0  0  0  0  0  0  0  0
  -16.1678   15.6478  -28.3136 Cl  0  0  0  0  0  0  0  0  0  0  0  0
  -16.8573   13.7421  -26.5351 C   0  0  0  0  0  0  0  0  0  0  0  0
  -16.8639   13.0582  -25.3644 N   0  0  0  0  0  0  0  0  0  0  0  0
 21 22  1  0  0  0
 22  1  1  0  0  0
  1  2  2  0  0  0
  2  3  1  0  0  0
  3  4  2  0  0  0
  4  5  1  0  0  0
  5  6  2  0  0  0
  6 23  1  0  0  0
 23 25  1  0  0  0
 25 26  2  0  0  0
 26 27  1  0  0  0
 27 28  2  0  0  0
 28 29  1  0  0  0
 28 30  1  0  0  0
 30 31  2  0  0  0
  3  7  1  0  0  0
  7  8  2  0  0  0
  7  9  1  0  0  0
  9 11  1  0  0  0
 11 12  2  0  0  0
 12 13  1  0  0  0
 13 14  2  0  0  0
 14 15  1  0  0  0
 15 16  2  0  0  0
 15 17  1  0  0  0
 17 18  1  0  0  0
 17 19  1  0  0  0
 17 20  1  0  0  0
  6  1  1  0  0  0
 31 25  1  0  0  0
 16 11  1  0  0  0
 23 24  1  0  0  0
  9 10  1  0  0  0
M  END
> <minimizedAffinity>
-7.93259

> <CNNscore>
0.2201573253

> <CNNaffinity>
6.0987014771

> <CNN_VS>
1.3426737785

> <CNNaffinity_variance>
0.1750164181

$$$$
[H]c1nc(N([H])c2c([H])c([H])c(C(=O)N([H])c3c([H])c([H])c([H])c(C(F)(F)F)c3[H])c([H])c2OC([H])([H])[H])nc([H])c1Cl


 31 33  0  0  0  0  0  0  0  0999 V2000
  -17.9542   12.3817  -21.0534 C   0  0  0  0  0  0  0  0  0  0  0  0
  -18.9636   12.8630  -20.2216 C   0  0  0  0  0  0  0  0  0  0  0  0
  -19.5300   14.0755  -20.3653 C   0  0  0  0  0  0  0  0  0  0  0  0
  -19.1087   14.8919  -21.3899 C   0  0  0  0  0  0  0  0  0  0  0  0
  -18.0781   14.4654  -22.2910 C   0  0  0  0  0  0  0  0  0  0  0  0
  -17.5316   13.2311  -22.1000 C   0  0  0  0  0  0  0  0  0  0  0  0
  -20.4492   14.7217  -19.3825 C   0  0  0  0  0  0  0  0  0  0  0  0
  -21.6613   14.7629  -19.7205 O   0  0  0  0  0  0  0  0  0  0  0  0
  -19.9491   15.1838  -18.1872 N   0  0  0  0  0  0  0  0  0  0  0  0
  -18.8585   15.2284  -18.0911 H   0  0  0  0  0  0  0  0  0  0  0  0
  -20.6268   15.6699  -17.0533 C   0  0  0  0  0  0  0  0  0  0  0  0
  -21.6424   15.0112  -16.4161 C   0  0  0  0  0  0  0  0  0  0  0  0
  -22.1876   15.3793  -15.2126 C   0  0  0  0  0  0  0  0  0  0  0  0
  -21.6973   16.4994  -14.5705 C   0  0  0  0  0  0  0  0  0  0  0  0
  -20.6841   17.1918  -15.1723 C   0  0  0  0  0  0  0  0  0  0  0  0
  -20.1476   16.8006  -16.3893 C   0  0  0  0  0  0  0  0  0  0  0  0
  -20.1080   18.3726  -14.4764 C   0  0  0  0  0  0  0  0  0  0  0  0
  -18.8188   18.5454  -14.8931 F   0  0  0  0  0  0  0  0  0  0  0  0
  -20.1160   18.1492  -13.1059 F   0  0  0  0  0  0  0  0  0  0  0  0
  -20.8272   19.4865  -14.7853 F   0  0  0  0  0  0  0  0  0  0  0  0
  -16.6377   10.5557  -19.9634 C   0  0  0  0  0  0  0  0  0  0  0  0
  -17.3377   11.1942  -20.9607 O   0  0  0  0  0  0  0  0  0  0  0  0
  -16.4730   12.8248  -22.9955 N   0  0  0  0  0  0  0  0  0  0  0  0
  -15.8108   12.1081  -22.6392 H   0  0  0  0  0  0  0  0  0  0  0  0
  -16.2824   13.3868  -24.2682 C   0  0  0  0  0  0  0  0  0  0  0  0
  -15.4185   14.4135  -24.4728 N   0  0  0  0  0  0  0  0  0  0  0  0
  -15.2091   15.0876  -25.5868 C   0  0  0  0  0  0  0  0  0  0  0  0
  -15.9451   14.7365  -26.7043 C   0  0  0  0  0  0  0  0  0  0  0  0
  -15.7756   15.5461  -28.2287 Cl  0  0  0  0  0  0  0  0  0  0  0  0
  -16.8221   13.7114  -26.5528 C   0  0  0  0  0  0  0  0  0  0  0  0
  -17.0129   13.0278  -25.3975 N   0  0  0  0  0  0  0  0  0  0  0  0
 21 22  1  0  0  0
 22  1  1  0  0  0
  1  2  2  0  0  0
  2  3  1  0  0  0
  3  4  2  0  0  0
  4  5  1  0  0  0
  5  6  2  0  0  0
  6 23  1  0  0  0
 23 25  1  0  0  0
 25 26  2  0  0  0
 26 27  1  0  0  0
 27 28  2  0  0  0
 28 29  1  0  0  0
 28 30  1  0  0  0
 30 31  2  0  0  0
  3  7  1  0  0  0
  7  8  2  0  0  0
  7  9  1  0  0  0
  9 11  1  0  0  0
 11 12  2  0  0  0
 12 13  1  0  0  0
 13 14  2  0  0  0
 14 15  1  0  0  0
 15 16  2  0  0  0
 15 17  1  0  0  0
 17 18  1  0  0  0
 17 19  1  0  0  0
 17 20  1  0  0  0
  6  1  1  0  0  0
 31 25  1  0  0  0
 16 11  1  0  0  0
 23 24  1  0  0  0
  9 10  1  0  0  0
M  END
> <minimizedAffinity>
-7.75369

> <CNNscore>
0.2101200223

> <CNNaffinity>
6.2101230621

> <CNN_VS>
1.3048712015

> <CNNaffinity_variance>
0.1807603538

$$$$
[H]c1nc(N([H])c2c([H])c([H])c(C(=O)N([H])c3c([H])c([H])c([H])c(C(F)(F)F)c3[H])c([H])c2OC([H])([H])[H])nc([H])c1Cl


 31 33  0  0  0  0  0  0  0  0999 V2000
  -18.2547   11.1579  -18.2759 C   0  0  0  0  0  0  0  0  0  0  0  0
  -18.5725   12.4910  -18.5293 C   0  0  0  0  0  0  0  0  0  0  0  0
  -19.6399   13.1148  -17.9969 C   0  0  0  0  0  0  0  0  0  0  0  0
  -20.4659   12.4160  -17.1466 C   0  0  0  0  0  0  0  0  0  0  0  0
  -20.2021   11.0420  -16.8326 C   0  0  0  0  0  0  0  0  0  0  0  0
  -19.1121   10.4533  -17.4018 C   0  0  0  0  0  0  0  0  0  0  0  0
  -20.1450   14.4599  -18.4015 C   0  0  0  0  0  0  0  0  0  0  0  0
  -20.3380   15.2720  -17.4589 O   0  0  0  0  0  0  0  0  0  0  0  0
  -20.3274   14.7440  -19.7351 N   0  0  0  0  0  0  0  0  0  0  0  0
  -20.2743   13.9006  -20.4325 H   0  0  0  0  0  0  0  0  0  0  0  0
  -20.6292   15.9665  -20.3640 C   0  0  0  0  0  0  0  0  0  0  0  0
  -19.7060   16.7768  -20.9662 C   0  0  0  0  0  0  0  0  0  0  0  0
  -20.0021   17.8720  -21.7369 C   0  0  0  0  0  0  0  0  0  0  0  0
  -21.3257   18.2115  -21.9367 C   0  0  0  0  0  0  0  0  0  0  0  0
  -22.2834   17.4320  -21.3508 C   0  0  0  0  0  0  0  0  0  0  0  0
  -21.9607   16.3286  -20.5760 C   0  0  0  0  0  0  0  0  0  0  0  0
  -23.7157   17.7500  -21.5917 C   0  0  0  0  0  0  0  0  0  0  0  0
  -24.2561   16.7792  -22.3861 F   0  0  0  0  0  0  0  0  0  0  0  0
  -23.8132   18.9739  -22.2405 F   0  0  0  0  0  0  0  0  0  0  0  0
  -24.3873   17.7794  -20.4079 F   0  0  0  0  0  0  0  0  0  0  0  0
  -16.8531   10.0887  -20.0500 C   0  0  0  0  0  0  0  0  0  0  0  0
  -17.2190   10.4712  -18.7804 O   0  0  0  0  0  0  0  0  0  0  0  0
  -18.8740    9.0602  -17.1021 N   0  0  0  0  0  0  0  0  0  0  0  0
  -18.5027    8.4741  -17.8752 H   0  0  0  0  0  0  0  0  0  0  0  0
  -19.1691    8.4783  -15.8586 C   0  0  0  0  0  0  0  0  0  0  0  0
  -19.9467    7.3705  -15.7556 N   0  0  0  0  0  0  0  0  0  0  0  0
  -20.3718    6.7773  -14.6572 C   0  0  0  0  0  0  0  0  0  0  0  0
  -20.0040    7.3251  -13.4413 C   0  0  0  0  0  0  0  0  0  0  0  0
  -20.5014    6.6512  -11.9225 Cl  0  0  0  0  0  0  0  0  0  0  0  0
  -19.2221    8.4338  -13.4897 C   0  0  0  0  0  0  0  0  0  0  0  0
  -18.7906    9.0203  -14.6335 N   0  0  0  0  0  0  0  0  0  0  0  0
 21 22  1  0  0  0
 22  1  1  0  0  0
  1  2  2  0  0  0
  2  3  1  0  0  0
  3  4  2  0  0  0
  4  5  1  0  0  0
  5  6  2  0  0  0
  6 23  1  0  0  0
 23 25  1  0  0  0
 25 26  2  0  0  0
 26 27  1  0  0  0
 27 28  2  0  0  0
 28 29  1  0  0  0
 28 30  1  0  0  0
 30 31  2  0  0  0
  3  7  1  0  0  0
  7  8  2  0  0  0
  7  9  1  0  0  0
  9 11  1  0  0  0
 11 12  2  0  0  0
 12 13  1  0  0  0
 13 14  2  0  0  0
 14 15  1  0  0  0
 15 16  2  0  0  0
 15 17  1  0  0  0
 17 18  1  0  0  0
 17 19  1  0  0  0
 17 20  1  0  0  0
  6  1  1  0  0  0
 31 25  1  0  0  0
 16 11  1  0  0  0
 23 24  1  0  0  0
  9 10  1  0  0  0
M  END
> <minimizedAffinity>
-7.13734

> <CNNscore>
0.2100155950

> <CNNaffinity>
5.7124314308

> <CNN_VS>
1.1996996403

> <CNNaffinity_variance>
0.1385627687

$$$$
[H]c1c([H])c(N2C([H])([H])C([H])([H])N(C(=O)N3C([H])([H])C([H])([H])N(c4c([H])c([H])c(C(F)(F)F)c([H])c4[H])C([H])([H])C3([H])[H])C([H])([H])C2([H])[H])c([H])c([H])c1C(=O)N1C([H])([H])C([H])([H])OC([H])([H])C1([H])[H]


 38 42  0  0  0  0  0  0  0  0999 V2000
  -22.8604   18.2048  -17.0480 N   0  0  0  0  0  0  0  0  0  0  0  0
  -23.9900   18.7876  -16.3278 C   0  0  0  0  0  0  0  0  0  0  0  0
  -23.9821   18.3685  -14.8984 C   0  0  0  0  0  0  0  0  0  0  0  0
  -23.3892   16.9907  -14.8555 N   0  0  0  0  0  0  0  0  0  0  0  0
  -21.9761   16.9229  -15.1458 C   0  0  0  0  0  0  0  0  0  0  0  0
  -21.6758   17.8473  -16.3468 C   0  0  0  0  0  0  0  0  0  0  0  0
  -24.2052   15.9115  -14.6507 C   0  0  0  0  0  0  0  0  0  0  0  0
  -25.4914   16.1657  -14.7070 O   0  0  0  0  0  0  0  0  0  0  0  0
  -23.8918   14.5774  -14.3883 N   0  0  0  0  0  0  0  0  0  0  0  0
  -22.6159   14.0019  -14.0538 C   0  0  0  0  0  0  0  0  0  0  0  0
  -22.6559   12.8722  -13.0652 C   0  0  0  0  0  0  0  0  0  0  0  0
  -23.9510   12.3040  -12.8142 N   0  0  0  0  0  0  0  0  0  0  0  0
  -25.1804   12.9481  -13.1869 C   0  0  0  0  0  0  0  0  0  0  0  0
  -24.9725   13.5446  -14.5452 C   0  0  0  0  0  0  0  0  0  0  0  0
  -23.4350   17.8027  -21.1801 C   0  0  0  0  0  0  0  0  0  0  0  0
  -24.1728   18.7230  -20.4388 C   0  0  0  0  0  0  0  0  0  0  0  0
  -23.9709   18.8476  -19.1099 C   0  0  0  0  0  0  0  0  0  0  0  0
  -23.0274   18.0626  -18.4507 C   0  0  0  0  0  0  0  0  0  0  0  0
  -22.2996   17.1600  -19.1498 C   0  0  0  0  0  0  0  0  0  0  0  0
  -22.5041   17.0296  -20.5234 C   0  0  0  0  0  0  0  0  0  0  0  0
  -24.1601   18.7774  -23.1837 F   0  0  0  0  0  0  0  0  0  0  0  0
  -23.6230   17.6331  -22.6432 C   0  0  0  0  0  0  0  0  0  0  0  0
  -22.3972   17.4484  -23.2568 F   0  0  0  0  0  0  0  0  0  0  0  0
  -24.4419   16.5715  -22.9707 F   0  0  0  0  0  0  0  0  0  0  0  0
  -24.0187   11.0200  -12.1482 C   0  0  0  0  0  0  0  0  0  0  0  0
  -23.1625   10.7860  -11.0874 C   0  0  0  0  0  0  0  0  0  0  0  0
  -23.1619    9.5825  -10.4396 C   0  0  0  0  0  0  0  0  0  0  0  0
  -24.0208    8.5268  -10.8138 C   0  0  0  0  0  0  0  0  0  0  0  0
  -24.8415    8.8258  -11.8709 C   0  0  0  0  0  0  0  0  0  0  0  0
  -24.8746   10.0348  -12.5537 C   0  0  0  0  0  0  0  0  0  0  0  0
  -23.9711    7.2699  -10.0988 C   0  0  0  0  0  0  0  0  0  0  0  0
  -24.2379    7.4257   -8.8035 O   0  0  0  0  0  0  0  0  0  0  0  0
  -23.7033    5.9981  -10.5329 N   0  0  0  0  0  0  0  0  0  0  0  0
  -23.4052    5.3936  -11.7688 C   0  0  0  0  0  0  0  0  0  0  0  0
  -21.8977    5.0375  -11.6909 C   0  0  0  0  0  0  0  0  0  0  0  0
  -21.7181    4.2043  -10.6153 O   0  0  0  0  0  0  0  0  0  0  0  0
  -22.8373    3.8579   -9.9005 C   0  0  0  0  0  0  0  0  0  0  0  0
  -23.6945    4.9712   -9.4137 C   0  0  0  0  0  0  0  0  0  0  0  0
 21 22  1  0  0  0
 22 23  1  0  0  0
 22 24  1  0  0  0
 22 15  1  0  0  0
 15 16  2  0  0  0
 16 17  1  0  0  0
 17 18  2  0  0  0
 18 19  1  0  0  0
 19 20  2  0  0  0
 18  1  1  0  0  0
  1  2  1  0  0  0
  2  3  1  0  0  0
  3  4  1  0  0  0
  4  5  1  0  0  0
  5  6  1  0  0  0
  4  7  1  0  0  0
  7  8  2  0  0  0
  7  9  1  0  0  0
  9 10  1  0  0  0
 10 11  1  0  0  0
 11 12  1  0  0  0
 12 13  1  0  0  0
 13 14  1  0  0  0
 12 25  1  0  0  0
 25 26  2  0  0  0
 26 27  1  0  0  0
 27 28  2  0  0  0
 28 29  1  0  0  0
 29 30  2  0  0  0
 28 31  1  0  0  0
 31 32  2  0  0  0
 31 33  1  0  0  0
 33 34  1  0  0  0
 34 35  1  0  0  0
 35 36  1  0  0  0
 36 37  1  0  0  0
 37 38  1  0  0  0
 20 15  1  0  0  0
  6  1  1  0  0  0
 14  9  1  0  0  0
 30 25  1  0  0  0
 38 33  1  0  0  0
M  END
> <minimizedAffinity>
-3.94301

> <CNNscore>
0.5615867376

> <CNNaffinity>
5.3389139175

> <CNN_VS>
2.9982633591

> <CNNaffinity_variance>
0.0703173801

$$$$
[H]c1c([H])c(N2C([H])([H])C([H])([H])N(C(=O)N3C([H])([H])C([H])([H])N(c4c([H])c([H])c(C(F)(F)F)c([H])c4[H])C([H])([H])C3([H])[H])C([H])([H])C2([H])[H])c([H])c([H])c1C(=O)N1C([H])([H])C([H])([H])OC([H])([H])C1([H])[H]


 38 42  0  0  0  0  0  0  0  0999 V2000
  -24.9199   18.1264  -12.4225 N   0  0  0  0  0  0  0  0  0  0  0  0
  -25.9094   17.5501  -13.3296 C   0  0  0  0  0  0  0  0  0  0  0  0
  -26.3887   16.2328  -12.8256 C   0  0  0  0  0  0  0  0  0  0  0  0
  -25.2389   15.6066  -12.0923 N   0  0  0  0  0  0  0  0  0  0  0  0
  -24.8898   16.2423  -10.8436 C   0  0  0  0  0  0  0  0  0  0  0  0
  -24.9251   17.7739  -11.0447 C   0  0  0  0  0  0  0  0  0  0  0  0
  -24.5520   14.5744  -12.6712 C   0  0  0  0  0  0  0  0  0  0  0  0
  -24.8423   14.3476  -13.9308 O   0  0  0  0  0  0  0  0  0  0  0  0
  -23.5889   13.7170  -12.1378 N   0  0  0  0  0  0  0  0  0  0  0  0
  -23.1980   13.5469  -10.7633 C   0  0  0  0  0  0  0  0  0  0  0  0
  -22.8502   12.1430  -10.3594 C   0  0  0  0  0  0  0  0  0  0  0  0
  -22.6487   11.2126  -11.4351 N   0  0  0  0  0  0  0  0  0  0  0  0
  -23.0694   11.4656  -12.7858 C   0  0  0  0  0  0  0  0  0  0  0  0
  -22.7558   12.8996  -13.0849 C   0  0  0  0  0  0  0  0  0  0  0  0
  -22.3035   20.8823  -14.1905 C   0  0  0  0  0  0  0  0  0  0  0  0
  -23.6734   21.1286  -14.1319 C   0  0  0  0  0  0  0  0  0  0  0  0
  -24.5031   20.2357  -13.5516 C   0  0  0  0  0  0  0  0  0  0  0  0
  -24.0135   19.0526  -13.0025 C   0  0  0  0  0  0  0  0  0  0  0  0
  -22.6861   18.7906  -13.0492 C   0  0  0  0  0  0  0  0  0  0  0  0
  -21.8253   19.7116  -13.6462 C   0  0  0  0  0  0  0  0  0  0  0  0
  -20.9186   22.7474  -13.8846 F   0  0  0  0  0  0  0  0  0  0  0  0
  -21.3543   21.8367  -14.8176 C   0  0  0  0  0  0  0  0  0  0  0  0
  -20.2311   21.1612  -15.2595 F   0  0  0  0  0  0  0  0  0  0  0  0
  -21.8966   22.5290  -15.8813 F   0  0  0  0  0  0  0  0  0  0  0  0
  -21.9926    9.9559  -11.1404 C   0  0  0  0  0  0  0  0  0  0  0  0
  -21.2882    9.8465   -9.9550 C   0  0  0  0  0  0  0  0  0  0  0  0
  -20.6253    8.6942   -9.6376 C   0  0  0  0  0  0  0  0  0  0  0  0
  -20.6210    7.5697  -10.4907 C   0  0  0  0  0  0  0  0  0  0  0  0
  -21.3373    7.7462  -11.6466 C   0  0  0  0  0  0  0  0  0  0  0  0
  -22.0255    8.8982  -12.0051 C   0  0  0  0  0  0  0  0  0  0  0  0
  -19.8941    6.3785  -10.1086 C   0  0  0  0  0  0  0  0  0  0  0  0
  -20.6660    5.5172   -9.4488 O   0  0  0  0  0  0  0  0  0  0  0  0
  -18.5885    6.0169  -10.3142 N   0  0  0  0  0  0  0  0  0  0  0  0
  -17.4712    6.5846  -10.9554 C   0  0  0  0  0  0  0  0  0  0  0  0
  -16.5342    7.0395   -9.8062 C   0  0  0  0  0  0  0  0  0  0  0  0
  -16.2302    5.9352   -9.0502 O   0  0  0  0  0  0  0  0  0  0  0  0
  -16.7567    4.7353   -9.4584 C   0  0  0  0  0  0  0  0  0  0  0  0
  -18.2268    4.6864   -9.6768 C   0  0  0  0  0  0  0  0  0  0  0  0
 21 22  1  0  0  0
 22 23  1  0  0  0
 22 24  1  0  0  0
 22 15  1  0  0  0
 15 16  2  0  0  0
 16 17  1  0  0  0
 17 18  2  0  0  0
 18 19  1  0  0  0
 19 20  2  0  0  0
 18  1  1  0  0  0
  1  2  1  0  0  0
  2  3  1  0  0  0
  3  4  1  0  0  0
  4  5  1  0  0  0
  5  6  1  0  0  0
  4  7  1  0  0  0
  7  8  2  0  0  0
  7  9  1  0  0  0
  9 10  1  0  0  0
 10 11  1  0  0  0
 11 12  1  0  0  0
 12 13  1  0  0  0
 13 14  1  0  0  0
 12 25  1  0  0  0
 25 26  2  0  0  0
 26 27  1  0  0  0
 27 28  2  0  0  0
 28 29  1  0  0  0
 29 30  2  0  0  0
 28 31  1  0  0  0
 31 32  2  0  0  0
 31 33  1  0  0  0
 33 34  1  0  0  0
 34 35  1  0  0  0
 35 36  1  0  0  0
 36 37  1  0  0  0
 37 38  1  0  0  0
 20 15  1  0  0  0
  6  1  1  0  0  0
 14  9  1  0  0  0
 30 25  1  0  0  0
 38 33  1  0  0  0
M  END
> <minimizedAffinity>
-3.59055

> <CNNscore>
0.5025100112

> <CNNaffinity>
4.8548574448

> <CNN_VS>
2.4396145344

> <CNNaffinity_variance>
0.2390174866

$$$$
[H]c1c([H])c(N2C([H])([H])C([H])([H])N(C(=O)N3C([H])([H])C([H])([H])N(c4c([H])c([H])c(C(F)(F)F)c([H])c4[H])C([H])([H])C3([H])[H])C([H])([H])C2([H])[H])c([H])c([H])c1C(=O)N1C([H])([H])C([H])([H])OC([H])([H])C1([H])[H]


 38 42  0  0  0  0  0  0  0  0999 V2000
  -23.5006   17.8289  -13.7557 N   0  0  0  0  0  0  0  0  0  0  0  0
  -24.8537   17.4351  -14.1409 C   0  0  0  0  0  0  0  0  0  0  0  0
  -24.8693   16.8625  -15.5159 C   0  0  0  0  0  0  0  0  0  0  0  0
  -23.7874   17.5603  -16.2868 N   0  0  0  0  0  0  0  0  0  0  0  0
  -22.4397   17.2260  -15.8899 C   0  0  0  0  0  0  0  0  0  0  0  0
  -22.3764   17.1888  -14.3466 C   0  0  0  0  0  0  0  0  0  0  0  0
  -24.1245   18.5079  -17.2147 C   0  0  0  0  0  0  0  0  0  0  0  0
  -25.3854   18.8715  -17.2084 O   0  0  0  0  0  0  0  0  0  0  0  0
  -23.3428   19.1533  -18.1735 N   0  0  0  0  0  0  0  0  0  0  0  0
  -22.0001   18.8494  -18.5927 C   0  0  0  0  0  0  0  0  0  0  0  0
  -21.7171   19.0546  -20.0532 C   0  0  0  0  0  0  0  0  0  0  0  0
  -22.6988   19.8080  -20.7825 N   0  0  0  0  0  0  0  0  0  0  0  0
  -24.0217   20.0689  -20.2852 C   0  0  0  0  0  0  0  0  0  0  0  0
  -23.8905   20.3906  -18.8280 C   0  0  0  0  0  0  0  0  0  0  0  0
  -23.1850   20.7551  -10.7718 C   0  0  0  0  0  0  0  0  0  0  0  0
  -22.1551   19.8441  -10.9958 C   0  0  0  0  0  0  0  0  0  0  0  0
  -22.2671   18.9125  -11.9663 C   0  0  0  0  0  0  0  0  0  0  0  0
  -23.4088   18.8381  -12.7612 C   0  0  0  0  0  0  0  0  0  0  0  0
  -24.4236   19.7115  -12.5609 C   0  0  0  0  0  0  0  0  0  0  0  0
  -24.3108   20.6768  -11.5603 C   0  0  0  0  0  0  0  0  0  0  0  0
  -23.2845   23.0419  -10.2711 F   0  0  0  0  0  0  0  0  0  0  0  0
  -23.1039   21.7969   -9.7168 C   0  0  0  0  0  0  0  0  0  0  0  0
  -24.1283   21.6226   -8.8038 F   0  0  0  0  0  0  0  0  0  0  0  0
  -21.9037   21.7939   -9.0353 F   0  0  0  0  0  0  0  0  0  0  0  0
  -22.3366   20.3256  -22.0854 C   0  0  0  0  0  0  0  0  0  0  0  0
  -21.3318   19.6858  -22.7885 C   0  0  0  0  0  0  0  0  0  0  0  0
  -20.9284   20.1471  -24.0102 C   0  0  0  0  0  0  0  0  0  0  0  0
  -21.5048   21.2865  -24.6116 C   0  0  0  0  0  0  0  0  0  0  0  0
  -22.4928   21.8711  -23.8617 C   0  0  0  0  0  0  0  0  0  0  0  0
  -22.9329   21.4332  -22.6192 C   0  0  0  0  0  0  0  0  0  0  0  0
  -21.0320   21.7363  -25.9029 C   0  0  0  0  0  0  0  0  0  0  0  0
  -20.4411   22.9272  -25.8269 O   0  0  0  0  0  0  0  0  0  0  0  0
  -21.0963   21.1485  -27.1390 N   0  0  0  0  0  0  0  0  0  0  0  0
  -21.5887   19.9358  -27.6574 C   0  0  0  0  0  0  0  0  0  0  0  0
  -22.8707   20.3222  -28.4400 C   0  0  0  0  0  0  0  0  0  0  0  0
  -22.5150   21.2280  -29.4076 O   0  0  0  0  0  0  0  0  0  0  0  0
  -21.1855   21.5569  -29.4960 C   0  0  0  0  0  0  0  0  0  0  0  0
  -20.5225   22.0155  -28.2464 C   0  0  0  0  0  0  0  0  0  0  0  0
 21 22  1  0  0  0
 22 23  1  0  0  0
 22 24  1  0  0  0
 22 15  1  0  0  0
 15 16  2  0  0  0
 16 17  1  0  0  0
 17 18  2  0  0  0
 18 19  1  0  0  0
 19 20  2  0  0  0
 18  1  1  0  0  0
  1  2  1  0  0  0
  2  3  1  0  0  0
  3  4  1  0  0  0
  4  5  1  0  0  0
  5  6  1  0  0  0
  4  7  1  0  0  0
  7  8  2  0  0  0
  7  9  1  0  0  0
  9 10  1  0  0  0
 10 11  1  0  0  0
 11 12  1  0  0  0
 12 13  1  0  0  0
 13 14  1  0  0  0
 12 25  1  0  0  0
 25 26  2  0  0  0
 26 27  1  0  0  0
 27 28  2  0  0  0
 28 29  1  0  0  0
 29 30  2  0  0  0
 28 31  1  0  0  0
 31 32  2  0  0  0
 31 33  1  0  0  0
 33 34  1  0  0  0
 34 35  1  0  0  0
 35 36  1  0  0  0
 36 37  1  0  0  0
 37 38  1  0  0  0
 20 15  1  0  0  0
  6  1  1  0  0  0
 14  9  1  0  0  0
 30 25  1  0  0  0
 38 33  1  0  0  0
M  END
> <minimizedAffinity>
-0.89606

> <CNNscore>
0.4439247549

> <CNNaffinity>
5.1199264526

> <CNN_VS>
2.2728621960

> <CNNaffinity_variance>
0.4007982314

$$$$
[H]c1c([H])c(N2C([H])([H])C([H])([H])N(C(=O)N3C([H])([H])C([H])([H])N(c4c([H])c([H])c(C(F)(F)F)c([H])c4[H])C([H])([H])C3([H])[H])C([H])([H])C2([H])[H])c([H])c([H])c1C(=O)N1C([H])([H])C([H])([H])OC([H])([H])C1([H])[H]


 38 42  0  0  0  0  0  0  0  0999 V2000
  -19.6874   21.8109  -22.4809 N   0  0  0  0  0  0  0  0  0  0  0  0
  -20.1365   22.9542  -21.6901 C   0  0  0  0  0  0  0  0  0  0  0  0
  -20.1627   22.6191  -20.2389 C   0  0  0  0  0  0  0  0  0  0  0  0
  -20.4932   21.1587  -20.1387 N   0  0  0  0  0  0  0  0  0  0  0  0
  -19.4520   20.2632  -20.5854 C   0  0  0  0  0  0  0  0  0  0  0  0
  -18.8498   20.8228  -21.8937 C   0  0  0  0  0  0  0  0  0  0  0  0
  -21.7453   20.7766  -19.7406 C   0  0  0  0  0  0  0  0  0  0  0  0
  -22.6281   21.7450  -19.6687 O   0  0  0  0  0  0  0  0  0  0  0  0
  -22.2399   19.5185  -19.3947 N   0  0  0  0  0  0  0  0  0  0  0  0
  -21.5124   18.2991  -19.1604 C   0  0  0  0  0  0  0  0  0  0  0  0
  -22.0597   17.4188  -18.0738 C   0  0  0  0  0  0  0  0  0  0  0  0
  -23.3863   17.7324  -17.6210 N   0  0  0  0  0  0  0  0  0  0  0  0
  -24.0421   18.9793  -17.9047 C   0  0  0  0  0  0  0  0  0  0  0  0
  -23.7294   19.3292  -19.3274 C   0  0  0  0  0  0  0  0  0  0  0  0
  -20.9133   21.8243  -26.4888 C   0  0  0  0  0  0  0  0  0  0  0  0
  -19.7522   22.4833  -26.0910 C   0  0  0  0  0  0  0  0  0  0  0  0
  -19.3650   22.4632  -24.7979 C   0  0  0  0  0  0  0  0  0  0  0  0
  -20.1132   21.7891  -23.8352 C   0  0  0  0  0  0  0  0  0  0  0  0
  -21.2463   21.1430  -24.1977 C   0  0  0  0  0  0  0  0  0  0  0  0
  -21.6487   21.1598  -25.5331 C   0  0  0  0  0  0  0  0  0  0  0  0
  -21.9037   23.0457  -28.2258 F   0  0  0  0  0  0  0  0  0  0  0  0
  -21.3759   21.8189  -27.8998 C   0  0  0  0  0  0  0  0  0  0  0  0
  -20.3009   21.6178  -28.7466 F   0  0  0  0  0  0  0  0  0  0  0  0
  -22.3265   20.8530  -28.1608 F   0  0  0  0  0  0  0  0  0  0  0  0
  -24.0943   16.7431  -16.8358 C   0  0  0  0  0  0  0  0  0  0  0  0
  -25.4766   16.7347  -16.8844 C   0  0  0  0  0  0  0  0  0  0  0  0
  -26.1985   15.8424  -16.1422 C   0  0  0  0  0  0  0  0  0  0  0  0
  -25.5820   14.8960  -15.2957 C   0  0  0  0  0  0  0  0  0  0  0  0
  -24.2122   14.9596  -15.2952 C   0  0  0  0  0  0  0  0  0  0  0  0
  -23.4424   15.8479  -16.0350 C   0  0  0  0  0  0  0  0  0  0  0  0
  -26.3958   13.9811  -14.5249 C   0  0  0  0  0  0  0  0  0  0  0  0
  -27.4146   13.5035  -15.2371 O   0  0  0  0  0  0  0  0  0  0  0  0
  -26.2825   13.5493  -13.2294 N   0  0  0  0  0  0  0  0  0  0  0  0
  -25.3856   13.7663  -12.1663 C   0  0  0  0  0  0  0  0  0  0  0  0
  -26.1569   14.6645  -11.1644 C   0  0  0  0  0  0  0  0  0  0  0  0
  -27.2965   13.9963  -10.7927 O   0  0  0  0  0  0  0  0  0  0  0  0
  -27.4877   12.7454  -11.3239 C   0  0  0  0  0  0  0  0  0  0  0  0
  -27.4104   12.6251  -12.8040 C   0  0  0  0  0  0  0  0  0  0  0  0
 21 22  1  0  0  0
 22 23  1  0  0  0
 22 24  1  0  0  0
 22 15  1  0  0  0
 15 16  2  0  0  0
 16 17  1  0  0  0
 17 18  2  0  0  0
 18 19  1  0  0  0
 19 20  2  0  0  0
 18  1  1  0  0  0
  1  2  1  0  0  0
  2  3  1  0  0  0
  3  4  1  0  0  0
  4  5  1  0  0  0
  5  6  1  0  0  0
  4  7  1  0  0  0
  7  8  2  0  0  0
  7  9  1  0  0  0
  9 10  1  0  0  0
 10 11  1  0  0  0
 11 12  1  0  0  0
 12 13  1  0  0  0
 13 14  1  0  0  0
 12 25  1  0  0  0
 25 26  2  0  0  0
 26 27  1  0  0  0
 27 28  2  0  0  0
 28 29  1  0  0  0
 29 30  2  0  0  0
 28 31  1  0  0  0
 31 32  2  0  0  0
 31 33  1  0  0  0
 33 34  1  0  0  0
 34 35  1  0  0  0
 35 36  1  0  0  0
 36 37  1  0  0  0
 37 38  1  0  0  0
 20 15  1  0  0  0
  6  1  1  0  0  0
 14  9  1  0  0  0
 30 25  1  0  0  0
 38 33  1  0  0  0
M  END
> <minimizedAffinity>
-5.51652

> <CNNscore>
0.4402900934

> <CNNaffinity>
5.4403920174

> <CNN_VS>
2.3953506947

> <CNNaffinity_variance>
0.5624996424

$$$$
[H]c1c([H])c(N2C([H])([H])C([H])([H])N(C(=O)N3C([H])([H])C([H])([H])N(c4c([H])c([H])c(C(F)(F)F)c([H])c4[H])C([H])([H])C3([H])[H])C([H])([H])C2([H])[H])c([H])c([H])c1C(=O)N1C([H])([H])C([H])([H])OC([H])([H])C1([H])[H]


 38 42  0  0  0  0  0  0  0  0999 V2000
  -24.7643   20.7468  -11.4094 N   0  0  0  0  0  0  0  0  0  0  0  0
  -25.8923   20.7053  -10.4820 C   0  0  0  0  0  0  0  0  0  0  0  0
  -25.6180   19.7731   -9.3530 C   0  0  0  0  0  0  0  0  0  0  0  0
  -24.7474   18.6790   -9.8980 N   0  0  0  0  0  0  0  0  0  0  0  0
  -23.3994   19.0769  -10.2296 C   0  0  0  0  0  0  0  0  0  0  0  0
  -23.4529   20.4422  -10.9510 C   0  0  0  0  0  0  0  0  0  0  0  0
  -25.2857   17.4432  -10.1335 C   0  0  0  0  0  0  0  0  0  0  0  0
  -26.5934   17.3777  -10.0443 O   0  0  0  0  0  0  0  0  0  0  0  0
  -24.6681   16.2334  -10.4528 N   0  0  0  0  0  0  0  0  0  0  0  0
  -23.2680   15.9020  -10.4206 C   0  0  0  0  0  0  0  0  0  0  0  0
  -22.9454   14.5016   -9.9846 C   0  0  0  0  0  0  0  0  0  0  0  0
  -24.0501   13.5840   -9.9541 N   0  0  0  0  0  0  0  0  0  0  0  0
  -25.4243   14.0027   -9.9940 C   0  0  0  0  0  0  0  0  0  0  0  0
  -25.5179   15.1167  -10.9912 C   0  0  0  0  0  0  0  0  0  0  0  0
  -25.6168   21.8261  -15.3685 C   0  0  0  0  0  0  0  0  0  0  0  0
  -25.3224   20.5068  -15.0315 C   0  0  0  0  0  0  0  0  0  0  0  0
  -25.0583   20.1723  -13.7506 C   0  0  0  0  0  0  0  0  0  0  0  0
  -25.0712   21.1322  -12.7410 C   0  0  0  0  0  0  0  0  0  0  0  0
  -25.3528   22.4212  -13.0446 C   0  0  0  0  0  0  0  0  0  0  0  0
  -25.6282   22.7704  -14.3667 C   0  0  0  0  0  0  0  0  0  0  0  0
  -27.0098   23.0694  -16.7841 F   0  0  0  0  0  0  0  0  0  0  0  0
  -25.9147   22.2385  -16.7635 C   0  0  0  0  0  0  0  0  0  0  0  0
  -24.8580   22.9710  -17.2735 F   0  0  0  0  0  0  0  0  0  0  0  0
  -26.1595   21.1751  -17.6085 F   0  0  0  0  0  0  0  0  0  0  0  0
  -23.7621   12.1672   -9.8746 C   0  0  0  0  0  0  0  0  0  0  0  0
  -24.3034   11.3335  -10.8365 C   0  0  0  0  0  0  0  0  0  0  0  0
  -24.0891    9.9842  -10.7953 C   0  0  0  0  0  0  0  0  0  0  0  0
  -23.3172    9.3760   -9.7822 C   0  0  0  0  0  0  0  0  0  0  0  0
  -22.8118   10.2590   -8.8627 C   0  0  0  0  0  0  0  0  0  0  0  0
  -23.0040   11.6345   -8.8701 C   0  0  0  0  0  0  0  0  0  0  0  0
  -23.1309    7.9412   -9.7820 C   0  0  0  0  0  0  0  0  0  0  0  0
  -24.0409    7.3235   -9.0314 O   0  0  0  0  0  0  0  0  0  0  0  0
  -22.2010    7.1548  -10.4101 N   0  0  0  0  0  0  0  0  0  0  0  0
  -21.1169    7.3714  -11.2817 C   0  0  0  0  0  0  0  0  0  0  0  0
  -19.8508    7.1329  -10.4184 C   0  0  0  0  0  0  0  0  0  0  0  0
  -19.9125    5.8528   -9.9273 O   0  0  0  0  0  0  0  0  0  0  0  0
  -20.9914    5.0920  -10.3021 C   0  0  0  0  0  0  0  0  0  0  0  0
  -22.3386    5.6794  -10.0760 C   0  0  0  0  0  0  0  0  0  0  0  0
 21 22  1  0  0  0
 22 23  1  0  0  0
 22 24  1  0  0  0
 22 15  1  0  0  0
 15 16  2  0  0  0
 16 17  1  0  0  0
 17 18  2  0  0  0
 18 19  1  0  0  0
 19 20  2  0  0  0
 18  1  1  0  0  0
  1  2  1  0  0  0
  2  3  1  0  0  0
  3  4  1  0  0  0
  4  5  1  0  0  0
  5  6  1  0  0  0
  4  7  1  0  0  0
  7  8  2  0  0  0
  7  9  1  0  0  0
  9 10  1  0  0  0
 10 11  1  0  0  0
 11 12  1  0  0  0
 12 13  1  0  0  0
 13 14  1  0  0  0
 12 25  1  0  0  0
 25 26  2  0  0  0
 26 27  1  0  0  0
 27 28  2  0  0  0
 28 29  1  0  0  0
 29 30  2  0  0  0
 28 31  1  0  0  0
 31 32  2  0  0  0
 31 33  1  0  0  0
 33 34  1  0  0  0
 34 35  1  0  0  0
 35 36  1  0  0  0
 36 37  1  0  0  0
 37 38  1  0  0  0
 20 15  1  0  0  0
  6  1  1  0  0  0
 14  9  1  0  0  0
 30 25  1  0  0  0
 38 33  1  0  0  0
M  END
> <minimizedAffinity>
-1.41305

> <CNNscore>
0.4339100122

> <CNNaffinity>
4.5502066612

> <CNN_VS>
1.9743802547

> <CNNaffinity_variance>
0.0130321328

$$$$
[H]c1c([H])c(N2C([H])([H])C([H])([H])N(C(=O)N3C([H])([H])C([H])([H])N(c4c([H])c([H])c(C(F)(F)F)c([H])c4[H])C([H])([H])C3([H])[H])C([H])([H])C2([H])[H])c([H])c([H])c1C(=O)N1C([H])([H])C([H])([H])OC([H])([H])C1([H])[H]


 38 42  0  0  0  0  0  0  0  0999 V2000
  -19.9261   19.2288  -20.8788 N   0  0  0  0  0  0  0  0  0  0  0  0
  -19.3950   20.3441  -20.0990 C   0  0  0  0  0  0  0  0  0  0  0  0
  -18.9301   19.8832  -18.7609 C   0  0  0  0  0  0  0  0  0  0  0  0
  -19.8149   18.7368  -18.3675 N   0  0  0  0  0  0  0  0  0  0  0  0
  -19.6243   17.5261  -19.1313 C   0  0  0  0  0  0  0  0  0  0  0  0
  -19.4792   17.9031  -20.6227 C   0  0  0  0  0  0  0  0  0  0  0  0
  -20.7796   18.9254  -17.4155 C   0  0  0  0  0  0  0  0  0  0  0  0
  -20.9798   20.1736  -17.0633 O   0  0  0  0  0  0  0  0  0  0  0  0
  -21.5888   18.0020  -16.7524 N   0  0  0  0  0  0  0  0  0  0  0  0
  -21.4891   16.5665  -16.7364 C   0  0  0  0  0  0  0  0  0  0  0  0
  -21.8378   15.9091  -15.4320 C   0  0  0  0  0  0  0  0  0  0  0  0
  -22.5142   16.7377  -14.4732 N   0  0  0  0  0  0  0  0  0  0  0  0
  -22.5679   18.1706  -14.5681 C   0  0  0  0  0  0  0  0  0  0  0  0
  -22.7929   18.5098  -16.0098 C   0  0  0  0  0  0  0  0  0  0  0  0
  -22.7096   20.1576  -23.8714 C   0  0  0  0  0  0  0  0  0  0  0  0
  -22.9659   19.1551  -22.9386 C   0  0  0  0  0  0  0  0  0  0  0  0
  -22.0637   18.8727  -21.9749 C   0  0  0  0  0  0  0  0  0  0  0  0
  -20.8610   19.5708  -21.8912 C   0  0  0  0  0  0  0  0  0  0  0  0
  -20.5889   20.5481  -22.7877 C   0  0  0  0  0  0  0  0  0  0  0  0
  -21.5194   20.8441  -23.7837 C   0  0  0  0  0  0  0  0  0  0  0  0
  -23.9544   19.3882  -25.7013 F   0  0  0  0  0  0  0  0  0  0  0  0
  -23.6736   20.5026  -24.9468 C   0  0  0  0  0  0  0  0  0  0  0  0
  -24.8724   20.9111  -24.3909 F   0  0  0  0  0  0  0  0  0  0  0  0
  -23.2202   21.4963  -25.7905 F   0  0  0  0  0  0  0  0  0  0  0  0
  -23.1699   16.0949  -13.3536 C   0  0  0  0  0  0  0  0  0  0  0  0
  -23.4200   14.7368  -13.4323 C   0  0  0  0  0  0  0  0  0  0  0  0
  -24.0616   14.0825  -12.4181 C   0  0  0  0  0  0  0  0  0  0  0  0
  -24.5002   14.7477  -11.2531 C   0  0  0  0  0  0  0  0  0  0  0  0
  -24.2207   16.0901  -11.2408 C   0  0  0  0  0  0  0  0  0  0  0  0
  -23.5701   16.7912  -12.2479 C   0  0  0  0  0  0  0  0  0  0  0  0
  -25.1833   14.0069  -10.2147 C   0  0  0  0  0  0  0  0  0  0  0  0
  -24.9300   14.5017   -9.0047 O   0  0  0  0  0  0  0  0  0  0  0  0
  -26.0158   12.9208  -10.2838 N   0  0  0  0  0  0  0  0  0  0  0  0
  -26.5522   12.1220  -11.3115 C   0  0  0  0  0  0  0  0  0  0  0  0
  -25.7905   10.7745  -11.2147 C   0  0  0  0  0  0  0  0  0  0  0  0
  -25.9984   10.2639   -9.9580 O   0  0  0  0  0  0  0  0  0  0  0  0
  -26.8072   10.9864   -9.1169 C   0  0  0  0  0  0  0  0  0  0  0  0
  -26.4632   12.4198   -8.9214 C   0  0  0  0  0  0  0  0  0  0  0  0
 21 22  1  0  0  0
 22 23  1  0  0  0
 22 24  1  0  0  0
 22 15  1  0  0  0
 15 16  2  0  0  0
 16 17  1  0  0  0
 17 18  2  0  0  0
 18 19  1  0  0  0
 19 20  2  0  0  0
 18  1  1  0  0  0
  1  2  1  0  0  0
  2  3  1  0  0  0
  3  4  1  0  0  0
  4  5  1  0  0  0
  5  6  1  0  0  0
  4  7  1  0  0  0
  7  8  2  0  0  0
  7  9  1  0  0  0
  9 10  1  0  0  0
 10 11  1  0  0  0
 11 12  1  0  0  0
 12 13  1  0  0  0
 13 14  1  0  0  0
 12 25  1  0  0  0
 25 26  2  0  0  0
 26 27  1  0  0  0
 27 28  2  0  0  0
 28 29  1  0  0  0
 29 30  2  0  0  0
 28 31  1  0  0  0
 31 32  2  0  0  0
 31 33  1  0  0  0
 33 34  1  0  0  0
 34 35  1  0  0  0
 35 36  1  0  0  0
 36 37  1  0  0  0
 37 38  1  0  0  0
 20 15  1  0  0  0
  6  1  1  0  0  0
 14  9  1  0  0  0
 30 25  1  0  0  0
 38 33  1  0  0  0
M  END
> <minimizedAffinity>
-4.48113

> <CNNscore>
0.4086848795

> <CNNaffinity>
5.4152908325

> <CNN_VS>
2.2131474018

> <CNNaffinity_variance>
0.3200040162

$$$$
[H]c1c([H])c(N2C([H])([H])C([H])([H])N(C(=O)N3C([H])([H])C([H])([H])N(c4c([H])c([H])c(C(F)(F)F)c([H])c4[H])C([H])([H])C3([H])[H])C([H])([H])C2([H])[H])c([H])c([H])c1C(=O)N1C([H])([H])C([H])([H])OC([H])([H])C1([H])[H]


 38 42  0  0  0  0  0  0  0  0999 V2000
  -21.8456   21.2117  -23.9298 N   0  0  0  0  0  0  0  0  0  0  0  0
  -22.6570   22.3927  -23.6449 C   0  0  0  0  0  0  0  0  0  0  0  0
  -22.5012   22.8145  -22.2248 C   0  0  0  0  0  0  0  0  0  0  0  0
  -22.2611   21.5662  -21.4274 N   0  0  0  0  0  0  0  0  0  0  0  0
  -20.9795   20.9373  -21.6455 C   0  0  0  0  0  0  0  0  0  0  0  0
  -20.6790   20.9459  -23.1610 C   0  0  0  0  0  0  0  0  0  0  0  0
  -23.2653   21.0609  -20.6471 C   0  0  0  0  0  0  0  0  0  0  0  0
  -24.4413   21.6165  -20.8219 O   0  0  0  0  0  0  0  0  0  0  0  0
  -23.2431   20.0468  -19.6889 N   0  0  0  0  0  0  0  0  0  0  0  0
  -22.1061   19.3865  -19.1038 C   0  0  0  0  0  0  0  0  0  0  0  0
  -22.2449   19.0247  -17.6530 C   0  0  0  0  0  0  0  0  0  0  0  0
  -23.5747   19.0926  -17.1141 N   0  0  0  0  0  0  0  0  0  0  0  0
  -24.6574   19.7734  -17.7696 C   0  0  0  0  0  0  0  0  0  0  0  0
  -24.5518   19.4658  -19.2320 C   0  0  0  0  0  0  0  0  0  0  0  0
  -23.1169   18.7638  -27.0854 C   0  0  0  0  0  0  0  0  0  0  0  0
  -23.2153   18.3387  -25.7624 C   0  0  0  0  0  0  0  0  0  0  0  0
  -22.8098   19.1415  -24.7557 C   0  0  0  0  0  0  0  0  0  0  0  0
  -22.2843   20.4058  -25.0133 C   0  0  0  0  0  0  0  0  0  0  0  0
  -22.1771   20.8399  -26.2911 C   0  0  0  0  0  0  0  0  0  0  0  0
  -22.5968   20.0141  -27.3339 C   0  0  0  0  0  0  0  0  0  0  0  0
  -24.5292   17.0406  -27.8107 F   0  0  0  0  0  0  0  0  0  0  0  0
  -23.5519   17.9149  -28.2234 C   0  0  0  0  0  0  0  0  0  0  0  0
  -24.1216   18.7027  -29.2073 F   0  0  0  0  0  0  0  0  0  0  0  0
  -22.5245   17.1850  -28.7861 F   0  0  0  0  0  0  0  0  0  0  0  0
  -23.8337   18.4457  -15.8448 C   0  0  0  0  0  0  0  0  0  0  0  0
  -24.3772   17.1738  -15.8563 C   0  0  0  0  0  0  0  0  0  0  0  0
  -24.6694   16.5261  -14.6887 C   0  0  0  0  0  0  0  0  0  0  0  0
  -24.4383   17.1120  -13.4256 C   0  0  0  0  0  0  0  0  0  0  0  0
  -23.8993   18.3714  -13.4872 C   0  0  0  0  0  0  0  0  0  0  0  0
  -23.5863   19.0624  -14.6506 C   0  0  0  0  0  0  0  0  0  0  0  0
  -24.7757   16.3843  -12.2214 C   0  0  0  0  0  0  0  0  0  0  0  0
  -23.7199   16.2268  -11.4254 O   0  0  0  0  0  0  0  0  0  0  0  0
  -25.9652   15.8557  -11.7934 N   0  0  0  0  0  0  0  0  0  0  0  0
  -27.2847   15.8088  -12.2819 C   0  0  0  0  0  0  0  0  0  0  0  0
  -27.4918   14.3433  -12.7454 C   0  0  0  0  0  0  0  0  0  0  0  0
  -27.2782   13.5266  -11.6634 O   0  0  0  0  0  0  0  0  0  0  0  0
  -26.9776   14.1361  -10.4711 C   0  0  0  0  0  0  0  0  0  0  0  0
  -25.8497   15.1052  -10.4778 C   0  0  0  0  0  0  0  0  0  0  0  0
 21 22  1  0  0  0
 22 23  1  0  0  0
 22 24  1  0  0  0
 22 15  1  0  0  0
 15 16  2  0  0  0
 16 17  1  0  0  0
 17 18  2  0  0  0
 18 19  1  0  0  0
 19 20  2  0  0  0
 18  1  1  0  0  0
  1  2  1  0  0  0
  2  3  1  0  0  0
  3  4  1  0  0  0
  4  5  1  0  0  0
  5  6  1  0  0  0
  4  7  1  0  0  0
  7  8  2  0  0  0
  7  9  1  0  0  0
  9 10  1  0  0  0
 10 11  1  0  0  0
 11 12  1  0  0  0
 12 13  1  0  0  0
 13 14  1  0  0  0
 12 25  1  0  0  0
 25 26  2  0  0  0
 26 27  1  0  0  0
 27 28  2  0  0  0
 28 29  1  0  0  0
 29 30  2  0  0  0
 28 31  1  0  0  0
 31 32  2  0  0  0
 31 33  1  0  0  0
 33 34  1  0  0  0
 34 35  1  0  0  0
 35 36  1  0  0  0
 36 37  1  0  0  0
 37 38  1  0  0  0
 20 15  1  0  0  0
  6  1  1  0  0  0
 14  9  1  0  0  0
 30 25  1  0  0  0
 38 33  1  0  0  0
M  END
> <minimizedAffinity>
-0.98156

> <CNNscore>
0.3838759661

> <CNNaffinity>
5.4348506927

> <CNN_VS>
2.0863084793

> <CNNaffinity_variance>
0.4164767265

$$$$
[H]c1c([H])c(N2C([H])([H])C([H])([H])N(C(=O)N3C([H])([H])C([H])([H])N(c4c([H])c([H])c(C(F)(F)F)c([H])c4[H])C([H])([H])C3([H])[H])C([H])([H])C2([H])[H])c([H])c([H])c1C(=O)N1C([H])([H])C([H])([H])OC([H])([H])C1([H])[H]


 38 42  0  0  0  0  0  0  0  0999 V2000
  -23.6971   19.0383  -14.1435 N   0  0  0  0  0  0  0  0  0  0  0  0
  -24.7104   19.0181  -13.0914 C   0  0  0  0  0  0  0  0  0  0  0  0
  -24.3925   17.9843  -12.0672 C   0  0  0  0  0  0  0  0  0  0  0  0
  -23.6912   16.8678  -12.7836 N   0  0  0  0  0  0  0  0  0  0  0  0
  -22.3600   17.1794  -13.2489 C   0  0  0  0  0  0  0  0  0  0  0  0
  -22.3741   18.5951  -13.8677 C   0  0  0  0  0  0  0  0  0  0  0  0
  -24.3609   15.7007  -13.0326 C   0  0  0  0  0  0  0  0  0  0  0  0
  -25.6503   15.7345  -12.7906 O   0  0  0  0  0  0  0  0  0  0  0  0
  -23.8942   14.4726  -13.5026 N   0  0  0  0  0  0  0  0  0  0  0  0
  -22.5348   14.0277  -13.6614 C   0  0  0  0  0  0  0  0  0  0  0  0
  -22.2903   12.5770  -13.3600 C   0  0  0  0  0  0  0  0  0  0  0  0
  -23.4615   11.7519  -13.2564 N   0  0  0  0  0  0  0  0  0  0  0  0
  -24.7884   12.2820  -13.1026 C   0  0  0  0  0  0  0  0  0  0  0  0
  -24.8963   13.4719  -14.0062 C   0  0  0  0  0  0  0  0  0  0  0  0
  -25.0193   20.5042  -17.8407 C   0  0  0  0  0  0  0  0  0  0  0  0
  -25.8898   20.3958  -16.7585 C   0  0  0  0  0  0  0  0  0  0  0  0
  -25.4477   19.9299  -15.5710 C   0  0  0  0  0  0  0  0  0  0  0  0
  -24.1193   19.5466  -15.4002 C   0  0  0  0  0  0  0  0  0  0  0  0
  -23.2552   19.6413  -16.4381 C   0  0  0  0  0  0  0  0  0  0  0  0
  -23.7077   20.1239  -17.6660 C   0  0  0  0  0  0  0  0  0  0  0  0
  -24.6389   20.5274  -20.1526 F   0  0  0  0  0  0  0  0  0  0  0  0
  -25.4618   21.0123  -19.1639 C   0  0  0  0  0  0  0  0  0  0  0  0
  -26.7320   20.5438  -19.4470 F   0  0  0  0  0  0  0  0  0  0  0  0
  -25.4743   22.3901  -19.2451 F   0  0  0  0  0  0  0  0  0  0  0  0
  -23.2937   10.3145  -13.3050 C   0  0  0  0  0  0  0  0  0  0  0  0
  -22.1976    9.8051  -13.9775 C   0  0  0  0  0  0  0  0  0  0  0  0
  -22.0035    8.4561  -14.0805 C   0  0  0  0  0  0  0  0  0  0  0  0
  -22.8993    7.5223  -13.5167 C   0  0  0  0  0  0  0  0  0  0  0  0
  -23.9620    8.0944  -12.8659 C   0  0  0  0  0  0  0  0  0  0  0  0
  -24.1942    9.4577  -12.7369 C   0  0  0  0  0  0  0  0  0  0  0  0
  -22.6497    6.1048  -13.6647 C   0  0  0  0  0  0  0  0  0  0  0  0
  -22.5652    5.4909  -12.4860 O   0  0  0  0  0  0  0  0  0  0  0  0
  -22.4943    5.3309  -14.7847 N   0  0  0  0  0  0  0  0  0  0  0  0
  -22.5285    5.5469  -16.1754 C   0  0  0  0  0  0  0  0  0  0  0  0
  -21.0509    5.4472  -16.6360 C   0  0  0  0  0  0  0  0  0  0  0  0
  -20.5847    4.2050  -16.2852 O   0  0  0  0  0  0  0  0  0  0  0  0
  -21.4711    3.3565  -15.6706 C   0  0  0  0  0  0  0  0  0  0  0  0
  -22.1793    3.8783  -14.4716 C   0  0  0  0  0  0  0  0  0  0  0  0
 21 22  1  0  0  0
 22 23  1  0  0  0
 22 24  1  0  0  0
 22 15  1  0  0  0
 15 16  2  0  0  0
 16 17  1  0  0  0
 17 18  2  0  0  0
 18 19  1  0  0  0
 19 20  2  0  0  0
 18  1  1  0  0  0
  1  2  1  0  0  0
  2  3  1  0  0  0
  3  4  1  0  0  0
  4  5  1  0  0  0
  5  6  1  0  0  0
  4  7  1  0  0  0
  7  8  2  0  0  0
  7  9  1  0  0  0
  9 10  1  0  0  0
 10 11  1  0  0  0
 11 12  1  0  0  0
 12 13  1  0  0  0
 13 14  1  0  0  0
 12 25  1  0  0  0
 25 26  2  0  0  0
 26 27  1  0  0  0
 27 28  2  0  0  0
 28 29  1  0  0  0
 29 30  2  0  0  0
 28 31  1  0  0  0
 31 32  2  0  0  0
 31 33  1  0  0  0
 33 34  1  0  0  0
 34 35  1  0  0  0
 35 36  1  0  0  0
 36 37  1  0  0  0
 37 38  1  0  0  0
 20 15  1  0  0  0
  6  1  1  0  0  0
 14  9  1  0  0  0
 30 25  1  0  0  0
 38 33  1  0  0  0
M  END
> <minimizedAffinity>
-2.60165

> <CNNscore>
0.3473335803

> <CNNaffinity>
4.8564481735

> <CNN_VS>
1.6868075132

> <CNNaffinity_variance>
0.3677871823

$$$$
[H]c1c([H])c(N2C([H])([H])C([H])([H])N(C(=O)N3C([H])([H])C([H])([H])N(c4c([H])c([H])c(C(F)(F)F)c([H])c4[H])C([H])([H])C3([H])[H])C([H])([H])C2([H])[H])c([H])c([H])c1C(=O)N1C([H])([H])C([H])([H])OC([H])([H])C1([H])[H]


 38 42  0  0  0  0  0  0  0  0999 V2000
  -19.2980   21.3793  -22.3056 N   0  0  0  0  0  0  0  0  0  0  0  0
  -19.5682   22.5119  -21.4233 C   0  0  0  0  0  0  0  0  0  0  0  0
  -19.4607   22.1089  -19.9933 C   0  0  0  0  0  0  0  0  0  0  0  0
  -19.8898   20.6730  -19.9157 N   0  0  0  0  0  0  0  0  0  0  0  0
  -18.9761   19.7278  -20.5132 C   0  0  0  0  0  0  0  0  0  0  0  0
  -18.4797   20.3058  -21.8574 C   0  0  0  0  0  0  0  0  0  0  0  0
  -21.1164   20.3631  -19.3944 C   0  0  0  0  0  0  0  0  0  0  0  0
  -21.9086   21.3880  -19.1839 O   0  0  0  0  0  0  0  0  0  0  0  0
  -21.6655   19.1285  -19.0461 N   0  0  0  0  0  0  0  0  0  0  0  0
  -21.0129   17.8498  -18.9454 C   0  0  0  0  0  0  0  0  0  0  0  0
  -21.5038   16.9591  -17.8405 C   0  0  0  0  0  0  0  0  0  0  0  0
  -22.7446   17.3450  -17.2282 N   0  0  0  0  0  0  0  0  0  0  0  0
  -23.3295   18.6483  -17.3850 C   0  0  0  0  0  0  0  0  0  0  0  0
  -23.1488   19.0440  -18.8186 C   0  0  0  0  0  0  0  0  0  0  0  0
  -20.9994   21.5182  -26.1334 C   0  0  0  0  0  0  0  0  0  0  0  0
  -21.4408   20.5988  -25.1845 C   0  0  0  0  0  0  0  0  0  0  0  0
  -20.8893   20.5714  -23.9526 C   0  0  0  0  0  0  0  0  0  0  0  0
  -19.8703   21.4546  -23.6028 C   0  0  0  0  0  0  0  0  0  0  0  0
  -19.4235   22.3559  -24.5088 C   0  0  0  0  0  0  0  0  0  0  0  0
  -19.9921   22.3886  -25.7821 C   0  0  0  0  0  0  0  0  0  0  0  0
  -20.7047   21.0341  -28.4069 F   0  0  0  0  0  0  0  0  0  0  0  0
  -21.5780   21.5848  -27.4993 C   0  0  0  0  0  0  0  0  0  0  0  0
  -22.7334   20.8267  -27.5582 F   0  0  0  0  0  0  0  0  0  0  0  0
  -21.8753   22.8698  -27.9060 F   0  0  0  0  0  0  0  0  0  0  0  0
  -23.4364   16.3721  -16.4088 C   0  0  0  0  0  0  0  0  0  0  0  0
  -22.6809   15.5304  -15.6124 C   0  0  0  0  0  0  0  0  0  0  0  0
  -23.2780   14.5737  -14.8401 C   0  0  0  0  0  0  0  0  0  0  0  0
  -24.6776   14.3930  -14.8151 C   0  0  0  0  0  0  0  0  0  0  0  0
  -25.3645   15.2591  -15.6266 C   0  0  0  0  0  0  0  0  0  0  0  0
  -24.7969   16.2447  -16.4237 C   0  0  0  0  0  0  0  0  0  0  0  0
  -25.2555   13.3577  -13.9859 C   0  0  0  0  0  0  0  0  0  0  0  0
  -24.4980   13.0936  -12.9231 O   0  0  0  0  0  0  0  0  0  0  0  0
  -26.4141   12.6388  -14.1215 N   0  0  0  0  0  0  0  0  0  0  0  0
  -27.4817   12.6056  -15.0386 C   0  0  0  0  0  0  0  0  0  0  0  0
  -27.2837   11.2935  -15.8414 C   0  0  0  0  0  0  0  0  0  0  0  0
  -27.2937   10.2501  -14.9499 O   0  0  0  0  0  0  0  0  0  0  0  0
  -27.4947   10.5606  -13.6283 C   0  0  0  0  0  0  0  0  0  0  0  0
  -26.6012   11.5918  -13.0371 C   0  0  0  0  0  0  0  0  0  0  0  0
 21 22  1  0  0  0
 22 23  1  0  0  0
 22 24  1  0  0  0
 22 15  1  0  0  0
 15 16  2  0  0  0
 16 17  1  0  0  0
 17 18  2  0  0  0
 18 19  1  0  0  0
 19 20  2  0  0  0
 18  1  1  0  0  0
  1  2  1  0  0  0
  2  3  1  0  0  0
  3  4  1  0  0  0
  4  5  1  0  0  0
  5  6  1  0  0  0
  4  7  1  0  0  0
  7  8  2  0  0  0
  7  9  1  0  0  0
  9 10  1  0  0  0
 10 11  1  0  0  0
 11 12  1  0  0  0
 12 13  1  0  0  0
 13 14  1  0  0  0
 12 25  1  0  0  0
 25 26  2  0  0  0
 26 27  1  0  0  0
 27 28  2  0  0  0
 28 29  1  0  0  0
 29 30  2  0  0  0
 28 31  1  0  0  0
 31 32  2  0  0  0
 31 33  1  0  0  0
 33 34  1  0  0  0
 34 35  1  0  0  0
 35 36  1  0  0  0
 36 37  1  0  0  0
 37 38  1  0  0  0
 20 15  1  0  0  0
  6  1  1  0  0  0
 14  9  1  0  0  0
 30 25  1  0  0  0
 38 33  1  0  0  0
M  END
> <minimizedAffinity>
-5.62906

> <CNNscore>
0.3425557613

> <CNNaffinity>
5.3946313858

> <CNN_VS>
1.8479620218

> <CNNaffinity_variance>
0.5025023222

$$$$
[H]c1c([H])c([H])c(-c2c([H])c([H])c(S(=O)(=O)N([H])C3([H])C([H])([H])C([H])([H])N(C(=O)OC(C([H])([H])[H])(C([H])([H])[H])C([H])([H])[H])C([H])([H])C3([H])[H])c([H])c2[H])c([H])c1[H]


 30 32  0  0  0  0  0  0  0  0999 V2000
  -19.9074   15.5414  -18.6494 N   0  0  0  0  0  0  0  0  0  0  0  0
  -19.2424   15.7206  -17.8768 H   0  0  0  0  0  0  0  0  0  0  0  0
  -17.5602   12.3913  -21.1712 C   0  0  0  0  0  0  0  0  0  0  0  0
  -16.7558   11.5547  -20.6823 O   0  0  0  0  0  0  0  0  0  0  0  0
  -18.3196   13.1834  -20.2693 N   0  0  0  0  0  0  0  0  0  0  0  0
  -19.2546   14.1562  -20.8167 C   0  0  0  0  0  0  0  0  0  0  0  0
  -20.5957   13.8372  -20.1603 C   0  0  0  0  0  0  0  0  0  0  0  0
  -20.4188   14.1975  -18.6955 C   0  0  0  0  0  0  0  0  0  0  0  0
  -19.4381   13.2584  -18.0768 C   0  0  0  0  0  0  0  0  0  0  0  0
  -18.1872   13.0468  -18.8405 C   0  0  0  0  0  0  0  0  0  0  0  0
  -17.7230   12.5584  -22.5376 O   0  0  0  0  0  0  0  0  0  0  0  0
  -15.4494   12.2499  -23.1486 C   0  0  0  0  0  0  0  0  0  0  0  0
  -16.6692   13.1443  -23.2574 C   0  0  0  0  0  0  0  0  0  0  0  0
  -16.2789   14.4905  -22.6635 C   0  0  0  0  0  0  0  0  0  0  0  0
  -17.0949   13.3405  -24.6874 C   0  0  0  0  0  0  0  0  0  0  0  0
  -21.1357   16.7461  -18.5615 S   0  0  0  0  0  0  0  0  0  0  0  0
  -22.3039   16.1371  -17.8355 O   0  0  0  0  0  0  0  0  0  0  0  0
  -20.6796   17.9522  -17.7751 O   0  0  0  0  0  0  0  0  0  0  0  0
  -21.5872   17.1946  -20.1953 C   0  0  0  0  0  0  0  0  0  0  0  0
  -20.6677   17.6664  -21.1097 C   0  0  0  0  0  0  0  0  0  0  0  0
  -21.0635   18.0079  -22.3864 C   0  0  0  0  0  0  0  0  0  0  0  0
  -22.3702   17.9005  -22.8143 C   0  0  0  0  0  0  0  0  0  0  0  0
  -23.2979   17.4299  -21.9081 C   0  0  0  0  0  0  0  0  0  0  0  0
  -22.9000   17.0891  -20.6324 C   0  0  0  0  0  0  0  0  0  0  0  0
  -22.7524   18.2741  -24.1836 C   0  0  0  0  0  0  0  0  0  0  0  0
  -23.2335   17.2784  -24.9882 C   0  0  0  0  0  0  0  0  0  0  0  0
  -23.5996   17.5886  -26.2707 C   0  0  0  0  0  0  0  0  0  0  0  0
  -23.4976   18.8664  -26.7701 C   0  0  0  0  0  0  0  0  0  0  0  0
  -23.0115   19.8451  -25.9401 C   0  0  0  0  0  0  0  0  0  0  0  0
  -22.6390   19.5648  -24.6573 C   0  0  0  0  0  0  0  0  0  0  0  0
 12 13  1  0  0  0
 13 14  1  0  0  0
 13 15  1  0  0  0
 13 11  1  0  0  0
 11  3  1  0  0  0
  3  4  2  0  0  0
  3  5  1  0  0  0
  5  6  1  0  0  0
  6  7  1  0  0  0
  7  8  1  0  0  0
  8  9  1  0  0  0
  9 10  1  0  0  0
  8  1  1  0  0  0
  1 16  1  0  0  0
 16 17  2  0  0  0
 16 18  2  0  0  0
 16 19  1  0  0  0
 19 20  2  0  0  0
 20 21  1  0  0  0
 21 22  2  0  0  0
 22 23  1  0  0  0
 23 24  2  0  0  0
 22 25  1  0  0  0
 25 26  2  0  0  0
 26 27  1  0  0  0
 27 28  2  0  0  0
 28 29  1  0  0  0
 29 30  2  0  0  0
 10  5  1  0  0  0
 24 19  1  0  0  0
 30 25  1  0  0  0
  1  2  1  0  0  0
M  END
> <minimizedAffinity>
-7.58279

> <CNNscore>
0.4384385645

> <CNNaffinity>
6.1825194359

> <CNN_VS>
2.7106549740

> <CNNaffinity_variance>
0.0820094198

$$$$
[H]c1c([H])c([H])c(-c2c([H])c([H])c(S(=O)(=O)N([H])C3([H])C([H])([H])C([H])([H])N(C(=O)OC(C([H])([H])[H])(C([H])([H])[H])C([H])([H])[H])C([H])([H])C3([H])[H])c([H])c2[H])c([H])c1[H]


 30 32  0  0  0  0  0  0  0  0999 V2000
  -18.0261   11.8259  -19.4888 N   0  0  0  0  0  0  0  0  0  0  0  0
  -18.9801   11.4503  -19.6311 H   0  0  0  0  0  0  0  0  0  0  0  0
  -21.0811   10.5229  -16.2084 C   0  0  0  0  0  0  0  0  0  0  0  0
  -21.1002    9.3815  -15.6765 O   0  0  0  0  0  0  0  0  0  0  0  0
  -20.0000   10.8294  -17.0771 N   0  0  0  0  0  0  0  0  0  0  0  0
  -19.9614   12.1444  -17.7014 C   0  0  0  0  0  0  0  0  0  0  0  0
  -18.5879   12.7134  -17.3539 C   0  0  0  0  0  0  0  0  0  0  0  0
  -17.5952   11.8533  -18.1165 C   0  0  0  0  0  0  0  0  0  0  0  0
  -17.6100   10.4727  -17.5509 C   0  0  0  0  0  0  0  0  0  0  0  0
  -18.9517    9.8787  -17.3509 C   0  0  0  0  0  0  0  0  0  0  0  0
  -22.0656   11.4706  -15.9753 O   0  0  0  0  0  0  0  0  0  0  0  0
  -22.1970   13.5660  -14.8664 C   0  0  0  0  0  0  0  0  0  0  0  0
  -22.1206   12.0603  -14.7021 C   0  0  0  0  0  0  0  0  0  0  0  0
  -20.8555   11.7708  -13.9065 C   0  0  0  0  0  0  0  0  0  0  0  0
  -23.3086   11.5168  -13.9553 C   0  0  0  0  0  0  0  0  0  0  0  0
  -16.9678   10.9507  -20.5288 S   0  0  0  0  0  0  0  0  0  0  0  0
  -15.6900   10.7196  -19.7695 O   0  0  0  0  0  0  0  0  0  0  0  0
  -17.5373    9.6015  -20.8980 O   0  0  0  0  0  0  0  0  0  0  0  0
  -16.6717   11.9211  -21.9589 C   0  0  0  0  0  0  0  0  0  0  0  0
  -17.6224   12.7759  -22.4779 C   0  0  0  0  0  0  0  0  0  0  0  0
  -17.3498   13.5232  -23.6050 C   0  0  0  0  0  0  0  0  0  0  0  0
  -16.1399   13.4618  -24.2641 C   0  0  0  0  0  0  0  0  0  0  0  0
  -15.1820   12.6102  -23.7537 C   0  0  0  0  0  0  0  0  0  0  0  0
  -15.4567   11.8641  -22.6267 C   0  0  0  0  0  0  0  0  0  0  0  0
  -15.8873   14.2748  -25.4623 C   0  0  0  0  0  0  0  0  0  0  0  0
  -16.7014   14.0625  -26.5405 C   0  0  0  0  0  0  0  0  0  0  0  0
  -16.4959   14.8013  -27.6749 C   0  0  0  0  0  0  0  0  0  0  0  0
  -15.4993   15.7458  -27.7605 C   0  0  0  0  0  0  0  0  0  0  0  0
  -14.6978   15.9373  -26.6632 C   0  0  0  0  0  0  0  0  0  0  0  0
  -14.8796   15.2153  -25.5192 C   0  0  0  0  0  0  0  0  0  0  0  0
 12 13  1  0  0  0
 13 14  1  0  0  0
 13 15  1  0  0  0
 13 11  1  0  0  0
 11  3  1  0  0  0
  3  4  2  0  0  0
  3  5  1  0  0  0
  5  6  1  0  0  0
  6  7  1  0  0  0
  7  8  1  0  0  0
  8  9  1  0  0  0
  9 10  1  0  0  0
  8  1  1  0  0  0
  1 16  1  0  0  0
 16 17  2  0  0  0
 16 18  2  0  0  0
 16 19  1  0  0  0
 19 20  2  0  0  0
 20 21  1  0  0  0
 21 22  2  0  0  0
 22 23  1  0  0  0
 23 24  2  0  0  0
 22 25  1  0  0  0
 25 26  2  0  0  0
 26 27  1  0  0  0
 27 28  2  0  0  0
 28 29  1  0  0  0
 29 30  2  0  0  0
 10  5  1  0  0  0
 24 19  1  0  0  0
 30 25  1  0  0  0
  1  2  1  0  0  0
M  END
> <minimizedAffinity>
-6.94295

> <CNNscore>
0.3643044233

> <CNNaffinity>
6.0516910553

> <CNN_VS>
2.2046577930

> <CNNaffinity_variance>
0.1554238796

$$$$
[H]c1c([H])c([H])c(-c2c([H])c([H])c(S(=O)(=O)N([H])C3([H])C([H])([H])C([H])([H])N(C(=O)OC(C([H])([H])[H])(C([H])([H])[H])C([H])([H])[H])C([H])([H])C3([H])[H])c([H])c2[H])c([H])c1[H]


 30 32  0  0  0  0  0  0  0  0999 V2000
  -20.2978   14.9654  -18.9366 N   0  0  0  0  0  0  0  0  0  0  0  0
  -19.9786   14.8711  -19.9167 H   0  0  0  0  0  0  0  0  0  0  0  0
  -19.8022   10.6787  -17.1561 C   0  0  0  0  0  0  0  0  0  0  0  0
  -18.9314    9.8531  -17.5382 O   0  0  0  0  0  0  0  0  0  0  0  0
  -19.7358   11.9984  -17.6773 N   0  0  0  0  0  0  0  0  0  0  0  0
  -20.7345   12.9666  -17.2467 C   0  0  0  0  0  0  0  0  0  0  0  0
  -19.9378   14.1607  -16.7267 C   0  0  0  0  0  0  0  0  0  0  0  0
  -19.2691   14.7585  -17.9525 C   0  0  0  0  0  0  0  0  0  0  0  0
  -18.2536   13.7969  -18.4724 C   0  0  0  0  0  0  0  0  0  0  0  0
  -18.7131   12.3960  -18.6119 C   0  0  0  0  0  0  0  0  0  0  0  0
  -20.8042   10.3437  -16.2587 O   0  0  0  0  0  0  0  0  0  0  0  0
  -19.9220   11.2593  -14.2535 C   0  0  0  0  0  0  0  0  0  0  0  0
  -20.4269   10.0094  -14.9481 C   0  0  0  0  0  0  0  0  0  0  0  0
  -19.2768    9.0121  -14.9442 C   0  0  0  0  0  0  0  0  0  0  0  0
  -21.6051    9.4068  -14.2318 C   0  0  0  0  0  0  0  0  0  0  0  0
  -21.0916   16.4881  -18.7979 S   0  0  0  0  0  0  0  0  0  0  0  0
  -22.2961   16.2825  -17.9206 O   0  0  0  0  0  0  0  0  0  0  0  0
  -20.2085   17.5200  -18.1374 O   0  0  0  0  0  0  0  0  0  0  0  0
  -21.5746   17.0072  -20.4015 C   0  0  0  0  0  0  0  0  0  0  0  0
  -22.8930   17.0073  -20.8089 C   0  0  0  0  0  0  0  0  0  0  0  0
  -23.2319   17.4243  -22.0795 C   0  0  0  0  0  0  0  0  0  0  0  0
  -22.2957   17.8556  -22.9958 C   0  0  0  0  0  0  0  0  0  0  0  0
  -20.9745   17.8596  -22.5989 C   0  0  0  0  0  0  0  0  0  0  0  0
  -20.6379   17.4423  -21.3282 C   0  0  0  0  0  0  0  0  0  0  0  0
  -22.6968   18.2931  -24.3406 C   0  0  0  0  0  0  0  0  0  0  0  0
  -22.4641   19.6013  -24.6638 C   0  0  0  0  0  0  0  0  0  0  0  0
  -22.8248   20.0452  -25.9080 C   0  0  0  0  0  0  0  0  0  0  0  0
  -23.4114   19.2172  -26.8368 C   0  0  0  0  0  0  0  0  0  0  0  0
  -23.6329   17.9095  -26.4847 C   0  0  0  0  0  0  0  0  0  0  0  0
  -23.2836   17.4395  -25.2518 C   0  0  0  0  0  0  0  0  0  0  0  0
 12 13  1  0  0  0
 13 14  1  0  0  0
 13 15  1  0  0  0
 13 11  1  0  0  0
 11  3  1  0  0  0
  3  4  2  0  0  0
  3  5  1  0  0  0
  5  6  1  0  0  0
  6  7  1  0  0  0
  7  8  1  0  0  0
  8  9  1  0  0  0
  9 10  1  0  0  0
  8  1  1  0  0  0
  1 16  1  0  0  0
 16 17  2  0  0  0
 16 18  2  0  0  0
 16 19  1  0  0  0
 19 20  2  0  0  0
 20 21  1  0  0  0
 21 22  2  0  0  0
 22 23  1  0  0  0
 23 24  2  0  0  0
 22 25  1  0  0  0
 25 26  2  0  0  0
 26 27  1  0  0  0
 27 28  2  0  0  0
 28 29  1  0  0  0
 29 30  2  0  0  0
 10  5  1  0  0  0
 24 19  1  0  0  0
 30 25  1  0  0  0
  1  2  1  0  0  0
M  END
> <minimizedAffinity>
-6.82680

> <CNNscore>
0.2990147173

> <CNNaffinity>
5.6461520195

> <CNN_VS>
1.6882826090

> <CNNaffinity_variance>
0.0608835109

$$$$
[H]c1c([H])c([H])c(-c2c([H])c([H])c(S(=O)(=O)N([H])C3([H])C([H])([H])C([H])([H])N(C(=O)OC(C([H])([H])[H])(C([H])([H])[H])C([H])([H])[H])C([H])([H])C3([H])[H])c([H])c2[H])c([H])c1[H]


 30 32  0  0  0  0  0  0  0  0999 V2000
  -18.3301   11.7774  -19.5974 N   0  0  0  0  0  0  0  0  0  0  0  0
  -18.8975   11.0231  -19.1725 H   0  0  0  0  0  0  0  0  0  0  0  0
  -21.5078   14.9888  -18.4220 C   0  0  0  0  0  0  0  0  0  0  0  0
  -22.1732   14.9638  -17.3531 O   0  0  0  0  0  0  0  0  0  0  0  0
  -20.4667   14.0347  -18.5752 N   0  0  0  0  0  0  0  0  0  0  0  0
  -19.6869   14.0486  -19.8048 C   0  0  0  0  0  0  0  0  0  0  0  0
  -18.2307   14.1422  -19.3554 C   0  0  0  0  0  0  0  0  0  0  0  0
  -17.9350   12.8138  -18.6812 C   0  0  0  0  0  0  0  0  0  0  0  0
  -18.7347   12.7149  -17.4255 C   0  0  0  0  0  0  0  0  0  0  0  0
  -20.1681   13.0644  -17.5519 C   0  0  0  0  0  0  0  0  0  0  0  0
  -21.7569   15.9028  -19.4340 O   0  0  0  0  0  0  0  0  0  0  0  0
  -22.5701   18.0667  -18.8922 C   0  0  0  0  0  0  0  0  0  0  0  0
  -21.3508   17.2318  -19.2327 C   0  0  0  0  0  0  0  0  0  0  0  0
  -20.7563   17.8239  -20.5029 C   0  0  0  0  0  0  0  0  0  0  0  0
  -20.3188   17.2742  -18.1384 C   0  0  0  0  0  0  0  0  0  0  0  0
  -17.0071   11.0311  -20.4100 S   0  0  0  0  0  0  0  0  0  0  0  0
  -15.8327   11.0654  -19.4706 O   0  0  0  0  0  0  0  0  0  0  0  0
  -17.2963    9.5852  -20.7368 O   0  0  0  0  0  0  0  0  0  0  0  0
  -16.6639   11.9482  -21.8645 C   0  0  0  0  0  0  0  0  0  0  0  0
  -15.3958   12.0265  -22.4029 C   0  0  0  0  0  0  0  0  0  0  0  0
  -15.1674   12.7584  -23.5499 C   0  0  0  0  0  0  0  0  0  0  0  0
  -16.1688   13.4387  -24.2104 C   0  0  0  0  0  0  0  0  0  0  0  0
  -17.4406   13.3672  -23.6806 C   0  0  0  0  0  0  0  0  0  0  0  0
  -17.6667   12.6350  -22.5340 C   0  0  0  0  0  0  0  0  0  0  0  0
  -15.8854   14.2074  -25.4308 C   0  0  0  0  0  0  0  0  0  0  0  0
  -16.7662   14.0734  -26.4684 C   0  0  0  0  0  0  0  0  0  0  0  0
  -16.5346   14.7741  -27.6219 C   0  0  0  0  0  0  0  0  0  0  0  0
  -15.4472   15.6043  -27.7659 C   0  0  0  0  0  0  0  0  0  0  0  0
  -14.5803   15.7192  -26.7083 C   0  0  0  0  0  0  0  0  0  0  0  0
  -14.7861   15.0328  -25.5466 C   0  0  0  0  0  0  0  0  0  0  0  0
 12 13  1  0  0  0
 13 14  1  0  0  0
 13 15  1  0  0  0
 13 11  1  0  0  0
 11  3  1  0  0  0
  3  4  2  0  0  0
  3  5  1  0  0  0
  5  6  1  0  0  0
  6  7  1  0  0  0
  7  8  1  0  0  0
  8  9  1  0  0  0
  9 10  1  0  0  0
  8  1  1  0  0  0
  1 16  1  0  0  0
 16 17  2  0  0  0
 16 18  2  0  0  0
 16 19  1  0  0  0
 19 20  2  0  0  0
 20 21  1  0  0  0
 21 22  2  0  0  0
 22 23  1  0  0  0
 23 24  2  0  0  0
 22 25  1  0  0  0
 25 26  2  0  0  0
 26 27  1  0  0  0
 27 28  2  0  0  0
 28 29  1  0  0  0
 29 30  2  0  0  0
 10  5  1  0  0  0
 24 19  1  0  0  0
 30 25  1  0  0  0
  1  2  1  0  0  0
M  END
> <minimizedAffinity>
-7.53593

> <CNNscore>
0.2773837149

> <CNNaffinity>
6.3337078094

> <CNN_VS>
1.7568674088

> <CNNaffinity_variance>
0.0959314927

$$$$
[H]c1c([H])c([H])c(-c2c([H])c([H])c(S(=O)(=O)N([H])C3([H])C([H])([H])C([H])([H])N(C(=O)OC(C([H])([H])[H])(C([H])([H])[H])C([H])([H])[H])C([H])([H])C3([H])[H])c([H])c2[H])c([H])c1[H]


 30 32  0  0  0  0  0  0  0  0999 V2000
  -19.8354   10.3746  -15.8664 N   0  0  0  0  0  0  0  0  0  0  0  0
  -19.7928   11.3640  -16.1676 H   0  0  0  0  0  0  0  0  0  0  0  0
  -21.4782   10.2582  -11.4984 C   0  0  0  0  0  0  0  0  0  0  0  0
  -22.2493   11.1270  -11.0120 O   0  0  0  0  0  0  0  0  0  0  0  0
  -21.1846   10.3374  -12.8859 N   0  0  0  0  0  0  0  0  0  0  0  0
  -20.2946    9.3413  -13.4657 C   0  0  0  0  0  0  0  0  0  0  0  0
  -21.0675    8.7489  -14.6417 C   0  0  0  0  0  0  0  0  0  0  0  0
  -21.1673    9.8716  -15.6597 C   0  0  0  0  0  0  0  0  0  0  0  0
  -22.0396   10.9511  -15.1120 C   0  0  0  0  0  0  0  0  0  0  0  0
  -21.7419   11.3698  -13.7232 C   0  0  0  0  0  0  0  0  0  0  0  0
  -20.9186    9.2462  -10.7340 O   0  0  0  0  0  0  0  0  0  0  0  0
  -20.1761   10.9437   -9.2491 C   0  0  0  0  0  0  0  0  0  0  0  0
  -19.8770    9.5864   -9.8558 C   0  0  0  0  0  0  0  0  0  0  0  0
  -18.5542    9.7206  -10.5971 C   0  0  0  0  0  0  0  0  0  0  0  0
  -19.7472    8.5182   -8.8039 C   0  0  0  0  0  0  0  0  0  0  0  0
  -18.9152    9.4530  -16.9941 S   0  0  0  0  0  0  0  0  0  0  0  0
  -17.7307    8.8974  -16.2517 O   0  0  0  0  0  0  0  0  0  0  0  0
  -19.7064    8.2886  -17.5412 O   0  0  0  0  0  0  0  0  0  0  0  0
  -18.3931   10.5200  -18.2837 C   0  0  0  0  0  0  0  0  0  0  0  0
  -18.9676   11.7570  -18.4933 C   0  0  0  0  0  0  0  0  0  0  0  0
  -18.5273   12.5675  -19.5192 C   0  0  0  0  0  0  0  0  0  0  0  0
  -17.5112   12.1984  -20.3756 C   0  0  0  0  0  0  0  0  0  0  0  0
  -16.9297   10.9635  -20.1751 C   0  0  0  0  0  0  0  0  0  0  0  0
  -17.3714   10.1549  -19.1488 C   0  0  0  0  0  0  0  0  0  0  0  0
  -17.0696   13.0907  -21.4569 C   0  0  0  0  0  0  0  0  0  0  0  0
  -16.6232   12.5003  -22.6068 C   0  0  0  0  0  0  0  0  0  0  0  0
  -16.2033   13.2998  -23.6362 C   0  0  0  0  0  0  0  0  0  0  0  0
  -16.2177   14.6725  -23.5470 C   0  0  0  0  0  0  0  0  0  0  0  0
  -16.6707   15.2372  -22.3812 C   0  0  0  0  0  0  0  0  0  0  0  0
  -17.0953   14.4650  -21.3389 C   0  0  0  0  0  0  0  0  0  0  0  0
 12 13  1  0  0  0
 13 14  1  0  0  0
 13 15  1  0  0  0
 13 11  1  0  0  0
 11  3  1  0  0  0
  3  4  2  0  0  0
  3  5  1  0  0  0
  5  6  1  0  0  0
  6  7  1  0  0  0
  7  8  1  0  0  0
  8  9  1  0  0  0
  9 10  1  0  0  0
  8  1  1  0  0  0
  1 16  1  0  0  0
 16 17  2  0  0  0
 16 18  2  0  0  0
 16 19  1  0  0  0
 19 20  2  0  0  0
 20 21  1  0  0  0
 21 22  2  0  0  0
 22 23  1  0  0  0
 23 24  2  0  0  0
 22 25  1  0  0  0
 25 26  2  0  0  0
 26 27  1  0  0  0
 27 28  2  0  0  0
 28 29  1  0  0  0
 29 30  2  0  0  0
 10  5  1  0  0  0
 24 19  1  0  0  0
 30 25  1  0  0  0
  1  2  1  0  0  0
M  END
> <minimizedAffinity>
-6.89299

> <CNNscore>
0.2723589838

> <CNNaffinity>
5.5843420029

> <CNN_VS>
1.5209456682

> <CNNaffinity_variance>
0.1605759263

$$$$
[H]c1c([H])c([H])c(-c2c([H])c([H])c(S(=O)(=O)N([H])C3([H])C([H])([H])C([H])([H])N(C(=O)OC(C([H])([H])[H])(C([H])([H])[H])C([H])([H])[H])C([H])([H])C3([H])[H])c([H])c2[H])c([H])c1[H]


 30 32  0  0  0  0  0  0  0  0999 V2000
  -18.7444   11.9594  -18.8774 N   0  0  0  0  0  0  0  0  0  0  0  0
  -19.5080   11.2628  -18.9327 H   0  0  0  0  0  0  0  0  0  0  0  0
  -21.6237   15.3338  -17.4233 C   0  0  0  0  0  0  0  0  0  0  0  0
  -22.6056   15.1416  -16.6585 O   0  0  0  0  0  0  0  0  0  0  0  0
  -20.7439   14.2434  -17.6565 N   0  0  0  0  0  0  0  0  0  0  0  0
  -19.6032   14.4472  -18.5383 C   0  0  0  0  0  0  0  0  0  0  0  0
  -18.3857   14.0108  -17.7269 C   0  0  0  0  0  0  0  0  0  0  0  0
  -18.5323   12.5078  -17.5645 C   0  0  0  0  0  0  0  0  0  0  0  0
  -19.7128   12.2233  -16.6975 C   0  0  0  0  0  0  0  0  0  0  0  0
  -20.9525   12.9543  -17.0463 C   0  0  0  0  0  0  0  0  0  0  0  0
  -21.3811   16.5552  -18.0323 O   0  0  0  0  0  0  0  0  0  0  0  0
  -19.6656   18.1967  -18.0134 C   0  0  0  0  0  0  0  0  0  0  0  0
  -20.8216   17.5788  -17.2507 C   0  0  0  0  0  0  0  0  0  0  0  0
  -20.2453   17.0282  -15.9538 C   0  0  0  0  0  0  0  0  0  0  0  0
  -21.8854   18.5926  -16.9269 C   0  0  0  0  0  0  0  0  0  0  0  0
  -17.3377   11.2368  -19.5607 S   0  0  0  0  0  0  0  0  0  0  0  0
  -16.2286   11.3872  -18.5558 O   0  0  0  0  0  0  0  0  0  0  0  0
  -17.5353    9.7611  -19.8148 O   0  0  0  0  0  0  0  0  0  0  0  0
  -16.9474   12.0839  -21.0454 C   0  0  0  0  0  0  0  0  0  0  0  0
  -17.5473   13.2775  -21.3911 C   0  0  0  0  0  0  0  0  0  0  0  0
  -17.2118   13.9133  -22.5685 C   0  0  0  0  0  0  0  0  0  0  0  0
  -16.2792   13.4059  -23.4488 C   0  0  0  0  0  0  0  0  0  0  0  0
  -15.6732   12.2129  -23.1131 C   0  0  0  0  0  0  0  0  0  0  0  0
  -16.0102   11.5790  -21.9355 C   0  0  0  0  0  0  0  0  0  0  0  0
  -15.9482   14.1139  -24.6937 C   0  0  0  0  0  0  0  0  0  0  0  0
  -14.7538   14.7788  -24.7319 C   0  0  0  0  0  0  0  0  0  0  0  0
  -14.4115   15.4502  -25.8753 C   0  0  0  0  0  0  0  0  0  0  0  0
  -15.2303   15.4747  -26.9804 C   0  0  0  0  0  0  0  0  0  0  0  0
  -16.4226   14.7986  -26.9134 C   0  0  0  0  0  0  0  0  0  0  0  0
  -16.7898   14.1210  -25.7869 C   0  0  0  0  0  0  0  0  0  0  0  0
 12 13  1  0  0  0
 13 14  1  0  0  0
 13 15  1  0  0  0
 13 11  1  0  0  0
 11  3  1  0  0  0
  3  4  2  0  0  0
  3  5  1  0  0  0
  5  6  1  0  0  0
  6  7  1  0  0  0
  7  8  1  0  0  0
  8  9  1  0  0  0
  9 10  1  0  0  0
  8  1  1  0  0  0
  1 16  1  0  0  0
 16 17  2  0  0  0
 16 18  2  0  0  0
 16 19  1  0  0  0
 19 20  2  0  0  0
 20 21  1  0  0  0
 21 22  2  0  0  0
 22 23  1  0  0  0
 23 24  2  0  0  0
 22 25  1  0  0  0
 25 26  2  0  0  0
 26 27  1  0  0  0
 27 28  2  0  0  0
 28 29  1  0  0  0
 29 30  2  0  0  0
 10  5  1  0  0  0
 24 19  1  0  0  0
 30 25  1  0  0  0
  1  2  1  0  0  0
M  END
> <minimizedAffinity>
-7.72621

> <CNNscore>
0.2528726161

> <CNNaffinity>
6.2905197144

> <CNN_VS>
1.5907001495

> <CNNaffinity_variance>
0.0617462918

$$$$
[H]c1c([H])c([H])c(-c2c([H])c([H])c(S(=O)(=O)N([H])C3([H])C([H])([H])C([H])([H])N(C(=O)OC(C([H])([H])[H])(C([H])([H])[H])C([H])([H])[H])C([H])([H])C3([H])[H])c([H])c2[H])c([H])c1[H]


 30 32  0  0  0  0  0  0  0  0999 V2000
  -17.3559   16.8604  -19.0747 N   0  0  0  0  0  0  0  0  0  0  0  0
  -16.8439   17.2374  -18.2579 H   0  0  0  0  0  0  0  0  0  0  0  0
  -18.8621   12.6332  -17.7886 C   0  0  0  0  0  0  0  0  0  0  0  0
  -19.1326   12.3124  -16.6012 O   0  0  0  0  0  0  0  0  0  0  0  0
  -18.5649   13.9966  -18.0538 N   0  0  0  0  0  0  0  0  0  0  0  0
  -18.2496   14.3859  -19.4210 C   0  0  0  0  0  0  0  0  0  0  0  0
  -19.2098   15.5281  -19.7446 C   0  0  0  0  0  0  0  0  0  0  0  0
  -18.7677   16.6829  -18.8627 C   0  0  0  0  0  0  0  0  0  0  0  0
  -19.0281   16.3347  -17.4354 C   0  0  0  0  0  0  0  0  0  0  0  0
  -18.5690   14.9922  -17.0114 C   0  0  0  0  0  0  0  0  0  0  0  0
  -18.8464   11.7122  -18.8245 O   0  0  0  0  0  0  0  0  0  0  0  0
  -18.0798    9.5972  -18.0652 C   0  0  0  0  0  0  0  0  0  0  0  0
  -17.7609   10.8244  -18.8971 C   0  0  0  0  0  0  0  0  0  0  0  0
  -16.5039   11.4423  -18.3009 C   0  0  0  0  0  0  0  0  0  0  0  0
  -17.5031   10.4738  -20.3376 C   0  0  0  0  0  0  0  0  0  0  0  0
  -16.9796   17.8617  -20.4251 S   0  0  0  0  0  0  0  0  0  0  0  0
  -18.0366   18.9297  -20.4941 O   0  0  0  0  0  0  0  0  0  0  0  0
  -15.6424   18.5438  -20.2591 O   0  0  0  0  0  0  0  0  0  0  0  0
  -17.0051   16.8707  -21.8714 C   0  0  0  0  0  0  0  0  0  0  0  0
  -17.7777   17.1906  -22.9690 C   0  0  0  0  0  0  0  0  0  0  0  0
  -17.7692   16.3847  -24.0887 C   0  0  0  0  0  0  0  0  0  0  0  0
  -17.0061   15.2391  -24.1754 C   0  0  0  0  0  0  0  0  0  0  0  0
  -16.2297   14.9099  -23.0835 C   0  0  0  0  0  0  0  0  0  0  0  0
  -16.2398   15.7170  -21.9653 C   0  0  0  0  0  0  0  0  0  0  0  0
  -17.0235   14.4066  -25.3867 C   0  0  0  0  0  0  0  0  0  0  0  0
  -16.5876   14.9866  -26.5458 C   0  0  0  0  0  0  0  0  0  0  0  0
  -16.5897   14.2417  -27.6949 C   0  0  0  0  0  0  0  0  0  0  0  0
  -17.0156   12.9338  -27.7162 C   0  0  0  0  0  0  0  0  0  0  0  0
  -17.4476   12.3781  -26.5382 C   0  0  0  0  0  0  0  0  0  0  0  0
  -17.4565   13.0967  -25.3778 C   0  0  0  0  0  0  0  0  0  0  0  0
 12 13  1  0  0  0
 13 14  1  0  0  0
 13 15  1  0  0  0
 13 11  1  0  0  0
 11  3  1  0  0  0
  3  4  2  0  0  0
  3  5  1  0  0  0
  5  6  1  0  0  0
  6  7  1  0  0  0
  7  8  1  0  0  0
  8  9  1  0  0  0
  9 10  1  0  0  0
  8  1  1  0  0  0
  1 16  1  0  0  0
 16 17  2  0  0  0
 16 18  2  0  0  0
 16 19  1  0  0  0
 19 20  2  0  0  0
 20 21  1  0  0  0
 21 22  2  0  0  0
 22 23  1  0  0  0
 23 24  2  0  0  0
 22 25  1  0  0  0
 25 26  2  0  0  0
 26 27  1  0  0  0
 27 28  2  0  0  0
 28 29  1  0  0  0
 29 30  2  0  0  0
 10  5  1  0  0  0
 24 19  1  0  0  0
 30 25  1  0  0  0
  1  2  1  0  0  0
M  END
> <minimizedAffinity>
-7.63865

> <CNNscore>
0.2475151420

> <CNNaffinity>
6.4323110580

> <CNN_VS>
1.5920944214

> <CNNaffinity_variance>
0.1141162887

$$$$
[H]c1c([H])c([H])c(-c2c([H])c([H])c(S(=O)(=O)N([H])C3([H])C([H])([H])C([H])([H])N(C(=O)OC(C([H])([H])[H])(C([H])([H])[H])C([H])([H])[H])C([H])([H])C3([H])[H])c([H])c2[H])c([H])c1[H]


 30 32  0  0  0  0  0  0  0  0999 V2000
  -19.0453   13.8421  -18.4097 N   0  0  0  0  0  0  0  0  0  0  0  0
  -18.7124   14.7373  -18.8087 H   0  0  0  0  0  0  0  0  0  0  0  0
  -21.7344   17.6274  -18.8910 C   0  0  0  0  0  0  0  0  0  0  0  0
  -22.2190   18.0130  -19.9876 O   0  0  0  0  0  0  0  0  0  0  0  0
  -21.0659   16.3744  -18.8678 N   0  0  0  0  0  0  0  0  0  0  0  0
  -20.4991   15.9125  -17.6086 C   0  0  0  0  0  0  0  0  0  0  0  0
  -21.0860   14.5199  -17.3913 C   0  0  0  0  0  0  0  0  0  0  0  0
  -20.4700   13.6536  -18.4761 C   0  0  0  0  0  0  0  0  0  0  0  0
  -20.9808   14.0991  -19.8053 C   0  0  0  0  0  0  0  0  0  0  0  0
  -20.9380   15.5590  -20.0495 C   0  0  0  0  0  0  0  0  0  0  0  0
  -21.8327   18.3758  -17.7283 O   0  0  0  0  0  0  0  0  0  0  0  0
  -22.8441   18.2411  -15.5844 C   0  0  0  0  0  0  0  0  0  0  0  0
  -23.0744   18.4114  -17.0736 C   0  0  0  0  0  0  0  0  0  0  0  0
  -23.9618   17.2556  -17.5139 C   0  0  0  0  0  0  0  0  0  0  0  0
  -23.7638   19.7112  -17.3893 C   0  0  0  0  0  0  0  0  0  0  0  0
  -18.1448   12.5784  -19.1579 S   0  0  0  0  0  0  0  0  0  0  0  0
  -17.0251   12.2163  -18.2209 O   0  0  0  0  0  0  0  0  0  0  0  0
  -18.9873   11.3432  -19.3715 O   0  0  0  0  0  0  0  0  0  0  0  0
  -17.5105   13.1779  -20.6786 C   0  0  0  0  0  0  0  0  0  0  0  0
  -17.3305   14.5243  -20.9212 C   0  0  0  0  0  0  0  0  0  0  0  0
  -16.8278   14.9555  -22.1314 C   0  0  0  0  0  0  0  0  0  0  0  0
  -16.4835   14.0873  -23.1462 C   0  0  0  0  0  0  0  0  0  0  0  0
  -16.6595   12.7387  -22.9143 C   0  0  0  0  0  0  0  0  0  0  0  0
  -17.1622   12.3099  -21.7037 C   0  0  0  0  0  0  0  0  0  0  0  0
  -15.9501   14.5859  -24.4219 C   0  0  0  0  0  0  0  0  0  0  0  0
  -14.5982   14.7779  -24.4977 C   0  0  0  0  0  0  0  0  0  0  0  0
  -14.0649   15.2419  -25.6705 C   0  0  0  0  0  0  0  0  0  0  0  0
  -14.8460   15.5188  -26.7685 C   0  0  0  0  0  0  0  0  0  0  0  0
  -16.1993   15.3167  -26.6634 C   0  0  0  0  0  0  0  0  0  0  0  0
  -16.7584   14.8551  -25.5070 C   0  0  0  0  0  0  0  0  0  0  0  0
 12 13  1  0  0  0
 13 14  1  0  0  0
 13 15  1  0  0  0
 13 11  1  0  0  0
 11  3  1  0  0  0
  3  4  2  0  0  0
  3  5  1  0  0  0
  5  6  1  0  0  0
  6  7  1  0  0  0
  7  8  1  0  0  0
  8  9  1  0  0  0
  9 10  1  0  0  0
  8  1  1  0  0  0
  1 16  1  0  0  0
 16 17  2  0  0  0
 16 18  2  0  0  0
 16 19  1  0  0  0
 19 20  2  0  0  0
 20 21  1  0  0  0
 21 22  2  0  0  0
 22 23  1  0  0  0
 23 24  2  0  0  0
 22 25  1  0  0  0
 25 26  2  0  0  0
 26 27  1  0  0  0
 27 28  2  0  0  0
 28 29  1  0  0  0
 29 30  2  0  0  0
 10  5  1  0  0  0
 24 19  1  0  0  0
 30 25  1  0  0  0
  1  2  1  0  0  0
M  END
> <minimizedAffinity>
-7.05351

> <CNNscore>
0.2383016199

> <CNNaffinity>
6.0571784973

> <CNN_VS>
1.4434354305

> <CNNaffinity_variance>
0.0853738338

$$$$
[H]c1c([H])c([H])c(-c2c([H])c([H])c(S(=O)(=O)N([H])C3([H])C([H])([H])C([H])([H])N(C(=O)OC(C([H])([H])[H])(C([H])([H])[H])C([H])([H])[H])C([H])([H])C3([H])[H])c([H])c2[H])c([H])c1[H]


 30 32  0  0  0  0  0  0  0  0999 V2000
  -18.4970   13.8581  -18.4506 N   0  0  0  0  0  0  0  0  0  0  0  0
  -18.1218   14.7142  -18.8952 H   0  0  0  0  0  0  0  0  0  0  0  0
  -20.8656   17.6752  -19.7199 C   0  0  0  0  0  0  0  0  0  0  0  0
  -21.4928   17.7868  -20.8063 O   0  0  0  0  0  0  0  0  0  0  0  0
  -20.3223   16.4029  -19.3979 N   0  0  0  0  0  0  0  0  0  0  0  0
  -19.5937   16.2552  -18.1458 C   0  0  0  0  0  0  0  0  0  0  0  0
  -20.2615   15.0843  -17.4288 C   0  0  0  0  0  0  0  0  0  0  0  0
  -19.9233   13.8606  -18.2625 C   0  0  0  0  0  0  0  0  0  0  0  0
  -20.6104   13.9644  -19.5829 C   0  0  0  0  0  0  0  0  0  0  0  0
  -20.4747   15.2676  -20.2729 C   0  0  0  0  0  0  0  0  0  0  0  0
  -20.6936   18.7373  -18.8459 O   0  0  0  0  0  0  0  0  0  0  0  0
  -19.2440   20.4259  -18.0183 C   0  0  0  0  0  0  0  0  0  0  0  0
  -19.8597   19.7920  -19.2507 C   0  0  0  0  0  0  0  0  0  0  0  0
  -20.6551   20.8837  -19.9529 C   0  0  0  0  0  0  0  0  0  0  0  0
  -18.8118   19.2620  -20.1917 C   0  0  0  0  0  0  0  0  0  0  0  0
  -17.9214   12.5118  -19.3583 S   0  0  0  0  0  0  0  0  0  0  0  0
  -16.7836   11.9069  -18.5823 O   0  0  0  0  0  0  0  0  0  0  0  0
  -18.9854   11.4524  -19.5215 O   0  0  0  0  0  0  0  0  0  0  0  0
  -17.3681   13.0929  -20.9173 C   0  0  0  0  0  0  0  0  0  0  0  0
  -17.1509   12.2448  -21.9839 C   0  0  0  0  0  0  0  0  0  0  0  0
  -16.7159   12.7420  -23.1951 C   0  0  0  0  0  0  0  0  0  0  0  0
  -16.4781   14.0839  -23.4066 C   0  0  0  0  0  0  0  0  0  0  0  0
  -16.6920   14.9408  -22.3467 C   0  0  0  0  0  0  0  0  0  0  0  0
  -17.1269   14.4416  -21.1369 C   0  0  0  0  0  0  0  0  0  0  0  0
  -16.0156   14.5751  -24.7125 C   0  0  0  0  0  0  0  0  0  0  0  0
  -16.8563   14.3979  -25.7765 C   0  0  0  0  0  0  0  0  0  0  0  0
  -16.4591   14.8425  -27.0092 C   0  0  0  0  0  0  0  0  0  0  0  0
  -15.2453   15.4590  -27.2067 C   0  0  0  0  0  0  0  0  0  0  0  0
  -14.4224   15.6232  -26.1209 C   0  0  0  0  0  0  0  0  0  0  0  0
  -14.7921   15.1899  -24.8806 C   0  0  0  0  0  0  0  0  0  0  0  0
 12 13  1  0  0  0
 13 14  1  0  0  0
 13 15  1  0  0  0
 13 11  1  0  0  0
 11  3  1  0  0  0
  3  4  2  0  0  0
  3  5  1  0  0  0
  5  6  1  0  0  0
  6  7  1  0  0  0
  7  8  1  0  0  0
  8  9  1  0  0  0
  9 10  1  0  0  0
  8  1  1  0  0  0
  1 16  1  0  0  0
 16 17  2  0  0  0
 16 18  2  0  0  0
 16 19  1  0  0  0
 19 20  2  0  0  0
 20 21  1  0  0  0
 21 22  2  0  0  0
 22 23  1  0  0  0
 23 24  2  0  0  0
 22 25  1  0  0  0
 25 26  2  0  0  0
 26 27  1  0  0  0
 27 28  2  0  0  0
 28 29  1  0  0  0
 29 30  2  0  0  0
 10  5  1  0  0  0
 24 19  1  0  0  0
 30 25  1  0  0  0
  1  2  1  0  0  0
M  END
> <minimizedAffinity>
-7.40345

> <CNNscore>
0.2143816054

> <CNNaffinity>
6.2049789429

> <CNN_VS>
1.3302333355

> <CNNaffinity_variance>
0.0672150701

$$$$
[H]c1nc(N([H])c2c([H])c([H])c(N3C([H])([H])C([H])([H])C([H])([H])[C@@]3([H])C#N)c([H])c2OC([H])([H])[H])nc(N([H])c2c([H])c([H])c([H])c([H])c2S(=O)(=O)C([H])(C([H])([H])[H])C([H])([H])[H])c1Cl


 38 41  0  0  0  0  0  0  0  0999 V2000
  -17.2905   10.3533  -19.3203 C   0  0  0  0  0  0  0  0  0  0  0  0
  -16.3106    9.8355  -20.0513 N   0  0  0  0  0  0  0  0  0  0  0  0
  -15.8231   10.4075  -21.1602 C   0  0  0  0  0  0  0  0  0  0  0  0
  -16.3579   11.5911  -21.5709 C   0  0  0  0  0  0  0  0  0  0  0  0
  -15.7268   12.3587  -23.0306 Cl  0  0  0  0  0  0  0  0  0  0  0  0
  -17.3915   12.1913  -20.8484 C   0  0  0  0  0  0  0  0  0  0  0  0
  -17.7943   11.5416  -19.7729 N   0  0  0  0  0  0  0  0  0  0  0  0
  -17.8467    9.7992  -18.1437 N   0  0  0  0  0  0  0  0  0  0  0  0
  -17.4406    8.8617  -17.8013 H   0  0  0  0  0  0  0  0  0  0  0  0
  -19.5307    9.5067  -16.4949 C   0  0  0  0  0  0  0  0  0  0  0  0
  -20.5468    9.9621  -15.7053 C   0  0  0  0  0  0  0  0  0  0  0  0
  -20.9867   11.2695  -15.7260 C   0  0  0  0  0  0  0  0  0  0  0  0
  -20.3309   12.1018  -16.6033 C   0  0  0  0  0  0  0  0  0  0  0  0
  -19.2832   11.6488  -17.4226 C   0  0  0  0  0  0  0  0  0  0  0  0
  -18.8748   10.3457  -17.3744 C   0  0  0  0  0  0  0  0  0  0  0  0
  -22.0375   11.7598  -14.9169 N   0  0  0  0  0  0  0  0  0  0  0  0
  -22.4408   13.1417  -14.8132 C   0  0  0  0  0  0  0  0  0  0  0  0
  -22.6259   13.2784  -13.2949 C   0  0  0  0  0  0  0  0  0  0  0  0
  -23.3703   11.9937  -12.9840 C   0  0  0  0  0  0  0  0  0  0  0  0
  -22.9090   11.0192  -14.0503 C   0  0  0  0  0  0  0  0  0  0  0  0
  -24.0726   10.4670  -14.7632 C   0  0  0  0  0  0  0  0  0  0  0  0
  -24.9717   10.0367  -15.3366 N   0  0  0  0  0  0  0  0  0  0  0  0
  -19.5979    7.3550  -15.3468 C   0  0  0  0  0  0  0  0  0  0  0  0
  -19.1638    8.1880  -16.4032 O   0  0  0  0  0  0  0  0  0  0  0  0
  -17.9081   13.4063  -21.3279 N   0  0  0  0  0  0  0  0  0  0  0  0
  -17.4061   13.8022  -22.1888 H   0  0  0  0  0  0  0  0  0  0  0  0
  -18.9647   14.1917  -20.8453 C   0  0  0  0  0  0  0  0  0  0  0  0
  -20.1120   13.6493  -20.3319 C   0  0  0  0  0  0  0  0  0  0  0  0
  -21.1564   14.4401  -19.8108 C   0  0  0  0  0  0  0  0  0  0  0  0
  -20.9954   15.7846  -19.8294 C   0  0  0  0  0  0  0  0  0  0  0  0
  -19.8578   16.3393  -20.3379 C   0  0  0  0  0  0  0  0  0  0  0  0
  -18.8292   15.5731  -20.8514 C   0  0  0  0  0  0  0  0  0  0  0  0
  -17.4611   16.3943  -21.4987 S   0  0  0  0  0  0  0  0  0  0  0  0
  -17.2782   17.7465  -20.7817 O   0  0  0  0  0  0  0  0  0  0  0  0
  -16.1956   15.6141  -21.2074 O   0  0  0  0  0  0  0  0  0  0  0  0
  -17.5537   16.7550  -23.2160 C   0  0  0  0  0  0  0  0  0  0  0  0
  -16.1951   16.4640  -23.8424 C   0  0  0  0  0  0  0  0  0  0  0  0
  -18.5686   15.8145  -23.8639 C   0  0  0  0  0  0  0  0  0  0  0  0
 23 24  1  0  0  0
 24 10  1  0  0  0
 10 11  2  0  0  0
 11 12  1  0  0  0
 12 13  2  0  0  0
 13 14  1  0  0  0
 14 15  2  0  0  0
 15  8  1  0  0  0
  8  1  1  0  0  0
  1  2  2  0  0  0
  2  3  1  0  0  0
  3  4  2  0  0  0
  4  5  1  0  0  0
  4  6  1  0  0  0
  6 25  1  0  0  0
 25 27  1  0  0  0
 27 28  2  0  0  0
 28 29  1  0  0  0
 29 30  2  0  0  0
 30 31  1  0  0  0
 31 32  2  0  0  0
 32 33  1  0  0  0
 33 34  2  0  0  0
 33 35  2  0  0  0
 33 36  1  0  0  0
 36 37  1  0  0  0
 36 38  1  0  0  0
  6  7  2  0  0  0
 12 16  1  0  0  0
 16 17  1  0  0  0
 17 18  1  0  0  0
 18 19  1  0  0  0
 19 20  1  0  0  0
 20 21  1  0  0  0
 21 22  3  0  0  0
 15 10  1  0  0  0
  7  1  1  0  0  0
 20 16  1  0  0  0
 32 27  1  0  0  0
  8  9  1  0  0  0
 25 26  1  0  0  0
M  END
> <minimizedAffinity>
-8.04980

> <CNNscore>
0.7569119334

> <CNNaffinity>
7.7082152367

> <CNN_VS>
5.8344402313

> <CNNaffinity_variance>
0.0516528599

$$$$
[H]c1nc(N([H])c2c([H])c([H])c(N3C([H])([H])C([H])([H])C([H])([H])[C@@]3([H])C#N)c([H])c2OC([H])([H])[H])nc(N([H])c2c([H])c([H])c([H])c([H])c2S(=O)(=O)C([H])(C([H])([H])[H])C([H])([H])[H])c1Cl


 38 41  0  0  0  0  0  0  0  0999 V2000
  -18.0952   11.2993  -19.1951 C   0  0  0  0  0  0  0  0  0  0  0  0
  -17.1513   10.3709  -19.2950 N   0  0  0  0  0  0  0  0  0  0  0  0
  -16.2408   10.3338  -20.2768 C   0  0  0  0  0  0  0  0  0  0  0  0
  -16.2767   11.3014  -21.2348 C   0  0  0  0  0  0  0  0  0  0  0  0
  -15.0835   11.2672  -22.5361 Cl  0  0  0  0  0  0  0  0  0  0  0  0
  -17.2436   12.3084  -21.1902 C   0  0  0  0  0  0  0  0  0  0  0  0
  -18.0902   12.2486  -20.1798 N   0  0  0  0  0  0  0  0  0  0  0  0
  -19.0817   11.3922  -18.1857 N   0  0  0  0  0  0  0  0  0  0  0  0
  -19.7664   12.2223  -18.2412 H   0  0  0  0  0  0  0  0  0  0  0  0
  -19.7969   11.0240  -15.9511 C   0  0  0  0  0  0  0  0  0  0  0  0
  -20.0058   10.2311  -14.8599 C   0  0  0  0  0  0  0  0  0  0  0  0
  -19.7035    8.8852  -14.8398 C   0  0  0  0  0  0  0  0  0  0  0  0
  -19.1703    8.3799  -16.0028 C   0  0  0  0  0  0  0  0  0  0  0  0
  -18.9491    9.1826  -17.1347 C   0  0  0  0  0  0  0  0  0  0  0  0
  -19.2613   10.5128  -17.1171 C   0  0  0  0  0  0  0  0  0  0  0  0
  -19.9117    8.0479  -13.7195 N   0  0  0  0  0  0  0  0  0  0  0  0
  -19.8155    8.4560  -12.3385 C   0  0  0  0  0  0  0  0  0  0  0  0
  -19.0288    7.2802  -11.7410 C   0  0  0  0  0  0  0  0  0  0  0  0
  -19.7382    6.1066  -12.3896 C   0  0  0  0  0  0  0  0  0  0  0  0
  -20.2554    6.6548  -13.7055 C   0  0  0  0  0  0  0  0  0  0  0  0
  -21.7074    6.4341  -13.8054 C   0  0  0  0  0  0  0  0  0  0  0  0
  -22.8391    6.2536  -13.9007 N   0  0  0  0  0  0  0  0  0  0  0  0
  -21.4270   12.7872  -15.5193 C   0  0  0  0  0  0  0  0  0  0  0  0
  -20.1297   12.3527  -15.8750 O   0  0  0  0  0  0  0  0  0  0  0  0
  -17.2353   13.2721  -22.2119 N   0  0  0  0  0  0  0  0  0  0  0  0
  -17.4766   12.8982  -23.1876 H   0  0  0  0  0  0  0  0  0  0  0  0
  -16.9421   14.6423  -22.1589 C   0  0  0  0  0  0  0  0  0  0  0  0
  -16.9629   15.3561  -20.9910 C   0  0  0  0  0  0  0  0  0  0  0  0
  -16.6292   16.7248  -20.9338 C   0  0  0  0  0  0  0  0  0  0  0  0
  -16.2777   17.3343  -22.0909 C   0  0  0  0  0  0  0  0  0  0  0  0
  -16.2526   16.6359  -23.2621 C   0  0  0  0  0  0  0  0  0  0  0  0
  -16.5785   15.2950  -23.3287 C   0  0  0  0  0  0  0  0  0  0  0  0
  -16.5448   14.5353  -24.8737 S   0  0  0  0  0  0  0  0  0  0  0  0
  -15.6263   13.2983  -24.8256 O   0  0  0  0  0  0  0  0  0  0  0  0
  -17.9178   13.9992  -25.2239 O   0  0  0  0  0  0  0  0  0  0  0  0
  -15.9487   15.5419  -26.1848 C   0  0  0  0  0  0  0  0  0  0  0  0
  -14.4252   15.5241  -26.1503 C   0  0  0  0  0  0  0  0  0  0  0  0
  -16.3848   14.9295  -27.5149 C   0  0  0  0  0  0  0  0  0  0  0  0
 23 24  1  0  0  0
 24 10  1  0  0  0
 10 11  2  0  0  0
 11 12  1  0  0  0
 12 13  2  0  0  0
 13 14  1  0  0  0
 14 15  2  0  0  0
 15  8  1  0  0  0
  8  1  1  0  0  0
  1  2  2  0  0  0
  2  3  1  0  0  0
  3  4  2  0  0  0
  4  5  1  0  0  0
  4  6  1  0  0  0
  6 25  1  0  0  0
 25 27  1  0  0  0
 27 28  2  0  0  0
 28 29  1  0  0  0
 29 30  2  0  0  0
 30 31  1  0  0  0
 31 32  2  0  0  0
 32 33  1  0  0  0
 33 34  2  0  0  0
 33 35  2  0  0  0
 33 36  1  0  0  0
 36 37  1  0  0  0
 36 38  1  0  0  0
  6  7  2  0  0  0
 12 16  1  0  0  0
 16 17  1  0  0  0
 17 18  1  0  0  0
 18 19  1  0  0  0
 19 20  1  0  0  0
 20 21  1  0  0  0
 21 22  3  0  0  0
 15 10  1  0  0  0
  7  1  1  0  0  0
 20 16  1  0  0  0
 32 27  1  0  0  0
  8  9  1  0  0  0
 25 26  1  0  0  0
M  END
> <minimizedAffinity>
-8.60790

> <CNNscore>
0.5329518914

> <CNNaffinity>
7.6076583862

> <CNN_VS>
4.0545158386

> <CNNaffinity_variance>
0.0491662323

$$$$
[H]c1nc(N([H])c2c([H])c([H])c(N3C([H])([H])C([H])([H])C([H])([H])[C@@]3([H])C#N)c([H])c2OC([H])([H])[H])nc(N([H])c2c([H])c([H])c([H])c([H])c2S(=O)(=O)C([H])(C([H])([H])[H])C([H])([H])[H])c1Cl


 38 41  0  0  0  0  0  0  0  0999 V2000
  -19.2831   10.7834  -17.5109 C   0  0  0  0  0  0  0  0  0  0  0  0
  -18.2163   10.0475  -17.7992 N   0  0  0  0  0  0  0  0  0  0  0  0
  -17.3867   10.3019  -18.8198 C   0  0  0  0  0  0  0  0  0  0  0  0
  -17.6441   11.3773  -19.6153 C   0  0  0  0  0  0  0  0  0  0  0  0
  -16.5603   11.7269  -20.9649 Cl  0  0  0  0  0  0  0  0  0  0  0  0
  -18.7499   12.1940  -19.3683 C   0  0  0  0  0  0  0  0  0  0  0  0
  -19.4992   11.8514  -18.3377 N   0  0  0  0  0  0  0  0  0  0  0  0
  -20.1941   10.5669  -16.4508 N   0  0  0  0  0  0  0  0  0  0  0  0
  -21.2425   10.5479  -16.6986 H   0  0  0  0  0  0  0  0  0  0  0  0
  -19.6841    9.0756  -14.6742 C   0  0  0  0  0  0  0  0  0  0  0  0
  -19.3664    8.8001  -13.3756 C   0  0  0  0  0  0  0  0  0  0  0  0
  -19.2129    9.7789  -12.4156 C   0  0  0  0  0  0  0  0  0  0  0  0
  -19.4015   11.0703  -12.8501 C   0  0  0  0  0  0  0  0  0  0  0  0
  -19.7287   11.3706  -14.1831 C   0  0  0  0  0  0  0  0  0  0  0  0
  -19.8727   10.3737  -15.1065 C   0  0  0  0  0  0  0  0  0  0  0  0
  -18.8850    9.5137  -11.0659 N   0  0  0  0  0  0  0  0  0  0  0  0
  -18.4733   10.4983  -10.0942 C   0  0  0  0  0  0  0  0  0  0  0  0
  -17.3033    9.7690   -9.4177 C   0  0  0  0  0  0  0  0  0  0  0  0
  -17.8949    8.3826   -9.2472 C   0  0  0  0  0  0  0  0  0  0  0  0
  -18.8902    8.2513  -10.3837 C   0  0  0  0  0  0  0  0  0  0  0  0
  -20.2185    7.9071   -9.8506 C   0  0  0  0  0  0  0  0  0  0  0  0
  -21.2477    7.6302   -9.4188 N   0  0  0  0  0  0  0  0  0  0  0  0
  -20.8369    7.0639  -15.4338 C   0  0  0  0  0  0  0  0  0  0  0  0
  -19.8156    8.0336  -15.5568 O   0  0  0  0  0  0  0  0  0  0  0  0
  -18.9678   13.2819  -20.2296 N   0  0  0  0  0  0  0  0  0  0  0  0
  -19.5330   13.0535  -21.1118 H   0  0  0  0  0  0  0  0  0  0  0  0
  -18.5457   14.6150  -20.1255 C   0  0  0  0  0  0  0  0  0  0  0  0
  -17.2902   15.0214  -20.4896 C   0  0  0  0  0  0  0  0  0  0  0  0
  -16.8808   16.3688  -20.4216 C   0  0  0  0  0  0  0  0  0  0  0  0
  -17.7813   17.2771  -19.9764 C   0  0  0  0  0  0  0  0  0  0  0  0
  -19.0358   16.8868  -19.6100 C   0  0  0  0  0  0  0  0  0  0  0  0
  -19.4462   15.5691  -19.6723 C   0  0  0  0  0  0  0  0  0  0  0  0
  -21.0433   15.1989  -19.1456 S   0  0  0  0  0  0  0  0  0  0  0  0
  -21.9405   16.4442  -19.2889 O   0  0  0  0  0  0  0  0  0  0  0  0
  -21.6642   14.1540  -20.0500 O   0  0  0  0  0  0  0  0  0  0  0  0
  -21.1741   14.6865  -17.4700 C   0  0  0  0  0  0  0  0  0  0  0  0
  -19.9564   15.2029  -16.7128 C   0  0  0  0  0  0  0  0  0  0  0  0
  -22.4097   15.3369  -16.8498 C   0  0  0  0  0  0  0  0  0  0  0  0
 23 24  1  0  0  0
 24 10  1  0  0  0
 10 11  2  0  0  0
 11 12  1  0  0  0
 12 13  2  0  0  0
 13 14  1  0  0  0
 14 15  2  0  0  0
 15  8  1  0  0  0
  8  1  1  0  0  0
  1  2  2  0  0  0
  2  3  1  0  0  0
  3  4  2  0  0  0
  4  5  1  0  0  0
  4  6  1  0  0  0
  6 25  1  0  0  0
 25 27  1  0  0  0
 27 28  2  0  0  0
 28 29  1  0  0  0
 29 30  2  0  0  0
 30 31  1  0  0  0
 31 32  2  0  0  0
 32 33  1  0  0  0
 33 34  2  0  0  0
 33 35  2  0  0  0
 33 36  1  0  0  0
 36 37  1  0  0  0
 36 38  1  0  0  0
  6  7  2  0  0  0
 12 16  1  0  0  0
 16 17  1  0  0  0
 17 18  1  0  0  0
 18 19  1  0  0  0
 19 20  1  0  0  0
 20 21  1  0  0  0
 21 22  3  0  0  0
 15 10  1  0  0  0
  7  1  1  0  0  0
 20 16  1  0  0  0
 32 27  1  0  0  0
  8  9  1  0  0  0
 25 26  1  0  0  0
M  END
> <minimizedAffinity>
-7.15974

> <CNNscore>
0.3678708971

> <CNNaffinity>
7.0199079514

> <CNN_VS>
2.5824198723

> <CNNaffinity_variance>
0.0710123926

$$$$
[H]c1nc(N([H])c2c([H])c([H])c(N3C([H])([H])C([H])([H])C([H])([H])[C@@]3([H])C#N)c([H])c2OC([H])([H])[H])nc(N([H])c2c([H])c([H])c([H])c([H])c2S(=O)(=O)C([H])(C([H])([H])[H])C([H])([H])[H])c1Cl


 38 41  0  0  0  0  0  0  0  0999 V2000
  -17.9627   11.5911  -18.8302 C   0  0  0  0  0  0  0  0  0  0  0  0
  -17.1994   10.5126  -18.9614 N   0  0  0  0  0  0  0  0  0  0  0  0
  -16.4104   10.2798  -20.0186 C   0  0  0  0  0  0  0  0  0  0  0  0
  -16.3823   11.1978  -21.0246 C   0  0  0  0  0  0  0  0  0  0  0  0
  -15.3475   10.9062  -22.4255 Cl  0  0  0  0  0  0  0  0  0  0  0  0
  -17.1608   12.3550  -20.9509 C   0  0  0  0  0  0  0  0  0  0  0  0
  -17.9002   12.4828  -19.8654 N   0  0  0  0  0  0  0  0  0  0  0  0
  -18.8143   11.8928  -17.7419 N   0  0  0  0  0  0  0  0  0  0  0  0
  -19.1500   11.0676  -17.1358 H   0  0  0  0  0  0  0  0  0  0  0  0
  -20.5243   13.2467  -16.8022 C   0  0  0  0  0  0  0  0  0  0  0  0
  -21.0420   14.4468  -16.4087 C   0  0  0  0  0  0  0  0  0  0  0  0
  -20.3623   15.6395  -16.5451 C   0  0  0  0  0  0  0  0  0  0  0  0
  -19.1114   15.5478  -17.1100 C   0  0  0  0  0  0  0  0  0  0  0  0
  -18.5642   14.3204  -17.5201 C   0  0  0  0  0  0  0  0  0  0  0  0
  -19.2679   13.1588  -17.3690 C   0  0  0  0  0  0  0  0  0  0  0  0
  -20.8816   16.8923  -16.1446 N   0  0  0  0  0  0  0  0  0  0  0  0
  -22.2710   17.1769  -15.8770 C   0  0  0  0  0  0  0  0  0  0  0  0
  -22.4350   18.5266  -16.5909 C   0  0  0  0  0  0  0  0  0  0  0  0
  -21.1671   19.2344  -16.1523 C   0  0  0  0  0  0  0  0  0  0  0  0
  -20.1685   18.1170  -15.9203 C   0  0  0  0  0  0  0  0  0  0  0  0
  -19.6227   18.2067  -14.5560 C   0  0  0  0  0  0  0  0  0  0  0  0
  -19.2112   18.2880  -13.4853 N   0  0  0  0  0  0  0  0  0  0  0  0
  -21.6971   11.6773  -15.3482 C   0  0  0  0  0  0  0  0  0  0  0  0
  -21.2770   12.1134  -16.6256 O   0  0  0  0  0  0  0  0  0  0  0  0
  -17.0964   13.2589  -22.0240 N   0  0  0  0  0  0  0  0  0  0  0  0
  -17.2252   12.8191  -22.9935 H   0  0  0  0  0  0  0  0  0  0  0  0
  -16.8710   14.6429  -22.0271 C   0  0  0  0  0  0  0  0  0  0  0  0
  -16.9387   15.4035  -20.8909 C   0  0  0  0  0  0  0  0  0  0  0  0
  -16.6728   16.7881  -20.8893 C   0  0  0  0  0  0  0  0  0  0  0  0
  -16.3394   17.3648  -22.0685 C   0  0  0  0  0  0  0  0  0  0  0  0
  -16.2682   16.6197  -23.2086 C   0  0  0  0  0  0  0  0  0  0  0  0
  -16.5276   15.2628  -23.2206 C   0  0  0  0  0  0  0  0  0  0  0  0
  -16.4409   14.4412  -24.7314 S   0  0  0  0  0  0  0  0  0  0  0  0
  -15.4367   13.2758  -24.6334 O   0  0  0  0  0  0  0  0  0  0  0  0
  -17.7724   13.7943  -25.0532 O   0  0  0  0  0  0  0  0  0  0  0  0
  -15.9187   15.4298  -26.0870 C   0  0  0  0  0  0  0  0  0  0  0  0
  -14.3949   15.4360  -26.1188 C   0  0  0  0  0  0  0  0  0  0  0  0
  -16.4020   14.7836  -27.3844 C   0  0  0  0  0  0  0  0  0  0  0  0
 23 24  1  0  0  0
 24 10  1  0  0  0
 10 11  2  0  0  0
 11 12  1  0  0  0
 12 13  2  0  0  0
 13 14  1  0  0  0
 14 15  2  0  0  0
 15  8  1  0  0  0
  8  1  1  0  0  0
  1  2  2  0  0  0
  2  3  1  0  0  0
  3  4  2  0  0  0
  4  5  1  0  0  0
  4  6  1  0  0  0
  6 25  1  0  0  0
 25 27  1  0  0  0
 27 28  2  0  0  0
 28 29  1  0  0  0
 29 30  2  0  0  0
 30 31  1  0  0  0
 31 32  2  0  0  0
 32 33  1  0  0  0
 33 34  2  0  0  0
 33 35  2  0  0  0
 33 36  1  0  0  0
 36 37  1  0  0  0
 36 38  1  0  0  0
  6  7  2  0  0  0
 12 16  1  0  0  0
 16 17  1  0  0  0
 17 18  1  0  0  0
 18 19  1  0  0  0
 19 20  1  0  0  0
 20 21  1  0  0  0
 21 22  3  0  0  0
 15 10  1  0  0  0
  7  1  1  0  0  0
 20 16  1  0  0  0
 32 27  1  0  0  0
  8  9  1  0  0  0
 25 26  1  0  0  0
M  END
> <minimizedAffinity>
-8.31171

> <CNNscore>
0.3388882875

> <CNNaffinity>
7.6831789017

> <CNN_VS>
2.6037392616

> <CNNaffinity_variance>
0.1245612949

$$$$
[H]c1nc(N([H])c2c([H])c([H])c(N3C([H])([H])C([H])([H])C([H])([H])[C@@]3([H])C#N)c([H])c2OC([H])([H])[H])nc(N([H])c2c([H])c([H])c([H])c([H])c2S(=O)(=O)C([H])(C([H])([H])[H])C([H])([H])[H])c1Cl


 38 41  0  0  0  0  0  0  0  0999 V2000
  -17.8614   10.7994  -19.0533 C   0  0  0  0  0  0  0  0  0  0  0  0
  -17.0295    9.8999  -19.5648 N   0  0  0  0  0  0  0  0  0  0  0  0
  -16.2866   10.1070  -20.6601 C   0  0  0  0  0  0  0  0  0  0  0  0
  -16.3831   11.3086  -21.2944 C   0  0  0  0  0  0  0  0  0  0  0  0
  -15.4105   11.5981  -22.7396 Cl  0  0  0  0  0  0  0  0  0  0  0  0
  -17.2392   12.3000  -20.8097 C   0  0  0  0  0  0  0  0  0  0  0  0
  -17.9234   11.9892  -19.7250 N   0  0  0  0  0  0  0  0  0  0  0  0
  -18.6700   10.6408  -17.9036 N   0  0  0  0  0  0  0  0  0  0  0  0
  -18.6152    9.6954  -17.3896 H   0  0  0  0  0  0  0  0  0  0  0  0
  -20.0317   11.3548  -16.0936 C   0  0  0  0  0  0  0  0  0  0  0  0
  -20.8849   12.2335  -15.4911 C   0  0  0  0  0  0  0  0  0  0  0  0
  -21.3102   13.4002  -16.0921 C   0  0  0  0  0  0  0  0  0  0  0  0
  -20.8162   13.6307  -17.3551 C   0  0  0  0  0  0  0  0  0  0  0  0
  -19.9372   12.7364  -17.9890 C   0  0  0  0  0  0  0  0  0  0  0  0
  -19.5379   11.5899  -17.3619 C   0  0  0  0  0  0  0  0  0  0  0  0
  -22.1938   14.3222  -15.4850 N   0  0  0  0  0  0  0  0  0  0  0  0
  -22.7189   15.5141  -16.1068 C   0  0  0  0  0  0  0  0  0  0  0  0
  -22.5607   16.5315  -14.9674 C   0  0  0  0  0  0  0  0  0  0  0  0
  -23.0590   15.7162  -13.7892 C   0  0  0  0  0  0  0  0  0  0  0  0
  -22.7484   14.2795  -14.1623 C   0  0  0  0  0  0  0  0  0  0  0  0
  -23.9740   13.4669  -14.0937 C   0  0  0  0  0  0  0  0  0  0  0  0
  -24.9258   12.8226  -14.0561 N   0  0  0  0  0  0  0  0  0  0  0  0
  -20.4544    9.0470  -15.4244 C   0  0  0  0  0  0  0  0  0  0  0  0
  -19.6655   10.2200  -15.4153 O   0  0  0  0  0  0  0  0  0  0  0  0
  -17.3023   13.5142  -21.5129 N   0  0  0  0  0  0  0  0  0  0  0  0
  -17.3630   13.4161  -22.5791 H   0  0  0  0  0  0  0  0  0  0  0  0
  -17.2789   14.8341  -21.0402 C   0  0  0  0  0  0  0  0  0  0  0  0
  -17.7532   15.1833  -19.8045 C   0  0  0  0  0  0  0  0  0  0  0  0
  -17.6925   16.5042  -19.3154 C   0  0  0  0  0  0  0  0  0  0  0  0
  -17.1393   17.4457  -20.1165 C   0  0  0  0  0  0  0  0  0  0  0  0
  -16.6627   17.1126  -21.3502 C   0  0  0  0  0  0  0  0  0  0  0  0
  -16.7183   15.8215  -21.8387 C   0  0  0  0  0  0  0  0  0  0  0  0
  -16.1171   15.5364  -23.4270 S   0  0  0  0  0  0  0  0  0  0  0  0
  -15.2352   16.7205  -23.8701 O   0  0  0  0  0  0  0  0  0  0  0  0
  -15.1987   14.3316  -23.4310 O   0  0  0  0  0  0  0  0  0  0  0  0
  -17.3488   15.3477  -24.6659 C   0  0  0  0  0  0  0  0  0  0  0  0
  -17.5111   13.8611  -24.9600 C   0  0  0  0  0  0  0  0  0  0  0  0
  -18.6817   15.8553  -24.1183 C   0  0  0  0  0  0  0  0  0  0  0  0
 23 24  1  0  0  0
 24 10  1  0  0  0
 10 11  2  0  0  0
 11 12  1  0  0  0
 12 13  2  0  0  0
 13 14  1  0  0  0
 14 15  2  0  0  0
 15  8  1  0  0  0
  8  1  1  0  0  0
  1  2  2  0  0  0
  2  3  1  0  0  0
  3  4  2  0  0  0
  4  5  1  0  0  0
  4  6  1  0  0  0
  6 25  1  0  0  0
 25 27  1  0  0  0
 27 28  2  0  0  0
 28 29  1  0  0  0
 29 30  2  0  0  0
 30 31  1  0  0  0
 31 32  2  0  0  0
 32 33  1  0  0  0
 33 34  2  0  0  0
 33 35  2  0  0  0
 33 36  1  0  0  0
 36 37  1  0  0  0
 36 38  1  0  0  0
  6  7  2  0  0  0
 12 16  1  0  0  0
 16 17  1  0  0  0
 17 18  1  0  0  0
 18 19  1  0  0  0
 19 20  1  0  0  0
 20 21  1  0  0  0
 21 22  3  0  0  0
 15 10  1  0  0  0
  7  1  1  0  0  0
 20 16  1  0  0  0
 32 27  1  0  0  0
  8  9  1  0  0  0
 25 26  1  0  0  0
M  END
> <minimizedAffinity>
-7.67336

> <CNNscore>
0.3229095638

> <CNNaffinity>
7.5968985558

> <CNN_VS>
2.4531111717

> <CNNaffinity_variance>
0.1374751776

$$$$
[H]c1nc(N([H])c2c([H])c([H])c(N3C([H])([H])C([H])([H])C([H])([H])[C@@]3([H])C#N)c([H])c2OC([H])([H])[H])nc(N([H])c2c([H])c([H])c([H])c([H])c2S(=O)(=O)C([H])(C([H])([H])[H])C([H])([H])[H])c1Cl


 38 41  0  0  0  0  0  0  0  0999 V2000
  -17.3789   12.3941  -19.9633 C   0  0  0  0  0  0  0  0  0  0  0  0
  -17.0917   11.7257  -21.0739 N   0  0  0  0  0  0  0  0  0  0  0  0
  -17.2574   12.2203  -22.3077 C   0  0  0  0  0  0  0  0  0  0  0  0
  -17.7492   13.4835  -22.4419 C   0  0  0  0  0  0  0  0  0  0  0  0
  -17.9735   14.1509  -24.0613 Cl  0  0  0  0  0  0  0  0  0  0  0  0
  -18.0722   14.2425  -21.3148 C   0  0  0  0  0  0  0  0  0  0  0  0
  -17.8694   13.6572  -20.1497 N   0  0  0  0  0  0  0  0  0  0  0  0
  -17.2266   11.9280  -18.6366 N   0  0  0  0  0  0  0  0  0  0  0  0
  -16.3404   12.2344  -18.1056 H   0  0  0  0  0  0  0  0  0  0  0  0
  -19.1414   11.7159  -17.2477 C   0  0  0  0  0  0  0  0  0  0  0  0
  -20.0516   10.9845  -16.5407 C   0  0  0  0  0  0  0  0  0  0  0  0
  -20.0131    9.6076  -16.4645 C   0  0  0  0  0  0  0  0  0  0  0  0
  -18.9870    9.0041  -17.1539 C   0  0  0  0  0  0  0  0  0  0  0  0
  -18.0422    9.7425  -17.8863 C   0  0  0  0  0  0  0  0  0  0  0  0
  -18.1126   11.1061  -17.9386 C   0  0  0  0  0  0  0  0  0  0  0  0
  -20.9457    8.8327  -15.7371 N   0  0  0  0  0  0  0  0  0  0  0  0
  -20.7985    7.4352  -15.4076 C   0  0  0  0  0  0  0  0  0  0  0  0
  -22.2071    6.9111  -15.7234 C   0  0  0  0  0  0  0  0  0  0  0  0
  -23.0601    8.0005  -15.1015 C   0  0  0  0  0  0  0  0  0  0  0  0
  -22.2017    9.2480  -15.1814 C   0  0  0  0  0  0  0  0  0  0  0  0
  -22.0539    9.8424  -13.8427 C   0  0  0  0  0  0  0  0  0  0  0  0
  -21.9238   10.3174  -12.8036 N   0  0  0  0  0  0  0  0  0  0  0  0
  -20.4968   13.7340  -17.0412 C   0  0  0  0  0  0  0  0  0  0  0  0
  -19.2623   13.0823  -17.2640 O   0  0  0  0  0  0  0  0  0  0  0  0
  -18.5845   15.5344  -21.5182 N   0  0  0  0  0  0  0  0  0  0  0  0
  -17.9018   16.2246  -21.9736 H   0  0  0  0  0  0  0  0  0  0  0  0
  -19.8421   16.0677  -21.2013 C   0  0  0  0  0  0  0  0  0  0  0  0
  -20.7484   15.4042  -20.4188 C   0  0  0  0  0  0  0  0  0  0  0  0
  -21.9963   15.9591  -20.0687 C   0  0  0  0  0  0  0  0  0  0  0  0
  -22.2865   17.1967  -20.5358 C   0  0  0  0  0  0  0  0  0  0  0  0
  -21.3934   17.8697  -21.3165 C   0  0  0  0  0  0  0  0  0  0  0  0
  -20.1685   17.3344  -21.6657 C   0  0  0  0  0  0  0  0  0  0  0  0
  -19.1449   18.2686  -22.6878 S   0  0  0  0  0  0  0  0  0  0  0  0
  -18.2337   17.3334  -23.5070 O   0  0  0  0  0  0  0  0  0  0  0  0
  -19.9713   19.0183  -23.7125 O   0  0  0  0  0  0  0  0  0  0  0  0
  -18.0793   19.3876  -21.8512 C   0  0  0  0  0  0  0  0  0  0  0  0
  -18.8080   20.7165  -21.6908 C   0  0  0  0  0  0  0  0  0  0  0  0
  -17.7972   18.8469  -20.4504 C   0  0  0  0  0  0  0  0  0  0  0  0
 23 24  1  0  0  0
 24 10  1  0  0  0
 10 11  2  0  0  0
 11 12  1  0  0  0
 12 13  2  0  0  0
 13 14  1  0  0  0
 14 15  2  0  0  0
 15  8  1  0  0  0
  8  1  1  0  0  0
  1  2  2  0  0  0
  2  3  1  0  0  0
  3  4  2  0  0  0
  4  5  1  0  0  0
  4  6  1  0  0  0
  6 25  1  0  0  0
 25 27  1  0  0  0
 27 28  2  0  0  0
 28 29  1  0  0  0
 29 30  2  0  0  0
 30 31  1  0  0  0
 31 32  2  0  0  0
 32 33  1  0  0  0
 33 34  2  0  0  0
 33 35  2  0  0  0
 33 36  1  0  0  0
 36 37  1  0  0  0
 36 38  1  0  0  0
  6  7  2  0  0  0
 12 16  1  0  0  0
 16 17  1  0  0  0
 17 18  1  0  0  0
 18 19  1  0  0  0
 19 20  1  0  0  0
 20 21  1  0  0  0
 21 22  3  0  0  0
 15 10  1  0  0  0
  7  1  1  0  0  0
 20 16  1  0  0  0
 32 27  1  0  0  0
  8  9  1  0  0  0
 25 26  1  0  0  0
M  END
> <minimizedAffinity>
-6.99956

> <CNNscore>
0.2802235484

> <CNNaffinity>
7.1918625832

> <CNN_VS>
2.0153293610

> <CNNaffinity_variance>
0.0948103219

$$$$
[H]c1nc(N([H])c2c([H])c([H])c(N3C([H])([H])C([H])([H])C([H])([H])[C@@]3([H])C#N)c([H])c2OC([H])([H])[H])nc(N([H])c2c([H])c([H])c([H])c([H])c2S(=O)(=O)C([H])(C([H])([H])[H])C([H])([H])[H])c1Cl


 38 41  0  0  0  0  0  0  0  0999 V2000
  -18.4908   11.9505  -18.3660 C   0  0  0  0  0  0  0  0  0  0  0  0
  -17.8310   10.8092  -18.5238 N   0  0  0  0  0  0  0  0  0  0  0  0
  -18.1349    9.6752  -17.8788 C   0  0  0  0  0  0  0  0  0  0  0  0
  -19.1813    9.6826  -17.0067 C   0  0  0  0  0  0  0  0  0  0  0  0
  -19.5953    8.1961  -16.1483 Cl  0  0  0  0  0  0  0  0  0  0  0  0
  -19.9183   10.8496  -16.7931 C   0  0  0  0  0  0  0  0  0  0  0  0
  -19.5324   11.9077  -17.4806 N   0  0  0  0  0  0  0  0  0  0  0  0
  -18.2192   13.1771  -19.0158 N   0  0  0  0  0  0  0  0  0  0  0  0
  -18.4416   14.0814  -18.4738 H   0  0  0  0  0  0  0  0  0  0  0  0
  -17.5074   14.6282  -20.7559 C   0  0  0  0  0  0  0  0  0  0  0  0
  -16.9929   14.8731  -21.9963 C   0  0  0  0  0  0  0  0  0  0  0  0
  -16.6222   13.8698  -22.8677 C   0  0  0  0  0  0  0  0  0  0  0  0
  -16.8042   12.5867  -22.4063 C   0  0  0  0  0  0  0  0  0  0  0  0
  -17.3324   12.3178  -21.1324 C   0  0  0  0  0  0  0  0  0  0  0  0
  -17.6885   13.3384  -20.2965 C   0  0  0  0  0  0  0  0  0  0  0  0
  -16.0885   14.1031  -24.1561 N   0  0  0  0  0  0  0  0  0  0  0  0
  -14.6848   14.1197  -24.4916 C   0  0  0  0  0  0  0  0  0  0  0  0
  -14.6154   15.3597  -25.3948 C   0  0  0  0  0  0  0  0  0  0  0  0
  -15.8467   15.1515  -26.2560 C   0  0  0  0  0  0  0  0  0  0  0  0
  -16.7978   14.3639  -25.3758 C   0  0  0  0  0  0  0  0  0  0  0  0
  -17.2090   13.1276  -26.0612 C   0  0  0  0  0  0  0  0  0  0  0  0
  -17.5249   12.1518  -26.5811 N   0  0  0  0  0  0  0  0  0  0  0  0
  -17.0129   16.8253  -19.8173 C   0  0  0  0  0  0  0  0  0  0  0  0
  -17.8470   15.6930  -19.9603 O   0  0  0  0  0  0  0  0  0  0  0  0
  -20.9795   10.7968  -15.8744 N   0  0  0  0  0  0  0  0  0  0  0  0
  -21.4721    9.8467  -15.8073 H   0  0  0  0  0  0  0  0  0  0  0  0
  -21.5074   11.7972  -15.0457 C   0  0  0  0  0  0  0  0  0  0  0  0
  -21.8895   13.0228  -15.5210 C   0  0  0  0  0  0  0  0  0  0  0  0
  -22.4569   14.0130  -14.6931 C   0  0  0  0  0  0  0  0  0  0  0  0
  -22.6205   13.7169  -13.3818 C   0  0  0  0  0  0  0  0  0  0  0  0
  -22.2444   12.5001  -12.8940 C   0  0  0  0  0  0  0  0  0  0  0  0
  -21.6869   11.5236  -13.6967 C   0  0  0  0  0  0  0  0  0  0  0  0
  -21.2192   10.0424  -12.9536 S   0  0  0  0  0  0  0  0  0  0  0  0
  -21.9082    9.9081  -11.5812 O   0  0  0  0  0  0  0  0  0  0  0  0
  -21.7196    8.8669  -13.7677 O   0  0  0  0  0  0  0  0  0  0  0  0
  -19.4955    9.8695  -12.6594 C   0  0  0  0  0  0  0  0  0  0  0  0
  -19.1793   10.4622  -11.2914 C   0  0  0  0  0  0  0  0  0  0  0  0
  -19.1506    8.3820  -12.6059 C   0  0  0  0  0  0  0  0  0  0  0  0
 23 24  1  0  0  0
 24 10  1  0  0  0
 10 11  2  0  0  0
 11 12  1  0  0  0
 12 13  2  0  0  0
 13 14  1  0  0  0
 14 15  2  0  0  0
 15  8  1  0  0  0
  8  1  1  0  0  0
  1  2  2  0  0  0
  2  3  1  0  0  0
  3  4  2  0  0  0
  4  5  1  0  0  0
  4  6  1  0  0  0
  6 25  1  0  0  0
 25 27  1  0  0  0
 27 28  2  0  0  0
 28 29  1  0  0  0
 29 30  2  0  0  0
 30 31  1  0  0  0
 31 32  2  0  0  0
 32 33  1  0  0  0
 33 34  2  0  0  0
 33 35  2  0  0  0
 33 36  1  0  0  0
 36 37  1  0  0  0
 36 38  1  0  0  0
  6  7  2  0  0  0
 12 16  1  0  0  0
 16 17  1  0  0  0
 17 18  1  0  0  0
 18 19  1  0  0  0
 19 20  1  0  0  0
 20 21  1  0  0  0
 21 22  3  0  0  0
 15 10  1  0  0  0
  7  1  1  0  0  0
 20 16  1  0  0  0
 32 27  1  0  0  0
  8  9  1  0  0  0
 25 26  1  0  0  0
M  END
> <minimizedAffinity>
-8.39446

> <CNNscore>
0.2587113380

> <CNNaffinity>
7.2801809311

> <CNN_VS>
1.8834654093

> <CNNaffinity_variance>
0.0914126560

$$$$
[H]c1nc(N([H])c2c([H])c([H])c(N3C([H])([H])C([H])([H])C([H])([H])[C@@]3([H])C#N)c([H])c2OC([H])([H])[H])nc(N([H])c2c([H])c([H])c([H])c([H])c2S(=O)(=O)C([H])(C([H])([H])[H])C([H])([H])[H])c1Cl


 38 41  0  0  0  0  0  0  0  0999 V2000
  -17.3139   12.5908  -20.5315 C   0  0  0  0  0  0  0  0  0  0  0  0
  -17.0233   12.0380  -21.7031 N   0  0  0  0  0  0  0  0  0  0  0  0
  -17.2978   12.6049  -22.8854 C   0  0  0  0  0  0  0  0  0  0  0  0
  -17.9116   13.8209  -22.8973 C   0  0  0  0  0  0  0  0  0  0  0  0
  -18.2805   14.5823  -24.4473 Cl  0  0  0  0  0  0  0  0  0  0  0  0
  -18.2454   14.4588  -21.7004 C   0  0  0  0  0  0  0  0  0  0  0  0
  -17.9291   13.8107  -20.5954 N   0  0  0  0  0  0  0  0  0  0  0  0
  -17.0505   12.0440  -19.2539 N   0  0  0  0  0  0  0  0  0  0  0  0
  -16.0513   12.1565  -18.8665 H   0  0  0  0  0  0  0  0  0  0  0  0
  -18.9307   12.1188  -17.8050 C   0  0  0  0  0  0  0  0  0  0  0  0
  -19.8574   11.5358  -16.9897 C   0  0  0  0  0  0  0  0  0  0  0  0
  -19.8915   10.1793  -16.7402 C   0  0  0  0  0  0  0  0  0  0  0  0
  -18.9213    9.4359  -17.3713 C   0  0  0  0  0  0  0  0  0  0  0  0
  -17.9606   10.0206  -18.2134 C   0  0  0  0  0  0  0  0  0  0  0  0
  -17.9582   11.3687  -18.4367 C   0  0  0  0  0  0  0  0  0  0  0  0
  -20.8424    9.5570  -15.8988 N   0  0  0  0  0  0  0  0  0  0  0  0
  -20.6683    8.2895  -15.2309 C   0  0  0  0  0  0  0  0  0  0  0  0
  -22.0336    7.6349  -15.4870 C   0  0  0  0  0  0  0  0  0  0  0  0
  -22.9636    8.7979  -15.1977 C   0  0  0  0  0  0  0  0  0  0  0  0
  -22.1461   10.0307  -15.5316 C   0  0  0  0  0  0  0  0  0  0  0  0
  -22.1079   10.9370  -14.3722 C   0  0  0  0  0  0  0  0  0  0  0  0
  -22.0826   11.6597  -13.4780 N   0  0  0  0  0  0  0  0  0  0  0  0
  -18.5539   14.3909  -16.9999 C   0  0  0  0  0  0  0  0  0  0  0  0
  -18.9775   13.4771  -17.9918 O   0  0  0  0  0  0  0  0  0  0  0  0
  -18.8858   15.7065  -21.7781 N   0  0  0  0  0  0  0  0  0  0  0  0
  -19.7109   15.7490  -22.4616 H   0  0  0  0  0  0  0  0  0  0  0  0
  -18.6029   16.9098  -21.1160 C   0  0  0  0  0  0  0  0  0  0  0  0
  -17.3428   17.4418  -21.0598 C   0  0  0  0  0  0  0  0  0  0  0  0
  -17.0675   18.6716  -20.4277 C   0  0  0  0  0  0  0  0  0  0  0  0
  -18.1051   19.3333  -19.8624 C   0  0  0  0  0  0  0  0  0  0  0  0
  -19.3659   18.8154  -19.9104 C   0  0  0  0  0  0  0  0  0  0  0  0
  -19.6458   17.6110  -20.5266 C   0  0  0  0  0  0  0  0  0  0  0  0
  -21.2721   17.0465  -20.4867 S   0  0  0  0  0  0  0  0  0  0  0  0
  -21.2881   15.5194  -20.2774 O   0  0  0  0  0  0  0  0  0  0  0  0
  -21.9967   17.6210  -19.2867 O   0  0  0  0  0  0  0  0  0  0  0  0
  -22.2026   17.3545  -21.9450 C   0  0  0  0  0  0  0  0  0  0  0  0
  -23.6797   17.3993  -21.5724 C   0  0  0  0  0  0  0  0  0  0  0  0
  -21.8249   18.7309  -22.4901 C   0  0  0  0  0  0  0  0  0  0  0  0
 23 24  1  0  0  0
 24 10  1  0  0  0
 10 11  2  0  0  0
 11 12  1  0  0  0
 12 13  2  0  0  0
 13 14  1  0  0  0
 14 15  2  0  0  0
 15  8  1  0  0  0
  8  1  1  0  0  0
  1  2  2  0  0  0
  2  3  1  0  0  0
  3  4  2  0  0  0
  4  5  1  0  0  0
  4  6  1  0  0  0
  6 25  1  0  0  0
 25 27  1  0  0  0
 27 28  2  0  0  0
 28 29  1  0  0  0
 29 30  2  0  0  0
 30 31  1  0  0  0
 31 32  2  0  0  0
 32 33  1  0  0  0
 33 34  2  0  0  0
 33 35  2  0  0  0
 33 36  1  0  0  0
 36 37  1  0  0  0
 36 38  1  0  0  0
  6  7  2  0  0  0
 12 16  1  0  0  0
 16 17  1  0  0  0
 17 18  1  0  0  0
 18 19  1  0  0  0
 19 20  1  0  0  0
 20 21  1  0  0  0
 21 22  3  0  0  0
 15 10  1  0  0  0
  7  1  1  0  0  0
 20 16  1  0  0  0
 32 27  1  0  0  0
  8  9  1  0  0  0
 25 26  1  0  0  0
M  END
> <minimizedAffinity>
-7.17280

> <CNNscore>
0.2218451798

> <CNNaffinity>
7.1366600990

> <CNN_VS>
1.5832335949

> <CNNaffinity_variance>
0.1271850467

$$$$
[H]c1nc(N([H])c2c([H])c([H])c(N3C([H])([H])C([H])([H])C([H])([H])[C@@]3([H])C#N)c([H])c2OC([H])([H])[H])nc(N([H])c2c([H])c([H])c([H])c([H])c2S(=O)(=O)C([H])(C([H])([H])[H])C([H])([H])[H])c1Cl


 38 41  0  0  0  0  0  0  0  0999 V2000
  -18.6556   11.9249  -18.2498 C   0  0  0  0  0  0  0  0  0  0  0  0
  -18.0444   10.7620  -18.4426 N   0  0  0  0  0  0  0  0  0  0  0  0
  -18.3634    9.6339  -17.7946 C   0  0  0  0  0  0  0  0  0  0  0  0
  -19.3735    9.6711  -16.8814 C   0  0  0  0  0  0  0  0  0  0  0  0
  -19.8068    8.1927  -16.0184 Cl  0  0  0  0  0  0  0  0  0  0  0  0
  -20.0587   10.8618  -16.6296 C   0  0  0  0  0  0  0  0  0  0  0  0
  -19.6622   11.9116  -17.3239 N   0  0  0  0  0  0  0  0  0  0  0  0
  -18.3656   13.1467  -18.9006 N   0  0  0  0  0  0  0  0  0  0  0  0
  -18.5976   14.0549  -18.3692 H   0  0  0  0  0  0  0  0  0  0  0  0
  -17.5147   14.5815  -20.5911 C   0  0  0  0  0  0  0  0  0  0  0  0
  -16.9645   14.8171  -21.8178 C   0  0  0  0  0  0  0  0  0  0  0  0
  -16.6634   13.8107  -22.7122 C   0  0  0  0  0  0  0  0  0  0  0  0
  -16.9545   12.5347  -22.2889 C   0  0  0  0  0  0  0  0  0  0  0  0
  -17.5207   12.2754  -21.0294 C   0  0  0  0  0  0  0  0  0  0  0  0
  -17.8055   13.2988  -20.1698 C   0  0  0  0  0  0  0  0  0  0  0  0
  -16.0943   14.0344  -23.9872 N   0  0  0  0  0  0  0  0  0  0  0  0
  -14.6845   13.9977  -24.2941 C   0  0  0  0  0  0  0  0  0  0  0  0
  -14.5469   15.2424  -25.1830 C   0  0  0  0  0  0  0  0  0  0  0  0
  -15.7675   15.0920  -26.0710 C   0  0  0  0  0  0  0  0  0  0  0  0
  -16.7673   14.3351  -25.2183 C   0  0  0  0  0  0  0  0  0  0  0  0
  -17.2135   13.1229  -25.9244 C   0  0  0  0  0  0  0  0  0  0  0  0
  -17.5617   12.1663  -26.4593 N   0  0  0  0  0  0  0  0  0  0  0  0
  -18.9643   16.4109  -19.8806 C   0  0  0  0  0  0  0  0  0  0  0  0
  -17.7789   15.6486  -19.7704 O   0  0  0  0  0  0  0  0  0  0  0  0
  -21.0838   10.8389  -15.6696 N   0  0  0  0  0  0  0  0  0  0  0  0
  -22.0680   11.0191  -16.0553 H   0  0  0  0  0  0  0  0  0  0  0  0
  -21.0189   10.6365  -14.2836 C   0  0  0  0  0  0  0  0  0  0  0  0
  -19.9343   11.0058  -13.5344 C   0  0  0  0  0  0  0  0  0  0  0  0
  -19.8875   10.8376  -12.1354 C   0  0  0  0  0  0  0  0  0  0  0  0
  -20.9685   10.2882  -11.5324 C   0  0  0  0  0  0  0  0  0  0  0  0
  -22.0562    9.9152  -12.2659 C   0  0  0  0  0  0  0  0  0  0  0  0
  -22.1115   10.0752  -13.6371 C   0  0  0  0  0  0  0  0  0  0  0  0
  -23.5260    9.5297  -14.4536 S   0  0  0  0  0  0  0  0  0  0  0  0
  -23.1876    9.2072  -15.9224 O   0  0  0  0  0  0  0  0  0  0  0  0
  -24.0031    8.2211  -13.8576 O   0  0  0  0  0  0  0  0  0  0  0  0
  -24.8523   10.6816  -14.4942 C   0  0  0  0  0  0  0  0  0  0  0  0
  -25.8833   10.2648  -13.4520 C   0  0  0  0  0  0  0  0  0  0  0  0
  -24.3238   12.0576  -14.0922 C   0  0  0  0  0  0  0  0  0  0  0  0
 23 24  1  0  0  0
 24 10  1  0  0  0
 10 11  2  0  0  0
 11 12  1  0  0  0
 12 13  2  0  0  0
 13 14  1  0  0  0
 14 15  2  0  0  0
 15  8  1  0  0  0
  8  1  1  0  0  0
  1  2  2  0  0  0
  2  3  1  0  0  0
  3  4  2  0  0  0
  4  5  1  0  0  0
  4  6  1  0  0  0
  6 25  1  0  0  0
 25 27  1  0  0  0
 27 28  2  0  0  0
 28 29  1  0  0  0
 29 30  2  0  0  0
 30 31  1  0  0  0
 31 32  2  0  0  0
 32 33  1  0  0  0
 33 34  2  0  0  0
 33 35  2  0  0  0
 33 36  1  0  0  0
 36 37  1  0  0  0
 36 38  1  0  0  0
  6  7  2  0  0  0
 12 16  1  0  0  0
 16 17  1  0  0  0
 17 18  1  0  0  0
 18 19  1  0  0  0
 19 20  1  0  0  0
 20 21  1  0  0  0
 21 22  3  0  0  0
 15 10  1  0  0  0
  7  1  1  0  0  0
 20 16  1  0  0  0
 32 27  1  0  0  0
  8  9  1  0  0  0
 25 26  1  0  0  0
M  END
> <minimizedAffinity>
-8.23614

> <CNNscore>
0.2028895617

> <CNNaffinity>
7.0552778244

> <CNN_VS>
1.4314422607

> <CNNaffinity_variance>
0.0327757187

$$$$
[H]OC(=O)C([H])([H])C([H])([H])c1c([H])c(Cl)c(Cl)c([H])c1S(=O)(=O)c1c([H])c([H])c([H])c(C(=O)N2C([H])([H])C([H])([H])C([H])([H])C([H])([H])C2([H])[H])c1[H]


 31 33  0  0  0  0  0  0  0  0999 V2000
  -19.6630   14.0077  -18.7917 S   0  0  0  0  0  0  0  0  0  0  0  0
  -19.1043   14.7915  -17.5981 O   0  0  0  0  0  0  0  0  0  0  0  0
  -21.0418   13.6208  -18.4917 O   0  0  0  0  0  0  0  0  0  0  0  0
  -18.3532   11.6126  -18.5983 C   0  0  0  0  0  0  0  0  0  0  0  0
  -17.4567   10.7033  -19.1930 C   0  0  0  0  0  0  0  0  0  0  0  0
  -16.8495   10.8789  -20.3922 C   0  0  0  0  0  0  0  0  0  0  0  0
  -15.7559    9.6641  -21.0094 Cl  0  0  0  0  0  0  0  0  0  0  0  0
  -17.1256   12.0289  -21.0881 C   0  0  0  0  0  0  0  0  0  0  0  0
  -16.3594   12.2896  -22.6402 Cl  0  0  0  0  0  0  0  0  0  0  0  0
  -17.9917   12.9375  -20.5470 C   0  0  0  0  0  0  0  0  0  0  0  0
  -18.6079   12.7571  -19.3260 C   0  0  0  0  0  0  0  0  0  0  0  0
  -18.9813   11.3108  -17.3187 C   0  0  0  0  0  0  0  0  0  0  0  0
  -19.6102   10.0115  -17.0618 C   0  0  0  0  0  0  0  0  0  0  0  0
  -17.8312    8.3543  -16.4540 O   0  0  0  0  0  0  0  0  0  0  0  0
  -18.9609    9.1049  -16.0897 C   0  0  0  0  0  0  0  0  0  0  0  0
  -19.3759    8.9703  -14.9363 O   0  0  0  0  0  0  0  0  0  0  0  0
  -17.1349    8.7274  -17.0709 H   0  0  0  0  0  0  0  0  0  0  0  0
  -19.7236   15.2540  -20.0593 C   0  0  0  0  0  0  0  0  0  0  0  0
  -20.8598   16.0004  -20.1994 C   0  0  0  0  0  0  0  0  0  0  0  0
  -20.8648   16.9571  -21.1821 C   0  0  0  0  0  0  0  0  0  0  0  0
  -19.7503   17.1694  -22.0175 C   0  0  0  0  0  0  0  0  0  0  0  0
  -18.6091   16.4399  -21.8958 C   0  0  0  0  0  0  0  0  0  0  0  0
  -18.6406   15.4645  -20.8748 C   0  0  0  0  0  0  0  0  0  0  0  0
  -17.3796   16.5932  -22.6513 C   0  0  0  0  0  0  0  0  0  0  0  0
  -16.5607   17.5391  -22.2216 O   0  0  0  0  0  0  0  0  0  0  0  0
  -16.8778   15.9300  -23.7667 N   0  0  0  0  0  0  0  0  0  0  0  0
  -17.5445   14.8986  -24.4784 C   0  0  0  0  0  0  0  0  0  0  0  0
  -17.0634   14.5818  -25.8545 C   0  0  0  0  0  0  0  0  0  0  0  0
  -15.7466   15.1167  -26.2464 C   0  0  0  0  0  0  0  0  0  0  0  0
  -14.8778   15.3038  -25.0291 C   0  0  0  0  0  0  0  0  0  0  0  0
  -15.5227   16.3635  -24.1898 C   0  0  0  0  0  0  0  0  0  0  0  0
 14 15  1  0  0  0
 15 16  2  0  0  0
 15 13  1  0  0  0
 13 12  1  0  0  0
 12  4  1  0  0  0
  4  5  2  0  0  0
  5  6  1  0  0  0
  6  7  1  0  0  0
  6  8  2  0  0  0
  8  9  1  0  0  0
  8 10  1  0  0  0
 10 11  2  0  0  0
 11  1  1  0  0  0
  1  2  2  0  0  0
  1  3  2  0  0  0
  1 18  1  0  0  0
 18 19  2  0  0  0
 19 20  1  0  0  0
 20 21  2  0  0  0
 21 22  1  0  0  0
 22 23  2  0  0  0
 22 24  1  0  0  0
 24 25  2  0  0  0
 24 26  1  0  0  0
 26 27  1  0  0  0
 27 28  1  0  0  0
 28 29  1  0  0  0
 29 30  1  0  0  0
 30 31  1  0  0  0
 11  4  1  0  0  0
 23 18  1  0  0  0
 31 26  1  0  0  0
 14 17  1  0  0  0
M  END
> <minimizedAffinity>
-8.98482

> <CNNscore>
0.5212224722

> <CNNaffinity>
7.2562890053

> <CNN_VS>
3.7821409702

> <CNNaffinity_variance>
0.0769849792

$$$$
[H]OC(=O)C([H])([H])C([H])([H])c1c([H])c(Cl)c(Cl)c([H])c1S(=O)(=O)c1c([H])c([H])c([H])c(C(=O)N2C([H])([H])C([H])([H])C([H])([H])C([H])([H])C2([H])[H])c1[H]


 31 33  0  0  0  0  0  0  0  0999 V2000
  -19.5712   14.8842  -19.1284 S   0  0  0  0  0  0  0  0  0  0  0  0
  -19.4869   15.3047  -17.6563 O   0  0  0  0  0  0  0  0  0  0  0  0
  -20.9785   14.8648  -19.5284 O   0  0  0  0  0  0  0  0  0  0  0  0
  -18.4294   12.4620  -18.5640 C   0  0  0  0  0  0  0  0  0  0  0  0
  -17.6442   11.3879  -19.0265 C   0  0  0  0  0  0  0  0  0  0  0  0
  -17.1088   11.2919  -20.2682 C   0  0  0  0  0  0  0  0  0  0  0  0
  -16.1512    9.8978  -20.7067 Cl  0  0  0  0  0  0  0  0  0  0  0  0
  -17.3470   12.3161  -21.1498 C   0  0  0  0  0  0  0  0  0  0  0  0
  -16.6713   12.2263  -22.7620 Cl  0  0  0  0  0  0  0  0  0  0  0  0
  -18.1057   13.3773  -20.7414 C   0  0  0  0  0  0  0  0  0  0  0  0
  -18.6489   13.4733  -19.4769 C   0  0  0  0  0  0  0  0  0  0  0  0
  -18.9893   12.4506  -17.2189 C   0  0  0  0  0  0  0  0  0  0  0  0
  -20.2474   11.7601  -16.9188 C   0  0  0  0  0  0  0  0  0  0  0  0
  -21.7986   13.7105  -16.6542 O   0  0  0  0  0  0  0  0  0  0  0  0
  -21.2834   12.4992  -16.1646 C   0  0  0  0  0  0  0  0  0  0  0  0
  -21.7327   12.0915  -15.0910 O   0  0  0  0  0  0  0  0  0  0  0  0
  -21.9390   13.8579  -17.6355 H   0  0  0  0  0  0  0  0  0  0  0  0
  -18.8025   16.2602  -19.9527 C   0  0  0  0  0  0  0  0  0  0  0  0
  -18.5717   17.4083  -19.2484 C   0  0  0  0  0  0  0  0  0  0  0  0
  -17.9693   18.4438  -19.9163 C   0  0  0  0  0  0  0  0  0  0  0  0
  -17.6000   18.3381  -21.2718 C   0  0  0  0  0  0  0  0  0  0  0  0
  -17.8186   17.2056  -21.9922 C   0  0  0  0  0  0  0  0  0  0  0  0
  -18.4408   16.1617  -21.2725 C   0  0  0  0  0  0  0  0  0  0  0  0
  -17.4407   16.9499  -23.3698 C   0  0  0  0  0  0  0  0  0  0  0  0
  -18.2777   17.4098  -24.2851 O   0  0  0  0  0  0  0  0  0  0  0  0
  -16.3486   16.2993  -23.9353 N   0  0  0  0  0  0  0  0  0  0  0  0
  -15.3053   15.6644  -23.2118 C   0  0  0  0  0  0  0  0  0  0  0  0
  -14.4470   14.6884  -23.9440 C   0  0  0  0  0  0  0  0  0  0  0  0
  -14.5231   14.6980  -25.4163 C   0  0  0  0  0  0  0  0  0  0  0  0
  -14.9202   16.0664  -25.9079 C   0  0  0  0  0  0  0  0  0  0  0  0
  -16.3130   16.3199  -25.4190 C   0  0  0  0  0  0  0  0  0  0  0  0
 14 15  1  0  0  0
 15 16  2  0  0  0
 15 13  1  0  0  0
 13 12  1  0  0  0
 12  4  1  0  0  0
  4  5  2  0  0  0
  5  6  1  0  0  0
  6  7  1  0  0  0
  6  8  2  0  0  0
  8  9  1  0  0  0
  8 10  1  0  0  0
 10 11  2  0  0  0
 11  1  1  0  0  0
  1  2  2  0  0  0
  1  3  2  0  0  0
  1 18  1  0  0  0
 18 19  2  0  0  0
 19 20  1  0  0  0
 20 21  2  0  0  0
 21 22  1  0  0  0
 22 23  2  0  0  0
 22 24  1  0  0  0
 24 25  2  0  0  0
 24 26  1  0  0  0
 26 27  1  0  0  0
 27 28  1  0  0  0
 28 29  1  0  0  0
 29 30  1  0  0  0
 30 31  1  0  0  0
 11  4  1  0  0  0
 23 18  1  0  0  0
 31 26  1  0  0  0
 14 17  1  0  0  0
M  END
> <minimizedAffinity>
-8.20366

> <CNNscore>
0.4291137457

> <CNNaffinity>
7.0313248634

> <CNN_VS>
3.0172381401

> <CNNaffinity_variance>
0.0987716615

$$$$
[H]OC(=O)C([H])([H])C([H])([H])c1c([H])c(Cl)c(Cl)c([H])c1S(=O)(=O)c1c([H])c([H])c([H])c(C(=O)N2C([H])([H])C([H])([H])C([H])([H])C([H])([H])C2([H])[H])c1[H]


 31 33  0  0  0  0  0  0  0  0999 V2000
  -20.1869   14.3750  -18.5045 S   0  0  0  0  0  0  0  0  0  0  0  0
  -20.2532   15.3980  -17.3642 O   0  0  0  0  0  0  0  0  0  0  0  0
  -21.4055   14.4900  -19.3060 O   0  0  0  0  0  0  0  0  0  0  0  0
  -20.3061   12.2019  -16.8452 C   0  0  0  0  0  0  0  0  0  0  0  0
  -19.8319   10.9076  -16.5553 C   0  0  0  0  0  0  0  0  0  0  0  0
  -18.9059   10.2358  -17.2825 C   0  0  0  0  0  0  0  0  0  0  0  0
  -18.4087    8.6306  -16.8042 Cl  0  0  0  0  0  0  0  0  0  0  0  0
  -18.3861   10.8576  -18.3898 C   0  0  0  0  0  0  0  0  0  0  0  0
  -17.1879   10.0203  -19.3527 Cl  0  0  0  0  0  0  0  0  0  0  0  0
  -18.8203   12.1142  -18.7075 C   0  0  0  0  0  0  0  0  0  0  0  0
  -19.7622   12.7964  -17.9655 C   0  0  0  0  0  0  0  0  0  0  0  0
  -21.3327   12.8220  -16.0179 C   0  0  0  0  0  0  0  0  0  0  0  0
  -21.8257   12.1766  -14.7972 C   0  0  0  0  0  0  0  0  0  0  0  0
  -22.3549   14.1495  -13.3452 O   0  0  0  0  0  0  0  0  0  0  0  0
  -22.7546   12.9389  -13.9343 C   0  0  0  0  0  0  0  0  0  0  0  0
  -23.9012   12.5515  -13.6979 O   0  0  0  0  0  0  0  0  0  0  0  0
  -21.7547   14.7905  -13.8284 H   0  0  0  0  0  0  0  0  0  0  0  0
  -18.8424   15.0000  -19.4870 C   0  0  0  0  0  0  0  0  0  0  0  0
  -18.1410   16.0827  -19.0361 C   0  0  0  0  0  0  0  0  0  0  0  0
  -17.1061   16.5296  -19.8174 C   0  0  0  0  0  0  0  0  0  0  0  0
  -16.7721   15.9055  -21.0356 C   0  0  0  0  0  0  0  0  0  0  0  0
  -17.4549   14.8265  -21.5035 C   0  0  0  0  0  0  0  0  0  0  0  0
  -18.5133   14.3952  -20.6737 C   0  0  0  0  0  0  0  0  0  0  0  0
  -17.1810   14.0637  -22.7072 C   0  0  0  0  0  0  0  0  0  0  0  0
  -17.1077   12.7527  -22.5468 O   0  0  0  0  0  0  0  0  0  0  0  0
  -16.9720   14.4443  -24.0291 N   0  0  0  0  0  0  0  0  0  0  0  0
  -16.9465   15.7814  -24.5050 C   0  0  0  0  0  0  0  0  0  0  0  0
  -16.3235   16.0323  -25.8370 C   0  0  0  0  0  0  0  0  0  0  0  0
  -16.0833   14.8604  -26.6987 C   0  0  0  0  0  0  0  0  0  0  0  0
  -17.0707   13.7677  -26.3782 C   0  0  0  0  0  0  0  0  0  0  0  0
  -16.7867   13.3181  -24.9780 C   0  0  0  0  0  0  0  0  0  0  0  0
 14 15  1  0  0  0
 15 16  2  0  0  0
 15 13  1  0  0  0
 13 12  1  0  0  0
 12  4  1  0  0  0
  4  5  2  0  0  0
  5  6  1  0  0  0
  6  7  1  0  0  0
  6  8  2  0  0  0
  8  9  1  0  0  0
  8 10  1  0  0  0
 10 11  2  0  0  0
 11  1  1  0  0  0
  1  2  2  0  0  0
  1  3  2  0  0  0
  1 18  1  0  0  0
 18 19  2  0  0  0
 19 20  1  0  0  0
 20 21  2  0  0  0
 21 22  1  0  0  0
 22 23  2  0  0  0
 22 24  1  0  0  0
 24 25  2  0  0  0
 24 26  1  0  0  0
 26 27  1  0  0  0
 27 28  1  0  0  0
 28 29  1  0  0  0
 29 30  1  0  0  0
 30 31  1  0  0  0
 11  4  1  0  0  0
 23 18  1  0  0  0
 31 26  1  0  0  0
 14 17  1  0  0  0
M  END
> <minimizedAffinity>
-8.26054

> <CNNscore>
0.3451480269

> <CNNaffinity>
6.6731805801

> <CNN_VS>
2.3032350540

> <CNNaffinity_variance>
0.0713247061

$$$$
[H]OC(=O)C([H])([H])C([H])([H])c1c([H])c(Cl)c(Cl)c([H])c1S(=O)(=O)c1c([H])c([H])c([H])c(C(=O)N2C([H])([H])C([H])([H])C([H])([H])C([H])([H])C2([H])[H])c1[H]


 31 33  0  0  0  0  0  0  0  0999 V2000
  -19.5457   15.2983  -18.9004 S   0  0  0  0  0  0  0  0  0  0  0  0
  -18.7560   16.2432  -17.9867 O   0  0  0  0  0  0  0  0  0  0  0  0
  -20.9459   15.3009  -18.4760 O   0  0  0  0  0  0  0  0  0  0  0  0
  -18.8027   12.7880  -18.1029 C   0  0  0  0  0  0  0  0  0  0  0  0
  -18.1316   11.5934  -18.4294 C   0  0  0  0  0  0  0  0  0  0  0  0
  -17.5007   11.3499  -19.6042 C   0  0  0  0  0  0  0  0  0  0  0  0
  -16.7055    9.8176  -19.8734 Cl  0  0  0  0  0  0  0  0  0  0  0  0
  -17.5135   12.3388  -20.5555 C   0  0  0  0  0  0  0  0  0  0  0  0
  -16.7088   12.0597  -22.0847 Cl  0  0  0  0  0  0  0  0  0  0  0  0
  -18.1552   13.5138  -20.2795 C   0  0  0  0  0  0  0  0  0  0  0  0
  -18.7960   13.7596  -19.0828 C   0  0  0  0  0  0  0  0  0  0  0  0
  -19.4821   12.9350  -16.8224 C   0  0  0  0  0  0  0  0  0  0  0  0
  -20.7428   12.2415  -16.5402 C   0  0  0  0  0  0  0  0  0  0  0  0
  -22.6286   13.5360  -15.5164 O   0  0  0  0  0  0  0  0  0  0  0  0
  -21.5279   12.6771  -15.3645 C   0  0  0  0  0  0  0  0  0  0  0  0
  -21.2552   12.3117  -14.2188 O   0  0  0  0  0  0  0  0  0  0  0  0
  -23.2364   13.4681  -16.3104 H   0  0  0  0  0  0  0  0  0  0  0  0
  -19.4622   16.1388  -20.4657 C   0  0  0  0  0  0  0  0  0  0  0  0
  -20.5586   16.8246  -20.9077 C   0  0  0  0  0  0  0  0  0  0  0  0
  -20.4524   17.4668  -22.1149 C   0  0  0  0  0  0  0  0  0  0  0  0
  -19.2669   17.4273  -22.8752 C   0  0  0  0  0  0  0  0  0  0  0  0
  -18.1634   16.7527  -22.4551 C   0  0  0  0  0  0  0  0  0  0  0  0
  -18.3098   16.1035  -21.2093 C   0  0  0  0  0  0  0  0  0  0  0  0
  -16.8718   16.6781  -23.1125 C   0  0  0  0  0  0  0  0  0  0  0  0
  -15.9033   17.3798  -22.5474 O   0  0  0  0  0  0  0  0  0  0  0  0
  -16.4375   16.0018  -24.2482 N   0  0  0  0  0  0  0  0  0  0  0  0
  -17.2536   15.2032  -25.0915 C   0  0  0  0  0  0  0  0  0  0  0  0
  -16.7413   14.8872  -26.4564 C   0  0  0  0  0  0  0  0  0  0  0  0
  -15.3110   15.1369  -26.7125 C   0  0  0  0  0  0  0  0  0  0  0  0
  -14.5268   15.0327  -25.4296 C   0  0  0  0  0  0  0  0  0  0  0  0
  -14.9898   16.1467  -24.5420 C   0  0  0  0  0  0  0  0  0  0  0  0
 14 15  1  0  0  0
 15 16  2  0  0  0
 15 13  1  0  0  0
 13 12  1  0  0  0
 12  4  1  0  0  0
  4  5  2  0  0  0
  5  6  1  0  0  0
  6  7  1  0  0  0
  6  8  2  0  0  0
  8  9  1  0  0  0
  8 10  1  0  0  0
 10 11  2  0  0  0
 11  1  1  0  0  0
  1  2  2  0  0  0
  1  3  2  0  0  0
  1 18  1  0  0  0
 18 19  2  0  0  0
 19 20  1  0  0  0
 20 21  2  0  0  0
 21 22  1  0  0  0
 22 23  2  0  0  0
 22 24  1  0  0  0
 24 25  2  0  0  0
 24 26  1  0  0  0
 26 27  1  0  0  0
 27 28  1  0  0  0
 28 29  1  0  0  0
 29 30  1  0  0  0
 30 31  1  0  0  0
 11  4  1  0  0  0
 23 18  1  0  0  0
 31 26  1  0  0  0
 14 17  1  0  0  0
M  END
> <minimizedAffinity>
-7.95737

> <CNNscore>
0.3306186795

> <CNNaffinity>
6.8792090416

> <CNN_VS>
2.2743949890

> <CNNaffinity_variance>
0.1125212461

$$$$
[H]OC(=O)C([H])([H])C([H])([H])c1c([H])c(Cl)c(Cl)c([H])c1S(=O)(=O)c1c([H])c([H])c([H])c(C(=O)N2C([H])([H])C([H])([H])C([H])([H])C([H])([H])C2([H])[H])c1[H]


 31 33  0  0  0  0  0  0  0  0999 V2000
  -19.1298   13.0154  -17.9170 S   0  0  0  0  0  0  0  0  0  0  0  0
  -20.5746   13.5281  -17.9444 O   0  0  0  0  0  0  0  0  0  0  0  0
  -18.3970   13.7403  -16.8787 O   0  0  0  0  0  0  0  0  0  0  0  0
  -18.6707   13.8825  -20.4718 C   0  0  0  0  0  0  0  0  0  0  0  0
  -17.9910   13.6734  -21.6877 C   0  0  0  0  0  0  0  0  0  0  0  0
  -17.1270   12.6581  -21.9330 C   0  0  0  0  0  0  0  0  0  0  0  0
  -16.3534   12.5205  -23.4936 Cl  0  0  0  0  0  0  0  0  0  0  0  0
  -16.8895   11.7605  -20.9227 C   0  0  0  0  0  0  0  0  0  0  0  0
  -15.7797   10.4363  -21.2037 Cl  0  0  0  0  0  0  0  0  0  0  0  0
  -17.5280   11.9277  -19.7257 C   0  0  0  0  0  0  0  0  0  0  0  0
  -18.4075   12.9614  -19.4785 C   0  0  0  0  0  0  0  0  0  0  0  0
  -19.5527   15.0293  -20.2988 C   0  0  0  0  0  0  0  0  0  0  0  0
  -19.0213   16.3829  -20.1118 C   0  0  0  0  0  0  0  0  0  0  0  0
  -17.7499   16.4323  -17.9527 O   0  0  0  0  0  0  0  0  0  0  0  0
  -17.7605   16.5362  -19.3532 C   0  0  0  0  0  0  0  0  0  0  0  0
  -16.6816   16.7582  -19.9076 O   0  0  0  0  0  0  0  0  0  0  0  0
  -18.3441   15.7823  -17.4742 H   0  0  0  0  0  0  0  0  0  0  0  0
  -19.3397   11.3423  -17.3510 C   0  0  0  0  0  0  0  0  0  0  0  0
  -18.4278   10.3969  -17.7283 C   0  0  0  0  0  0  0  0  0  0  0  0
  -18.6189    9.1204  -17.2645 C   0  0  0  0  0  0  0  0  0  0  0  0
  -19.7068    8.7875  -16.4333 C   0  0  0  0  0  0  0  0  0  0  0  0
  -20.6256    9.7113  -16.0442 C   0  0  0  0  0  0  0  0  0  0  0  0
  -20.3973   11.0135  -16.5411 C   0  0  0  0  0  0  0  0  0  0  0  0
  -21.7540    9.5121  -15.1536 C   0  0  0  0  0  0  0  0  0  0  0  0
  -22.9424    9.7745  -15.6718 O   0  0  0  0  0  0  0  0  0  0  0  0
  -21.8385    9.0926  -13.8297 N   0  0  0  0  0  0  0  0  0  0  0  0
  -20.7340    8.7802  -12.9945 C   0  0  0  0  0  0  0  0  0  0  0  0
  -20.9670    8.7403  -11.5216 C   0  0  0  0  0  0  0  0  0  0  0  0
  -22.3675    8.6982  -11.0630 C   0  0  0  0  0  0  0  0  0  0  0  0
  -23.2394    8.0569  -12.1120 C   0  0  0  0  0  0  0  0  0  0  0  0
  -23.2214    8.9591  -13.3073 C   0  0  0  0  0  0  0  0  0  0  0  0
 14 15  1  0  0  0
 15 16  2  0  0  0
 15 13  1  0  0  0
 13 12  1  0  0  0
 12  4  1  0  0  0
  4  5  2  0  0  0
  5  6  1  0  0  0
  6  7  1  0  0  0
  6  8  2  0  0  0
  8  9  1  0  0  0
  8 10  1  0  0  0
 10 11  2  0  0  0
 11  1  1  0  0  0
  1  2  2  0  0  0
  1  3  2  0  0  0
  1 18  1  0  0  0
 18 19  2  0  0  0
 19 20  1  0  0  0
 20 21  2  0  0  0
 21 22  1  0  0  0
 22 23  2  0  0  0
 22 24  1  0  0  0
 24 25  2  0  0  0
 24 26  1  0  0  0
 26 27  1  0  0  0
 27 28  1  0  0  0
 28 29  1  0  0  0
 29 30  1  0  0  0
 30 31  1  0  0  0
 11  4  1  0  0  0
 23 18  1  0  0  0
 31 26  1  0  0  0
 14 17  1  0  0  0
M  END
> <minimizedAffinity>
-7.97446

> <CNNscore>
0.2509807944

> <CNNaffinity>
6.0671396255

> <CNN_VS>
1.5227354765

> <CNNaffinity_variance>
0.1362150013

$$$$
[H]OC(=O)C([H])([H])C([H])([H])c1c([H])c(Cl)c(Cl)c([H])c1S(=O)(=O)c1c([H])c([H])c([H])c(C(=O)N2C([H])([H])C([H])([H])C([H])([H])C([H])([H])C2([H])[H])c1[H]


 31 33  0  0  0  0  0  0  0  0999 V2000
  -19.9854   14.6409  -19.5810 S   0  0  0  0  0  0  0  0  0  0  0  0
  -19.6967   15.3608  -18.2584 O   0  0  0  0  0  0  0  0  0  0  0  0
  -21.4033   14.2817  -19.6169 O   0  0  0  0  0  0  0  0  0  0  0  0
  -18.5683   12.3640  -19.0359 C   0  0  0  0  0  0  0  0  0  0  0  0
  -17.6165   11.4274  -19.4841 C   0  0  0  0  0  0  0  0  0  0  0  0
  -16.9912   11.4659  -20.6862 C   0  0  0  0  0  0  0  0  0  0  0  0
  -15.8275   10.2338  -21.1112 Cl  0  0  0  0  0  0  0  0  0  0  0  0
  -17.3056   12.4936  -21.5395 C   0  0  0  0  0  0  0  0  0  0  0  0
  -16.5177   12.5755  -23.1004 Cl  0  0  0  0  0  0  0  0  0  0  0  0
  -18.2258   13.4237  -21.1439 C   0  0  0  0  0  0  0  0  0  0  0  0
  -18.8604   13.3829  -19.9195 C   0  0  0  0  0  0  0  0  0  0  0  0
  -19.2102   12.2107  -17.7369 C   0  0  0  0  0  0  0  0  0  0  0  0
  -19.5448   10.8883  -17.1993 C   0  0  0  0  0  0  0  0  0  0  0  0
  -21.6651   11.8019  -16.2246 O   0  0  0  0  0  0  0  0  0  0  0  0
  -20.7004   10.7828  -16.2818 C   0  0  0  0  0  0  0  0  0  0  0  0
  -20.8650    9.8121  -15.5393 O   0  0  0  0  0  0  0  0  0  0  0  0
  -21.9435   12.3022  -17.0472 H   0  0  0  0  0  0  0  0  0  0  0  0
  -19.7344   15.9374  -20.7726 C   0  0  0  0  0  0  0  0  0  0  0  0
  -18.5627   15.9725  -21.4751 C   0  0  0  0  0  0  0  0  0  0  0  0
  -18.4101   16.9821  -22.3908 C   0  0  0  0  0  0  0  0  0  0  0  0
  -19.4135   17.9475  -22.6056 C   0  0  0  0  0  0  0  0  0  0  0  0
  -20.5875   17.9319  -21.9195 C   0  0  0  0  0  0  0  0  0  0  0  0
  -20.7088   16.8794  -20.9855 C   0  0  0  0  0  0  0  0  0  0  0  0
  -21.7163   18.8292  -22.0825 C   0  0  0  0  0  0  0  0  0  0  0  0
  -22.1461   19.4115  -20.9752 O   0  0  0  0  0  0  0  0  0  0  0  0
  -22.4578   19.2074  -23.1974 N   0  0  0  0  0  0  0  0  0  0  0  0
  -22.2651   18.7197  -24.5165 C   0  0  0  0  0  0  0  0  0  0  0  0
  -23.3739   18.9106  -25.4960 C   0  0  0  0  0  0  0  0  0  0  0  0
  -24.4356   19.8667  -25.1322 C   0  0  0  0  0  0  0  0  0  0  0  0
  -23.8916   20.9181  -24.1992 C   0  0  0  0  0  0  0  0  0  0  0  0
  -23.5086   20.2210  -22.9301 C   0  0  0  0  0  0  0  0  0  0  0  0
 14 15  1  0  0  0
 15 16  2  0  0  0
 15 13  1  0  0  0
 13 12  1  0  0  0
 12  4  1  0  0  0
  4  5  2  0  0  0
  5  6  1  0  0  0
  6  7  1  0  0  0
  6  8  2  0  0  0
  8  9  1  0  0  0
  8 10  1  0  0  0
 10 11  2  0  0  0
 11  1  1  0  0  0
  1  2  2  0  0  0
  1  3  2  0  0  0
  1 18  1  0  0  0
 18 19  2  0  0  0
 19 20  1  0  0  0
 20 21  2  0  0  0
 21 22  1  0  0  0
 22 23  2  0  0  0
 22 24  1  0  0  0
 24 25  2  0  0  0
 24 26  1  0  0  0
 26 27  1  0  0  0
 27 28  1  0  0  0
 28 29  1  0  0  0
 29 30  1  0  0  0
 30 31  1  0  0  0
 11  4  1  0  0  0
 23 18  1  0  0  0
 31 26  1  0  0  0
 14 17  1  0  0  0
M  END
> <minimizedAffinity>
-8.29614

> <CNNscore>
0.2405723929

> <CNNaffinity>
6.0698785782

> <CNN_VS>
1.4602452517

> <CNNaffinity_variance>
0.2266455442

$$$$
[H]OC(=O)C([H])([H])C([H])([H])c1c([H])c(Cl)c(Cl)c([H])c1S(=O)(=O)c1c([H])c([H])c([H])c(C(=O)N2C([H])([H])C([H])([H])C([H])([H])C([H])([H])C2([H])[H])c1[H]


 31 33  0  0  0  0  0  0  0  0999 V2000
  -18.9427   14.1897  -18.3921 S   0  0  0  0  0  0  0  0  0  0  0  0
  -20.3674   13.6366  -18.2680 O   0  0  0  0  0  0  0  0  0  0  0  0
  -18.3334   14.2123  -17.0620 O   0  0  0  0  0  0  0  0  0  0  0  0
  -19.9795   16.2953  -19.7995 C   0  0  0  0  0  0  0  0  0  0  0  0
  -19.7213   17.4737  -20.5267 C   0  0  0  0  0  0  0  0  0  0  0  0
  -18.4904   17.9911  -20.7610 C   0  0  0  0  0  0  0  0  0  0  0  0
  -18.3179   19.4651  -21.6831 Cl  0  0  0  0  0  0  0  0  0  0  0  0
  -17.4063   17.3214  -20.2521 C   0  0  0  0  0  0  0  0  0  0  0  0
  -15.8013   17.9601  -20.5350 Cl  0  0  0  0  0  0  0  0  0  0  0  0
  -17.6129   16.1738  -19.5388 C   0  0  0  0  0  0  0  0  0  0  0  0
  -18.8665   15.6486  -19.3023 C   0  0  0  0  0  0  0  0  0  0  0  0
  -21.3462   15.8437  -19.5732 C   0  0  0  0  0  0  0  0  0  0  0  0
  -22.3517   16.7205  -18.9650 C   0  0  0  0  0  0  0  0  0  0  0  0
  -23.1812   18.9949  -19.6126 O   0  0  0  0  0  0  0  0  0  0  0  0
  -23.1260   17.6128  -19.8554 C   0  0  0  0  0  0  0  0  0  0  0  0
  -23.7467   17.1896  -20.8333 O   0  0  0  0  0  0  0  0  0  0  0  0
  -22.3873   19.4934  -19.2578 H   0  0  0  0  0  0  0  0  0  0  0  0
  -18.1292   12.9150  -19.3286 C   0  0  0  0  0  0  0  0  0  0  0  0
  -18.0585   11.6538  -18.8071 C   0  0  0  0  0  0  0  0  0  0  0  0
  -17.4312   10.6965  -19.5628 C   0  0  0  0  0  0  0  0  0  0  0  0
  -16.8796   10.9910  -20.8254 C   0  0  0  0  0  0  0  0  0  0  0  0
  -16.9390   12.2379  -21.3649 C   0  0  0  0  0  0  0  0  0  0  0  0
  -17.5910   13.1970  -20.5587 C   0  0  0  0  0  0  0  0  0  0  0  0
  -16.4614   12.6582  -22.6691 C   0  0  0  0  0  0  0  0  0  0  0  0
  -15.5026   11.9122  -23.1927 O   0  0  0  0  0  0  0  0  0  0  0  0
  -16.8165   13.7169  -23.4992 N   0  0  0  0  0  0  0  0  0  0  0  0
  -17.7816   14.7122  -23.1943 C   0  0  0  0  0  0  0  0  0  0  0  0
  -17.7541   15.9729  -23.9913 C   0  0  0  0  0  0  0  0  0  0  0  0
  -16.9624   15.9653  -25.2350 C   0  0  0  0  0  0  0  0  0  0  0  0
  -16.8824   14.5672  -25.7923 C   0  0  0  0  0  0  0  0  0  0  0  0
  -16.1115   13.7460  -24.8051 C   0  0  0  0  0  0  0  0  0  0  0  0
 14 15  1  0  0  0
 15 16  2  0  0  0
 15 13  1  0  0  0
 13 12  1  0  0  0
 12  4  1  0  0  0
  4  5  2  0  0  0
  5  6  1  0  0  0
  6  7  1  0  0  0
  6  8  2  0  0  0
  8  9  1  0  0  0
  8 10  1  0  0  0
 10 11  2  0  0  0
 11  1  1  0  0  0
  1  2  2  0  0  0
  1  3  2  0  0  0
  1 18  1  0  0  0
 18 19  2  0  0  0
 19 20  1  0  0  0
 20 21  2  0  0  0
 21 22  1  0  0  0
 22 23  2  0  0  0
 22 24  1  0  0  0
 24 25  2  0  0  0
 24 26  1  0  0  0
 26 27  1  0  0  0
 27 28  1  0  0  0
 28 29  1  0  0  0
 29 30  1  0  0  0
 30 31  1  0  0  0
 11  4  1  0  0  0
 23 18  1  0  0  0
 31 26  1  0  0  0
 14 17  1  0  0  0
M  END
> <minimizedAffinity>
-8.25288

> <CNNscore>
0.2343929261

> <CNNaffinity>
6.7504882812

> <CNN_VS>
1.5822666883

> <CNNaffinity_variance>
0.1920233816

$$$$
[H]OC(=O)C([H])([H])C([H])([H])c1c([H])c(Cl)c(Cl)c([H])c1S(=O)(=O)c1c([H])c([H])c([H])c(C(=O)N2C([H])([H])C([H])([H])C([H])([H])C([H])([H])C2([H])[H])c1[H]


 31 33  0  0  0  0  0  0  0  0999 V2000
  -19.8854   15.9570  -19.6902 S   0  0  0  0  0  0  0  0  0  0  0  0
  -20.1164   17.0208  -18.6104 O   0  0  0  0  0  0  0  0  0  0  0  0
  -20.9142   16.1061  -20.7198 O   0  0  0  0  0  0  0  0  0  0  0  0
  -20.4683   13.8413  -18.0550 C   0  0  0  0  0  0  0  0  0  0  0  0
  -20.1318   12.5371  -17.6428 C   0  0  0  0  0  0  0  0  0  0  0  0
  -19.1030   11.8050  -18.1359 C   0  0  0  0  0  0  0  0  0  0  0  0
  -18.8001   10.1949  -17.5287 Cl  0  0  0  0  0  0  0  0  0  0  0  0
  -18.3248   12.3708  -19.1143 C   0  0  0  0  0  0  0  0  0  0  0  0
  -16.9873   11.4546  -19.7745 Cl  0  0  0  0  0  0  0  0  0  0  0  0
  -18.6181   13.6348  -19.5442 C   0  0  0  0  0  0  0  0  0  0  0  0
  -19.6652   14.3784  -19.0403 C   0  0  0  0  0  0  0  0  0  0  0  0
  -21.6195   14.5291  -17.4852 C   0  0  0  0  0  0  0  0  0  0  0  0
  -21.7121   14.8064  -16.0485 C   0  0  0  0  0  0  0  0  0  0  0  0
  -19.7720   16.3613  -15.7341 O   0  0  0  0  0  0  0  0  0  0  0  0
  -21.1333   16.0716  -15.5458 C   0  0  0  0  0  0  0  0  0  0  0  0
  -21.8088   16.9133  -14.9494 O   0  0  0  0  0  0  0  0  0  0  0  0
  -19.2933   16.0913  -16.5722 H   0  0  0  0  0  0  0  0  0  0  0  0
  -18.3408   16.4784  -20.4015 C   0  0  0  0  0  0  0  0  0  0  0  0
  -17.3329   16.8818  -19.5714 C   0  0  0  0  0  0  0  0  0  0  0  0
  -16.1544   17.2681  -20.1571 C   0  0  0  0  0  0  0  0  0  0  0  0
  -15.9802   17.2533  -21.5551 C   0  0  0  0  0  0  0  0  0  0  0  0
  -16.9681   16.8549  -22.4004 C   0  0  0  0  0  0  0  0  0  0  0  0
  -18.1664   16.4653  -21.7623 C   0  0  0  0  0  0  0  0  0  0  0  0
  -16.9004   16.7426  -23.8456 C   0  0  0  0  0  0  0  0  0  0  0  0
  -16.9266   17.8872  -24.5081 O   0  0  0  0  0  0  0  0  0  0  0  0
  -16.8139   15.6447  -24.6959 N   0  0  0  0  0  0  0  0  0  0  0  0
  -16.8104   14.2858  -24.2856 C   0  0  0  0  0  0  0  0  0  0  0  0
  -17.1147   13.2492  -25.3143 C   0  0  0  0  0  0  0  0  0  0  0  0
  -17.0695   13.6697  -26.7267 C   0  0  0  0  0  0  0  0  0  0  0  0
  -16.1190   14.8273  -26.8947 C   0  0  0  0  0  0  0  0  0  0  0  0
  -16.6976   15.9822  -26.1366 C   0  0  0  0  0  0  0  0  0  0  0  0
 14 15  1  0  0  0
 15 16  2  0  0  0
 15 13  1  0  0  0
 13 12  1  0  0  0
 12  4  1  0  0  0
  4  5  2  0  0  0
  5  6  1  0  0  0
  6  7  1  0  0  0
  6  8  2  0  0  0
  8  9  1  0  0  0
  8 10  1  0  0  0
 10 11  2  0  0  0
 11  1  1  0  0  0
  1  2  2  0  0  0
  1  3  2  0  0  0
  1 18  1  0  0  0
 18 19  2  0  0  0
 19 20  1  0  0  0
 20 21  2  0  0  0
 21 22  1  0  0  0
 22 23  2  0  0  0
 22 24  1  0  0  0
 24 25  2  0  0  0
 24 26  1  0  0  0
 26 27  1  0  0  0
 27 28  1  0  0  0
 28 29  1  0  0  0
 29 30  1  0  0  0
 30 31  1  0  0  0
 11  4  1  0  0  0
 23 18  1  0  0  0
 31 26  1  0  0  0
 14 17  1  0  0  0
M  END
> <minimizedAffinity>
-7.73331

> <CNNscore>
0.2260567397

> <CNNaffinity>
6.5345702171

> <CNN_VS>
1.4771835804

> <CNNaffinity_variance>
0.2060155421

$$$$
[H]OC(=O)C([H])([H])C([H])([H])c1c([H])c(Cl)c(Cl)c([H])c1S(=O)(=O)c1c([H])c([H])c([H])c(C(=O)N2C([H])([H])C([H])([H])C([H])([H])C([H])([H])C2([H])[H])c1[H]


 31 33  0  0  0  0  0  0  0  0999 V2000
  -17.0336   16.1029  -21.8785 S   0  0  0  0  0  0  0  0  0  0  0  0
  -16.4772   17.4505  -22.3531 O   0  0  0  0  0  0  0  0  0  0  0  0
  -16.3335   15.7141  -20.6540 O   0  0  0  0  0  0  0  0  0  0  0  0
  -17.3276   13.5843  -22.9079 C   0  0  0  0  0  0  0  0  0  0  0  0
  -17.3474   12.7714  -24.0581 C   0  0  0  0  0  0  0  0  0  0  0  0
  -17.1667   13.2123  -25.3272 C   0  0  0  0  0  0  0  0  0  0  0  0
  -17.2161   12.0876  -26.6634 Cl  0  0  0  0  0  0  0  0  0  0  0  0
  -16.9485   14.5540  -25.5146 C   0  0  0  0  0  0  0  0  0  0  0  0
  -16.7108   15.1591  -27.1398 Cl  0  0  0  0  0  0  0  0  0  0  0  0
  -16.9229   15.3785  -24.4246 C   0  0  0  0  0  0  0  0  0  0  0  0
  -17.1063   14.9275  -23.1338 C   0  0  0  0  0  0  0  0  0  0  0  0
  -17.5699   13.0148  -21.5888 C   0  0  0  0  0  0  0  0  0  0  0  0
  -17.4379   11.5760  -21.3397 C   0  0  0  0  0  0  0  0  0  0  0  0
  -15.9657   10.0560  -19.9971 O   0  0  0  0  0  0  0  0  0  0  0  0
  -16.8519   11.1441  -20.0519 C   0  0  0  0  0  0  0  0  0  0  0  0
  -17.1113   11.7107  -18.9878 O   0  0  0  0  0  0  0  0  0  0  0  0
  -15.3064    9.8839  -20.7321 H   0  0  0  0  0  0  0  0  0  0  0  0
  -18.7008   16.5274  -21.4265 C   0  0  0  0  0  0  0  0  0  0  0  0
  -19.2804   15.8921  -20.3644 C   0  0  0  0  0  0  0  0  0  0  0  0
  -20.5636   16.2530  -20.0415 C   0  0  0  0  0  0  0  0  0  0  0  0
  -21.2635   17.2364  -20.7682 C   0  0  0  0  0  0  0  0  0  0  0  0
  -20.7069   17.8823  -21.8275 C   0  0  0  0  0  0  0  0  0  0  0  0
  -19.3861   17.4846  -22.1310 C   0  0  0  0  0  0  0  0  0  0  0  0
  -21.2959   18.9449  -22.6213 C   0  0  0  0  0  0  0  0  0  0  0  0
  -21.1097   20.1708  -22.1606 O   0  0  0  0  0  0  0  0  0  0  0  0
  -22.0383   18.9324  -23.7980 N   0  0  0  0  0  0  0  0  0  0  0  0
  -22.4369   17.7683  -24.5058 C   0  0  0  0  0  0  0  0  0  0  0  0
  -23.5430   17.9037  -25.4976 C   0  0  0  0  0  0  0  0  0  0  0  0
  -23.9128   19.2699  -25.9103 C   0  0  0  0  0  0  0  0  0  0  0  0
  -22.7277   20.1919  -25.7789 C   0  0  0  0  0  0  0  0  0  0  0  0
  -22.3972   20.2745  -24.3205 C   0  0  0  0  0  0  0  0  0  0  0  0
 14 15  1  0  0  0
 15 16  2  0  0  0
 15 13  1  0  0  0
 13 12  1  0  0  0
 12  4  1  0  0  0
  4  5  2  0  0  0
  5  6  1  0  0  0
  6  7  1  0  0  0
  6  8  2  0  0  0
  8  9  1  0  0  0
  8 10  1  0  0  0
 10 11  2  0  0  0
 11  1  1  0  0  0
  1  2  2  0  0  0
  1  3  2  0  0  0
  1 18  1  0  0  0
 18 19  2  0  0  0
 19 20  1  0  0  0
 20 21  2  0  0  0
 21 22  1  0  0  0
 22 23  2  0  0  0
 22 24  1  0  0  0
 24 25  2  0  0  0
 24 26  1  0  0  0
 26 27  1  0  0  0
 27 28  1  0  0  0
 28 29  1  0  0  0
 29 30  1  0  0  0
 30 31  1  0  0  0
 11  4  1  0  0  0
 23 18  1  0  0  0
 31 26  1  0  0  0
 14 17  1  0  0  0
M  END
> <minimizedAffinity>
-8.51260

> <CNNscore>
0.2235830277

> <CNNaffinity>
6.4107675552

> <CNN_VS>
1.4333387613

> <CNNaffinity_variance>
0.1430982053

$$$$
[H]OC([H])([H])[C@@]1([H])O[C@@]([H])(n2c([H])nc3c(N([H])[H])nc([H])nc32)[C@]([H])(S(=O)(=O)c2c([H])c([H])c([H])c([H])c2[H])[C@]1([H])O[H]


 31 34  0  0  0  0  0  0  0  0999 V2000
  -17.9622   14.3091  -22.4028 C   0  0  0  0  0  0  0  0  0  0  0  0
  -17.5770   13.6352  -23.5604 O   0  0  0  0  0  0  0  0  0  0  0  0
  -16.8116   14.4718  -24.3316 C   0  0  0  0  0  0  0  0  0  0  0  0
  -16.3128   15.6072  -23.4517 C   0  0  0  0  0  0  0  0  0  0  0  0
  -16.9106   16.7974  -23.9139 O   0  0  0  0  0  0  0  0  0  0  0  0
  -16.7938   15.2361  -22.0917 C   0  0  0  0  0  0  0  0  0  0  0  0
  -17.4852   16.6249  -24.6913 H   0  0  0  0  0  0  0  0  0  0  0  0
  -17.5198    9.7291  -18.4310 N   0  0  0  0  0  0  0  0  0  0  0  0
  -17.1124   10.4353  -19.5967 C   0  0  0  0  0  0  0  0  0  0  0  0
  -16.0824    9.9535  -20.3231 N   0  0  0  0  0  0  0  0  0  0  0  0
  -15.6772   10.6131  -21.4404 C   0  0  0  0  0  0  0  0  0  0  0  0
  -16.2841   11.7338  -21.8323 N   0  0  0  0  0  0  0  0  0  0  0  0
  -17.3108   12.2690  -21.1621 C   0  0  0  0  0  0  0  0  0  0  0  0
  -18.0685   13.3459  -21.3356 N   0  0  0  0  0  0  0  0  0  0  0  0
  -18.9531   13.3591  -20.3194 C   0  0  0  0  0  0  0  0  0  0  0  0
  -18.7431   12.2974  -19.5237 N   0  0  0  0  0  0  0  0  0  0  0  0
  -17.7248   11.5877  -20.0131 C   0  0  0  0  0  0  0  0  0  0  0  0
  -18.4184    9.2088  -18.4423 H   0  0  0  0  0  0  0  0  0  0  0  0
  -16.8993    9.7561  -17.5956 H   0  0  0  0  0  0  0  0  0  0  0  0
  -15.6360   13.7036  -24.9285 C   0  0  0  0  0  0  0  0  0  0  0  0
  -14.9286   13.0567  -23.8977 O   0  0  0  0  0  0  0  0  0  0  0  0
  -13.9830   13.1172  -24.1173 H   0  0  0  0  0  0  0  0  0  0  0  0
  -17.2497   16.5633  -21.0504 S   0  0  0  0  0  0  0  0  0  0  0  0
  -16.3770   17.7507  -21.4284 O   0  0  0  0  0  0  0  0  0  0  0  0
  -16.9769   16.2967  -19.6004 O   0  0  0  0  0  0  0  0  0  0  0  0
  -18.9223   16.9633  -21.3273 C   0  0  0  0  0  0  0  0  0  0  0  0
  -19.8063   16.6427  -20.2979 C   0  0  0  0  0  0  0  0  0  0  0  0
  -21.1415   16.9076  -20.4089 C   0  0  0  0  0  0  0  0  0  0  0  0
  -21.6040   17.4970  -21.5533 C   0  0  0  0  0  0  0  0  0  0  0  0
  -20.7616   17.8285  -22.5919 C   0  0  0  0  0  0  0  0  0  0  0  0
  -19.4027   17.5513  -22.4626 C   0  0  0  0  0  0  0  0  0  0  0  0
  8  9  1  0  0  0
  9 10  2  0  0  0
 10 11  1  0  0  0
 11 12  2  0  0  0
 12 13  1  0  0  0
 13 14  1  0  0  0
 14 15  1  0  0  0
 15 16  2  0  0  0
 16 17  1  0  0  0
 14  1  1  0  0  0
  1  2  1  0  0  0
  2  3  1  0  0  0
  3 20  1  0  0  0
 20 21  1  0  0  0
  3  4  1  0  0  0
  4  5  1  0  0  0
  4  6  1  0  0  0
  6 23  1  0  0  0
 23 24  2  0  0  0
 23 25  2  0  0  0
 23 26  1  0  0  0
 26 27  2  0  0  0
 27 28  1  0  0  0
 28 29  2  0  0  0
 29 30  1  0  0  0
 30 31  2  0  0  0
 17  9  1  0  0  0
  6  1  1  0  0  0
 31 26  1  0  0  0
 17 13  2  0  0  0
  8 18  1  0  0  0
  8 19  1  0  0  0
 21 22  1  0  0  0
  5  7  1  0  0  0
M  END
> <minimizedAffinity>
-7.73181

> <CNNscore>
0.7208152413

> <CNNaffinity>
6.3089041710

> <CNN_VS>
4.5475544930

> <CNNaffinity_variance>
0.1309026033

$$$$
[H]OC([H])([H])[C@@]1([H])O[C@@]([H])(n2c([H])nc3c(N([H])[H])nc([H])nc32)[C@]([H])(S(=O)(=O)c2c([H])c([H])c([H])c([H])c2[H])[C@]1([H])O[H]


 31 34  0  0  0  0  0  0  0  0999 V2000
  -18.1380   15.3053  -23.1545 C   0  0  0  0  0  0  0  0  0  0  0  0
  -17.2343   14.9575  -24.1569 O   0  0  0  0  0  0  0  0  0  0  0  0
  -16.6459   16.0964  -24.6439 C   0  0  0  0  0  0  0  0  0  0  0  0
  -16.8540   17.2107  -23.6304 C   0  0  0  0  0  0  0  0  0  0  0  0
  -17.6927   18.1753  -24.2251 O   0  0  0  0  0  0  0  0  0  0  0  0
  -17.5187   16.5265  -22.4864 C   0  0  0  0  0  0  0  0  0  0  0  0
  -17.9299   17.9189  -25.1428 H   0  0  0  0  0  0  0  0  0  0  0  0
  -17.3497   10.4068  -19.6431 N   0  0  0  0  0  0  0  0  0  0  0  0
  -16.9898   11.2584  -20.7242 C   0  0  0  0  0  0  0  0  0  0  0  0
  -15.9113   10.9422  -21.4709 N   0  0  0  0  0  0  0  0  0  0  0  0
  -15.5502   11.7426  -22.5085 C   0  0  0  0  0  0  0  0  0  0  0  0
  -16.2478   12.8402  -22.8020 N   0  0  0  0  0  0  0  0  0  0  0  0
  -17.3270   13.2153  -22.1059 C   0  0  0  0  0  0  0  0  0  0  0  0
  -18.1741   14.2348  -22.1899 N   0  0  0  0  0  0  0  0  0  0  0  0
  -19.0705   14.0701  -21.1976 C   0  0  0  0  0  0  0  0  0  0  0  0
  -18.7789   12.9563  -20.5055 N   0  0  0  0  0  0  0  0  0  0  0  0
  -17.6954   12.3895  -21.0391 C   0  0  0  0  0  0  0  0  0  0  0  0
  -18.1987    9.8146  -19.7259 H   0  0  0  0  0  0  0  0  0  0  0  0
  -16.7457   10.4036  -18.7952 H   0  0  0  0  0  0  0  0  0  0  0  0
  -15.1568   15.8578  -24.8761 C   0  0  0  0  0  0  0  0  0  0  0  0
  -14.6400   16.8845  -25.6887 O   0  0  0  0  0  0  0  0  0  0  0  0
  -13.9963   16.4755  -26.2925 H   0  0  0  0  0  0  0  0  0  0  0  0
  -18.6910   17.4737  -21.6020 S   0  0  0  0  0  0  0  0  0  0  0  0
  -20.0446   17.2351  -22.2538 O   0  0  0  0  0  0  0  0  0  0  0  0
  -18.4453   18.9501  -21.6914 O   0  0  0  0  0  0  0  0  0  0  0  0
  -18.7409   16.9290  -19.9482 C   0  0  0  0  0  0  0  0  0  0  0  0
  -19.9854   16.9879  -19.3222 C   0  0  0  0  0  0  0  0  0  0  0  0
  -20.1400   16.5899  -18.0249 C   0  0  0  0  0  0  0  0  0  0  0  0
  -19.0483   16.1286  -17.3420 C   0  0  0  0  0  0  0  0  0  0  0  0
  -17.8028   16.0556  -17.9264 C   0  0  0  0  0  0  0  0  0  0  0  0
  -17.6623   16.4656  -19.2502 C   0  0  0  0  0  0  0  0  0  0  0  0
  8  9  1  0  0  0
  9 10  2  0  0  0
 10 11  1  0  0  0
 11 12  2  0  0  0
 12 13  1  0  0  0
 13 14  1  0  0  0
 14 15  1  0  0  0
 15 16  2  0  0  0
 16 17  1  0  0  0
 14  1  1  0  0  0
  1  2  1  0  0  0
  2  3  1  0  0  0
  3 20  1  0  0  0
 20 21  1  0  0  0
  3  4  1  0  0  0
  4  5  1  0  0  0
  4  6  1  0  0  0
  6 23  1  0  0  0
 23 24  2  0  0  0
 23 25  2  0  0  0
 23 26  1  0  0  0
 26 27  2  0  0  0
 27 28  1  0  0  0
 28 29  2  0  0  0
 29 30  1  0  0  0
 30 31  2  0  0  0
 17  9  1  0  0  0
  6  1  1  0  0  0
 31 26  1  0  0  0
 17 13  2  0  0  0
  8 18  1  0  0  0
  8 19  1  0  0  0
 21 22  1  0  0  0
  5  7  1  0  0  0
M  END
> <minimizedAffinity>
-7.28895

> <CNNscore>
0.5133931637

> <CNNaffinity>
6.2513170242

> <CNN_VS>
3.2093834877

> <CNNaffinity_variance>
0.3460309505

$$$$
[H]OC([H])([H])[C@@]1([H])O[C@@]([H])(n2c([H])nc3c(N([H])[H])nc([H])nc32)[C@]([H])(S(=O)(=O)c2c([H])c([H])c([H])c([H])c2[H])[C@]1([H])O[H]


 31 34  0  0  0  0  0  0  0  0999 V2000
  -18.2701   15.7645  -20.8000 C   0  0  0  0  0  0  0  0  0  0  0  0
  -19.2826   15.6655  -19.8474 O   0  0  0  0  0  0  0  0  0  0  0  0
  -20.2567   16.5877  -20.1321 C   0  0  0  0  0  0  0  0  0  0  0  0
  -20.0880   17.0277  -21.5778 C   0  0  0  0  0  0  0  0  0  0  0  0
  -19.7207   18.3888  -21.5680 O   0  0  0  0  0  0  0  0  0  0  0  0
  -18.9886   16.1596  -22.0841 C   0  0  0  0  0  0  0  0  0  0  0  0
  -19.6763   18.7356  -20.6504 H   0  0  0  0  0  0  0  0  0  0  0  0
  -16.4692    9.9610  -20.6465 N   0  0  0  0  0  0  0  0  0  0  0  0
  -17.2033   11.0705  -20.1431 C   0  0  0  0  0  0  0  0  0  0  0  0
  -17.9579   10.9041  -19.0369 N   0  0  0  0  0  0  0  0  0  0  0  0
  -18.6672   11.9515  -18.5394 C   0  0  0  0  0  0  0  0  0  0  0  0
  -18.6293   13.1465  -19.1295 N   0  0  0  0  0  0  0  0  0  0  0  0
  -17.9039   13.3844  -20.2281 C   0  0  0  0  0  0  0  0  0  0  0  0
  -17.7000   14.4540  -20.9887 N   0  0  0  0  0  0  0  0  0  0  0  0
  -16.8573   14.0720  -21.9681 C   0  0  0  0  0  0  0  0  0  0  0  0
  -16.5431   12.7751  -21.8134 N   0  0  0  0  0  0  0  0  0  0  0  0
  -17.1755   12.3046  -20.7371 C   0  0  0  0  0  0  0  0  0  0  0  0
  -15.4357    9.9500  -20.5459 H   0  0  0  0  0  0  0  0  0  0  0  0
  -16.9951    9.1879  -21.1042 H   0  0  0  0  0  0  0  0  0  0  0  0
  -21.6371   15.9735  -19.9191 C   0  0  0  0  0  0  0  0  0  0  0  0
  -21.5103   14.5797  -19.7679 O   0  0  0  0  0  0  0  0  0  0  0  0
  -22.2659   14.1720  -20.2250 H   0  0  0  0  0  0  0  0  0  0  0  0
  -17.9156   16.8857  -23.2567 S   0  0  0  0  0  0  0  0  0  0  0  0
  -16.6764   17.3482  -22.5053 O   0  0  0  0  0  0  0  0  0  0  0  0
  -18.4885   18.1125  -23.9009 O   0  0  0  0  0  0  0  0  0  0  0  0
  -17.4624   15.6900  -24.4396 C   0  0  0  0  0  0  0  0  0  0  0  0
  -18.3464   14.6241  -24.6016 C   0  0  0  0  0  0  0  0  0  0  0  0
  -18.0895   13.6269  -25.4986 C   0  0  0  0  0  0  0  0  0  0  0  0
  -16.9433   13.6882  -26.2425 C   0  0  0  0  0  0  0  0  0  0  0  0
  -16.0457   14.7252  -26.1108 C   0  0  0  0  0  0  0  0  0  0  0  0
  -16.3229   15.7341  -25.1913 C   0  0  0  0  0  0  0  0  0  0  0  0
  8  9  1  0  0  0
  9 10  2  0  0  0
 10 11  1  0  0  0
 11 12  2  0  0  0
 12 13  1  0  0  0
 13 14  1  0  0  0
 14 15  1  0  0  0
 15 16  2  0  0  0
 16 17  1  0  0  0
 14  1  1  0  0  0
  1  2  1  0  0  0
  2  3  1  0  0  0
  3 20  1  0  0  0
 20 21  1  0  0  0
  3  4  1  0  0  0
  4  5  1  0  0  0
  4  6  1  0  0  0
  6 23  1  0  0  0
 23 24  2  0  0  0
 23 25  2  0  0  0
 23 26  1  0  0  0
 26 27  2  0  0  0
 27 28  1  0  0  0
 28 29  2  0  0  0
 29 30  1  0  0  0
 30 31  2  0  0  0
 17  9  1  0  0  0
  6  1  1  0  0  0
 31 26  1  0  0  0
 17 13  2  0  0  0
  8 18  1  0  0  0
  8 19  1  0  0  0
 21 22  1  0  0  0
  5  7  1  0  0  0
M  END
> <minimizedAffinity>
-7.70213

> <CNNscore>
0.4372131228

> <CNNaffinity>
5.8893594742

> <CNN_VS>
2.5749051571

> <CNNaffinity_variance>
0.2930092216

$$$$
[H]OC([H])([H])[C@@]1([H])O[C@@]([H])(n2c([H])nc3c(N([H])[H])nc([H])nc32)[C@]([H])(S(=O)(=O)c2c([H])c([H])c([H])c([H])c2[H])[C@]1([H])O[H]


 31 34  0  0  0  0  0  0  0  0999 V2000
  -17.7094   17.5960  -21.2572 C   0  0  0  0  0  0  0  0  0  0  0  0
  -17.6011   17.7694  -19.8785 O   0  0  0  0  0  0  0  0  0  0  0  0
  -18.5329   18.6880  -19.4684 C   0  0  0  0  0  0  0  0  0  0  0  0
  -19.5885   18.8136  -20.5556 C   0  0  0  0  0  0  0  0  0  0  0  0
  -19.4984   20.1163  -21.0872 O   0  0  0  0  0  0  0  0  0  0  0  0
  -19.1931   17.7790  -21.5515 C   0  0  0  0  0  0  0  0  0  0  0  0
  -18.8015   20.6362  -20.6309 H   0  0  0  0  0  0  0  0  0  0  0  0
  -15.5527   12.3314  -23.3971 N   0  0  0  0  0  0  0  0  0  0  0  0
  -15.6516   13.7504  -23.3973 C   0  0  0  0  0  0  0  0  0  0  0  0
  -14.9418   14.4525  -24.3050 N   0  0  0  0  0  0  0  0  0  0  0  0
  -15.0222   15.8094  -24.3222 C   0  0  0  0  0  0  0  0  0  0  0  0
  -15.7948   16.4609  -23.4526 N   0  0  0  0  0  0  0  0  0  0  0  0
  -16.5256   15.8310  -22.5258 C   0  0  0  0  0  0  0  0  0  0  0  0
  -17.3538   16.2343  -21.5689 N   0  0  0  0  0  0  0  0  0  0  0  0
  -17.7938   15.1215  -20.9497 C   0  0  0  0  0  0  0  0  0  0  0  0
  -17.2409   14.0383  -21.5203 N   0  0  0  0  0  0  0  0  0  0  0  0
  -16.4404   14.4353  -22.5111 C   0  0  0  0  0  0  0  0  0  0  0  0
  -16.3589   11.7675  -23.7293 H   0  0  0  0  0  0  0  0  0  0  0  0
  -14.6675   11.8985  -23.0611 H   0  0  0  0  0  0  0  0  0  0  0  0
  -19.1693   18.2378  -18.1567 C   0  0  0  0  0  0  0  0  0  0  0  0
  -19.7513   19.3471  -17.5145 O   0  0  0  0  0  0  0  0  0  0  0  0
  -19.5913   19.2426  -16.5608 H   0  0  0  0  0  0  0  0  0  0  0  0
  -19.5012   18.1691  -23.2268 S   0  0  0  0  0  0  0  0  0  0  0  0
  -19.3044   16.8915  -24.0288 O   0  0  0  0  0  0  0  0  0  0  0  0
  -18.5297   19.1626  -23.7899 O   0  0  0  0  0  0  0  0  0  0  0  0
  -21.1477   18.7116  -23.3976 C   0  0  0  0  0  0  0  0  0  0  0  0
  -21.3281   19.9122  -24.0831 C   0  0  0  0  0  0  0  0  0  0  0  0
  -22.5760   20.4338  -24.2724 C   0  0  0  0  0  0  0  0  0  0  0  0
  -23.6560   19.7568  -23.7763 C   0  0  0  0  0  0  0  0  0  0  0  0
  -23.5179   18.5679  -23.0938 C   0  0  0  0  0  0  0  0  0  0  0  0
  -22.2381   18.0498  -22.9094 C   0  0  0  0  0  0  0  0  0  0  0  0
  8  9  1  0  0  0
  9 10  2  0  0  0
 10 11  1  0  0  0
 11 12  2  0  0  0
 12 13  1  0  0  0
 13 14  1  0  0  0
 14 15  1  0  0  0
 15 16  2  0  0  0
 16 17  1  0  0  0
 14  1  1  0  0  0
  1  2  1  0  0  0
  2  3  1  0  0  0
  3 20  1  0  0  0
 20 21  1  0  0  0
  3  4  1  0  0  0
  4  5  1  0  0  0
  4  6  1  0  0  0
  6 23  1  0  0  0
 23 24  2  0  0  0
 23 25  2  0  0  0
 23 26  1  0  0  0
 26 27  2  0  0  0
 27 28  1  0  0  0
 28 29  2  0  0  0
 29 30  1  0  0  0
 30 31  2  0  0  0
 17  9  1  0  0  0
  6  1  1  0  0  0
 31 26  1  0  0  0
 17 13  2  0  0  0
  8 18  1  0  0  0
  8 19  1  0  0  0
 21 22  1  0  0  0
  5  7  1  0  0  0
M  END
> <minimizedAffinity>
-6.84278

> <CNNscore>
0.2082152218

> <CNNaffinity>
5.1642580032

> <CNN_VS>
1.0752770901

> <CNNaffinity_variance>
0.2365228236

$$$$
[H]OC([H])([H])[C@@]1([H])O[C@@]([H])(n2c([H])nc3c(N([H])[H])nc([H])nc32)[C@]([H])(S(=O)(=O)c2c([H])c([H])c([H])c([H])c2[H])[C@]1([H])O[H]


 31 34  0  0  0  0  0  0  0  0999 V2000
  -20.4001   17.0553  -19.2989 C   0  0  0  0  0  0  0  0  0  0  0  0
  -19.5415   18.1499  -19.3837 O   0  0  0  0  0  0  0  0  0  0  0  0
  -18.2612   17.7361  -19.1190 C   0  0  0  0  0  0  0  0  0  0  0  0
  -18.2054   16.2255  -19.2838 C   0  0  0  0  0  0  0  0  0  0  0  0
  -17.9491   15.6684  -18.0144 O   0  0  0  0  0  0  0  0  0  0  0  0
  -19.5655   15.8748  -19.7797 C   0  0  0  0  0  0  0  0  0  0  0  0
  -17.8508   16.3700  -17.3345 H   0  0  0  0  0  0  0  0  0  0  0  0
  -24.0995   18.1672  -23.9920 N   0  0  0  0  0  0  0  0  0  0  0  0
  -22.8142   18.0769  -23.3893 C   0  0  0  0  0  0  0  0  0  0  0  0
  -21.7248   18.3617  -24.1330 N   0  0  0  0  0  0  0  0  0  0  0  0
  -20.4874   18.2815  -23.5763 C   0  0  0  0  0  0  0  0  0  0  0  0
  -20.3316   17.9244  -22.3012 N   0  0  0  0  0  0  0  0  0  0  0  0
  -21.3650   17.6281  -21.5050 C   0  0  0  0  0  0  0  0  0  0  0  0
  -21.4777   17.2552  -20.2352 N   0  0  0  0  0  0  0  0  0  0  0  0
  -22.7949   17.1012  -19.9971 C   0  0  0  0  0  0  0  0  0  0  0  0
  -23.4909   17.3773  -21.1124 N   0  0  0  0  0  0  0  0  0  0  0  0
  -22.6366   17.7117  -22.0810 C   0  0  0  0  0  0  0  0  0  0  0  0
  -24.7314   18.9460  -23.7229 H   0  0  0  0  0  0  0  0  0  0  0  0
  -24.3692   17.4435  -24.6901 H   0  0  0  0  0  0  0  0  0  0  0  0
  -17.2841   18.4134  -20.0754 C   0  0  0  0  0  0  0  0  0  0  0  0
  -17.9711   19.3715  -20.8446 O   0  0  0  0  0  0  0  0  0  0  0  0
  -17.6020   19.3354  -21.7438 H   0  0  0  0  0  0  0  0  0  0  0  0
  -20.2051   14.3393  -19.2445 S   0  0  0  0  0  0  0  0  0  0  0  0
  -21.4786   14.0829  -20.0362 O   0  0  0  0  0  0  0  0  0  0  0  0
  -20.6105   14.3395  -17.8010 O   0  0  0  0  0  0  0  0  0  0  0  0
  -19.0479   13.0832  -19.5874 C   0  0  0  0  0  0  0  0  0  0  0  0
  -18.7255   12.2416  -18.5236 C   0  0  0  0  0  0  0  0  0  0  0  0
  -17.8266   11.2250  -18.6780 C   0  0  0  0  0  0  0  0  0  0  0  0
  -17.2418   11.0419  -19.9008 C   0  0  0  0  0  0  0  0  0  0  0  0
  -17.5348   11.8526  -20.9755 C   0  0  0  0  0  0  0  0  0  0  0  0
  -18.4536   12.8849  -20.8010 C   0  0  0  0  0  0  0  0  0  0  0  0
  8  9  1  0  0  0
  9 10  2  0  0  0
 10 11  1  0  0  0
 11 12  2  0  0  0
 12 13  1  0  0  0
 13 14  1  0  0  0
 14 15  1  0  0  0
 15 16  2  0  0  0
 16 17  1  0  0  0
 14  1  1  0  0  0
  1  2  1  0  0  0
  2  3  1  0  0  0
  3 20  1  0  0  0
 20 21  1  0  0  0
  3  4  1  0  0  0
  4  5  1  0  0  0
  4  6  1  0  0  0
  6 23  1  0  0  0
 23 24  2  0  0  0
 23 25  2  0  0  0
 23 26  1  0  0  0
 26 27  2  0  0  0
 27 28  1  0  0  0
 28 29  2  0  0  0
 29 30  1  0  0  0
 30 31  2  0  0  0
 17  9  1  0  0  0
  6  1  1  0  0  0
 31 26  1  0  0  0
 17 13  2  0  0  0
  8 18  1  0  0  0
  8 19  1  0  0  0
 21 22  1  0  0  0
  5  7  1  0  0  0
M  END
> <minimizedAffinity>
-7.10223

> <CNNscore>
0.2059670240

> <CNNaffinity>
4.6441116333

> <CNN_VS>
0.9565338492

> <CNNaffinity_variance>
0.4965182245

$$$$
[H]OC([H])([H])[C@@]1([H])O[C@@]([H])(n2c([H])nc3c(N([H])[H])nc([H])nc32)[C@]([H])(S(=O)(=O)c2c([H])c([H])c([H])c([H])c2[H])[C@]1([H])O[H]


 31 34  0  0  0  0  0  0  0  0999 V2000
  -19.0243   16.0471  -20.9251 C   0  0  0  0  0  0  0  0  0  0  0  0
  -18.9085   17.4320  -20.8192 O   0  0  0  0  0  0  0  0  0  0  0  0
  -19.5448   17.8483  -19.6781 C   0  0  0  0  0  0  0  0  0  0  0  0
  -19.7246   16.6445  -18.7668 C   0  0  0  0  0  0  0  0  0  0  0  0
  -21.1079   16.3930  -18.6624 O   0  0  0  0  0  0  0  0  0  0  0  0
  -19.0140   15.5499  -19.4850 C   0  0  0  0  0  0  0  0  0  0  0  0
  -21.6257   17.0496  -19.1772 H   0  0  0  0  0  0  0  0  0  0  0  0
  -14.7582   13.7373  -24.5875 N   0  0  0  0  0  0  0  0  0  0  0  0
  -16.0930   14.1308  -24.2923 C   0  0  0  0  0  0  0  0  0  0  0  0
  -17.0442   13.9650  -25.2349 N   0  0  0  0  0  0  0  0  0  0  0  0
  -18.3259   14.3344  -24.9732 C   0  0  0  0  0  0  0  0  0  0  0  0
  -18.6601   14.8605  -23.7945 N   0  0  0  0  0  0  0  0  0  0  0  0
  -17.7707   15.0539  -22.8140 C   0  0  0  0  0  0  0  0  0  0  0  0
  -17.8434   15.5457  -21.5824 N   0  0  0  0  0  0  0  0  0  0  0  0
  -16.5983   15.4830  -21.0712 C   0  0  0  0  0  0  0  0  0  0  0  0
  -15.7623   14.9560  -21.9812 N   0  0  0  0  0  0  0  0  0  0  0  0
  -16.4531   14.6726  -23.0868 C   0  0  0  0  0  0  0  0  0  0  0  0
  -14.3657   12.8929  -24.1278 H   0  0  0  0  0  0  0  0  0  0  0  0
  -14.2115   14.3129  -25.2609 H   0  0  0  0  0  0  0  0  0  0  0  0
  -18.7185   18.9257  -18.9817 C   0  0  0  0  0  0  0  0  0  0  0  0
  -17.4415   18.9890  -19.5706 O   0  0  0  0  0  0  0  0  0  0  0  0
  -16.8030   19.1464  -18.8539 H   0  0  0  0  0  0  0  0  0  0  0  0
  -19.7024   13.9520  -19.3223 S   0  0  0  0  0  0  0  0  0  0  0  0
  -20.7386   13.7953  -20.4250 O   0  0  0  0  0  0  0  0  0  0  0  0
  -20.4409   13.7560  -18.0322 O   0  0  0  0  0  0  0  0  0  0  0  0
  -18.4485   12.7613  -19.5331 C   0  0  0  0  0  0  0  0  0  0  0  0
  -18.2940   12.2578  -20.8240 C   0  0  0  0  0  0  0  0  0  0  0  0
  -17.3444   11.3167  -21.1033 C   0  0  0  0  0  0  0  0  0  0  0  0
  -16.5400   10.8710  -20.0908 C   0  0  0  0  0  0  0  0  0  0  0  0
  -16.6624   11.3446  -18.8029 C   0  0  0  0  0  0  0  0  0  0  0  0
  -17.6360   12.3040  -18.5350 C   0  0  0  0  0  0  0  0  0  0  0  0
  8  9  1  0  0  0
  9 10  2  0  0  0
 10 11  1  0  0  0
 11 12  2  0  0  0
 12 13  1  0  0  0
 13 14  1  0  0  0
 14 15  1  0  0  0
 15 16  2  0  0  0
 16 17  1  0  0  0
 14  1  1  0  0  0
  1  2  1  0  0  0
  2  3  1  0  0  0
  3 20  1  0  0  0
 20 21  1  0  0  0
  3  4  1  0  0  0
  4  5  1  0  0  0
  4  6  1  0  0  0
  6 23  1  0  0  0
 23 24  2  0  0  0
 23 25  2  0  0  0
 23 26  1  0  0  0
 26 27  2  0  0  0
 27 28  1  0  0  0
 28 29  2  0  0  0
 29 30  1  0  0  0
 30 31  2  0  0  0
 17  9  1  0  0  0
  6  1  1  0  0  0
 31 26  1  0  0  0
 17 13  2  0  0  0
  8 18  1  0  0  0
  8 19  1  0  0  0
 21 22  1  0  0  0
  5  7  1  0  0  0
M  END
> <minimizedAffinity>
-7.47985

> <CNNscore>
0.1758851558

> <CNNaffinity>
5.2560429573

> <CNN_VS>
0.9244599342

> <CNNaffinity_variance>
0.4102736413

$$$$
[H]OC([H])([H])[C@@]1([H])O[C@@]([H])(n2c([H])nc3c(N([H])[H])nc([H])nc32)[C@]([H])(S(=O)(=O)c2c([H])c([H])c([H])c([H])c2[H])[C@]1([H])O[H]


 31 34  0  0  0  0  0  0  0  0999 V2000
  -19.2829   16.8005  -22.5750 C   0  0  0  0  0  0  0  0  0  0  0  0
  -20.3977   17.4539  -23.0974 O   0  0  0  0  0  0  0  0  0  0  0  0
  -21.0994   18.0320  -22.0709 C   0  0  0  0  0  0  0  0  0  0  0  0
  -20.1826   18.1273  -20.8616 C   0  0  0  0  0  0  0  0  0  0  0  0
  -20.7024   17.2755  -19.8657 O   0  0  0  0  0  0  0  0  0  0  0  0
  -18.8705   17.6446  -21.3756 C   0  0  0  0  0  0  0  0  0  0  0  0
  -21.5282   16.8399  -20.1699 H   0  0  0  0  0  0  0  0  0  0  0  0
  -15.0830   15.9469  -26.8853 N   0  0  0  0  0  0  0  0  0  0  0  0
  -16.1454   15.5031  -26.0500 C   0  0  0  0  0  0  0  0  0  0  0  0
  -16.5614   14.2234  -26.1502 N   0  0  0  0  0  0  0  0  0  0  0  0
  -17.5751   13.7791  -25.3611 C   0  0  0  0  0  0  0  0  0  0  0  0
  -18.1680   14.5911  -24.4854 N   0  0  0  0  0  0  0  0  0  0  0  0
  -17.8083   15.8706  -24.3319 C   0  0  0  0  0  0  0  0  0  0  0  0
  -18.2258   16.8621  -23.5531 N   0  0  0  0  0  0  0  0  0  0  0  0
  -17.4675   17.9333  -23.8579 C   0  0  0  0  0  0  0  0  0  0  0  0
  -16.5876   17.6054  -24.8185 N   0  0  0  0  0  0  0  0  0  0  0  0
  -16.7651   16.3241  -25.1453 C   0  0  0  0  0  0  0  0  0  0  0  0
  -14.1517   16.1321  -26.4649 H   0  0  0  0  0  0  0  0  0  0  0  0
  -15.2736   16.0732  -27.9010 H   0  0  0  0  0  0  0  0  0  0  0  0
  -21.5834   19.4189  -22.4839 C   0  0  0  0  0  0  0  0  0  0  0  0
  -21.0039   19.7678  -23.7184 O   0  0  0  0  0  0  0  0  0  0  0  0
  -20.7922   20.7163  -23.6777 H   0  0  0  0  0  0  0  0  0  0  0  0
  -17.8808   16.7583  -20.2404 S   0  0  0  0  0  0  0  0  0  0  0  0
  -18.2764   17.2183  -18.8454 O   0  0  0  0  0  0  0  0  0  0  0  0
  -16.4177   17.0579  -20.3734 O   0  0  0  0  0  0  0  0  0  0  0  0
  -18.2058   15.0546  -20.4018 C   0  0  0  0  0  0  0  0  0  0  0  0
  -17.2502   14.3126  -21.0947 C   0  0  0  0  0  0  0  0  0  0  0  0
  -17.4045   12.9690  -21.2847 C   0  0  0  0  0  0  0  0  0  0  0  0
  -18.5187   12.3555  -20.7816 C   0  0  0  0  0  0  0  0  0  0  0  0
  -19.4846   13.0548  -20.0916 C   0  0  0  0  0  0  0  0  0  0  0  0
  -19.3119   14.4246  -19.9069 C   0  0  0  0  0  0  0  0  0  0  0  0
  8  9  1  0  0  0
  9 10  2  0  0  0
 10 11  1  0  0  0
 11 12  2  0  0  0
 12 13  1  0  0  0
 13 14  1  0  0  0
 14 15  1  0  0  0
 15 16  2  0  0  0
 16 17  1  0  0  0
 14  1  1  0  0  0
  1  2  1  0  0  0
  2  3  1  0  0  0
  3 20  1  0  0  0
 20 21  1  0  0  0
  3  4  1  0  0  0
  4  5  1  0  0  0
  4  6  1  0  0  0
  6 23  1  0  0  0
 23 24  2  0  0  0
 23 25  2  0  0  0
 23 26  1  0  0  0
 26 27  2  0  0  0
 27 28  1  0  0  0
 28 29  2  0  0  0
 29 30  1  0  0  0
 30 31  2  0  0  0
 17  9  1  0  0  0
  6  1  1  0  0  0
 31 26  1  0  0  0
 17 13  2  0  0  0
  8 18  1  0  0  0
  8 19  1  0  0  0
 21 22  1  0  0  0
  5  7  1  0  0  0
M  END
> <minimizedAffinity>
-7.85250

> <CNNscore>
0.1689666063

> <CNNaffinity>
5.1383690834

> <CNN_VS>
0.8682127595

> <CNNaffinity_variance>
0.6418684125

$$$$
[H]OC([H])([H])[C@@]1([H])O[C@@]([H])(n2c([H])nc3c(N([H])[H])nc([H])nc32)[C@]([H])(S(=O)(=O)c2c([H])c([H])c([H])c([H])c2[H])[C@]1([H])O[H]


 31 34  0  0  0  0  0  0  0  0999 V2000
  -21.2600   17.5706  -19.0320 C   0  0  0  0  0  0  0  0  0  0  0  0
  -20.7218   18.8390  -18.8217 O   0  0  0  0  0  0  0  0  0  0  0  0
  -19.4346   18.7091  -18.3671 C   0  0  0  0  0  0  0  0  0  0  0  0
  -18.9534   17.3043  -18.6942 C   0  0  0  0  0  0  0  0  0  0  0  0
  -18.7579   16.6267  -17.4735 O   0  0  0  0  0  0  0  0  0  0  0  0
  -20.0770   16.7210  -19.4791 C   0  0  0  0  0  0  0  0  0  0  0  0
  -18.9567   17.2112  -16.7098 H   0  0  0  0  0  0  0  0  0  0  0  0
  -24.2502   18.0856  -24.2990 N   0  0  0  0  0  0  0  0  0  0  0  0
  -23.0626   18.0662  -23.5162 C   0  0  0  0  0  0  0  0  0  0  0  0
  -21.8746   18.2443  -24.1309 N   0  0  0  0  0  0  0  0  0  0  0  0
  -20.7278   18.2292  -23.4012 C   0  0  0  0  0  0  0  0  0  0  0  0
  -20.7578   18.0404  -22.0817 N   0  0  0  0  0  0  0  0  0  0  0  0
  -21.8980   17.8573  -21.4062 C   0  0  0  0  0  0  0  0  0  0  0  0
  -22.1934   17.6538  -20.1274 N   0  0  0  0  0  0  0  0  0  0  0  0
  -23.5342   17.5410  -20.0577 C   0  0  0  0  0  0  0  0  0  0  0  0
  -24.0632   17.6739  -21.2854 N   0  0  0  0  0  0  0  0  0  0  0  0
  -23.0757   17.8735  -22.1600 C   0  0  0  0  0  0  0  0  0  0  0  0
  -24.8937   18.8971  -24.2228 H   0  0  0  0  0  0  0  0  0  0  0  0
  -24.4391   17.2789  -24.9293 H   0  0  0  0  0  0  0  0  0  0  0  0
  -18.5374   19.7486  -19.0325 C   0  0  0  0  0  0  0  0  0  0  0  0
  -17.8121   19.1415  -20.0750 O   0  0  0  0  0  0  0  0  0  0  0  0
  -16.9194   19.5276  -20.0658 H   0  0  0  0  0  0  0  0  0  0  0  0
  -20.3592   15.0105  -19.2602 S   0  0  0  0  0  0  0  0  0  0  0  0
  -21.7341   14.7051  -19.8353 O   0  0  0  0  0  0  0  0  0  0  0  0
  -20.4154   14.6012  -17.8189 O   0  0  0  0  0  0  0  0  0  0  0  0
  -19.1524   14.1115  -20.1376 C   0  0  0  0  0  0  0  0  0  0  0  0
  -18.6173   14.7408  -21.2608 C   0  0  0  0  0  0  0  0  0  0  0  0
  -17.6670   14.1267  -22.0257 C   0  0  0  0  0  0  0  0  0  0  0  0
  -17.2434   12.8752  -21.6721 C   0  0  0  0  0  0  0  0  0  0  0  0
  -17.7484   12.2213  -20.5695 C   0  0  0  0  0  0  0  0  0  0  0  0
  -18.7170   12.8617  -19.8002 C   0  0  0  0  0  0  0  0  0  0  0  0
  8  9  1  0  0  0
  9 10  2  0  0  0
 10 11  1  0  0  0
 11 12  2  0  0  0
 12 13  1  0  0  0
 13 14  1  0  0  0
 14 15  1  0  0  0
 15 16  2  0  0  0
 16 17  1  0  0  0
 14  1  1  0  0  0
  1  2  1  0  0  0
  2  3  1  0  0  0
  3 20  1  0  0  0
 20 21  1  0  0  0
  3  4  1  0  0  0
  4  5  1  0  0  0
  4  6  1  0  0  0
  6 23  1  0  0  0
 23 24  2  0  0  0
 23 25  2  0  0  0
 23 26  1  0  0  0
 26 27  2  0  0  0
 27 28  1  0  0  0
 28 29  2  0  0  0
 29 30  1  0  0  0
 30 31  2  0  0  0
 17  9  1  0  0  0
  6  1  1  0  0  0
 31 26  1  0  0  0
 17 13  2  0  0  0
  8 18  1  0  0  0
  8 19  1  0  0  0
 21 22  1  0  0  0
  5  7  1  0  0  0
M  END
> <minimizedAffinity>
-7.00212

> <CNNscore>
0.1645873934

> <CNNaffinity>
4.5394620895

> <CNN_VS>
0.7471382618

> <CNNaffinity_variance>
0.4725953937

$$$$
[H]OC([H])([H])[C@@]1([H])O[C@@]([H])(n2c([H])nc3c(N([H])[H])nc([H])nc32)[C@]([H])(S(=O)(=O)c2c([H])c([H])c([H])c([H])c2[H])[C@]1([H])O[H]


 31 34  0  0  0  0  0  0  0  0999 V2000
  -17.2343   17.1517  -21.8813 C   0  0  0  0  0  0  0  0  0  0  0  0
  -16.8570   16.4566  -20.7337 O   0  0  0  0  0  0  0  0  0  0  0  0
  -17.3411   17.1148  -19.6324 C   0  0  0  0  0  0  0  0  0  0  0  0
  -18.4476   18.0537  -20.0869 C   0  0  0  0  0  0  0  0  0  0  0  0
  -18.0024   19.3732  -19.8674 O   0  0  0  0  0  0  0  0  0  0  0  0
  -18.5925   17.7507  -21.5381 C   0  0  0  0  0  0  0  0  0  0  0  0
  -17.1069   19.3811  -19.4645 H   0  0  0  0  0  0  0  0  0  0  0  0
  -17.0194   13.5505  -26.7734 N   0  0  0  0  0  0  0  0  0  0  0  0
  -16.5019   14.5771  -25.9357 C   0  0  0  0  0  0  0  0  0  0  0  0
  -15.3406   15.1729  -26.2777 N   0  0  0  0  0  0  0  0  0  0  0  0
  -14.8287   16.1561  -25.4910 C   0  0  0  0  0  0  0  0  0  0  0  0
  -15.4585   16.5433  -24.3814 N   0  0  0  0  0  0  0  0  0  0  0  0
  -16.6126   15.9978  -23.9808 C   0  0  0  0  0  0  0  0  0  0  0  0
  -17.4200   16.1968  -22.9452 N   0  0  0  0  0  0  0  0  0  0  0  0
  -18.4433   15.3318  -23.0860 C   0  0  0  0  0  0  0  0  0  0  0  0
  -18.2690   14.6035  -24.2013 N   0  0  0  0  0  0  0  0  0  0  0  0
  -17.1362   14.9867  -24.7927 C   0  0  0  0  0  0  0  0  0  0  0  0
  -17.8620   13.7433  -27.3491 H   0  0  0  0  0  0  0  0  0  0  0  0
  -16.5335   12.6299  -26.7836 H   0  0  0  0  0  0  0  0  0  0  0  0
  -17.8776   16.1106  -18.6165 C   0  0  0  0  0  0  0  0  0  0  0  0
  -18.8755   16.7235  -17.8355 O   0  0  0  0  0  0  0  0  0  0  0  0
  -18.7692   16.3956  -16.9259 H   0  0  0  0  0  0  0  0  0  0  0  0
  -19.0089   19.1011  -22.5660 S   0  0  0  0  0  0  0  0  0  0  0  0
  -18.3081   18.8838  -23.8985 O   0  0  0  0  0  0  0  0  0  0  0  0
  -18.5075   20.4151  -22.0464 O   0  0  0  0  0  0  0  0  0  0  0  0
  -20.7327   19.1238  -22.8157 C   0  0  0  0  0  0  0  0  0  0  0  0
  -21.2312   18.1924  -23.7257 C   0  0  0  0  0  0  0  0  0  0  0  0
  -22.5670   18.1236  -24.0018 C   0  0  0  0  0  0  0  0  0  0  0  0
  -23.4167   18.9882  -23.3682 C   0  0  0  0  0  0  0  0  0  0  0  0
  -22.9619   19.9220  -22.4631 C   0  0  0  0  0  0  0  0  0  0  0  0
  -21.5966   19.9789  -22.1930 C   0  0  0  0  0  0  0  0  0  0  0  0
  8  9  1  0  0  0
  9 10  2  0  0  0
 10 11  1  0  0  0
 11 12  2  0  0  0
 12 13  1  0  0  0
 13 14  1  0  0  0
 14 15  1  0  0  0
 15 16  2  0  0  0
 16 17  1  0  0  0
 14  1  1  0  0  0
  1  2  1  0  0  0
  2  3  1  0  0  0
  3 20  1  0  0  0
 20 21  1  0  0  0
  3  4  1  0  0  0
  4  5  1  0  0  0
  4  6  1  0  0  0
  6 23  1  0  0  0
 23 24  2  0  0  0
 23 25  2  0  0  0
 23 26  1  0  0  0
 26 27  2  0  0  0
 27 28  1  0  0  0
 28 29  2  0  0  0
 29 30  1  0  0  0
 30 31  2  0  0  0
 17  9  1  0  0  0
  6  1  1  0  0  0
 31 26  1  0  0  0
 17 13  2  0  0  0
  8 18  1  0  0  0
  8 19  1  0  0  0
 21 22  1  0  0  0
  5  7  1  0  0  0
M  END
> <minimizedAffinity>
-6.97257

> <CNNscore>
0.1576585025

> <CNNaffinity>
5.1135983467

> <CNN_VS>
0.8062022328

> <CNNaffinity_variance>
0.4650809169

$$$$
