[H]O[C@]1([H])C([H])([H])C([H])([H])[C@@]([H])(n2nc(C#Cc3c([H])c(N([H])C(=O)c4c([H])c([H])c([H])c(C(F)(F)F)c4[H])c([H])c([H])c3C([H])([H])[H])c3c(N([H])[H])nc([H])nc32)C([H])([H])C1([H])[H]


 43 47  0  0  0  0  0  0  0  0999 V2000
  -19.2151   11.6491  -18.0980 C   0  0  0  0  0  0  0  0  0  0  0  0
  -18.6138   12.0701  -19.0752 C   0  0  0  0  0  0  0  0  0  0  0  0
  -18.0065   12.5460  -20.2912 C   0  0  0  0  0  0  0  0  0  0  0  0
  -18.1806   13.5737  -21.0536 N   0  0  0  0  0  0  0  0  0  0  0  0
  -17.3310   13.5605  -22.1079 N   0  0  0  0  0  0  0  0  0  0  0  0
  -16.5627   12.4724  -22.0218 C   0  0  0  0  0  0  0  0  0  0  0  0
  -15.5501   11.9613  -22.7766 N   0  0  0  0  0  0  0  0  0  0  0  0
  -14.9721   10.8179  -22.3929 C   0  0  0  0  0  0  0  0  0  0  0  0
  -15.3343   10.1419  -21.3000 N   0  0  0  0  0  0  0  0  0  0  0  0
  -16.3473   10.6364  -20.5220 C   0  0  0  0  0  0  0  0  0  0  0  0
  -16.7388    9.9653  -19.3403 N   0  0  0  0  0  0  0  0  0  0  0  0
  -16.9402   11.7980  -20.9070 C   0  0  0  0  0  0  0  0  0  0  0  0
  -17.4729    9.2419  -19.3913 H   0  0  0  0  0  0  0  0  0  0  0  0
  -16.3427   10.1412  -18.3997 H   0  0  0  0  0  0  0  0  0  0  0  0
  -17.3002   14.5812  -23.0915 C   0  0  0  0  0  0  0  0  0  0  0  0
  -18.4131   15.6129  -22.7979 C   0  0  0  0  0  0  0  0  0  0  0  0
  -18.4922   16.5382  -23.9882 C   0  0  0  0  0  0  0  0  0  0  0  0
  -17.1950   17.3191  -24.0546 C   0  0  0  0  0  0  0  0  0  0  0  0
  -16.6987   17.2472  -25.3577 O   0  0  0  0  0  0  0  0  0  0  0  0
  -16.1745   16.7247  -23.1065 C   0  0  0  0  0  0  0  0  0  0  0  0
  -16.0171   15.2260  -23.4149 C   0  0  0  0  0  0  0  0  0  0  0  0
  -15.7117   17.1218  -25.3418 H   0  0  0  0  0  0  0  0  0  0  0  0
  -18.8162    8.9719  -17.0471 C   0  0  0  0  0  0  0  0  0  0  0  0
  -19.7443    9.9530  -16.4226 C   0  0  0  0  0  0  0  0  0  0  0  0
  -20.3662    9.5035  -15.2597 C   0  0  0  0  0  0  0  0  0  0  0  0
  -21.3417   10.2638  -14.6768 C   0  0  0  0  0  0  0  0  0  0  0  0
  -21.6943   11.4969  -15.2771 C   0  0  0  0  0  0  0  0  0  0  0  0
  -21.0428   11.8932  -16.4167 C   0  0  0  0  0  0  0  0  0  0  0  0
  -20.0443   11.1482  -17.0328 C   0  0  0  0  0  0  0  0  0  0  0  0
  -22.7986   12.1219  -14.6811 N   0  0  0  0  0  0  0  0  0  0  0  0
  -22.9628   13.4832  -14.3006 C   0  0  0  0  0  0  0  0  0  0  0  0
  -22.1943   14.4108  -14.4994 O   0  0  0  0  0  0  0  0  0  0  0  0
  -23.6940   11.5209  -14.5000 H   0  0  0  0  0  0  0  0  0  0  0  0
  -24.2281   13.7010  -13.5572 C   0  0  0  0  0  0  0  0  0  0  0  0
  -25.3494   13.5193  -14.3485 C   0  0  0  0  0  0  0  0  0  0  0  0
  -26.6053   13.8819  -13.8906 C   0  0  0  0  0  0  0  0  0  0  0  0
  -26.6919   14.4332  -12.6119 C   0  0  0  0  0  0  0  0  0  0  0  0
  -25.5826   14.6103  -11.8207 C   0  0  0  0  0  0  0  0  0  0  0  0
  -24.3301   14.2268  -12.3241 C   0  0  0  0  0  0  0  0  0  0  0  0
  -25.7523   15.2606  -10.5018 C   0  0  0  0  0  0  0  0  0  0  0  0
  -26.2805   16.5298  -10.8027 F   0  0  0  0  0  0  0  0  0  0  0  0
  -24.4669   15.4911   -9.9845 F   0  0  0  0  0  0  0  0  0  0  0  0
  -26.5384   14.5542   -9.6546 F   0  0  0  0  0  0  0  0  0  0  0  0
 23 24  1  0  0  0
 24 25  2  0  0  0
 25 26  1  0  0  0
 26 27  2  0  0  0
 27 30  1  0  0  0
 30 31  1  0  0  0
 31 32  2  0  0  0
 31 34  1  0  0  0
 34 35  2  0  0  0
 35 36  1  0  0  0
 36 37  2  0  0  0
 37 38  1  0  0  0
 38 39  2  0  0  0
 38 40  1  0  0  0
 40 41  1  0  0  0
 40 42  1  0  0  0
 40 43  1  0  0  0
 27 28  1  0  0  0
 28 29  2  0  0  0
 29  1  1  0  0  0
  1  2  3  0  0  0
  2  3  1  0  0  0
  3  4  2  0  0  0
  4  5  1  0  0  0
  5 15  1  0  0  0
 15 16  1  0  0  0
 16 17  1  0  0  0
 17 18  1  0  0  0
 18 19  1  0  0  0
 18 20  1  0  0  0
 20 21  1  0  0  0
  5  6  1  0  0  0
  6  7  2  0  0  0
  7  8  1  0  0  0
  8  9  2  0  0  0
  9 10  1  0  0  0
 10 11  1  0  0  0
 10 12  2  0  0  0
 29 24  1  0  0  0
 12  3  1  0  0  0
 39 34  1  0  0  0
 21 15  1  0  0  0
 12  6  1  0  0  0
 30 33  1  0  0  0
 19 22  1  0  0  0
 11 13  1  0  0  0
 11 14  1  0  0  0
M  END
> <minimizedAffinity>
-9.07411

> <CNNscore>
0.7508839965

> <CNNaffinity>
7.1742386818

> <CNN_VS>
5.3870210648

> <CNNaffinity_variance>
0.1854186952

$$$$
[H]O[C@]1([H])C([H])([H])C([H])([H])[C@@]([H])(n2nc(C#Cc3c([H])c(N([H])C(=O)c4c([H])c([H])c([H])c(C(F)(F)F)c4[H])c([H])c([H])c3C([H])([H])[H])c3c(N([H])[H])nc([H])nc32)C([H])([H])C1([H])[H]


 43 47  0  0  0  0  0  0  0  0999 V2000
  -19.4421   13.4430  -19.2940 C   0  0  0  0  0  0  0  0  0  0  0  0
  -18.7395   13.2864  -20.2817 C   0  0  0  0  0  0  0  0  0  0  0  0
  -17.8219   13.1564  -21.3840 C   0  0  0  0  0  0  0  0  0  0  0  0
  -17.6070   13.8181  -22.4720 N   0  0  0  0  0  0  0  0  0  0  0  0
  -16.6018   13.2716  -23.1962 N   0  0  0  0  0  0  0  0  0  0  0  0
  -16.1369   12.2051  -22.5420 C   0  0  0  0  0  0  0  0  0  0  0  0
  -15.1476   11.2995  -22.7815 N   0  0  0  0  0  0  0  0  0  0  0  0
  -14.9329   10.3264  -21.8896 C   0  0  0  0  0  0  0  0  0  0  0  0
  -15.6399   10.1910  -20.7651 N   0  0  0  0  0  0  0  0  0  0  0  0
  -16.6377   11.0907  -20.4990 C   0  0  0  0  0  0  0  0  0  0  0  0
  -17.3883   10.9986  -19.3038 N   0  0  0  0  0  0  0  0  0  0  0  0
  -16.8623   12.0820  -21.4023 C   0  0  0  0  0  0  0  0  0  0  0  0
  -18.2472   10.4270  -19.2910 H   0  0  0  0  0  0  0  0  0  0  0  0
  -17.1453   11.4689  -18.4136 H   0  0  0  0  0  0  0  0  0  0  0  0
  -16.1517   13.8110  -24.4278 C   0  0  0  0  0  0  0  0  0  0  0  0
  -17.3396   13.9089  -25.4119 C   0  0  0  0  0  0  0  0  0  0  0  0
  -16.7723   14.2607  -26.7660 C   0  0  0  0  0  0  0  0  0  0  0  0
  -16.1813   15.6532  -26.6728 C   0  0  0  0  0  0  0  0  0  0  0  0
  -14.8916   15.6258  -27.2069 O   0  0  0  0  0  0  0  0  0  0  0  0
  -16.1050   16.0962  -25.2266 C   0  0  0  0  0  0  0  0  0  0  0  0
  -15.3369   15.0369  -24.4179 C   0  0  0  0  0  0  0  0  0  0  0  0
  -14.2783   16.1766  -26.6496 H   0  0  0  0  0  0  0  0  0  0  0  0
  -21.4909   15.4938  -19.1306 C   0  0  0  0  0  0  0  0  0  0  0  0
  -21.2309   14.5249  -18.0318 C   0  0  0  0  0  0  0  0  0  0  0  0
  -22.0868   14.6445  -16.9389 C   0  0  0  0  0  0  0  0  0  0  0  0
  -21.8561   13.9019  -15.8144 C   0  0  0  0  0  0  0  0  0  0  0  0
  -20.7446   13.0248  -15.7932 C   0  0  0  0  0  0  0  0  0  0  0  0
  -19.9407   12.9415  -16.9009 C   0  0  0  0  0  0  0  0  0  0  0  0
  -20.1483   13.6777  -18.0614 C   0  0  0  0  0  0  0  0  0  0  0  0
  -20.5206   12.4240  -14.5465 N   0  0  0  0  0  0  0  0  0  0  0  0
  -20.4810   11.0420  -14.2098 C   0  0  0  0  0  0  0  0  0  0  0  0
  -20.5499   10.0876  -14.9682 O   0  0  0  0  0  0  0  0  0  0  0  0
  -20.3058   13.0737  -13.6935 H   0  0  0  0  0  0  0  0  0  0  0  0
  -20.3709   10.8323  -12.7452 C   0  0  0  0  0  0  0  0  0  0  0  0
  -21.2977   11.5710  -12.0298 C   0  0  0  0  0  0  0  0  0  0  0  0
  -21.2125   11.6690  -10.6508 C   0  0  0  0  0  0  0  0  0  0  0  0
  -20.1638   10.9996  -10.0196 C   0  0  0  0  0  0  0  0  0  0  0  0
  -19.2448   10.2606  -10.7249 C   0  0  0  0  0  0  0  0  0  0  0  0
  -19.3705   10.1870  -12.1206 C   0  0  0  0  0  0  0  0  0  0  0  0
  -18.1259    9.6336   -9.9859 C   0  0  0  0  0  0  0  0  0  0  0  0
  -18.7156    9.1474   -8.8042 F   0  0  0  0  0  0  0  0  0  0  0  0
  -17.2611   10.6665   -9.5881 F   0  0  0  0  0  0  0  0  0  0  0  0
  -17.4946    8.6655  -10.6922 F   0  0  0  0  0  0  0  0  0  0  0  0
 23 24  1  0  0  0
 24 25  2  0  0  0
 25 26  1  0  0  0
 26 27  2  0  0  0
 27 30  1  0  0  0
 30 31  1  0  0  0
 31 32  2  0  0  0
 31 34  1  0  0  0
 34 35  2  0  0  0
 35 36  1  0  0  0
 36 37  2  0  0  0
 37 38  1  0  0  0
 38 39  2  0  0  0
 38 40  1  0  0  0
 40 41  1  0  0  0
 40 42  1  0  0  0
 40 43  1  0  0  0
 27 28  1  0  0  0
 28 29  2  0  0  0
 29  1  1  0  0  0
  1  2  3  0  0  0
  2  3  1  0  0  0
  3  4  2  0  0  0
  4  5  1  0  0  0
  5 15  1  0  0  0
 15 16  1  0  0  0
 16 17  1  0  0  0
 17 18  1  0  0  0
 18 19  1  0  0  0
 18 20  1  0  0  0
 20 21  1  0  0  0
  5  6  1  0  0  0
  6  7  2  0  0  0
  7  8  1  0  0  0
  8  9  2  0  0  0
  9 10  1  0  0  0
 10 11  1  0  0  0
 10 12  2  0  0  0
 29 24  1  0  0  0
 12  3  1  0  0  0
 39 34  1  0  0  0
 21 15  1  0  0  0
 12  6  1  0  0  0
 30 33  1  0  0  0
 19 22  1  0  0  0
 11 13  1  0  0  0
 11 14  1  0  0  0
M  END
> <minimizedAffinity>
-10.23218

> <CNNscore>
0.7411341667

> <CNNaffinity>
7.5199003220

> <CNN_VS>
5.5732550621

> <CNNaffinity_variance>
0.2090486288

$$$$
[H]O[C@]1([H])C([H])([H])C([H])([H])[C@@]([H])(n2nc(C#Cc3c([H])c(N([H])C(=O)c4c([H])c([H])c([H])c(C(F)(F)F)c4[H])c([H])c([H])c3C([H])([H])[H])c3c(N([H])[H])nc([H])nc32)C([H])([H])C1([H])[H]


 43 47  0  0  0  0  0  0  0  0999 V2000
  -19.3198   12.6278  -17.9999 C   0  0  0  0  0  0  0  0  0  0  0  0
  -18.7666   12.7407  -19.0838 C   0  0  0  0  0  0  0  0  0  0  0  0
  -18.0391   12.9533  -20.3083 C   0  0  0  0  0  0  0  0  0  0  0  0
  -18.0136   13.8857  -21.2015 N   0  0  0  0  0  0  0  0  0  0  0  0
  -17.1322   13.6036  -22.1900 N   0  0  0  0  0  0  0  0  0  0  0  0
  -16.5521   12.4319  -21.9214 C   0  0  0  0  0  0  0  0  0  0  0  0
  -15.6024   11.6769  -22.5414 N   0  0  0  0  0  0  0  0  0  0  0  0
  -15.2316   10.5195  -21.9834 C   0  0  0  0  0  0  0  0  0  0  0  0
  -15.7441   10.0572  -20.8404 N   0  0  0  0  0  0  0  0  0  0  0  0
  -16.6977   10.7990  -20.1954 C   0  0  0  0  0  0  0  0  0  0  0  0
  -17.2421   10.3577  -18.9670 N   0  0  0  0  0  0  0  0  0  0  0  0
  -17.0803   11.9764  -20.7579 C   0  0  0  0  0  0  0  0  0  0  0  0
  -18.0795    9.7547  -18.9746 H   0  0  0  0  0  0  0  0  0  0  0  0
  -16.8640   10.5938  -18.0322 H   0  0  0  0  0  0  0  0  0  0  0  0
  -16.8964   14.4686  -23.2884 C   0  0  0  0  0  0  0  0  0  0  0  0
  -15.4526   15.0152  -23.2127 C   0  0  0  0  0  0  0  0  0  0  0  0
  -15.3285   16.1000  -24.2552 C   0  0  0  0  0  0  0  0  0  0  0  0
  -15.4665   15.4507  -25.6177 C   0  0  0  0  0  0  0  0  0  0  0  0
  -16.4001   16.1739  -26.3626 O   0  0  0  0  0  0  0  0  0  0  0  0
  -15.9523   14.0236  -25.4731 C   0  0  0  0  0  0  0  0  0  0  0  0
  -17.2482   14.0169  -24.6445 C   0  0  0  0  0  0  0  0  0  0  0  0
  -16.9852   15.5527  -26.8744 H   0  0  0  0  0  0  0  0  0  0  0  0
  -21.6608   14.1972  -17.3019 C   0  0  0  0  0  0  0  0  0  0  0  0
  -21.0662   13.1859  -16.3867 C   0  0  0  0  0  0  0  0  0  0  0  0
  -21.7556   13.0120  -15.1886 C   0  0  0  0  0  0  0  0  0  0  0  0
  -21.2271   12.2124  -14.2136 C   0  0  0  0  0  0  0  0  0  0  0  0
  -19.9836   11.5782  -14.4524 C   0  0  0  0  0  0  0  0  0  0  0  0
  -19.3536   11.7787  -15.6536 C   0  0  0  0  0  0  0  0  0  0  0  0
  -19.8639   12.5806  -16.6676 C   0  0  0  0  0  0  0  0  0  0  0  0
  -19.4692   10.9020  -13.3373 N   0  0  0  0  0  0  0  0  0  0  0  0
  -19.5352    9.5169  -13.0178 C   0  0  0  0  0  0  0  0  0  0  0  0
  -19.9859    8.6140  -13.7049 O   0  0  0  0  0  0  0  0  0  0  0  0
  -18.8982   11.4786  -12.6042 H   0  0  0  0  0  0  0  0  0  0  0  0
  -18.9986    9.2354  -11.6636 C   0  0  0  0  0  0  0  0  0  0  0  0
  -19.1605   10.3003  -10.7939 C   0  0  0  0  0  0  0  0  0  0  0  0
  -18.5385   10.3045   -9.5564 C   0  0  0  0  0  0  0  0  0  0  0  0
  -17.7493    9.2023   -9.2268 C   0  0  0  0  0  0  0  0  0  0  0  0
  -17.5901    8.1406  -10.0842 C   0  0  0  0  0  0  0  0  0  0  0  0
  -18.2405    8.1773  -11.3271 C   0  0  0  0  0  0  0  0  0  0  0  0
  -16.6850    7.0395   -9.6846 C   0  0  0  0  0  0  0  0  0  0  0  0
  -16.2969    6.4466  -10.9005 F   0  0  0  0  0  0  0  0  0  0  0  0
  -17.4669    6.0801   -9.0205 F   0  0  0  0  0  0  0  0  0  0  0  0
  -15.6293    7.4568   -8.9457 F   0  0  0  0  0  0  0  0  0  0  0  0
 23 24  1  0  0  0
 24 25  2  0  0  0
 25 26  1  0  0  0
 26 27  2  0  0  0
 27 30  1  0  0  0
 30 31  1  0  0  0
 31 32  2  0  0  0
 31 34  1  0  0  0
 34 35  2  0  0  0
 35 36  1  0  0  0
 36 37  2  0  0  0
 37 38  1  0  0  0
 38 39  2  0  0  0
 38 40  1  0  0  0
 40 41  1  0  0  0
 40 42  1  0  0  0
 40 43  1  0  0  0
 27 28  1  0  0  0
 28 29  2  0  0  0
 29  1  1  0  0  0
  1  2  3  0  0  0
  2  3  1  0  0  0
  3  4  2  0  0  0
  4  5  1  0  0  0
  5 15  1  0  0  0
 15 16  1  0  0  0
 16 17  1  0  0  0
 17 18  1  0  0  0
 18 19  1  0  0  0
 18 20  1  0  0  0
 20 21  1  0  0  0
  5  6  1  0  0  0
  6  7  2  0  0  0
  7  8  1  0  0  0
  8  9  2  0  0  0
  9 10  1  0  0  0
 10 11  1  0  0  0
 10 12  2  0  0  0
 29 24  1  0  0  0
 12  3  1  0  0  0
 39 34  1  0  0  0
 21 15  1  0  0  0
 12  6  1  0  0  0
 30 33  1  0  0  0
 19 22  1  0  0  0
 11 13  1  0  0  0
 11 14  1  0  0  0
M  END
> <minimizedAffinity>
-10.11541

> <CNNscore>
0.6839298010

> <CNNaffinity>
7.4139924049

> <CNN_VS>
5.0706505775

> <CNNaffinity_variance>
0.2171314210

$$$$
[H]O[C@]1([H])C([H])([H])C([H])([H])[C@@]([H])(n2nc(C#Cc3c([H])c(N([H])C(=O)c4c([H])c([H])c([H])c(C(F)(F)F)c4[H])c([H])c([H])c3C([H])([H])[H])c3c(N([H])[H])nc([H])nc32)C([H])([H])C1([H])[H]


 43 47  0  0  0  0  0  0  0  0999 V2000
  -19.6045   13.1916  -18.8159 C   0  0  0  0  0  0  0  0  0  0  0  0
  -18.8530   13.0671  -19.7716 C   0  0  0  0  0  0  0  0  0  0  0  0
  -17.9429   13.0392  -20.8873 C   0  0  0  0  0  0  0  0  0  0  0  0
  -17.7239   13.8068  -21.9026 N   0  0  0  0  0  0  0  0  0  0  0  0
  -16.7302   13.3243  -22.6858 N   0  0  0  0  0  0  0  0  0  0  0  0
  -16.2775   12.1896  -22.1481 C   0  0  0  0  0  0  0  0  0  0  0  0
  -15.3024   11.3001  -22.4863 N   0  0  0  0  0  0  0  0  0  0  0  0
  -15.0972   10.2372  -21.7010 C   0  0  0  0  0  0  0  0  0  0  0  0
  -15.8005    9.9960  -20.5920 N   0  0  0  0  0  0  0  0  0  0  0  0
  -16.7840   10.8769  -20.2280 C   0  0  0  0  0  0  0  0  0  0  0  0
  -17.5298   10.6722  -19.0440 N   0  0  0  0  0  0  0  0  0  0  0  0
  -16.9988   11.9593  -21.0227 C   0  0  0  0  0  0  0  0  0  0  0  0
  -18.3968   10.1142  -19.0848 H   0  0  0  0  0  0  0  0  0  0  0  0
  -17.2757   11.0445  -18.1115 H   0  0  0  0  0  0  0  0  0  0  0  0
  -16.2786   13.9818  -23.8579 C   0  0  0  0  0  0  0  0  0  0  0  0
  -17.4229   14.0278  -24.8959 C   0  0  0  0  0  0  0  0  0  0  0  0
  -16.8304   14.5181  -26.1951 C   0  0  0  0  0  0  0  0  0  0  0  0
  -16.3854   15.9521  -25.9890 C   0  0  0  0  0  0  0  0  0  0  0  0
  -15.0758   16.0828  -26.4548 O   0  0  0  0  0  0  0  0  0  0  0  0
  -16.4213   16.3072  -24.5171 C   0  0  0  0  0  0  0  0  0  0  0  0
  -15.5907   15.2772  -23.7327 C   0  0  0  0  0  0  0  0  0  0  0  0
  -14.5469   16.6533  -25.8344 H   0  0  0  0  0  0  0  0  0  0  0  0
  -20.4980   11.0562  -17.0632 C   0  0  0  0  0  0  0  0  0  0  0  0
  -20.7176   12.4955  -16.7568 C   0  0  0  0  0  0  0  0  0  0  0  0
  -21.3381   12.7396  -15.5334 C   0  0  0  0  0  0  0  0  0  0  0  0
  -21.7153   14.0129  -15.2081 C   0  0  0  0  0  0  0  0  0  0  0  0
  -21.4616   15.0557  -16.1320 C   0  0  0  0  0  0  0  0  0  0  0  0
  -20.8402   14.7585  -17.3176 C   0  0  0  0  0  0  0  0  0  0  0  0
  -20.4396   13.4775  -17.6783 C   0  0  0  0  0  0  0  0  0  0  0  0
  -22.0159   16.2887  -15.7608 N   0  0  0  0  0  0  0  0  0  0  0  0
  -22.8369   17.1691  -16.5196 C   0  0  0  0  0  0  0  0  0  0  0  0
  -23.3003   16.9820  -17.6335 O   0  0  0  0  0  0  0  0  0  0  0  0
  -21.8472   16.6421  -14.7397 H   0  0  0  0  0  0  0  0  0  0  0  0
  -23.0818   18.4479  -15.8084 C   0  0  0  0  0  0  0  0  0  0  0  0
  -24.3607   18.9362  -16.0147 C   0  0  0  0  0  0  0  0  0  0  0  0
  -24.7043   20.2149  -15.6082 C   0  0  0  0  0  0  0  0  0  0  0  0
  -23.7175   20.9826  -14.9892 C   0  0  0  0  0  0  0  0  0  0  0  0
  -22.4485   20.5003  -14.7772 C   0  0  0  0  0  0  0  0  0  0  0  0
  -22.1446   19.1983  -15.2034 C   0  0  0  0  0  0  0  0  0  0  0  0
  -21.4425   21.4015  -14.1713 C   0  0  0  0  0  0  0  0  0  0  0  0
  -20.8917   22.0964  -15.2641 F   0  0  0  0  0  0  0  0  0  0  0  0
  -20.4098   20.5925  -13.6693 F   0  0  0  0  0  0  0  0  0  0  0  0
  -21.9620   22.2289  -13.2332 F   0  0  0  0  0  0  0  0  0  0  0  0
 23 24  1  0  0  0
 24 25  2  0  0  0
 25 26  1  0  0  0
 26 27  2  0  0  0
 27 30  1  0  0  0
 30 31  1  0  0  0
 31 32  2  0  0  0
 31 34  1  0  0  0
 34 35  2  0  0  0
 35 36  1  0  0  0
 36 37  2  0  0  0
 37 38  1  0  0  0
 38 39  2  0  0  0
 38 40  1  0  0  0
 40 41  1  0  0  0
 40 42  1  0  0  0
 40 43  1  0  0  0
 27 28  1  0  0  0
 28 29  2  0  0  0
 29  1  1  0  0  0
  1  2  3  0  0  0
  2  3  1  0  0  0
  3  4  2  0  0  0
  4  5  1  0  0  0
  5 15  1  0  0  0
 15 16  1  0  0  0
 16 17  1  0  0  0
 17 18  1  0  0  0
 18 19  1  0  0  0
 18 20  1  0  0  0
 20 21  1  0  0  0
  5  6  1  0  0  0
  6  7  2  0  0  0
  7  8  1  0  0  0
  8  9  2  0  0  0
  9 10  1  0  0  0
 10 11  1  0  0  0
 10 12  2  0  0  0
 29 24  1  0  0  0
 12  3  1  0  0  0
 39 34  1  0  0  0
 21 15  1  0  0  0
 12  6  1  0  0  0
 30 33  1  0  0  0
 19 22  1  0  0  0
 11 13  1  0  0  0
 11 14  1  0  0  0
M  END
> <minimizedAffinity>
-8.37604

> <CNNscore>
0.6233659387

> <CNNaffinity>
7.3445358276

> <CNN_VS>
4.5783333778

> <CNNaffinity_variance>
0.2943190038

$$$$
[H]O[C@]1([H])C([H])([H])C([H])([H])[C@@]([H])(n2nc(C#Cc3c([H])c(N([H])C(=O)c4c([H])c([H])c([H])c(C(F)(F)F)c4[H])c([H])c([H])c3C([H])([H])[H])c3c(N([H])[H])nc([H])nc32)C([H])([H])C1([H])[H]


 43 47  0  0  0  0  0  0  0  0999 V2000
  -19.7128   12.5877  -18.1201 C   0  0  0  0  0  0  0  0  0  0  0  0
  -18.9815   12.6237  -19.0987 C   0  0  0  0  0  0  0  0  0  0  0  0
  -18.1206   12.7873  -20.2415 C   0  0  0  0  0  0  0  0  0  0  0  0
  -17.9604   13.7047  -21.1362 N   0  0  0  0  0  0  0  0  0  0  0  0
  -16.9932   13.3710  -22.0232 N   0  0  0  0  0  0  0  0  0  0  0  0
  -16.4966   12.1797  -21.6832 C   0  0  0  0  0  0  0  0  0  0  0  0
  -15.5211   11.3759  -22.1918 N   0  0  0  0  0  0  0  0  0  0  0  0
  -15.2622   10.2119  -21.5863 C   0  0  0  0  0  0  0  0  0  0  0  0
  -15.9118    9.7885  -20.4993 N   0  0  0  0  0  0  0  0  0  0  0  0
  -16.8945   10.5796  -19.9661 C   0  0  0  0  0  0  0  0  0  0  0  0
  -17.5839   10.1798  -18.7978 N   0  0  0  0  0  0  0  0  0  0  0  0
  -17.1637   11.7640  -20.5776 C   0  0  0  0  0  0  0  0  0  0  0  0
  -18.4415    9.6130  -18.8879 H   0  0  0  0  0  0  0  0  0  0  0  0
  -17.2962   10.4131  -17.8307 H   0  0  0  0  0  0  0  0  0  0  0  0
  -16.6054   14.2091  -23.0990 C   0  0  0  0  0  0  0  0  0  0  0  0
  -17.6851   14.1614  -24.2040 C   0  0  0  0  0  0  0  0  0  0  0  0
  -17.1229   14.8724  -25.4114 C   0  0  0  0  0  0  0  0  0  0  0  0
  -16.9495   16.3338  -25.0490 C   0  0  0  0  0  0  0  0  0  0  0  0
  -15.6614   16.7322  -25.4116 O   0  0  0  0  0  0  0  0  0  0  0  0
  -17.1230   16.5296  -23.5573 C   0  0  0  0  0  0  0  0  0  0  0  0
  -16.1647   15.5842  -22.8130 C   0  0  0  0  0  0  0  0  0  0  0  0
  -15.2742   17.3204  -24.7085 H   0  0  0  0  0  0  0  0  0  0  0  0
  -20.4683   10.2170  -16.6237 C   0  0  0  0  0  0  0  0  0  0  0  0
  -20.7682   11.5964  -16.1537 C   0  0  0  0  0  0  0  0  0  0  0  0
  -21.3925   11.6620  -14.9098 C   0  0  0  0  0  0  0  0  0  0  0  0
  -21.8400   12.8654  -14.4399 C   0  0  0  0  0  0  0  0  0  0  0  0
  -21.6539   14.0203  -15.2380 C   0  0  0  0  0  0  0  0  0  0  0  0
  -21.0253   13.8978  -16.4504 C   0  0  0  0  0  0  0  0  0  0  0  0
  -20.5543   12.6921  -16.9565 C   0  0  0  0  0  0  0  0  0  0  0  0
  -22.2755   15.1683  -14.7269 N   0  0  0  0  0  0  0  0  0  0  0  0
  -22.1001   16.5286  -15.1059 C   0  0  0  0  0  0  0  0  0  0  0  0
  -21.4259   16.9654  -16.0253 O   0  0  0  0  0  0  0  0  0  0  0  0
  -23.0357   15.0397  -13.9515 H   0  0  0  0  0  0  0  0  0  0  0  0
  -22.8348   17.4525  -14.2071 C   0  0  0  0  0  0  0  0  0  0  0  0
  -23.5922   18.3809  -14.9006 C   0  0  0  0  0  0  0  0  0  0  0  0
  -24.1759   19.4512  -14.2433 C   0  0  0  0  0  0  0  0  0  0  0  0
  -23.9698   19.5540  -12.8673 C   0  0  0  0  0  0  0  0  0  0  0  0
  -23.2235   18.6320  -12.1738 C   0  0  0  0  0  0  0  0  0  0  0  0
  -22.6523   17.5621  -12.8797 C   0  0  0  0  0  0  0  0  0  0  0  0
  -23.0003   18.8486  -10.7266 C   0  0  0  0  0  0  0  0  0  0  0  0
  -21.8214   19.6148  -10.6650 F   0  0  0  0  0  0  0  0  0  0  0  0
  -22.6790   17.6018  -10.1652 F   0  0  0  0  0  0  0  0  0  0  0  0
  -24.0461   19.4472  -10.1080 F   0  0  0  0  0  0  0  0  0  0  0  0
 23 24  1  0  0  0
 24 25  2  0  0  0
 25 26  1  0  0  0
 26 27  2  0  0  0
 27 30  1  0  0  0
 30 31  1  0  0  0
 31 32  2  0  0  0
 31 34  1  0  0  0
 34 35  2  0  0  0
 35 36  1  0  0  0
 36 37  2  0  0  0
 37 38  1  0  0  0
 38 39  2  0  0  0
 38 40  1  0  0  0
 40 41  1  0  0  0
 40 42  1  0  0  0
 40 43  1  0  0  0
 27 28  1  0  0  0
 28 29  2  0  0  0
 29  1  1  0  0  0
  1  2  3  0  0  0
  2  3  1  0  0  0
  3  4  2  0  0  0
  4  5  1  0  0  0
  5 15  1  0  0  0
 15 16  1  0  0  0
 16 17  1  0  0  0
 17 18  1  0  0  0
 18 19  1  0  0  0
 18 20  1  0  0  0
 20 21  1  0  0  0
  5  6  1  0  0  0
  6  7  2  0  0  0
  7  8  1  0  0  0
  8  9  2  0  0  0
  9 10  1  0  0  0
 10 11  1  0  0  0
 10 12  2  0  0  0
 29 24  1  0  0  0
 12  3  1  0  0  0
 39 34  1  0  0  0
 21 15  1  0  0  0
 12  6  1  0  0  0
 30 33  1  0  0  0
 19 22  1  0  0  0
 11 13  1  0  0  0
 11 14  1  0  0  0
M  END
> <minimizedAffinity>
-8.49747

> <CNNscore>
0.6198624372

> <CNNaffinity>
7.2647657394

> <CNN_VS>
4.5031552315

> <CNNaffinity_variance>
0.5314512849

$$$$
[H]O[C@]1([H])C([H])([H])C([H])([H])[C@@]([H])(n2nc(C#Cc3c([H])c(N([H])C(=O)c4c([H])c([H])c([H])c(C(F)(F)F)c4[H])c([H])c([H])c3C([H])([H])[H])c3c(N([H])[H])nc([H])nc32)C([H])([H])C1([H])[H]


 43 47  0  0  0  0  0  0  0  0999 V2000
  -19.5909   11.6228  -17.4442 C   0  0  0  0  0  0  0  0  0  0  0  0
  -18.9879   11.9106  -18.4676 C   0  0  0  0  0  0  0  0  0  0  0  0
  -18.2829   12.3659  -19.6379 C   0  0  0  0  0  0  0  0  0  0  0  0
  -18.3195   13.4328  -20.3647 N   0  0  0  0  0  0  0  0  0  0  0  0
  -17.4297   13.3714  -21.3834 N   0  0  0  0  0  0  0  0  0  0  0  0
  -16.7784   12.2086  -21.3102 C   0  0  0  0  0  0  0  0  0  0  0  0
  -15.7894   11.6250  -22.0435 N   0  0  0  0  0  0  0  0  0  0  0  0
  -15.3460   10.4158  -21.6831 C   0  0  0  0  0  0  0  0  0  0  0  0
  -15.8219    9.7411  -20.6338 N   0  0  0  0  0  0  0  0  0  0  0  0
  -16.8139   10.3074  -19.8782 C   0  0  0  0  0  0  0  0  0  0  0  0
  -17.3225    9.6374  -18.7413 N   0  0  0  0  0  0  0  0  0  0  0  0
  -17.2703   11.5363  -20.2397 C   0  0  0  0  0  0  0  0  0  0  0  0
  -18.1221    8.9945  -18.8510 H   0  0  0  0  0  0  0  0  0  0  0  0
  -16.9528    9.7383  -17.7791 H   0  0  0  0  0  0  0  0  0  0  0  0
  -17.2537   14.4185  -22.3231 C   0  0  0  0  0  0  0  0  0  0  0  0
  -18.0331   14.0866  -23.6159 C   0  0  0  0  0  0  0  0  0  0  0  0
  -17.6278   15.1020  -24.6571 C   0  0  0  0  0  0  0  0  0  0  0  0
  -18.1234   16.4587  -24.1982 C   0  0  0  0  0  0  0  0  0  0  0  0
  -17.0698   17.3705  -24.2869 O   0  0  0  0  0  0  0  0  0  0  0  0
  -18.5925   16.3881  -22.7599 C   0  0  0  0  0  0  0  0  0  0  0  0
  -17.4616   15.8105  -21.8918 C   0  0  0  0  0  0  0  0  0  0  0  0
  -17.0707   17.9731  -23.4951 H   0  0  0  0  0  0  0  0  0  0  0  0
  -19.7465    8.9870  -16.2366 C   0  0  0  0  0  0  0  0  0  0  0  0
  -20.2132   10.2191  -15.5453 C   0  0  0  0  0  0  0  0  0  0  0  0
  -20.6807   10.0147  -14.2488 C   0  0  0  0  0  0  0  0  0  0  0  0
  -21.2621   11.0482  -13.5683 C   0  0  0  0  0  0  0  0  0  0  0  0
  -21.3728   12.3075  -14.2065 C   0  0  0  0  0  0  0  0  0  0  0  0
  -20.8877   12.4533  -15.4806 C   0  0  0  0  0  0  0  0  0  0  0  0
  -20.2873   11.4263  -16.1994 C   0  0  0  0  0  0  0  0  0  0  0  0
  -22.1101   13.2499  -13.4760 N   0  0  0  0  0  0  0  0  0  0  0  0
  -23.4570   13.6721  -13.6568 C   0  0  0  0  0  0  0  0  0  0  0  0
  -24.2785   13.2276  -14.4431 O   0  0  0  0  0  0  0  0  0  0  0  0
  -21.6302   13.7232  -12.6149 H   0  0  0  0  0  0  0  0  0  0  0  0
  -23.8058   14.8056  -12.7655 C   0  0  0  0  0  0  0  0  0  0  0  0
  -24.8804   14.5233  -11.9396 C   0  0  0  0  0  0  0  0  0  0  0  0
  -25.4816   15.5233  -11.1934 C   0  0  0  0  0  0  0  0  0  0  0  0
  -24.9647   16.8140  -11.3084 C   0  0  0  0  0  0  0  0  0  0  0  0
  -23.8947   17.0981  -12.1223 C   0  0  0  0  0  0  0  0  0  0  0  0
  -23.3150   16.0538  -12.8589 C   0  0  0  0  0  0  0  0  0  0  0  0
  -23.4479   18.5047  -12.2363 C   0  0  0  0  0  0  0  0  0  0  0  0
  -24.0205   18.9575  -13.4395 F   0  0  0  0  0  0  0  0  0  0  0  0
  -22.0604   18.4827  -12.4545 F   0  0  0  0  0  0  0  0  0  0  0  0
  -23.7982   19.2649  -11.1716 F   0  0  0  0  0  0  0  0  0  0  0  0
 23 24  1  0  0  0
 24 25  2  0  0  0
 25 26  1  0  0  0
 26 27  2  0  0  0
 27 30  1  0  0  0
 30 31  1  0  0  0
 31 32  2  0  0  0
 31 34  1  0  0  0
 34 35  2  0  0  0
 35 36  1  0  0  0
 36 37  2  0  0  0
 37 38  1  0  0  0
 38 39  2  0  0  0
 38 40  1  0  0  0
 40 41  1  0  0  0
 40 42  1  0  0  0
 40 43  1  0  0  0
 27 28  1  0  0  0
 28 29  2  0  0  0
 29  1  1  0  0  0
  1  2  3  0  0  0
  2  3  1  0  0  0
  3  4  2  0  0  0
  4  5  1  0  0  0
  5 15  1  0  0  0
 15 16  1  0  0  0
 16 17  1  0  0  0
 17 18  1  0  0  0
 18 19  1  0  0  0
 18 20  1  0  0  0
 20 21  1  0  0  0
  5  6  1  0  0  0
  6  7  2  0  0  0
  7  8  1  0  0  0
  8  9  2  0  0  0
  9 10  1  0  0  0
 10 11  1  0  0  0
 10 12  2  0  0  0
 29 24  1  0  0  0
 12  3  1  0  0  0
 39 34  1  0  0  0
 21 15  1  0  0  0
 12  6  1  0  0  0
 30 33  1  0  0  0
 19 22  1  0  0  0
 11 13  1  0  0  0
 11 14  1  0  0  0
M  END
> <minimizedAffinity>
-8.12027

> <CNNscore>
0.6089500785

> <CNNaffinity>
7.2141876221

> <CNN_VS>
4.3930802345

> <CNNaffinity_variance>
0.4838213921

$$$$
[H]O[C@]1([H])C([H])([H])C([H])([H])[C@@]([H])(n2nc(C#Cc3c([H])c(N([H])C(=O)c4c([H])c([H])c([H])c(C(F)(F)F)c4[H])c([H])c([H])c3C([H])([H])[H])c3c(N([H])[H])nc([H])nc32)C([H])([H])C1([H])[H]


 43 47  0  0  0  0  0  0  0  0999 V2000
  -19.4658   13.2425  -19.0093 C   0  0  0  0  0  0  0  0  0  0  0  0
  -18.7737   13.1676  -20.0138 C   0  0  0  0  0  0  0  0  0  0  0  0
  -17.8652   13.1201  -21.1302 C   0  0  0  0  0  0  0  0  0  0  0  0
  -17.6556   13.8633  -22.1653 N   0  0  0  0  0  0  0  0  0  0  0  0
  -16.6584   13.3708  -22.9377 N   0  0  0  0  0  0  0  0  0  0  0  0
  -16.1934   12.2549  -22.3719 C   0  0  0  0  0  0  0  0  0  0  0  0
  -15.2100   11.3668  -22.6889 N   0  0  0  0  0  0  0  0  0  0  0  0
  -14.9929   10.3265  -21.8769 C   0  0  0  0  0  0  0  0  0  0  0  0
  -15.6919   10.1070  -20.7607 N   0  0  0  0  0  0  0  0  0  0  0  0
  -16.6836   10.9872  -20.4176 C   0  0  0  0  0  0  0  0  0  0  0  0
  -17.4254   10.8055  -19.2273 N   0  0  0  0  0  0  0  0  0  0  0  0
  -16.9105   12.0465  -21.2395 C   0  0  0  0  0  0  0  0  0  0  0  0
  -18.2868   10.2381  -19.2520 H   0  0  0  0  0  0  0  0  0  0  0  0
  -17.1735   11.2043  -18.3052 H   0  0  0  0  0  0  0  0  0  0  0  0
  -16.2153   14.0024  -24.1272 C   0  0  0  0  0  0  0  0  0  0  0  0
  -17.3551   13.9919  -25.1711 C   0  0  0  0  0  0  0  0  0  0  0  0
  -16.7670   14.4556  -26.4820 C   0  0  0  0  0  0  0  0  0  0  0  0
  -16.3543   15.9047  -26.3174 C   0  0  0  0  0  0  0  0  0  0  0  0
  -15.0455   16.0499  -26.7813 O   0  0  0  0  0  0  0  0  0  0  0  0
  -16.4053   16.3031  -24.8572 C   0  0  0  0  0  0  0  0  0  0  0  0
  -15.5565   15.3158  -24.0383 C   0  0  0  0  0  0  0  0  0  0  0  0
  -14.5323   16.6503  -26.1762 H   0  0  0  0  0  0  0  0  0  0  0  0
  -20.4956   15.8107  -18.1297 C   0  0  0  0  0  0  0  0  0  0  0  0
  -20.7913   14.5375  -17.4189 C   0  0  0  0  0  0  0  0  0  0  0  0
  -21.6479   14.6681  -16.3279 C   0  0  0  0  0  0  0  0  0  0  0  0
  -21.8803   13.5919  -15.5173 C   0  0  0  0  0  0  0  0  0  0  0  0
  -21.2382   12.3649  -15.8132 C   0  0  0  0  0  0  0  0  0  0  0  0
  -20.4118   12.2919  -16.9049 C   0  0  0  0  0  0  0  0  0  0  0  0
  -20.1569   13.3639  -17.7520 C   0  0  0  0  0  0  0  0  0  0  0  0
  -21.4332   11.3744  -14.8404 N   0  0  0  0  0  0  0  0  0  0  0  0
  -20.5423   10.9240  -13.8264 C   0  0  0  0  0  0  0  0  0  0  0  0
  -19.4448   11.3775  -13.5428 O   0  0  0  0  0  0  0  0  0  0  0  0
  -22.4076   10.8798  -14.7979 H   0  0  0  0  0  0  0  0  0  0  0  0
  -21.0796    9.7465  -13.1010 C   0  0  0  0  0  0  0  0  0  0  0  0
  -21.5631   10.0694  -11.8446 C   0  0  0  0  0  0  0  0  0  0  0  0
  -21.9078    9.0768  -10.9422 C   0  0  0  0  0  0  0  0  0  0  0  0
  -21.7482    7.7516  -11.3480 C   0  0  0  0  0  0  0  0  0  0  0  0
  -21.2741    7.4262  -12.5959 C   0  0  0  0  0  0  0  0  0  0  0  0
  -20.9390    8.4640  -13.4790 C   0  0  0  0  0  0  0  0  0  0  0  0
  -21.0744    5.9969  -12.9250 C   0  0  0  0  0  0  0  0  0  0  0  0
  -19.8251    5.6789  -12.3603 F   0  0  0  0  0  0  0  0  0  0  0  0
  -20.9009    5.9118  -14.3163 F   0  0  0  0  0  0  0  0  0  0  0  0
  -22.0713    5.1996  -12.4722 F   0  0  0  0  0  0  0  0  0  0  0  0
 23 24  1  0  0  0
 24 25  2  0  0  0
 25 26  1  0  0  0
 26 27  2  0  0  0
 27 30  1  0  0  0
 30 31  1  0  0  0
 31 32  2  0  0  0
 31 34  1  0  0  0
 34 35  2  0  0  0
 35 36  1  0  0  0
 36 37  2  0  0  0
 37 38  1  0  0  0
 38 39  2  0  0  0
 38 40  1  0  0  0
 40 41  1  0  0  0
 40 42  1  0  0  0
 40 43  1  0  0  0
 27 28  1  0  0  0
 28 29  2  0  0  0
 29  1  1  0  0  0
  1  2  3  0  0  0
  2  3  1  0  0  0
  3  4  2  0  0  0
  4  5  1  0  0  0
  5 15  1  0  0  0
 15 16  1  0  0  0
 16 17  1  0  0  0
 17 18  1  0  0  0
 18 19  1  0  0  0
 18 20  1  0  0  0
 20 21  1  0  0  0
  5  6  1  0  0  0
  6  7  2  0  0  0
  7  8  1  0  0  0
  8  9  2  0  0  0
  9 10  1  0  0  0
 10 11  1  0  0  0
 10 12  2  0  0  0
 29 24  1  0  0  0
 12  3  1  0  0  0
 39 34  1  0  0  0
 21 15  1  0  0  0
 12  6  1  0  0  0
 30 33  1  0  0  0
 19 22  1  0  0  0
 11 13  1  0  0  0
 11 14  1  0  0  0
M  END
> <minimizedAffinity>
-8.78769

> <CNNscore>
0.5613557100

> <CNNaffinity>
7.3471641541

> <CNN_VS>
4.1243724823

> <CNNaffinity_variance>
0.3352209628

$$$$
[H]O[C@]1([H])C([H])([H])C([H])([H])[C@@]([H])(n2nc(C#Cc3c([H])c(N([H])C(=O)c4c([H])c([H])c([H])c(C(F)(F)F)c4[H])c([H])c([H])c3C([H])([H])[H])c3c(N([H])[H])nc([H])nc32)C([H])([H])C1([H])[H]


 43 47  0  0  0  0  0  0  0  0999 V2000
  -19.4150   13.6205  -19.1045 C   0  0  0  0  0  0  0  0  0  0  0  0
  -18.7301   13.4622  -20.1042 C   0  0  0  0  0  0  0  0  0  0  0  0
  -17.8283   13.3162  -21.2175 C   0  0  0  0  0  0  0  0  0  0  0  0
  -17.5852   13.9979  -22.2871 N   0  0  0  0  0  0  0  0  0  0  0  0
  -16.6160   13.4201  -23.0357 N   0  0  0  0  0  0  0  0  0  0  0  0
  -16.2052   12.3108  -22.4174 C   0  0  0  0  0  0  0  0  0  0  0  0
  -15.2681   11.3607  -22.6921 N   0  0  0  0  0  0  0  0  0  0  0  0
  -15.1005   10.3509  -21.8314 C   0  0  0  0  0  0  0  0  0  0  0  0
  -15.8062   10.2200  -20.7056 N   0  0  0  0  0  0  0  0  0  0  0  0
  -16.7520   11.1637  -20.4044 C   0  0  0  0  0  0  0  0  0  0  0  0
  -17.4983   11.0763  -19.2064 N   0  0  0  0  0  0  0  0  0  0  0  0
  -16.9285   12.1926  -21.2759 C   0  0  0  0  0  0  0  0  0  0  0  0
  -18.3869   10.5518  -19.2034 H   0  0  0  0  0  0  0  0  0  0  0  0
  -17.2243   11.5056  -18.3046 H   0  0  0  0  0  0  0  0  0  0  0  0
  -16.1456   13.9713  -24.2543 C   0  0  0  0  0  0  0  0  0  0  0  0
  -17.3104   14.0505  -25.2672 C   0  0  0  0  0  0  0  0  0  0  0  0
  -16.7164   14.4167  -26.6060 C   0  0  0  0  0  0  0  0  0  0  0  0
  -16.1537   15.8196  -26.4946 C   0  0  0  0  0  0  0  0  0  0  0  0
  -14.8509   15.8174  -26.9967 O   0  0  0  0  0  0  0  0  0  0  0  0
  -16.1213   16.2594  -25.0458 C   0  0  0  0  0  0  0  0  0  0  0  0
  -15.3540   15.2120  -24.2211 C   0  0  0  0  0  0  0  0  0  0  0  0
  -14.2618   16.3777  -26.4230 H   0  0  0  0  0  0  0  0  0  0  0  0
  -19.5508   16.2768  -17.9399 C   0  0  0  0  0  0  0  0  0  0  0  0
  -20.3075   15.1178  -17.3941 C   0  0  0  0  0  0  0  0  0  0  0  0
  -21.1306   15.4209  -16.3117 C   0  0  0  0  0  0  0  0  0  0  0  0
  -21.7663   14.4126  -15.6418 C   0  0  0  0  0  0  0  0  0  0  0  0
  -21.5682   13.0780  -16.0719 C   0  0  0  0  0  0  0  0  0  0  0  0
  -20.7536   12.8393  -17.1487 C   0  0  0  0  0  0  0  0  0  0  0  0
  -20.0960   13.8396  -17.8549 C   0  0  0  0  0  0  0  0  0  0  0  0
  -22.1491   12.1194  -15.2300 N   0  0  0  0  0  0  0  0  0  0  0  0
  -21.5953   11.4713  -14.0907 C   0  0  0  0  0  0  0  0  0  0  0  0
  -20.5172   11.6880  -13.5602 O   0  0  0  0  0  0  0  0  0  0  0  0
  -23.1860   11.8285  -15.4200 H   0  0  0  0  0  0  0  0  0  0  0  0
  -22.4873   10.4049  -13.5727 C   0  0  0  0  0  0  0  0  0  0  0  0
  -21.8240    9.2068  -13.3700 C   0  0  0  0  0  0  0  0  0  0  0  0
  -22.5274    8.0462  -13.0932 C   0  0  0  0  0  0  0  0  0  0  0  0
  -23.9182    8.1341  -13.0288 C   0  0  0  0  0  0  0  0  0  0  0  0
  -24.5807    9.3220  -13.2237 C   0  0  0  0  0  0  0  0  0  0  0  0
  -23.8279   10.4737  -13.4996 C   0  0  0  0  0  0  0  0  0  0  0  0
  -26.0608    9.3172  -13.2013 C   0  0  0  0  0  0  0  0  0  0  0  0
  -26.4281    8.7983  -14.4569 F   0  0  0  0  0  0  0  0  0  0  0  0
  -26.4800   10.6578  -13.2011 F   0  0  0  0  0  0  0  0  0  0  0  0
  -26.5777    8.6071  -12.1703 F   0  0  0  0  0  0  0  0  0  0  0  0
 23 24  1  0  0  0
 24 25  2  0  0  0
 25 26  1  0  0  0
 26 27  2  0  0  0
 27 30  1  0  0  0
 30 31  1  0  0  0
 31 32  2  0  0  0
 31 34  1  0  0  0
 34 35  2  0  0  0
 35 36  1  0  0  0
 36 37  2  0  0  0
 37 38  1  0  0  0
 38 39  2  0  0  0
 38 40  1  0  0  0
 40 41  1  0  0  0
 40 42  1  0  0  0
 40 43  1  0  0  0
 27 28  1  0  0  0
 28 29  2  0  0  0
 29  1  1  0  0  0
  1  2  3  0  0  0
  2  3  1  0  0  0
  3  4  2  0  0  0
  4  5  1  0  0  0
  5 15  1  0  0  0
 15 16  1  0  0  0
 16 17  1  0  0  0
 17 18  1  0  0  0
 18 19  1  0  0  0
 18 20  1  0  0  0
 20 21  1  0  0  0
  5  6  1  0  0  0
  6  7  2  0  0  0
  7  8  1  0  0  0
  8  9  2  0  0  0
  9 10  1  0  0  0
 10 11  1  0  0  0
 10 12  2  0  0  0
 29 24  1  0  0  0
 12  3  1  0  0  0
 39 34  1  0  0  0
 21 15  1  0  0  0
 12  6  1  0  0  0
 30 33  1  0  0  0
 19 22  1  0  0  0
 11 13  1  0  0  0
 11 14  1  0  0  0
M  END
> <minimizedAffinity>
-8.47502

> <CNNscore>
0.5378121734

> <CNNaffinity>
7.2113890648

> <CNN_VS>
3.8783729076

> <CNNaffinity_variance>
0.4487042427

$$$$
[H]O[C@]1([H])C([H])([H])C([H])([H])[C@@]([H])(n2nc(C#Cc3c([H])c(N([H])C(=O)c4c([H])c([H])c([H])c(C(F)(F)F)c4[H])c([H])c([H])c3C([H])([H])[H])c3c(N([H])[H])nc([H])nc32)C([H])([H])C1([H])[H]


 43 47  0  0  0  0  0  0  0  0999 V2000
  -19.6523   14.1855  -19.3824 C   0  0  0  0  0  0  0  0  0  0  0  0
  -18.9396   13.9993  -20.3576 C   0  0  0  0  0  0  0  0  0  0  0  0
  -18.0337   13.7046  -21.4376 C   0  0  0  0  0  0  0  0  0  0  0  0
  -17.7459   14.2681  -22.5634 N   0  0  0  0  0  0  0  0  0  0  0  0
  -16.7976   13.5760  -23.2381 N   0  0  0  0  0  0  0  0  0  0  0  0
  -16.4480   12.5131  -22.5103 C   0  0  0  0  0  0  0  0  0  0  0  0
  -15.5551   11.4978  -22.6784 N   0  0  0  0  0  0  0  0  0  0  0  0
  -15.4461   10.5686  -21.7227 C   0  0  0  0  0  0  0  0  0  0  0  0
  -16.1699   10.5800  -20.6007 N   0  0  0  0  0  0  0  0  0  0  0  0
  -17.0720   11.5919  -20.4059 C   0  0  0  0  0  0  0  0  0  0  0  0
  -17.8350   11.6552  -19.2168 N   0  0  0  0  0  0  0  0  0  0  0  0
  -17.1888   12.5393  -21.3743 C   0  0  0  0  0  0  0  0  0  0  0  0
  -18.7480   11.1760  -19.1778 H   0  0  0  0  0  0  0  0  0  0  0  0
  -17.5505   12.1558  -18.3560 H   0  0  0  0  0  0  0  0  0  0  0  0
  -16.2875   13.9847  -24.4962 C   0  0  0  0  0  0  0  0  0  0  0  0
  -17.4250   13.9696  -25.5426 C   0  0  0  0  0  0  0  0  0  0  0  0
  -16.7916   14.1797  -26.8968 C   0  0  0  0  0  0  0  0  0  0  0  0
  -16.2082   15.5782  -26.9231 C   0  0  0  0  0  0  0  0  0  0  0  0
  -14.8934   15.5032  -27.3869 O   0  0  0  0  0  0  0  0  0  0  0  0
  -16.2048   16.1726  -25.5300 C   0  0  0  0  0  0  0  0  0  0  0  0
  -15.4762   15.2104  -24.5764 C   0  0  0  0  0  0  0  0  0  0  0  0
  -14.3095   16.1142  -26.8617 H   0  0  0  0  0  0  0  0  0  0  0  0
  -21.4731   16.4109  -18.9788 C   0  0  0  0  0  0  0  0  0  0  0  0
  -21.3968   15.2528  -18.0477 C   0  0  0  0  0  0  0  0  0  0  0  0
  -22.3085   15.2944  -16.9950 C   0  0  0  0  0  0  0  0  0  0  0  0
  -22.2385   14.3573  -16.0019 C   0  0  0  0  0  0  0  0  0  0  0  0
  -21.2328   13.3629  -16.0730 C   0  0  0  0  0  0  0  0  0  0  0  0
  -20.3676   13.3656  -17.1367 C   0  0  0  0  0  0  0  0  0  0  0  0
  -20.4129   14.2994  -18.1651 C   0  0  0  0  0  0  0  0  0  0  0  0
  -21.1627   12.5458  -14.9359 N   0  0  0  0  0  0  0  0  0  0  0  0
  -20.6169   11.2385  -14.8019 C   0  0  0  0  0  0  0  0  0  0  0  0
  -20.0142   10.5922  -15.6443 O   0  0  0  0  0  0  0  0  0  0  0  0
  -21.5361   12.9476  -13.9899 H   0  0  0  0  0  0  0  0  0  0  0  0
  -20.8843   10.6622  -13.4612 C   0  0  0  0  0  0  0  0  0  0  0  0
  -21.5487    9.4494  -13.5251 C   0  0  0  0  0  0  0  0  0  0  0  0
  -22.0684    8.8658  -12.3815 C   0  0  0  0  0  0  0  0  0  0  0  0
  -21.8967    9.5449  -11.1750 C   0  0  0  0  0  0  0  0  0  0  0  0
  -21.2330   10.7461  -11.1058 C   0  0  0  0  0  0  0  0  0  0  0  0
  -20.7209   11.2999  -12.2890 C   0  0  0  0  0  0  0  0  0  0  0  0
  -21.1496   11.4325   -9.7969 C   0  0  0  0  0  0  0  0  0  0  0  0
  -21.6800   12.7134  -10.0390 F   0  0  0  0  0  0  0  0  0  0  0  0
  -19.7871   11.6265   -9.5163 F   0  0  0  0  0  0  0  0  0  0  0  0
  -21.7995   10.7758   -8.8065 F   0  0  0  0  0  0  0  0  0  0  0  0
 23 24  1  0  0  0
 24 25  2  0  0  0
 25 26  1  0  0  0
 26 27  2  0  0  0
 27 30  1  0  0  0
 30 31  1  0  0  0
 31 32  2  0  0  0
 31 34  1  0  0  0
 34 35  2  0  0  0
 35 36  1  0  0  0
 36 37  2  0  0  0
 37 38  1  0  0  0
 38 39  2  0  0  0
 38 40  1  0  0  0
 40 41  1  0  0  0
 40 42  1  0  0  0
 40 43  1  0  0  0
 27 28  1  0  0  0
 28 29  2  0  0  0
 29  1  1  0  0  0
  1  2  3  0  0  0
  2  3  1  0  0  0
  3  4  2  0  0  0
  4  5  1  0  0  0
  5 15  1  0  0  0
 15 16  1  0  0  0
 16 17  1  0  0  0
 17 18  1  0  0  0
 18 19  1  0  0  0
 18 20  1  0  0  0
 20 21  1  0  0  0
  5  6  1  0  0  0
  6  7  2  0  0  0
  7  8  1  0  0  0
  8  9  2  0  0  0
  9 10  1  0  0  0
 10 11  1  0  0  0
 10 12  2  0  0  0
 29 24  1  0  0  0
 12  3  1  0  0  0
 39 34  1  0  0  0
 21 15  1  0  0  0
 12  6  1  0  0  0
 30 33  1  0  0  0
 19 22  1  0  0  0
 11 13  1  0  0  0
 11 14  1  0  0  0
M  END
> <minimizedAffinity>
-9.04778

> <CNNscore>
0.4873178601

> <CNNaffinity>
7.2671003342

> <CNN_VS>
3.5413877964

> <CNNaffinity_variance>
0.2860219181

$$$$
[H]OC(=O)[C@]([H])(N([H])[C@]1([H])C([H])([H])C([H])([H])[C@@]([H])(n2c([H])c(-c3c([H])c([H])c(Oc4c([H])c([H])c([H])c([H])c4[H])c([H])c3[H])c3c(N([H])[H])nc([H])nc32)C([H])([H])C1([H])[H])C([H])([H])c1c([H])c([H])c([H])c([H])c1[H]


 45 50  0  0  0  0  0  0  0  0999 V2000
  -17.9250    9.2834  -17.3690 N   0  0  0  0  0  0  0  0  0  0  0  0
  -17.8616   10.1893  -18.4716 C   0  0  0  0  0  0  0  0  0  0  0  0
  -17.0250    9.9435  -19.5060 N   0  0  0  0  0  0  0  0  0  0  0  0
  -16.9840   10.8016  -20.5348 C   0  0  0  0  0  0  0  0  0  0  0  0
  -17.7658   11.8661  -20.5065 N   0  0  0  0  0  0  0  0  0  0  0  0
  -18.6307   12.1822  -19.5062 C   0  0  0  0  0  0  0  0  0  0  0  0
  -19.4919   13.1911  -19.3054 N   0  0  0  0  0  0  0  0  0  0  0  0
  -20.0957   12.9762  -18.1304 C   0  0  0  0  0  0  0  0  0  0  0  0
  -19.6164   11.8080  -17.5594 C   0  0  0  0  0  0  0  0  0  0  0  0
  -18.6877   11.2988  -18.4245 C   0  0  0  0  0  0  0  0  0  0  0  0
  -17.2632    9.3110  -16.5814 H   0  0  0  0  0  0  0  0  0  0  0  0
  -18.6964    8.5801  -17.4145 H   0  0  0  0  0  0  0  0  0  0  0  0
  -19.9751   11.2202  -16.2739 C   0  0  0  0  0  0  0  0  0  0  0  0
  -20.8163   10.1280  -16.1570 C   0  0  0  0  0  0  0  0  0  0  0  0
  -21.1361    9.6159  -14.9060 C   0  0  0  0  0  0  0  0  0  0  0  0
  -20.6332   10.1716  -13.7487 C   0  0  0  0  0  0  0  0  0  0  0  0
  -19.7997   11.2567  -13.8894 C   0  0  0  0  0  0  0  0  0  0  0  0
  -19.4741   11.7735  -15.1158 C   0  0  0  0  0  0  0  0  0  0  0  0
  -20.9440    9.6706  -12.4870 O   0  0  0  0  0  0  0  0  0  0  0  0
  -19.9414    9.6485  -11.5277 C   0  0  0  0  0  0  0  0  0  0  0  0
  -19.8488   10.5728  -10.5097 C   0  0  0  0  0  0  0  0  0  0  0  0
  -18.8448   10.5366   -9.5627 C   0  0  0  0  0  0  0  0  0  0  0  0
  -17.9139    9.5225   -9.6698 C   0  0  0  0  0  0  0  0  0  0  0  0
  -17.9960    8.5988  -10.6781 C   0  0  0  0  0  0  0  0  0  0  0  0
  -19.0100    8.6324  -11.6362 C   0  0  0  0  0  0  0  0  0  0  0  0
  -19.6655   14.2865  -20.2365 C   0  0  0  0  0  0  0  0  0  0  0  0
  -20.9181   15.0375  -19.9426 C   0  0  0  0  0  0  0  0  0  0  0  0
  -21.0329   16.4177  -20.5233 C   0  0  0  0  0  0  0  0  0  0  0  0
  -19.7265   17.0907  -20.8350 C   0  0  0  0  0  0  0  0  0  0  0  0
  -18.7105   16.5595  -19.8756 C   0  0  0  0  0  0  0  0  0  0  0  0
  -18.4215   15.1314  -20.1481 C   0  0  0  0  0  0  0  0  0  0  0  0
  -19.4291   17.0121  -22.2081 N   0  0  0  0  0  0  0  0  0  0  0  0
  -20.2787   17.1280  -22.8428 H   0  0  0  0  0  0  0  0  0  0  0  0
  -18.4666   17.9537  -22.7534 C   0  0  0  0  0  0  0  0  0  0  0  0
  -18.4943   19.3010  -22.2308 C   0  0  0  0  0  0  0  0  0  0  0  0
  -17.8573   19.8138  -21.1113 O   0  0  0  0  0  0  0  0  0  0  0  0
  -19.1875   20.2130  -22.8309 O   0  0  0  0  0  0  0  0  0  0  0  0
  -18.3576   20.1268  -20.2714 H   0  0  0  0  0  0  0  0  0  0  0  0
  -17.1591   17.3047  -23.0334 C   0  0  0  0  0  0  0  0  0  0  0  0
  -17.1530   15.9151  -23.5006 C   0  0  0  0  0  0  0  0  0  0  0  0
  -17.9545   15.3761  -24.4751 C   0  0  0  0  0  0  0  0  0  0  0  0
  -17.8838   14.0596  -24.8644 C   0  0  0  0  0  0  0  0  0  0  0  0
  -16.9827   13.2048  -24.2774 C   0  0  0  0  0  0  0  0  0  0  0  0
  -16.1576   13.7025  -23.2936 C   0  0  0  0  0  0  0  0  0  0  0  0
  -16.2389   15.0153  -22.9156 C   0  0  0  0  0  0  0  0  0  0  0  0
  1  2  1  0  0  0
  2  3  2  0  0  0
  3  4  1  0  0  0
  4  5  2  0  0  0
  5  6  1  0  0  0
  6  7  1  0  0  0
  7  8  1  0  0  0
  8  9  2  0  0  0
  9 13  1  0  0  0
 13 14  2  0  0  0
 14 15  1  0  0  0
 15 16  2  0  0  0
 16 19  1  0  0  0
 19 20  1  0  0  0
 20 21  2  0  0  0
 21 22  1  0  0  0
 22 23  2  0  0  0
 23 24  1  0  0  0
 24 25  2  0  0  0
 16 17  1  0  0  0
 17 18  2  0  0  0
  9 10  1  0  0  0
  7 26  1  0  0  0
 26 27  1  0  0  0
 27 28  1  0  0  0
 28 29  1  0  0  0
 29 30  1  0  0  0
 30 31  1  0  0  0
 29 32  1  0  0  0
 32 34  1  0  0  0
 34 39  1  0  0  0
 39 40  1  0  0  0
 40 41  2  0  0  0
 41 42  1  0  0  0
 42 43  2  0  0  0
 43 44  1  0  0  0
 44 45  2  0  0  0
 34 35  1  0  0  0
 35 36  1  0  0  0
 35 37  2  0  0  0
 10  2  1  0  0  0
 31 26  1  0  0  0
 45 40  1  0  0  0
 10  6  2  0  0  0
 18 13  1  0  0  0
 25 20  1  0  0  0
  1 11  1  0  0  0
  1 12  1  0  0  0
 32 33  1  0  0  0
 36 38  1  0  0  0
M  END
> <minimizedAffinity>
-9.36044

> <CNNscore>
0.5947786570

> <CNNaffinity>
7.5654358864

> <CNN_VS>
4.4997596741

> <CNNaffinity_variance>
0.0947077274

$$$$
[H]OC(=O)[C@]([H])(N([H])[C@]1([H])C([H])([H])C([H])([H])[C@@]([H])(n2c([H])c(-c3c([H])c([H])c(Oc4c([H])c([H])c([H])c([H])c4[H])c([H])c3[H])c3c(N([H])[H])nc([H])nc32)C([H])([H])C1([H])[H])C([H])([H])c1c([H])c([H])c([H])c([H])c1[H]


 45 50  0  0  0  0  0  0  0  0999 V2000
  -18.4398    9.3021  -17.3070 N   0  0  0  0  0  0  0  0  0  0  0  0
  -18.0173   10.2097  -18.3260 C   0  0  0  0  0  0  0  0  0  0  0  0
  -17.1685    9.7963  -19.2950 N   0  0  0  0  0  0  0  0  0  0  0  0
  -16.7883   10.6602  -20.2465 C   0  0  0  0  0  0  0  0  0  0  0  0
  -17.2566   11.8949  -20.2082 N   0  0  0  0  0  0  0  0  0  0  0  0
  -18.1101   12.3853  -19.2703 C   0  0  0  0  0  0  0  0  0  0  0  0
  -18.6881   13.5796  -19.0724 N   0  0  0  0  0  0  0  0  0  0  0  0
  -19.4520   13.4799  -17.9779 C   0  0  0  0  0  0  0  0  0  0  0  0
  -19.3666   12.1986  -17.4570 C   0  0  0  0  0  0  0  0  0  0  0  0
  -18.5182   11.4987  -18.2697 C   0  0  0  0  0  0  0  0  0  0  0  0
  -17.8848    9.1094  -16.4621 H   0  0  0  0  0  0  0  0  0  0  0  0
  -19.3608    8.8391  -17.4772 H   0  0  0  0  0  0  0  0  0  0  0  0
  -20.0071   11.6683  -16.2591 C   0  0  0  0  0  0  0  0  0  0  0  0
  -21.2759   11.1169  -16.2684 C   0  0  0  0  0  0  0  0  0  0  0  0
  -21.8447   10.6383  -15.0950 C   0  0  0  0  0  0  0  0  0  0  0  0
  -21.1733   10.6955  -13.8920 C   0  0  0  0  0  0  0  0  0  0  0  0
  -19.9138   11.2481  -13.9069 C   0  0  0  0  0  0  0  0  0  0  0  0
  -19.3386   11.7242  -15.0556 C   0  0  0  0  0  0  0  0  0  0  0  0
  -21.7291   10.2204  -12.7068 O   0  0  0  0  0  0  0  0  0  0  0  0
  -21.4493   10.9060  -11.5331 C   0  0  0  0  0  0  0  0  0  0  0  0
  -22.0848   12.0737  -11.1699 C   0  0  0  0  0  0  0  0  0  0  0  0
  -21.7947   12.7437   -9.9981 C   0  0  0  0  0  0  0  0  0  0  0  0
  -20.8249   12.1955   -9.1823 C   0  0  0  0  0  0  0  0  0  0  0  0
  -20.1865   11.0355   -9.5339 C   0  0  0  0  0  0  0  0  0  0  0  0
  -20.4780   10.3559  -10.7171 C   0  0  0  0  0  0  0  0  0  0  0  0
  -18.4609   14.7253  -19.9284 C   0  0  0  0  0  0  0  0  0  0  0  0
  -19.6908   15.0630  -20.6982 C   0  0  0  0  0  0  0  0  0  0  0  0
  -19.7599   16.4389  -21.2960 C   0  0  0  0  0  0  0  0  0  0  0  0
  -18.9048   17.4730  -20.6203 C   0  0  0  0  0  0  0  0  0  0  0  0
  -18.7824   17.0812  -19.1829 C   0  0  0  0  0  0  0  0  0  0  0  0
  -17.9812   15.8423  -19.0386 C   0  0  0  0  0  0  0  0  0  0  0  0
  -17.7152   17.6968  -21.3379 N   0  0  0  0  0  0  0  0  0  0  0  0
  -16.8445   17.2967  -20.8689 H   0  0  0  0  0  0  0  0  0  0  0  0
  -17.6320   17.1908  -22.6971 C   0  0  0  0  0  0  0  0  0  0  0  0
  -17.7569   18.1541  -23.7674 C   0  0  0  0  0  0  0  0  0  0  0  0
  -16.9590   18.3171  -24.8895 O   0  0  0  0  0  0  0  0  0  0  0  0
  -18.7174   19.0198  -23.7492 O   0  0  0  0  0  0  0  0  0  0  0  0
  -16.3579   19.1354  -25.0401 H   0  0  0  0  0  0  0  0  0  0  0  0
  -16.6394   16.0908  -22.8153 C   0  0  0  0  0  0  0  0  0  0  0  0
  -16.7472   15.1696  -23.9506 C   0  0  0  0  0  0  0  0  0  0  0  0
  -15.8019   14.9530  -24.9211 C   0  0  0  0  0  0  0  0  0  0  0  0
  -15.9746   14.0631  -25.9545 C   0  0  0  0  0  0  0  0  0  0  0  0
  -17.1336   13.3334  -26.0618 C   0  0  0  0  0  0  0  0  0  0  0  0
  -18.1111   13.5185  -25.1096 C   0  0  0  0  0  0  0  0  0  0  0  0
  -17.9258   14.4080  -24.0862 C   0  0  0  0  0  0  0  0  0  0  0  0
  1  2  1  0  0  0
  2  3  2  0  0  0
  3  4  1  0  0  0
  4  5  2  0  0  0
  5  6  1  0  0  0
  6  7  1  0  0  0
  7  8  1  0  0  0
  8  9  2  0  0  0
  9 13  1  0  0  0
 13 14  2  0  0  0
 14 15  1  0  0  0
 15 16  2  0  0  0
 16 19  1  0  0  0
 19 20  1  0  0  0
 20 21  2  0  0  0
 21 22  1  0  0  0
 22 23  2  0  0  0
 23 24  1  0  0  0
 24 25  2  0  0  0
 16 17  1  0  0  0
 17 18  2  0  0  0
  9 10  1  0  0  0
  7 26  1  0  0  0
 26 27  1  0  0  0
 27 28  1  0  0  0
 28 29  1  0  0  0
 29 30  1  0  0  0
 30 31  1  0  0  0
 29 32  1  0  0  0
 32 34  1  0  0  0
 34 39  1  0  0  0
 39 40  1  0  0  0
 40 41  2  0  0  0
 41 42  1  0  0  0
 42 43  2  0  0  0
 43 44  1  0  0  0
 44 45  2  0  0  0
 34 35  1  0  0  0
 35 36  1  0  0  0
 35 37  2  0  0  0
 10  2  1  0  0  0
 31 26  1  0  0  0
 45 40  1  0  0  0
 10  6  2  0  0  0
 18 13  1  0  0  0
 25 20  1  0  0  0
  1 11  1  0  0  0
  1 12  1  0  0  0
 32 33  1  0  0  0
 36 38  1  0  0  0
M  END
> <minimizedAffinity>
-9.19199

> <CNNscore>
0.5676922798

> <CNNaffinity>
7.6560392380

> <CNN_VS>
4.3462743759

> <CNNaffinity_variance>
0.1561325341

$$$$
[H]OC(=O)[C@]([H])(N([H])[C@]1([H])C([H])([H])C([H])([H])[C@@]([H])(n2c([H])c(-c3c([H])c([H])c(Oc4c([H])c([H])c([H])c([H])c4[H])c([H])c3[H])c3c(N([H])[H])nc([H])nc32)C([H])([H])C1([H])[H])C([H])([H])c1c([H])c([H])c([H])c([H])c1[H]


 45 50  0  0  0  0  0  0  0  0999 V2000
  -18.3166    9.0413  -17.4223 N   0  0  0  0  0  0  0  0  0  0  0  0
  -17.9447   10.0762  -18.3340 C   0  0  0  0  0  0  0  0  0  0  0  0
  -17.0534    9.8249  -19.3204 N   0  0  0  0  0  0  0  0  0  0  0  0
  -16.7215   10.8066  -20.1703 C   0  0  0  0  0  0  0  0  0  0  0  0
  -17.2778   11.9950  -20.0177 N   0  0  0  0  0  0  0  0  0  0  0  0
  -18.1788   12.3255  -19.0545 C   0  0  0  0  0  0  0  0  0  0  0  0
  -18.8441   13.4499  -18.7496 N   0  0  0  0  0  0  0  0  0  0  0  0
  -19.6158   13.1850  -17.6886 C   0  0  0  0  0  0  0  0  0  0  0  0
  -19.4466   11.8660  -17.2985 C   0  0  0  0  0  0  0  0  0  0  0  0
  -18.5376   11.3144  -18.1586 C   0  0  0  0  0  0  0  0  0  0  0  0
  -17.7624    8.8019  -16.5889 H   0  0  0  0  0  0  0  0  0  0  0  0
  -19.1993    8.5350  -17.6595 H   0  0  0  0  0  0  0  0  0  0  0  0
  -20.0659   11.1719  -16.1755 C   0  0  0  0  0  0  0  0  0  0  0  0
  -21.1783   10.3615  -16.3158 C   0  0  0  0  0  0  0  0  0  0  0  0
  -21.7368    9.7339  -15.2095 C   0  0  0  0  0  0  0  0  0  0  0  0
  -21.2092    9.8949  -13.9459 C   0  0  0  0  0  0  0  0  0  0  0  0
  -20.1039   10.7053  -13.8305 C   0  0  0  0  0  0  0  0  0  0  0  0
  -19.5408   11.3309  -14.9116 C   0  0  0  0  0  0  0  0  0  0  0  0
  -21.7570    9.2732  -12.8265 O   0  0  0  0  0  0  0  0  0  0  0  0
  -20.9086    8.5492  -12.0006 C   0  0  0  0  0  0  0  0  0  0  0  0
  -20.1630    7.4756  -12.4375 C   0  0  0  0  0  0  0  0  0  0  0  0
  -19.3232    6.7658  -11.6027 C   0  0  0  0  0  0  0  0  0  0  0  0
  -19.2521    7.1735  -10.2854 C   0  0  0  0  0  0  0  0  0  0  0  0
  -19.9893    8.2389   -9.8404 C   0  0  0  0  0  0  0  0  0  0  0  0
  -20.8384    8.9587  -10.6819 C   0  0  0  0  0  0  0  0  0  0  0  0
  -18.6865   14.6906  -19.4795 C   0  0  0  0  0  0  0  0  0  0  0  0
  -19.8217   14.8983  -20.4216 C   0  0  0  0  0  0  0  0  0  0  0  0
  -20.0318   16.2948  -20.9324 C   0  0  0  0  0  0  0  0  0  0  0  0
  -19.4815   17.3850  -20.0574 C   0  0  0  0  0  0  0  0  0  0  0  0
  -19.5180   16.8875  -18.6481 C   0  0  0  0  0  0  0  0  0  0  0  0
  -18.5488   15.7832  -18.4516 C   0  0  0  0  0  0  0  0  0  0  0  0
  -18.2512   17.8591  -20.5489 N   0  0  0  0  0  0  0  0  0  0  0  0
  -17.4056   17.3063  -20.2061 H   0  0  0  0  0  0  0  0  0  0  0  0
  -18.0642   17.9081  -21.9887 C   0  0  0  0  0  0  0  0  0  0  0  0
  -18.4023   19.1452  -22.6552 C   0  0  0  0  0  0  0  0  0  0  0  0
  -18.5501   19.3911  -24.0116 O   0  0  0  0  0  0  0  0  0  0  0  0
  -18.6086   20.2174  -21.9622 O   0  0  0  0  0  0  0  0  0  0  0  0
  -17.9078   19.9829  -24.5509 H   0  0  0  0  0  0  0  0  0  0  0  0
  -16.8544   17.1559  -22.4127 C   0  0  0  0  0  0  0  0  0  0  0  0
  -17.0292   15.8306  -23.0146 C   0  0  0  0  0  0  0  0  0  0  0  0
  -16.4726   14.6544  -22.5793 C   0  0  0  0  0  0  0  0  0  0  0  0
  -16.6908   13.4453  -23.1957 C   0  0  0  0  0  0  0  0  0  0  0  0
  -17.4976   13.3618  -24.3045 C   0  0  0  0  0  0  0  0  0  0  0  0
  -18.0775   14.5179  -24.7773 C   0  0  0  0  0  0  0  0  0  0  0  0
  -17.8515   15.7150  -24.1539 C   0  0  0  0  0  0  0  0  0  0  0  0
  1  2  1  0  0  0
  2  3  2  0  0  0
  3  4  1  0  0  0
  4  5  2  0  0  0
  5  6  1  0  0  0
  6  7  1  0  0  0
  7  8  1  0  0  0
  8  9  2  0  0  0
  9 13  1  0  0  0
 13 14  2  0  0  0
 14 15  1  0  0  0
 15 16  2  0  0  0
 16 19  1  0  0  0
 19 20  1  0  0  0
 20 21  2  0  0  0
 21 22  1  0  0  0
 22 23  2  0  0  0
 23 24  1  0  0  0
 24 25  2  0  0  0
 16 17  1  0  0  0
 17 18  2  0  0  0
  9 10  1  0  0  0
  7 26  1  0  0  0
 26 27  1  0  0  0
 27 28  1  0  0  0
 28 29  1  0  0  0
 29 30  1  0  0  0
 30 31  1  0  0  0
 29 32  1  0  0  0
 32 34  1  0  0  0
 34 39  1  0  0  0
 39 40  1  0  0  0
 40 41  2  0  0  0
 41 42  1  0  0  0
 42 43  2  0  0  0
 43 44  1  0  0  0
 44 45  2  0  0  0
 34 35  1  0  0  0
 35 36  1  0  0  0
 35 37  2  0  0  0
 10  2  1  0  0  0
 31 26  1  0  0  0
 45 40  1  0  0  0
 10  6  2  0  0  0
 18 13  1  0  0  0
 25 20  1  0  0  0
  1 11  1  0  0  0
  1 12  1  0  0  0
 32 33  1  0  0  0
 36 38  1  0  0  0
M  END
> <minimizedAffinity>
-8.62526

> <CNNscore>
0.5670297146

> <CNNaffinity>
7.5272760391

> <CNN_VS>
4.2681889534

> <CNNaffinity_variance>
0.0632059127

$$$$
[H]OC(=O)[C@]([H])(N([H])[C@]1([H])C([H])([H])C([H])([H])[C@@]([H])(n2c([H])c(-c3c([H])c([H])c(Oc4c([H])c([H])c([H])c([H])c4[H])c([H])c3[H])c3c(N([H])[H])nc([H])nc32)C([H])([H])C1([H])[H])C([H])([H])c1c([H])c([H])c([H])c([H])c1[H]


 45 50  0  0  0  0  0  0  0  0999 V2000
  -18.3334    9.0735  -17.4232 N   0  0  0  0  0  0  0  0  0  0  0  0
  -17.9763   10.1092  -18.3398 C   0  0  0  0  0  0  0  0  0  0  0  0
  -17.1037    9.8581  -19.3428 N   0  0  0  0  0  0  0  0  0  0  0  0
  -16.7856   10.8406  -20.1969 C   0  0  0  0  0  0  0  0  0  0  0  0
  -17.3368   12.0298  -20.0321 N   0  0  0  0  0  0  0  0  0  0  0  0
  -18.2193   12.3603  -19.0520 C   0  0  0  0  0  0  0  0  0  0  0  0
  -18.8768   13.4853  -18.7330 N   0  0  0  0  0  0  0  0  0  0  0  0
  -19.6295   13.2200  -17.6585 C   0  0  0  0  0  0  0  0  0  0  0  0
  -19.4557   11.9000  -17.2739 C   0  0  0  0  0  0  0  0  0  0  0  0
  -18.5636   11.3482  -18.1514 C   0  0  0  0  0  0  0  0  0  0  0  0
  -17.7645    8.8316  -16.6005 H   0  0  0  0  0  0  0  0  0  0  0  0
  -19.2213    8.5692  -17.6451 H   0  0  0  0  0  0  0  0  0  0  0  0
  -20.0556   11.2050  -16.1410 C   0  0  0  0  0  0  0  0  0  0  0  0
  -19.4424   11.1184  -14.9038 C   0  0  0  0  0  0  0  0  0  0  0  0
  -20.0526   10.4320  -13.8617 C   0  0  0  0  0  0  0  0  0  0  0  0
  -21.2770    9.8185  -14.0209 C   0  0  0  0  0  0  0  0  0  0  0  0
  -21.8674    9.9173  -15.2593 C   0  0  0  0  0  0  0  0  0  0  0  0
  -21.2791   10.5910  -16.2972 C   0  0  0  0  0  0  0  0  0  0  0  0
  -21.9022    9.1263  -12.9866 O   0  0  0  0  0  0  0  0  0  0  0  0
  -21.6865    9.5603  -11.6862 C   0  0  0  0  0  0  0  0  0  0  0  0
  -22.1175   10.7818  -11.2156 C   0  0  0  0  0  0  0  0  0  0  0  0
  -21.8950   11.1984   -9.9183 C   0  0  0  0  0  0  0  0  0  0  0  0
  -21.2104   10.3339   -9.0874 C   0  0  0  0  0  0  0  0  0  0  0  0
  -20.7769    9.1175   -9.5449 C   0  0  0  0  0  0  0  0  0  0  0  0
  -21.0010    8.6934  -10.8553 C   0  0  0  0  0  0  0  0  0  0  0  0
  -18.7303   14.7270  -19.4635 C   0  0  0  0  0  0  0  0  0  0  0  0
  -19.8793   14.9356  -20.3885 C   0  0  0  0  0  0  0  0  0  0  0  0
  -20.0972   16.3327  -20.8944 C   0  0  0  0  0  0  0  0  0  0  0  0
  -19.5345   17.4219  -20.0261 C   0  0  0  0  0  0  0  0  0  0  0  0
  -19.5501   16.9226  -18.6171 C   0  0  0  0  0  0  0  0  0  0  0  0
  -18.5778   15.8184  -18.4363 C   0  0  0  0  0  0  0  0  0  0  0  0
  -18.3116   17.8970  -20.5351 N   0  0  0  0  0  0  0  0  0  0  0  0
  -17.4540   17.4140  -20.1234 H   0  0  0  0  0  0  0  0  0  0  0  0
  -18.0913   17.8170  -21.9687 C   0  0  0  0  0  0  0  0  0  0  0  0
  -18.3424   19.0123  -22.7416 C   0  0  0  0  0  0  0  0  0  0  0  0
  -18.3018   19.1844  -24.1167 O   0  0  0  0  0  0  0  0  0  0  0  0
  -18.6511   20.1162  -22.1429 O   0  0  0  0  0  0  0  0  0  0  0  0
  -17.5950   19.7565  -24.5929 H   0  0  0  0  0  0  0  0  0  0  0  0
  -16.9186   16.9655  -22.2989 C   0  0  0  0  0  0  0  0  0  0  0  0
  -17.1385   15.7415  -23.0751 C   0  0  0  0  0  0  0  0  0  0  0  0
  -18.0858   15.5492  -24.0489 C   0  0  0  0  0  0  0  0  0  0  0  0
  -18.2254   14.3693  -24.7402 C   0  0  0  0  0  0  0  0  0  0  0  0
  -17.3994   13.3035  -24.4775 C   0  0  0  0  0  0  0  0  0  0  0  0
  -16.4336   13.4511  -23.5070 C   0  0  0  0  0  0  0  0  0  0  0  0
  -16.3059   14.6314  -22.8262 C   0  0  0  0  0  0  0  0  0  0  0  0
  1  2  1  0  0  0
  2  3  2  0  0  0
  3  4  1  0  0  0
  4  5  2  0  0  0
  5  6  1  0  0  0
  6  7  1  0  0  0
  7  8  1  0  0  0
  8  9  2  0  0  0
  9 13  1  0  0  0
 13 14  2  0  0  0
 14 15  1  0  0  0
 15 16  2  0  0  0
 16 19  1  0  0  0
 19 20  1  0  0  0
 20 21  2  0  0  0
 21 22  1  0  0  0
 22 23  2  0  0  0
 23 24  1  0  0  0
 24 25  2  0  0  0
 16 17  1  0  0  0
 17 18  2  0  0  0
  9 10  1  0  0  0
  7 26  1  0  0  0
 26 27  1  0  0  0
 27 28  1  0  0  0
 28 29  1  0  0  0
 29 30  1  0  0  0
 30 31  1  0  0  0
 29 32  1  0  0  0
 32 34  1  0  0  0
 34 39  1  0  0  0
 39 40  1  0  0  0
 40 41  2  0  0  0
 41 42  1  0  0  0
 42 43  2  0  0  0
 43 44  1  0  0  0
 44 45  2  0  0  0
 34 35  1  0  0  0
 35 36  1  0  0  0
 35 37  2  0  0  0
 10  2  1  0  0  0
 31 26  1  0  0  0
 45 40  1  0  0  0
 10  6  2  0  0  0
 18 13  1  0  0  0
 25 20  1  0  0  0
  1 11  1  0  0  0
  1 12  1  0  0  0
 32 33  1  0  0  0
 36 38  1  0  0  0
M  END
> <minimizedAffinity>
-8.56966

> <CNNscore>
0.5568044186

> <CNNaffinity>
7.4507584572

> <CNN_VS>
4.1486153603

> <CNNaffinity_variance>
0.0679915696

$$$$
[H]OC(=O)[C@]([H])(N([H])[C@]1([H])C([H])([H])C([H])([H])[C@@]([H])(n2c([H])c(-c3c([H])c([H])c(Oc4c([H])c([H])c([H])c([H])c4[H])c([H])c3[H])c3c(N([H])[H])nc([H])nc32)C([H])([H])C1([H])[H])C([H])([H])c1c([H])c([H])c([H])c([H])c1[H]


 45 50  0  0  0  0  0  0  0  0999 V2000
  -17.9330    9.2826  -17.4163 N   0  0  0  0  0  0  0  0  0  0  0  0
  -17.9701   10.2929  -18.4256 C   0  0  0  0  0  0  0  0  0  0  0  0
  -17.1942   10.1808  -19.5282 N   0  0  0  0  0  0  0  0  0  0  0  0
  -17.2472   11.1354  -20.4675 C   0  0  0  0  0  0  0  0  0  0  0  0
  -18.0595   12.1613  -20.2863 N   0  0  0  0  0  0  0  0  0  0  0  0
  -18.8681   12.3456  -19.2089 C   0  0  0  0  0  0  0  0  0  0  0  0
  -19.7467   13.2964  -18.8571 N   0  0  0  0  0  0  0  0  0  0  0  0
  -20.2664   12.9456  -17.6746 C   0  0  0  0  0  0  0  0  0  0  0  0
  -19.7139   11.7469  -17.2524 C   0  0  0  0  0  0  0  0  0  0  0  0
  -18.8268   11.3600  -18.2186 C   0  0  0  0  0  0  0  0  0  0  0  0
  -17.2232    9.2593  -16.6716 H   0  0  0  0  0  0  0  0  0  0  0  0
  -18.6826    8.5579  -17.4842 H   0  0  0  0  0  0  0  0  0  0  0  0
  -19.9700   11.0240  -16.0121 C   0  0  0  0  0  0  0  0  0  0  0  0
  -20.7082    9.8549  -15.9638 C   0  0  0  0  0  0  0  0  0  0  0  0
  -20.9335    9.2135  -14.7525 C   0  0  0  0  0  0  0  0  0  0  0  0
  -20.4359    9.7134  -13.5678 C   0  0  0  0  0  0  0  0  0  0  0  0
  -19.7057   10.8767  -13.6400 C   0  0  0  0  0  0  0  0  0  0  0  0
  -19.4740   11.5212  -14.8267 C   0  0  0  0  0  0  0  0  0  0  0  0
  -20.6528    9.0829  -12.3451 O   0  0  0  0  0  0  0  0  0  0  0  0
  -19.6193    9.0804  -11.4189 C   0  0  0  0  0  0  0  0  0  0  0  0
  -18.5706    8.1871  -11.4590 C   0  0  0  0  0  0  0  0  0  0  0  0
  -17.5496    8.1982  -10.5297 C   0  0  0  0  0  0  0  0  0  0  0  0
  -17.6133    9.1538   -9.5349 C   0  0  0  0  0  0  0  0  0  0  0  0
  -18.6515   10.0462   -9.4853 C   0  0  0  0  0  0  0  0  0  0  0  0
  -19.6843   10.0379  -10.4235 C   0  0  0  0  0  0  0  0  0  0  0  0
  -20.0151   14.4693  -19.6629 C   0  0  0  0  0  0  0  0  0  0  0  0
  -21.3541   15.0374  -19.3410 C   0  0  0  0  0  0  0  0  0  0  0  0
  -21.6080   16.4559  -19.7635 C   0  0  0  0  0  0  0  0  0  0  0  0
  -20.3780   17.3010  -19.9368 C   0  0  0  0  0  0  0  0  0  0  0  0
  -19.3387   16.7742  -19.0003 C   0  0  0  0  0  0  0  0  0  0  0  0
  -18.8795   15.4293  -19.4221 C   0  0  0  0  0  0  0  0  0  0  0  0
  -20.0303   17.4202  -21.2951 N   0  0  0  0  0  0  0  0  0  0  0  0
  -20.5928   16.7867  -21.9435 H   0  0  0  0  0  0  0  0  0  0  0  0
  -20.1427   18.7284  -21.9166 C   0  0  0  0  0  0  0  0  0  0  0  0
  -19.4033   19.8118  -21.3096 C   0  0  0  0  0  0  0  0  0  0  0  0
  -18.0332   19.9459  -21.1448 O   0  0  0  0  0  0  0  0  0  0  0  0
  -20.0326   20.8334  -20.8272 O   0  0  0  0  0  0  0  0  0  0  0  0
  -17.5705   19.9239  -20.2288 H   0  0  0  0  0  0  0  0  0  0  0  0
  -20.2120   18.6301  -23.3981 C   0  0  0  0  0  0  0  0  0  0  0  0
  -21.4667   18.9891  -24.0657 C   0  0  0  0  0  0  0  0  0  0  0  0
  -21.7987   20.2181  -24.5774 C   0  0  0  0  0  0  0  0  0  0  0  0
  -22.9977   20.4757  -25.1985 C   0  0  0  0  0  0  0  0  0  0  0  0
  -23.9400   19.4856  -25.3364 C   0  0  0  0  0  0  0  0  0  0  0  0
  -23.6499   18.2354  -24.8371 C   0  0  0  0  0  0  0  0  0  0  0  0
  -22.4523   17.9930  -24.2208 C   0  0  0  0  0  0  0  0  0  0  0  0
  1  2  1  0  0  0
  2  3  2  0  0  0
  3  4  1  0  0  0
  4  5  2  0  0  0
  5  6  1  0  0  0
  6  7  1  0  0  0
  7  8  1  0  0  0
  8  9  2  0  0  0
  9 13  1  0  0  0
 13 14  2  0  0  0
 14 15  1  0  0  0
 15 16  2  0  0  0
 16 19  1  0  0  0
 19 20  1  0  0  0
 20 21  2  0  0  0
 21 22  1  0  0  0
 22 23  2  0  0  0
 23 24  1  0  0  0
 24 25  2  0  0  0
 16 17  1  0  0  0
 17 18  2  0  0  0
  9 10  1  0  0  0
  7 26  1  0  0  0
 26 27  1  0  0  0
 27 28  1  0  0  0
 28 29  1  0  0  0
 29 30  1  0  0  0
 30 31  1  0  0  0
 29 32  1  0  0  0
 32 34  1  0  0  0
 34 39  1  0  0  0
 39 40  1  0  0  0
 40 41  2  0  0  0
 41 42  1  0  0  0
 42 43  2  0  0  0
 43 44  1  0  0  0
 44 45  2  0  0  0
 34 35  1  0  0  0
 35 36  1  0  0  0
 35 37  2  0  0  0
 10  2  1  0  0  0
 31 26  1  0  0  0
 45 40  1  0  0  0
 10  6  2  0  0  0
 18 13  1  0  0  0
 25 20  1  0  0  0
  1 11  1  0  0  0
  1 12  1  0  0  0
 32 33  1  0  0  0
 36 38  1  0  0  0
M  END
> <minimizedAffinity>
-8.66591

> <CNNscore>
0.5242608190

> <CNNaffinity>
7.1791396141

> <CNN_VS>
3.7637417316

> <CNNaffinity_variance>
0.0647162348

$$$$
[H]OC(=O)[C@]([H])(N([H])[C@]1([H])C([H])([H])C([H])([H])[C@@]([H])(n2c([H])c(-c3c([H])c([H])c(Oc4c([H])c([H])c([H])c([H])c4[H])c([H])c3[H])c3c(N([H])[H])nc([H])nc32)C([H])([H])C1([H])[H])C([H])([H])c1c([H])c([H])c([H])c([H])c1[H]


 45 50  0  0  0  0  0  0  0  0999 V2000
  -17.8331    9.3756  -17.4274 N   0  0  0  0  0  0  0  0  0  0  0  0
  -17.8546   10.2895  -18.5250 C   0  0  0  0  0  0  0  0  0  0  0  0
  -17.0646   10.0765  -19.6024 N   0  0  0  0  0  0  0  0  0  0  0  0
  -17.1031   10.9414  -20.6255 C   0  0  0  0  0  0  0  0  0  0  0  0
  -17.9155   11.9804  -20.5495 N   0  0  0  0  0  0  0  0  0  0  0  0
  -18.7377   12.2631  -19.5043 C   0  0  0  0  0  0  0  0  0  0  0  0
  -19.6188   13.2429  -19.2523 N   0  0  0  0  0  0  0  0  0  0  0  0
  -20.1548   13.0021  -18.0498 C   0  0  0  0  0  0  0  0  0  0  0  0
  -19.6105   11.8463  -17.5126 C   0  0  0  0  0  0  0  0  0  0  0  0
  -18.7117   11.3720  -18.4277 C   0  0  0  0  0  0  0  0  0  0  0  0
  -17.1332    9.4196  -16.6743 H   0  0  0  0  0  0  0  0  0  0  0  0
  -18.5834    8.6484  -17.4388 H   0  0  0  0  0  0  0  0  0  0  0  0
  -19.8844   11.2399  -16.2150 C   0  0  0  0  0  0  0  0  0  0  0  0
  -19.4203   11.7720  -15.0253 C   0  0  0  0  0  0  0  0  0  0  0  0
  -19.6994   11.1459  -13.8172 C   0  0  0  0  0  0  0  0  0  0  0  0
  -20.4398    9.9841  -13.7607 C   0  0  0  0  0  0  0  0  0  0  0  0
  -20.8901    9.4733  -14.9557 C   0  0  0  0  0  0  0  0  0  0  0  0
  -20.6241   10.0790  -16.1556 C   0  0  0  0  0  0  0  0  0  0  0  0
  -20.7283    9.3438  -12.5581 O   0  0  0  0  0  0  0  0  0  0  0  0
  -19.7790    9.3941  -11.5470 C   0  0  0  0  0  0  0  0  0  0  0  0
  -19.7896   10.3420  -10.5467 C   0  0  0  0  0  0  0  0  0  0  0  0
  -18.8375   10.3780   -9.5476 C   0  0  0  0  0  0  0  0  0  0  0  0
  -17.8505    9.4130   -9.5825 C   0  0  0  0  0  0  0  0  0  0  0  0
  -17.8300    8.4664  -10.5727 C   0  0  0  0  0  0  0  0  0  0  0  0
  -18.7913    8.4271  -11.5833 C   0  0  0  0  0  0  0  0  0  0  0  0
  -19.8740   14.3376  -20.1653 C   0  0  0  0  0  0  0  0  0  0  0  0
  -21.2035   14.9531  -19.8951 C   0  0  0  0  0  0  0  0  0  0  0  0
  -21.4391   16.3285  -20.4499 C   0  0  0  0  0  0  0  0  0  0  0  0
  -20.1981   17.1355  -20.7063 C   0  0  0  0  0  0  0  0  0  0  0  0
  -19.1624   16.6851  -19.7268 C   0  0  0  0  0  0  0  0  0  0  0  0
  -18.7239   15.2997  -20.0200 C   0  0  0  0  0  0  0  0  0  0  0  0
  -19.8544   17.1199  -22.0707 N   0  0  0  0  0  0  0  0  0  0  0  0
  -20.3076   16.3274  -22.6227 H   0  0  0  0  0  0  0  0  0  0  0  0
  -20.1525   18.3001  -22.8636 C   0  0  0  0  0  0  0  0  0  0  0  0
  -19.0310   19.0086  -23.4377 C   0  0  0  0  0  0  0  0  0  0  0  0
  -19.0210   20.2144  -24.1217 O   0  0  0  0  0  0  0  0  0  0  0  0
  -17.8392   18.5153  -23.3457 O   0  0  0  0  0  0  0  0  0  0  0  0
  -18.8033   20.2939  -25.1217 H   0  0  0  0  0  0  0  0  0  0  0  0
  -21.3948   18.1282  -23.6613 C   0  0  0  0  0  0  0  0  0  0  0  0
  -22.3515   19.2377  -23.7150 C   0  0  0  0  0  0  0  0  0  0  0  0
  -22.4878   20.2458  -22.7942 C   0  0  0  0  0  0  0  0  0  0  0  0
  -23.4079   21.2594  -22.9190 C   0  0  0  0  0  0  0  0  0  0  0  0
  -24.2532   21.3065  -24.0010 C   0  0  0  0  0  0  0  0  0  0  0  0
  -24.1522   20.3146  -24.9508 C   0  0  0  0  0  0  0  0  0  0  0  0
  -23.2317   19.3112  -24.8138 C   0  0  0  0  0  0  0  0  0  0  0  0
  1  2  1  0  0  0
  2  3  2  0  0  0
  3  4  1  0  0  0
  4  5  2  0  0  0
  5  6  1  0  0  0
  6  7  1  0  0  0
  7  8  1  0  0  0
  8  9  2  0  0  0
  9 13  1  0  0  0
 13 14  2  0  0  0
 14 15  1  0  0  0
 15 16  2  0  0  0
 16 19  1  0  0  0
 19 20  1  0  0  0
 20 21  2  0  0  0
 21 22  1  0  0  0
 22 23  2  0  0  0
 23 24  1  0  0  0
 24 25  2  0  0  0
 16 17  1  0  0  0
 17 18  2  0  0  0
  9 10  1  0  0  0
  7 26  1  0  0  0
 26 27  1  0  0  0
 27 28  1  0  0  0
 28 29  1  0  0  0
 29 30  1  0  0  0
 30 31  1  0  0  0
 29 32  1  0  0  0
 32 34  1  0  0  0
 34 39  1  0  0  0
 39 40  1  0  0  0
 40 41  2  0  0  0
 41 42  1  0  0  0
 42 43  2  0  0  0
 43 44  1  0  0  0
 44 45  2  0  0  0
 34 35  1  0  0  0
 35 36  1  0  0  0
 35 37  2  0  0  0
 10  2  1  0  0  0
 31 26  1  0  0  0
 45 40  1  0  0  0
 10  6  2  0  0  0
 18 13  1  0  0  0
 25 20  1  0  0  0
  1 11  1  0  0  0
  1 12  1  0  0  0
 32 33  1  0  0  0
 36 38  1  0  0  0
M  END
> <minimizedAffinity>
-8.77998

> <CNNscore>
0.5055865049

> <CNNaffinity>
7.1740860939

> <CNN_VS>
3.6271212101

> <CNNaffinity_variance>
0.1094848365

$$$$
[H]OC(=O)[C@]([H])(N([H])[C@]1([H])C([H])([H])C([H])([H])[C@@]([H])(n2c([H])c(-c3c([H])c([H])c(Oc4c([H])c([H])c([H])c([H])c4[H])c([H])c3[H])c3c(N([H])[H])nc([H])nc32)C([H])([H])C1([H])[H])C([H])([H])c1c([H])c([H])c([H])c([H])c1[H]


 45 50  0  0  0  0  0  0  0  0999 V2000
  -17.8473    9.2975  -17.3062 N   0  0  0  0  0  0  0  0  0  0  0  0
  -17.8547   10.2573  -18.3642 C   0  0  0  0  0  0  0  0  0  0  0  0
  -17.0305   10.1046  -19.4261 N   0  0  0  0  0  0  0  0  0  0  0  0
  -17.0562   11.0119  -20.4122 C   0  0  0  0  0  0  0  0  0  0  0  0
  -17.8897   12.0322  -20.3160 N   0  0  0  0  0  0  0  0  0  0  0  0
  -18.7465   12.2552  -19.2842 C   0  0  0  0  0  0  0  0  0  0  0  0
  -19.6526   13.2077  -19.0168 N   0  0  0  0  0  0  0  0  0  0  0  0
  -20.2180   12.9061  -17.8417 C   0  0  0  0  0  0  0  0  0  0  0  0
  -19.6677   11.7380  -17.3384 C   0  0  0  0  0  0  0  0  0  0  0  0
  -18.7344   11.3193  -18.2461 C   0  0  0  0  0  0  0  0  0  0  0  0
  -17.1701    9.3214  -16.5318 H   0  0  0  0  0  0  0  0  0  0  0  0
  -18.5831    8.5585  -17.3704 H   0  0  0  0  0  0  0  0  0  0  0  0
  -19.9670   11.0717  -16.0763 C   0  0  0  0  0  0  0  0  0  0  0  0
  -20.7237    9.9161  -15.9991 C   0  0  0  0  0  0  0  0  0  0  0  0
  -20.9903    9.3295  -14.7685 C   0  0  0  0  0  0  0  0  0  0  0  0
  -20.5165    9.8719  -13.5928 C   0  0  0  0  0  0  0  0  0  0  0  0
  -19.7672   11.0209  -13.6940 C   0  0  0  0  0  0  0  0  0  0  0  0
  -19.4949   11.6115  -14.8998 C   0  0  0  0  0  0  0  0  0  0  0  0
  -20.7747    9.2966  -12.3511 O   0  0  0  0  0  0  0  0  0  0  0  0
  -19.7433    9.2541  -11.4235 C   0  0  0  0  0  0  0  0  0  0  0  0
  -18.6838    8.3771  -11.5109 C   0  0  0  0  0  0  0  0  0  0  0  0
  -17.6652    8.3478  -10.5795 C   0  0  0  0  0  0  0  0  0  0  0  0
  -17.7427    9.2447   -9.5325 C   0  0  0  0  0  0  0  0  0  0  0  0
  -18.7917   10.1204   -9.4356 C   0  0  0  0  0  0  0  0  0  0  0  0
  -19.8222   10.1528  -10.3758 C   0  0  0  0  0  0  0  0  0  0  0  0
  -19.9023   14.3360  -19.8895 C   0  0  0  0  0  0  0  0  0  0  0  0
  -21.3360   14.7377  -19.8382 C   0  0  0  0  0  0  0  0  0  0  0  0
  -21.6729   16.1130  -20.3384 C   0  0  0  0  0  0  0  0  0  0  0  0
  -20.5419   17.1013  -20.3017 C   0  0  0  0  0  0  0  0  0  0  0  0
  -19.6424   16.7087  -19.1741 C   0  0  0  0  0  0  0  0  0  0  0  0
  -18.9550   15.4284  -19.4668 C   0  0  0  0  0  0  0  0  0  0  0  0
  -19.9613   17.2569  -21.5740 N   0  0  0  0  0  0  0  0  0  0  0  0
  -20.5682   16.8968  -22.3742 H   0  0  0  0  0  0  0  0  0  0  0  0
  -19.5980   18.5974  -21.9997 C   0  0  0  0  0  0  0  0  0  0  0  0
  -18.8025   18.7144  -23.2007 C   0  0  0  0  0  0  0  0  0  0  0  0
  -17.9014   17.8089  -23.7396 O   0  0  0  0  0  0  0  0  0  0  0  0
  -18.8825   19.7808  -23.9278 O   0  0  0  0  0  0  0  0  0  0  0  0
  -16.8896   17.9769  -23.7812 H   0  0  0  0  0  0  0  0  0  0  0  0
  -20.6940   19.5701  -21.7509 C   0  0  0  0  0  0  0  0  0  0  0  0
  -20.6867   20.3270  -20.4955 C   0  0  0  0  0  0  0  0  0  0  0  0
  -21.7729   20.6178  -19.7091 C   0  0  0  0  0  0  0  0  0  0  0  0
  -21.6838   21.3298  -18.5366 C   0  0  0  0  0  0  0  0  0  0  0  0
  -20.4697   21.7931  -18.0909 C   0  0  0  0  0  0  0  0  0  0  0  0
  -19.3516   21.5250  -18.8488 C   0  0  0  0  0  0  0  0  0  0  0  0
  -19.4548   20.8152  -20.0142 C   0  0  0  0  0  0  0  0  0  0  0  0
  1  2  1  0  0  0
  2  3  2  0  0  0
  3  4  1  0  0  0
  4  5  2  0  0  0
  5  6  1  0  0  0
  6  7  1  0  0  0
  7  8  1  0  0  0
  8  9  2  0  0  0
  9 13  1  0  0  0
 13 14  2  0  0  0
 14 15  1  0  0  0
 15 16  2  0  0  0
 16 19  1  0  0  0
 19 20  1  0  0  0
 20 21  2  0  0  0
 21 22  1  0  0  0
 22 23  2  0  0  0
 23 24  1  0  0  0
 24 25  2  0  0  0
 16 17  1  0  0  0
 17 18  2  0  0  0
  9 10  1  0  0  0
  7 26  1  0  0  0
 26 27  1  0  0  0
 27 28  1  0  0  0
 28 29  1  0  0  0
 29 30  1  0  0  0
 30 31  1  0  0  0
 29 32  1  0  0  0
 32 34  1  0  0  0
 34 39  1  0  0  0
 39 40  1  0  0  0
 40 41  2  0  0  0
 41 42  1  0  0  0
 42 43  2  0  0  0
 43 44  1  0  0  0
 44 45  2  0  0  0
 34 35  1  0  0  0
 35 36  1  0  0  0
 35 37  2  0  0  0
 10  2  1  0  0  0
 31 26  1  0  0  0
 45 40  1  0  0  0
 10  6  2  0  0  0
 18 13  1  0  0  0
 25 20  1  0  0  0
  1 11  1  0  0  0
  1 12  1  0  0  0
 32 33  1  0  0  0
 36 38  1  0  0  0
M  END
> <minimizedAffinity>
-7.89191

> <CNNscore>
0.4883911312

> <CNNaffinity>
7.1257257462

> <CNN_VS>
3.4801411629

> <CNNaffinity_variance>
0.0474823266

$$$$
[H]OC(=O)[C@]([H])(N([H])[C@]1([H])C([H])([H])C([H])([H])[C@@]([H])(n2c([H])c(-c3c([H])c([H])c(Oc4c([H])c([H])c([H])c([H])c4[H])c([H])c3[H])c3c(N([H])[H])nc([H])nc32)C([H])([H])C1([H])[H])C([H])([H])c1c([H])c([H])c([H])c([H])c1[H]


 45 50  0  0  0  0  0  0  0  0999 V2000
  -17.3457   13.3764  -20.9220 N   0  0  0  0  0  0  0  0  0  0  0  0
  -17.5416   12.2401  -20.0788 C   0  0  0  0  0  0  0  0  0  0  0  0
  -16.8168   11.1148  -20.2755 N   0  0  0  0  0  0  0  0  0  0  0  0
  -17.0099   10.0610  -19.4702 C   0  0  0  0  0  0  0  0  0  0  0  0
  -17.9065   10.1545  -18.5045 N   0  0  0  0  0  0  0  0  0  0  0  0
  -18.6724   11.2470  -18.2434 C   0  0  0  0  0  0  0  0  0  0  0  0
  -19.6095   11.5282  -17.3255 N   0  0  0  0  0  0  0  0  0  0  0  0
  -20.0230   12.7822  -17.5444 C   0  0  0  0  0  0  0  0  0  0  0  0
  -19.3424   13.3227  -18.6239 C   0  0  0  0  0  0  0  0  0  0  0  0
  -18.4849   12.3565  -19.0728 C   0  0  0  0  0  0  0  0  0  0  0  0
  -17.8024   13.4805  -21.8383 H   0  0  0  0  0  0  0  0  0  0  0  0
  -16.6990   14.1050  -20.5442 H   0  0  0  0  0  0  0  0  0  0  0  0
  -19.5039   14.6430  -19.2216 C   0  0  0  0  0  0  0  0  0  0  0  0
  -18.7257   15.7291  -18.8630 C   0  0  0  0  0  0  0  0  0  0  0  0
  -18.9308   16.9689  -19.4549 C   0  0  0  0  0  0  0  0  0  0  0  0
  -19.9070   17.1600  -20.4097 C   0  0  0  0  0  0  0  0  0  0  0  0
  -20.6686   16.0663  -20.7499 C   0  0  0  0  0  0  0  0  0  0  0  0
  -20.4786   14.8368  -20.1760 C   0  0  0  0  0  0  0  0  0  0  0  0
  -20.1258   18.3962  -21.0126 O   0  0  0  0  0  0  0  0  0  0  0  0
  -21.2392   18.5369  -21.8290 C   0  0  0  0  0  0  0  0  0  0  0  0
  -22.4964   18.8330  -21.3484 C   0  0  0  0  0  0  0  0  0  0  0  0
  -23.5941   18.9700  -22.1744 C   0  0  0  0  0  0  0  0  0  0  0  0
  -23.3891   18.7963  -23.5288 C   0  0  0  0  0  0  0  0  0  0  0  0
  -22.1437   18.5011  -24.0173 C   0  0  0  0  0  0  0  0  0  0  0  0
  -21.0323   18.3628  -23.1850 C   0  0  0  0  0  0  0  0  0  0  0  0
  -20.0490   10.5821  -16.3212 C   0  0  0  0  0  0  0  0  0  0  0  0
  -19.0536    9.4863  -16.1549 C   0  0  0  0  0  0  0  0  0  0  0  0
  -19.1422    8.6757  -14.8938 C   0  0  0  0  0  0  0  0  0  0  0  0
  -19.8035    9.3665  -13.7352 C   0  0  0  0  0  0  0  0  0  0  0  0
  -19.5590   10.8330  -13.8910 C   0  0  0  0  0  0  0  0  0  0  0  0
  -20.2935   11.3705  -15.0610 C   0  0  0  0  0  0  0  0  0  0  0  0
  -21.1362    8.9411  -13.5830 N   0  0  0  0  0  0  0  0  0  0  0  0
  -21.7044    8.9652  -14.4857 H   0  0  0  0  0  0  0  0  0  0  0  0
  -21.3716    7.6030  -13.0689 C   0  0  0  0  0  0  0  0  0  0  0  0
  -21.1147    7.3826  -11.6637 C   0  0  0  0  0  0  0  0  0  0  0  0
  -21.3576    8.2271  -10.5913 O   0  0  0  0  0  0  0  0  0  0  0  0
  -20.5844    6.2707  -11.2702 O   0  0  0  0  0  0  0  0  0  0  0  0
  -20.6121    8.6635  -10.0369 H   0  0  0  0  0  0  0  0  0  0  0  0
  -22.5569    6.9698  -13.7037 C   0  0  0  0  0  0  0  0  0  0  0  0
  -22.3428    5.8519  -14.6277 C   0  0  0  0  0  0  0  0  0  0  0  0
  -22.3631    4.5162  -14.3145 C   0  0  0  0  0  0  0  0  0  0  0  0
  -22.1596    3.5227  -15.2425 C   0  0  0  0  0  0  0  0  0  0  0  0
  -21.9205    3.8344  -16.5589 C   0  0  0  0  0  0  0  0  0  0  0  0
  -21.8907    5.1632  -16.9191 C   0  0  0  0  0  0  0  0  0  0  0  0
  -22.0947    6.1421  -15.9848 C   0  0  0  0  0  0  0  0  0  0  0  0
  1  2  1  0  0  0
  2  3  2  0  0  0
  3  4  1  0  0  0
  4  5  2  0  0  0
  5  6  1  0  0  0
  6  7  1  0  0  0
  7  8  1  0  0  0
  8  9  2  0  0  0
  9 13  1  0  0  0
 13 14  2  0  0  0
 14 15  1  0  0  0
 15 16  2  0  0  0
 16 19  1  0  0  0
 19 20  1  0  0  0
 20 21  2  0  0  0
 21 22  1  0  0  0
 22 23  2  0  0  0
 23 24  1  0  0  0
 24 25  2  0  0  0
 16 17  1  0  0  0
 17 18  2  0  0  0
  9 10  1  0  0  0
  7 26  1  0  0  0
 26 27  1  0  0  0
 27 28  1  0  0  0
 28 29  1  0  0  0
 29 30  1  0  0  0
 30 31  1  0  0  0
 29 32  1  0  0  0
 32 34  1  0  0  0
 34 39  1  0  0  0
 39 40  1  0  0  0
 40 41  2  0  0  0
 41 42  1  0  0  0
 42 43  2  0  0  0
 43 44  1  0  0  0
 44 45  2  0  0  0
 34 35  1  0  0  0
 35 36  1  0  0  0
 35 37  2  0  0  0
 10  2  1  0  0  0
 31 26  1  0  0  0
 45 40  1  0  0  0
 10  6  2  0  0  0
 18 13  1  0  0  0
 25 20  1  0  0  0
  1 11  1  0  0  0
  1 12  1  0  0  0
 32 33  1  0  0  0
 36 38  1  0  0  0
M  END
> <minimizedAffinity>
-7.83961

> <CNNscore>
0.4769163430

> <CNNaffinity>
7.1286058426

> <CNN_VS>
3.3997485638

> <CNNaffinity_variance>
0.1516728699

$$$$
[H]OC(=O)[C@]([H])(N([H])[C@]1([H])C([H])([H])C([H])([H])[C@@]([H])(n2c([H])c(-c3c([H])c([H])c(Oc4c([H])c([H])c([H])c([H])c4[H])c([H])c3[H])c3c(N([H])[H])nc([H])nc32)C([H])([H])C1([H])[H])C([H])([H])c1c([H])c([H])c([H])c([H])c1[H]


 45 50  0  0  0  0  0  0  0  0999 V2000
  -18.0398   13.2986  -20.8732 N   0  0  0  0  0  0  0  0  0  0  0  0
  -18.0014   12.2175  -19.9404 C   0  0  0  0  0  0  0  0  0  0  0  0
  -17.2174   11.1411  -20.1795 N   0  0  0  0  0  0  0  0  0  0  0  0
  -17.1895   10.1392  -19.2896 C   0  0  0  0  0  0  0  0  0  0  0  0
  -17.9322   10.2345  -18.2013 N   0  0  0  0  0  0  0  0  0  0  0  0
  -18.7438   11.2800  -17.8902 C   0  0  0  0  0  0  0  0  0  0  0  0
  -19.5506   11.5550  -16.8542 N   0  0  0  0  0  0  0  0  0  0  0  0
  -20.1034   12.7524  -17.0822 C   0  0  0  0  0  0  0  0  0  0  0  0
  -19.6476   13.2616  -18.2878 C   0  0  0  0  0  0  0  0  0  0  0  0
  -18.7860   12.3348  -18.8063 C   0  0  0  0  0  0  0  0  0  0  0  0
  -18.6390   13.2968  -21.7098 H   0  0  0  0  0  0  0  0  0  0  0  0
  -17.4108   14.1023  -20.6493 H   0  0  0  0  0  0  0  0  0  0  0  0
  -20.0166   14.5161  -18.9333 C   0  0  0  0  0  0  0  0  0  0  0  0
  -19.2695   15.6735  -18.8057 C   0  0  0  0  0  0  0  0  0  0  0  0
  -19.6740   16.8458  -19.4316 C   0  0  0  0  0  0  0  0  0  0  0  0
  -20.8221   16.8979  -20.1933 C   0  0  0  0  0  0  0  0  0  0  0  0
  -21.5489   15.7356  -20.3055 C   0  0  0  0  0  0  0  0  0  0  0  0
  -21.1634   14.5712  -19.6950 C   0  0  0  0  0  0  0  0  0  0  0  0
  -21.2418   18.0648  -20.8271 O   0  0  0  0  0  0  0  0  0  0  0  0
  -21.9185   17.9462  -22.0329 C   0  0  0  0  0  0  0  0  0  0  0  0
  -21.3100   18.1011  -23.2597 C   0  0  0  0  0  0  0  0  0  0  0  0
  -21.9978   17.9795  -24.4505 C   0  0  0  0  0  0  0  0  0  0  0  0
  -23.3460   17.6920  -24.3730 C   0  0  0  0  0  0  0  0  0  0  0  0
  -23.9612   17.5365  -23.1589 C   0  0  0  0  0  0  0  0  0  0  0  0
  -23.2685   17.6581  -21.9537 C   0  0  0  0  0  0  0  0  0  0  0  0
  -19.7443   10.6558  -15.7358 C   0  0  0  0  0  0  0  0  0  0  0  0
  -20.0257   11.4176  -14.4868 C   0  0  0  0  0  0  0  0  0  0  0  0
  -20.6535   10.6557  -13.3551 C   0  0  0  0  0  0  0  0  0  0  0  0
  -21.4208    9.4287  -13.7586 C   0  0  0  0  0  0  0  0  0  0  0  0
  -21.9513    9.6667  -15.1358 C   0  0  0  0  0  0  0  0  0  0  0  0
  -20.8497    9.7101  -16.1269 C   0  0  0  0  0  0  0  0  0  0  0  0
  -20.6632    8.2623  -13.5451 N   0  0  0  0  0  0  0  0  0  0  0  0
  -19.6936    8.2880  -13.9894 H   0  0  0  0  0  0  0  0  0  0  0  0
  -20.3984    7.8612  -12.1743 C   0  0  0  0  0  0  0  0  0  0  0  0
  -21.4659    7.1923  -11.4656 C   0  0  0  0  0  0  0  0  0  0  0  0
  -21.9898    5.9259  -11.6747 O   0  0  0  0  0  0  0  0  0  0  0  0
  -22.0687    7.7907  -10.4905 O   0  0  0  0  0  0  0  0  0  0  0  0
  -22.9391    5.7594  -12.0279 H   0  0  0  0  0  0  0  0  0  0  0  0
  -18.9984    7.3942  -11.9978 C   0  0  0  0  0  0  0  0  0  0  0  0
  -18.1596    8.0589  -10.9961 C   0  0  0  0  0  0  0  0  0  0  0  0
  -17.0546    7.5334  -10.3752 C   0  0  0  0  0  0  0  0  0  0  0  0
  -16.3126    8.2250   -9.4476 C   0  0  0  0  0  0  0  0  0  0  0  0
  -16.6561    9.5071   -9.0933 C   0  0  0  0  0  0  0  0  0  0  0  0
  -17.7589   10.0753   -9.6911 C   0  0  0  0  0  0  0  0  0  0  0  0
  -18.4888    9.3751  -10.6129 C   0  0  0  0  0  0  0  0  0  0  0  0
  1  2  1  0  0  0
  2  3  2  0  0  0
  3  4  1  0  0  0
  4  5  2  0  0  0
  5  6  1  0  0  0
  6  7  1  0  0  0
  7  8  1  0  0  0
  8  9  2  0  0  0
  9 13  1  0  0  0
 13 14  2  0  0  0
 14 15  1  0  0  0
 15 16  2  0  0  0
 16 19  1  0  0  0
 19 20  1  0  0  0
 20 21  2  0  0  0
 21 22  1  0  0  0
 22 23  2  0  0  0
 23 24  1  0  0  0
 24 25  2  0  0  0
 16 17  1  0  0  0
 17 18  2  0  0  0
  9 10  1  0  0  0
  7 26  1  0  0  0
 26 27  1  0  0  0
 27 28  1  0  0  0
 28 29  1  0  0  0
 29 30  1  0  0  0
 30 31  1  0  0  0
 29 32  1  0  0  0
 32 34  1  0  0  0
 34 39  1  0  0  0
 39 40  1  0  0  0
 40 41  2  0  0  0
 41 42  1  0  0  0
 42 43  2  0  0  0
 43 44  1  0  0  0
 44 45  2  0  0  0
 34 35  1  0  0  0
 35 36  1  0  0  0
 35 37  2  0  0  0
 10  2  1  0  0  0
 31 26  1  0  0  0
 45 40  1  0  0  0
 10  6  2  0  0  0
 18 13  1  0  0  0
 25 20  1  0  0  0
  1 11  1  0  0  0
  1 12  1  0  0  0
 32 33  1  0  0  0
 36 38  1  0  0  0
M  END
> <minimizedAffinity>
-8.37659

> <CNNscore>
0.4738083780

> <CNNaffinity>
7.0342931747

> <CNN_VS>
3.3329069614

> <CNNaffinity_variance>
0.2035268545

$$$$
[H]c1nc(N([H])[H])c2c(-c3c([H])c([H])c(Oc4c([H])c([H])c([H])c([H])c4[H])c([H])c3[H])c([H])n([C@]3([H])C([H])([H])C([H])([H])[C@@]([H])(N4C([H])([H])C([H])([H])N(C([H])([H])[H])C([H])([H])C4([H])[H])C([H])([H])C3([H])[H])c2n1


 38 43  0  0  0  0  0  0  0  0999 V2000
  -19.0122   13.2124  -19.9648 N   0  0  0  0  0  0  0  0  0  0  0  0
  -19.6858   13.0334  -18.8397 C   0  0  0  0  0  0  0  0  0  0  0  0
  -19.2694   11.8863  -18.1892 C   0  0  0  0  0  0  0  0  0  0  0  0
  -18.2871   11.3523  -18.9817 C   0  0  0  0  0  0  0  0  0  0  0  0
  -17.5205   10.2178  -18.8523 C   0  0  0  0  0  0  0  0  0  0  0  0
  -17.6790    9.3207  -17.7284 N   0  0  0  0  0  0  0  0  0  0  0  0
  -16.6181    9.9288  -19.8086 N   0  0  0  0  0  0  0  0  0  0  0  0
  -16.4731   10.7342  -20.8666 C   0  0  0  0  0  0  0  0  0  0  0  0
  -17.2202   11.8446  -21.0011 N   0  0  0  0  0  0  0  0  0  0  0  0
  -18.1345   12.1924  -20.0908 C   0  0  0  0  0  0  0  0  0  0  0  0
  -18.5301    8.7513  -17.5898 H   0  0  0  0  0  0  0  0  0  0  0  0
  -16.8895    9.2705  -17.0536 H   0  0  0  0  0  0  0  0  0  0  0  0
  -18.9053   17.2427  -20.9952 C   0  0  0  0  0  0  0  0  0  0  0  0
  -19.9249   16.5582  -20.1478 C   0  0  0  0  0  0  0  0  0  0  0  0
  -20.3313   15.1888  -20.6170 C   0  0  0  0  0  0  0  0  0  0  0  0
  -19.1611   14.2908  -20.9157 C   0  0  0  0  0  0  0  0  0  0  0  0
  -17.8904   15.0505  -21.1515 C   0  0  0  0  0  0  0  0  0  0  0  0
  -18.2959   16.2769  -21.9877 C   0  0  0  0  0  0  0  0  0  0  0  0
  -21.1699   20.6464  -21.7612 C   0  0  0  0  0  0  0  0  0  0  0  0
  -19.9665   20.8239  -22.5136 N   0  0  0  0  0  0  0  0  0  0  0  0
  -19.7396   19.8251  -23.5199 C   0  0  0  0  0  0  0  0  0  0  0  0
  -19.6638   18.4207  -22.9596 C   0  0  0  0  0  0  0  0  0  0  0  0
  -19.3363   18.4755  -21.5675 N   0  0  0  0  0  0  0  0  0  0  0  0
  -18.3310   19.4867  -21.2874 C   0  0  0  0  0  0  0  0  0  0  0  0
  -18.8195   20.8723  -21.6441 C   0  0  0  0  0  0  0  0  0  0  0  0
  -19.8087   11.4599  -16.9040 C   0  0  0  0  0  0  0  0  0  0  0  0
  -20.3219   10.2132  -16.6560 C   0  0  0  0  0  0  0  0  0  0  0  0
  -20.8345    9.8670  -15.4247 C   0  0  0  0  0  0  0  0  0  0  0  0
  -20.8654   10.7462  -14.3631 C   0  0  0  0  0  0  0  0  0  0  0  0
  -20.3493   12.0000  -14.6106 C   0  0  0  0  0  0  0  0  0  0  0  0
  -19.8350   12.3637  -15.8287 C   0  0  0  0  0  0  0  0  0  0  0  0
  -21.3607   10.4636  -13.1174 O   0  0  0  0  0  0  0  0  0  0  0  0
  -20.7051   10.5935  -11.9352 C   0  0  0  0  0  0  0  0  0  0  0  0
  -19.5460    9.9050  -11.6841 C   0  0  0  0  0  0  0  0  0  0  0  0
  -18.9186   10.0669  -10.4772 C   0  0  0  0  0  0  0  0  0  0  0  0
  -19.4134   10.9026   -9.4992 C   0  0  0  0  0  0  0  0  0  0  0  0
  -20.5778   11.5943   -9.7522 C   0  0  0  0  0  0  0  0  0  0  0  0
  -21.2031   11.4280  -10.9643 C   0  0  0  0  0  0  0  0  0  0  0  0
 19 20  1  0  0  0
 20 21  1  0  0  0
 21 22  1  0  0  0
 22 23  1  0  0  0
 23 24  1  0  0  0
 24 25  1  0  0  0
 23 13  1  0  0  0
 13 14  1  0  0  0
 14 15  1  0  0  0
 15 16  1  0  0  0
 16 17  1  0  0  0
 17 18  1  0  0  0
 16  1  1  0  0  0
  1  2  1  0  0  0
  2  3  2  0  0  0
  3 26  1  0  0  0
 26 27  2  0  0  0
 27 28  1  0  0  0
 28 29  2  0  0  0
 29 32  1  0  0  0
 32 33  1  0  0  0
 33 34  2  0  0  0
 34 35  1  0  0  0
 35 36  2  0  0  0
 36 37  1  0  0  0
 37 38  2  0  0  0
 29 30  1  0  0  0
 30 31  2  0  0  0
  3  4  1  0  0  0
  4  5  2  0  0  0
  5  6  1  0  0  0
  5  7  1  0  0  0
  7  8  2  0  0  0
  8  9  1  0  0  0
  9 10  2  0  0  0
 25 20  1  0  0  0
 18 13  1  0  0  0
 10  1  1  0  0  0
 31 26  1  0  0  0
 10  4  1  0  0  0
 38 33  1  0  0  0
  6 11  1  0  0  0
  6 12  1  0  0  0
M  END
> <minimizedAffinity>
-8.59674

> <CNNscore>
0.6478658319

> <CNNaffinity>
7.2089095116

> <CNN_VS>
4.6704063416

> <CNNaffinity_variance>
0.1307498068

$$$$
[H]c1nc(N([H])[H])c2c(-c3c([H])c([H])c(Oc4c([H])c([H])c([H])c([H])c4[H])c([H])c3[H])c([H])n([C@]3([H])C([H])([H])C([H])([H])[C@@]([H])(N4C([H])([H])C([H])([H])N(C([H])([H])[H])C([H])([H])C4([H])[H])C([H])([H])C3([H])[H])c2n1


 38 43  0  0  0  0  0  0  0  0999 V2000
  -18.8768   11.1844  -17.6655 N   0  0  0  0  0  0  0  0  0  0  0  0
  -19.5147   12.3363  -17.7982 C   0  0  0  0  0  0  0  0  0  0  0  0
  -19.1491   12.9739  -18.9697 C   0  0  0  0  0  0  0  0  0  0  0  0
  -18.2353   12.1458  -19.5672 C   0  0  0  0  0  0  0  0  0  0  0  0
  -17.5244   12.2589  -20.7392 C   0  0  0  0  0  0  0  0  0  0  0  0
  -17.6554   13.4175  -21.5956 N   0  0  0  0  0  0  0  0  0  0  0  0
  -16.6715   11.2751  -21.0813 N   0  0  0  0  0  0  0  0  0  0  0  0
  -16.5200   10.2068  -20.2908 C   0  0  0  0  0  0  0  0  0  0  0  0
  -17.2104   10.0897  -19.1424 N   0  0  0  0  0  0  0  0  0  0  0  0
  -18.0734   11.0275  -18.7410 C   0  0  0  0  0  0  0  0  0  0  0  0
  -17.3241   14.3549  -21.3140 H   0  0  0  0  0  0  0  0  0  0  0  0
  -18.1039   13.2677  -22.5216 H   0  0  0  0  0  0  0  0  0  0  0  0
  -20.9327    8.2502  -15.5488 C   0  0  0  0  0  0  0  0  0  0  0  0
  -21.2388    9.7100  -15.5900 C   0  0  0  0  0  0  0  0  0  0  0  0
  -20.0390   10.6158  -15.5685 C   0  0  0  0  0  0  0  0  0  0  0  0
  -18.9900   10.2375  -16.5792 C   0  0  0  0  0  0  0  0  0  0  0  0
  -19.1150    8.8175  -17.0435 C   0  0  0  0  0  0  0  0  0  0  0  0
  -19.4585    8.0038  -15.7835 C   0  0  0  0  0  0  0  0  0  0  0  0
  -22.4843    5.2135  -13.1674 C   0  0  0  0  0  0  0  0  0  0  0  0
  -22.2605    6.3081  -12.2745 N   0  0  0  0  0  0  0  0  0  0  0  0
  -23.0165    7.4904  -12.5791 C   0  0  0  0  0  0  0  0  0  0  0  0
  -22.7396    8.0345  -13.9645 C   0  0  0  0  0  0  0  0  0  0  0  0
  -21.4693    7.5602  -14.4223 N   0  0  0  0  0  0  0  0  0  0  0  0
  -20.4744    7.5695  -13.3632 C   0  0  0  0  0  0  0  0  0  0  0  0
  -20.8633    6.6534  -12.2251 C   0  0  0  0  0  0  0  0  0  0  0  0
  -19.7229   14.2438  -19.3970 C   0  0  0  0  0  0  0  0  0  0  0  0
  -19.0802   15.4514  -19.3090 C   0  0  0  0  0  0  0  0  0  0  0  0
  -19.6759   16.6261  -19.7138 C   0  0  0  0  0  0  0  0  0  0  0  0
  -20.9525   16.6669  -20.2330 C   0  0  0  0  0  0  0  0  0  0  0  0
  -21.6000   15.4535  -20.3227 C   0  0  0  0  0  0  0  0  0  0  0  0
  -21.0244   14.2740  -19.9251 C   0  0  0  0  0  0  0  0  0  0  0  0
  -21.5992   17.7996  -20.6520 O   0  0  0  0  0  0  0  0  0  0  0  0
  -22.0569   18.0560  -21.9047 C   0  0  0  0  0  0  0  0  0  0  0  0
  -23.3653   17.8271  -22.2457 C   0  0  0  0  0  0  0  0  0  0  0  0
  -23.7828   18.1003  -23.5214 C   0  0  0  0  0  0  0  0  0  0  0  0
  -22.9298   18.6007  -24.4814 C   0  0  0  0  0  0  0  0  0  0  0  0
  -21.6154   18.8308  -24.1380 C   0  0  0  0  0  0  0  0  0  0  0  0
  -21.2019   18.5547  -22.8572 C   0  0  0  0  0  0  0  0  0  0  0  0
 19 20  1  0  0  0
 20 21  1  0  0  0
 21 22  1  0  0  0
 22 23  1  0  0  0
 23 24  1  0  0  0
 24 25  1  0  0  0
 23 13  1  0  0  0
 13 14  1  0  0  0
 14 15  1  0  0  0
 15 16  1  0  0  0
 16 17  1  0  0  0
 17 18  1  0  0  0
 16  1  1  0  0  0
  1  2  1  0  0  0
  2  3  2  0  0  0
  3 26  1  0  0  0
 26 27  2  0  0  0
 27 28  1  0  0  0
 28 29  2  0  0  0
 29 32  1  0  0  0
 32 33  1  0  0  0
 33 34  2  0  0  0
 34 35  1  0  0  0
 35 36  2  0  0  0
 36 37  1  0  0  0
 37 38  2  0  0  0
 29 30  1  0  0  0
 30 31  2  0  0  0
  3  4  1  0  0  0
  4  5  2  0  0  0
  5  6  1  0  0  0
  5  7  1  0  0  0
  7  8  2  0  0  0
  8  9  1  0  0  0
  9 10  2  0  0  0
 25 20  1  0  0  0
 18 13  1  0  0  0
 10  1  1  0  0  0
 31 26  1  0  0  0
 10  4  1  0  0  0
 38 33  1  0  0  0
  6 11  1  0  0  0
  6 12  1  0  0  0
M  END
> <minimizedAffinity>
-8.30155

> <CNNscore>
0.6197085381

> <CNNaffinity>
7.1853699684

> <CNN_VS>
4.4528350830

> <CNNaffinity_variance>
0.2103767842

$$$$
[H]c1nc(N([H])[H])c2c(-c3c([H])c([H])c(Oc4c([H])c([H])c([H])c([H])c4[H])c([H])c3[H])c([H])n([C@]3([H])C([H])([H])C([H])([H])[C@@]([H])(N4C([H])([H])C([H])([H])N(C([H])([H])[H])C([H])([H])C4([H])[H])C([H])([H])C3([H])[H])c2n1


 38 43  0  0  0  0  0  0  0  0999 V2000
  -19.4987   13.1766  -19.2789 N   0  0  0  0  0  0  0  0  0  0  0  0
  -20.1192   12.9237  -18.1376 C   0  0  0  0  0  0  0  0  0  0  0  0
  -19.6469   11.7576  -17.5637 C   0  0  0  0  0  0  0  0  0  0  0  0
  -18.6861   11.2904  -18.4220 C   0  0  0  0  0  0  0  0  0  0  0  0
  -17.8864   10.1721  -18.3819 C   0  0  0  0  0  0  0  0  0  0  0  0
  -17.9746    9.2165  -17.2993 N   0  0  0  0  0  0  0  0  0  0  0  0
  -17.0185    9.9555  -19.3880 N   0  0  0  0  0  0  0  0  0  0  0  0
  -16.9389   10.8160  -20.4089 C   0  0  0  0  0  0  0  0  0  0  0  0
  -17.7186   11.9109  -20.4561 N   0  0  0  0  0  0  0  0  0  0  0  0
  -18.6018   12.1883  -19.4925 C   0  0  0  0  0  0  0  0  0  0  0  0
  -18.8044    8.6181  -17.1548 H   0  0  0  0  0  0  0  0  0  0  0  0
  -17.1561    9.1544  -16.6610 H   0  0  0  0  0  0  0  0  0  0  0  0
  -20.2329   17.2096  -19.9945 C   0  0  0  0  0  0  0  0  0  0  0  0
  -21.1960   16.2007  -19.4645 C   0  0  0  0  0  0  0  0  0  0  0  0
  -21.1159   14.8425  -20.1042 C   0  0  0  0  0  0  0  0  0  0  0  0
  -19.7149   14.2963  -20.1671 C   0  0  0  0  0  0  0  0  0  0  0  0
  -18.6688   15.3625  -20.0393 C   0  0  0  0  0  0  0  0  0  0  0  0
  -19.1901   16.5488  -20.8692 C   0  0  0  0  0  0  0  0  0  0  0  0
  -21.4246   20.0354  -22.8043 C   0  0  0  0  0  0  0  0  0  0  0  0
  -22.1287   20.3810  -21.6083 N   0  0  0  0  0  0  0  0  0  0  0  0
  -21.2856   20.7276  -20.4989 C   0  0  0  0  0  0  0  0  0  0  0  0
  -20.3349   19.6178  -20.1031 C   0  0  0  0  0  0  0  0  0  0  0  0
  -20.8373   18.3634  -20.5746 N   0  0  0  0  0  0  0  0  0  0  0  0
  -22.2770   18.2595  -20.4067 C   0  0  0  0  0  0  0  0  0  0  0  0
  -23.0088   19.3151  -21.2042 C   0  0  0  0  0  0  0  0  0  0  0  0
  -20.1203   11.2535  -16.2807 C   0  0  0  0  0  0  0  0  0  0  0  0
  -19.7476   11.7638  -15.0642 C   0  0  0  0  0  0  0  0  0  0  0  0
  -20.2139   11.2382  -13.8788 C   0  0  0  0  0  0  0  0  0  0  0  0
  -21.0832   10.1690  -13.8354 C   0  0  0  0  0  0  0  0  0  0  0  0
  -21.4593    9.6550  -15.0578 C   0  0  0  0  0  0  0  0  0  0  0  0
  -21.0064   10.1637  -16.2480 C   0  0  0  0  0  0  0  0  0  0  0  0
  -21.5815    9.6017  -12.6924 O   0  0  0  0  0  0  0  0  0  0  0  0
  -21.4366    8.3102  -12.2980 C   0  0  0  0  0  0  0  0  0  0  0  0
  -20.2009    7.7848  -12.0196 C   0  0  0  0  0  0  0  0  0  0  0  0
  -20.1025    6.4767  -11.6251 C   0  0  0  0  0  0  0  0  0  0  0  0
  -21.2081    5.6638  -11.4967 C   0  0  0  0  0  0  0  0  0  0  0  0
  -22.4494    6.1924  -11.7762 C   0  0  0  0  0  0  0  0  0  0  0  0
  -22.5423    7.5049  -12.1718 C   0  0  0  0  0  0  0  0  0  0  0  0
 19 20  1  0  0  0
 20 21  1  0  0  0
 21 22  1  0  0  0
 22 23  1  0  0  0
 23 24  1  0  0  0
 24 25  1  0  0  0
 23 13  1  0  0  0
 13 14  1  0  0  0
 14 15  1  0  0  0
 15 16  1  0  0  0
 16 17  1  0  0  0
 17 18  1  0  0  0
 16  1  1  0  0  0
  1  2  1  0  0  0
  2  3  2  0  0  0
  3 26  1  0  0  0
 26 27  2  0  0  0
 27 28  1  0  0  0
 28 29  2  0  0  0
 29 32  1  0  0  0
 32 33  1  0  0  0
 33 34  2  0  0  0
 34 35  1  0  0  0
 35 36  2  0  0  0
 36 37  1  0  0  0
 37 38  2  0  0  0
 29 30  1  0  0  0
 30 31  2  0  0  0
  3  4  1  0  0  0
  4  5  2  0  0  0
  5  6  1  0  0  0
  5  7  1  0  0  0
  7  8  2  0  0  0
  8  9  1  0  0  0
  9 10  2  0  0  0
 25 20  1  0  0  0
 18 13  1  0  0  0
 10  1  1  0  0  0
 31 26  1  0  0  0
 10  4  1  0  0  0
 38 33  1  0  0  0
  6 11  1  0  0  0
  6 12  1  0  0  0
M  END
> <minimizedAffinity>
-7.30534

> <CNNscore>
0.4587015510

> <CNNaffinity>
6.9082994461

> <CNN_VS>
3.1688475609

> <CNNaffinity_variance>
0.1123501062

$$$$
[H]c1nc(N([H])[H])c2c(-c3c([H])c([H])c(Oc4c([H])c([H])c([H])c([H])c4[H])c([H])c3[H])c([H])n([C@]3([H])C([H])([H])C([H])([H])[C@@]([H])(N4C([H])([H])C([H])([H])N(C([H])([H])[H])C([H])([H])C4([H])[H])C([H])([H])C3([H])[H])c2n1


 38 43  0  0  0  0  0  0  0  0999 V2000
  -19.8771   11.2753  -17.0534 N   0  0  0  0  0  0  0  0  0  0  0  0
  -20.3655   12.4810  -17.2970 C   0  0  0  0  0  0  0  0  0  0  0  0
  -19.7004   13.0823  -18.3499 C   0  0  0  0  0  0  0  0  0  0  0  0
  -18.7573   12.1737  -18.7537 C   0  0  0  0  0  0  0  0  0  0  0  0
  -17.8034   12.2210  -19.7434 C   0  0  0  0  0  0  0  0  0  0  0  0
  -17.6424   13.3867  -20.5849 N   0  0  0  0  0  0  0  0  0  0  0  0
  -16.9886   11.1630  -19.9140 N   0  0  0  0  0  0  0  0  0  0  0  0
  -17.1074   10.0853  -19.1306 C   0  0  0  0  0  0  0  0  0  0  0  0
  -18.0367   10.0322  -18.1596 N   0  0  0  0  0  0  0  0  0  0  0  0
  -18.8782   11.0453  -17.9343 C   0  0  0  0  0  0  0  0  0  0  0  0
  -17.2969   14.2897  -20.2203 H   0  0  0  0  0  0  0  0  0  0  0  0
  -17.8924   13.2787  -21.5884 H   0  0  0  0  0  0  0  0  0  0  0  0
  -21.8228   10.3661  -13.4891 C   0  0  0  0  0  0  0  0  0  0  0  0
  -20.5283   11.0912  -13.6471 C   0  0  0  0  0  0  0  0  0  0  0  0
  -19.6176   10.5487  -14.7133 C   0  0  0  0  0  0  0  0  0  0  0  0
  -20.3061   10.3429  -16.0356 C   0  0  0  0  0  0  0  0  0  0  0  0
  -21.7971   10.2529  -15.9071 C   0  0  0  0  0  0  0  0  0  0  0  0
  -22.0489    9.4133  -14.6424 C   0  0  0  0  0  0  0  0  0  0  0  0
  -23.6880    8.5625  -10.2383 C   0  0  0  0  0  0  0  0  0  0  0  0
  -22.2948    8.5609   -9.9149 N   0  0  0  0  0  0  0  0  0  0  0  0
  -21.7036    9.8659   -9.8183 C   0  0  0  0  0  0  0  0  0  0  0  0
  -21.8223   10.6701  -11.0955 C   0  0  0  0  0  0  0  0  0  0  0  0
  -22.0283    9.7868  -12.2025 N   0  0  0  0  0  0  0  0  0  0  0  0
  -21.2071    8.5921  -12.1018 C   0  0  0  0  0  0  0  0  0  0  0  0
  -21.5468    7.7845  -10.8697 C   0  0  0  0  0  0  0  0  0  0  0  0
  -20.0524   14.3994  -18.8652 C   0  0  0  0  0  0  0  0  0  0  0  0
  -19.4577   15.5692  -18.4687 C   0  0  0  0  0  0  0  0  0  0  0  0
  -19.8405   16.7912  -18.9775 C   0  0  0  0  0  0  0  0  0  0  0  0
  -20.8422   16.9203  -19.9160 C   0  0  0  0  0  0  0  0  0  0  0  0
  -21.4408   15.7450  -20.3162 C   0  0  0  0  0  0  0  0  0  0  0  0
  -21.0744   14.5196  -19.8217 C   0  0  0  0  0  0  0  0  0  0  0  0
  -21.2682   18.1035  -20.4592 O   0  0  0  0  0  0  0  0  0  0  0  0
  -21.7731   18.2883  -21.7064 C   0  0  0  0  0  0  0  0  0  0  0  0
  -20.9540   18.3503  -22.8044 C   0  0  0  0  0  0  0  0  0  0  0  0
  -21.5074   18.5381  -24.0434 C   0  0  0  0  0  0  0  0  0  0  0  0
  -22.8671   18.6678  -24.2277 C   0  0  0  0  0  0  0  0  0  0  0  0
  -23.6895   18.6052  -23.1240 C   0  0  0  0  0  0  0  0  0  0  0  0
  -23.1292   18.4169  -21.8838 C   0  0  0  0  0  0  0  0  0  0  0  0
 19 20  1  0  0  0
 20 21  1  0  0  0
 21 22  1  0  0  0
 22 23  1  0  0  0
 23 24  1  0  0  0
 24 25  1  0  0  0
 23 13  1  0  0  0
 13 14  1  0  0  0
 14 15  1  0  0  0
 15 16  1  0  0  0
 16 17  1  0  0  0
 17 18  1  0  0  0
 16  1  1  0  0  0
  1  2  1  0  0  0
  2  3  2  0  0  0
  3 26  1  0  0  0
 26 27  2  0  0  0
 27 28  1  0  0  0
 28 29  2  0  0  0
 29 32  1  0  0  0
 32 33  1  0  0  0
 33 34  2  0  0  0
 34 35  1  0  0  0
 35 36  2  0  0  0
 36 37  1  0  0  0
 37 38  2  0  0  0
 29 30  1  0  0  0
 30 31  2  0  0  0
  3  4  1  0  0  0
  4  5  2  0  0  0
  5  6  1  0  0  0
  5  7  1  0  0  0
  7  8  2  0  0  0
  8  9  1  0  0  0
  9 10  2  0  0  0
 25 20  1  0  0  0
 18 13  1  0  0  0
 10  1  1  0  0  0
 31 26  1  0  0  0
 10  4  1  0  0  0
 38 33  1  0  0  0
  6 11  1  0  0  0
  6 12  1  0  0  0
M  END
> <minimizedAffinity>
-7.47098

> <CNNscore>
0.4397968650

> <CNNaffinity>
6.7936606407

> <CNN_VS>
2.9878306389

> <CNNaffinity_variance>
0.0934443846

$$$$
[H]c1nc(N([H])[H])c2c(-c3c([H])c([H])c(Oc4c([H])c([H])c([H])c([H])c4[H])c([H])c3[H])c([H])n([C@]3([H])C([H])([H])C([H])([H])[C@@]([H])(N4C([H])([H])C([H])([H])N(C([H])([H])[H])C([H])([H])C4([H])[H])C([H])([H])C3([H])[H])c2n1


 38 43  0  0  0  0  0  0  0  0999 V2000
  -19.9615   11.5760  -16.8282 N   0  0  0  0  0  0  0  0  0  0  0  0
  -20.4034   12.7783  -17.1608 C   0  0  0  0  0  0  0  0  0  0  0  0
  -19.7775   13.2382  -18.3049 C   0  0  0  0  0  0  0  0  0  0  0  0
  -18.9086   12.2439  -18.6714 C   0  0  0  0  0  0  0  0  0  0  0  0
  -18.0183   12.1431  -19.7150 C   0  0  0  0  0  0  0  0  0  0  0  0
  -17.8531   13.2124  -20.6754 N   0  0  0  0  0  0  0  0  0  0  0  0
  -17.2699   11.0298  -19.8276 N   0  0  0  0  0  0  0  0  0  0  0  0
  -17.3924   10.0401  -18.9361 C   0  0  0  0  0  0  0  0  0  0  0  0
  -18.2595   10.1320  -17.9120 N   0  0  0  0  0  0  0  0  0  0  0  0
  -19.0334   11.2074  -17.7390 C   0  0  0  0  0  0  0  0  0  0  0  0
  -17.4404   14.1253  -20.4226 H   0  0  0  0  0  0  0  0  0  0  0  0
  -18.1715   13.0232  -21.6470 H   0  0  0  0  0  0  0  0  0  0  0  0
  -19.1501    8.9654  -13.6908 C   0  0  0  0  0  0  0  0  0  0  0  0
  -19.1433    8.6483  -15.1488 C   0  0  0  0  0  0  0  0  0  0  0  0
  -20.2422    9.2916  -15.9482 C   0  0  0  0  0  0  0  0  0  0  0  0
  -20.3709   10.7704  -15.7000 C   0  0  0  0  0  0  0  0  0  0  0  0
  -19.7432   11.2001  -14.4082 C   0  0  0  0  0  0  0  0  0  0  0  0
  -20.1037   10.1016  -13.3928 C   0  0  0  0  0  0  0  0  0  0  0  0
  -18.2338    5.8072  -11.1441 C   0  0  0  0  0  0  0  0  0  0  0  0
  -19.6613    5.8950  -11.1282 N   0  0  0  0  0  0  0  0  0  0  0  0
  -20.2862    5.6807  -12.4031 C   0  0  0  0  0  0  0  0  0  0  0  0
  -19.8316    6.6622  -13.4624 C   0  0  0  0  0  0  0  0  0  0  0  0
  -19.3016    7.8346  -12.8356 N   0  0  0  0  0  0  0  0  0  0  0  0
  -20.0897    8.2351  -11.6823 C   0  0  0  0  0  0  0  0  0  0  0  0
  -20.0918    7.1682  -10.6110 C   0  0  0  0  0  0  0  0  0  0  0  0
  -20.0952   14.5178  -18.9262 C   0  0  0  0  0  0  0  0  0  0  0  0
  -21.1404   14.7198  -19.7898 C   0  0  0  0  0  0  0  0  0  0  0  0
  -21.3868   15.9489  -20.3621 C   0  0  0  0  0  0  0  0  0  0  0  0
  -20.6032   17.0540  -20.1062 C   0  0  0  0  0  0  0  0  0  0  0  0
  -19.5521   16.8527  -19.2376 C   0  0  0  0  0  0  0  0  0  0  0  0
  -19.2903   15.6377  -18.6581 C   0  0  0  0  0  0  0  0  0  0  0  0
  -20.7951   18.2999  -20.6424 O   0  0  0  0  0  0  0  0  0  0  0  0
  -21.5512   18.6084  -21.7276 C   0  0  0  0  0  0  0  0  0  0  0  0
  -21.0921   18.3898  -23.0011 C   0  0  0  0  0  0  0  0  0  0  0  0
  -21.8893   18.7163  -24.0661 C   0  0  0  0  0  0  0  0  0  0  0  0
  -23.1452   19.2604  -23.9029 C   0  0  0  0  0  0  0  0  0  0  0  0
  -23.6060   19.4794  -22.6231 C   0  0  0  0  0  0  0  0  0  0  0  0
  -22.8021   19.1503  -21.5586 C   0  0  0  0  0  0  0  0  0  0  0  0
 19 20  1  0  0  0
 20 21  1  0  0  0
 21 22  1  0  0  0
 22 23  1  0  0  0
 23 24  1  0  0  0
 24 25  1  0  0  0
 23 13  1  0  0  0
 13 14  1  0  0  0
 14 15  1  0  0  0
 15 16  1  0  0  0
 16 17  1  0  0  0
 17 18  1  0  0  0
 16  1  1  0  0  0
  1  2  1  0  0  0
  2  3  2  0  0  0
  3 26  1  0  0  0
 26 27  2  0  0  0
 27 28  1  0  0  0
 28 29  2  0  0  0
 29 32  1  0  0  0
 32 33  1  0  0  0
 33 34  2  0  0  0
 34 35  1  0  0  0
 35 36  2  0  0  0
 36 37  1  0  0  0
 37 38  2  0  0  0
 29 30  1  0  0  0
 30 31  2  0  0  0
  3  4  1  0  0  0
  4  5  2  0  0  0
  5  6  1  0  0  0
  5  7  1  0  0  0
  7  8  2  0  0  0
  8  9  1  0  0  0
  9 10  2  0  0  0
 25 20  1  0  0  0
 18 13  1  0  0  0
 10  1  1  0  0  0
 31 26  1  0  0  0
 10  4  1  0  0  0
 38 33  1  0  0  0
  6 11  1  0  0  0
  6 12  1  0  0  0
M  END
> <minimizedAffinity>
-7.78850

> <CNNscore>
0.4010871053

> <CNNaffinity>
6.8122696877

> <CNN_VS>
2.7323136330

> <CNNaffinity_variance>
0.0642472506

$$$$
[H]c1nc(N([H])[H])c2c(-c3c([H])c([H])c(Oc4c([H])c([H])c([H])c([H])c4[H])c([H])c3[H])c([H])n([C@]3([H])C([H])([H])C([H])([H])[C@@]([H])(N4C([H])([H])C([H])([H])N(C([H])([H])[H])C([H])([H])C4([H])[H])C([H])([H])C3([H])[H])c2n1


 38 43  0  0  0  0  0  0  0  0999 V2000
  -20.0826   13.6504  -18.5729 N   0  0  0  0  0  0  0  0  0  0  0  0
  -19.4015   14.1396  -19.5968 C   0  0  0  0  0  0  0  0  0  0  0  0
  -18.3823   13.2826  -19.9697 C   0  0  0  0  0  0  0  0  0  0  0  0
  -18.4656   12.2189  -19.1098 C   0  0  0  0  0  0  0  0  0  0  0  0
  -17.7134   11.0733  -18.9930 C   0  0  0  0  0  0  0  0  0  0  0  0
  -16.5873   10.8148  -19.8637 N   0  0  0  0  0  0  0  0  0  0  0  0
  -18.0237   10.1856  -18.0297 N   0  0  0  0  0  0  0  0  0  0  0  0
  -19.0473   10.4182  -17.2006 C   0  0  0  0  0  0  0  0  0  0  0  0
  -19.7865   11.5368  -17.3074 N   0  0  0  0  0  0  0  0  0  0  0  0
  -19.5351   12.4605  -18.2397 C   0  0  0  0  0  0  0  0  0  0  0  0
  -15.7209   11.3770  -19.8306 H   0  0  0  0  0  0  0  0  0  0  0  0
  -16.6854   10.0276  -20.5358 H   0  0  0  0  0  0  0  0  0  0  0  0
  -21.8820   16.7655  -16.4812 C   0  0  0  0  0  0  0  0  0  0  0  0
  -20.8514   15.8159  -15.9689 C   0  0  0  0  0  0  0  0  0  0  0  0
  -21.0170   14.3900  -16.4162 C   0  0  0  0  0  0  0  0  0  0  0  0
  -21.2129   14.2517  -17.9020 C   0  0  0  0  0  0  0  0  0  0  0  0
  -21.6764   15.5225  -18.5483 C   0  0  0  0  0  0  0  0  0  0  0  0
  -22.7061   16.1242  -17.5760 C   0  0  0  0  0  0  0  0  0  0  0  0
  -25.1434   18.1406  -14.2967 C   0  0  0  0  0  0  0  0  0  0  0  0
  -24.0021   18.4403  -13.4885 N   0  0  0  0  0  0  0  0  0  0  0  0
  -23.0633   19.3427  -14.0935 C   0  0  0  0  0  0  0  0  0  0  0  0
  -22.5076   18.8331  -15.4063 C   0  0  0  0  0  0  0  0  0  0  0  0
  -22.6530   17.4107  -15.4701 N   0  0  0  0  0  0  0  0  0  0  0  0
  -22.3570   16.7788  -14.1954 C   0  0  0  0  0  0  0  0  0  0  0  0
  -23.3082   17.2356  -13.1127 C   0  0  0  0  0  0  0  0  0  0  0  0
  -17.4938   13.5448  -21.0950 C   0  0  0  0  0  0  0  0  0  0  0  0
  -16.8490   14.7352  -21.3101 C   0  0  0  0  0  0  0  0  0  0  0  0
  -16.0310   14.9351  -22.4008 C   0  0  0  0  0  0  0  0  0  0  0  0
  -15.8058   13.9562  -23.3453 C   0  0  0  0  0  0  0  0  0  0  0  0
  -16.4530   12.7585  -23.1302 C   0  0  0  0  0  0  0  0  0  0  0  0
  -17.2709   12.5401  -22.0514 C   0  0  0  0  0  0  0  0  0  0  0  0
  -15.0060   14.0924  -24.4492 O   0  0  0  0  0  0  0  0  0  0  0  0
  -15.3984   14.4689  -25.6937 C   0  0  0  0  0  0  0  0  0  0  0  0
  -14.7193   15.4329  -26.3936 C   0  0  0  0  0  0  0  0  0  0  0  0
  -15.1512   15.7809  -27.6461 C   0  0  0  0  0  0  0  0  0  0  0  0
  -16.2513   15.1931  -28.2326 C   0  0  0  0  0  0  0  0  0  0  0  0
  -16.9331   14.2243  -27.5289 C   0  0  0  0  0  0  0  0  0  0  0  0
  -16.4956   13.8793  -26.2730 C   0  0  0  0  0  0  0  0  0  0  0  0
 19 20  1  0  0  0
 20 21  1  0  0  0
 21 22  1  0  0  0
 22 23  1  0  0  0
 23 24  1  0  0  0
 24 25  1  0  0  0
 23 13  1  0  0  0
 13 14  1  0  0  0
 14 15  1  0  0  0
 15 16  1  0  0  0
 16 17  1  0  0  0
 17 18  1  0  0  0
 16  1  1  0  0  0
  1  2  1  0  0  0
  2  3  2  0  0  0
  3 26  1  0  0  0
 26 27  2  0  0  0
 27 28  1  0  0  0
 28 29  2  0  0  0
 29 32  1  0  0  0
 32 33  1  0  0  0
 33 34  2  0  0  0
 34 35  1  0  0  0
 35 36  2  0  0  0
 36 37  1  0  0  0
 37 38  2  0  0  0
 29 30  1  0  0  0
 30 31  2  0  0  0
  3  4  1  0  0  0
  4  5  2  0  0  0
  5  6  1  0  0  0
  5  7  1  0  0  0
  7  8  2  0  0  0
  8  9  1  0  0  0
  9 10  2  0  0  0
 25 20  1  0  0  0
 18 13  1  0  0  0
 10  1  1  0  0  0
 31 26  1  0  0  0
 10  4  1  0  0  0
 38 33  1  0  0  0
  6 11  1  0  0  0
  6 12  1  0  0  0
M  END
> <minimizedAffinity>
-9.18789

> <CNNscore>
0.3568182886

> <CNNaffinity>
7.0200614929

> <CNN_VS>
2.5048863888

> <CNNaffinity_variance>
0.2402066737

$$$$
[H]c1nc(N([H])[H])c2c(-c3c([H])c([H])c(Oc4c([H])c([H])c([H])c([H])c4[H])c([H])c3[H])c([H])n([C@]3([H])C([H])([H])C([H])([H])[C@@]([H])(N4C([H])([H])C([H])([H])N(C([H])([H])[H])C([H])([H])C4([H])[H])C([H])([H])C3([H])[H])c2n1


 38 43  0  0  0  0  0  0  0  0999 V2000
  -18.6723   13.4594  -18.6363 N   0  0  0  0  0  0  0  0  0  0  0  0
  -19.5166   13.2530  -17.6383 C   0  0  0  0  0  0  0  0  0  0  0  0
  -19.4939   11.9306  -17.2344 C   0  0  0  0  0  0  0  0  0  0  0  0
  -18.5779   11.3156  -18.0472 C   0  0  0  0  0  0  0  0  0  0  0  0
  -18.1451   10.0120  -18.1186 C   0  0  0  0  0  0  0  0  0  0  0  0
  -18.6756    8.9889  -17.2440 N   0  0  0  0  0  0  0  0  0  0  0  0
  -17.2218    9.6817  -19.0409 N   0  0  0  0  0  0  0  0  0  0  0  0
  -16.7363   10.6093  -19.8735 C   0  0  0  0  0  0  0  0  0  0  0  0
  -17.1557   11.8857  -19.8109 N   0  0  0  0  0  0  0  0  0  0  0  0
  -18.0693   12.2838  -18.9208 C   0  0  0  0  0  0  0  0  0  0  0  0
  -19.6528    8.6591  -17.3062 H   0  0  0  0  0  0  0  0  0  0  0  0
  -18.0238    8.5916  -16.5379 H   0  0  0  0  0  0  0  0  0  0  0  0
  -19.8348   17.2190  -19.9894 C   0  0  0  0  0  0  0  0  0  0  0  0
  -20.2758   15.8963  -20.5207 C   0  0  0  0  0  0  0  0  0  0  0  0
  -19.2002   14.8488  -20.6015 C   0  0  0  0  0  0  0  0  0  0  0  0
  -18.4147   14.7033  -19.3261 C   0  0  0  0  0  0  0  0  0  0  0  0
  -18.5217   15.9055  -18.4368 C   0  0  0  0  0  0  0  0  0  0  0  0
  -18.4536   17.1194  -19.3799 C   0  0  0  0  0  0  0  0  0  0  0  0
  -20.9940   20.8949  -21.5525 C   0  0  0  0  0  0  0  0  0  0  0  0
  -20.0942   20.3471  -22.5199 N   0  0  0  0  0  0  0  0  0  0  0  0
  -20.5269   19.1080  -23.1024 C   0  0  0  0  0  0  0  0  0  0  0  0
  -20.7403   18.0114  -22.0807 C   0  0  0  0  0  0  0  0  0  0  0  0
  -19.9982   18.3091  -20.8938 N   0  0  0  0  0  0  0  0  0  0  0  0
  -18.6852   18.8522  -21.1982 C   0  0  0  0  0  0  0  0  0  0  0  0
  -18.7837   20.1583  -21.9534 C   0  0  0  0  0  0  0  0  0  0  0  0
  -20.2935   11.4230  -16.1266 C   0  0  0  0  0  0  0  0  0  0  0  0
  -21.5120   10.8114  -16.2689 C   0  0  0  0  0  0  0  0  0  0  0  0
  -22.2345   10.3634  -15.1844 C   0  0  0  0  0  0  0  0  0  0  0  0
  -21.7833   10.4984  -13.8887 C   0  0  0  0  0  0  0  0  0  0  0  0
  -20.5579   11.1127  -13.7439 C   0  0  0  0  0  0  0  0  0  0  0  0
  -19.8240   11.5654  -14.8101 C   0  0  0  0  0  0  0  0  0  0  0  0
  -22.4527   10.0754  -12.7708 O   0  0  0  0  0  0  0  0  0  0  0  0
  -23.7975    9.9477  -12.6303 C   0  0  0  0  0  0  0  0  0  0  0  0
  -24.6056   11.0455  -12.4816 C   0  0  0  0  0  0  0  0  0  0  0  0
  -25.9569   10.8689  -12.3431 C   0  0  0  0  0  0  0  0  0  0  0  0
  -26.5379    9.6190  -12.3478 C   0  0  0  0  0  0  0  0  0  0  0  0
  -25.7254    8.5164  -12.4976 C   0  0  0  0  0  0  0  0  0  0  0  0
  -24.3707    8.6993  -12.6360 C   0  0  0  0  0  0  0  0  0  0  0  0
 19 20  1  0  0  0
 20 21  1  0  0  0
 21 22  1  0  0  0
 22 23  1  0  0  0
 23 24  1  0  0  0
 24 25  1  0  0  0
 23 13  1  0  0  0
 13 14  1  0  0  0
 14 15  1  0  0  0
 15 16  1  0  0  0
 16 17  1  0  0  0
 17 18  1  0  0  0
 16  1  1  0  0  0
  1  2  1  0  0  0
  2  3  2  0  0  0
  3 26  1  0  0  0
 26 27  2  0  0  0
 27 28  1  0  0  0
 28 29  2  0  0  0
 29 32  1  0  0  0
 32 33  1  0  0  0
 33 34  2  0  0  0
 34 35  1  0  0  0
 35 36  2  0  0  0
 36 37  1  0  0  0
 37 38  2  0  0  0
 29 30  1  0  0  0
 30 31  2  0  0  0
  3  4  1  0  0  0
  4  5  2  0  0  0
  5  6  1  0  0  0
  5  7  1  0  0  0
  7  8  2  0  0  0
  8  9  1  0  0  0
  9 10  2  0  0  0
 25 20  1  0  0  0
 18 13  1  0  0  0
 10  1  1  0  0  0
 31 26  1  0  0  0
 10  4  1  0  0  0
 38 33  1  0  0  0
  6 11  1  0  0  0
  6 12  1  0  0  0
M  END
> <minimizedAffinity>
-7.26375

> <CNNscore>
0.3398496509

> <CNNaffinity>
6.7517881393

> <CNN_VS>
2.2945928574

> <CNNaffinity_variance>
0.0685146526

$$$$
[H]c1nc(N([H])[H])c2c(-c3c([H])c([H])c(Oc4c([H])c([H])c([H])c([H])c4[H])c([H])c3[H])c([H])n([C@]3([H])C([H])([H])C([H])([H])[C@@]([H])(N4C([H])([H])C([H])([H])N(C([H])([H])[H])C([H])([H])C4([H])[H])C([H])([H])C3([H])[H])c2n1


 38 43  0  0  0  0  0  0  0  0999 V2000
  -17.9453   12.8171  -19.7696 N   0  0  0  0  0  0  0  0  0  0  0  0
  -18.6612   13.9254  -19.8734 C   0  0  0  0  0  0  0  0  0  0  0  0
  -18.5248   14.4885  -21.1290 C   0  0  0  0  0  0  0  0  0  0  0  0
  -17.6722   13.6601  -21.8109 C   0  0  0  0  0  0  0  0  0  0  0  0
  -17.1656   13.7165  -23.0883 C   0  0  0  0  0  0  0  0  0  0  0  0
  -17.4981   14.7997  -23.9878 N   0  0  0  0  0  0  0  0  0  0  0  0
  -16.3234   12.7496  -23.4983 N   0  0  0  0  0  0  0  0  0  0  0  0
  -15.9863   11.7523  -22.6732 C   0  0  0  0  0  0  0  0  0  0  0  0
  -16.4764   11.6910  -21.4220 N   0  0  0  0  0  0  0  0  0  0  0  0
  -17.3165   12.6161  -20.9490 C   0  0  0  0  0  0  0  0  0  0  0  0
  -17.1803   15.7699  -23.8279 H   0  0  0  0  0  0  0  0  0  0  0  0
  -18.0795   14.5599  -24.8157 H   0  0  0  0  0  0  0  0  0  0  0  0
  -19.5295   10.1156  -17.0294 C   0  0  0  0  0  0  0  0  0  0  0  0
  -19.8036   11.5801  -17.1093 C   0  0  0  0  0  0  0  0  0  0  0  0
  -18.6103   12.4376  -17.4275 C   0  0  0  0  0  0  0  0  0  0  0  0
  -17.8288   11.9511  -18.6181 C   0  0  0  0  0  0  0  0  0  0  0  0
  -18.0888   10.5089  -18.9346 C   0  0  0  0  0  0  0  0  0  0  0  0
  -18.1539    9.7963  -17.5724 C   0  0  0  0  0  0  0  0  0  0  0  0
  -19.0829    8.8500  -13.0926 C   0  0  0  0  0  0  0  0  0  0  0  0
  -20.4557    8.6028  -13.4086 N   0  0  0  0  0  0  0  0  0  0  0  0
  -20.6622    7.6723  -14.4826 C   0  0  0  0  0  0  0  0  0  0  0  0
  -20.0196    8.1093  -15.7819 C   0  0  0  0  0  0  0  0  0  0  0  0
  -19.8101    9.5249  -15.7623 N   0  0  0  0  0  0  0  0  0  0  0  0
  -20.9326   10.2300  -15.1669 C   0  0  0  0  0  0  0  0  0  0  0  0
  -21.1394    9.8305  -13.7235 C   0  0  0  0  0  0  0  0  0  0  0  0
  -19.2314   15.6948  -21.5412 C   0  0  0  0  0  0  0  0  0  0  0  0
  -20.3794   16.1579  -20.9525 C   0  0  0  0  0  0  0  0  0  0  0  0
  -21.0165   17.2976  -21.3928 C   0  0  0  0  0  0  0  0  0  0  0  0
  -20.5450   18.0466  -22.4499 C   0  0  0  0  0  0  0  0  0  0  0  0
  -19.3904   17.5826  -23.0427 C   0  0  0  0  0  0  0  0  0  0  0  0
  -18.7419   16.4509  -22.6195 C   0  0  0  0  0  0  0  0  0  0  0  0
  -21.1312   19.1861  -22.9345 O   0  0  0  0  0  0  0  0  0  0  0  0
  -21.8755   19.2976  -24.0650 C   0  0  0  0  0  0  0  0  0  0  0  0
  -21.8325   20.4299  -24.8373 C   0  0  0  0  0  0  0  0  0  0  0  0
  -22.6007   20.4983  -25.9695 C   0  0  0  0  0  0  0  0  0  0  0  0
  -23.4209   19.4630  -26.3633 C   0  0  0  0  0  0  0  0  0  0  0  0
  -23.4634   18.3255  -25.5870 C   0  0  0  0  0  0  0  0  0  0  0  0
  -22.6911   18.2624  -24.4524 C   0  0  0  0  0  0  0  0  0  0  0  0
 19 20  1  0  0  0
 20 21  1  0  0  0
 21 22  1  0  0  0
 22 23  1  0  0  0
 23 24  1  0  0  0
 24 25  1  0  0  0
 23 13  1  0  0  0
 13 14  1  0  0  0
 14 15  1  0  0  0
 15 16  1  0  0  0
 16 17  1  0  0  0
 17 18  1  0  0  0
 16  1  1  0  0  0
  1  2  1  0  0  0
  2  3  2  0  0  0
  3 26  1  0  0  0
 26 27  2  0  0  0
 27 28  1  0  0  0
 28 29  2  0  0  0
 29 32  1  0  0  0
 32 33  1  0  0  0
 33 34  2  0  0  0
 34 35  1  0  0  0
 35 36  2  0  0  0
 36 37  1  0  0  0
 37 38  2  0  0  0
 29 30  1  0  0  0
 30 31  2  0  0  0
  3  4  1  0  0  0
  4  5  2  0  0  0
  5  6  1  0  0  0
  5  7  1  0  0  0
  7  8  2  0  0  0
  8  9  1  0  0  0
  9 10  2  0  0  0
 25 20  1  0  0  0
 18 13  1  0  0  0
 10  1  1  0  0  0
 31 26  1  0  0  0
 10  4  1  0  0  0
 38 33  1  0  0  0
  6 11  1  0  0  0
  6 12  1  0  0  0
M  END
> <minimizedAffinity>
-9.22086

> <CNNscore>
0.3287380636

> <CNNaffinity>
7.1883516312

> <CNN_VS>
2.3630847931

> <CNNaffinity_variance>
0.2640374303

$$$$
[H]c1nc(N([H])[H])c2c(-c3c([H])c([H])c(Oc4c([H])c([H])c([H])c([H])c4[H])c([H])c3[H])c([H])n([C@]3([H])C([H])([H])C([H])([H])[C@@]([H])(N4C([H])([H])C([H])([H])N(C([H])([H])[H])C([H])([H])C4([H])[H])C([H])([H])C3([H])[H])c2n1


 38 43  0  0  0  0  0  0  0  0999 V2000
  -17.5464   12.5735  -19.6018 N   0  0  0  0  0  0  0  0  0  0  0  0
  -17.9130   13.7921  -19.9653 C   0  0  0  0  0  0  0  0  0  0  0  0
  -17.4245   14.1034  -21.2211 C   0  0  0  0  0  0  0  0  0  0  0  0
  -16.7228   12.9977  -21.6251 C   0  0  0  0  0  0  0  0  0  0  0  0
  -16.0144   12.7307  -22.7734 C   0  0  0  0  0  0  0  0  0  0  0  0
  -15.8914   13.7090  -23.8321 N   0  0  0  0  0  0  0  0  0  0  0  0
  -15.4048   11.5372  -22.9001 N   0  0  0  0  0  0  0  0  0  0  0  0
  -15.4883   10.6285  -21.9220 C   0  0  0  0  0  0  0  0  0  0  0  0
  -16.1778   10.8828  -20.7955 N   0  0  0  0  0  0  0  0  0  0  0  0
  -16.8071   12.0456  -20.6026 C   0  0  0  0  0  0  0  0  0  0  0  0
  -15.3575   14.5861  -23.7167 H   0  0  0  0  0  0  0  0  0  0  0  0
  -16.3697   13.4915  -24.7294 H   0  0  0  0  0  0  0  0  0  0  0  0
  -20.2383   10.8790  -16.9188 C   0  0  0  0  0  0  0  0  0  0  0  0
  -20.0404   12.3314  -17.1972 C   0  0  0  0  0  0  0  0  0  0  0  0
  -18.6109   12.7570  -17.3872 C   0  0  0  0  0  0  0  0  0  0  0  0
  -17.8584   11.8946  -18.3644 C   0  0  0  0  0  0  0  0  0  0  0  0
  -18.4985   10.5547  -18.5705 C   0  0  0  0  0  0  0  0  0  0  0  0
  -18.9640   10.1046  -17.1746 C   0  0  0  0  0  0  0  0  0  0  0  0
  -22.7467    9.1838  -14.0667 C   0  0  0  0  0  0  0  0  0  0  0  0
  -21.8113    9.9669  -13.3201 N   0  0  0  0  0  0  0  0  0  0  0  0
  -21.8418   11.3722  -13.6135 C   0  0  0  0  0  0  0  0  0  0  0  0
  -21.5611   11.6837  -15.0683 C   0  0  0  0  0  0  0  0  0  0  0  0
  -20.8568   10.5910  -15.6667 N   0  0  0  0  0  0  0  0  0  0  0  0
  -19.8499   10.0422  -14.7741 C   0  0  0  0  0  0  0  0  0  0  0  0
  -20.4682    9.4840  -13.5124 C   0  0  0  0  0  0  0  0  0  0  0  0
  -17.7047   15.3658  -21.8935 C   0  0  0  0  0  0  0  0  0  0  0  0
  -17.0636   16.5463  -21.6206 C   0  0  0  0  0  0  0  0  0  0  0  0
  -17.3792   17.7164  -22.2765 C   0  0  0  0  0  0  0  0  0  0  0  0
  -18.3559   17.7793  -23.2475 C   0  0  0  0  0  0  0  0  0  0  0  0
  -19.0011   16.5930  -23.5235 C   0  0  0  0  0  0  0  0  0  0  0  0
  -18.7018   15.4186  -22.8819 C   0  0  0  0  0  0  0  0  0  0  0  0
  -18.7159   18.9088  -23.9340 O   0  0  0  0  0  0  0  0  0  0  0  0
  -19.5375   19.8974  -23.4955 C   0  0  0  0  0  0  0  0  0  0  0  0
  -19.3837   21.1921  -23.9202 C   0  0  0  0  0  0  0  0  0  0  0  0
  -20.2358   22.1567  -23.4513 C   0  0  0  0  0  0  0  0  0  0  0  0
  -21.2493   21.8712  -22.5619 C   0  0  0  0  0  0  0  0  0  0  0  0
  -21.4034   20.5700  -22.1358 C   0  0  0  0  0  0  0  0  0  0  0  0
  -20.5458   19.6065  -22.6092 C   0  0  0  0  0  0  0  0  0  0  0  0
 19 20  1  0  0  0
 20 21  1  0  0  0
 21 22  1  0  0  0
 22 23  1  0  0  0
 23 24  1  0  0  0
 24 25  1  0  0  0
 23 13  1  0  0  0
 13 14  1  0  0  0
 14 15  1  0  0  0
 15 16  1  0  0  0
 16 17  1  0  0  0
 17 18  1  0  0  0
 16  1  1  0  0  0
  1  2  1  0  0  0
  2  3  2  0  0  0
  3 26  1  0  0  0
 26 27  2  0  0  0
 27 28  1  0  0  0
 28 29  2  0  0  0
 29 32  1  0  0  0
 32 33  1  0  0  0
 33 34  2  0  0  0
 34 35  1  0  0  0
 35 36  2  0  0  0
 36 37  1  0  0  0
 37 38  2  0  0  0
 29 30  1  0  0  0
 30 31  2  0  0  0
  3  4  1  0  0  0
  4  5  2  0  0  0
  5  6  1  0  0  0
  5  7  1  0  0  0
  7  8  2  0  0  0
  8  9  1  0  0  0
  9 10  2  0  0  0
 25 20  1  0  0  0
 18 13  1  0  0  0
 10  1  1  0  0  0
 31 26  1  0  0  0
 10  4  1  0  0  0
 38 33  1  0  0  0
  6 11  1  0  0  0
  6 12  1  0  0  0
M  END
> <minimizedAffinity>
-8.09824

> <CNNscore>
0.2860420942

> <CNNaffinity>
7.2186646461

> <CNN_VS>
2.0648419857

> <CNNaffinity_variance>
0.3135509789

$$$$
[H]OC(=O)[C@]([H])(N([H])[C@]1([H])C([H])([H])C([H])([H])[C@]([H])(n2c([H])c(-c3c([H])c([H])c(Oc4c([H])c([H])c([H])c([H])c4[H])c([H])c3[H])c3c(N([H])[H])nc([H])nc32)C([H])([H])C1([H])[H])C([H])([H])c1c([H])c([H])c([H])c([H])c1[H]


 45 50  0  0  0  0  0  0  0  0999 V2000
  -16.6552    9.9405  -19.7887 N   0  0  0  0  0  0  0  0  0  0  0  0
  -16.5359   10.9710  -20.7504 C   0  0  0  0  0  0  0  0  0  0  0  0
  -15.7059   10.8321  -21.8275 N   0  0  0  0  0  0  0  0  0  0  0  0
  -15.5774   11.8198  -22.7247 C   0  0  0  0  0  0  0  0  0  0  0  0
  -16.2848   12.9423  -22.5333 N   0  0  0  0  0  0  0  0  0  0  0  0
  -17.1188   13.1627  -21.5102 C   0  0  0  0  0  0  0  0  0  0  0  0
  -17.9052   14.2017  -21.1304 N   0  0  0  0  0  0  0  0  0  0  0  0
  -18.5082   13.8193  -19.9924 C   0  0  0  0  0  0  0  0  0  0  0  0
  -18.1304   12.5454  -19.6190 C   0  0  0  0  0  0  0  0  0  0  0  0
  -17.2466   12.1251  -20.5795 C   0  0  0  0  0  0  0  0  0  0  0  0
  -17.1265    9.0507  -20.0496 H   0  0  0  0  0  0  0  0  0  0  0  0
  -16.2786   10.0597  -18.8262 H   0  0  0  0  0  0  0  0  0  0  0  0
  -18.6759   11.8938  -18.4439 C   0  0  0  0  0  0  0  0  0  0  0  0
  -19.4484   12.6349  -17.5497 C   0  0  0  0  0  0  0  0  0  0  0  0
  -20.0372   12.1124  -16.4307 C   0  0  0  0  0  0  0  0  0  0  0  0
  -19.8662   10.7534  -16.1478 C   0  0  0  0  0  0  0  0  0  0  0  0
  -19.1114    9.9932  -17.0080 C   0  0  0  0  0  0  0  0  0  0  0  0
  -18.5249   10.5640  -18.1433 C   0  0  0  0  0  0  0  0  0  0  0  0
  -20.4568   10.1909  -15.0094 O   0  0  0  0  0  0  0  0  0  0  0  0
  -21.1870    9.0128  -15.2434 C   0  0  0  0  0  0  0  0  0  0  0  0
  -22.5391    9.0488  -15.5211 C   0  0  0  0  0  0  0  0  0  0  0  0
  -23.2671    7.9023  -15.7519 C   0  0  0  0  0  0  0  0  0  0  0  0
  -22.6615    6.6643  -15.7130 C   0  0  0  0  0  0  0  0  0  0  0  0
  -21.3150    6.6187  -15.4372 C   0  0  0  0  0  0  0  0  0  0  0  0
  -20.5744    7.7777  -15.2026 C   0  0  0  0  0  0  0  0  0  0  0  0
  -18.0178   15.4484  -21.8628 C   0  0  0  0  0  0  0  0  0  0  0  0
  -18.9495   16.4183  -21.2048 C   0  0  0  0  0  0  0  0  0  0  0  0
  -18.6347   17.7942  -21.7810 C   0  0  0  0  0  0  0  0  0  0  0  0
  -18.6331   17.7442  -23.2808 C   0  0  0  0  0  0  0  0  0  0  0  0
  -19.2259   16.4279  -23.8213 C   0  0  0  0  0  0  0  0  0  0  0  0
  -18.4263   15.2536  -23.3044 C   0  0  0  0  0  0  0  0  0  0  0  0
  -19.3257   18.7933  -23.8482 N   0  0  0  0  0  0  0  0  0  0  0  0
  -19.5544   18.6973  -24.8484 H   0  0  0  0  0  0  0  0  0  0  0  0
  -19.9594   19.8345  -23.1495 C   0  0  0  0  0  0  0  0  0  0  0  0
  -19.4710   21.1050  -23.6991 C   0  0  0  0  0  0  0  0  0  0  0  0
  -19.1671   22.1694  -22.9036 O   0  0  0  0  0  0  0  0  0  0  0  0
  -19.3158   21.2333  -24.9369 O   0  0  0  0  0  0  0  0  0  0  0  0
  -18.9474   23.0965  -23.2060 H   0  0  0  0  0  0  0  0  0  0  0  0
  -21.4081   19.8005  -22.9940 C   0  0  0  0  0  0  0  0  0  0  0  0
  -22.1755   19.2589  -24.1158 C   0  0  0  0  0  0  0  0  0  0  0  0
  -22.5204   20.0457  -25.1874 C   0  0  0  0  0  0  0  0  0  0  0  0
  -23.2437   19.5658  -26.2627 C   0  0  0  0  0  0  0  0  0  0  0  0
  -23.6421   18.2478  -26.2746 C   0  0  0  0  0  0  0  0  0  0  0  0
  -23.3063   17.4450  -25.2106 C   0  0  0  0  0  0  0  0  0  0  0  0
  -22.5799   17.9435  -24.1401 C   0  0  0  0  0  0  0  0  0  0  0  0
  1  2  1  0  0  0
  2  3  2  0  0  0
  3  4  1  0  0  0
  4  5  2  0  0  0
  5  6  1  0  0  0
  6  7  1  0  0  0
  7  8  1  0  0  0
  8  9  2  0  0  0
  9 13  1  0  0  0
 13 14  2  0  0  0
 14 15  1  0  0  0
 15 16  2  0  0  0
 16 19  1  0  0  0
 19 20  1  0  0  0
 20 21  2  0  0  0
 21 22  1  0  0  0
 22 23  2  0  0  0
 23 24  1  0  0  0
 24 25  2  0  0  0
 16 17  1  0  0  0
 17 18  2  0  0  0
  9 10  1  0  0  0
  7 26  1  0  0  0
 26 27  1  0  0  0
 27 28  1  0  0  0
 28 29  1  0  0  0
 29 30  1  0  0  0
 30 31  1  0  0  0
 29 32  1  0  0  0
 32 34  1  0  0  0
 34 39  1  0  0  0
 39 40  1  0  0  0
 40 41  2  0  0  0
 41 42  1  0  0  0
 42 43  2  0  0  0
 43 44  1  0  0  0
 44 45  2  0  0  0
 34 35  1  0  0  0
 35 36  1  0  0  0
 35 37  2  0  0  0
 10  2  1  0  0  0
 31 26  1  0  0  0
 45 40  1  0  0  0
 10  6  2  0  0  0
 18 13  1  0  0  0
 25 20  1  0  0  0
  1 11  1  0  0  0
  1 12  1  0  0  0
 32 33  1  0  0  0
 36 38  1  0  0  0
M  END
> <minimizedAffinity>
-9.80205

> <CNNscore>
0.6956068277

> <CNNaffinity>
7.6771545410

> <CNN_VS>
5.3402810097

> <CNNaffinity_variance>
0.1852806062

$$$$
[H]OC(=O)[C@]([H])(N([H])[C@]1([H])C([H])([H])C([H])([H])[C@]([H])(n2c([H])c(-c3c([H])c([H])c(Oc4c([H])c([H])c([H])c([H])c4[H])c([H])c3[H])c3c(N([H])[H])nc([H])nc32)C([H])([H])C1([H])[H])C([H])([H])c1c([H])c([H])c([H])c([H])c1[H]


 45 50  0  0  0  0  0  0  0  0999 V2000
  -16.6367    9.7580  -19.6438 N   0  0  0  0  0  0  0  0  0  0  0  0
  -16.8893   10.9189  -20.4116 C   0  0  0  0  0  0  0  0  0  0  0  0
  -16.1999   11.1587  -21.5673 N   0  0  0  0  0  0  0  0  0  0  0  0
  -16.4251   12.2713  -22.2804 C   0  0  0  0  0  0  0  0  0  0  0  0
  -17.3428   13.1369  -21.8268 N   0  0  0  0  0  0  0  0  0  0  0  0
  -18.0621   12.9821  -20.7089 C   0  0  0  0  0  0  0  0  0  0  0  0
  -19.0114   13.7194  -20.0786 N   0  0  0  0  0  0  0  0  0  0  0  0
  -19.3525   13.0292  -18.9776 C   0  0  0  0  0  0  0  0  0  0  0  0
  -18.6423   11.8501  -18.8751 C   0  0  0  0  0  0  0  0  0  0  0  0
  -17.8202   11.8169  -19.9720 C   0  0  0  0  0  0  0  0  0  0  0  0
  -16.9181    8.8284  -20.0161 H   0  0  0  0  0  0  0  0  0  0  0  0
  -16.1741    9.8207  -18.7140 H   0  0  0  0  0  0  0  0  0  0  0  0
  -18.8604   10.9116  -17.7913 C   0  0  0  0  0  0  0  0  0  0  0  0
  -19.6561   11.2908  -16.7102 C   0  0  0  0  0  0  0  0  0  0  0  0
  -19.9532   10.4734  -15.6541 C   0  0  0  0  0  0  0  0  0  0  0  0
  -19.4371    9.1735  -15.6382 C   0  0  0  0  0  0  0  0  0  0  0  0
  -18.6495    8.7665  -16.6877 C   0  0  0  0  0  0  0  0  0  0  0  0
  -18.3680    9.6320  -17.7509 C   0  0  0  0  0  0  0  0  0  0  0  0
  -19.7241    8.3145  -14.5701 O   0  0  0  0  0  0  0  0  0  0  0  0
  -20.5204    7.2048  -14.9018 C   0  0  0  0  0  0  0  0  0  0  0  0
  -20.1405    5.9210  -14.5637 C   0  0  0  0  0  0  0  0  0  0  0  0
  -20.9108    4.8244  -14.8828 C   0  0  0  0  0  0  0  0  0  0  0  0
  -22.1027    4.9744  -15.5594 C   0  0  0  0  0  0  0  0  0  0  0  0
  -22.4892    6.2494  -15.9004 C   0  0  0  0  0  0  0  0  0  0  0  0
  -21.7116    7.3625  -15.5791 C   0  0  0  0  0  0  0  0  0  0  0  0
  -19.5073   14.9937  -20.5617 C   0  0  0  0  0  0  0  0  0  0  0  0
  -18.5353   16.1101  -20.3372 C   0  0  0  0  0  0  0  0  0  0  0  0
  -18.9466   17.2477  -21.2653 C   0  0  0  0  0  0  0  0  0  0  0  0
  -20.4057   17.5559  -21.0986 C   0  0  0  0  0  0  0  0  0  0  0  0
  -21.0100   16.8656  -19.8598 C   0  0  0  0  0  0  0  0  0  0  0  0
  -20.8497   15.3669  -19.9771 C   0  0  0  0  0  0  0  0  0  0  0  0
  -20.6554   18.9089  -21.0022 N   0  0  0  0  0  0  0  0  0  0  0  0
  -20.7570   19.2842  -20.0479 H   0  0  0  0  0  0  0  0  0  0  0  0
  -20.5289   19.8451  -22.0421 C   0  0  0  0  0  0  0  0  0  0  0  0
  -19.4688   20.7892  -21.6685 C   0  0  0  0  0  0  0  0  0  0  0  0
  -18.6734   20.5914  -20.5793 O   0  0  0  0  0  0  0  0  0  0  0  0
  -19.2687   21.8132  -22.3641 O   0  0  0  0  0  0  0  0  0  0  0  0
  -18.0182   21.2404  -20.1935 H   0  0  0  0  0  0  0  0  0  0  0  0
  -20.4072   19.3650  -23.4127 C   0  0  0  0  0  0  0  0  0  0  0  0
  -21.6463   19.2621  -24.1840 C   0  0  0  0  0  0  0  0  0  0  0  0
  -22.2851   18.0571  -24.3460 C   0  0  0  0  0  0  0  0  0  0  0  0
  -23.4564   17.9251  -25.0674 C   0  0  0  0  0  0  0  0  0  0  0  0
  -24.0177   19.0375  -25.6535 C   0  0  0  0  0  0  0  0  0  0  0  0
  -23.3924   20.2522  -25.5023 C   0  0  0  0  0  0  0  0  0  0  0  0
  -22.2177   20.3660  -24.7749 C   0  0  0  0  0  0  0  0  0  0  0  0
  1  2  1  0  0  0
  2  3  2  0  0  0
  3  4  1  0  0  0
  4  5  2  0  0  0
  5  6  1  0  0  0
  6  7  1  0  0  0
  7  8  1  0  0  0
  8  9  2  0  0  0
  9 13  1  0  0  0
 13 14  2  0  0  0
 14 15  1  0  0  0
 15 16  2  0  0  0
 16 19  1  0  0  0
 19 20  1  0  0  0
 20 21  2  0  0  0
 21 22  1  0  0  0
 22 23  2  0  0  0
 23 24  1  0  0  0
 24 25  2  0  0  0
 16 17  1  0  0  0
 17 18  2  0  0  0
  9 10  1  0  0  0
  7 26  1  0  0  0
 26 27  1  0  0  0
 27 28  1  0  0  0
 28 29  1  0  0  0
 29 30  1  0  0  0
 30 31  1  0  0  0
 29 32  1  0  0  0
 32 34  1  0  0  0
 34 39  1  0  0  0
 39 40  1  0  0  0
 40 41  2  0  0  0
 41 42  1  0  0  0
 42 43  2  0  0  0
 43 44  1  0  0  0
 44 45  2  0  0  0
 34 35  1  0  0  0
 35 36  1  0  0  0
 35 37  2  0  0  0
 10  2  1  0  0  0
 31 26  1  0  0  0
 45 40  1  0  0  0
 10  6  2  0  0  0
 18 13  1  0  0  0
 25 20  1  0  0  0
  1 11  1  0  0  0
  1 12  1  0  0  0
 32 33  1  0  0  0
 36 38  1  0  0  0
M  END
> <minimizedAffinity>
-9.55062

> <CNNscore>
0.6922047138

> <CNNaffinity>
7.4871459007

> <CNN_VS>
5.1826376915

> <CNNaffinity_variance>
0.1540620029

$$$$
[H]OC(=O)[C@]([H])(N([H])[C@]1([H])C([H])([H])C([H])([H])[C@]([H])(n2c([H])c(-c3c([H])c([H])c(Oc4c([H])c([H])c([H])c([H])c4[H])c([H])c3[H])c3c(N([H])[H])nc([H])nc32)C([H])([H])C1([H])[H])C([H])([H])c1c([H])c([H])c([H])c([H])c1[H]


 45 50  0  0  0  0  0  0  0  0999 V2000
  -17.5486    9.2434  -18.6941 N   0  0  0  0  0  0  0  0  0  0  0  0
  -17.4367   10.4754  -19.3800 C   0  0  0  0  0  0  0  0  0  0  0  0
  -16.5590   10.6229  -20.4174 N   0  0  0  0  0  0  0  0  0  0  0  0
  -16.4385   11.7986  -21.0503 C   0  0  0  0  0  0  0  0  0  0  0  0
  -17.2019   12.8196  -20.6359 N   0  0  0  0  0  0  0  0  0  0  0  0
  -18.0850   12.7638  -19.6320 C   0  0  0  0  0  0  0  0  0  0  0  0
  -18.9310   13.6566  -19.0582 N   0  0  0  0  0  0  0  0  0  0  0  0
  -19.5615   12.9960  -18.0728 C   0  0  0  0  0  0  0  0  0  0  0  0
  -19.1431   11.6833  -17.9906 C   0  0  0  0  0  0  0  0  0  0  0  0
  -18.2039   11.5318  -18.9782 C   0  0  0  0  0  0  0  0  0  0  0  0
  -17.9694    8.4252  -19.1793 H   0  0  0  0  0  0  0  0  0  0  0  0
  -17.2164    9.1441  -17.7132 H   0  0  0  0  0  0  0  0  0  0  0  0
  -19.7058   10.7545  -17.0296 C   0  0  0  0  0  0  0  0  0  0  0  0
  -18.9445    9.6643  -16.6081 C   0  0  0  0  0  0  0  0  0  0  0  0
  -19.3650    8.7488  -15.6823 C   0  0  0  0  0  0  0  0  0  0  0  0
  -20.6331    8.8971  -15.1113 C   0  0  0  0  0  0  0  0  0  0  0  0
  -21.4098    9.9604  -15.5032 C   0  0  0  0  0  0  0  0  0  0  0  0
  -20.9446   10.8766  -16.4534 C   0  0  0  0  0  0  0  0  0  0  0  0
  -21.0903    7.9753  -14.1613 O   0  0  0  0  0  0  0  0  0  0  0  0
  -21.1207    6.6404  -14.6003 C   0  0  0  0  0  0  0  0  0  0  0  0
  -20.3097    5.6784  -14.0316 C   0  0  0  0  0  0  0  0  0  0  0  0
  -20.3288    4.3667  -14.4522 C   0  0  0  0  0  0  0  0  0  0  0  0
  -21.1699    3.9656  -15.4684 C   0  0  0  0  0  0  0  0  0  0  0  0
  -21.9814    4.9169  -16.0408 C   0  0  0  0  0  0  0  0  0  0  0  0
  -21.9646    6.2465  -15.6177 C   0  0  0  0  0  0  0  0  0  0  0  0
  -19.0693   15.0366  -19.4821 C   0  0  0  0  0  0  0  0  0  0  0  0
  -19.3712   15.1605  -20.9433 C   0  0  0  0  0  0  0  0  0  0  0  0
  -19.9348   16.5602  -21.1612 C   0  0  0  0  0  0  0  0  0  0  0  0
  -19.0281   17.5889  -20.5518 C   0  0  0  0  0  0  0  0  0  0  0  0
  -17.6643   16.9966  -20.1448 C   0  0  0  0  0  0  0  0  0  0  0  0
  -17.8660   15.8844  -19.1408 C   0  0  0  0  0  0  0  0  0  0  0  0
  -18.7993   18.6594  -21.3908 N   0  0  0  0  0  0  0  0  0  0  0  0
  -18.3401   19.4783  -20.9659 H   0  0  0  0  0  0  0  0  0  0  0  0
  -18.8940   18.6413  -22.7924 C   0  0  0  0  0  0  0  0  0  0  0  0
  -19.4892   19.9139  -23.2177 C   0  0  0  0  0  0  0  0  0  0  0  0
  -20.4151   19.9830  -24.2157 O   0  0  0  0  0  0  0  0  0  0  0  0
  -19.1528   20.9820  -22.6533 O   0  0  0  0  0  0  0  0  0  0  0  0
  -20.7733   20.8139  -24.6405 H   0  0  0  0  0  0  0  0  0  0  0  0
  -17.7208   18.2717  -23.5741 C   0  0  0  0  0  0  0  0  0  0  0  0
  -17.4723   16.8401  -23.7469 C   0  0  0  0  0  0  0  0  0  0  0  0
  -16.2994   16.2655  -23.3219 C   0  0  0  0  0  0  0  0  0  0  0  0
  -16.0333   14.9175  -23.4693 C   0  0  0  0  0  0  0  0  0  0  0  0
  -16.9721   14.1047  -24.0644 C   0  0  0  0  0  0  0  0  0  0  0  0
  -18.1520   14.6620  -24.4961 C   0  0  0  0  0  0  0  0  0  0  0  0
  -18.4021   16.0167  -24.3400 C   0  0  0  0  0  0  0  0  0  0  0  0
  1  2  1  0  0  0
  2  3  2  0  0  0
  3  4  1  0  0  0
  4  5  2  0  0  0
  5  6  1  0  0  0
  6  7  1  0  0  0
  7  8  1  0  0  0
  8  9  2  0  0  0
  9 13  1  0  0  0
 13 14  2  0  0  0
 14 15  1  0  0  0
 15 16  2  0  0  0
 16 19  1  0  0  0
 19 20  1  0  0  0
 20 21  2  0  0  0
 21 22  1  0  0  0
 22 23  2  0  0  0
 23 24  1  0  0  0
 24 25  2  0  0  0
 16 17  1  0  0  0
 17 18  2  0  0  0
  9 10  1  0  0  0
  7 26  1  0  0  0
 26 27  1  0  0  0
 27 28  1  0  0  0
 28 29  1  0  0  0
 29 30  1  0  0  0
 30 31  1  0  0  0
 29 32  1  0  0  0
 32 34  1  0  0  0
 34 39  1  0  0  0
 39 40  1  0  0  0
 40 41  2  0  0  0
 41 42  1  0  0  0
 42 43  2  0  0  0
 43 44  1  0  0  0
 44 45  2  0  0  0
 34 35  1  0  0  0
 35 36  1  0  0  0
 35 37  2  0  0  0
 10  2  1  0  0  0
 31 26  1  0  0  0
 45 40  1  0  0  0
 10  6  2  0  0  0
 18 13  1  0  0  0
 25 20  1  0  0  0
  1 11  1  0  0  0
  1 12  1  0  0  0
 32 33  1  0  0  0
 36 38  1  0  0  0
M  END
> <minimizedAffinity>
-8.77180

> <CNNscore>
0.6830436587

> <CNNaffinity>
7.6083803177

> <CNN_VS>
5.1968560219

> <CNNaffinity_variance>
0.0834265426

$$$$
[H]OC(=O)[C@]([H])(N([H])[C@]1([H])C([H])([H])C([H])([H])[C@]([H])(n2c([H])c(-c3c([H])c([H])c(Oc4c([H])c([H])c([H])c([H])c4[H])c([H])c3[H])c3c(N([H])[H])nc([H])nc32)C([H])([H])C1([H])[H])C([H])([H])c1c([H])c([H])c([H])c([H])c1[H]


 45 50  0  0  0  0  0  0  0  0999 V2000
  -17.6951   13.4584  -21.9106 N   0  0  0  0  0  0  0  0  0  0  0  0
  -17.5206   12.3874  -21.0032 C   0  0  0  0  0  0  0  0  0  0  0  0
  -16.7078   11.3326  -21.3118 N   0  0  0  0  0  0  0  0  0  0  0  0
  -16.5627   10.3079  -20.4596 C   0  0  0  0  0  0  0  0  0  0  0  0
  -17.2365   10.3500  -19.3014 N   0  0  0  0  0  0  0  0  0  0  0  0
  -18.0512   11.3404  -18.9192 C   0  0  0  0  0  0  0  0  0  0  0  0
  -18.8170   11.5732  -17.8231 N   0  0  0  0  0  0  0  0  0  0  0  0
  -19.4213   12.7547  -18.0318 C   0  0  0  0  0  0  0  0  0  0  0  0
  -19.0643   13.3018  -19.2476 C   0  0  0  0  0  0  0  0  0  0  0  0
  -18.1952   12.4059  -19.8155 C   0  0  0  0  0  0  0  0  0  0  0  0
  -16.9036   14.1087  -22.0913 H   0  0  0  0  0  0  0  0  0  0  0  0
  -18.6020   13.6046  -22.3990 H   0  0  0  0  0  0  0  0  0  0  0  0
  -19.5557   14.5943  -19.6845 C   0  0  0  0  0  0  0  0  0  0  0  0
  -20.9128   14.7480  -19.9679 C   0  0  0  0  0  0  0  0  0  0  0  0
  -21.4857   15.9290  -20.3536 C   0  0  0  0  0  0  0  0  0  0  0  0
  -20.6782   17.0643  -20.4775 C   0  0  0  0  0  0  0  0  0  0  0  0
  -19.3364   16.9490  -20.2055 C   0  0  0  0  0  0  0  0  0  0  0  0
  -18.7870   15.7231  -19.8131 C   0  0  0  0  0  0  0  0  0  0  0  0
  -21.2368   18.2867  -20.8708 O   0  0  0  0  0  0  0  0  0  0  0  0
  -21.8771   18.2685  -22.1220 C   0  0  0  0  0  0  0  0  0  0  0  0
  -21.1751   18.0202  -23.2848 C   0  0  0  0  0  0  0  0  0  0  0  0
  -21.7895   17.9997  -24.5176 C   0  0  0  0  0  0  0  0  0  0  0  0
  -23.1441   18.2294  -24.6326 C   0  0  0  0  0  0  0  0  0  0  0  0
  -23.8516   18.4776  -23.4798 C   0  0  0  0  0  0  0  0  0  0  0  0
  -23.2326   18.4994  -22.2294 C   0  0  0  0  0  0  0  0  0  0  0  0
  -18.9122   10.6733  -16.6897 C   0  0  0  0  0  0  0  0  0  0  0  0
  -19.1408    9.2525  -17.1028 C   0  0  0  0  0  0  0  0  0  0  0  0
  -18.7674    8.3797  -15.9097 C   0  0  0  0  0  0  0  0  0  0  0  0
  -19.4649    8.8617  -14.6716 C   0  0  0  0  0  0  0  0  0  0  0  0
  -20.5685    9.8910  -14.9869 C   0  0  0  0  0  0  0  0  0  0  0  0
  -19.9698   11.0864  -15.6928 C   0  0  0  0  0  0  0  0  0  0  0  0
  -20.0296    7.8340  -13.9456 N   0  0  0  0  0  0  0  0  0  0  0  0
  -20.3206    7.0050  -14.4842 H   0  0  0  0  0  0  0  0  0  0  0  0
  -20.0081    7.7063  -12.5467 C   0  0  0  0  0  0  0  0  0  0  0  0
  -21.2395    7.0181  -12.1407 C   0  0  0  0  0  0  0  0  0  0  0  0
  -22.4474    7.6493  -12.1149 O   0  0  0  0  0  0  0  0  0  0  0  0
  -21.2010    5.8093  -11.8092 O   0  0  0  0  0  0  0  0  0  0  0  0
  -23.3008    7.2889  -11.7393 H   0  0  0  0  0  0  0  0  0  0  0  0
  -18.8159    7.1662  -11.9057 C   0  0  0  0  0  0  0  0  0  0  0  0
  -18.1261    8.0430  -10.9589 C   0  0  0  0  0  0  0  0  0  0  0  0
  -17.0184    7.6139  -10.2696 C   0  0  0  0  0  0  0  0  0  0  0  0
  -16.3436    8.4161   -9.3690 C   0  0  0  0  0  0  0  0  0  0  0  0
  -16.7877    9.6997   -9.1431 C   0  0  0  0  0  0  0  0  0  0  0  0
  -17.8950   10.1467   -9.8238 C   0  0  0  0  0  0  0  0  0  0  0  0
  -18.5597    9.3279  -10.7238 C   0  0  0  0  0  0  0  0  0  0  0  0
  1  2  1  0  0  0
  2  3  2  0  0  0
  3  4  1  0  0  0
  4  5  2  0  0  0
  5  6  1  0  0  0
  6  7  1  0  0  0
  7  8  1  0  0  0
  8  9  2  0  0  0
  9 13  1  0  0  0
 13 14  2  0  0  0
 14 15  1  0  0  0
 15 16  2  0  0  0
 16 19  1  0  0  0
 19 20  1  0  0  0
 20 21  2  0  0  0
 21 22  1  0  0  0
 22 23  2  0  0  0
 23 24  1  0  0  0
 24 25  2  0  0  0
 16 17  1  0  0  0
 17 18  2  0  0  0
  9 10  1  0  0  0
  7 26  1  0  0  0
 26 27  1  0  0  0
 27 28  1  0  0  0
 28 29  1  0  0  0
 29 30  1  0  0  0
 30 31  1  0  0  0
 29 32  1  0  0  0
 32 34  1  0  0  0
 34 39  1  0  0  0
 39 40  1  0  0  0
 40 41  2  0  0  0
 41 42  1  0  0  0
 42 43  2  0  0  0
 43 44  1  0  0  0
 44 45  2  0  0  0
 34 35  1  0  0  0
 35 36  1  0  0  0
 35 37  2  0  0  0
 10  2  1  0  0  0
 31 26  1  0  0  0
 45 40  1  0  0  0
 10  6  2  0  0  0
 18 13  1  0  0  0
 25 20  1  0  0  0
  1 11  1  0  0  0
  1 12  1  0  0  0
 32 33  1  0  0  0
 36 38  1  0  0  0
M  END
> <minimizedAffinity>
-8.69363

> <CNNscore>
0.6678410769

> <CNNaffinity>
7.2926397324

> <CNN_VS>
4.8703241348

> <CNNaffinity_variance>
0.1900085360

$$$$
[H]OC(=O)[C@]([H])(N([H])[C@]1([H])C([H])([H])C([H])([H])[C@]([H])(n2c([H])c(-c3c([H])c([H])c(Oc4c([H])c([H])c([H])c([H])c4[H])c([H])c3[H])c3c(N([H])[H])nc([H])nc32)C([H])([H])C1([H])[H])C([H])([H])c1c([H])c([H])c([H])c([H])c1[H]


 45 50  0  0  0  0  0  0  0  0999 V2000
  -17.8581    9.2043  -17.5073 N   0  0  0  0  0  0  0  0  0  0  0  0
  -17.7570   10.1314  -18.5709 C   0  0  0  0  0  0  0  0  0  0  0  0
  -16.9171    9.9009  -19.6243 N   0  0  0  0  0  0  0  0  0  0  0  0
  -16.8062   10.7925  -20.6193 C   0  0  0  0  0  0  0  0  0  0  0  0
  -17.5411   11.9115  -20.5489 N   0  0  0  0  0  0  0  0  0  0  0  0
  -18.3865   12.2173  -19.5576 C   0  0  0  0  0  0  0  0  0  0  0  0
  -19.1995   13.2710  -19.2915 N   0  0  0  0  0  0  0  0  0  0  0  0
  -19.8005   12.9950  -18.1221 C   0  0  0  0  0  0  0  0  0  0  0  0
  -19.3953   11.7764  -17.6162 C   0  0  0  0  0  0  0  0  0  0  0  0
  -18.4957   11.2796  -18.5241 C   0  0  0  0  0  0  0  0  0  0  0  0
  -18.3067    8.2811  -17.6756 H   0  0  0  0  0  0  0  0  0  0  0  0
  -17.4905    9.4322  -16.5611 H   0  0  0  0  0  0  0  0  0  0  0  0
  -19.9327   11.2380  -16.3816 C   0  0  0  0  0  0  0  0  0  0  0  0
  -19.5504   11.8058  -15.1662 C   0  0  0  0  0  0  0  0  0  0  0  0
  -20.0222   11.3981  -13.9484 C   0  0  0  0  0  0  0  0  0  0  0  0
  -20.9455   10.3488  -13.8970 C   0  0  0  0  0  0  0  0  0  0  0  0
  -21.3447    9.7666  -15.0757 C   0  0  0  0  0  0  0  0  0  0  0  0
  -20.8395   10.2118  -16.3026 C   0  0  0  0  0  0  0  0  0  0  0  0
  -21.4455    9.9099  -12.6647 O   0  0  0  0  0  0  0  0  0  0  0  0
  -20.5368    9.9915  -11.5955 C   0  0  0  0  0  0  0  0  0  0  0  0
  -20.6793   10.9401  -10.6023 C   0  0  0  0  0  0  0  0  0  0  0  0
  -19.7960   11.0317   -9.5490 C   0  0  0  0  0  0  0  0  0  0  0  0
  -18.7263   10.1676   -9.4504 C   0  0  0  0  0  0  0  0  0  0  0  0
  -18.5763    9.2194  -10.4351 C   0  0  0  0  0  0  0  0  0  0  0  0
  -19.4687    9.1237  -11.5035 C   0  0  0  0  0  0  0  0  0  0  0  0
  -19.3368   14.4314  -20.1504 C   0  0  0  0  0  0  0  0  0  0  0  0
  -18.2244   15.4165  -19.9662 C   0  0  0  0  0  0  0  0  0  0  0  0
  -18.2237   16.3176  -21.1960 C   0  0  0  0  0  0  0  0  0  0  0  0
  -19.5991   16.8644  -21.4434 C   0  0  0  0  0  0  0  0  0  0  0  0
  -20.5479   16.6171  -20.2539 C   0  0  0  0  0  0  0  0  0  0  0  0
  -20.6653   15.1331  -19.9899 C   0  0  0  0  0  0  0  0  0  0  0  0
  -19.5924   18.2166  -21.7148 N   0  0  0  0  0  0  0  0  0  0  0  0
  -18.9553   18.7906  -21.1434 H   0  0  0  0  0  0  0  0  0  0  0  0
  -20.1634   18.8326  -22.8411 C   0  0  0  0  0  0  0  0  0  0  0  0
  -19.0751   19.4275  -23.6262 C   0  0  0  0  0  0  0  0  0  0  0  0
  -17.9678   18.7176  -23.9838 O   0  0  0  0  0  0  0  0  0  0  0  0
  -19.1504   20.6239  -23.9946 O   0  0  0  0  0  0  0  0  0  0  0  0
  -17.1384   19.0799  -24.4084 H   0  0  0  0  0  0  0  0  0  0  0  0
  -21.1068   18.0777  -23.6559 C   0  0  0  0  0  0  0  0  0  0  0  0
  -22.2811   18.8031  -24.1413 C   0  0  0  0  0  0  0  0  0  0  0  0
  -22.6952   19.9678  -23.5426 C   0  0  0  0  0  0  0  0  0  0  0  0
  -23.7989   20.6775  -23.9760 C   0  0  0  0  0  0  0  0  0  0  0  0
  -24.5230   20.2108  -25.0503 C   0  0  0  0  0  0  0  0  0  0  0  0
  -24.1237   19.0466  -25.6622 C   0  0  0  0  0  0  0  0  0  0  0  0
  -23.0135   18.3475  -25.2138 C   0  0  0  0  0  0  0  0  0  0  0  0
  1  2  1  0  0  0
  2  3  2  0  0  0
  3  4  1  0  0  0
  4  5  2  0  0  0
  5  6  1  0  0  0
  6  7  1  0  0  0
  7  8  1  0  0  0
  8  9  2  0  0  0
  9 13  1  0  0  0
 13 14  2  0  0  0
 14 15  1  0  0  0
 15 16  2  0  0  0
 16 19  1  0  0  0
 19 20  1  0  0  0
 20 21  2  0  0  0
 21 22  1  0  0  0
 22 23  2  0  0  0
 23 24  1  0  0  0
 24 25  2  0  0  0
 16 17  1  0  0  0
 17 18  2  0  0  0
  9 10  1  0  0  0
  7 26  1  0  0  0
 26 27  1  0  0  0
 27 28  1  0  0  0
 28 29  1  0  0  0
 29 30  1  0  0  0
 30 31  1  0  0  0
 29 32  1  0  0  0
 32 34  1  0  0  0
 34 39  1  0  0  0
 39 40  1  0  0  0
 40 41  2  0  0  0
 41 42  1  0  0  0
 42 43  2  0  0  0
 43 44  1  0  0  0
 44 45  2  0  0  0
 34 35  1  0  0  0
 35 36  1  0  0  0
 35 37  2  0  0  0
 10  2  1  0  0  0
 31 26  1  0  0  0
 45 40  1  0  0  0
 10  6  2  0  0  0
 18 13  1  0  0  0
 25 20  1  0  0  0
  1 11  1  0  0  0
  1 12  1  0  0  0
 32 33  1  0  0  0
 36 38  1  0  0  0
M  END
> <minimizedAffinity>
-9.01414

> <CNNscore>
0.6479184031

> <CNNaffinity>
7.3738412857

> <CNN_VS>
4.7776474953

> <CNNaffinity_variance>
0.1344799846

$$$$
[H]OC(=O)[C@]([H])(N([H])[C@]1([H])C([H])([H])C([H])([H])[C@]([H])(n2c([H])c(-c3c([H])c([H])c(Oc4c([H])c([H])c([H])c([H])c4[H])c([H])c3[H])c3c(N([H])[H])nc([H])nc32)C([H])([H])C1([H])[H])C([H])([H])c1c([H])c([H])c([H])c([H])c1[H]


 45 50  0  0  0  0  0  0  0  0999 V2000
  -18.1326    9.2150  -17.5567 N   0  0  0  0  0  0  0  0  0  0  0  0
  -17.9301   10.3203  -18.4160 C   0  0  0  0  0  0  0  0  0  0  0  0
  -17.0595   10.2411  -19.4667 N   0  0  0  0  0  0  0  0  0  0  0  0
  -16.8523   11.2978  -20.2653 C   0  0  0  0  0  0  0  0  0  0  0  0
  -17.5224   12.4286  -20.0023 N   0  0  0  0  0  0  0  0  0  0  0  0
  -18.3914   12.5938  -18.9981 C   0  0  0  0  0  0  0  0  0  0  0  0
  -19.1519   13.6284  -18.5584 N   0  0  0  0  0  0  0  0  0  0  0  0
  -19.8194   13.1735  -17.4849 C   0  0  0  0  0  0  0  0  0  0  0  0
  -19.5093   11.8563  -17.2128 C   0  0  0  0  0  0  0  0  0  0  0  0
  -18.6013   11.4845  -18.1707 C   0  0  0  0  0  0  0  0  0  0  0  0
  -18.6269    8.3731  -17.9156 H   0  0  0  0  0  0  0  0  0  0  0  0
  -17.7945    9.2321  -16.5730 H   0  0  0  0  0  0  0  0  0  0  0  0
  -20.1317   11.1278  -16.1242 C   0  0  0  0  0  0  0  0  0  0  0  0
  -19.7212   11.3761  -14.8145 C   0  0  0  0  0  0  0  0  0  0  0  0
  -20.2639   10.7708  -13.7140 C   0  0  0  0  0  0  0  0  0  0  0  0
  -21.2950    9.8426  -13.8916 C   0  0  0  0  0  0  0  0  0  0  0  0
  -21.7246    9.5743  -15.1687 C   0  0  0  0  0  0  0  0  0  0  0  0
  -21.1446   10.2143  -16.2698 C   0  0  0  0  0  0  0  0  0  0  0  0
  -21.8694    9.2071  -12.7838 O   0  0  0  0  0  0  0  0  0  0  0  0
  -20.9678    8.4826  -11.9851 C   0  0  0  0  0  0  0  0  0  0  0  0
  -20.2153    7.4494  -12.5073 C   0  0  0  0  0  0  0  0  0  0  0  0
  -19.3284    6.7306  -11.7361 C   0  0  0  0  0  0  0  0  0  0  0  0
  -19.1604    7.0234  -10.3993 C   0  0  0  0  0  0  0  0  0  0  0  0
  -19.9058    8.0510   -9.8704 C   0  0  0  0  0  0  0  0  0  0  0  0
  -20.8052    8.7810  -10.6483 C   0  0  0  0  0  0  0  0  0  0  0  0
  -19.1825   14.9387  -19.1793 C   0  0  0  0  0  0  0  0  0  0  0  0
  -19.4132   14.8681  -20.6570 C   0  0  0  0  0  0  0  0  0  0  0  0
  -19.8754   16.2521  -21.0989 C   0  0  0  0  0  0  0  0  0  0  0  0
  -18.9309   17.3036  -20.5949 C   0  0  0  0  0  0  0  0  0  0  0  0
  -17.6268   16.6982  -20.0387 C   0  0  0  0  0  0  0  0  0  0  0  0
  -17.9426   15.7556  -18.8996 C   0  0  0  0  0  0  0  0  0  0  0  0
  -18.5978   18.2271  -21.5636 N   0  0  0  0  0  0  0  0  0  0  0  0
  -17.9890   19.0017  -21.2613 H   0  0  0  0  0  0  0  0  0  0  0  0
  -18.7911   18.0748  -22.9468 C   0  0  0  0  0  0  0  0  0  0  0  0
  -19.5269   19.2501  -23.4285 C   0  0  0  0  0  0  0  0  0  0  0  0
  -18.9255   20.2328  -24.1570 O   0  0  0  0  0  0  0  0  0  0  0  0
  -20.7497   19.3694  -23.1774 O   0  0  0  0  0  0  0  0  0  0  0  0
  -19.3239   21.1126  -24.4150 H   0  0  0  0  0  0  0  0  0  0  0  0
  -17.6489   17.7346  -23.7856 C   0  0  0  0  0  0  0  0  0  0  0  0
  -17.2031   16.3413  -23.7528 C   0  0  0  0  0  0  0  0  0  0  0  0
  -18.0157   15.3242  -24.1903 C   0  0  0  0  0  0  0  0  0  0  0  0
  -17.6257   13.9985  -24.1735 C   0  0  0  0  0  0  0  0  0  0  0  0
  -16.3748   13.6683  -23.7020 C   0  0  0  0  0  0  0  0  0  0  0  0
  -15.5475   14.6730  -23.2598 C   0  0  0  0  0  0  0  0  0  0  0  0
  -15.9555   15.9978  -23.2840 C   0  0  0  0  0  0  0  0  0  0  0  0
  1  2  1  0  0  0
  2  3  2  0  0  0
  3  4  1  0  0  0
  4  5  2  0  0  0
  5  6  1  0  0  0
  6  7  1  0  0  0
  7  8  1  0  0  0
  8  9  2  0  0  0
  9 13  1  0  0  0
 13 14  2  0  0  0
 14 15  1  0  0  0
 15 16  2  0  0  0
 16 19  1  0  0  0
 19 20  1  0  0  0
 20 21  2  0  0  0
 21 22  1  0  0  0
 22 23  2  0  0  0
 23 24  1  0  0  0
 24 25  2  0  0  0
 16 17  1  0  0  0
 17 18  2  0  0  0
  9 10  1  0  0  0
  7 26  1  0  0  0
 26 27  1  0  0  0
 27 28  1  0  0  0
 28 29  1  0  0  0
 29 30  1  0  0  0
 30 31  1  0  0  0
 29 32  1  0  0  0
 32 34  1  0  0  0
 34 39  1  0  0  0
 39 40  1  0  0  0
 40 41  2  0  0  0
 41 42  1  0  0  0
 42 43  2  0  0  0
 43 44  1  0  0  0
 44 45  2  0  0  0
 34 35  1  0  0  0
 35 36  1  0  0  0
 35 37  2  0  0  0
 10  2  1  0  0  0
 31 26  1  0  0  0
 45 40  1  0  0  0
 10  6  2  0  0  0
 18 13  1  0  0  0
 25 20  1  0  0  0
  1 11  1  0  0  0
  1 12  1  0  0  0
 32 33  1  0  0  0
 36 38  1  0  0  0
M  END
> <minimizedAffinity>
-8.65193

> <CNNscore>
0.5859386325

> <CNNaffinity>
7.5804643631

> <CNN_VS>
4.4416871071

> <CNNaffinity_variance>
0.1531901956

$$$$
[H]OC(=O)[C@]([H])(N([H])[C@]1([H])C([H])([H])C([H])([H])[C@]([H])(n2c([H])c(-c3c([H])c([H])c(Oc4c([H])c([H])c([H])c([H])c4[H])c([H])c3[H])c3c(N([H])[H])nc([H])nc32)C([H])([H])C1([H])[H])C([H])([H])c1c([H])c([H])c([H])c([H])c1[H]


 45 50  0  0  0  0  0  0  0  0999 V2000
  -17.9829    9.3473  -17.5508 N   0  0  0  0  0  0  0  0  0  0  0  0
  -17.9278   10.3418  -18.5553 C   0  0  0  0  0  0  0  0  0  0  0  0
  -17.1318   10.1839  -19.6551 N   0  0  0  0  0  0  0  0  0  0  0  0
  -17.0639   11.1386  -20.5939 C   0  0  0  0  0  0  0  0  0  0  0  0
  -17.7975   12.2473  -20.4207 N   0  0  0  0  0  0  0  0  0  0  0  0
  -18.6017   12.4842  -19.3777 C   0  0  0  0  0  0  0  0  0  0  0  0
  -19.4051   13.5147  -19.0104 N   0  0  0  0  0  0  0  0  0  0  0  0
  -19.9566   13.1607  -17.8376 C   0  0  0  0  0  0  0  0  0  0  0  0
  -19.5283   11.9138  -17.4290 C   0  0  0  0  0  0  0  0  0  0  0  0
  -18.6662   11.4810  -18.4036 C   0  0  0  0  0  0  0  0  0  0  0  0
  -18.4363    8.4348  -17.7601 H   0  0  0  0  0  0  0  0  0  0  0  0
  -17.5769    9.5151  -16.6078 H   0  0  0  0  0  0  0  0  0  0  0  0
  -20.0131   11.2941  -16.2109 C   0  0  0  0  0  0  0  0  0  0  0  0
  -21.1990   10.5604  -16.2440 C   0  0  0  0  0  0  0  0  0  0  0  0
  -21.7266    9.9085  -15.1629 C   0  0  0  0  0  0  0  0  0  0  0  0
  -21.0508    9.9692  -13.9399 C   0  0  0  0  0  0  0  0  0  0  0  0
  -19.8789   10.6830  -13.8715 C   0  0  0  0  0  0  0  0  0  0  0  0
  -19.3704   11.3366  -14.9998 C   0  0  0  0  0  0  0  0  0  0  0  0
  -21.5672    9.3122  -12.8162 O   0  0  0  0  0  0  0  0  0  0  0  0
  -21.7912   10.1371  -11.7004 C   0  0  0  0  0  0  0  0  0  0  0  0
  -21.8655   11.5102  -11.8254 C   0  0  0  0  0  0  0  0  0  0  0  0
  -22.0841   12.3308  -10.7406 C   0  0  0  0  0  0  0  0  0  0  0  0
  -22.2382   11.8008   -9.4772 C   0  0  0  0  0  0  0  0  0  0  0  0
  -22.1657   10.4341   -9.3430 C   0  0  0  0  0  0  0  0  0  0  0  0
  -21.9442    9.5999  -10.4393 C   0  0  0  0  0  0  0  0  0  0  0  0
  -19.5801   14.7277  -19.7858 C   0  0  0  0  0  0  0  0  0  0  0  0
  -18.6893   15.8384  -19.3226 C   0  0  0  0  0  0  0  0  0  0  0  0
  -18.6253   16.8558  -20.4562 C   0  0  0  0  0  0  0  0  0  0  0  0
  -20.0086   17.2206  -20.9091 C   0  0  0  0  0  0  0  0  0  0  0  0
  -21.0932   16.7132  -19.9382 C   0  0  0  0  0  0  0  0  0  0  0  0
  -21.0123   15.2083  -19.8182 C   0  0  0  0  0  0  0  0  0  0  0  0
  -20.1746   18.5806  -21.0673 N   0  0  0  0  0  0  0  0  0  0  0  0
  -20.0206   19.1569  -20.2269 H   0  0  0  0  0  0  0  0  0  0  0  0
  -20.2759   19.2602  -22.2927 C   0  0  0  0  0  0  0  0  0  0  0  0
  -19.1229   20.1622  -22.4014 C   0  0  0  0  0  0  0  0  0  0  0  0
  -18.7427   20.7120  -23.5894 O   0  0  0  0  0  0  0  0  0  0  0  0
  -18.4572   20.4534  -21.3793 O   0  0  0  0  0  0  0  0  0  0  0  0
  -17.9075   21.2324  -23.7656 H   0  0  0  0  0  0  0  0  0  0  0  0
  -20.5147   18.4919  -23.5079 C   0  0  0  0  0  0  0  0  0  0  0  0
  -21.7540   18.7775  -24.2313 C   0  0  0  0  0  0  0  0  0  0  0  0
  -22.6127   17.7697  -24.5964 C   0  0  0  0  0  0  0  0  0  0  0  0
  -23.7909   18.0047  -25.2794 C   0  0  0  0  0  0  0  0  0  0  0  0
  -24.1312   19.2962  -25.6146 C   0  0  0  0  0  0  0  0  0  0  0  0
  -23.2840   20.3180  -25.2577 C   0  0  0  0  0  0  0  0  0  0  0  0
  -22.1060   20.0636  -24.5725 C   0  0  0  0  0  0  0  0  0  0  0  0
  1  2  1  0  0  0
  2  3  2  0  0  0
  3  4  1  0  0  0
  4  5  2  0  0  0
  5  6  1  0  0  0
  6  7  1  0  0  0
  7  8  1  0  0  0
  8  9  2  0  0  0
  9 13  1  0  0  0
 13 14  2  0  0  0
 14 15  1  0  0  0
 15 16  2  0  0  0
 16 19  1  0  0  0
 19 20  1  0  0  0
 20 21  2  0  0  0
 21 22  1  0  0  0
 22 23  2  0  0  0
 23 24  1  0  0  0
 24 25  2  0  0  0
 16 17  1  0  0  0
 17 18  2  0  0  0
  9 10  1  0  0  0
  7 26  1  0  0  0
 26 27  1  0  0  0
 27 28  1  0  0  0
 28 29  1  0  0  0
 29 30  1  0  0  0
 30 31  1  0  0  0
 29 32  1  0  0  0
 32 34  1  0  0  0
 34 39  1  0  0  0
 39 40  1  0  0  0
 40 41  2  0  0  0
 41 42  1  0  0  0
 42 43  2  0  0  0
 43 44  1  0  0  0
 44 45  2  0  0  0
 34 35  1  0  0  0
 35 36  1  0  0  0
 35 37  2  0  0  0
 10  2  1  0  0  0
 31 26  1  0  0  0
 45 40  1  0  0  0
 10  6  2  0  0  0
 18 13  1  0  0  0
 25 20  1  0  0  0
  1 11  1  0  0  0
  1 12  1  0  0  0
 32 33  1  0  0  0
 36 38  1  0  0  0
M  END
> <minimizedAffinity>
-8.06285

> <CNNscore>
0.5207099915

> <CNNaffinity>
7.1513490677

> <CNN_VS>
3.7237789631

> <CNNaffinity_variance>
0.1755439937

$$$$
[H]OC(=O)[C@]([H])(N([H])[C@]1([H])C([H])([H])C([H])([H])[C@]([H])(n2c([H])c(-c3c([H])c([H])c(Oc4c([H])c([H])c([H])c([H])c4[H])c([H])c3[H])c3c(N([H])[H])nc([H])nc32)C([H])([H])C1([H])[H])C([H])([H])c1c([H])c([H])c([H])c([H])c1[H]


 45 50  0  0  0  0  0  0  0  0999 V2000
  -18.3268    8.7812  -17.1343 N   0  0  0  0  0  0  0  0  0  0  0  0
  -18.2013    9.9032  -17.9866 C   0  0  0  0  0  0  0  0  0  0  0  0
  -17.3219    9.8939  -19.0329 N   0  0  0  0  0  0  0  0  0  0  0  0
  -17.1885   10.9675  -19.8247 C   0  0  0  0  0  0  0  0  0  0  0  0
  -17.9409   12.0448  -19.5593 N   0  0  0  0  0  0  0  0  0  0  0  0
  -18.8247   12.1403  -18.5590 C   0  0  0  0  0  0  0  0  0  0  0  0
  -19.6611   13.1139  -18.1179 N   0  0  0  0  0  0  0  0  0  0  0  0
  -20.2989   12.6053  -17.0505 C   0  0  0  0  0  0  0  0  0  0  0  0
  -19.8947   11.3128  -16.7838 C   0  0  0  0  0  0  0  0  0  0  0  0
  -18.9571   11.0139  -17.7386 C   0  0  0  0  0  0  0  0  0  0  0  0
  -18.7564    7.9075  -17.5004 H   0  0  0  0  0  0  0  0  0  0  0  0
  -17.9958    8.8174  -16.1487 H   0  0  0  0  0  0  0  0  0  0  0  0
  -20.4677   10.5345  -15.7026 C   0  0  0  0  0  0  0  0  0  0  0  0
  -19.8697   10.5730  -14.4430 C   0  0  0  0  0  0  0  0  0  0  0  0
  -20.3468    9.9056  -13.3481 C   0  0  0  0  0  0  0  0  0  0  0  0
  -21.5041    9.1312  -13.4786 C   0  0  0  0  0  0  0  0  0  0  0  0
  -22.1195    9.0711  -14.7055 C   0  0  0  0  0  0  0  0  0  0  0  0
  -21.6013    9.7686  -15.8026 C   0  0  0  0  0  0  0  0  0  0  0  0
  -22.0154    8.4367  -12.3753 O   0  0  0  0  0  0  0  0  0  0  0  0
  -21.9631    7.0361  -12.4827 C   0  0  0  0  0  0  0  0  0  0  0  0
  -20.7587    6.3670  -12.5731 C   0  0  0  0  0  0  0  0  0  0  0  0
  -20.6926    4.9950  -12.6793 C   0  0  0  0  0  0  0  0  0  0  0  0
  -21.8425    4.2345  -12.6988 C   0  0  0  0  0  0  0  0  0  0  0  0
  -23.0468    4.8924  -12.6093 C   0  0  0  0  0  0  0  0  0  0  0  0
  -23.1177    6.2818  -12.5019 C   0  0  0  0  0  0  0  0  0  0  0  0
  -19.7843   14.4220  -18.7320 C   0  0  0  0  0  0  0  0  0  0  0  0
  -20.4404   14.3652  -20.0766 C   0  0  0  0  0  0  0  0  0  0  0  0
  -20.9182   15.7774  -20.3954 C   0  0  0  0  0  0  0  0  0  0  0  0
  -19.7998   16.7609  -20.2116 C   0  0  0  0  0  0  0  0  0  0  0  0
  -18.4335   16.0665  -20.0458 C   0  0  0  0  0  0  0  0  0  0  0  0
  -18.4651   15.1504  -18.8435 C   0  0  0  0  0  0  0  0  0  0  0  0
  -19.7033   17.6571  -21.2556 N   0  0  0  0  0  0  0  0  0  0  0  0
  -19.7014   17.2512  -22.2028 H   0  0  0  0  0  0  0  0  0  0  0  0
  -19.8656   19.0495  -21.1623 C   0  0  0  0  0  0  0  0  0  0  0  0
  -18.7524   19.6794  -21.8825 C   0  0  0  0  0  0  0  0  0  0  0  0
  -18.1041   20.7762  -21.3978 O   0  0  0  0  0  0  0  0  0  0  0  0
  -18.3665   19.2049  -22.9773 O   0  0  0  0  0  0  0  0  0  0  0  0
  -17.4252   21.3293  -21.8800 H   0  0  0  0  0  0  0  0  0  0  0  0
  -21.1599   19.6326  -21.4918 C   0  0  0  0  0  0  0  0  0  0  0  0
  -22.0312   18.8448  -22.3643 C   0  0  0  0  0  0  0  0  0  0  0  0
  -23.0978   18.1430  -21.8581 C   0  0  0  0  0  0  0  0  0  0  0  0
  -23.9401   17.3899  -22.6538 C   0  0  0  0  0  0  0  0  0  0  0  0
  -23.7136   17.3309  -24.0108 C   0  0  0  0  0  0  0  0  0  0  0  0
  -22.6507   18.0267  -24.5355 C   0  0  0  0  0  0  0  0  0  0  0  0
  -21.8159   18.7773  -23.7220 C   0  0  0  0  0  0  0  0  0  0  0  0
  1  2  1  0  0  0
  2  3  2  0  0  0
  3  4  1  0  0  0
  4  5  2  0  0  0
  5  6  1  0  0  0
  6  7  1  0  0  0
  7  8  1  0  0  0
  8  9  2  0  0  0
  9 13  1  0  0  0
 13 14  2  0  0  0
 14 15  1  0  0  0
 15 16  2  0  0  0
 16 19  1  0  0  0
 19 20  1  0  0  0
 20 21  2  0  0  0
 21 22  1  0  0  0
 22 23  2  0  0  0
 23 24  1  0  0  0
 24 25  2  0  0  0
 16 17  1  0  0  0
 17 18  2  0  0  0
  9 10  1  0  0  0
  7 26  1  0  0  0
 26 27  1  0  0  0
 27 28  1  0  0  0
 28 29  1  0  0  0
 29 30  1  0  0  0
 30 31  1  0  0  0
 29 32  1  0  0  0
 32 34  1  0  0  0
 34 39  1  0  0  0
 39 40  1  0  0  0
 40 41  2  0  0  0
 41 42  1  0  0  0
 42 43  2  0  0  0
 43 44  1  0  0  0
 44 45  2  0  0  0
 34 35  1  0  0  0
 35 36  1  0  0  0
 35 37  2  0  0  0
 10  2  1  0  0  0
 31 26  1  0  0  0
 45 40  1  0  0  0
 10  6  2  0  0  0
 18 13  1  0  0  0
 25 20  1  0  0  0
  1 11  1  0  0  0
  1 12  1  0  0  0
 32 33  1  0  0  0
 36 38  1  0  0  0
M  END
> <minimizedAffinity>
-7.90951

> <CNNscore>
0.4984913170

> <CNNaffinity>
7.1196784973

> <CNN_VS>
3.5490980148

> <CNNaffinity_variance>
0.1382812709

$$$$
[H]OC(=O)[C@]([H])(N([H])[C@]1([H])C([H])([H])C([H])([H])[C@]([H])(n2c([H])c(-c3c([H])c([H])c(Oc4c([H])c([H])c([H])c([H])c4[H])c([H])c3[H])c3c(N([H])[H])nc([H])nc32)C([H])([H])C1([H])[H])C([H])([H])c1c([H])c([H])c([H])c([H])c1[H]


 45 50  0  0  0  0  0  0  0  0999 V2000
  -16.9523    9.5878  -19.5891 N   0  0  0  0  0  0  0  0  0  0  0  0
  -16.8722   10.7564  -20.3820 C   0  0  0  0  0  0  0  0  0  0  0  0
  -16.1249   10.7772  -21.5264 N   0  0  0  0  0  0  0  0  0  0  0  0
  -16.0322   11.8933  -22.2633 C   0  0  0  0  0  0  0  0  0  0  0  0
  -16.6919   12.9826  -21.8447 N   0  0  0  0  0  0  0  0  0  0  0  0
  -17.4446   13.0509  -20.7403 C   0  0  0  0  0  0  0  0  0  0  0  0
  -18.1721   14.0291  -20.1436 N   0  0  0  0  0  0  0  0  0  0  0  0
  -18.7035   13.4801  -19.0386 C   0  0  0  0  0  0  0  0  0  0  0  0
  -18.3368   12.1567  -18.9003 C   0  0  0  0  0  0  0  0  0  0  0  0
  -17.5357   11.8802  -19.9784 C   0  0  0  0  0  0  0  0  0  0  0  0
  -17.4662    8.7591  -19.9514 H   0  0  0  0  0  0  0  0  0  0  0  0
  -16.5052    9.5453  -18.6507 H   0  0  0  0  0  0  0  0  0  0  0  0
  -18.8160   11.3352  -17.8056 C   0  0  0  0  0  0  0  0  0  0  0  0
  -19.6245   11.9096  -16.8248 C   0  0  0  0  0  0  0  0  0  0  0  0
  -20.1569   11.2192  -15.7703 C   0  0  0  0  0  0  0  0  0  0  0  0
  -19.8858    9.8524  -15.6500 C   0  0  0  0  0  0  0  0  0  0  0  0
  -19.0930    9.2539  -16.5991 C   0  0  0  0  0  0  0  0  0  0  0  0
  -18.5666    9.9937  -17.6641 C   0  0  0  0  0  0  0  0  0  0  0  0
  -20.4168    9.1202  -14.5809 O   0  0  0  0  0  0  0  0  0  0  0  0
  -20.9218    7.8543  -14.9248 C   0  0  0  0  0  0  0  0  0  0  0  0
  -20.2316    6.6981  -14.6192 C   0  0  0  0  0  0  0  0  0  0  0  0
  -20.7144    5.4511  -14.9506 C   0  0  0  0  0  0  0  0  0  0  0  0
  -21.9191    5.3145  -15.6070 C   0  0  0  0  0  0  0  0  0  0  0  0
  -22.6136    6.4607  -15.9155 C   0  0  0  0  0  0  0  0  0  0  0  0
  -22.1277    7.7253  -15.5817 C   0  0  0  0  0  0  0  0  0  0  0  0
  -18.3007   15.3784  -20.6593 C   0  0  0  0  0  0  0  0  0  0  0  0
  -18.1338   16.4179  -19.5947 C   0  0  0  0  0  0  0  0  0  0  0  0
  -17.8323   17.7331  -20.3044 C   0  0  0  0  0  0  0  0  0  0  0  0
  -18.8517   17.9949  -21.3740 C   0  0  0  0  0  0  0  0  0  0  0  0
  -20.0618   17.0453  -21.2716 C   0  0  0  0  0  0  0  0  0  0  0  0
  -19.6010   15.6105  -21.3931 C   0  0  0  0  0  0  0  0  0  0  0  0
  -19.3197   19.2921  -21.3561 N   0  0  0  0  0  0  0  0  0  0  0  0
  -19.8316   19.6010  -22.1954 H   0  0  0  0  0  0  0  0  0  0  0  0
  -19.3895   20.1261  -20.2276 C   0  0  0  0  0  0  0  0  0  0  0  0
  -19.1224   21.5003  -20.6690 C   0  0  0  0  0  0  0  0  0  0  0  0
  -18.9126   21.8126  -21.9792 O   0  0  0  0  0  0  0  0  0  0  0  0
  -19.0882   22.4319  -19.8302 O   0  0  0  0  0  0  0  0  0  0  0  0
  -18.6083   22.6934  -22.3411 H   0  0  0  0  0  0  0  0  0  0  0  0
  -20.5458   20.0254  -19.3463 C   0  0  0  0  0  0  0  0  0  0  0  0
  -20.4381   19.0886  -18.2275 C   0  0  0  0  0  0  0  0  0  0  0  0
  -21.3443   18.0697  -18.0634 C   0  0  0  0  0  0  0  0  0  0  0  0
  -21.2712   17.1678  -17.0188 C   0  0  0  0  0  0  0  0  0  0  0  0
  -20.2545   17.2825  -16.0973 C   0  0  0  0  0  0  0  0  0  0  0  0
  -19.3381   18.2962  -16.2452 C   0  0  0  0  0  0  0  0  0  0  0  0
  -19.4269   19.1921  -17.2996 C   0  0  0  0  0  0  0  0  0  0  0  0
  1  2  1  0  0  0
  2  3  2  0  0  0
  3  4  1  0  0  0
  4  5  2  0  0  0
  5  6  1  0  0  0
  6  7  1  0  0  0
  7  8  1  0  0  0
  8  9  2  0  0  0
  9 13  1  0  0  0
 13 14  2  0  0  0
 14 15  1  0  0  0
 15 16  2  0  0  0
 16 19  1  0  0  0
 19 20  1  0  0  0
 20 21  2  0  0  0
 21 22  1  0  0  0
 22 23  2  0  0  0
 23 24  1  0  0  0
 24 25  2  0  0  0
 16 17  1  0  0  0
 17 18  2  0  0  0
  9 10  1  0  0  0
  7 26  1  0  0  0
 26 27  1  0  0  0
 27 28  1  0  0  0
 28 29  1  0  0  0
 29 30  1  0  0  0
 30 31  1  0  0  0
 29 32  1  0  0  0
 32 34  1  0  0  0
 34 39  1  0  0  0
 39 40  1  0  0  0
 40 41  2  0  0  0
 41 42  1  0  0  0
 42 43  2  0  0  0
 43 44  1  0  0  0
 44 45  2  0  0  0
 34 35  1  0  0  0
 35 36  1  0  0  0
 35 37  2  0  0  0
 10  2  1  0  0  0
 31 26  1  0  0  0
 45 40  1  0  0  0
 10  6  2  0  0  0
 18 13  1  0  0  0
 25 20  1  0  0  0
  1 11  1  0  0  0
  1 12  1  0  0  0
 32 33  1  0  0  0
 36 38  1  0  0  0
M  END
> <minimizedAffinity>
-8.17856

> <CNNscore>
0.4876962602

> <CNNaffinity>
7.4096307755

> <CNN_VS>
3.6136491299

> <CNNaffinity_variance>
0.1831825674

$$$$
[H]OC(=O)[C@@]([H])(N([H])[C@]1([H])C([H])([H])C([H])([H])[C@@]([H])(n2c([H])c(-c3c([H])c([H])c(Oc4c([H])c([H])c([H])c([H])c4[H])c([H])c3[H])c3c(N([H])[H])nc([H])nc32)C([H])([H])C1([H])[H])C([H])([H])c1c([H])c([H])c([H])c([H])c1[H]


 45 50  0  0  0  0  0  0  0  0999 V2000
  -17.7851    9.2840  -17.5053 N   0  0  0  0  0  0  0  0  0  0  0  0
  -17.7833   10.2453  -18.5458 C   0  0  0  0  0  0  0  0  0  0  0  0
  -16.9898   10.1115  -19.6311 N   0  0  0  0  0  0  0  0  0  0  0  0
  -16.9814   11.0061  -20.6291 C   0  0  0  0  0  0  0  0  0  0  0  0
  -17.7844   12.0629  -20.5448 N   0  0  0  0  0  0  0  0  0  0  0  0
  -18.6159   12.2908  -19.5032 C   0  0  0  0  0  0  0  0  0  0  0  0
  -19.5006   13.2600  -19.2154 N   0  0  0  0  0  0  0  0  0  0  0  0
  -20.0485   12.9701  -18.0599 C   0  0  0  0  0  0  0  0  0  0  0  0
  -19.5169   11.7806  -17.5634 C   0  0  0  0  0  0  0  0  0  0  0  0
  -18.6089   11.3502  -18.4788 C   0  0  0  0  0  0  0  0  0  0  0  0
  -17.0346    9.1768  -16.7826 H   0  0  0  0  0  0  0  0  0  0  0  0
  -18.6279    8.6363  -17.4836 H   0  0  0  0  0  0  0  0  0  0  0  0
  -19.8276   11.1366  -16.2983 C   0  0  0  0  0  0  0  0  0  0  0  0
  -20.6314   10.0088  -16.2289 C   0  0  0  0  0  0  0  0  0  0  0  0
  -20.9399    9.4455  -15.0126 C   0  0  0  0  0  0  0  0  0  0  0  0
  -20.4629    9.9808  -13.8357 C   0  0  0  0  0  0  0  0  0  0  0  0
  -19.6566   11.1064  -13.8747 C   0  0  0  0  0  0  0  0  0  0  0  0
  -19.3584   11.6557  -15.0944 C   0  0  0  0  0  0  0  0  0  0  0  0
  -20.7667    9.4213  -12.5796 O   0  0  0  0  0  0  0  0  0  0  0  0
  -19.8089    9.4045  -11.5861 C   0  0  0  0  0  0  0  0  0  0  0  0
  -18.7984    8.4990  -11.5645 C   0  0  0  0  0  0  0  0  0  0  0  0
  -17.8402    8.5049  -10.5452 C   0  0  0  0  0  0  0  0  0  0  0  0
  -17.9302    9.4486   -9.5507 C   0  0  0  0  0  0  0  0  0  0  0  0
  -18.9471   10.3794   -9.5498 C   0  0  0  0  0  0  0  0  0  0  0  0
  -19.8920   10.3490  -10.5832 C   0  0  0  0  0  0  0  0  0  0  0  0
  -19.6999   14.4025  -20.1226 C   0  0  0  0  0  0  0  0  0  0  0  0
  -21.0190   15.0195  -20.0673 C   0  0  0  0  0  0  0  0  0  0  0  0
  -21.1384   16.4705  -19.7090 C   0  0  0  0  0  0  0  0  0  0  0  0
  -20.0084   17.2132  -20.4402 C   0  0  0  0  0  0  0  0  0  0  0  0
  -18.7531   16.7182  -19.7975 C   0  0  0  0  0  0  0  0  0  0  0  0
  -18.4994   15.2667  -19.9661 C   0  0  0  0  0  0  0  0  0  0  0  0
  -20.1169   17.0709  -21.8455 N   0  0  0  0  0  0  0  0  0  0  0  0
  -20.3726   16.1557  -22.2176 H   0  0  0  0  0  0  0  0  0  0  0  0
  -18.8885   17.4809  -22.5751 C   0  0  0  0  0  0  0  0  0  0  0  0
  -19.0065   18.9068  -22.8491 C   0  0  0  0  0  0  0  0  0  0  0  0
  -18.3763   19.8400  -22.0673 O   0  0  0  0  0  0  0  0  0  0  0  0
  -19.7009   19.3057  -23.8164 O   0  0  0  0  0  0  0  0  0  0  0  0
  -18.9455   20.3603  -21.3996 H   0  0  0  0  0  0  0  0  0  0  0  0
  -18.8657   16.6512  -23.8399 C   0  0  0  0  0  0  0  0  0  0  0  0
  -17.9545   15.5243  -23.8781 C   0  0  0  0  0  0  0  0  0  0  0  0
  -16.8247   15.5392  -23.0660 C   0  0  0  0  0  0  0  0  0  0  0  0
  -15.9778   14.4486  -23.0690 C   0  0  0  0  0  0  0  0  0  0  0  0
  -16.2576   13.3626  -23.8717 C   0  0  0  0  0  0  0  0  0  0  0  0
  -17.3739   13.3242  -24.6881 C   0  0  0  0  0  0  0  0  0  0  0  0
  -18.1991   14.4103  -24.6719 C   0  0  0  0  0  0  0  0  0  0  0  0
  1  2  1  0  0  0
  2  3  2  0  0  0
  3  4  1  0  0  0
  4  5  2  0  0  0
  5  6  1  0  0  0
  6  7  1  0  0  0
  7  8  1  0  0  0
  8  9  2  0  0  0
  9 13  1  0  0  0
 13 14  2  0  0  0
 14 15  1  0  0  0
 15 16  2  0  0  0
 16 19  1  0  0  0
 19 20  1  0  0  0
 20 21  2  0  0  0
 21 22  1  0  0  0
 22 23  2  0  0  0
 23 24  1  0  0  0
 24 25  2  0  0  0
 16 17  1  0  0  0
 17 18  2  0  0  0
  9 10  1  0  0  0
  7 26  1  0  0  0
 26 27  1  0  0  0
 27 28  1  0  0  0
 28 29  1  0  0  0
 29 30  1  0  0  0
 30 31  1  0  0  0
 29 32  1  0  0  0
 32 34  1  0  0  0
 34 39  1  0  0  0
 39 40  1  0  0  0
 40 41  2  0  0  0
 41 42  1  0  0  0
 42 43  2  0  0  0
 43 44  1  0  0  0
 44 45  2  0  0  0
 34 35  1  0  0  0
 35 36  1  0  0  0
 35 37  2  0  0  0
 10  2  1  0  0  0
 31 26  1  0  0  0
 45 40  1  0  0  0
 10  6  2  0  0  0
 18 13  1  0  0  0
 25 20  1  0  0  0
  1 11  1  0  0  0
  1 12  1  0  0  0
 32 33  1  0  0  0
 36 38  1  0  0  0
M  END
> <minimizedAffinity>
-9.31273

> <CNNscore>
0.6815719604

> <CNNaffinity>
7.6084146500

> <CNN_VS>
5.1856822968

> <CNNaffinity_variance>
0.0972068310

$$$$
[H]OC(=O)[C@@]([H])(N([H])[C@]1([H])C([H])([H])C([H])([H])[C@@]([H])(n2c([H])c(-c3c([H])c([H])c(Oc4c([H])c([H])c([H])c([H])c4[H])c([H])c3[H])c3c(N([H])[H])nc([H])nc32)C([H])([H])C1([H])[H])C([H])([H])c1c([H])c([H])c([H])c([H])c1[H]


 45 50  0  0  0  0  0  0  0  0999 V2000
  -16.9709   10.1641  -20.3156 N   0  0  0  0  0  0  0  0  0  0  0  0
  -16.9029   11.3732  -21.0505 C   0  0  0  0  0  0  0  0  0  0  0  0
  -16.2245   11.4554  -22.2160 N   0  0  0  0  0  0  0  0  0  0  0  0
  -16.1567   12.5881  -22.9291 C   0  0  0  0  0  0  0  0  0  0  0  0
  -16.7811   13.6690  -22.4698 N   0  0  0  0  0  0  0  0  0  0  0  0
  -17.4861   13.6934  -21.3163 C   0  0  0  0  0  0  0  0  0  0  0  0
  -18.1886   14.6433  -20.6767 N   0  0  0  0  0  0  0  0  0  0  0  0
  -18.6840   14.1077  -19.5871 C   0  0  0  0  0  0  0  0  0  0  0  0
  -18.3028   12.7698  -19.4957 C   0  0  0  0  0  0  0  0  0  0  0  0
  -17.5435   12.5074  -20.5922 C   0  0  0  0  0  0  0  0  0  0  0  0
  -16.1923    9.7636  -19.7409 H   0  0  0  0  0  0  0  0  0  0  0  0
  -17.8981    9.6470  -20.3721 H   0  0  0  0  0  0  0  0  0  0  0  0
  -18.6098   11.8369  -18.4245 C   0  0  0  0  0  0  0  0  0  0  0  0
  -18.1583   10.5260  -18.4436 C   0  0  0  0  0  0  0  0  0  0  0  0
  -18.4991    9.6558  -17.4345 C   0  0  0  0  0  0  0  0  0  0  0  0
  -19.2932   10.0576  -16.3823 C   0  0  0  0  0  0  0  0  0  0  0  0
  -19.7577   11.3618  -16.3363 C   0  0  0  0  0  0  0  0  0  0  0  0
  -19.4093   12.2165  -17.3494 C   0  0  0  0  0  0  0  0  0  0  0  0
  -19.6553    9.1835  -15.3391 O   0  0  0  0  0  0  0  0  0  0  0  0
  -20.7453    8.3504  -15.4891 C   0  0  0  0  0  0  0  0  0  0  0  0
  -20.6178    7.0186  -15.7163 C   0  0  0  0  0  0  0  0  0  0  0  0
  -21.7402    6.1968  -15.8642 C   0  0  0  0  0  0  0  0  0  0  0  0
  -22.9923    6.7557  -15.7762 C   0  0  0  0  0  0  0  0  0  0  0  0
  -23.1488    8.1060  -15.5461 C   0  0  0  0  0  0  0  0  0  0  0  0
  -22.0067    8.9038  -15.4023 C   0  0  0  0  0  0  0  0  0  0  0  0
  -18.2810   16.0118  -21.2120 C   0  0  0  0  0  0  0  0  0  0  0  0
  -17.0226   16.7443  -21.2707 C   0  0  0  0  0  0  0  0  0  0  0  0
  -16.5275   17.2522  -22.5917 C   0  0  0  0  0  0  0  0  0  0  0  0
  -17.7428   17.8152  -23.3461 C   0  0  0  0  0  0  0  0  0  0  0  0
  -18.5914   16.6206  -23.6406 C   0  0  0  0  0  0  0  0  0  0  0  0
  -19.1111   15.9171  -22.4427 C   0  0  0  0  0  0  0  0  0  0  0  0
  -18.3478   18.8809  -22.6355 N   0  0  0  0  0  0  0  0  0  0  0  0
  -18.6018   18.7249  -21.6595 H   0  0  0  0  0  0  0  0  0  0  0  0
  -19.5692   19.4106  -23.2967 C   0  0  0  0  0  0  0  0  0  0  0  0
  -19.2994   20.7977  -23.6511 C   0  0  0  0  0  0  0  0  0  0  0  0
  -18.8879   21.7086  -22.7129 O   0  0  0  0  0  0  0  0  0  0  0  0
  -19.4468   21.1837  -24.8369 O   0  0  0  0  0  0  0  0  0  0  0  0
  -19.5755   22.3808  -22.3724 H   0  0  0  0  0  0  0  0  0  0  0  0
  -20.6778   19.2823  -22.2753 C   0  0  0  0  0  0  0  0  0  0  0  0
  -21.8381   18.4983  -22.6501 C   0  0  0  0  0  0  0  0  0  0  0  0
  -22.5994   17.8961  -21.6531 C   0  0  0  0  0  0  0  0  0  0  0  0
  -23.7290   17.1842  -22.0047 C   0  0  0  0  0  0  0  0  0  0  0  0
  -24.0895   17.0772  -23.3317 C   0  0  0  0  0  0  0  0  0  0  0  0
  -23.3489   17.6662  -24.3409 C   0  0  0  0  0  0  0  0  0  0  0  0
  -22.2363   18.3655  -23.9748 C   0  0  0  0  0  0  0  0  0  0  0  0
  1  2  1  0  0  0
  2  3  2  0  0  0
  3  4  1  0  0  0
  4  5  2  0  0  0
  5  6  1  0  0  0
  6  7  1  0  0  0
  7  8  1  0  0  0
  8  9  2  0  0  0
  9 13  1  0  0  0
 13 14  2  0  0  0
 14 15  1  0  0  0
 15 16  2  0  0  0
 16 19  1  0  0  0
 19 20  1  0  0  0
 20 21  2  0  0  0
 21 22  1  0  0  0
 22 23  2  0  0  0
 23 24  1  0  0  0
 24 25  2  0  0  0
 16 17  1  0  0  0
 17 18  2  0  0  0
  9 10  1  0  0  0
  7 26  1  0  0  0
 26 27  1  0  0  0
 27 28  1  0  0  0
 28 29  1  0  0  0
 29 30  1  0  0  0
 30 31  1  0  0  0
 29 32  1  0  0  0
 32 34  1  0  0  0
 34 39  1  0  0  0
 39 40  1  0  0  0
 40 41  2  0  0  0
 41 42  1  0  0  0
 42 43  2  0  0  0
 43 44  1  0  0  0
 44 45  2  0  0  0
 34 35  1  0  0  0
 35 36  1  0  0  0
 35 37  2  0  0  0
 10  2  1  0  0  0
 31 26  1  0  0  0
 45 40  1  0  0  0
 10  6  2  0  0  0
 18 13  1  0  0  0
 25 20  1  0  0  0
  1 11  1  0  0  0
  1 12  1  0  0  0
 32 33  1  0  0  0
 36 38  1  0  0  0
M  END
> <minimizedAffinity>
-9.38767

> <CNNscore>
0.6304469109

> <CNNaffinity>
7.6738004684

> <CNN_VS>
4.8379240036

> <CNNaffinity_variance>
0.1348540485

$$$$
[H]OC(=O)[C@@]([H])(N([H])[C@]1([H])C([H])([H])C([H])([H])[C@@]([H])(n2c([H])c(-c3c([H])c([H])c(Oc4c([H])c([H])c([H])c([H])c4[H])c([H])c3[H])c3c(N([H])[H])nc([H])nc32)C([H])([H])C1([H])[H])C([H])([H])c1c([H])c([H])c([H])c([H])c1[H]


 45 50  0  0  0  0  0  0  0  0999 V2000
  -18.1169    9.2143  -17.1515 N   0  0  0  0  0  0  0  0  0  0  0  0
  -18.0422   10.1552  -18.2079 C   0  0  0  0  0  0  0  0  0  0  0  0
  -17.2144    9.9733  -19.2600 N   0  0  0  0  0  0  0  0  0  0  0  0
  -17.1370   10.8481  -20.2724 C   0  0  0  0  0  0  0  0  0  0  0  0
  -17.9043   11.9338  -20.2370 N   0  0  0  0  0  0  0  0  0  0  0  0
  -18.7652   12.2103  -19.2317 C   0  0  0  0  0  0  0  0  0  0  0  0
  -19.6248   13.2151  -18.9944 N   0  0  0  0  0  0  0  0  0  0  0  0
  -20.2252   12.9663  -17.8555 C   0  0  0  0  0  0  0  0  0  0  0  0
  -19.7552   11.7685  -17.3186 C   0  0  0  0  0  0  0  0  0  0  0  0
  -18.8298   11.2894  -18.1915 C   0  0  0  0  0  0  0  0  0  0  0  0
  -17.3981    9.0945  -16.3993 H   0  0  0  0  0  0  0  0  0  0  0  0
  -18.9825    8.5970  -17.1503 H   0  0  0  0  0  0  0  0  0  0  0  0
  -20.1353   11.1597  -16.0551 C   0  0  0  0  0  0  0  0  0  0  0  0
  -21.0884   10.1550  -15.9840 C   0  0  0  0  0  0  0  0  0  0  0  0
  -21.4557    9.6263  -14.7685 C   0  0  0  0  0  0  0  0  0  0  0  0
  -20.8919   10.0758  -13.5941 C   0  0  0  0  0  0  0  0  0  0  0  0
  -19.9363   11.0776  -13.6348 C   0  0  0  0  0  0  0  0  0  0  0  0
  -19.5812   11.5939  -14.8537 C   0  0  0  0  0  0  0  0  0  0  0  0
  -21.2536    9.5498  -12.3388 O   0  0  0  0  0  0  0  0  0  0  0  0
  -20.3361    9.5422  -11.3078 C   0  0  0  0  0  0  0  0  0  0  0  0
  -20.4438   10.3618  -10.2316 C   0  0  0  0  0  0  0  0  0  0  0  0
  -19.4992   10.3331   -9.2000 C   0  0  0  0  0  0  0  0  0  0  0  0
  -18.4455    9.4555   -9.2848 C   0  0  0  0  0  0  0  0  0  0  0  0
  -18.3134    8.6124  -10.3676 C   0  0  0  0  0  0  0  0  0  0  0  0
  -19.2744    8.6637  -11.3852 C   0  0  0  0  0  0  0  0  0  0  0  0
  -19.7494   14.3465  -19.9284 C   0  0  0  0  0  0  0  0  0  0  0  0
  -21.1147   14.7473  -20.2432 C   0  0  0  0  0  0  0  0  0  0  0  0
  -21.5592   16.1469  -19.9407 C   0  0  0  0  0  0  0  0  0  0  0  0
  -20.4071   17.0847  -20.3360 C   0  0  0  0  0  0  0  0  0  0  0  0
  -19.3128   16.7675  -19.3686 C   0  0  0  0  0  0  0  0  0  0  0  0
  -18.7927   15.3810  -19.4517 C   0  0  0  0  0  0  0  0  0  0  0  0
  -20.1028   16.9816  -21.7157 N   0  0  0  0  0  0  0  0  0  0  0  0
  -19.1434   16.7564  -21.9808 H   0  0  0  0  0  0  0  0  0  0  0  0
  -20.4675   18.1961  -22.4911 C   0  0  0  0  0  0  0  0  0  0  0  0
  -20.0366   19.3494  -21.7123 C   0  0  0  0  0  0  0  0  0  0  0  0
  -18.7078   19.6244  -21.5169 O   0  0  0  0  0  0  0  0  0  0  0  0
  -20.8890   20.1151  -21.1985 O   0  0  0  0  0  0  0  0  0  0  0  0
  -18.3076   19.4021  -20.6053 H   0  0  0  0  0  0  0  0  0  0  0  0
  -21.9703   18.1419  -22.6568 C   0  0  0  0  0  0  0  0  0  0  0  0
  -22.5028   18.4166  -23.9768 C   0  0  0  0  0  0  0  0  0  0  0  0
  -22.3499   19.6897  -24.5172 C   0  0  0  0  0  0  0  0  0  0  0  0
  -22.8186   19.9421  -25.7913 C   0  0  0  0  0  0  0  0  0  0  0  0
  -23.4300   18.9370  -26.5110 C   0  0  0  0  0  0  0  0  0  0  0  0
  -23.5944   17.6637  -25.9955 C   0  0  0  0  0  0  0  0  0  0  0  0
  -23.1251   17.4328  -24.7356 C   0  0  0  0  0  0  0  0  0  0  0  0
  1  2  1  0  0  0
  2  3  2  0  0  0
  3  4  1  0  0  0
  4  5  2  0  0  0
  5  6  1  0  0  0
  6  7  1  0  0  0
  7  8  1  0  0  0
  8  9  2  0  0  0
  9 13  1  0  0  0
 13 14  2  0  0  0
 14 15  1  0  0  0
 15 16  2  0  0  0
 16 19  1  0  0  0
 19 20  1  0  0  0
 20 21  2  0  0  0
 21 22  1  0  0  0
 22 23  2  0  0  0
 23 24  1  0  0  0
 24 25  2  0  0  0
 16 17  1  0  0  0
 17 18  2  0  0  0
  9 10  1  0  0  0
  7 26  1  0  0  0
 26 27  1  0  0  0
 27 28  1  0  0  0
 28 29  1  0  0  0
 29 30  1  0  0  0
 30 31  1  0  0  0
 29 32  1  0  0  0
 32 34  1  0  0  0
 34 39  1  0  0  0
 39 40  1  0  0  0
 40 41  2  0  0  0
 41 42  1  0  0  0
 42 43  2  0  0  0
 43 44  1  0  0  0
 44 45  2  0  0  0
 34 35  1  0  0  0
 35 36  1  0  0  0
 35 37  2  0  0  0
 10  2  1  0  0  0
 31 26  1  0  0  0
 45 40  1  0  0  0
 10  6  2  0  0  0
 18 13  1  0  0  0
 25 20  1  0  0  0
  1 11  1  0  0  0
  1 12  1  0  0  0
 32 33  1  0  0  0
 36 38  1  0  0  0
M  END
> <minimizedAffinity>
-8.57035

> <CNNscore>
0.5456318855

> <CNNaffinity>
7.2258734703

> <CNN_VS>
3.9426670074

> <CNNaffinity_variance>
0.1330149472

$$$$
[H]OC(=O)[C@@]([H])(N([H])[C@]1([H])C([H])([H])C([H])([H])[C@@]([H])(n2c([H])c(-c3c([H])c([H])c(Oc4c([H])c([H])c([H])c([H])c4[H])c([H])c3[H])c3c(N([H])[H])nc([H])nc32)C([H])([H])C1([H])[H])C([H])([H])c1c([H])c([H])c([H])c([H])c1[H]


 45 50  0  0  0  0  0  0  0  0999 V2000
  -18.0730    9.2551  -17.3679 N   0  0  0  0  0  0  0  0  0  0  0  0
  -17.8807   10.1938  -18.4113 C   0  0  0  0  0  0  0  0  0  0  0  0
  -16.9961    9.9721  -19.4082 N   0  0  0  0  0  0  0  0  0  0  0  0
  -16.8075   10.8446  -20.4079 C   0  0  0  0  0  0  0  0  0  0  0  0
  -17.5184   11.9687  -20.4159 N   0  0  0  0  0  0  0  0  0  0  0  0
  -18.4279   12.2866  -19.4672 C   0  0  0  0  0  0  0  0  0  0  0  0
  -19.2481   13.3341  -19.2803 N   0  0  0  0  0  0  0  0  0  0  0  0
  -19.9338   13.1136  -18.1847 C   0  0  0  0  0  0  0  0  0  0  0  0
  -19.5626   11.8915  -17.6257 C   0  0  0  0  0  0  0  0  0  0  0  0
  -18.6079   11.3674  -18.4392 C   0  0  0  0  0  0  0  0  0  0  0  0
  -17.4121    9.0960  -16.5711 H   0  0  0  0  0  0  0  0  0  0  0  0
  -18.9675    8.6836  -17.4271 H   0  0  0  0  0  0  0  0  0  0  0  0
  -20.0556   11.2996  -16.3935 C   0  0  0  0  0  0  0  0  0  0  0  0
  -21.0598   10.3433  -16.3913 C   0  0  0  0  0  0  0  0  0  0  0  0
  -21.5330    9.8310  -15.2058 C   0  0  0  0  0  0  0  0  0  0  0  0
  -21.0272   10.2494  -13.9941 C   0  0  0  0  0  0  0  0  0  0  0  0
  -20.0226   11.2027  -13.9659 C   0  0  0  0  0  0  0  0  0  0  0  0
  -19.5620   11.7033  -15.1557 C   0  0  0  0  0  0  0  0  0  0  0  0
  -21.4972    9.7394  -12.7684 O   0  0  0  0  0  0  0  0  0  0  0  0
  -22.8500    9.7483  -12.4951 C   0  0  0  0  0  0  0  0  0  0  0  0
  -23.5511   10.8980  -12.3276 C   0  0  0  0  0  0  0  0  0  0  0  0
  -24.9225   10.8781  -12.0517 C   0  0  0  0  0  0  0  0  0  0  0  0
  -25.5649    9.6679  -11.9500 C   0  0  0  0  0  0  0  0  0  0  0  0
  -24.8753    8.4857  -12.1159 C   0  0  0  0  0  0  0  0  0  0  0  0
  -23.5030    8.5368  -12.3913 C   0  0  0  0  0  0  0  0  0  0  0  0
  -19.2526   14.4731  -20.2134 C   0  0  0  0  0  0  0  0  0  0  0  0
  -20.5306   15.1592  -20.3531 C   0  0  0  0  0  0  0  0  0  0  0  0
  -20.6220   16.6192  -20.0241 C   0  0  0  0  0  0  0  0  0  0  0  0
  -19.3601   17.2917  -20.5883 C   0  0  0  0  0  0  0  0  0  0  0  0
  -18.2391   16.7401  -19.7678 C   0  0  0  0  0  0  0  0  0  0  0  0
  -18.0424   15.2751  -19.8896 C   0  0  0  0  0  0  0  0  0  0  0  0
  -19.2723   17.1364  -21.9936 N   0  0  0  0  0  0  0  0  0  0  0  0
  -19.2053   16.1900  -22.3693 H   0  0  0  0  0  0  0  0  0  0  0  0
  -18.1497   17.8983  -22.6008 C   0  0  0  0  0  0  0  0  0  0  0  0
  -18.6035   19.2724  -22.7690 C   0  0  0  0  0  0  0  0  0  0  0  0
  -18.4047   20.2157  -21.7942 O   0  0  0  0  0  0  0  0  0  0  0  0
  -19.1955   19.6145  -23.8223 O   0  0  0  0  0  0  0  0  0  0  0  0
  -19.2052   20.4774  -21.2186 H   0  0  0  0  0  0  0  0  0  0  0  0
  -17.8611   17.2212  -23.9226 C   0  0  0  0  0  0  0  0  0  0  0  0
  -17.3742   15.8565  -23.8768 C   0  0  0  0  0  0  0  0  0  0  0  0
  -16.2322   15.5695  -23.1355 C   0  0  0  0  0  0  0  0  0  0  0  0
  -15.7908   14.2636  -23.0557 C   0  0  0  0  0  0  0  0  0  0  0  0
  -16.4810   13.2630  -23.7073 C   0  0  0  0  0  0  0  0  0  0  0  0
  -17.6183   13.5232  -24.4508 C   0  0  0  0  0  0  0  0  0  0  0  0
  -18.0396   14.8189  -24.5183 C   0  0  0  0  0  0  0  0  0  0  0  0
  1  2  1  0  0  0
  2  3  2  0  0  0
  3  4  1  0  0  0
  4  5  2  0  0  0
  5  6  1  0  0  0
  6  7  1  0  0  0
  7  8  1  0  0  0
  8  9  2  0  0  0
  9 13  1  0  0  0
 13 14  2  0  0  0
 14 15  1  0  0  0
 15 16  2  0  0  0
 16 19  1  0  0  0
 19 20  1  0  0  0
 20 21  2  0  0  0
 21 22  1  0  0  0
 22 23  2  0  0  0
 23 24  1  0  0  0
 24 25  2  0  0  0
 16 17  1  0  0  0
 17 18  2  0  0  0
  9 10  1  0  0  0
  7 26  1  0  0  0
 26 27  1  0  0  0
 27 28  1  0  0  0
 28 29  1  0  0  0
 29 30  1  0  0  0
 30 31  1  0  0  0
 29 32  1  0  0  0
 32 34  1  0  0  0
 34 39  1  0  0  0
 39 40  1  0  0  0
 40 41  2  0  0  0
 41 42  1  0  0  0
 42 43  2  0  0  0
 43 44  1  0  0  0
 44 45  2  0  0  0
 34 35  1  0  0  0
 35 36  1  0  0  0
 35 37  2  0  0  0
 10  2  1  0  0  0
 31 26  1  0  0  0
 45 40  1  0  0  0
 10  6  2  0  0  0
 18 13  1  0  0  0
 25 20  1  0  0  0
  1 11  1  0  0  0
  1 12  1  0  0  0
 32 33  1  0  0  0
 36 38  1  0  0  0
M  END
> <minimizedAffinity>
-8.42402

> <CNNscore>
0.5363245010

> <CNNaffinity>
7.4653258324

> <CNN_VS>
4.0038371086

> <CNNaffinity_variance>
0.1117120236

$$$$
[H]OC(=O)[C@@]([H])(N([H])[C@]1([H])C([H])([H])C([H])([H])[C@@]([H])(n2c([H])c(-c3c([H])c([H])c(Oc4c([H])c([H])c([H])c([H])c4[H])c([H])c3[H])c3c(N([H])[H])nc([H])nc32)C([H])([H])C1([H])[H])C([H])([H])c1c([H])c([H])c([H])c([H])c1[H]


 45 50  0  0  0  0  0  0  0  0999 V2000
  -18.1216    9.1928  -17.3439 N   0  0  0  0  0  0  0  0  0  0  0  0
  -17.8634   10.1973  -18.3088 C   0  0  0  0  0  0  0  0  0  0  0  0
  -16.9936    9.9970  -19.3231 N   0  0  0  0  0  0  0  0  0  0  0  0
  -16.7436   10.9323  -20.2498 C   0  0  0  0  0  0  0  0  0  0  0  0
  -17.3765   12.0991  -20.1652 N   0  0  0  0  0  0  0  0  0  0  0  0
  -18.2646   12.4006  -19.1912 C   0  0  0  0  0  0  0  0  0  0  0  0
  -19.0122   13.4829  -18.9181 N   0  0  0  0  0  0  0  0  0  0  0  0
  -19.7140   13.2220  -17.8417 C   0  0  0  0  0  0  0  0  0  0  0  0
  -19.4280   11.9364  -17.3841 C   0  0  0  0  0  0  0  0  0  0  0  0
  -18.5092   11.4160  -18.2400 C   0  0  0  0  0  0  0  0  0  0  0  0
  -17.4751    8.9255  -16.5645 H   0  0  0  0  0  0  0  0  0  0  0  0
  -19.0528    8.6900  -17.4461 H   0  0  0  0  0  0  0  0  0  0  0  0
  -19.9632   11.2822  -16.2020 C   0  0  0  0  0  0  0  0  0  0  0  0
  -19.4699   11.5453  -14.9331 C   0  0  0  0  0  0  0  0  0  0  0  0
  -19.9703   10.8802  -13.8381 C   0  0  0  0  0  0  0  0  0  0  0  0
  -20.9692    9.9397  -13.9683 C   0  0  0  0  0  0  0  0  0  0  0  0
  -21.4820    9.6573  -15.2236 C   0  0  0  0  0  0  0  0  0  0  0  0
  -20.9727   10.3286  -16.3046 C   0  0  0  0  0  0  0  0  0  0  0  0
  -21.4955    9.2461  -12.8614 O   0  0  0  0  0  0  0  0  0  0  0  0
  -20.6441    8.5997  -11.9885 C   0  0  0  0  0  0  0  0  0  0  0  0
  -19.8794    7.5439  -12.3655 C   0  0  0  0  0  0  0  0  0  0  0  0
  -19.0241    6.9071  -11.4599 C   0  0  0  0  0  0  0  0  0  0  0  0
  -18.9623    7.3650  -10.1660 C   0  0  0  0  0  0  0  0  0  0  0  0
  -19.7289    8.4357   -9.7580 C   0  0  0  0  0  0  0  0  0  0  0  0
  -20.5760    9.0533  -10.6868 C   0  0  0  0  0  0  0  0  0  0  0  0
  -18.9370   14.6911  -19.7564 C   0  0  0  0  0  0  0  0  0  0  0  0
  -20.0914   14.9275  -20.6138 C   0  0  0  0  0  0  0  0  0  0  0  0
  -20.8691   16.2010  -20.4664 C   0  0  0  0  0  0  0  0  0  0  0  0
  -19.8500   17.3358  -20.2744 C   0  0  0  0  0  0  0  0  0  0  0  0
  -19.2259   17.0621  -18.9442 C   0  0  0  0  0  0  0  0  0  0  0  0
  -18.4756   15.7854  -18.8608 C   0  0  0  0  0  0  0  0  0  0  0  0
  -18.9810   17.4479  -21.3875 N   0  0  0  0  0  0  0  0  0  0  0  0
  -18.3561   18.2536  -21.4301 H   0  0  0  0  0  0  0  0  0  0  0  0
  -19.6897   17.4099  -22.6935 C   0  0  0  0  0  0  0  0  0  0  0  0
  -18.6990   17.0857  -23.7113 C   0  0  0  0  0  0  0  0  0  0  0  0
  -18.5471   15.8063  -24.1797 O   0  0  0  0  0  0  0  0  0  0  0  0
  -17.9575   17.9862  -24.1762 O   0  0  0  0  0  0  0  0  0  0  0  0
  -17.7457   15.2716  -23.8445 H   0  0  0  0  0  0  0  0  0  0  0  0
  -20.2784   18.7908  -22.8819 C   0  0  0  0  0  0  0  0  0  0  0  0
  -21.3884   18.9187  -23.8055 C   0  0  0  0  0  0  0  0  0  0  0  0
  -22.2789   17.8586  -23.9448 C   0  0  0  0  0  0  0  0  0  0  0  0
  -23.3609   17.9939  -24.7920 C   0  0  0  0  0  0  0  0  0  0  0  0
  -23.5472   19.1702  -25.4875 C   0  0  0  0  0  0  0  0  0  0  0  0
  -22.6756   20.2378  -25.3664 C   0  0  0  0  0  0  0  0  0  0  0  0
  -21.6127   20.0861  -24.5250 C   0  0  0  0  0  0  0  0  0  0  0  0
  1  2  1  0  0  0
  2  3  2  0  0  0
  3  4  1  0  0  0
  4  5  2  0  0  0
  5  6  1  0  0  0
  6  7  1  0  0  0
  7  8  1  0  0  0
  8  9  2  0  0  0
  9 13  1  0  0  0
 13 14  2  0  0  0
 14 15  1  0  0  0
 15 16  2  0  0  0
 16 19  1  0  0  0
 19 20  1  0  0  0
 20 21  2  0  0  0
 21 22  1  0  0  0
 22 23  2  0  0  0
 23 24  1  0  0  0
 24 25  2  0  0  0
 16 17  1  0  0  0
 17 18  2  0  0  0
  9 10  1  0  0  0
  7 26  1  0  0  0
 26 27  1  0  0  0
 27 28  1  0  0  0
 28 29  1  0  0  0
 29 30  1  0  0  0
 30 31  1  0  0  0
 29 32  1  0  0  0
 32 34  1  0  0  0
 34 39  1  0  0  0
 39 40  1  0  0  0
 40 41  2  0  0  0
 41 42  1  0  0  0
 42 43  2  0  0  0
 43 44  1  0  0  0
 44 45  2  0  0  0
 34 35  1  0  0  0
 35 36  1  0  0  0
 35 37  2  0  0  0
 10  2  1  0  0  0
 31 26  1  0  0  0
 45 40  1  0  0  0
 10  6  2  0  0  0
 18 13  1  0  0  0
 25 20  1  0  0  0
  1 11  1  0  0  0
  1 12  1  0  0  0
 32 33  1  0  0  0
 36 38  1  0  0  0
M  END
> <minimizedAffinity>
-8.32432

> <CNNscore>
0.5279902816

> <CNNaffinity>
7.1952424049

> <CNN_VS>
3.7990181446

> <CNNaffinity_variance>
0.1399196088

$$$$
[H]OC(=O)[C@@]([H])(N([H])[C@]1([H])C([H])([H])C([H])([H])[C@@]([H])(n2c([H])c(-c3c([H])c([H])c(Oc4c([H])c([H])c([H])c([H])c4[H])c([H])c3[H])c3c(N([H])[H])nc([H])nc32)C([H])([H])C1([H])[H])C([H])([H])c1c([H])c([H])c([H])c([H])c1[H]


 45 50  0  0  0  0  0  0  0  0999 V2000
  -17.2037   10.1045  -20.3931 N   0  0  0  0  0  0  0  0  0  0  0  0
  -17.1176   11.4049  -20.9482 C   0  0  0  0  0  0  0  0  0  0  0  0
  -16.4470   11.6407  -22.0971 N   0  0  0  0  0  0  0  0  0  0  0  0
  -16.3626   12.8625  -22.6414 C   0  0  0  0  0  0  0  0  0  0  0  0
  -16.9618   13.8777  -22.0256 N   0  0  0  0  0  0  0  0  0  0  0  0
  -17.6570   13.7496  -20.8729 C   0  0  0  0  0  0  0  0  0  0  0  0
  -18.3355   14.6109  -20.0965 N   0  0  0  0  0  0  0  0  0  0  0  0
  -18.8327   13.9339  -19.0896 C   0  0  0  0  0  0  0  0  0  0  0  0
  -18.4773   12.5899  -19.1946 C   0  0  0  0  0  0  0  0  0  0  0  0
  -17.7321   12.4734  -20.3254 C   0  0  0  0  0  0  0  0  0  0  0  0
  -16.4286    9.6115  -19.8900 H   0  0  0  0  0  0  0  0  0  0  0  0
  -18.1414    9.6180  -20.5131 H   0  0  0  0  0  0  0  0  0  0  0  0
  -18.7941   11.5191  -18.2647 C   0  0  0  0  0  0  0  0  0  0  0  0
  -17.9637   10.4203  -18.1030 C   0  0  0  0  0  0  0  0  0  0  0  0
  -18.3109    9.4036  -17.2442 C   0  0  0  0  0  0  0  0  0  0  0  0
  -19.4852    9.4461  -16.5243 C   0  0  0  0  0  0  0  0  0  0  0  0
  -20.3335   10.5320  -16.6647 C   0  0  0  0  0  0  0  0  0  0  0  0
  -19.9733   11.5368  -17.5244 C   0  0  0  0  0  0  0  0  0  0  0  0
  -19.8610    8.4162  -15.6404 O   0  0  0  0  0  0  0  0  0  0  0  0
  -19.6423    8.5610  -14.2854 C   0  0  0  0  0  0  0  0  0  0  0  0
  -19.3943    9.7661  -13.7129 C   0  0  0  0  0  0  0  0  0  0  0  0
  -19.1764    9.8844  -12.3360 C   0  0  0  0  0  0  0  0  0  0  0  0
  -19.2162    8.7548  -11.5550 C   0  0  0  0  0  0  0  0  0  0  0  0
  -19.4662    7.5188  -12.1122 C   0  0  0  0  0  0  0  0  0  0  0  0
  -19.6804    7.4312  -13.4936 C   0  0  0  0  0  0  0  0  0  0  0  0
  -18.4051   16.0434  -20.4295 C   0  0  0  0  0  0  0  0  0  0  0  0
  -17.1359   16.7577  -20.3777 C   0  0  0  0  0  0  0  0  0  0  0  0
  -16.6261   17.4428  -21.6101 C   0  0  0  0  0  0  0  0  0  0  0  0
  -17.8289   18.1269  -22.2797 C   0  0  0  0  0  0  0  0  0  0  0  0
  -18.6930   17.0001  -22.7461 C   0  0  0  0  0  0  0  0  0  0  0  0
  -19.2295   16.1394  -21.6639 C   0  0  0  0  0  0  0  0  0  0  0  0
  -18.4224   19.0882  -21.4252 N   0  0  0  0  0  0  0  0  0  0  0  0
  -19.0488   18.7570  -20.6909 H   0  0  0  0  0  0  0  0  0  0  0  0
  -19.1711   20.1435  -22.1568 C   0  0  0  0  0  0  0  0  0  0  0  0
  -19.1090   21.3540  -21.3486 C   0  0  0  0  0  0  0  0  0  0  0  0
  -17.9688   22.1122  -21.2826 O   0  0  0  0  0  0  0  0  0  0  0  0
  -20.1122   21.7215  -20.6887 O   0  0  0  0  0  0  0  0  0  0  0  0
  -17.3989   22.0375  -20.4399 H   0  0  0  0  0  0  0  0  0  0  0  0
  -20.5830   19.6197  -22.3021 C   0  0  0  0  0  0  0  0  0  0  0  0
  -21.2597   19.8753  -23.5584 C   0  0  0  0  0  0  0  0  0  0  0  0
  -22.2649   19.0078  -23.9748 C   0  0  0  0  0  0  0  0  0  0  0  0
  -22.9399   19.2726  -25.1499 C   0  0  0  0  0  0  0  0  0  0  0  0
  -22.6134   20.3864  -25.8948 C   0  0  0  0  0  0  0  0  0  0  0  0
  -21.6178   21.2632  -25.5023 C   0  0  0  0  0  0  0  0  0  0  0  0
  -20.9619   20.9858  -24.3389 C   0  0  0  0  0  0  0  0  0  0  0  0
  1  2  1  0  0  0
  2  3  2  0  0  0
  3  4  1  0  0  0
  4  5  2  0  0  0
  5  6  1  0  0  0
  6  7  1  0  0  0
  7  8  1  0  0  0
  8  9  2  0  0  0
  9 13  1  0  0  0
 13 14  2  0  0  0
 14 15  1  0  0  0
 15 16  2  0  0  0
 16 19  1  0  0  0
 19 20  1  0  0  0
 20 21  2  0  0  0
 21 22  1  0  0  0
 22 23  2  0  0  0
 23 24  1  0  0  0
 24 25  2  0  0  0
 16 17  1  0  0  0
 17 18  2  0  0  0
  9 10  1  0  0  0
  7 26  1  0  0  0
 26 27  1  0  0  0
 27 28  1  0  0  0
 28 29  1  0  0  0
 29 30  1  0  0  0
 30 31  1  0  0  0
 29 32  1  0  0  0
 32 34  1  0  0  0
 34 39  1  0  0  0
 39 40  1  0  0  0
 40 41  2  0  0  0
 41 42  1  0  0  0
 42 43  2  0  0  0
 43 44  1  0  0  0
 44 45  2  0  0  0
 34 35  1  0  0  0
 35 36  1  0  0  0
 35 37  2  0  0  0
 10  2  1  0  0  0
 31 26  1  0  0  0
 45 40  1  0  0  0
 10  6  2  0  0  0
 18 13  1  0  0  0
 25 20  1  0  0  0
  1 11  1  0  0  0
  1 12  1  0  0  0
 32 33  1  0  0  0
 36 38  1  0  0  0
M  END
> <minimizedAffinity>
-9.26504

> <CNNscore>
0.4162043333

> <CNNaffinity>
7.3002357483

> <CNN_VS>
3.0383896828

> <CNNaffinity_variance>
0.1373563856

$$$$
[H]OC(=O)[C@@]([H])(N([H])[C@]1([H])C([H])([H])C([H])([H])[C@@]([H])(n2c([H])c(-c3c([H])c([H])c(Oc4c([H])c([H])c([H])c([H])c4[H])c([H])c3[H])c3c(N([H])[H])nc([H])nc32)C([H])([H])C1([H])[H])C([H])([H])c1c([H])c([H])c([H])c([H])c1[H]


 45 50  0  0  0  0  0  0  0  0999 V2000
  -18.1546    9.2887  -17.3269 N   0  0  0  0  0  0  0  0  0  0  0  0
  -17.9422   10.3311  -18.2622 C   0  0  0  0  0  0  0  0  0  0  0  0
  -17.0420   10.2114  -19.2626 N   0  0  0  0  0  0  0  0  0  0  0  0
  -16.8341   11.1834  -20.1616 C   0  0  0  0  0  0  0  0  0  0  0  0
  -17.5412   12.3055  -20.0625 N   0  0  0  0  0  0  0  0  0  0  0  0
  -18.4653   12.5262  -19.1003 C   0  0  0  0  0  0  0  0  0  0  0  0
  -19.2851   13.5521  -18.8173 N   0  0  0  0  0  0  0  0  0  0  0  0
  -19.9896   13.2208  -17.7621 C   0  0  0  0  0  0  0  0  0  0  0  0
  -19.6314   11.9448  -17.3292 C   0  0  0  0  0  0  0  0  0  0  0  0
  -18.6652   11.5047  -18.1780 C   0  0  0  0  0  0  0  0  0  0  0  0
  -17.5075    9.0432  -16.5408 H   0  0  0  0  0  0  0  0  0  0  0  0
  -19.0499    8.7310  -17.4603 H   0  0  0  0  0  0  0  0  0  0  0  0
  -20.1466   11.2288  -16.1744 C   0  0  0  0  0  0  0  0  0  0  0  0
  -19.6174   11.4090  -14.9054 C   0  0  0  0  0  0  0  0  0  0  0  0
  -20.1002   10.6869  -13.8389 C   0  0  0  0  0  0  0  0  0  0  0  0
  -21.1165    9.7699  -13.9983 C   0  0  0  0  0  0  0  0  0  0  0  0
  -21.6652    9.5700  -15.2544 C   0  0  0  0  0  0  0  0  0  0  0  0
  -21.1731   10.2972  -16.3067 C   0  0  0  0  0  0  0  0  0  0  0  0
  -21.6254    9.0191  -12.9210 O   0  0  0  0  0  0  0  0  0  0  0  0
  -21.4844    7.6463  -12.9142 C   0  0  0  0  0  0  0  0  0  0  0  0
  -20.2710    7.0393  -12.8859 C   0  0  0  0  0  0  0  0  0  0  0  0
  -20.1569    5.6450  -12.8792 C   0  0  0  0  0  0  0  0  0  0  0  0
  -21.2994    4.8822  -12.9015 C   0  0  0  0  0  0  0  0  0  0  0  0
  -22.5440    5.4745  -12.9305 C   0  0  0  0  0  0  0  0  0  0  0  0
  -22.6271    6.8726  -12.9366 C   0  0  0  0  0  0  0  0  0  0  0  0
  -19.2706   14.7831  -19.6250 C   0  0  0  0  0  0  0  0  0  0  0  0
  -18.1840   15.7086  -19.3310 C   0  0  0  0  0  0  0  0  0  0  0  0
  -17.2235   16.0853  -20.4190 C   0  0  0  0  0  0  0  0  0  0  0  0
  -18.0482   16.3009  -21.6983 C   0  0  0  0  0  0  0  0  0  0  0  0
  -18.5714   14.9441  -22.0437 C   0  0  0  0  0  0  0  0  0  0  0  0
  -19.4827   14.3538  -21.0333 C   0  0  0  0  0  0  0  0  0  0  0  0
  -18.9975   17.3397  -21.5359 N   0  0  0  0  0  0  0  0  0  0  0  0
  -19.8126   17.1587  -20.9491 H   0  0  0  0  0  0  0  0  0  0  0  0
  -19.5276   17.8591  -22.8239 C   0  0  0  0  0  0  0  0  0  0  0  0
  -18.5751   18.8464  -23.3143 C   0  0  0  0  0  0  0  0  0  0  0  0
  -17.6288   18.5231  -24.2521 O   0  0  0  0  0  0  0  0  0  0  0  0
  -18.6060   20.0223  -22.8746 O   0  0  0  0  0  0  0  0  0  0  0  0
  -16.6696   18.3916  -23.9307 H   0  0  0  0  0  0  0  0  0  0  0  0
  -20.8732   18.4690  -22.4983 C   0  0  0  0  0  0  0  0  0  0  0  0
  -21.7600   18.7519  -23.6097 C   0  0  0  0  0  0  0  0  0  0  0  0
  -22.3955   17.6953  -24.2547 C   0  0  0  0  0  0  0  0  0  0  0  0
  -23.2733   17.9650  -25.2859 C   0  0  0  0  0  0  0  0  0  0  0  0
  -23.5099   19.2699  -25.6645 C   0  0  0  0  0  0  0  0  0  0  0  0
  -22.8901   20.3371  -25.0392 C   0  0  0  0  0  0  0  0  0  0  0  0
  -22.0263   20.0517  -24.0227 C   0  0  0  0  0  0  0  0  0  0  0  0
  1  2  1  0  0  0
  2  3  2  0  0  0
  3  4  1  0  0  0
  4  5  2  0  0  0
  5  6  1  0  0  0
  6  7  1  0  0  0
  7  8  1  0  0  0
  8  9  2  0  0  0
  9 13  1  0  0  0
 13 14  2  0  0  0
 14 15  1  0  0  0
 15 16  2  0  0  0
 16 19  1  0  0  0
 19 20  1  0  0  0
 20 21  2  0  0  0
 21 22  1  0  0  0
 22 23  2  0  0  0
 23 24  1  0  0  0
 24 25  2  0  0  0
 16 17  1  0  0  0
 17 18  2  0  0  0
  9 10  1  0  0  0
  7 26  1  0  0  0
 26 27  1  0  0  0
 27 28  1  0  0  0
 28 29  1  0  0  0
 29 30  1  0  0  0
 30 31  1  0  0  0
 29 32  1  0  0  0
 32 34  1  0  0  0
 34 39  1  0  0  0
 39 40  1  0  0  0
 40 41  2  0  0  0
 41 42  1  0  0  0
 42 43  2  0  0  0
 43 44  1  0  0  0
 44 45  2  0  0  0
 34 35  1  0  0  0
 35 36  1  0  0  0
 35 37  2  0  0  0
 10  2  1  0  0  0
 31 26  1  0  0  0
 45 40  1  0  0  0
 10  6  2  0  0  0
 18 13  1  0  0  0
 25 20  1  0  0  0
  1 11  1  0  0  0
  1 12  1  0  0  0
 32 33  1  0  0  0
 36 38  1  0  0  0
M  END
> <minimizedAffinity>
-8.32684

> <CNNscore>
0.3759974837

> <CNNaffinity>
7.1119475365

> <CNN_VS>
2.6740744114

> <CNNaffinity_variance>
0.1722079813

$$$$
[H]OC(=O)[C@@]([H])(N([H])[C@]1([H])C([H])([H])C([H])([H])[C@@]([H])(n2c([H])c(-c3c([H])c([H])c(Oc4c([H])c([H])c([H])c([H])c4[H])c([H])c3[H])c3c(N([H])[H])nc([H])nc32)C([H])([H])C1([H])[H])C([H])([H])c1c([H])c([H])c([H])c([H])c1[H]


 45 50  0  0  0  0  0  0  0  0999 V2000
  -17.8891   13.3242  -20.7034 N   0  0  0  0  0  0  0  0  0  0  0  0
  -17.9873   12.2446  -19.7915 C   0  0  0  0  0  0  0  0  0  0  0  0
  -17.2510   11.1219  -19.9424 N   0  0  0  0  0  0  0  0  0  0  0  0
  -17.3243   10.0945  -19.0850 C   0  0  0  0  0  0  0  0  0  0  0  0
  -18.1531   10.1866  -18.0488 N   0  0  0  0  0  0  0  0  0  0  0  0
  -18.9331   11.2643  -17.8069 C   0  0  0  0  0  0  0  0  0  0  0  0
  -19.8160   11.5746  -16.8431 N   0  0  0  0  0  0  0  0  0  0  0  0
  -20.2805   12.7740  -17.0984 C   0  0  0  0  0  0  0  0  0  0  0  0
  -19.6957   13.2762  -18.2601 C   0  0  0  0  0  0  0  0  0  0  0  0
  -18.8414   12.3189  -18.7089 C   0  0  0  0  0  0  0  0  0  0  0  0
  -18.3009   13.3390  -21.6663 H   0  0  0  0  0  0  0  0  0  0  0  0
  -17.3494   14.1704  -20.3527 H   0  0  0  0  0  0  0  0  0  0  0  0
  -19.9668   14.5506  -18.9036 C   0  0  0  0  0  0  0  0  0  0  0  0
  -19.2281   15.6882  -18.6152 C   0  0  0  0  0  0  0  0  0  0  0  0
  -19.5349   16.8892  -19.2113 C   0  0  0  0  0  0  0  0  0  0  0  0
  -20.5774   16.9971  -20.1061 C   0  0  0  0  0  0  0  0  0  0  0  0
  -21.3317   15.8769  -20.4142 C   0  0  0  0  0  0  0  0  0  0  0  0
  -21.0134   14.6878  -19.8118 C   0  0  0  0  0  0  0  0  0  0  0  0
  -20.9097   18.2165  -20.7273 O   0  0  0  0  0  0  0  0  0  0  0  0
  -21.6832   18.2158  -21.8703 C   0  0  0  0  0  0  0  0  0  0  0  0
  -23.0356   18.3210  -21.8340 C   0  0  0  0  0  0  0  0  0  0  0  0
  -23.7957   18.3181  -23.0085 C   0  0  0  0  0  0  0  0  0  0  0  0
  -23.1536   18.2067  -24.2181 C   0  0  0  0  0  0  0  0  0  0  0  0
  -21.7807   18.0985  -24.2820 C   0  0  0  0  0  0  0  0  0  0  0  0
  -21.0461   18.1041  -23.0895 C   0  0  0  0  0  0  0  0  0  0  0  0
  -20.1268   10.6253  -15.7613 C   0  0  0  0  0  0  0  0  0  0  0  0
  -19.7066   11.0395  -14.4288 C   0  0  0  0  0  0  0  0  0  0  0  0
  -20.7325   11.1820  -13.3447 C   0  0  0  0  0  0  0  0  0  0  0  0
  -21.6994    9.9940  -13.4755 C   0  0  0  0  0  0  0  0  0  0  0  0
  -22.4118   10.2274  -14.7686 C   0  0  0  0  0  0  0  0  0  0  0  0
  -21.5409   10.2132  -15.9691 C   0  0  0  0  0  0  0  0  0  0  0  0
  -21.0271    8.7569  -13.3198 N   0  0  0  0  0  0  0  0  0  0  0  0
  -21.1139    8.0655  -14.0653 H   0  0  0  0  0  0  0  0  0  0  0  0
  -21.3813    8.0490  -12.0616 C   0  0  0  0  0  0  0  0  0  0  0  0
  -22.8029    7.7376  -12.1287 C   0  0  0  0  0  0  0  0  0  0  0  0
  -23.3200    6.9696  -13.1398 O   0  0  0  0  0  0  0  0  0  0  0  0
  -23.5852    8.1788  -11.2511 O   0  0  0  0  0  0  0  0  0  0  0  0
  -23.8299    7.4470  -13.8832 H   0  0  0  0  0  0  0  0  0  0  0  0
  -21.0550    9.0128  -10.9421 C   0  0  0  0  0  0  0  0  0  0  0  0
  -19.6740    9.0807  -10.5063 C   0  0  0  0  0  0  0  0  0  0  0  0
  -18.8670    7.9546  -10.6357 C   0  0  0  0  0  0  0  0  0  0  0  0
  -17.5401    8.0294  -10.2608 C   0  0  0  0  0  0  0  0  0  0  0  0
  -17.0310    9.2112   -9.7646 C   0  0  0  0  0  0  0  0  0  0  0  0
  -17.8132   10.3439   -9.6259 C   0  0  0  0  0  0  0  0  0  0  0  0
  -19.1213   10.2514  -10.0014 C   0  0  0  0  0  0  0  0  0  0  0  0
  1  2  1  0  0  0
  2  3  2  0  0  0
  3  4  1  0  0  0
  4  5  2  0  0  0
  5  6  1  0  0  0
  6  7  1  0  0  0
  7  8  1  0  0  0
  8  9  2  0  0  0
  9 13  1  0  0  0
 13 14  2  0  0  0
 14 15  1  0  0  0
 15 16  2  0  0  0
 16 19  1  0  0  0
 19 20  1  0  0  0
 20 21  2  0  0  0
 21 22  1  0  0  0
 22 23  2  0  0  0
 23 24  1  0  0  0
 24 25  2  0  0  0
 16 17  1  0  0  0
 17 18  2  0  0  0
  9 10  1  0  0  0
  7 26  1  0  0  0
 26 27  1  0  0  0
 27 28  1  0  0  0
 28 29  1  0  0  0
 29 30  1  0  0  0
 30 31  1  0  0  0
 29 32  1  0  0  0
 32 34  1  0  0  0
 34 39  1  0  0  0
 39 40  1  0  0  0
 40 41  2  0  0  0
 41 42  1  0  0  0
 42 43  2  0  0  0
 43 44  1  0  0  0
 44 45  2  0  0  0
 34 35  1  0  0  0
 35 36  1  0  0  0
 35 37  2  0  0  0
 10  2  1  0  0  0
 31 26  1  0  0  0
 45 40  1  0  0  0
 10  6  2  0  0  0
 18 13  1  0  0  0
 25 20  1  0  0  0
  1 11  1  0  0  0
  1 12  1  0  0  0
 32 33  1  0  0  0
 36 38  1  0  0  0
M  END
> <minimizedAffinity>
-7.80712

> <CNNscore>
0.3706789017

> <CNNaffinity>
6.9529924393

> <CNN_VS>
2.5773274899

> <CNNaffinity_variance>
0.1508533657

$$$$
[H]OC(=O)[C@@]([H])(N([H])[C@]1([H])C([H])([H])C([H])([H])[C@@]([H])(n2c([H])c(-c3c([H])c([H])c(Oc4c([H])c([H])c([H])c([H])c4[H])c([H])c3[H])c3c(N([H])[H])nc([H])nc32)C([H])([H])C1([H])[H])C([H])([H])c1c([H])c([H])c([H])c([H])c1[H]


 45 50  0  0  0  0  0  0  0  0999 V2000
  -18.3389    9.1128  -17.0210 N   0  0  0  0  0  0  0  0  0  0  0  0
  -18.1281   10.0613  -18.0519 C   0  0  0  0  0  0  0  0  0  0  0  0
  -17.2391    9.8409  -19.0451 N   0  0  0  0  0  0  0  0  0  0  0  0
  -17.0331   10.7226  -20.0331 C   0  0  0  0  0  0  0  0  0  0  0  0
  -17.7307   11.8550  -20.0330 N   0  0  0  0  0  0  0  0  0  0  0  0
  -18.6432   12.1726  -19.0870 C   0  0  0  0  0  0  0  0  0  0  0  0
  -19.4524   13.2274  -18.8937 N   0  0  0  0  0  0  0  0  0  0  0  0
  -20.1485   13.0023  -17.8055 C   0  0  0  0  0  0  0  0  0  0  0  0
  -19.7956   11.7694  -17.2583 C   0  0  0  0  0  0  0  0  0  0  0  0
  -18.8414   11.2437  -18.0712 C   0  0  0  0  0  0  0  0  0  0  0  0
  -17.6857    8.9366  -16.2215 H   0  0  0  0  0  0  0  0  0  0  0  0
  -19.2396    8.5527  -17.0932 H   0  0  0  0  0  0  0  0  0  0  0  0
  -20.3044   11.1691  -16.0367 C   0  0  0  0  0  0  0  0  0  0  0  0
  -19.6970   11.3818  -14.8084 C   0  0  0  0  0  0  0  0  0  0  0  0
  -20.1787   10.7675  -13.6760 C   0  0  0  0  0  0  0  0  0  0  0  0
  -21.2709    9.9287  -13.7277 C   0  0  0  0  0  0  0  0  0  0  0  0
  -21.8985    9.6987  -14.9409 C   0  0  0  0  0  0  0  0  0  0  0  0
  -21.4065   10.3183  -16.0600 C   0  0  0  0  0  0  0  0  0  0  0  0
  -21.7802    9.2885  -12.5814 O   0  0  0  0  0  0  0  0  0  0  0  0
  -21.7708    7.9106  -12.5037 C   0  0  0  0  0  0  0  0  0  0  0  0
  -22.9111    7.1761  -12.4634 C   0  0  0  0  0  0  0  0  0  0  0  0
  -22.8727    5.7798  -12.3851 C   0  0  0  0  0  0  0  0  0  0  0  0
  -21.6536    5.1471  -12.3492 C   0  0  0  0  0  0  0  0  0  0  0  0
  -20.4806    5.8705  -12.3889 C   0  0  0  0  0  0  0  0  0  0  0  0
  -20.5503    7.2671  -12.4671 C   0  0  0  0  0  0  0  0  0  0  0  0
  -19.4368   14.3772  -19.8133 C   0  0  0  0  0  0  0  0  0  0  0  0
  -20.7448   14.9280  -20.1446 C   0  0  0  0  0  0  0  0  0  0  0  0
  -21.0401   16.3638  -19.8293 C   0  0  0  0  0  0  0  0  0  0  0  0
  -19.7861   17.1756  -20.1924 C   0  0  0  0  0  0  0  0  0  0  0  0
  -18.7501   16.7292  -19.2119 C   0  0  0  0  0  0  0  0  0  0  0  0
  -18.3822   15.2955  -19.3063 C   0  0  0  0  0  0  0  0  0  0  0  0
  -19.4704   17.0571  -21.5682 N   0  0  0  0  0  0  0  0  0  0  0  0
  -19.3519   16.1203  -21.9552 H   0  0  0  0  0  0  0  0  0  0  0  0
  -18.2559   17.8188  -21.9609 C   0  0  0  0  0  0  0  0  0  0  0  0
  -18.6180   19.2299  -21.9726 C   0  0  0  0  0  0  0  0  0  0  0  0
  -17.9846   20.1376  -21.1637 O   0  0  0  0  0  0  0  0  0  0  0  0
  -19.5316   19.6382  -22.7313 O   0  0  0  0  0  0  0  0  0  0  0  0
  -18.4825   20.4604  -20.3340 H   0  0  0  0  0  0  0  0  0  0  0  0
  -17.8780   17.3098  -23.3346 C   0  0  0  0  0  0  0  0  0  0  0  0
  -17.6028   15.8925  -23.4646 C   0  0  0  0  0  0  0  0  0  0  0  0
  -18.1761   15.1852  -24.5170 C   0  0  0  0  0  0  0  0  0  0  0  0
  -17.8818   13.8446  -24.6676 C   0  0  0  0  0  0  0  0  0  0  0  0
  -17.0287   13.2234  -23.7796 C   0  0  0  0  0  0  0  0  0  0  0  0
  -16.4470   13.9047  -22.7254 C   0  0  0  0  0  0  0  0  0  0  0  0
  -16.7491   15.2283  -22.5923 C   0  0  0  0  0  0  0  0  0  0  0  0
  1  2  1  0  0  0
  2  3  2  0  0  0
  3  4  1  0  0  0
  4  5  2  0  0  0
  5  6  1  0  0  0
  6  7  1  0  0  0
  7  8  1  0  0  0
  8  9  2  0  0  0
  9 13  1  0  0  0
 13 14  2  0  0  0
 14 15  1  0  0  0
 15 16  2  0  0  0
 16 19  1  0  0  0
 19 20  1  0  0  0
 20 21  2  0  0  0
 21 22  1  0  0  0
 22 23  2  0  0  0
 23 24  1  0  0  0
 24 25  2  0  0  0
 16 17  1  0  0  0
 17 18  2  0  0  0
  9 10  1  0  0  0
  7 26  1  0  0  0
 26 27  1  0  0  0
 27 28  1  0  0  0
 28 29  1  0  0  0
 29 30  1  0  0  0
 30 31  1  0  0  0
 29 32  1  0  0  0
 32 34  1  0  0  0
 34 39  1  0  0  0
 39 40  1  0  0  0
 40 41  2  0  0  0
 41 42  1  0  0  0
 42 43  2  0  0  0
 43 44  1  0  0  0
 44 45  2  0  0  0
 34 35  1  0  0  0
 35 36  1  0  0  0
 35 37  2  0  0  0
 10  2  1  0  0  0
 31 26  1  0  0  0
 45 40  1  0  0  0
 10  6  2  0  0  0
 18 13  1  0  0  0
 25 20  1  0  0  0
  1 11  1  0  0  0
  1 12  1  0  0  0
 32 33  1  0  0  0
 36 38  1  0  0  0
M  END
> <minimizedAffinity>
-8.31644

> <CNNscore>
0.3684673011

> <CNNaffinity>
7.2786302567

> <CNN_VS>
2.6819372177

> <CNNaffinity_variance>
0.1337334961

$$$$
[H]c1nc2c(nc([H])c(=O)n2[H])c(Oc2c([H])c([H])c(N([H])C(=O)N([H])c3c([H])c(C(C([H])([H])[H])(C([H])([H])[H])C([H])([H])[H])nn3-c3c([H])c([H])c(OC([H])([H])[H])c([H])c3[H])c3c([H])c([H])c([H])c([H])c23)c1[H]


 46 51  0  0  0  0  0  0  0  0999 V2000
  -18.1774   13.5717  -20.6765 N   0  0  0  0  0  0  0  0  0  0  0  0
  -17.6914   12.2511  -20.3516 C   0  0  0  0  0  0  0  0  0  0  0  0
  -16.8453   11.7342  -21.0590 O   0  0  0  0  0  0  0  0  0  0  0  0
  -18.1989   11.5857  -19.2442 N   0  0  0  0  0  0  0  0  0  0  0  0
  -18.9388   13.9630  -20.0026 H   0  0  0  0  0  0  0  0  0  0  0  0
  -17.9113   10.3833  -19.8615 H   0  0  0  0  0  0  0  0  0  0  0  0
  -18.6817   10.9403  -18.1826 C   0  0  0  0  0  0  0  0  0  0  0  0
  -18.1942    9.6492  -17.8652 C   0  0  0  0  0  0  0  0  0  0  0  0
  -18.5842    8.9665  -16.7885 C   0  0  0  0  0  0  0  0  0  0  0  0
  -19.5296    9.5293  -15.9027 C   0  0  0  0  0  0  0  0  0  0  0  0
  -20.0059   10.7539  -16.1689 C   0  0  0  0  0  0  0  0  0  0  0  0
  -20.9089   11.3156  -15.2738 C   0  0  0  0  0  0  0  0  0  0  0  0
  -21.4230   12.5659  -15.4637 C   0  0  0  0  0  0  0  0  0  0  0  0
  -21.0209   13.2674  -16.5645 C   0  0  0  0  0  0  0  0  0  0  0  0
  -20.1291   12.7201  -17.4552 C   0  0  0  0  0  0  0  0  0  0  0  0
  -19.5956   11.4625  -17.2902 C   0  0  0  0  0  0  0  0  0  0  0  0
  -19.8264    8.6739  -14.8646 O   0  0  0  0  0  0  0  0  0  0  0  0
  -20.8165    7.7429  -14.7827 C   0  0  0  0  0  0  0  0  0  0  0  0
  -21.0959    6.7540  -15.6720 C   0  0  0  0  0  0  0  0  0  0  0  0
  -22.1470    5.8381  -15.4784 C   0  0  0  0  0  0  0  0  0  0  0  0
  -22.8774    5.9569  -14.3788 N   0  0  0  0  0  0  0  0  0  0  0  0
  -22.6397    6.9212  -13.4556 C   0  0  0  0  0  0  0  0  0  0  0  0
  -23.3957    6.9487  -12.3355 N   0  0  0  0  0  0  0  0  0  0  0  0
  -23.1670    7.8696  -11.3841 C   0  0  0  0  0  0  0  0  0  0  0  0
  -23.8562    7.8950  -10.3317 O   0  0  0  0  0  0  0  0  0  0  0  0
  -22.1224    8.7918  -11.5899 C   0  0  0  0  0  0  0  0  0  0  0  0
  -21.3787    8.7542  -12.6973 N   0  0  0  0  0  0  0  0  0  0  0  0
  -21.6266    7.8186  -13.6346 C   0  0  0  0  0  0  0  0  0  0  0  0
  -24.1590    6.2548  -12.2066 H   0  0  0  0  0  0  0  0  0  0  0  0
  -17.6088   15.7463  -21.8774 N   0  0  0  0  0  0  0  0  0  0  0  0
  -17.0443   15.9692  -23.0807 N   0  0  0  0  0  0  0  0  0  0  0  0
  -16.8368   14.8575  -23.7352 C   0  0  0  0  0  0  0  0  0  0  0  0
  -17.3024   13.8575  -22.9054 C   0  0  0  0  0  0  0  0  0  0  0  0
  -17.8049   14.4377  -21.6859 C   0  0  0  0  0  0  0  0  0  0  0  0
  -18.6828   19.1220  -19.5452 C   0  0  0  0  0  0  0  0  0  0  0  0
  -18.6662   17.8519  -19.0201 C   0  0  0  0  0  0  0  0  0  0  0  0
  -18.2961   16.7609  -19.7615 C   0  0  0  0  0  0  0  0  0  0  0  0
  -17.9199   16.8661  -21.0461 C   0  0  0  0  0  0  0  0  0  0  0  0
  -17.9190   18.1689  -21.6143 C   0  0  0  0  0  0  0  0  0  0  0  0
  -18.2994   19.2695  -20.8569 C   0  0  0  0  0  0  0  0  0  0  0  0
  -19.7773   19.9992  -17.5550 C   0  0  0  0  0  0  0  0  0  0  0  0
  -19.0719   20.2267  -18.7944 O   0  0  0  0  0  0  0  0  0  0  0  0
  -16.2019   14.6044  -25.0814 C   0  0  0  0  0  0  0  0  0  0  0  0
  -16.2708   15.8799  -25.9230 C   0  0  0  0  0  0  0  0  0  0  0  0
  -14.7439   14.2400  -24.9177 C   0  0  0  0  0  0  0  0  0  0  0  0
  -16.8861   13.5114  -25.8118 C   0  0  0  0  0  0  0  0  0  0  0  0
 41 42  1  0  0  0
 42 35  1  0  0  0
 35 36  2  0  0  0
 36 37  1  0  0  0
 37 38  2  0  0  0
 38 39  1  0  0  0
 39 40  2  0  0  0
 38 30  1  0  0  0
 30 31  1  0  0  0
 31 32  2  0  0  0
 32 33  1  0  0  0
 33 34  2  0  0  0
 34  1  1  0  0  0
  1  2  1  0  0  0
  2  3  2  0  0  0
  2  4  1  0  0  0
  4  7  1  0  0  0
  7  8  2  0  0  0
  8  9  1  0  0  0
  9 10  2  0  0  0
 10 17  1  0  0  0
 17 18  1  0  0  0
 18 19  2  0  0  0
 19 20  1  0  0  0
 20 21  2  0  0  0
 21 22  1  0  0  0
 22 23  1  0  0  0
 23 24  1  0  0  0
 24 25  2  0  0  0
 24 26  1  0  0  0
 26 27  2  0  0  0
 27 28  1  0  0  0
 10 11  1  0  0  0
 11 12  2  0  0  0
 12 13  1  0  0  0
 13 14  2  0  0  0
 14 15  1  0  0  0
 15 16  2  0  0  0
 32 43  1  0  0  0
 43 44  1  0  0  0
 43 45  1  0  0  0
 43 46  1  0  0  0
 40 35  1  0  0  0
 34 30  1  0  0  0
 16  7  1  0  0  0
 28 18  1  0  0  0
 16 11  1  0  0  0
 28 22  2  0  0  0
  1  5  1  0  0  0
  4  6  1  0  0  0
 23 29  1  0  0  0
M  END
> <minimizedAffinity>
-9.40754

> <CNNscore>
0.1411221623

> <CNNaffinity>
7.2878293991

> <CNN_VS>
1.0284742117

> <CNNaffinity_variance>
0.1810944080

$$$$
[H]c1nc2c(nc([H])c(=O)n2[H])c(Oc2c([H])c([H])c(N([H])C(=O)N([H])c3c([H])c(C(C([H])([H])[H])(C([H])([H])[H])C([H])([H])[H])nn3-c3c([H])c([H])c(OC([H])([H])[H])c([H])c3[H])c3c([H])c([H])c([H])c([H])c23)c1[H]


 46 51  0  0  0  0  0  0  0  0999 V2000
  -19.9470   10.8643  -15.1305 N   0  0  0  0  0  0  0  0  0  0  0  0
  -19.4307   10.1935  -16.3006 C   0  0  0  0  0  0  0  0  0  0  0  0
  -19.2210    8.9944  -16.2590 O   0  0  0  0  0  0  0  0  0  0  0  0
  -19.1731   10.9231  -17.4529 N   0  0  0  0  0  0  0  0  0  0  0  0
  -20.1003   11.9371  -15.2423 H   0  0  0  0  0  0  0  0  0  0  0  0
  -18.2114    9.9938  -17.8009 H   0  0  0  0  0  0  0  0  0  0  0  0
  -18.9231   11.6172  -18.5631 C   0  0  0  0  0  0  0  0  0  0  0  0
  -19.6409   12.8103  -18.8209 C   0  0  0  0  0  0  0  0  0  0  0  0
  -19.4066   13.5888  -19.8776 C   0  0  0  0  0  0  0  0  0  0  0  0
  -18.4020   13.2331  -20.8047 C   0  0  0  0  0  0  0  0  0  0  0  0
  -17.6975   12.1135  -20.5866 C   0  0  0  0  0  0  0  0  0  0  0  0
  -16.6868   11.7890  -21.4840 C   0  0  0  0  0  0  0  0  0  0  0  0
  -15.9118   10.6773  -21.3195 C   0  0  0  0  0  0  0  0  0  0  0  0
  -16.1487    9.8814  -20.2351 C   0  0  0  0  0  0  0  0  0  0  0  0
  -17.1461   10.1939  -19.3430 C   0  0  0  0  0  0  0  0  0  0  0  0
  -17.9432   11.3067  -19.4837 C   0  0  0  0  0  0  0  0  0  0  0  0
  -18.3188   14.1404  -21.8379 O   0  0  0  0  0  0  0  0  0  0  0  0
  -17.5044   15.2249  -21.9575 C   0  0  0  0  0  0  0  0  0  0  0  0
  -17.3077   16.2144  -21.0470 C   0  0  0  0  0  0  0  0  0  0  0  0
  -16.4298   17.2902  -21.2776 C   0  0  0  0  0  0  0  0  0  0  0  0
  -15.7751   17.3194  -22.4296 N   0  0  0  0  0  0  0  0  0  0  0  0
  -15.9291   16.3560  -23.3715 C   0  0  0  0  0  0  0  0  0  0  0  0
  -15.1902   16.4278  -24.5009 N   0  0  0  0  0  0  0  0  0  0  0  0
  -15.2925   15.4734  -25.4413 C   0  0  0  0  0  0  0  0  0  0  0  0
  -14.5989   15.5237  -26.4899 O   0  0  0  0  0  0  0  0  0  0  0  0
  -16.1826   14.4064  -25.2105 C   0  0  0  0  0  0  0  0  0  0  0  0
  -16.9051   14.3422  -24.0904 N   0  0  0  0  0  0  0  0  0  0  0  0
  -16.7814   15.3105  -23.1617 C   0  0  0  0  0  0  0  0  0  0  0  0
  -14.5382   17.2244  -24.6456 H   0  0  0  0  0  0  0  0  0  0  0  0
  -21.3612    9.7593  -13.3212 N   0  0  0  0  0  0  0  0  0  0  0  0
  -21.0329    9.3154  -12.0917 N   0  0  0  0  0  0  0  0  0  0  0  0
  -19.7890    9.5817  -11.7933 C   0  0  0  0  0  0  0  0  0  0  0  0
  -19.2869   10.2439  -12.8955 C   0  0  0  0  0  0  0  0  0  0  0  0
  -20.3145   10.3576  -13.8992 C   0  0  0  0  0  0  0  0  0  0  0  0
  -25.3830    9.3508  -14.6038 C   0  0  0  0  0  0  0  0  0  0  0  0
  -24.3399    9.4230  -15.4958 C   0  0  0  0  0  0  0  0  0  0  0  0
  -23.0367    9.5299  -15.0872 C   0  0  0  0  0  0  0  0  0  0  0  0
  -22.6973    9.5638  -13.7885 C   0  0  0  0  0  0  0  0  0  0  0  0
  -23.7545    9.4823  -12.8422 C   0  0  0  0  0  0  0  0  0  0  0  0
  -25.0736    9.3781  -13.2648 C   0  0  0  0  0  0  0  0  0  0  0  0
  -27.3085   10.4035  -15.6587 C   0  0  0  0  0  0  0  0  0  0  0  0
  -26.7068    9.2559  -15.0212 O   0  0  0  0  0  0  0  0  0  0  0  0
  -18.9718    9.2511  -10.5677 C   0  0  0  0  0  0  0  0  0  0  0  0
  -18.3272   10.5288  -10.0274 C   0  0  0  0  0  0  0  0  0  0  0  0
  -19.8565    8.6870   -9.4794 C   0  0  0  0  0  0  0  0  0  0  0  0
  -17.9051    8.2679  -10.8706 C   0  0  0  0  0  0  0  0  0  0  0  0
 41 42  1  0  0  0
 42 35  1  0  0  0
 35 36  2  0  0  0
 36 37  1  0  0  0
 37 38  2  0  0  0
 38 39  1  0  0  0
 39 40  2  0  0  0
 38 30  1  0  0  0
 30 31  1  0  0  0
 31 32  2  0  0  0
 32 33  1  0  0  0
 33 34  2  0  0  0
 34  1  1  0  0  0
  1  2  1  0  0  0
  2  3  2  0  0  0
  2  4  1  0  0  0
  4  7  1  0  0  0
  7  8  2  0  0  0
  8  9  1  0  0  0
  9 10  2  0  0  0
 10 17  1  0  0  0
 17 18  1  0  0  0
 18 19  2  0  0  0
 19 20  1  0  0  0
 20 21  2  0  0  0
 21 22  1  0  0  0
 22 23  1  0  0  0
 23 24  1  0  0  0
 24 25  2  0  0  0
 24 26  1  0  0  0
 26 27  2  0  0  0
 27 28  1  0  0  0
 10 11  1  0  0  0
 11 12  2  0  0  0
 12 13  1  0  0  0
 13 14  2  0  0  0
 14 15  1  0  0  0
 15 16  2  0  0  0
 32 43  1  0  0  0
 43 44  1  0  0  0
 43 45  1  0  0  0
 43 46  1  0  0  0
 40 35  1  0  0  0
 34 30  1  0  0  0
 16  7  1  0  0  0
 28 18  1  0  0  0
 16 11  1  0  0  0
 28 22  2  0  0  0
  1  5  1  0  0  0
  4  6  1  0  0  0
 23 29  1  0  0  0
M  END
> <minimizedAffinity>
-10.16372

> <CNNscore>
0.0954688936

> <CNNaffinity>
6.8197526932

> <CNN_VS>
0.6510742307

> <CNNaffinity_variance>
0.2726598084

$$$$
[H]c1nc2c(nc([H])c(=O)n2[H])c(Oc2c([H])c([H])c(N([H])C(=O)N([H])c3c([H])c(C(C([H])([H])[H])(C([H])([H])[H])C([H])([H])[H])nn3-c3c([H])c([H])c(OC([H])([H])[H])c([H])c3[H])c3c([H])c([H])c([H])c([H])c23)c1[H]


 46 51  0  0  0  0  0  0  0  0999 V2000
  -19.5984    9.9396  -15.1380 N   0  0  0  0  0  0  0  0  0  0  0  0
  -19.0890    9.3921  -16.3736 C   0  0  0  0  0  0  0  0  0  0  0  0
  -18.9538    8.1866  -16.4829 O   0  0  0  0  0  0  0  0  0  0  0  0
  -18.7532   10.2451  -17.4158 N   0  0  0  0  0  0  0  0  0  0  0  0
  -19.6828   11.0255  -15.1134 H   0  0  0  0  0  0  0  0  0  0  0  0
  -17.8397    9.3082  -17.8601 H   0  0  0  0  0  0  0  0  0  0  0  0
  -18.4283   11.0579  -18.4211 C   0  0  0  0  0  0  0  0  0  0  0  0
  -17.3408   10.7283  -19.2660 C   0  0  0  0  0  0  0  0  0  0  0  0
  -16.9925   11.4589  -20.3255 C   0  0  0  0  0  0  0  0  0  0  0  0
  -17.7221   12.6251  -20.6466 C   0  0  0  0  0  0  0  0  0  0  0  0
  -18.7633   12.9620  -19.8720 C   0  0  0  0  0  0  0  0  0  0  0  0
  -19.4980   14.0909  -20.2151 C   0  0  0  0  0  0  0  0  0  0  0  0
  -20.5839   14.4875  -19.4890 C   0  0  0  0  0  0  0  0  0  0  0  0
  -20.9435   13.7373  -18.4058 C   0  0  0  0  0  0  0  0  0  0  0  0
  -20.2228   12.6200  -18.0587 C   0  0  0  0  0  0  0  0  0  0  0  0
  -19.1239   12.1972  -18.7708 C   0  0  0  0  0  0  0  0  0  0  0  0
  -17.2058   13.2591  -21.7552 O   0  0  0  0  0  0  0  0  0  0  0  0
  -16.7819   14.5468  -21.8814 C   0  0  0  0  0  0  0  0  0  0  0  0
  -16.8216   15.5255  -20.9394 C   0  0  0  0  0  0  0  0  0  0  0  0
  -16.3446   16.8274  -21.1815 C   0  0  0  0  0  0  0  0  0  0  0  0
  -15.8364   17.0885  -22.3774 N   0  0  0  0  0  0  0  0  0  0  0  0
  -15.7672   16.1488  -23.3526 C   0  0  0  0  0  0  0  0  0  0  0  0
  -15.1904   16.4761  -24.5303 N   0  0  0  0  0  0  0  0  0  0  0  0
  -15.0749   15.5610  -25.5076 C   0  0  0  0  0  0  0  0  0  0  0  0
  -14.5273   15.8518  -26.6024 O   0  0  0  0  0  0  0  0  0  0  0  0
  -15.5662   14.2636  -25.2639 C   0  0  0  0  0  0  0  0  0  0  0  0
  -16.1305   13.9488  -24.0964 N   0  0  0  0  0  0  0  0  0  0  0  0
  -16.2312   14.8840  -23.1317 C   0  0  0  0  0  0  0  0  0  0  0  0
  -14.8332   17.4402  -24.6838 H   0  0  0  0  0  0  0  0  0  0  0  0
  -21.1609    8.8082  -13.4729 N   0  0  0  0  0  0  0  0  0  0  0  0
  -20.8994    8.1132  -12.3481 N   0  0  0  0  0  0  0  0  0  0  0  0
  -19.6237    8.1053  -12.0654 C   0  0  0  0  0  0  0  0  0  0  0  0
  -19.0275    8.8464  -13.0657 C   0  0  0  0  0  0  0  0  0  0  0  0
  -20.0326    9.3043  -13.9911 C   0  0  0  0  0  0  0  0  0  0  0  0
  -25.1757    8.9708  -14.8299 C   0  0  0  0  0  0  0  0  0  0  0  0
  -24.8396    9.2314  -13.5229 C   0  0  0  0  0  0  0  0  0  0  0  0
  -23.5421    9.2049  -13.0842 C   0  0  0  0  0  0  0  0  0  0  0  0
  -22.5170    8.9292  -13.9064 C   0  0  0  0  0  0  0  0  0  0  0  0
  -22.8331    8.6637  -15.2664 C   0  0  0  0  0  0  0  0  0  0  0  0
  -24.1518    8.6887  -15.7024 C   0  0  0  0  0  0  0  0  0  0  0  0
  -27.3085   10.1379  -14.9621 C   0  0  0  0  0  0  0  0  0  0  0  0
  -26.4954    8.9850  -15.2702 O   0  0  0  0  0  0  0  0  0  0  0  0
  -18.8611    7.4360  -10.9474 C   0  0  0  0  0  0  0  0  0  0  0  0
  -19.0934    5.9253  -11.0078 C   0  0  0  0  0  0  0  0  0  0  0  0
  -17.3770    7.6792  -11.1010 C   0  0  0  0  0  0  0  0  0  0  0  0
  -19.2896    7.9335   -9.6189 C   0  0  0  0  0  0  0  0  0  0  0  0
 41 42  1  0  0  0
 42 35  1  0  0  0
 35 36  2  0  0  0
 36 37  1  0  0  0
 37 38  2  0  0  0
 38 39  1  0  0  0
 39 40  2  0  0  0
 38 30  1  0  0  0
 30 31  1  0  0  0
 31 32  2  0  0  0
 32 33  1  0  0  0
 33 34  2  0  0  0
 34  1  1  0  0  0
  1  2  1  0  0  0
  2  3  2  0  0  0
  2  4  1  0  0  0
  4  7  1  0  0  0
  7  8  2  0  0  0
  8  9  1  0  0  0
  9 10  2  0  0  0
 10 17  1  0  0  0
 17 18  1  0  0  0
 18 19  2  0  0  0
 19 20  1  0  0  0
 20 21  2  0  0  0
 21 22  1  0  0  0
 22 23  1  0  0  0
 23 24  1  0  0  0
 24 25  2  0  0  0
 24 26  1  0  0  0
 26 27  2  0  0  0
 27 28  1  0  0  0
 10 11  1  0  0  0
 11 12  2  0  0  0
 12 13  1  0  0  0
 13 14  2  0  0  0
 14 15  1  0  0  0
 15 16  2  0  0  0
 32 43  1  0  0  0
 43 44  1  0  0  0
 43 45  1  0  0  0
 43 46  1  0  0  0
 40 35  1  0  0  0
 34 30  1  0  0  0
 16  7  1  0  0  0
 28 18  1  0  0  0
 16 11  1  0  0  0
 28 22  2  0  0  0
  1  5  1  0  0  0
  4  6  1  0  0  0
 23 29  1  0  0  0
M  END
> <minimizedAffinity>
-9.79846

> <CNNscore>
0.0714258105

> <CNNaffinity>
6.9505476952

> <CNN_VS>
0.4964485168

> <CNNaffinity_variance>
0.1058282852

$$$$
[H]c1nc2c(nc([H])c(=O)n2[H])c(Oc2c([H])c([H])c(N([H])C(=O)N([H])c3c([H])c(C(C([H])([H])[H])(C([H])([H])[H])C([H])([H])[H])nn3-c3c([H])c([H])c(OC([H])([H])[H])c([H])c3[H])c3c([H])c([H])c([H])c([H])c23)c1[H]


 46 51  0  0  0  0  0  0  0  0999 V2000
  -19.9720   11.9136  -15.1909 N   0  0  0  0  0  0  0  0  0  0  0  0
  -19.7792   11.0289  -16.3161 C   0  0  0  0  0  0  0  0  0  0  0  0
  -19.9166    9.8284  -16.1635 O   0  0  0  0  0  0  0  0  0  0  0  0
  -19.4331   11.5559  -17.5527 N   0  0  0  0  0  0  0  0  0  0  0  0
  -19.8232   12.9717  -15.4038 H   0  0  0  0  0  0  0  0  0  0  0  0
  -18.8125   10.3612  -17.8643 H   0  0  0  0  0  0  0  0  0  0  0  0
  -19.1004   12.0545  -18.7432 C   0  0  0  0  0  0  0  0  0  0  0  0
  -19.7698   13.2013  -19.2352 C   0  0  0  0  0  0  0  0  0  0  0  0
  -19.4536   13.7922  -20.3878 C   0  0  0  0  0  0  0  0  0  0  0  0
  -18.4067   13.2725  -21.1809 C   0  0  0  0  0  0  0  0  0  0  0  0
  -17.7463   12.1920  -20.7408 C   0  0  0  0  0  0  0  0  0  0  0  0
  -16.6942   11.7078  -21.5095 C   0  0  0  0  0  0  0  0  0  0  0  0
  -15.9602   10.6250  -21.1192 C   0  0  0  0  0  0  0  0  0  0  0  0
  -16.2810   10.0216  -19.9366 C   0  0  0  0  0  0  0  0  0  0  0  0
  -17.3199   10.4928  -19.1704 C   0  0  0  0  0  0  0  0  0  0  0  0
  -18.0774   11.5809  -19.5389 C   0  0  0  0  0  0  0  0  0  0  0  0
  -18.2392   13.9969  -22.3406 O   0  0  0  0  0  0  0  0  0  0  0  0
  -17.4144   15.0547  -22.5743 C   0  0  0  0  0  0  0  0  0  0  0  0
  -16.9686   15.9692  -21.6733 C   0  0  0  0  0  0  0  0  0  0  0  0
  -16.1070   17.0235  -22.0297 C   0  0  0  0  0  0  0  0  0  0  0  0
  -15.7225   17.1084  -23.2952 N   0  0  0  0  0  0  0  0  0  0  0  0
  -16.1322   16.2205  -24.2347 C   0  0  0  0  0  0  0  0  0  0  0  0
  -15.6584   16.3430  -25.4946 N   0  0  0  0  0  0  0  0  0  0  0  0
  -16.0170   15.4619  -26.4437 C   0  0  0  0  0  0  0  0  0  0  0  0
  -15.5707   15.5590  -27.6161 O   0  0  0  0  0  0  0  0  0  0  0  0
  -16.8900   14.4168  -26.0839 C   0  0  0  0  0  0  0  0  0  0  0  0
  -17.3495   14.3019  -24.8364 N   0  0  0  0  0  0  0  0  0  0  0  0
  -16.9720   15.1967  -23.9025 C   0  0  0  0  0  0  0  0  0  0  0  0
  -15.0128   17.1219  -25.7336 H   0  0  0  0  0  0  0  0  0  0  0  0
  -21.4396   11.7095  -13.1176 N   0  0  0  0  0  0  0  0  0  0  0  0
  -21.2242   11.0894  -11.9406 N   0  0  0  0  0  0  0  0  0  0  0  0
  -20.0214   10.5838  -11.8690 C   0  0  0  0  0  0  0  0  0  0  0  0
  -19.4230   10.9035  -13.0710 C   0  0  0  0  0  0  0  0  0  0  0  0
  -20.3521   11.6376  -13.8921 C   0  0  0  0  0  0  0  0  0  0  0  0
  -25.1197   13.6373  -13.9703 C   0  0  0  0  0  0  0  0  0  0  0  0
  -25.0502   12.2914  -13.7009 C   0  0  0  0  0  0  0  0  0  0  0  0
  -23.8680   11.6678  -13.4003 C   0  0  0  0  0  0  0  0  0  0  0  0
  -22.7042   12.3352  -13.3435 C   0  0  0  0  0  0  0  0  0  0  0  0
  -22.7462   13.7307  -13.6093 C   0  0  0  0  0  0  0  0  0  0  0  0
  -23.9485   14.3547  -13.9173 C   0  0  0  0  0  0  0  0  0  0  0  0
  -26.6658   14.4162  -15.6825 C   0  0  0  0  0  0  0  0  0  0  0  0
  -26.3194   14.2659  -14.2887 O   0  0  0  0  0  0  0  0  0  0  0  0
  -19.3484    9.7788  -10.7834 C   0  0  0  0  0  0  0  0  0  0  0  0
  -18.5588    8.6321  -11.4171 C   0  0  0  0  0  0  0  0  0  0  0  0
  -18.3716   10.6401  -10.0157 C   0  0  0  0  0  0  0  0  0  0  0  0
  -20.3335    9.2131   -9.8317 C   0  0  0  0  0  0  0  0  0  0  0  0
 41 42  1  0  0  0
 42 35  1  0  0  0
 35 36  2  0  0  0
 36 37  1  0  0  0
 37 38  2  0  0  0
 38 39  1  0  0  0
 39 40  2  0  0  0
 38 30  1  0  0  0
 30 31  1  0  0  0
 31 32  2  0  0  0
 32 33  1  0  0  0
 33 34  2  0  0  0
 34  1  1  0  0  0
  1  2  1  0  0  0
  2  3  2  0  0  0
  2  4  1  0  0  0
  4  7  1  0  0  0
  7  8  2  0  0  0
  8  9  1  0  0  0
  9 10  2  0  0  0
 10 17  1  0  0  0
 17 18  1  0  0  0
 18 19  2  0  0  0
 19 20  1  0  0  0
 20 21  2  0  0  0
 21 22  1  0  0  0
 22 23  1  0  0  0
 23 24  1  0  0  0
 24 25  2  0  0  0
 24 26  1  0  0  0
 26 27  2  0  0  0
 27 28  1  0  0  0
 10 11  1  0  0  0
 11 12  2  0  0  0
 12 13  1  0  0  0
 13 14  2  0  0  0
 14 15  1  0  0  0
 15 16  2  0  0  0
 32 43  1  0  0  0
 43 44  1  0  0  0
 43 45  1  0  0  0
 43 46  1  0  0  0
 40 35  1  0  0  0
 34 30  1  0  0  0
 16  7  1  0  0  0
 28 18  1  0  0  0
 16 11  1  0  0  0
 28 22  2  0  0  0
  1  5  1  0  0  0
  4  6  1  0  0  0
 23 29  1  0  0  0
M  END
> <minimizedAffinity>
-10.27316

> <CNNscore>
0.0645156801

> <CNNaffinity>
6.6524477005

> <CNN_VS>
0.4291871786

> <CNNaffinity_variance>
0.2496393025

$$$$
[H]c1nc2c(nc([H])c(=O)n2[H])c(Oc2c([H])c([H])c(N([H])C(=O)N([H])c3c([H])c(C(C([H])([H])[H])(C([H])([H])[H])C([H])([H])[H])nn3-c3c([H])c([H])c(OC([H])([H])[H])c([H])c3[H])c3c([H])c([H])c([H])c([H])c23)c1[H]


 46 51  0  0  0  0  0  0  0  0999 V2000
  -20.1350   10.3130  -16.1587 N   0  0  0  0  0  0  0  0  0  0  0  0
  -18.9817   10.0781  -16.9957 C   0  0  0  0  0  0  0  0  0  0  0  0
  -18.1802    9.2164  -16.6817 O   0  0  0  0  0  0  0  0  0  0  0  0
  -18.7974   10.8407  -18.1407 N   0  0  0  0  0  0  0  0  0  0  0  0
  -20.8008   11.1048  -16.5003 H   0  0  0  0  0  0  0  0  0  0  0  0
  -17.4349   10.6375  -18.0310 H   0  0  0  0  0  0  0  0  0  0  0  0
  -18.6135   11.5692  -19.2417 C   0  0  0  0  0  0  0  0  0  0  0  0
  -19.4483   12.6854  -19.4917 C   0  0  0  0  0  0  0  0  0  0  0  0
  -19.2890   13.4956  -20.5385 C   0  0  0  0  0  0  0  0  0  0  0  0
  -18.2480   13.2551  -21.4624 C   0  0  0  0  0  0  0  0  0  0  0  0
  -17.4337   12.2111  -21.2515 C   0  0  0  0  0  0  0  0  0  0  0  0
  -16.3901   12.0019  -22.1454 C   0  0  0  0  0  0  0  0  0  0  0  0
  -15.5062   10.9736  -21.9876 C   0  0  0  0  0  0  0  0  0  0  0  0
  -15.6665   10.1455  -20.9132 C   0  0  0  0  0  0  0  0  0  0  0  0
  -16.6957   10.3442  -20.0247 C   0  0  0  0  0  0  0  0  0  0  0  0
  -17.6018   11.3710  -20.1589 C   0  0  0  0  0  0  0  0  0  0  0  0
  -18.2523   14.1777  -22.4853 O   0  0  0  0  0  0  0  0  0  0  0  0
  -17.3857   15.2028  -22.7134 C   0  0  0  0  0  0  0  0  0  0  0  0
  -16.9401   16.1224  -21.8175 C   0  0  0  0  0  0  0  0  0  0  0  0
  -16.0327   17.1401  -22.1669 C   0  0  0  0  0  0  0  0  0  0  0  0
  -15.6038   17.1841  -23.4202 N   0  0  0  0  0  0  0  0  0  0  0  0
  -16.0113   16.2891  -24.3539 C   0  0  0  0  0  0  0  0  0  0  0  0
  -15.4921   16.3679  -25.5993 N   0  0  0  0  0  0  0  0  0  0  0  0
  -15.8480   15.4778  -26.5411 C   0  0  0  0  0  0  0  0  0  0  0  0
  -15.3600   15.5341  -27.6995 O   0  0  0  0  0  0  0  0  0  0  0  0
  -16.7665   14.4697  -26.1889 C   0  0  0  0  0  0  0  0  0  0  0  0
  -17.2707   14.3978  -24.9554 N   0  0  0  0  0  0  0  0  0  0  0  0
  -16.8950   15.3007  -24.0286 C   0  0  0  0  0  0  0  0  0  0  0  0
  -14.8136   17.1200  -25.8329 H   0  0  0  0  0  0  0  0  0  0  0  0
  -21.3113    9.9037  -13.9354 N   0  0  0  0  0  0  0  0  0  0  0  0
  -21.4946    8.7710  -13.2285 N   0  0  0  0  0  0  0  0  0  0  0  0
  -20.8895    7.7509  -13.7770 C   0  0  0  0  0  0  0  0  0  0  0  0
  -20.2731    8.2590  -14.9027 C   0  0  0  0  0  0  0  0  0  0  0  0
  -20.5518    9.6686  -15.0103 C   0  0  0  0  0  0  0  0  0  0  0  0
  -22.8602   13.5434  -12.4055 C   0  0  0  0  0  0  0  0  0  0  0  0
  -22.8292   13.2769  -13.7535 C   0  0  0  0  0  0  0  0  0  0  0  0
  -22.3532   12.0930  -14.2522 C   0  0  0  0  0  0  0  0  0  0  0  0
  -21.8935   11.1164  -13.4535 C   0  0  0  0  0  0  0  0  0  0  0  0
  -21.9211   11.3601  -12.0536 C   0  0  0  0  0  0  0  0  0  0  0  0
  -22.4017   12.5648  -11.5562 C   0  0  0  0  0  0  0  0  0  0  0  0
  -24.0955   15.6082  -12.7785 C   0  0  0  0  0  0  0  0  0  0  0  0
  -23.3315   14.7517  -11.9021 O   0  0  0  0  0  0  0  0  0  0  0  0
  -20.8426    6.2955  -13.3780 C   0  0  0  0  0  0  0  0  0  0  0  0
  -19.9923    5.5201  -14.3858 C   0  0  0  0  0  0  0  0  0  0  0  0
  -20.1992    6.1410  -12.0188 C   0  0  0  0  0  0  0  0  0  0  0  0
  -22.1974    5.6967  -13.3337 C   0  0  0  0  0  0  0  0  0  0  0  0
 41 42  1  0  0  0
 42 35  1  0  0  0
 35 36  2  0  0  0
 36 37  1  0  0  0
 37 38  2  0  0  0
 38 39  1  0  0  0
 39 40  2  0  0  0
 38 30  1  0  0  0
 30 31  1  0  0  0
 31 32  2  0  0  0
 32 33  1  0  0  0
 33 34  2  0  0  0
 34  1  1  0  0  0
  1  2  1  0  0  0
  2  3  2  0  0  0
  2  4  1  0  0  0
  4  7  1  0  0  0
  7  8  2  0  0  0
  8  9  1  0  0  0
  9 10  2  0  0  0
 10 17  1  0  0  0
 17 18  1  0  0  0
 18 19  2  0  0  0
 19 20  1  0  0  0
 20 21  2  0  0  0
 21 22  1  0  0  0
 22 23  1  0  0  0
 23 24  1  0  0  0
 24 25  2  0  0  0
 24 26  1  0  0  0
 26 27  2  0  0  0
 27 28  1  0  0  0
 10 11  1  0  0  0
 11 12  2  0  0  0
 12 13  1  0  0  0
 13 14  2  0  0  0
 14 15  1  0  0  0
 15 16  2  0  0  0
 32 43  1  0  0  0
 43 44  1  0  0  0
 43 45  1  0  0  0
 43 46  1  0  0  0
 40 35  1  0  0  0
 34 30  1  0  0  0
 16  7  1  0  0  0
 28 18  1  0  0  0
 16 11  1  0  0  0
 28 22  2  0  0  0
  1  5  1  0  0  0
  4  6  1  0  0  0
 23 29  1  0  0  0
M  END
> <minimizedAffinity>
-9.45069

> <CNNscore>
0.0605361387

> <CNNaffinity>
6.8487153053

> <CNN_VS>
0.4145947695

> <CNNaffinity_variance>
0.1170285195

$$$$
[H]c1nc2c(nc([H])c(=O)n2[H])c(Oc2c([H])c([H])c(N([H])C(=O)N([H])c3c([H])c(C(C([H])([H])[H])(C([H])([H])[H])C([H])([H])[H])nn3-c3c([H])c([H])c(OC([H])([H])[H])c([H])c3[H])c3c([H])c([H])c([H])c([H])c23)c1[H]


 46 51  0  0  0  0  0  0  0  0999 V2000
  -19.7731   10.4936  -14.8916 N   0  0  0  0  0  0  0  0  0  0  0  0
  -19.1632    9.9703  -16.0916 C   0  0  0  0  0  0  0  0  0  0  0  0
  -18.7553    8.8227  -16.1038 O   0  0  0  0  0  0  0  0  0  0  0  0
  -19.0428   10.7821  -17.2110 N   0  0  0  0  0  0  0  0  0  0  0  0
  -20.1049   11.5294  -14.9553 H   0  0  0  0  0  0  0  0  0  0  0  0
  -17.9425   10.0432  -17.6022 H   0  0  0  0  0  0  0  0  0  0  0  0
  -18.9233   11.5558  -18.2898 C   0  0  0  0  0  0  0  0  0  0  0  0
  -19.6881   12.7435  -18.3892 C   0  0  0  0  0  0  0  0  0  0  0  0
  -19.5805   13.5973  -19.4076 C   0  0  0  0  0  0  0  0  0  0  0  0
  -18.6705   13.3323  -20.4549 C   0  0  0  0  0  0  0  0  0  0  0  0
  -17.9246   12.2202  -20.3884 C   0  0  0  0  0  0  0  0  0  0  0  0
  -17.0061   11.9845  -21.4047 C   0  0  0  0  0  0  0  0  0  0  0  0
  -16.1958   10.8859  -21.3981 C   0  0  0  0  0  0  0  0  0  0  0  0
  -16.3028   10.0128  -20.3531 C   0  0  0  0  0  0  0  0  0  0  0  0
  -17.2084   10.2373  -19.3443 C   0  0  0  0  0  0  0  0  0  0  0  0
  -18.0382   11.3347  -19.3250 C   0  0  0  0  0  0  0  0  0  0  0  0
  -18.7133   14.3089  -21.4254 O   0  0  0  0  0  0  0  0  0  0  0  0
  -17.8127   15.2974  -21.6816 C   0  0  0  0  0  0  0  0  0  0  0  0
  -17.2864   16.1846  -20.7970 C   0  0  0  0  0  0  0  0  0  0  0  0
  -16.3509   17.1655  -21.1762 C   0  0  0  0  0  0  0  0  0  0  0  0
  -15.9772   17.2065  -22.4471 N   0  0  0  0  0  0  0  0  0  0  0  0
  -16.4660   16.3426  -23.3710 C   0  0  0  0  0  0  0  0  0  0  0  0
  -16.0003   16.4142  -24.6378 N   0  0  0  0  0  0  0  0  0  0  0  0
  -16.4378   15.5530  -25.5720 C   0  0  0  0  0  0  0  0  0  0  0  0
  -16.0003   15.6026  -26.7507 O   0  0  0  0  0  0  0  0  0  0  0  0
  -17.3839   14.5823  -25.1893 C   0  0  0  0  0  0  0  0  0  0  0  0
  -17.8348   14.5169  -23.9351 N   0  0  0  0  0  0  0  0  0  0  0  0
  -17.3777   15.3902  -23.0166 C   0  0  0  0  0  0  0  0  0  0  0  0
  -15.2999   17.1384  -24.8938 H   0  0  0  0  0  0  0  0  0  0  0  0
  -20.3994    8.6809  -13.2134 N   0  0  0  0  0  0  0  0  0  0  0  0
  -20.3102    8.6532  -11.8689 N   0  0  0  0  0  0  0  0  0  0  0  0
  -19.8954    9.7936  -11.3843 C   0  0  0  0  0  0  0  0  0  0  0  0
  -19.7126   10.6082  -12.4835 C   0  0  0  0  0  0  0  0  0  0  0  0
  -20.0384    9.8795  -13.6832 C   0  0  0  0  0  0  0  0  0  0  0  0
  -21.7369    5.3150  -15.4199 C   0  0  0  0  0  0  0  0  0  0  0  0
  -20.7053    5.2277  -14.5159 C   0  0  0  0  0  0  0  0  0  0  0  0
  -20.2854    6.3056  -13.7820 C   0  0  0  0  0  0  0  0  0  0  0  0
  -20.8608    7.5134  -13.8959 C   0  0  0  0  0  0  0  0  0  0  0  0
  -21.9363    7.6323  -14.8173 C   0  0  0  0  0  0  0  0  0  0  0  0
  -22.3535    6.5354  -15.5605 C   0  0  0  0  0  0  0  0  0  0  0  0
  -21.3225    3.0408  -16.1847 C   0  0  0  0  0  0  0  0  0  0  0  0
  -22.1528    4.2223  -16.1739 O   0  0  0  0  0  0  0  0  0  0  0  0
  -19.6073   10.2205   -9.9651 C   0  0  0  0  0  0  0  0  0  0  0  0
  -18.1101   10.4934   -9.8110 C   0  0  0  0  0  0  0  0  0  0  0  0
  -20.3435   11.4999   -9.6386 C   0  0  0  0  0  0  0  0  0  0  0  0
  -20.0072    9.1795   -8.9890 C   0  0  0  0  0  0  0  0  0  0  0  0
 41 42  1  0  0  0
 42 35  1  0  0  0
 35 36  2  0  0  0
 36 37  1  0  0  0
 37 38  2  0  0  0
 38 39  1  0  0  0
 39 40  2  0  0  0
 38 30  1  0  0  0
 30 31  1  0  0  0
 31 32  2  0  0  0
 32 33  1  0  0  0
 33 34  2  0  0  0
 34  1  1  0  0  0
  1  2  1  0  0  0
  2  3  2  0  0  0
  2  4  1  0  0  0
  4  7  1  0  0  0
  7  8  2  0  0  0
  8  9  1  0  0  0
  9 10  2  0  0  0
 10 17  1  0  0  0
 17 18  1  0  0  0
 18 19  2  0  0  0
 19 20  1  0  0  0
 20 21  2  0  0  0
 21 22  1  0  0  0
 22 23  1  0  0  0
 23 24  1  0  0  0
 24 25  2  0  0  0
 24 26  1  0  0  0
 26 27  2  0  0  0
 27 28  1  0  0  0
 10 11  1  0  0  0
 11 12  2  0  0  0
 12 13  1  0  0  0
 13 14  2  0  0  0
 14 15  1  0  0  0
 15 16  2  0  0  0
 32 43  1  0  0  0
 43 44  1  0  0  0
 43 45  1  0  0  0
 43 46  1  0  0  0
 40 35  1  0  0  0
 34 30  1  0  0  0
 16  7  1  0  0  0
 28 18  1  0  0  0
 16 11  1  0  0  0
 28 22  2  0  0  0
  1  5  1  0  0  0
  4  6  1  0  0  0
 23 29  1  0  0  0
M  END
> <minimizedAffinity>
-10.23342

> <CNNscore>
0.0571903624

> <CNNaffinity>
6.6741418839

> <CNN_VS>
0.3816965818

> <CNNaffinity_variance>
0.2930541337

$$$$
[H]c1nc2c(nc([H])c(=O)n2[H])c(Oc2c([H])c([H])c(N([H])C(=O)N([H])c3c([H])c(C(C([H])([H])[H])(C([H])([H])[H])C([H])([H])[H])nn3-c3c([H])c([H])c(OC([H])([H])[H])c([H])c3[H])c3c([H])c([H])c([H])c([H])c23)c1[H]


 46 51  0  0  0  0  0  0  0  0999 V2000
  -18.6216   13.2236  -20.4718 N   0  0  0  0  0  0  0  0  0  0  0  0
  -17.8967   12.1321  -19.8646 C   0  0  0  0  0  0  0  0  0  0  0  0
  -16.8045   11.8210  -20.3048 O   0  0  0  0  0  0  0  0  0  0  0  0
  -18.4557   11.4477  -18.7942 N   0  0  0  0  0  0  0  0  0  0  0  0
  -19.5939   13.4364  -20.0287 H   0  0  0  0  0  0  0  0  0  0  0  0
  -17.7285   10.3299  -19.1566 H   0  0  0  0  0  0  0  0  0  0  0  0
  -18.9861   10.7855  -17.7661 C   0  0  0  0  0  0  0  0  0  0  0  0
  -18.5644    9.4618  -17.4919 C   0  0  0  0  0  0  0  0  0  0  0  0
  -19.0041    8.7574  -16.4488 C   0  0  0  0  0  0  0  0  0  0  0  0
  -19.9377    9.3296  -15.5565 C   0  0  0  0  0  0  0  0  0  0  0  0
  -20.3522   10.5845  -15.7821 C   0  0  0  0  0  0  0  0  0  0  0  0
  -21.2437   11.1532  -14.8799 C   0  0  0  0  0  0  0  0  0  0  0  0
  -21.6961   12.4325  -15.0288 C   0  0  0  0  0  0  0  0  0  0  0  0
  -21.2429   13.1561  -16.0950 C   0  0  0  0  0  0  0  0  0  0  0  0
  -20.3621   12.6020  -16.9924 C   0  0  0  0  0  0  0  0  0  0  0  0
  -19.8902   11.3153  -16.8684 C   0  0  0  0  0  0  0  0  0  0  0  0
  -20.2917    8.4499  -14.5573 O   0  0  0  0  0  0  0  0  0  0  0  0
  -19.6546    8.1926  -13.3819 C   0  0  0  0  0  0  0  0  0  0  0  0
  -19.1049    9.0937  -12.5259 C   0  0  0  0  0  0  0  0  0  0  0  0
  -18.4737    8.7104  -11.3277 C   0  0  0  0  0  0  0  0  0  0  0  0
  -18.4281    7.4180  -11.0375 N   0  0  0  0  0  0  0  0  0  0  0  0
  -18.9648    6.4763  -11.8525 C   0  0  0  0  0  0  0  0  0  0  0  0
  -18.9230    5.1820  -11.4654 N   0  0  0  0  0  0  0  0  0  0  0  0
  -19.4738    4.2257  -12.2320 C   0  0  0  0  0  0  0  0  0  0  0  0
  -19.4523    3.0196  -11.8740 O   0  0  0  0  0  0  0  0  0  0  0  0
  -20.0923    4.6142  -13.4364 C   0  0  0  0  0  0  0  0  0  0  0  0
  -20.1320    5.8952  -13.8082 N   0  0  0  0  0  0  0  0  0  0  0  0
  -19.5751    6.8352  -13.0198 C   0  0  0  0  0  0  0  0  0  0  0  0
  -18.4629    4.9220  -10.5702 H   0  0  0  0  0  0  0  0  0  0  0  0
  -18.1823   15.3790  -21.7586 N   0  0  0  0  0  0  0  0  0  0  0  0
  -17.5587   15.5945  -22.9338 N   0  0  0  0  0  0  0  0  0  0  0  0
  -17.1997   14.4767  -23.5073 C   0  0  0  0  0  0  0  0  0  0  0  0
  -17.6239   13.4795  -22.6523 C   0  0  0  0  0  0  0  0  0  0  0  0
  -18.2643   14.0690  -21.5040 C   0  0  0  0  0  0  0  0  0  0  0  0
  -19.7802   18.6256  -19.5465 C   0  0  0  0  0  0  0  0  0  0  0  0
  -18.6769   17.9273  -19.1173 C   0  0  0  0  0  0  0  0  0  0  0  0
  -18.1412   16.8939  -19.8397 C   0  0  0  0  0  0  0  0  0  0  0  0
  -18.6574   16.5036  -21.0162 C   0  0  0  0  0  0  0  0  0  0  0  0
  -19.7942   17.2131  -21.4900 C   0  0  0  0  0  0  0  0  0  0  0  0
  -20.3337   18.2572  -20.7495 C   0  0  0  0  0  0  0  0  0  0  0  0
  -19.9383   19.8041  -17.4217 C   0  0  0  0  0  0  0  0  0  0  0  0
  -20.3306   19.6659  -18.8046 O   0  0  0  0  0  0  0  0  0  0  0  0
  -16.4503   14.2189  -24.7924 C   0  0  0  0  0  0  0  0  0  0  0  0
  -16.4602   15.4864  -25.6488 C   0  0  0  0  0  0  0  0  0  0  0  0
  -15.0080   13.8716  -24.5023 C   0  0  0  0  0  0  0  0  0  0  0  0
  -17.0592   13.1125  -25.5679 C   0  0  0  0  0  0  0  0  0  0  0  0
 41 42  1  0  0  0
 42 35  1  0  0  0
 35 36  2  0  0  0
 36 37  1  0  0  0
 37 38  2  0  0  0
 38 39  1  0  0  0
 39 40  2  0  0  0
 38 30  1  0  0  0
 30 31  1  0  0  0
 31 32  2  0  0  0
 32 33  1  0  0  0
 33 34  2  0  0  0
 34  1  1  0  0  0
  1  2  1  0  0  0
  2  3  2  0  0  0
  2  4  1  0  0  0
  4  7  1  0  0  0
  7  8  2  0  0  0
  8  9  1  0  0  0
  9 10  2  0  0  0
 10 17  1  0  0  0
 17 18  1  0  0  0
 18 19  2  0  0  0
 19 20  1  0  0  0
 20 21  2  0  0  0
 21 22  1  0  0  0
 22 23  1  0  0  0
 23 24  1  0  0  0
 24 25  2  0  0  0
 24 26  1  0  0  0
 26 27  2  0  0  0
 27 28  1  0  0  0
 10 11  1  0  0  0
 11 12  2  0  0  0
 12 13  1  0  0  0
 13 14  2  0  0  0
 14 15  1  0  0  0
 15 16  2  0  0  0
 32 43  1  0  0  0
 43 44  1  0  0  0
 43 45  1  0  0  0
 43 46  1  0  0  0
 40 35  1  0  0  0
 34 30  1  0  0  0
 16  7  1  0  0  0
 28 18  1  0  0  0
 16 11  1  0  0  0
 28 22  2  0  0  0
  1  5  1  0  0  0
  4  6  1  0  0  0
 23 29  1  0  0  0
M  END
> <minimizedAffinity>
-9.28930

> <CNNscore>
0.0560528561

> <CNNaffinity>
7.0952072144

> <CNN_VS>
0.3977066278

> <CNNaffinity_variance>
0.1025193706

$$$$
[H]c1nc2c(nc([H])c(=O)n2[H])c(Oc2c([H])c([H])c(N([H])C(=O)N([H])c3c([H])c(C(C([H])([H])[H])(C([H])([H])[H])C([H])([H])[H])nn3-c3c([H])c([H])c(OC([H])([H])[H])c([H])c3[H])c3c([H])c([H])c([H])c([H])c23)c1[H]


 46 51  0  0  0  0  0  0  0  0999 V2000
  -20.2444   10.7972  -15.0778 N   0  0  0  0  0  0  0  0  0  0  0  0
  -19.2964   10.2747  -16.0339 C   0  0  0  0  0  0  0  0  0  0  0  0
  -18.7305    9.2216  -15.8008 O   0  0  0  0  0  0  0  0  0  0  0  0
  -19.0368   10.9812  -17.2001 N   0  0  0  0  0  0  0  0  0  0  0  0
  -20.7025   11.7467  -15.3525 H   0  0  0  0  0  0  0  0  0  0  0  0
  -17.7775   10.4135  -17.2385 H   0  0  0  0  0  0  0  0  0  0  0  0
  -18.7821   11.6541  -18.3222 C   0  0  0  0  0  0  0  0  0  0  0  0
  -17.7490   11.2137  -19.1848 C   0  0  0  0  0  0  0  0  0  0  0  0
  -17.4740   11.7980  -20.3513 C   0  0  0  0  0  0  0  0  0  0  0  0
  -18.2297   12.9137  -20.7749 C   0  0  0  0  0  0  0  0  0  0  0  0
  -19.2210   13.3520  -19.9858 C   0  0  0  0  0  0  0  0  0  0  0  0
  -19.9831   14.4279  -20.4259 C   0  0  0  0  0  0  0  0  0  0  0  0
  -21.0225   14.9190  -19.6897 C   0  0  0  0  0  0  0  0  0  0  0  0
  -21.3073   14.3184  -18.4965 C   0  0  0  0  0  0  0  0  0  0  0  0
  -20.5590   13.2546  -18.0530 C   0  0  0  0  0  0  0  0  0  0  0  0
  -19.5055   12.7393  -18.7728 C   0  0  0  0  0  0  0  0  0  0  0  0
  -17.7896   13.3954  -21.9880 O   0  0  0  0  0  0  0  0  0  0  0  0
  -17.1346   14.5583  -22.2575 C   0  0  0  0  0  0  0  0  0  0  0  0
  -16.7072   15.4910  -21.3664 C   0  0  0  0  0  0  0  0  0  0  0  0
  -16.0294   16.6594  -21.7618 C   0  0  0  0  0  0  0  0  0  0  0  0
  -15.8038   16.8368  -23.0557 N   0  0  0  0  0  0  0  0  0  0  0  0
  -16.2033   15.9364  -23.9877 C   0  0  0  0  0  0  0  0  0  0  0  0
  -15.8938   16.1624  -25.2838 N   0  0  0  0  0  0  0  0  0  0  0  0
  -16.2448   15.2756  -26.2305 C   0  0  0  0  0  0  0  0  0  0  0  0
  -15.9493   15.4700  -27.4380 O   0  0  0  0  0  0  0  0  0  0  0  0
  -16.9346   14.1148  -25.8300 C   0  0  0  0  0  0  0  0  0  0  0  0
  -17.2323   13.8986  -24.5473 N   0  0  0  0  0  0  0  0  0  0  0  0
  -16.8661   14.8019  -23.6171 C   0  0  0  0  0  0  0  0  0  0  0  0
  -15.3813   17.0259  -25.5528 H   0  0  0  0  0  0  0  0  0  0  0  0
  -21.0619    9.0878  -13.3738 N   0  0  0  0  0  0  0  0  0  0  0  0
  -21.2254    9.1798  -12.0392 N   0  0  0  0  0  0  0  0  0  0  0  0
  -20.9802   10.3858  -11.6000 C   0  0  0  0  0  0  0  0  0  0  0  0
  -20.6447   11.1173  -12.7214 C   0  0  0  0  0  0  0  0  0  0  0  0
  -20.6937   10.2675  -13.8840 C   0  0  0  0  0  0  0  0  0  0  0  0
  -21.9051    5.3043  -15.0945 C   0  0  0  0  0  0  0  0  0  0  0  0
  -22.3114    6.4773  -15.6844 C   0  0  0  0  0  0  0  0  0  0  0  0
  -22.0206    7.7032  -15.1465 C   0  0  0  0  0  0  0  0  0  0  0  0
  -21.3139    7.8346  -14.0123 C   0  0  0  0  0  0  0  0  0  0  0  0
  -20.8727    6.6387  -13.3839 C   0  0  0  0  0  0  0  0  0  0  0  0
  -21.1752    5.3994  -13.9337 C   0  0  0  0  0  0  0  0  0  0  0  0
  -21.1621    3.3183  -16.2913 C   0  0  0  0  0  0  0  0  0  0  0  0
  -22.2132    4.0600  -15.6353 O   0  0  0  0  0  0  0  0  0  0  0  0
  -20.9908   10.9513  -10.2002 C   0  0  0  0  0  0  0  0  0  0  0  0
  -21.4287   12.4162  -10.2478 C   0  0  0  0  0  0  0  0  0  0  0  0
  -21.9806   10.2038   -9.3360 C   0  0  0  0  0  0  0  0  0  0  0  0
  -19.6527   10.8720   -9.5682 C   0  0  0  0  0  0  0  0  0  0  0  0
 41 42  1  0  0  0
 42 35  1  0  0  0
 35 36  2  0  0  0
 36 37  1  0  0  0
 37 38  2  0  0  0
 38 39  1  0  0  0
 39 40  2  0  0  0
 38 30  1  0  0  0
 30 31  1  0  0  0
 31 32  2  0  0  0
 32 33  1  0  0  0
 33 34  2  0  0  0
 34  1  1  0  0  0
  1  2  1  0  0  0
  2  3  2  0  0  0
  2  4  1  0  0  0
  4  7  1  0  0  0
  7  8  2  0  0  0
  8  9  1  0  0  0
  9 10  2  0  0  0
 10 17  1  0  0  0
 17 18  1  0  0  0
 18 19  2  0  0  0
 19 20  1  0  0  0
 20 21  2  0  0  0
 21 22  1  0  0  0
 22 23  1  0  0  0
 23 24  1  0  0  0
 24 25  2  0  0  0
 24 26  1  0  0  0
 26 27  2  0  0  0
 27 28  1  0  0  0
 10 11  1  0  0  0
 11 12  2  0  0  0
 12 13  1  0  0  0
 13 14  2  0  0  0
 14 15  1  0  0  0
 15 16  2  0  0  0
 32 43  1  0  0  0
 43 44  1  0  0  0
 43 45  1  0  0  0
 43 46  1  0  0  0
 40 35  1  0  0  0
 34 30  1  0  0  0
 16  7  1  0  0  0
 28 18  1  0  0  0
 16 11  1  0  0  0
 28 22  2  0  0  0
  1  5  1  0  0  0
  4  6  1  0  0  0
 23 29  1  0  0  0
M  END
> <minimizedAffinity>
-9.48856

> <CNNscore>
0.0458570495

> <CNNaffinity>
6.8338265419

> <CNN_VS>
0.3133791089

> <CNNaffinity_variance>
0.0879385024

$$$$
[H]c1nc2c(nc([H])c(=O)n2[H])c(Oc2c([H])c([H])c(N([H])C(=O)N([H])c3c([H])c(C(C([H])([H])[H])(C([H])([H])[H])C([H])([H])[H])nn3-c3c([H])c([H])c(OC([H])([H])[H])c([H])c3[H])c3c([H])c([H])c([H])c([H])c23)c1[H]


 46 51  0  0  0  0  0  0  0  0999 V2000
  -19.4482   10.0054  -15.3481 N   0  0  0  0  0  0  0  0  0  0  0  0
  -19.1497    9.3879  -16.6190 C   0  0  0  0  0  0  0  0  0  0  0  0
  -19.3495    8.1955  -16.7663 O   0  0  0  0  0  0  0  0  0  0  0  0
  -18.6328   10.1576  -17.6520 N   0  0  0  0  0  0  0  0  0  0  0  0
  -19.2349   11.0723  -15.2909 H   0  0  0  0  0  0  0  0  0  0  0  0
  -18.0229    9.0268  -18.1609 H   0  0  0  0  0  0  0  0  0  0  0  0
  -18.1359   10.8901  -18.6486 C   0  0  0  0  0  0  0  0  0  0  0  0
  -17.0179   10.4165  -19.3773 C   0  0  0  0  0  0  0  0  0  0  0  0
  -16.5017   11.0627  -20.4230 C   0  0  0  0  0  0  0  0  0  0  0  0
  -17.0732   12.2824  -20.8485 C   0  0  0  0  0  0  0  0  0  0  0  0
  -18.1382   12.7556  -20.1858 C   0  0  0  0  0  0  0  0  0  0  0  0
  -18.7168   13.9379  -20.6325 C   0  0  0  0  0  0  0  0  0  0  0  0
  -19.8155   14.4729  -20.0241 C   0  0  0  0  0  0  0  0  0  0  0  0
  -20.3472   13.8093  -18.9552 C   0  0  0  0  0  0  0  0  0  0  0  0
  -19.7816   12.6402  -18.5062 C   0  0  0  0  0  0  0  0  0  0  0  0
  -18.6740   12.0784  -19.0986 C   0  0  0  0  0  0  0  0  0  0  0  0
  -16.3963   12.8135  -21.9243 O   0  0  0  0  0  0  0  0  0  0  0  0
  -16.8498   13.0480  -23.1865 C   0  0  0  0  0  0  0  0  0  0  0  0
  -17.3221   12.1366  -24.0770 C   0  0  0  0  0  0  0  0  0  0  0  0
  -17.7741   12.4975  -25.3602 C   0  0  0  0  0  0  0  0  0  0  0  0
  -17.7350   13.7799  -25.6927 N   0  0  0  0  0  0  0  0  0  0  0  0
  -17.2786   14.7321  -24.8418 C   0  0  0  0  0  0  0  0  0  0  0  0
  -17.3153   16.0251  -25.2339 N   0  0  0  0  0  0  0  0  0  0  0  0
  -16.9020   16.9983  -24.4046 C   0  0  0  0  0  0  0  0  0  0  0  0
  -16.9450   18.2061  -24.7549 O   0  0  0  0  0  0  0  0  0  0  0  0
  -16.4383   16.6294  -23.1267 C   0  0  0  0  0  0  0  0  0  0  0  0
  -16.4095   15.3504  -22.7472 N   0  0  0  0  0  0  0  0  0  0  0  0
  -16.8327   14.3940  -23.5966 C   0  0  0  0  0  0  0  0  0  0  0  0
  -17.6649   16.2711  -26.1815 H   0  0  0  0  0  0  0  0  0  0  0  0
  -20.9541    9.7454  -13.3087 N   0  0  0  0  0  0  0  0  0  0  0  0
  -21.1492    8.6986  -12.4826 N   0  0  0  0  0  0  0  0  0  0  0  0
  -20.3611    7.6969  -12.7706 C   0  0  0  0  0  0  0  0  0  0  0  0
  -19.6073    8.1273  -13.8438 C   0  0  0  0  0  0  0  0  0  0  0  0
  -19.9973    9.4678  -14.2004 C   0  0  0  0  0  0  0  0  0  0  0  0
  -23.4199   13.1500  -12.7467 C   0  0  0  0  0  0  0  0  0  0  0  0
  -22.5007   12.7552  -11.8041 C   0  0  0  0  0  0  0  0  0  0  0  0
  -21.6841   11.6713  -11.9908 C   0  0  0  0  0  0  0  0  0  0  0  0
  -21.7267   10.9309  -13.1102 C   0  0  0  0  0  0  0  0  0  0  0  0
  -22.6620   11.3203  -14.1070 C   0  0  0  0  0  0  0  0  0  0  0  0
  -23.4891   12.4184  -13.9082 C   0  0  0  0  0  0  0  0  0  0  0  0
  -23.6687   15.4888  -12.1171 C   0  0  0  0  0  0  0  0  0  0  0  0
  -24.2576   14.2431  -12.5492 O   0  0  0  0  0  0  0  0  0  0  0  0
  -20.2451    6.3207  -12.1605 C   0  0  0  0  0  0  0  0  0  0  0  0
  -21.6153    5.6409  -12.1771 C   0  0  0  0  0  0  0  0  0  0  0  0
  -19.2970    5.4634  -12.9676 C   0  0  0  0  0  0  0  0  0  0  0  0
  -19.7579    6.3818  -10.7623 C   0  0  0  0  0  0  0  0  0  0  0  0
 41 42  1  0  0  0
 42 35  1  0  0  0
 35 36  2  0  0  0
 36 37  1  0  0  0
 37 38  2  0  0  0
 38 39  1  0  0  0
 39 40  2  0  0  0
 38 30  1  0  0  0
 30 31  1  0  0  0
 31 32  2  0  0  0
 32 33  1  0  0  0
 33 34  2  0  0  0
 34  1  1  0  0  0
  1  2  1  0  0  0
  2  3  2  0  0  0
  2  4  1  0  0  0
  4  7  1  0  0  0
  7  8  2  0  0  0
  8  9  1  0  0  0
  9 10  2  0  0  0
 10 17  1  0  0  0
 17 18  1  0  0  0
 18 19  2  0  0  0
 19 20  1  0  0  0
 20 21  2  0  0  0
 21 22  1  0  0  0
 22 23  1  0  0  0
 23 24  1  0  0  0
 24 25  2  0  0  0
 24 26  1  0  0  0
 26 27  2  0  0  0
 27 28  1  0  0  0
 10 11  1  0  0  0
 11 12  2  0  0  0
 12 13  1  0  0  0
 13 14  2  0  0  0
 14 15  1  0  0  0
 15 16  2  0  0  0
 32 43  1  0  0  0
 43 44  1  0  0  0
 43 45  1  0  0  0
 43 46  1  0  0  0
 40 35  1  0  0  0
 34 30  1  0  0  0
 16  7  1  0  0  0
 28 18  1  0  0  0
 16 11  1  0  0  0
 28 22  2  0  0  0
  1  5  1  0  0  0
  4  6  1  0  0  0
 23 29  1  0  0  0
M  END
> <minimizedAffinity>
-8.56936

> <CNNscore>
0.0398321487

> <CNNaffinity>
6.8638572693

> <CNN_VS>
0.2734021842

> <CNNaffinity_variance>
0.1673763990

$$$$
[H]C([H])=C([H])C(=O)N([H])[C@]1([H])C([H])([H])C([H])([H])[C@@]([H])(n2c([H])c(-c3c([H])c([H])c(Oc4c([H])c([H])c([H])c([H])c4[H])c([H])c3[H])c3c(N([H])[H])nc([H])nc32)C([H])([H])C1([H])[H]


 37 41  0  0  0  0  0  0  0  0999 V2000
  -17.0982    9.9264  -18.6586 N   0  0  0  0  0  0  0  0  0  0  0  0
  -16.6745   10.5324  -19.8741 C   0  0  0  0  0  0  0  0  0  0  0  0
  -15.8209    9.8941  -20.7043 N   0  0  0  0  0  0  0  0  0  0  0  0
  -15.4009   10.4756  -21.8387 C   0  0  0  0  0  0  0  0  0  0  0  0
  -15.8147   11.7067  -22.1829 N   0  0  0  0  0  0  0  0  0  0  0  0
  -16.6640   12.4011  -21.4055 C   0  0  0  0  0  0  0  0  0  0  0  0
  -17.2090   13.6410  -21.5284 N   0  0  0  0  0  0  0  0  0  0  0  0
  -17.9786   13.8331  -20.4594 C   0  0  0  0  0  0  0  0  0  0  0  0
  -17.9438   12.7218  -19.6304 C   0  0  0  0  0  0  0  0  0  0  0  0
  -17.1130   11.8054  -20.2159 C   0  0  0  0  0  0  0  0  0  0  0  0
  -16.8006   10.2331  -17.7080 H   0  0  0  0  0  0  0  0  0  0  0  0
  -17.7531    9.1169  -18.7109 H   0  0  0  0  0  0  0  0  0  0  0  0
  -18.6929   12.5387  -18.3879 C   0  0  0  0  0  0  0  0  0  0  0  0
  -19.4578   11.4265  -18.1054 C   0  0  0  0  0  0  0  0  0  0  0  0
  -20.1459   11.2713  -16.9221 C   0  0  0  0  0  0  0  0  0  0  0  0
  -20.1048   12.2380  -15.9419 C   0  0  0  0  0  0  0  0  0  0  0  0
  -19.3365   13.3558  -16.2263 C   0  0  0  0  0  0  0  0  0  0  0  0
  -18.6480   13.5213  -17.3985 C   0  0  0  0  0  0  0  0  0  0  0  0
  -20.7886   12.1091  -14.7378 O   0  0  0  0  0  0  0  0  0  0  0  0
  -20.5737   11.0494  -13.8687 C   0  0  0  0  0  0  0  0  0  0  0  0
  -19.3990   10.8554  -13.2035 C   0  0  0  0  0  0  0  0  0  0  0  0
  -19.2674    9.7856  -12.3643 C   0  0  0  0  0  0  0  0  0  0  0  0
  -20.2906    8.8733  -12.1547 C   0  0  0  0  0  0  0  0  0  0  0  0
  -21.4693    9.0912  -12.8392 C   0  0  0  0  0  0  0  0  0  0  0  0
  -21.6138   10.1666  -13.6882 C   0  0  0  0  0  0  0  0  0  0  0  0
  -16.9546   14.5438  -22.6514 C   0  0  0  0  0  0  0  0  0  0  0  0
  -18.2186   14.9490  -23.3520 C   0  0  0  0  0  0  0  0  0  0  0  0
  -18.2255   16.3490  -23.8595 C   0  0  0  0  0  0  0  0  0  0  0  0
  -16.9088   16.8567  -24.3452 C   0  0  0  0  0  0  0  0  0  0  0  0
  -15.7630   16.5269  -23.3983 C   0  0  0  0  0  0  0  0  0  0  0  0
  -16.2887   15.8287  -22.1512 C   0  0  0  0  0  0  0  0  0  0  0  0
  -16.6016   16.4872  -25.6915 N   0  0  0  0  0  0  0  0  0  0  0  0
  -15.4915   15.7207  -26.0893 C   0  0  0  0  0  0  0  0  0  0  0  0
  -14.6936   15.3186  -25.2064 O   0  0  0  0  0  0  0  0  0  0  0  0
  -17.2579   16.8147  -26.4446 H   0  0  0  0  0  0  0  0  0  0  0  0
  -15.2260   15.3733  -27.4725 C   0  0  0  0  0  0  0  0  0  0  0  0
  -16.0818   15.6845  -28.4258 C   0  0  0  0  0  0  0  0  0  0  0  0
  1  2  1  0  0  0
  2  3  2  0  0  0
  3  4  1  0  0  0
  4  5  2  0  0  0
  5  6  1  0  0  0
  6  7  1  0  0  0
  7  8  1  0  0  0
  8  9  2  0  0  0
  9 13  1  0  0  0
 13 14  2  0  0  0
 14 15  1  0  0  0
 15 16  2  0  0  0
 16 19  1  0  0  0
 19 20  1  0  0  0
 20 21  2  0  0  0
 21 22  1  0  0  0
 22 23  2  0  0  0
 23 24  1  0  0  0
 24 25  2  0  0  0
 16 17  1  0  0  0
 17 18  2  0  0  0
  9 10  1  0  0  0
  7 26  1  0  0  0
 26 27  1  0  0  0
 27 28  1  0  0  0
 28 29  1  0  0  0
 29 30  1  0  0  0
 30 31  1  0  0  0
 29 32  1  0  0  0
 32 33  1  0  0  0
 33 34  2  0  0  0
 33 36  1  0  0  0
 36 37  2  0  0  0
 10  2  1  0  0  0
 31 26  1  0  0  0
 10  6  2  0  0  0
 18 13  1  0  0  0
 25 20  1  0  0  0
  1 11  1  0  0  0
  1 12  1  0  0  0
 32 35  1  0  0  0
M  END
> <minimizedAffinity>
-9.74725

> <CNNscore>
0.8632197380

> <CNNaffinity>
7.4847717285

> <CNN_VS>
6.4610028267

> <CNNaffinity_variance>
0.0405710936

$$$$
[H]C([H])=C([H])C(=O)N([H])[C@]1([H])C([H])([H])C([H])([H])[C@@]([H])(n2c([H])c(-c3c([H])c([H])c(Oc4c([H])c([H])c([H])c([H])c4[H])c([H])c3[H])c3c(N([H])[H])nc([H])nc32)C([H])([H])C1([H])[H]


 37 41  0  0  0  0  0  0  0  0999 V2000
  -17.1515    9.8250  -18.4943 N   0  0  0  0  0  0  0  0  0  0  0  0
  -16.7569   10.4607  -19.7044 C   0  0  0  0  0  0  0  0  0  0  0  0
  -15.9376    9.8361  -20.5783 N   0  0  0  0  0  0  0  0  0  0  0  0
  -15.5445   10.4451  -21.7081 C   0  0  0  0  0  0  0  0  0  0  0  0
  -15.9522   11.6907  -22.0040 N   0  0  0  0  0  0  0  0  0  0  0  0
  -16.7682   12.3728  -21.1814 C   0  0  0  0  0  0  0  0  0  0  0  0
  -17.3001   13.6223  -21.2519 N   0  0  0  0  0  0  0  0  0  0  0  0
  -18.0343   13.7929  -20.1546 C   0  0  0  0  0  0  0  0  0  0  0  0
  -17.9890   12.6577  -19.3592 C   0  0  0  0  0  0  0  0  0  0  0  0
  -17.1886   11.7484  -19.9960 C   0  0  0  0  0  0  0  0  0  0  0  0
  -16.8211   10.1003  -17.5449 H   0  0  0  0  0  0  0  0  0  0  0  0
  -17.8184    9.0255  -18.5495 H   0  0  0  0  0  0  0  0  0  0  0  0
  -18.7024   12.4480  -18.1001 C   0  0  0  0  0  0  0  0  0  0  0  0
  -18.7396   13.3672  -17.0726 C   0  0  0  0  0  0  0  0  0  0  0  0
  -19.4285   13.1519  -15.8992 C   0  0  0  0  0  0  0  0  0  0  0  0
  -20.1286   11.9847  -15.6880 C   0  0  0  0  0  0  0  0  0  0  0  0
  -20.0906   11.0610  -16.7204 C   0  0  0  0  0  0  0  0  0  0  0  0
  -19.4096   11.2638  -17.8912 C   0  0  0  0  0  0  0  0  0  0  0  0
  -20.8331   11.7393  -14.5143 O   0  0  0  0  0  0  0  0  0  0  0  0
  -22.1901   12.0006  -14.3914 C   0  0  0  0  0  0  0  0  0  0  0  0
  -23.1472   11.0322  -14.4694 C   0  0  0  0  0  0  0  0  0  0  0  0
  -24.4637   11.3724  -14.3379 C   0  0  0  0  0  0  0  0  0  0  0  0
  -24.8776   12.6788  -14.1253 C   0  0  0  0  0  0  0  0  0  0  0  0
  -23.8903   13.6405  -14.0502 C   0  0  0  0  0  0  0  0  0  0  0  0
  -22.5593   13.3095  -14.1813 C   0  0  0  0  0  0  0  0  0  0  0  0
  -17.0679   14.5541  -22.3559 C   0  0  0  0  0  0  0  0  0  0  0  0
  -18.3049   14.7845  -23.1743 C   0  0  0  0  0  0  0  0  0  0  0  0
  -18.4553   16.1716  -23.6947 C   0  0  0  0  0  0  0  0  0  0  0  0
  -17.1808   16.8555  -24.0620 C   0  0  0  0  0  0  0  0  0  0  0  0
  -16.0935   16.6832  -23.0102 C   0  0  0  0  0  0  0  0  0  0  0  0
  -16.6327   15.9167  -21.8097 C   0  0  0  0  0  0  0  0  0  0  0  0
  -16.7025   16.5347  -25.3704 N   0  0  0  0  0  0  0  0  0  0  0  0
  -15.5078   15.8481  -25.6517 C   0  0  0  0  0  0  0  0  0  0  0  0
  -14.7885   15.4782  -24.6905 O   0  0  0  0  0  0  0  0  0  0  0  0
  -17.2908   16.8362  -26.1878 H   0  0  0  0  0  0  0  0  0  0  0  0
  -15.0681   15.5474  -27.0011 C   0  0  0  0  0  0  0  0  0  0  0  0
  -15.9375   15.4110  -27.9826 C   0  0  0  0  0  0  0  0  0  0  0  0
  1  2  1  0  0  0
  2  3  2  0  0  0
  3  4  1  0  0  0
  4  5  2  0  0  0
  5  6  1  0  0  0
  6  7  1  0  0  0
  7  8  1  0  0  0
  8  9  2  0  0  0
  9 13  1  0  0  0
 13 14  2  0  0  0
 14 15  1  0  0  0
 15 16  2  0  0  0
 16 19  1  0  0  0
 19 20  1  0  0  0
 20 21  2  0  0  0
 21 22  1  0  0  0
 22 23  2  0  0  0
 23 24  1  0  0  0
 24 25  2  0  0  0
 16 17  1  0  0  0
 17 18  2  0  0  0
  9 10  1  0  0  0
  7 26  1  0  0  0
 26 27  1  0  0  0
 27 28  1  0  0  0
 28 29  1  0  0  0
 29 30  1  0  0  0
 30 31  1  0  0  0
 29 32  1  0  0  0
 32 33  1  0  0  0
 33 34  2  0  0  0
 33 36  1  0  0  0
 36 37  2  0  0  0
 10  2  1  0  0  0
 31 26  1  0  0  0
 10  6  2  0  0  0
 18 13  1  0  0  0
 25 20  1  0  0  0
  1 11  1  0  0  0
  1 12  1  0  0  0
 32 35  1  0  0  0
M  END
> <minimizedAffinity>
-9.18053

> <CNNscore>
0.7173101306

> <CNNaffinity>
7.3433976173

> <CNN_VS>
5.2674937248

> <CNNaffinity_variance>
0.0733316317

$$$$
[H]C([H])=C([H])C(=O)N([H])[C@]1([H])C([H])([H])C([H])([H])[C@@]([H])(n2c([H])c(-c3c([H])c([H])c(Oc4c([H])c([H])c([H])c([H])c4[H])c([H])c3[H])c3c(N([H])[H])nc([H])nc32)C([H])([H])C1([H])[H]


 37 41  0  0  0  0  0  0  0  0999 V2000
  -16.5929    9.7818  -19.4916 N   0  0  0  0  0  0  0  0  0  0  0  0
  -16.8124   10.8879  -20.3590 C   0  0  0  0  0  0  0  0  0  0  0  0
  -16.0513   11.0640  -21.4613 N   0  0  0  0  0  0  0  0  0  0  0  0
  -16.2411   12.1211  -22.2664 C   0  0  0  0  0  0  0  0  0  0  0  0
  -17.1908   13.0341  -22.0020 N   0  0  0  0  0  0  0  0  0  0  0  0
  -17.9856   12.9233  -20.9233 C   0  0  0  0  0  0  0  0  0  0  0  0
  -18.9898   13.7052  -20.4443 N   0  0  0  0  0  0  0  0  0  0  0  0
  -19.4318   13.1276  -19.3293 C   0  0  0  0  0  0  0  0  0  0  0  0
  -18.7216   11.9647  -19.0709 C   0  0  0  0  0  0  0  0  0  0  0  0
  -17.7996   11.8221  -20.0721 C   0  0  0  0  0  0  0  0  0  0  0  0
  -16.1842    9.8504  -18.5352 H   0  0  0  0  0  0  0  0  0  0  0  0
  -16.8559    8.8301  -19.8263 H   0  0  0  0  0  0  0  0  0  0  0  0
  -18.9466   11.0349  -17.9649 C   0  0  0  0  0  0  0  0  0  0  0  0
  -18.4692    9.7414  -17.9358 C   0  0  0  0  0  0  0  0  0  0  0  0
  -18.6844    8.8870  -16.8768 C   0  0  0  0  0  0  0  0  0  0  0  0
  -19.4016    9.2887  -15.7717 C   0  0  0  0  0  0  0  0  0  0  0  0
  -19.8816   10.5885  -15.8014 C   0  0  0  0  0  0  0  0  0  0  0  0
  -19.6740   11.4469  -16.8481 C   0  0  0  0  0  0  0  0  0  0  0  0
  -19.6347    8.4489  -14.6879 O   0  0  0  0  0  0  0  0  0  0  0  0
  -20.3472    7.2642  -14.8032 C   0  0  0  0  0  0  0  0  0  0  0  0
  -19.8581    6.0563  -14.4008 C   0  0  0  0  0  0  0  0  0  0  0  0
  -20.6239    4.9348  -14.5491 C   0  0  0  0  0  0  0  0  0  0  0  0
  -21.8965    4.9695  -15.0991 C   0  0  0  0  0  0  0  0  0  0  0  0
  -22.3689    6.2033  -15.4986 C   0  0  0  0  0  0  0  0  0  0  0  0
  -21.6059    7.3413  -15.3541 C   0  0  0  0  0  0  0  0  0  0  0  0
  -19.4488   14.9385  -21.0841 C   0  0  0  0  0  0  0  0  0  0  0  0
  -20.5957   15.5674  -20.3480 C   0  0  0  0  0  0  0  0  0  0  0  0
  -20.5898   17.0565  -20.3456 C   0  0  0  0  0  0  0  0  0  0  0  0
  -20.0632   17.6932  -21.5883 C   0  0  0  0  0  0  0  0  0  0  0  0
  -18.7733   17.0509  -22.0801 C   0  0  0  0  0  0  0  0  0  0  0  0
  -18.3161   15.9684  -21.1114 C   0  0  0  0  0  0  0  0  0  0  0  0
  -21.0267   17.8090  -22.6380 N   0  0  0  0  0  0  0  0  0  0  0  0
  -21.4316   19.0147  -23.2381 C   0  0  0  0  0  0  0  0  0  0  0  0
  -20.9178   20.0874  -22.8341 O   0  0  0  0  0  0  0  0  0  0  0  0
  -21.4680   16.9219  -22.9894 H   0  0  0  0  0  0  0  0  0  0  0  0
  -22.4156   19.0762  -24.3024 C   0  0  0  0  0  0  0  0  0  0  0  0
  -22.9330   17.9757  -24.8115 C   0  0  0  0  0  0  0  0  0  0  0  0
  1  2  1  0  0  0
  2  3  2  0  0  0
  3  4  1  0  0  0
  4  5  2  0  0  0
  5  6  1  0  0  0
  6  7  1  0  0  0
  7  8  1  0  0  0
  8  9  2  0  0  0
  9 13  1  0  0  0
 13 14  2  0  0  0
 14 15  1  0  0  0
 15 16  2  0  0  0
 16 19  1  0  0  0
 19 20  1  0  0  0
 20 21  2  0  0  0
 21 22  1  0  0  0
 22 23  2  0  0  0
 23 24  1  0  0  0
 24 25  2  0  0  0
 16 17  1  0  0  0
 17 18  2  0  0  0
  9 10  1  0  0  0
  7 26  1  0  0  0
 26 27  1  0  0  0
 27 28  1  0  0  0
 28 29  1  0  0  0
 29 30  1  0  0  0
 30 31  1  0  0  0
 29 32  1  0  0  0
 32 33  1  0  0  0
 33 34  2  0  0  0
 33 36  1  0  0  0
 36 37  2  0  0  0
 10  2  1  0  0  0
 31 26  1  0  0  0
 10  6  2  0  0  0
 18 13  1  0  0  0
 25 20  1  0  0  0
  1 11  1  0  0  0
  1 12  1  0  0  0
 32 35  1  0  0  0
M  END
> <minimizedAffinity>
-8.80564

> <CNNscore>
0.6209053397

> <CNNaffinity>
7.2091512680

> <CNN_VS>
4.4762005806

> <CNNaffinity_variance>
0.3069030046

$$$$
[H]C([H])=C([H])C(=O)N([H])[C@]1([H])C([H])([H])C([H])([H])[C@@]([H])(n2c([H])c(-c3c([H])c([H])c(Oc4c([H])c([H])c([H])c([H])c4[H])c([H])c3[H])c3c(N([H])[H])nc([H])nc32)C([H])([H])C1([H])[H]


 37 41  0  0  0  0  0  0  0  0999 V2000
  -17.8786   10.5795  -18.5503 N   0  0  0  0  0  0  0  0  0  0  0  0
  -17.1968   10.8869  -19.7606 C   0  0  0  0  0  0  0  0  0  0  0  0
  -16.3991    9.9735  -20.3562 N   0  0  0  0  0  0  0  0  0  0  0  0
  -15.7357   10.2714  -21.4843 C   0  0  0  0  0  0  0  0  0  0  0  0
  -15.8436   11.4833  -22.0545 N   0  0  0  0  0  0  0  0  0  0  0  0
  -16.6193   12.4414  -21.5178 C   0  0  0  0  0  0  0  0  0  0  0  0
  -16.8793   13.7226  -21.8922 N   0  0  0  0  0  0  0  0  0  0  0  0
  -17.7158   14.2278  -20.9882 C   0  0  0  0  0  0  0  0  0  0  0  0
  -18.0095   13.2822  -20.0171 C   0  0  0  0  0  0  0  0  0  0  0  0
  -17.3204   12.1442  -20.3379 C   0  0  0  0  0  0  0  0  0  0  0  0
  -17.6406   10.9794  -17.6177 H   0  0  0  0  0  0  0  0  0  0  0  0
  -18.6746    9.9072  -18.5874 H   0  0  0  0  0  0  0  0  0  0  0  0
  -18.9238   13.4490  -18.8881 C   0  0  0  0  0  0  0  0  0  0  0  0
  -18.5218   13.4865  -17.5694 C   0  0  0  0  0  0  0  0  0  0  0  0
  -19.4011   13.6563  -16.5226 C   0  0  0  0  0  0  0  0  0  0  0  0
  -20.7530   13.7995  -16.7438 C   0  0  0  0  0  0  0  0  0  0  0  0
  -21.1567   13.7613  -18.0690 C   0  0  0  0  0  0  0  0  0  0  0  0
  -20.2922   13.5933  -19.1178 C   0  0  0  0  0  0  0  0  0  0  0  0
  -21.6643   13.9725  -15.7076 O   0  0  0  0  0  0  0  0  0  0  0  0
  -22.2731   15.1914  -15.4465 C   0  0  0  0  0  0  0  0  0  0  0  0
  -21.5961   16.2798  -14.9807 C   0  0  0  0  0  0  0  0  0  0  0  0
  -22.2700   17.4452  -14.7485 C   0  0  0  0  0  0  0  0  0  0  0  0
  -23.6332   17.5736  -14.9685 C   0  0  0  0  0  0  0  0  0  0  0  0
  -24.2958   16.4583  -15.4398 C   0  0  0  0  0  0  0  0  0  0  0  0
  -23.6269   15.2776  -15.6778 C   0  0  0  0  0  0  0  0  0  0  0  0
  -16.3122   14.3641  -23.0787 C   0  0  0  0  0  0  0  0  0  0  0  0
  -16.8458   15.7520  -23.2837 C   0  0  0  0  0  0  0  0  0  0  0  0
  -15.8574   16.7223  -23.8309 C   0  0  0  0  0  0  0  0  0  0  0  0
  -14.8731   16.1522  -24.7969 C   0  0  0  0  0  0  0  0  0  0  0  0
  -14.2775   14.8332  -24.3240 C   0  0  0  0  0  0  0  0  0  0  0  0
  -14.7928   14.4859  -22.9336 C   0  0  0  0  0  0  0  0  0  0  0  0
  -15.3585   16.0593  -26.1382 N   0  0  0  0  0  0  0  0  0  0  0  0
  -16.0082   14.9407  -26.6902 C   0  0  0  0  0  0  0  0  0  0  0  0
  -16.1860   13.9318  -25.9634 O   0  0  0  0  0  0  0  0  0  0  0  0
  -15.2188   16.8938  -26.7620 H   0  0  0  0  0  0  0  0  0  0  0  0
  -16.4822   14.8989  -28.0607 C   0  0  0  0  0  0  0  0  0  0  0  0
  -16.1298   15.8267  -28.9284 C   0  0  0  0  0  0  0  0  0  0  0  0
  1  2  1  0  0  0
  2  3  2  0  0  0
  3  4  1  0  0  0
  4  5  2  0  0  0
  5  6  1  0  0  0
  6  7  1  0  0  0
  7  8  1  0  0  0
  8  9  2  0  0  0
  9 13  1  0  0  0
 13 14  2  0  0  0
 14 15  1  0  0  0
 15 16  2  0  0  0
 16 19  1  0  0  0
 19 20  1  0  0  0
 20 21  2  0  0  0
 21 22  1  0  0  0
 22 23  2  0  0  0
 23 24  1  0  0  0
 24 25  2  0  0  0
 16 17  1  0  0  0
 17 18  2  0  0  0
  9 10  1  0  0  0
  7 26  1  0  0  0
 26 27  1  0  0  0
 27 28  1  0  0  0
 28 29  1  0  0  0
 29 30  1  0  0  0
 30 31  1  0  0  0
 29 32  1  0  0  0
 32 33  1  0  0  0
 33 34  2  0  0  0
 33 36  1  0  0  0
 36 37  2  0  0  0
 10  2  1  0  0  0
 31 26  1  0  0  0
 10  6  2  0  0  0
 18 13  1  0  0  0
 25 20  1  0  0  0
  1 11  1  0  0  0
  1 12  1  0  0  0
 32 35  1  0  0  0
M  END
> <minimizedAffinity>
-8.21094

> <CNNscore>
0.6178191900

> <CNNaffinity>
7.5305700302

> <CNN_VS>
4.6525306702

> <CNNaffinity_variance>
0.2544355989

$$$$
[H]C([H])=C([H])C(=O)N([H])[C@]1([H])C([H])([H])C([H])([H])[C@@]([H])(n2c([H])c(-c3c([H])c([H])c(Oc4c([H])c([H])c([H])c([H])c4[H])c([H])c3[H])c3c(N([H])[H])nc([H])nc32)C([H])([H])C1([H])[H]


 37 41  0  0  0  0  0  0  0  0999 V2000
  -17.7999    9.4473  -17.6033 N   0  0  0  0  0  0  0  0  0  0  0  0
  -17.8482   10.4046  -18.6547 C   0  0  0  0  0  0  0  0  0  0  0  0
  -17.0730   10.2659  -19.7524 N   0  0  0  0  0  0  0  0  0  0  0  0
  -17.0994   11.1819  -20.7331 C   0  0  0  0  0  0  0  0  0  0  0  0
  -17.8949   12.2619  -20.6540 N   0  0  0  0  0  0  0  0  0  0  0  0
  -18.6934   12.4651  -19.5915 C   0  0  0  0  0  0  0  0  0  0  0  0
  -19.5623   13.4636  -19.2794 N   0  0  0  0  0  0  0  0  0  0  0  0
  -20.0845   13.1651  -18.0919 C   0  0  0  0  0  0  0  0  0  0  0  0
  -19.5625   11.9705  -17.6187 C   0  0  0  0  0  0  0  0  0  0  0  0
  -18.6774   11.5148  -18.5578 C   0  0  0  0  0  0  0  0  0  0  0  0
  -17.3820    9.6189  -16.6641 H   0  0  0  0  0  0  0  0  0  0  0  0
  -18.2087    8.5034  -17.7738 H   0  0  0  0  0  0  0  0  0  0  0  0
  -19.9250   11.2946  -16.3737 C   0  0  0  0  0  0  0  0  0  0  0  0
  -20.6443   10.1193  -16.3155 C   0  0  0  0  0  0  0  0  0  0  0  0
  -20.9642    9.4947  -15.1300 C   0  0  0  0  0  0  0  0  0  0  0  0
  -20.5748   10.0224  -13.9189 C   0  0  0  0  0  0  0  0  0  0  0  0
  -19.8524   11.2036  -13.9777 C   0  0  0  0  0  0  0  0  0  0  0  0
  -19.5283   11.8337  -15.1496 C   0  0  0  0  0  0  0  0  0  0  0  0
  -20.8828    9.4145  -12.7066 O   0  0  0  0  0  0  0  0  0  0  0  0
  -19.9796    9.3483  -11.6556 C   0  0  0  0  0  0  0  0  0  0  0  0
  -20.0672   10.1350  -10.5450 C   0  0  0  0  0  0  0  0  0  0  0  0
  -19.1364   10.0082   -9.5532 C   0  0  0  0  0  0  0  0  0  0  0  0
  -18.0898    9.1013   -9.6256 C   0  0  0  0  0  0  0  0  0  0  0  0
  -18.0228    8.3168  -10.7594 C   0  0  0  0  0  0  0  0  0  0  0  0
  -18.9557    8.4356  -11.7662 C   0  0  0  0  0  0  0  0  0  0  0  0
  -19.8267   14.6212  -20.1345 C   0  0  0  0  0  0  0  0  0  0  0  0
  -21.1369   15.2784  -19.8116 C   0  0  0  0  0  0  0  0  0  0  0  0
  -21.1372   16.7614  -19.9464 C   0  0  0  0  0  0  0  0  0  0  0  0
  -20.2838   17.3010  -21.0454 C   0  0  0  0  0  0  0  0  0  0  0  0
  -18.9053   16.6564  -21.0935 C   0  0  0  0  0  0  0  0  0  0  0  0
  -18.7360   15.6779  -19.9389 C   0  0  0  0  0  0  0  0  0  0  0  0
  -20.9126   17.2948  -22.3291 N   0  0  0  0  0  0  0  0  0  0  0  0
  -21.6823   18.3451  -22.8606 C   0  0  0  0  0  0  0  0  0  0  0  0
  -21.8425   19.3807  -22.1679 O   0  0  0  0  0  0  0  0  0  0  0  0
  -20.7900   16.4365  -22.9236 H   0  0  0  0  0  0  0  0  0  0  0  0
  -22.2996   18.2871  -24.1721 C   0  0  0  0  0  0  0  0  0  0  0  0
  -23.4605   17.6878  -24.3489 C   0  0  0  0  0  0  0  0  0  0  0  0
  1  2  1  0  0  0
  2  3  2  0  0  0
  3  4  1  0  0  0
  4  5  2  0  0  0
  5  6  1  0  0  0
  6  7  1  0  0  0
  7  8  1  0  0  0
  8  9  2  0  0  0
  9 13  1  0  0  0
 13 14  2  0  0  0
 14 15  1  0  0  0
 15 16  2  0  0  0
 16 19  1  0  0  0
 19 20  1  0  0  0
 20 21  2  0  0  0
 21 22  1  0  0  0
 22 23  2  0  0  0
 23 24  1  0  0  0
 24 25  2  0  0  0
 16 17  1  0  0  0
 17 18  2  0  0  0
  9 10  1  0  0  0
  7 26  1  0  0  0
 26 27  1  0  0  0
 27 28  1  0  0  0
 28 29  1  0  0  0
 29 30  1  0  0  0
 30 31  1  0  0  0
 29 32  1  0  0  0
 32 33  1  0  0  0
 33 34  2  0  0  0
 33 36  1  0  0  0
 36 37  2  0  0  0
 10  2  1  0  0  0
 31 26  1  0  0  0
 10  6  2  0  0  0
 18 13  1  0  0  0
 25 20  1  0  0  0
  1 11  1  0  0  0
  1 12  1  0  0  0
 32 35  1  0  0  0
M  END
> <minimizedAffinity>
-7.79359

> <CNNscore>
0.6139802933

> <CNNaffinity>
7.0034804344

> <CNN_VS>
4.2999987602

> <CNNaffinity_variance>
0.2282016277

$$$$
[H]C([H])=C([H])C(=O)N([H])[C@]1([H])C([H])([H])C([H])([H])[C@@]([H])(n2c([H])c(-c3c([H])c([H])c(Oc4c([H])c([H])c([H])c([H])c4[H])c([H])c3[H])c3c(N([H])[H])nc([H])nc32)C([H])([H])C1([H])[H]


 37 41  0  0  0  0  0  0  0  0999 V2000
  -17.2300    9.6783  -19.6024 N   0  0  0  0  0  0  0  0  0  0  0  0
  -17.1074   10.8738  -20.3638 C   0  0  0  0  0  0  0  0  0  0  0  0
  -16.3490   10.9073  -21.4814 N   0  0  0  0  0  0  0  0  0  0  0  0
  -16.2125   12.0414  -22.1861 C   0  0  0  0  0  0  0  0  0  0  0  0
  -16.8237   13.1751  -21.8033 N   0  0  0  0  0  0  0  0  0  0  0  0
  -17.5940   13.2161  -20.7021 C   0  0  0  0  0  0  0  0  0  0  0  0
  -18.2941   14.2227  -20.1140 N   0  0  0  0  0  0  0  0  0  0  0  0
  -18.8749   13.7092  -19.0318 C   0  0  0  0  0  0  0  0  0  0  0  0
  -18.5602   12.3645  -18.9040 C   0  0  0  0  0  0  0  0  0  0  0  0
  -17.7471   12.0371  -19.9550 C   0  0  0  0  0  0  0  0  0  0  0  0
  -16.8035    9.5270  -18.6635 H   0  0  0  0  0  0  0  0  0  0  0  0
  -17.7837    8.8908  -20.0028 H   0  0  0  0  0  0  0  0  0  0  0  0
  -19.0454   11.4514  -17.8701 C   0  0  0  0  0  0  0  0  0  0  0  0
  -18.5633   10.1730  -17.6824 C   0  0  0  0  0  0  0  0  0  0  0  0
  -19.0285    9.3345  -16.6933 C   0  0  0  0  0  0  0  0  0  0  0  0
  -20.0183    9.7378  -15.8247 C   0  0  0  0  0  0  0  0  0  0  0  0
  -20.5030   11.0223  -16.0138 C   0  0  0  0  0  0  0  0  0  0  0  0
  -20.0485   11.8649  -16.9931 C   0  0  0  0  0  0  0  0  0  0  0  0
  -20.5076    8.9139  -14.8168 O   0  0  0  0  0  0  0  0  0  0  0  0
  -20.9413    7.6184  -15.0583 C   0  0  0  0  0  0  0  0  0  0  0  0
  -22.0613    7.3281  -15.7804 C   0  0  0  0  0  0  0  0  0  0  0  0
  -22.4209    6.0244  -15.9731 C   0  0  0  0  0  0  0  0  0  0  0  0
  -21.6868    4.9658  -15.4596 C   0  0  0  0  0  0  0  0  0  0  0  0
  -20.5579    5.2854  -14.7326 C   0  0  0  0  0  0  0  0  0  0  0  0
  -20.1852    6.5964  -14.5316 C   0  0  0  0  0  0  0  0  0  0  0  0
  -18.3551   15.5916  -20.6272 C   0  0  0  0  0  0  0  0  0  0  0  0
  -19.5379   16.3460  -20.0936 C   0  0  0  0  0  0  0  0  0  0  0  0
  -19.2879   17.7916  -19.8376 C   0  0  0  0  0  0  0  0  0  0  0  0
  -18.3497   18.4540  -20.7905 C   0  0  0  0  0  0  0  0  0  0  0  0
  -17.0990   17.6280  -21.0584 C   0  0  0  0  0  0  0  0  0  0  0  0
  -17.1033   16.3661  -20.2058 C   0  0  0  0  0  0  0  0  0  0  0  0
  -18.9633   18.8889  -22.0062 N   0  0  0  0  0  0  0  0  0  0  0  0
  -19.1102   20.2291  -22.4065 C   0  0  0  0  0  0  0  0  0  0  0  0
  -18.6742   21.1319  -21.6497 O   0  0  0  0  0  0  0  0  0  0  0  0
  -19.3345   18.1478  -22.6527 H   0  0  0  0  0  0  0  0  0  0  0  0
  -19.7422   20.6165  -23.6536 C   0  0  0  0  0  0  0  0  0  0  0  0
  -20.9012   20.1022  -24.0144 C   0  0  0  0  0  0  0  0  0  0  0  0
  1  2  1  0  0  0
  2  3  2  0  0  0
  3  4  1  0  0  0
  4  5  2  0  0  0
  5  6  1  0  0  0
  6  7  1  0  0  0
  7  8  1  0  0  0
  8  9  2  0  0  0
  9 13  1  0  0  0
 13 14  2  0  0  0
 14 15  1  0  0  0
 15 16  2  0  0  0
 16 19  1  0  0  0
 19 20  1  0  0  0
 20 21  2  0  0  0
 21 22  1  0  0  0
 22 23  2  0  0  0
 23 24  1  0  0  0
 24 25  2  0  0  0
 16 17  1  0  0  0
 17 18  2  0  0  0
  9 10  1  0  0  0
  7 26  1  0  0  0
 26 27  1  0  0  0
 27 28  1  0  0  0
 28 29  1  0  0  0
 29 30  1  0  0  0
 30 31  1  0  0  0
 29 32  1  0  0  0
 32 33  1  0  0  0
 33 34  2  0  0  0
 33 36  1  0  0  0
 36 37  2  0  0  0
 10  2  1  0  0  0
 31 26  1  0  0  0
 10  6  2  0  0  0
 18 13  1  0  0  0
 25 20  1  0  0  0
  1 11  1  0  0  0
  1 12  1  0  0  0
 32 35  1  0  0  0
M  END
> <minimizedAffinity>
-8.22959

> <CNNscore>
0.5780190229

> <CNNaffinity>
7.1641974449

> <CNN_VS>
4.1410422325

> <CNNaffinity_variance>
0.2450765371

$$$$
[H]C([H])=C([H])C(=O)N([H])[C@]1([H])C([H])([H])C([H])([H])[C@@]([H])(n2c([H])c(-c3c([H])c([H])c(Oc4c([H])c([H])c([H])c([H])c4[H])c([H])c3[H])c3c(N([H])[H])nc([H])nc32)C([H])([H])C1([H])[H]


 37 41  0  0  0  0  0  0  0  0999 V2000
  -18.3612    9.2111  -17.2843 N   0  0  0  0  0  0  0  0  0  0  0  0
  -17.9668   10.1245  -18.3013 C   0  0  0  0  0  0  0  0  0  0  0  0
  -17.1485    9.7335  -19.3026 N   0  0  0  0  0  0  0  0  0  0  0  0
  -16.7557   10.6013  -20.2483 C   0  0  0  0  0  0  0  0  0  0  0  0
  -17.1626   11.8817  -20.2285 N   0  0  0  0  0  0  0  0  0  0  0  0
  -17.9775   12.3411  -19.2628 C   0  0  0  0  0  0  0  0  0  0  0  0
  -18.5084   13.5699  -19.0234 N   0  0  0  0  0  0  0  0  0  0  0  0
  -19.2418   13.4659  -17.9174 C   0  0  0  0  0  0  0  0  0  0  0  0
  -19.1970   12.1700  -17.4255 C   0  0  0  0  0  0  0  0  0  0  0  0
  -18.3977   11.4447  -18.2670 C   0  0  0  0  0  0  0  0  0  0  0  0
  -18.0300    9.2443  -16.2966 H   0  0  0  0  0  0  0  0  0  0  0  0
  -19.0288    8.4501  -17.5339 H   0  0  0  0  0  0  0  0  0  0  0  0
  -19.9097   11.6576  -16.2560 C   0  0  0  0  0  0  0  0  0  0  0  0
  -19.3803   11.6266  -14.9829 C   0  0  0  0  0  0  0  0  0  0  0  0
  -20.0759   11.1494  -13.8937 C   0  0  0  0  0  0  0  0  0  0  0  0
  -21.3602   10.6691  -14.0232 C   0  0  0  0  0  0  0  0  0  0  0  0
  -21.8917   10.6999  -15.3027 C   0  0  0  0  0  0  0  0  0  0  0  0
  -21.2104   11.1720  -16.3928 C   0  0  0  0  0  0  0  0  0  0  0  0
  -22.0868   10.1814  -12.9423 O   0  0  0  0  0  0  0  0  0  0  0  0
  -21.9151   10.6609  -11.6519 C   0  0  0  0  0  0  0  0  0  0  0  0
  -21.3677    9.9197  -10.6464 C   0  0  0  0  0  0  0  0  0  0  0  0
  -21.2333   10.4660   -9.4015 C   0  0  0  0  0  0  0  0  0  0  0  0
  -21.6345   11.7610   -9.1093 C   0  0  0  0  0  0  0  0  0  0  0  0
  -22.1854   12.4906  -10.1434 C   0  0  0  0  0  0  0  0  0  0  0  0
  -22.3260   11.9504  -11.4030 C   0  0  0  0  0  0  0  0  0  0  0  0
  -18.2762   14.7445  -19.8647 C   0  0  0  0  0  0  0  0  0  0  0  0
  -19.3869   14.9662  -20.8495 C   0  0  0  0  0  0  0  0  0  0  0  0
  -19.7024   16.3967  -21.1173 C   0  0  0  0  0  0  0  0  0  0  0  0
  -18.5319   17.3222  -21.0935 C   0  0  0  0  0  0  0  0  0  0  0  0
  -17.6144   17.0835  -19.9021 C   0  0  0  0  0  0  0  0  0  0  0  0
  -18.1900   16.0028  -18.9966 C   0  0  0  0  0  0  0  0  0  0  0  0
  -17.7997   17.3686  -22.3204 N   0  0  0  0  0  0  0  0  0  0  0  0
  -16.5853   16.7031  -22.5660 C   0  0  0  0  0  0  0  0  0  0  0  0
  -16.0868   16.0069  -21.6469 O   0  0  0  0  0  0  0  0  0  0  0  0
  -18.2010   17.9463  -23.1016 H   0  0  0  0  0  0  0  0  0  0  0  0
  -15.8820   16.7840  -23.8323 C   0  0  0  0  0  0  0  0  0  0  0  0
  -16.5037   17.1681  -24.9296 C   0  0  0  0  0  0  0  0  0  0  0  0
  1  2  1  0  0  0
  2  3  2  0  0  0
  3  4  1  0  0  0
  4  5  2  0  0  0
  5  6  1  0  0  0
  6  7  1  0  0  0
  7  8  1  0  0  0
  8  9  2  0  0  0
  9 13  1  0  0  0
 13 14  2  0  0  0
 14 15  1  0  0  0
 15 16  2  0  0  0
 16 19  1  0  0  0
 19 20  1  0  0  0
 20 21  2  0  0  0
 21 22  1  0  0  0
 22 23  2  0  0  0
 23 24  1  0  0  0
 24 25  2  0  0  0
 16 17  1  0  0  0
 17 18  2  0  0  0
  9 10  1  0  0  0
  7 26  1  0  0  0
 26 27  1  0  0  0
 27 28  1  0  0  0
 28 29  1  0  0  0
 29 30  1  0  0  0
 30 31  1  0  0  0
 29 32  1  0  0  0
 32 33  1  0  0  0
 33 34  2  0  0  0
 33 36  1  0  0  0
 36 37  2  0  0  0
 10  2  1  0  0  0
 31 26  1  0  0  0
 10  6  2  0  0  0
 18 13  1  0  0  0
 25 20  1  0  0  0
  1 11  1  0  0  0
  1 12  1  0  0  0
 32 35  1  0  0  0
M  END
> <minimizedAffinity>
-7.53778

> <CNNscore>
0.5496624112

> <CNNaffinity>
6.9332618713

> <CNN_VS>
3.8109533787

> <CNNaffinity_variance>
0.1396440566

$$$$
[H]C([H])=C([H])C(=O)N([H])[C@]1([H])C([H])([H])C([H])([H])[C@@]([H])(n2c([H])c(-c3c([H])c([H])c(Oc4c([H])c([H])c([H])c([H])c4[H])c([H])c3[H])c3c(N([H])[H])nc([H])nc32)C([H])([H])C1([H])[H]


 37 41  0  0  0  0  0  0  0  0999 V2000
  -16.9788   10.2639  -20.8260 N   0  0  0  0  0  0  0  0  0  0  0  0
  -16.9000   11.5731  -21.3773 C   0  0  0  0  0  0  0  0  0  0  0  0
  -16.2753   11.7909  -22.5553 N   0  0  0  0  0  0  0  0  0  0  0  0
  -16.1785   13.0294  -23.0636 C   0  0  0  0  0  0  0  0  0  0  0  0
  -16.6979   14.0876  -22.4189 N   0  0  0  0  0  0  0  0  0  0  0  0
  -17.3336   13.9461  -21.2427 C   0  0  0  0  0  0  0  0  0  0  0  0
  -17.9225   14.8444  -20.4087 N   0  0  0  0  0  0  0  0  0  0  0  0
  -18.3932   14.1575  -19.3701 C   0  0  0  0  0  0  0  0  0  0  0  0
  -18.1169   12.8063  -19.5166 C   0  0  0  0  0  0  0  0  0  0  0  0
  -17.4437   12.6563  -20.6987 C   0  0  0  0  0  0  0  0  0  0  0  0
  -16.4526    9.9417  -19.9859 H   0  0  0  0  0  0  0  0  0  0  0  0
  -17.6045    9.5691  -21.2873 H   0  0  0  0  0  0  0  0  0  0  0  0
  -18.5134   11.7330  -18.6062 C   0  0  0  0  0  0  0  0  0  0  0  0
  -17.8242   10.5466  -18.4662 C   0  0  0  0  0  0  0  0  0  0  0  0
  -18.2110    9.5540  -17.5927 C   0  0  0  0  0  0  0  0  0  0  0  0
  -19.3276    9.6984  -16.7994 C   0  0  0  0  0  0  0  0  0  0  0  0
  -20.0202   10.8904  -16.9406 C   0  0  0  0  0  0  0  0  0  0  0  0
  -19.6456   11.8842  -17.8051 C   0  0  0  0  0  0  0  0  0  0  0  0
  -19.7422    8.7141  -15.9087 O   0  0  0  0  0  0  0  0  0  0  0  0
  -20.1846    9.0077  -14.6270 C   0  0  0  0  0  0  0  0  0  0  0  0
  -21.4998    8.9820  -14.2667 C   0  0  0  0  0  0  0  0  0  0  0  0
  -21.8536    9.2845  -12.9824 C   0  0  0  0  0  0  0  0  0  0  0  0
  -20.9212    9.6217  -12.0128 C   0  0  0  0  0  0  0  0  0  0  0  0
  -19.5971    9.6407  -12.4021 C   0  0  0  0  0  0  0  0  0  0  0  0
  -19.2281    9.3376  -13.6944 C   0  0  0  0  0  0  0  0  0  0  0  0
  -17.9907   16.2834  -20.6652 C   0  0  0  0  0  0  0  0  0  0  0  0
  -19.2852   16.8828  -20.1986 C   0  0  0  0  0  0  0  0  0  0  0  0
  -19.1674   18.2603  -19.6453 C   0  0  0  0  0  0  0  0  0  0  0  0
  -18.1393   19.1229  -20.2980 C   0  0  0  0  0  0  0  0  0  0  0  0
  -16.8135   18.4048  -20.5092 C   0  0  0  0  0  0  0  0  0  0  0  0
  -16.8676   17.0039  -19.9143 C   0  0  0  0  0  0  0  0  0  0  0  0
  -18.5884   19.7615  -21.4956 N   0  0  0  0  0  0  0  0  0  0  0  0
  -19.0629   21.0826  -21.5816 C   0  0  0  0  0  0  0  0  0  0  0  0
  -19.1038   21.7742  -20.5338 O   0  0  0  0  0  0  0  0  0  0  0  0
  -18.5618   19.1985  -22.3830 H   0  0  0  0  0  0  0  0  0  0  0  0
  -19.5074   21.6831  -22.8252 C   0  0  0  0  0  0  0  0  0  0  0  0
  -19.5889   20.9701  -23.9310 C   0  0  0  0  0  0  0  0  0  0  0  0
  1  2  1  0  0  0
  2  3  2  0  0  0
  3  4  1  0  0  0
  4  5  2  0  0  0
  5  6  1  0  0  0
  6  7  1  0  0  0
  7  8  1  0  0  0
  8  9  2  0  0  0
  9 13  1  0  0  0
 13 14  2  0  0  0
 14 15  1  0  0  0
 15 16  2  0  0  0
 16 19  1  0  0  0
 19 20  1  0  0  0
 20 21  2  0  0  0
 21 22  1  0  0  0
 22 23  2  0  0  0
 23 24  1  0  0  0
 24 25  2  0  0  0
 16 17  1  0  0  0
 17 18  2  0  0  0
  9 10  1  0  0  0
  7 26  1  0  0  0
 26 27  1  0  0  0
 27 28  1  0  0  0
 28 29  1  0  0  0
 29 30  1  0  0  0
 30 31  1  0  0  0
 29 32  1  0  0  0
 32 33  1  0  0  0
 33 34  2  0  0  0
 33 36  1  0  0  0
 36 37  2  0  0  0
 10  2  1  0  0  0
 31 26  1  0  0  0
 10  6  2  0  0  0
 18 13  1  0  0  0
 25 20  1  0  0  0
  1 11  1  0  0  0
  1 12  1  0  0  0
 32 35  1  0  0  0
M  END
> <minimizedAffinity>
-8.53972

> <CNNscore>
0.5046916008

> <CNNaffinity>
7.1937799454

> <CNN_VS>
3.6306402683

> <CNNaffinity_variance>
0.1729473174

$$$$
[H]C([H])=C([H])C(=O)N([H])[C@]1([H])C([H])([H])C([H])([H])[C@@]([H])(n2c([H])c(-c3c([H])c([H])c(Oc4c([H])c([H])c([H])c([H])c4[H])c([H])c3[H])c3c(N([H])[H])nc([H])nc32)C([H])([H])C1([H])[H]


 37 41  0  0  0  0  0  0  0  0999 V2000
  -17.9328    9.4980  -17.5434 N   0  0  0  0  0  0  0  0  0  0  0  0
  -17.9325   10.4302  -18.6181 C   0  0  0  0  0  0  0  0  0  0  0  0
  -17.1450   10.2391  -19.6991 N   0  0  0  0  0  0  0  0  0  0  0  0
  -17.1253   11.1310  -20.7019 C   0  0  0  0  0  0  0  0  0  0  0  0
  -17.8855   12.2383  -20.6620 N   0  0  0  0  0  0  0  0  0  0  0  0
  -18.6934   12.4938  -19.6182 C   0  0  0  0  0  0  0  0  0  0  0  0
  -19.5334   13.5278  -19.3448 N   0  0  0  0  0  0  0  0  0  0  0  0
  -20.0840   13.2760  -18.1593 C   0  0  0  0  0  0  0  0  0  0  0  0
  -19.6097   12.0768  -17.6488 C   0  0  0  0  0  0  0  0  0  0  0  0
  -18.7255   11.5693  -18.5618 C   0  0  0  0  0  0  0  0  0  0  0  0
  -17.5244    9.6788  -16.6017 H   0  0  0  0  0  0  0  0  0  0  0  0
  -18.3701    8.5643  -17.6979 H   0  0  0  0  0  0  0  0  0  0  0  0
  -20.0143   11.4442  -16.3941 C   0  0  0  0  0  0  0  0  0  0  0  0
  -20.9433   10.4286  -16.3071 C   0  0  0  0  0  0  0  0  0  0  0  0
  -21.3001    9.8398  -15.1138 C   0  0  0  0  0  0  0  0  0  0  0  0
  -20.7366   10.2434  -13.9236 C   0  0  0  0  0  0  0  0  0  0  0  0
  -19.8034   11.2642  -14.0113 C   0  0  0  0  0  0  0  0  0  0  0  0
  -19.4405   11.8570  -15.1913 C   0  0  0  0  0  0  0  0  0  0  0  0
  -21.0767    9.6679  -12.7041 O   0  0  0  0  0  0  0  0  0  0  0  0
  -20.7372   10.2432  -11.4883 C   0  0  0  0  0  0  0  0  0  0  0  0
  -19.6132    9.9090  -10.7918 C   0  0  0  0  0  0  0  0  0  0  0  0
  -19.3504   10.5227   -9.6000 C   0  0  0  0  0  0  0  0  0  0  0  0
  -20.1881   11.4857   -9.0576 C   0  0  0  0  0  0  0  0  0  0  0  0
  -21.3189   11.8064   -9.7812 C   0  0  0  0  0  0  0  0  0  0  0  0
  -21.5945   11.1943  -10.9843 C   0  0  0  0  0  0  0  0  0  0  0  0
  -19.7453   14.6721  -20.2317 C   0  0  0  0  0  0  0  0  0  0  0  0
  -20.9882   15.4381  -19.8833 C   0  0  0  0  0  0  0  0  0  0  0  0
  -20.8829   16.9114  -20.0735 C   0  0  0  0  0  0  0  0  0  0  0  0
  -20.0376   17.3461  -21.2240 C   0  0  0  0  0  0  0  0  0  0  0  0
  -18.7145   16.5967  -21.3011 C   0  0  0  0  0  0  0  0  0  0  0  0
  -18.5714   15.6485  -20.1181 C   0  0  0  0  0  0  0  0  0  0  0  0
  -20.7177   17.3437  -22.4814 N   0  0  0  0  0  0  0  0  0  0  0  0
  -21.4828   18.4076  -22.9920 C   0  0  0  0  0  0  0  0  0  0  0  0
  -21.5901   19.4529  -22.3037 O   0  0  0  0  0  0  0  0  0  0  0  0
  -20.6397   16.4774  -23.0718 H   0  0  0  0  0  0  0  0  0  0  0  0
  -22.1536   18.3530  -24.2771 C   0  0  0  0  0  0  0  0  0  0  0  0
  -22.6313   19.4456  -24.8392 C   0  0  0  0  0  0  0  0  0  0  0  0
  1  2  1  0  0  0
  2  3  2  0  0  0
  3  4  1  0  0  0
  4  5  2  0  0  0
  5  6  1  0  0  0
  6  7  1  0  0  0
  7  8  1  0  0  0
  8  9  2  0  0  0
  9 13  1  0  0  0
 13 14  2  0  0  0
 14 15  1  0  0  0
 15 16  2  0  0  0
 16 19  1  0  0  0
 19 20  1  0  0  0
 20 21  2  0  0  0
 21 22  1  0  0  0
 22 23  2  0  0  0
 23 24  1  0  0  0
 24 25  2  0  0  0
 16 17  1  0  0  0
 17 18  2  0  0  0
  9 10  1  0  0  0
  7 26  1  0  0  0
 26 27  1  0  0  0
 27 28  1  0  0  0
 28 29  1  0  0  0
 29 30  1  0  0  0
 30 31  1  0  0  0
 29 32  1  0  0  0
 32 33  1  0  0  0
 33 34  2  0  0  0
 33 36  1  0  0  0
 36 37  2  0  0  0
 10  2  1  0  0  0
 31 26  1  0  0  0
 10  6  2  0  0  0
 18 13  1  0  0  0
 25 20  1  0  0  0
  1 11  1  0  0  0
  1 12  1  0  0  0
 32 35  1  0  0  0
M  END
> <minimizedAffinity>
-7.46455

> <CNNscore>
0.4979778230

> <CNNaffinity>
6.9131112099

> <CNN_VS>
3.4425761700

> <CNNaffinity_variance>
0.3724948466

$$$$
[H]C([H])=C([H])C(=O)N([H])[C@]1([H])C([H])([H])C([H])([H])[C@]([H])(n2c([H])c(-c3c([H])c([H])c(Oc4c([H])c([H])c([H])c([H])c4[H])c([H])c3[H])c3c(N([H])[H])nc([H])nc32)C([H])([H])C1([H])[H]


 37 41  0  0  0  0  0  0  0  0999 V2000
  -16.6167    9.7000  -19.6754 N   0  0  0  0  0  0  0  0  0  0  0  0
  -16.4559   10.7206  -20.6455 C   0  0  0  0  0  0  0  0  0  0  0  0
  -15.5619   10.6234  -21.6407 N   0  0  0  0  0  0  0  0  0  0  0  0
  -15.4102   11.6115  -22.5305 C   0  0  0  0  0  0  0  0  0  0  0  0
  -16.1288   12.7420  -22.4852 N   0  0  0  0  0  0  0  0  0  0  0  0
  -17.0306   12.8652  -21.4997 C   0  0  0  0  0  0  0  0  0  0  0  0
  -17.8724   13.8682  -21.1982 N   0  0  0  0  0  0  0  0  0  0  0  0
  -18.5765   13.5526  -20.1247 C   0  0  0  0  0  0  0  0  0  0  0  0
  -18.2041   12.2811  -19.6705 C   0  0  0  0  0  0  0  0  0  0  0  0
  -17.2318   11.8551  -20.5370 C   0  0  0  0  0  0  0  0  0  0  0  0
  -16.9809    8.7555  -19.8433 H   0  0  0  0  0  0  0  0  0  0  0  0
  -16.3358    9.9315  -18.6867 H   0  0  0  0  0  0  0  0  0  0  0  0
  -18.7731   11.5604  -18.5489 C   0  0  0  0  0  0  0  0  0  0  0  0
  -19.7684   12.0415  -17.7247 C   0  0  0  0  0  0  0  0  0  0  0  0
  -20.3079   11.3443  -16.6689 C   0  0  0  0  0  0  0  0  0  0  0  0
  -19.8478   10.0767  -16.3849 C   0  0  0  0  0  0  0  0  0  0  0  0
  -18.8561    9.5589  -17.1813 C   0  0  0  0  0  0  0  0  0  0  0  0
  -18.3292   10.2682  -18.2307 C   0  0  0  0  0  0  0  0  0  0  0  0
  -20.3864    9.3513  -15.3121 O   0  0  0  0  0  0  0  0  0  0  0  0
  -20.4578    9.9603  -14.0675 C   0  0  0  0  0  0  0  0  0  0  0  0
  -21.5911   10.6066  -13.6142 C   0  0  0  0  0  0  0  0  0  0  0  0
  -21.6169   11.2008  -12.3640 C   0  0  0  0  0  0  0  0  0  0  0  0
  -20.5192   11.1711  -11.5270 C   0  0  0  0  0  0  0  0  0  0  0  0
  -19.3916   10.5301  -11.9736 C   0  0  0  0  0  0  0  0  0  0  0  0
  -19.3605    9.9300  -13.2321 C   0  0  0  0  0  0  0  0  0  0  0  0
  -17.9995   15.1062  -21.9268 C   0  0  0  0  0  0  0  0  0  0  0  0
  -18.2507   14.9591  -23.3836 C   0  0  0  0  0  0  0  0  0  0  0  0
  -18.4344   16.3917  -23.9221 C   0  0  0  0  0  0  0  0  0  0  0  0
  -17.0557   16.9905  -24.0801 C   0  0  0  0  0  0  0  0  0  0  0  0
  -16.1385   16.3480  -23.0845 C   0  0  0  0  0  0  0  0  0  0  0  0
  -16.8004   16.0208  -21.7635 C   0  0  0  0  0  0  0  0  0  0  0  0
  -16.5393   16.8067  -25.4089 N   0  0  0  0  0  0  0  0  0  0  0  0
  -15.7008   15.7256  -25.7838 C   0  0  0  0  0  0  0  0  0  0  0  0
  -15.3953   14.8856  -24.9056 O   0  0  0  0  0  0  0  0  0  0  0  0
  -16.7904   17.4987  -26.1355 H   0  0  0  0  0  0  0  0  0  0  0  0
  -15.1837   15.5475  -27.1257 C   0  0  0  0  0  0  0  0  0  0  0  0
  -15.9966   15.5050  -28.1617 C   0  0  0  0  0  0  0  0  0  0  0  0
  1  2  1  0  0  0
  2  3  2  0  0  0
  3  4  1  0  0  0
  4  5  2  0  0  0
  5  6  1  0  0  0
  6  7  1  0  0  0
  7  8  1  0  0  0
  8  9  2  0  0  0
  9 13  1  0  0  0
 13 14  2  0  0  0
 14 15  1  0  0  0
 15 16  2  0  0  0
 16 19  1  0  0  0
 19 20  1  0  0  0
 20 21  2  0  0  0
 21 22  1  0  0  0
 22 23  2  0  0  0
 23 24  1  0  0  0
 24 25  2  0  0  0
 16 17  1  0  0  0
 17 18  2  0  0  0
  9 10  1  0  0  0
  7 26  1  0  0  0
 26 27  1  0  0  0
 27 28  1  0  0  0
 28 29  1  0  0  0
 29 30  1  0  0  0
 30 31  1  0  0  0
 29 32  1  0  0  0
 32 33  1  0  0  0
 33 34  2  0  0  0
 33 36  1  0  0  0
 36 37  2  0  0  0
 10  2  1  0  0  0
 31 26  1  0  0  0
 10  6  2  0  0  0
 18 13  1  0  0  0
 25 20  1  0  0  0
  1 11  1  0  0  0
  1 12  1  0  0  0
 32 35  1  0  0  0
M  END
> <minimizedAffinity>
-10.23603

> <CNNscore>
0.9001125693

> <CNNaffinity>
7.5793085098

> <CNN_VS>
6.8222308159

> <CNNaffinity_variance>
0.0291548483

$$$$
[H]C([H])=C([H])C(=O)N([H])[C@]1([H])C([H])([H])C([H])([H])[C@]([H])(n2c([H])c(-c3c([H])c([H])c(Oc4c([H])c([H])c([H])c([H])c4[H])c([H])c3[H])c3c(N([H])[H])nc([H])nc32)C([H])([H])C1([H])[H]


 37 41  0  0  0  0  0  0  0  0999 V2000
  -17.3515    9.5754  -18.4672 N   0  0  0  0  0  0  0  0  0  0  0  0
  -16.8941   10.2841  -19.6061 C   0  0  0  0  0  0  0  0  0  0  0  0
  -16.0250    9.7492  -20.4767 N   0  0  0  0  0  0  0  0  0  0  0  0
  -15.5875   10.4472  -21.5314 C   0  0  0  0  0  0  0  0  0  0  0  0
  -15.9823   11.7035  -21.7813 N   0  0  0  0  0  0  0  0  0  0  0  0
  -16.8518   12.2626  -20.9262 C   0  0  0  0  0  0  0  0  0  0  0  0
  -17.4076   13.4859  -20.9115 N   0  0  0  0  0  0  0  0  0  0  0  0
  -18.2055   13.6010  -19.8637 C   0  0  0  0  0  0  0  0  0  0  0  0
  -18.1983   12.4085  -19.1292 C   0  0  0  0  0  0  0  0  0  0  0  0
  -17.3451   11.5724  -19.8003 C   0  0  0  0  0  0  0  0  0  0  0  0
  -17.9469    8.7397  -18.4716 H   0  0  0  0  0  0  0  0  0  0  0  0
  -17.0525    9.9401  -17.5251 H   0  0  0  0  0  0  0  0  0  0  0  0
  -18.9749   12.1184  -17.9400 C   0  0  0  0  0  0  0  0  0  0  0  0
  -19.5558   10.9009  -17.6542 C   0  0  0  0  0  0  0  0  0  0  0  0
  -20.2824   10.6344  -16.5172 C   0  0  0  0  0  0  0  0  0  0  0  0
  -20.4637   11.6262  -15.5778 C   0  0  0  0  0  0  0  0  0  0  0  0
  -19.9019   12.8550  -15.8231 C   0  0  0  0  0  0  0  0  0  0  0  0
  -19.1798   13.1038  -16.9627 C   0  0  0  0  0  0  0  0  0  0  0  0
  -21.2019   11.3721  -14.4126 O   0  0  0  0  0  0  0  0  0  0  0  0
  -20.7284   10.4211  -13.5202 C   0  0  0  0  0  0  0  0  0  0  0  0
  -21.3697    9.2184  -13.2975 C   0  0  0  0  0  0  0  0  0  0  0  0
  -20.8604    8.2987  -12.3967 C   0  0  0  0  0  0  0  0  0  0  0  0
  -19.6998    8.5453  -11.6906 C   0  0  0  0  0  0  0  0  0  0  0  0
  -19.0597    9.7388  -11.9090 C   0  0  0  0  0  0  0  0  0  0  0  0
  -19.5687   10.6685  -12.8153 C   0  0  0  0  0  0  0  0  0  0  0  0
  -17.1781   14.5249  -21.8848 C   0  0  0  0  0  0  0  0  0  0  0  0
  -16.6163   15.7878  -21.3402 C   0  0  0  0  0  0  0  0  0  0  0  0
  -16.3800   16.6997  -22.5604 C   0  0  0  0  0  0  0  0  0  0  0  0
  -17.7163   17.2957  -22.9390 C   0  0  0  0  0  0  0  0  0  0  0  0
  -18.7981   16.3436  -22.5281 C   0  0  0  0  0  0  0  0  0  0  0  0
  -18.4204   14.8858  -22.6770 C   0  0  0  0  0  0  0  0  0  0  0  0
  -17.9296   18.5743  -22.3178 N   0  0  0  0  0  0  0  0  0  0  0  0
  -18.8308   19.5498  -22.8164 C   0  0  0  0  0  0  0  0  0  0  0  0
  -19.4755   19.2787  -23.8562 O   0  0  0  0  0  0  0  0  0  0  0  0
  -17.3988   18.8000  -21.4593 H   0  0  0  0  0  0  0  0  0  0  0  0
  -19.0401   20.8370  -22.1847 C   0  0  0  0  0  0  0  0  0  0  0  0
  -19.5960   21.8311  -22.8471 C   0  0  0  0  0  0  0  0  0  0  0  0
  1  2  1  0  0  0
  2  3  2  0  0  0
  3  4  1  0  0  0
  4  5  2  0  0  0
  5  6  1  0  0  0
  6  7  1  0  0  0
  7  8  1  0  0  0
  8  9  2  0  0  0
  9 13  1  0  0  0
 13 14  2  0  0  0
 14 15  1  0  0  0
 15 16  2  0  0  0
 16 19  1  0  0  0
 19 20  1  0  0  0
 20 21  2  0  0  0
 21 22  1  0  0  0
 22 23  2  0  0  0
 23 24  1  0  0  0
 24 25  2  0  0  0
 16 17  1  0  0  0
 17 18  2  0  0  0
  9 10  1  0  0  0
  7 26  1  0  0  0
 26 27  1  0  0  0
 27 28  1  0  0  0
 28 29  1  0  0  0
 29 30  1  0  0  0
 30 31  1  0  0  0
 29 32  1  0  0  0
 32 33  1  0  0  0
 33 34  2  0  0  0
 33 36  1  0  0  0
 36 37  2  0  0  0
 10  2  1  0  0  0
 31 26  1  0  0  0
 10  6  2  0  0  0
 18 13  1  0  0  0
 25 20  1  0  0  0
  1 11  1  0  0  0
  1 12  1  0  0  0
 32 35  1  0  0  0
M  END
> <minimizedAffinity>
-8.55530

> <CNNscore>
0.8565533161

> <CNNaffinity>
7.4760103226

> <CNN_VS>
6.4036016464

> <CNNaffinity_variance>
0.1052530259

$$$$
[H]C([H])=C([H])C(=O)N([H])[C@]1([H])C([H])([H])C([H])([H])[C@]([H])(n2c([H])c(-c3c([H])c([H])c(Oc4c([H])c([H])c([H])c([H])c4[H])c([H])c3[H])c3c(N([H])[H])nc([H])nc32)C([H])([H])C1([H])[H]


 37 41  0  0  0  0  0  0  0  0999 V2000
  -16.5214    9.7568  -19.6590 N   0  0  0  0  0  0  0  0  0  0  0  0
  -16.4104   10.7478  -20.6659 C   0  0  0  0  0  0  0  0  0  0  0  0
  -15.5666   10.6208  -21.7009 N   0  0  0  0  0  0  0  0  0  0  0  0
  -15.4606   11.5819  -22.6263 C   0  0  0  0  0  0  0  0  0  0  0  0
  -16.1778   12.7132  -22.5793 N   0  0  0  0  0  0  0  0  0  0  0  0
  -17.0299   12.8658  -21.5545 C   0  0  0  0  0  0  0  0  0  0  0  0
  -17.8572   13.8774  -21.2419 N   0  0  0  0  0  0  0  0  0  0  0  0
  -18.5068   13.5941  -20.1258 C   0  0  0  0  0  0  0  0  0  0  0  0
  -18.1105   12.3368  -19.6528 C   0  0  0  0  0  0  0  0  0  0  0  0
  -17.1817   11.8851  -20.5532 C   0  0  0  0  0  0  0  0  0  0  0  0
  -16.8921    8.8077  -19.7803 H   0  0  0  0  0  0  0  0  0  0  0  0
  -16.1923   10.0178  -18.6928 H   0  0  0  0  0  0  0  0  0  0  0  0
  -18.6222   11.6501  -18.4833 C   0  0  0  0  0  0  0  0  0  0  0  0
  -18.4343   10.3120  -18.2084 C   0  0  0  0  0  0  0  0  0  0  0  0
  -18.9164    9.6732  -17.0898 C   0  0  0  0  0  0  0  0  0  0  0  0
  -19.6407   10.3857  -16.1588 C   0  0  0  0  0  0  0  0  0  0  0  0
  -19.8518   11.7221  -16.3937 C   0  0  0  0  0  0  0  0  0  0  0  0
  -19.3634   12.3437  -17.5150 C   0  0  0  0  0  0  0  0  0  0  0  0
  -20.1401    9.7505  -15.0124 O   0  0  0  0  0  0  0  0  0  0  0  0
  -20.8621    8.5756  -15.1649 C   0  0  0  0  0  0  0  0  0  0  0  0
  -20.2917    7.3243  -15.0374 C   0  0  0  0  0  0  0  0  0  0  0  0
  -21.0516    6.1783  -15.1983 C   0  0  0  0  0  0  0  0  0  0  0  0
  -22.3996    6.2401  -15.4903 C   0  0  0  0  0  0  0  0  0  0  0  0
  -22.9700    7.4812  -15.6178 C   0  0  0  0  0  0  0  0  0  0  0  0
  -22.2089    8.6386  -15.4567 C   0  0  0  0  0  0  0  0  0  0  0  0
  -18.0222   15.0930  -22.0000 C   0  0  0  0  0  0  0  0  0  0  0  0
  -18.2401   14.9041  -23.4573 C   0  0  0  0  0  0  0  0  0  0  0  0
  -18.4732   16.3158  -24.0309 C   0  0  0  0  0  0  0  0  0  0  0  0
  -17.1178   16.9682  -24.1780 C   0  0  0  0  0  0  0  0  0  0  0  0
  -16.1932   16.3864  -23.1524 C   0  0  0  0  0  0  0  0  0  0  0  0
  -16.8652   16.0603  -21.8362 C   0  0  0  0  0  0  0  0  0  0  0  0
  -16.5699   16.7777  -25.4932 N   0  0  0  0  0  0  0  0  0  0  0  0
  -15.6984   15.7116  -25.8347 C   0  0  0  0  0  0  0  0  0  0  0  0
  -15.3914   14.8920  -24.9379 O   0  0  0  0  0  0  0  0  0  0  0  0
  -16.8221   17.4528  -26.2350 H   0  0  0  0  0  0  0  0  0  0  0  0
  -15.1496   15.5264  -27.1629 C   0  0  0  0  0  0  0  0  0  0  0  0
  -15.9284   15.5594  -28.2252 C   0  0  0  0  0  0  0  0  0  0  0  0
  1  2  1  0  0  0
  2  3  2  0  0  0
  3  4  1  0  0  0
  4  5  2  0  0  0
  5  6  1  0  0  0
  6  7  1  0  0  0
  7  8  1  0  0  0
  8  9  2  0  0  0
  9 13  1  0  0  0
 13 14  2  0  0  0
 14 15  1  0  0  0
 15 16  2  0  0  0
 16 19  1  0  0  0
 19 20  1  0  0  0
 20 21  2  0  0  0
 21 22  1  0  0  0
 22 23  2  0  0  0
 23 24  1  0  0  0
 24 25  2  0  0  0
 16 17  1  0  0  0
 17 18  2  0  0  0
  9 10  1  0  0  0
  7 26  1  0  0  0
 26 27  1  0  0  0
 27 28  1  0  0  0
 28 29  1  0  0  0
 29 30  1  0  0  0
 30 31  1  0  0  0
 29 32  1  0  0  0
 32 33  1  0  0  0
 33 34  2  0  0  0
 33 36  1  0  0  0
 36 37  2  0  0  0
 10  2  1  0  0  0
 31 26  1  0  0  0
 10  6  2  0  0  0
 18 13  1  0  0  0
 25 20  1  0  0  0
  1 11  1  0  0  0
  1 12  1  0  0  0
 32 35  1  0  0  0
M  END
> <minimizedAffinity>
-10.20743

> <CNNscore>
0.8531452417

> <CNNaffinity>
7.6223640442

> <CNN_VS>
6.5029835701

> <CNNaffinity_variance>
0.0735947862

$$$$
[H]C([H])=C([H])C(=O)N([H])[C@]1([H])C([H])([H])C([H])([H])[C@]([H])(n2c([H])c(-c3c([H])c([H])c(Oc4c([H])c([H])c([H])c([H])c4[H])c([H])c3[H])c3c(N([H])[H])nc([H])nc32)C([H])([H])C1([H])[H]


 37 41  0  0  0  0  0  0  0  0999 V2000
  -17.2466    9.6094  -18.6451 N   0  0  0  0  0  0  0  0  0  0  0  0
  -16.7974   10.3304  -19.7794 C   0  0  0  0  0  0  0  0  0  0  0  0
  -15.9075    9.8185  -20.6427 N   0  0  0  0  0  0  0  0  0  0  0  0
  -15.4786   10.5283  -21.6932 C   0  0  0  0  0  0  0  0  0  0  0  0
  -15.9029   11.7743  -21.9457 N   0  0  0  0  0  0  0  0  0  0  0  0
  -16.7937   12.3105  -21.0979 C   0  0  0  0  0  0  0  0  0  0  0  0
  -17.3804   13.5193  -21.0873 N   0  0  0  0  0  0  0  0  0  0  0  0
  -18.1900   13.6133  -20.0464 C   0  0  0  0  0  0  0  0  0  0  0  0
  -18.1591   12.4207  -19.3126 C   0  0  0  0  0  0  0  0  0  0  0  0
  -17.2792   11.6071  -19.9768 C   0  0  0  0  0  0  0  0  0  0  0  0
  -17.8206    8.7589  -18.6552 H   0  0  0  0  0  0  0  0  0  0  0  0
  -16.9652    9.9807  -17.7001 H   0  0  0  0  0  0  0  0  0  0  0  0
  -18.9384   12.1101  -18.1305 C   0  0  0  0  0  0  0  0  0  0  0  0
  -19.2503   10.8368  -17.7028 C   0  0  0  0  0  0  0  0  0  0  0  0
  -19.9825   10.5539  -16.5733 C   0  0  0  0  0  0  0  0  0  0  0  0
  -20.4531   11.5865  -15.7915 C   0  0  0  0  0  0  0  0  0  0  0  0
  -20.1653   12.8713  -16.1815 C   0  0  0  0  0  0  0  0  0  0  0  0
  -19.4333   13.1358  -17.3112 C   0  0  0  0  0  0  0  0  0  0  0  0
  -21.2014   11.3165  -14.6364 O   0  0  0  0  0  0  0  0  0  0  0  0
  -21.7596   10.0552  -14.4861 C   0  0  0  0  0  0  0  0  0  0  0  0
  -21.3103    9.1442  -13.5503 C   0  0  0  0  0  0  0  0  0  0  0  0
  -21.8980    7.8960  -13.4360 C   0  0  0  0  0  0  0  0  0  0  0  0
  -22.9489    7.5150  -14.2465 C   0  0  0  0  0  0  0  0  0  0  0  0
  -23.3981    8.4171  -15.1773 C   0  0  0  0  0  0  0  0  0  0  0  0
  -22.8095    9.6757  -15.2965 C   0  0  0  0  0  0  0  0  0  0  0  0
  -17.1688   14.5647  -22.0579 C   0  0  0  0  0  0  0  0  0  0  0  0
  -16.6005   15.8253  -21.5149 C   0  0  0  0  0  0  0  0  0  0  0  0
  -16.3858   16.7450  -22.7332 C   0  0  0  0  0  0  0  0  0  0  0  0
  -17.7293   17.3407  -23.0862 C   0  0  0  0  0  0  0  0  0  0  0  0
  -18.8024   16.3841  -22.6634 C   0  0  0  0  0  0  0  0  0  0  0  0
  -18.4246   14.9279  -22.8273 C   0  0  0  0  0  0  0  0  0  0  0  0
  -17.9347   18.6151  -22.4538 N   0  0  0  0  0  0  0  0  0  0  0  0
  -18.8511   19.5889  -22.9274 C   0  0  0  0  0  0  0  0  0  0  0  0
  -19.5173   19.3202  -23.9541 O   0  0  0  0  0  0  0  0  0  0  0  0
  -17.3861   18.8390  -21.6060 H   0  0  0  0  0  0  0  0  0  0  0  0
  -19.0523   20.8719  -22.2845 C   0  0  0  0  0  0  0  0  0  0  0  0
  -19.7058   21.8382  -22.8970 C   0  0  0  0  0  0  0  0  0  0  0  0
  1  2  1  0  0  0
  2  3  2  0  0  0
  3  4  1  0  0  0
  4  5  2  0  0  0
  5  6  1  0  0  0
  6  7  1  0  0  0
  7  8  1  0  0  0
  8  9  2  0  0  0
  9 13  1  0  0  0
 13 14  2  0  0  0
 14 15  1  0  0  0
 15 16  2  0  0  0
 16 19  1  0  0  0
 19 20  1  0  0  0
 20 21  2  0  0  0
 21 22  1  0  0  0
 22 23  2  0  0  0
 23 24  1  0  0  0
 24 25  2  0  0  0
 16 17  1  0  0  0
 17 18  2  0  0  0
  9 10  1  0  0  0
  7 26  1  0  0  0
 26 27  1  0  0  0
 27 28  1  0  0  0
 28 29  1  0  0  0
 29 30  1  0  0  0
 30 31  1  0  0  0
 29 32  1  0  0  0
 32 33  1  0  0  0
 33 34  2  0  0  0
 33 36  1  0  0  0
 36 37  2  0  0  0
 10  2  1  0  0  0
 31 26  1  0  0  0
 10  6  2  0  0  0
 18 13  1  0  0  0
 25 20  1  0  0  0
  1 11  1  0  0  0
  1 12  1  0  0  0
 32 35  1  0  0  0
M  END
> <minimizedAffinity>
-8.65454

> <CNNscore>
0.8431738615

> <CNNaffinity>
7.4146585464

> <CNN_VS>
6.2518463135

> <CNNaffinity_variance>
0.1009230390

$$$$
[H]C([H])=C([H])C(=O)N([H])[C@]1([H])C([H])([H])C([H])([H])[C@]([H])(n2c([H])c(-c3c([H])c([H])c(Oc4c([H])c([H])c([H])c([H])c4[H])c([H])c3[H])c3c(N([H])[H])nc([H])nc32)C([H])([H])C1([H])[H]


 37 41  0  0  0  0  0  0  0  0999 V2000
  -17.6843    9.3626  -17.7125 N   0  0  0  0  0  0  0  0  0  0  0  0
  -17.3670   10.1433  -18.8519 C   0  0  0  0  0  0  0  0  0  0  0  0
  -16.4565    9.7493  -19.7547 N   0  0  0  0  0  0  0  0  0  0  0  0
  -16.1548   10.5156  -20.8097 C   0  0  0  0  0  0  0  0  0  0  0  0
  -16.7326   11.7051  -21.0282 N   0  0  0  0  0  0  0  0  0  0  0  0
  -17.6474   12.1232  -20.1404 C   0  0  0  0  0  0  0  0  0  0  0  0
  -18.3719   13.2538  -20.0906 N   0  0  0  0  0  0  0  0  0  0  0  0
  -19.1467   13.2405  -19.0194 C   0  0  0  0  0  0  0  0  0  0  0  0
  -18.9471   12.0526  -18.3048 C   0  0  0  0  0  0  0  0  0  0  0  0
  -18.0033   11.3558  -19.0127 C   0  0  0  0  0  0  0  0  0  0  0  0
  -18.1539    8.4502  -17.7140 H   0  0  0  0  0  0  0  0  0  0  0  0
  -17.4128    9.7550  -16.7732 H   0  0  0  0  0  0  0  0  0  0  0  0
  -19.6386   11.6397  -17.0996 C   0  0  0  0  0  0  0  0  0  0  0  0
  -20.2682   10.4250  -16.9276 C   0  0  0  0  0  0  0  0  0  0  0  0
  -20.9130   10.0401  -15.7752 C   0  0  0  0  0  0  0  0  0  0  0  0
  -20.9535   10.8999  -14.6990 C   0  0  0  0  0  0  0  0  0  0  0  0
  -20.3388   12.1211  -14.8277 C   0  0  0  0  0  0  0  0  0  0  0  0
  -19.6999   12.4890  -15.9846 C   0  0  0  0  0  0  0  0  0  0  0  0
  -21.6066   10.5240  -13.5161 O   0  0  0  0  0  0  0  0  0  0  0  0
  -20.9296   10.6568  -12.3123 C   0  0  0  0  0  0  0  0  0  0  0  0
  -19.7499    9.9925  -12.0394 C   0  0  0  0  0  0  0  0  0  0  0  0
  -19.1087   10.1555  -10.8233 C   0  0  0  0  0  0  0  0  0  0  0  0
  -19.6190   10.9824   -9.8424 C   0  0  0  0  0  0  0  0  0  0  0  0
  -20.7906   11.6440  -10.1095 C   0  0  0  0  0  0  0  0  0  0  0  0
  -21.4404   11.4833  -11.3329 C   0  0  0  0  0  0  0  0  0  0  0  0
  -18.3224   14.3267  -21.0529 C   0  0  0  0  0  0  0  0  0  0  0  0
  -18.3069   13.8991  -22.4756 C   0  0  0  0  0  0  0  0  0  0  0  0
  -18.3415   15.1996  -23.3025 C   0  0  0  0  0  0  0  0  0  0  0  0
  -16.9383   15.7609  -23.3123 C   0  0  0  0  0  0  0  0  0  0  0  0
  -16.2408   15.3266  -22.0593 C   0  0  0  0  0  0  0  0  0  0  0  0
  -17.1441   15.2595  -20.8469 C   0  0  0  0  0  0  0  0  0  0  0  0
  -16.1933   15.3248  -24.4617 N   0  0  0  0  0  0  0  0  0  0  0  0
  -16.1168   16.0585  -25.6735 C   0  0  0  0  0  0  0  0  0  0  0  0
  -16.7338   17.1470  -25.7425 O   0  0  0  0  0  0  0  0  0  0  0  0
  -15.6831   14.4268  -24.4069 H   0  0  0  0  0  0  0  0  0  0  0  0
  -15.3640   15.6119  -26.8283 C   0  0  0  0  0  0  0  0  0  0  0  0
  -15.9469   15.4756  -28.0020 C   0  0  0  0  0  0  0  0  0  0  0  0
  1  2  1  0  0  0
  2  3  2  0  0  0
  3  4  1  0  0  0
  4  5  2  0  0  0
  5  6  1  0  0  0
  6  7  1  0  0  0
  7  8  1  0  0  0
  8  9  2  0  0  0
  9 13  1  0  0  0
 13 14  2  0  0  0
 14 15  1  0  0  0
 15 16  2  0  0  0
 16 19  1  0  0  0
 19 20  1  0  0  0
 20 21  2  0  0  0
 21 22  1  0  0  0
 22 23  2  0  0  0
 23 24  1  0  0  0
 24 25  2  0  0  0
 16 17  1  0  0  0
 17 18  2  0  0  0
  9 10  1  0  0  0
  7 26  1  0  0  0
 26 27  1  0  0  0
 27 28  1  0  0  0
 28 29  1  0  0  0
 29 30  1  0  0  0
 30 31  1  0  0  0
 29 32  1  0  0  0
 32 33  1  0  0  0
 33 34  2  0  0  0
 33 36  1  0  0  0
 36 37  2  0  0  0
 10  2  1  0  0  0
 31 26  1  0  0  0
 10  6  2  0  0  0
 18 13  1  0  0  0
 25 20  1  0  0  0
  1 11  1  0  0  0
  1 12  1  0  0  0
 32 35  1  0  0  0
M  END
> <minimizedAffinity>
-9.13272

> <CNNscore>
0.7317198515

> <CNNaffinity>
7.3795614243

> <CNN_VS>
5.3997716904

> <CNNaffinity_variance>
0.2016609162

$$$$
[H]C([H])=C([H])C(=O)N([H])[C@]1([H])C([H])([H])C([H])([H])[C@]([H])(n2c([H])c(-c3c([H])c([H])c(Oc4c([H])c([H])c([H])c([H])c4[H])c([H])c3[H])c3c(N([H])[H])nc([H])nc32)C([H])([H])C1([H])[H]


 37 41  0  0  0  0  0  0  0  0999 V2000
  -17.7510    9.3444  -17.4567 N   0  0  0  0  0  0  0  0  0  0  0  0
  -17.7977   10.2181  -18.5716 C   0  0  0  0  0  0  0  0  0  0  0  0
  -17.0194   10.0402  -19.6495 N   0  0  0  0  0  0  0  0  0  0  0  0
  -17.0628   10.8932  -20.6799 C   0  0  0  0  0  0  0  0  0  0  0  0
  -17.8721   11.9614  -20.7008 N   0  0  0  0  0  0  0  0  0  0  0  0
  -18.6617   12.1628  -19.6350 C   0  0  0  0  0  0  0  0  0  0  0  0
  -19.5516   13.1343  -19.3710 N   0  0  0  0  0  0  0  0  0  0  0  0
  -20.0951   12.9309  -18.1831 C   0  0  0  0  0  0  0  0  0  0  0  0
  -19.5576   11.7724  -17.6080 C   0  0  0  0  0  0  0  0  0  0  0  0
  -18.6568   11.2954  -18.5237 C   0  0  0  0  0  0  0  0  0  0  0  0
  -18.0439    8.3611  -17.4441 H   0  0  0  0  0  0  0  0  0  0  0  0
  -17.3804    9.7409  -16.5537 H   0  0  0  0  0  0  0  0  0  0  0  0
  -19.9248   11.1868  -16.3339 C   0  0  0  0  0  0  0  0  0  0  0  0
  -20.6522   10.0257  -16.1792 C   0  0  0  0  0  0  0  0  0  0  0  0
  -20.9863    9.4738  -14.9645 C   0  0  0  0  0  0  0  0  0  0  0  0
  -20.5848   10.0951  -13.8018 C   0  0  0  0  0  0  0  0  0  0  0  0
  -19.8579   11.2551  -13.9102 C   0  0  0  0  0  0  0  0  0  0  0  0
  -19.5332   11.7918  -15.1302 C   0  0  0  0  0  0  0  0  0  0  0  0
  -20.9165    9.5465  -12.5543 O   0  0  0  0  0  0  0  0  0  0  0  0
  -19.9596    9.5535  -11.5497 C   0  0  0  0  0  0  0  0  0  0  0  0
  -18.8801    8.6921  -11.5378 C   0  0  0  0  0  0  0  0  0  0  0  0
  -17.9493    8.7349  -10.5140 C   0  0  0  0  0  0  0  0  0  0  0  0
  -18.0621    9.6336   -9.4719 C   0  0  0  0  0  0  0  0  0  0  0  0
  -19.1329   10.4910   -9.4800 C   0  0  0  0  0  0  0  0  0  0  0  0
  -20.0733   10.4519  -10.5090 C   0  0  0  0  0  0  0  0  0  0  0  0
  -19.8751   14.2371  -20.2422 C   0  0  0  0  0  0  0  0  0  0  0  0
  -18.8713   15.3317  -20.2751 C   0  0  0  0  0  0  0  0  0  0  0  0
  -19.3853   16.3378  -21.3238 C   0  0  0  0  0  0  0  0  0  0  0  0
  -20.4655   17.1617  -20.6616 C   0  0  0  0  0  0  0  0  0  0  0  0
  -21.1086   16.3346  -19.5903 C   0  0  0  0  0  0  0  0  0  0  0  0
  -21.2212   14.8653  -19.9351 C   0  0  0  0  0  0  0  0  0  0  0  0
  -19.9438   18.3750  -20.0943 N   0  0  0  0  0  0  0  0  0  0  0  0
  -20.6233   19.6195  -20.1396 C   0  0  0  0  0  0  0  0  0  0  0  0
  -21.7402   19.6601  -20.7062 O   0  0  0  0  0  0  0  0  0  0  0  0
  -19.0222   18.3439  -19.6258 H   0  0  0  0  0  0  0  0  0  0  0  0
  -20.0905   20.8388  -19.5657 C   0  0  0  0  0  0  0  0  0  0  0  0
  -19.2756   20.7974  -18.5312 C   0  0  0  0  0  0  0  0  0  0  0  0
  1  2  1  0  0  0
  2  3  2  0  0  0
  3  4  1  0  0  0
  4  5  2  0  0  0
  5  6  1  0  0  0
  6  7  1  0  0  0
  7  8  1  0  0  0
  8  9  2  0  0  0
  9 13  1  0  0  0
 13 14  2  0  0  0
 14 15  1  0  0  0
 15 16  2  0  0  0
 16 19  1  0  0  0
 19 20  1  0  0  0
 20 21  2  0  0  0
 21 22  1  0  0  0
 22 23  2  0  0  0
 23 24  1  0  0  0
 24 25  2  0  0  0
 16 17  1  0  0  0
 17 18  2  0  0  0
  9 10  1  0  0  0
  7 26  1  0  0  0
 26 27  1  0  0  0
 27 28  1  0  0  0
 28 29  1  0  0  0
 29 30  1  0  0  0
 30 31  1  0  0  0
 29 32  1  0  0  0
 32 33  1  0  0  0
 33 34  2  0  0  0
 33 36  1  0  0  0
 36 37  2  0  0  0
 10  2  1  0  0  0
 31 26  1  0  0  0
 10  6  2  0  0  0
 18 13  1  0  0  0
 25 20  1  0  0  0
  1 11  1  0  0  0
  1 12  1  0  0  0
 32 35  1  0  0  0
M  END
> <minimizedAffinity>
-7.67898

> <CNNscore>
0.7038289309

> <CNNaffinity>
7.0806069374

> <CNN_VS>
4.9835362434

> <CNNaffinity_variance>
0.1178387180

$$$$
[H]C([H])=C([H])C(=O)N([H])[C@]1([H])C([H])([H])C([H])([H])[C@]([H])(n2c([H])c(-c3c([H])c([H])c(Oc4c([H])c([H])c([H])c([H])c4[H])c([H])c3[H])c3c(N([H])[H])nc([H])nc32)C([H])([H])C1([H])[H]


 37 41  0  0  0  0  0  0  0  0999 V2000
  -17.6567    9.4358  -17.5645 N   0  0  0  0  0  0  0  0  0  0  0  0
  -17.7127   10.3221  -18.6689 C   0  0  0  0  0  0  0  0  0  0  0  0
  -16.9239   10.1725  -19.7435 N   0  0  0  0  0  0  0  0  0  0  0  0
  -16.9767   11.0372  -20.7636 C   0  0  0  0  0  0  0  0  0  0  0  0
  -17.8063   12.0899  -20.7770 N   0  0  0  0  0  0  0  0  0  0  0  0
  -18.6067   12.2630  -19.7144 C   0  0  0  0  0  0  0  0  0  0  0  0
  -19.5168   13.2140  -19.4446 N   0  0  0  0  0  0  0  0  0  0  0  0
  -20.0643   12.9855  -18.2631 C   0  0  0  0  0  0  0  0  0  0  0  0
  -19.5085   11.8305  -17.6985 C   0  0  0  0  0  0  0  0  0  0  0  0
  -18.5926   11.3822  -18.6137 C   0  0  0  0  0  0  0  0  0  0  0  0
  -17.9307    8.4470  -17.5659 H   0  0  0  0  0  0  0  0  0  0  0  0
  -17.2998    9.8280  -16.6542 H   0  0  0  0  0  0  0  0  0  0  0  0
  -19.8729   11.2223  -16.4343 C   0  0  0  0  0  0  0  0  0  0  0  0
  -19.6380   11.7779  -15.1943 C   0  0  0  0  0  0  0  0  0  0  0  0
  -19.9975   11.1958  -14.0011 C   0  0  0  0  0  0  0  0  0  0  0  0
  -20.6369    9.9751  -14.0053 C   0  0  0  0  0  0  0  0  0  0  0  0
  -20.8902    9.3858  -15.2195 C   0  0  0  0  0  0  0  0  0  0  0  0
  -20.5249    9.9806  -16.4005 C   0  0  0  0  0  0  0  0  0  0  0  0
  -21.0106    9.3668  -12.7980 O   0  0  0  0  0  0  0  0  0  0  0  0
  -20.2394    8.3193  -12.3152 C   0  0  0  0  0  0  0  0  0  0  0  0
  -18.9361    8.4837  -11.8888 C   0  0  0  0  0  0  0  0  0  0  0  0
  -18.2038    7.4089  -11.4143 C   0  0  0  0  0  0  0  0  0  0  0  0
  -18.7432    6.1396  -11.3486 C   0  0  0  0  0  0  0  0  0  0  0  0
  -20.0376    5.9721  -11.7711 C   0  0  0  0  0  0  0  0  0  0  0  0
  -20.7794    7.0516  -12.2500 C   0  0  0  0  0  0  0  0  0  0  0  0
  -19.8556   14.3211  -20.3044 C   0  0  0  0  0  0  0  0  0  0  0  0
  -18.8684   15.4311  -20.3238 C   0  0  0  0  0  0  0  0  0  0  0  0
  -19.3959   16.4405  -21.3625 C   0  0  0  0  0  0  0  0  0  0  0  0
  -20.4896   17.2408  -20.6934 C   0  0  0  0  0  0  0  0  0  0  0  0
  -21.1218   16.3925  -19.6322 C   0  0  0  0  0  0  0  0  0  0  0  0
  -21.2116   14.9255  -19.9931 C   0  0  0  0  0  0  0  0  0  0  0  0
  -19.9873   18.4557  -20.1121 N   0  0  0  0  0  0  0  0  0  0  0  0
  -20.4365   19.7490  -20.4835 C   0  0  0  0  0  0  0  0  0  0  0  0
  -21.3205   19.8338  -21.3674 O   0  0  0  0  0  0  0  0  0  0  0  0
  -19.2577   18.3881  -19.3820 H   0  0  0  0  0  0  0  0  0  0  0  0
  -19.9248   20.9694  -19.8930 C   0  0  0  0  0  0  0  0  0  0  0  0
  -19.3577   20.9573  -18.7038 C   0  0  0  0  0  0  0  0  0  0  0  0
  1  2  1  0  0  0
  2  3  2  0  0  0
  3  4  1  0  0  0
  4  5  2  0  0  0
  5  6  1  0  0  0
  6  7  1  0  0  0
  7  8  1  0  0  0
  8  9  2  0  0  0
  9 13  1  0  0  0
 13 14  2  0  0  0
 14 15  1  0  0  0
 15 16  2  0  0  0
 16 19  1  0  0  0
 19 20  1  0  0  0
 20 21  2  0  0  0
 21 22  1  0  0  0
 22 23  2  0  0  0
 23 24  1  0  0  0
 24 25  2  0  0  0
 16 17  1  0  0  0
 17 18  2  0  0  0
  9 10  1  0  0  0
  7 26  1  0  0  0
 26 27  1  0  0  0
 27 28  1  0  0  0
 28 29  1  0  0  0
 29 30  1  0  0  0
 30 31  1  0  0  0
 29 32  1  0  0  0
 32 33  1  0  0  0
 33 34  2  0  0  0
 33 36  1  0  0  0
 36 37  2  0  0  0
 10  2  1  0  0  0
 31 26  1  0  0  0
 10  6  2  0  0  0
 18 13  1  0  0  0
 25 20  1  0  0  0
  1 11  1  0  0  0
  1 12  1  0  0  0
 32 35  1  0  0  0
M  END
> <minimizedAffinity>
-7.23554

> <CNNscore>
0.6282243133

> <CNNaffinity>
7.0294241905

> <CNN_VS>
4.4160552025

> <CNNaffinity_variance>
0.1765591204

$$$$
[H]C([H])=C([H])C(=O)N([H])[C@]1([H])C([H])([H])C([H])([H])[C@]([H])(n2c([H])c(-c3c([H])c([H])c(Oc4c([H])c([H])c([H])c([H])c4[H])c([H])c3[H])c3c(N([H])[H])nc([H])nc32)C([H])([H])C1([H])[H]


 37 41  0  0  0  0  0  0  0  0999 V2000
  -17.0028   10.1320  -20.5454 N   0  0  0  0  0  0  0  0  0  0  0  0
  -16.8834   11.3868  -21.1933 C   0  0  0  0  0  0  0  0  0  0  0  0
  -16.2173   11.5319  -22.3485 N   0  0  0  0  0  0  0  0  0  0  0  0
  -16.0961   12.7317  -22.9288 C   0  0  0  0  0  0  0  0  0  0  0  0
  -16.6230   13.8460  -22.4024 N   0  0  0  0  0  0  0  0  0  0  0  0
  -17.2949   13.7292  -21.2471 C   0  0  0  0  0  0  0  0  0  0  0  0
  -17.9113   14.6532  -20.4910 N   0  0  0  0  0  0  0  0  0  0  0  0
  -18.4376   14.0776  -19.4235 C   0  0  0  0  0  0  0  0  0  0  0  0
  -18.1727   12.7025  -19.4474 C   0  0  0  0  0  0  0  0  0  0  0  0
  -17.4534   12.4899  -20.5940 C   0  0  0  0  0  0  0  0  0  0  0  0
  -17.5241    9.3184  -20.8905 H   0  0  0  0  0  0  0  0  0  0  0  0
  -16.5096   10.0224  -19.6208 H   0  0  0  0  0  0  0  0  0  0  0  0
  -18.6169   11.7175  -18.4811 C   0  0  0  0  0  0  0  0  0  0  0  0
  -18.0018   10.5052  -18.2500 C   0  0  0  0  0  0  0  0  0  0  0  0
  -18.4267    9.5824  -17.3229 C   0  0  0  0  0  0  0  0  0  0  0  0
  -19.5386    9.8522  -16.5549 C   0  0  0  0  0  0  0  0  0  0  0  0
  -20.1822   11.0490  -16.7530 C   0  0  0  0  0  0  0  0  0  0  0  0
  -19.7446   11.9585  -17.6822 C   0  0  0  0  0  0  0  0  0  0  0  0
  -19.9861    8.9226  -15.6048 O   0  0  0  0  0  0  0  0  0  0  0  0
  -20.2489    9.3639  -14.3159 C   0  0  0  0  0  0  0  0  0  0  0  0
  -19.2660    9.8491  -13.4757 C   0  0  0  0  0  0  0  0  0  0  0  0
  -19.5747   10.2787  -12.1963 C   0  0  0  0  0  0  0  0  0  0  0  0
  -20.8675   10.2399  -11.7132 C   0  0  0  0  0  0  0  0  0  0  0  0
  -21.8467    9.7586  -12.5448 C   0  0  0  0  0  0  0  0  0  0  0  0
  -21.5410    9.3246  -13.8343 C   0  0  0  0  0  0  0  0  0  0  0  0
  -17.9947   16.0621  -20.7873 C   0  0  0  0  0  0  0  0  0  0  0  0
  -17.5287   16.9643  -19.7028 C   0  0  0  0  0  0  0  0  0  0  0  0
  -17.6294   18.3919  -20.2756 C   0  0  0  0  0  0  0  0  0  0  0  0
  -19.0796   18.8082  -20.1872 C   0  0  0  0  0  0  0  0  0  0  0  0
  -19.9349   17.5800  -20.2606 C   0  0  0  0  0  0  0  0  0  0  0  0
  -19.3904   16.5081  -21.1797 C   0  0  0  0  0  0  0  0  0  0  0  0
  -19.3593   19.5259  -18.9735 N   0  0  0  0  0  0  0  0  0  0  0  0
  -19.4643   20.9388  -18.9024 C   0  0  0  0  0  0  0  0  0  0  0  0
  -19.3041   21.5949  -19.9579 O   0  0  0  0  0  0  0  0  0  0  0  0
  -19.4922   18.9864  -18.1012 H   0  0  0  0  0  0  0  0  0  0  0  0
  -19.7462   21.6553  -17.6748 C   0  0  0  0  0  0  0  0  0  0  0  0
  -20.9771   21.7449  -17.2135 C   0  0  0  0  0  0  0  0  0  0  0  0
  1  2  1  0  0  0
  2  3  2  0  0  0
  3  4  1  0  0  0
  4  5  2  0  0  0
  5  6  1  0  0  0
  6  7  1  0  0  0
  7  8  1  0  0  0
  8  9  2  0  0  0
  9 13  1  0  0  0
 13 14  2  0  0  0
 14 15  1  0  0  0
 15 16  2  0  0  0
 16 19  1  0  0  0
 19 20  1  0  0  0
 20 21  2  0  0  0
 21 22  1  0  0  0
 22 23  2  0  0  0
 23 24  1  0  0  0
 24 25  2  0  0  0
 16 17  1  0  0  0
 17 18  2  0  0  0
  9 10  1  0  0  0
  7 26  1  0  0  0
 26 27  1  0  0  0
 27 28  1  0  0  0
 28 29  1  0  0  0
 29 30  1  0  0  0
 30 31  1  0  0  0
 29 32  1  0  0  0
 32 33  1  0  0  0
 33 34  2  0  0  0
 33 36  1  0  0  0
 36 37  2  0  0  0
 10  2  1  0  0  0
 31 26  1  0  0  0
 10  6  2  0  0  0
 18 13  1  0  0  0
 25 20  1  0  0  0
  1 11  1  0  0  0
  1 12  1  0  0  0
 32 35  1  0  0  0
M  END
> <minimizedAffinity>
-8.17583

> <CNNscore>
0.5977579355

> <CNNaffinity>
7.2742967606

> <CNN_VS>
4.3482685089

> <CNNaffinity_variance>
0.2397780418

$$$$
[H]C([H])=C([H])C(=O)N([H])[C@]1([H])C([H])([H])C([H])([H])[C@]([H])(n2c([H])c(-c3c([H])c([H])c(Oc4c([H])c([H])c([H])c([H])c4[H])c([H])c3[H])c3c(N([H])[H])nc([H])nc32)C([H])([H])C1([H])[H]


 37 41  0  0  0  0  0  0  0  0999 V2000
  -17.7819    9.3830  -17.6354 N   0  0  0  0  0  0  0  0  0  0  0  0
  -17.4448   10.1749  -18.7612 C   0  0  0  0  0  0  0  0  0  0  0  0
  -16.5161    9.7915  -19.6499 N   0  0  0  0  0  0  0  0  0  0  0  0
  -16.1962   10.5681  -20.6919 C   0  0  0  0  0  0  0  0  0  0  0  0
  -16.7729   11.7581  -20.9106 N   0  0  0  0  0  0  0  0  0  0  0  0
  -17.7057   12.1659  -20.0368 C   0  0  0  0  0  0  0  0  0  0  0  0
  -18.4340   13.2941  -19.9906 N   0  0  0  0  0  0  0  0  0  0  0  0
  -19.2292   13.2691  -18.9347 C   0  0  0  0  0  0  0  0  0  0  0  0
  -19.0403   12.0752  -18.2273 C   0  0  0  0  0  0  0  0  0  0  0  0
  -18.0812   11.3872  -18.9232 C   0  0  0  0  0  0  0  0  0  0  0  0
  -18.2490    8.4695  -17.6543 H   0  0  0  0  0  0  0  0  0  0  0  0
  -17.5296    9.7674  -16.6874 H   0  0  0  0  0  0  0  0  0  0  0  0
  -19.7537   11.6495  -17.0394 C   0  0  0  0  0  0  0  0  0  0  0  0
  -20.7369   10.6831  -17.0130 C   0  0  0  0  0  0  0  0  0  0  0  0
  -21.4003   10.2801  -15.8776 C   0  0  0  0  0  0  0  0  0  0  0  0
  -21.0887   10.8588  -14.6663 C   0  0  0  0  0  0  0  0  0  0  0  0
  -20.1148   11.8267  -14.6474 C   0  0  0  0  0  0  0  0  0  0  0  0
  -19.4627   12.2166  -15.7897 C   0  0  0  0  0  0  0  0  0  0  0  0
  -21.7552   10.4602  -13.4983 O   0  0  0  0  0  0  0  0  0  0  0  0
  -23.1425   10.4436  -13.4977 C   0  0  0  0  0  0  0  0  0  0  0  0
  -23.9049   11.5679  -13.7474 C   0  0  0  0  0  0  0  0  0  0  0  0
  -25.2878   11.5043  -13.7363 C   0  0  0  0  0  0  0  0  0  0  0  0
  -25.9549   10.3235  -13.4774 C   0  0  0  0  0  0  0  0  0  0  0  0
  -25.2013    9.2045  -13.2290 C   0  0  0  0  0  0  0  0  0  0  0  0
  -23.8080    9.2633  -13.2390 C   0  0  0  0  0  0  0  0  0  0  0  0
  -18.3688   14.3760  -20.9419 C   0  0  0  0  0  0  0  0  0  0  0  0
  -18.3430   13.9621  -22.3685 C   0  0  0  0  0  0  0  0  0  0  0  0
  -18.3617   15.2707  -23.1830 C   0  0  0  0  0  0  0  0  0  0  0  0
  -16.9549   15.8230  -23.1746 C   0  0  0  0  0  0  0  0  0  0  0  0
  -16.2717   15.3722  -21.9194 C   0  0  0  0  0  0  0  0  0  0  0  0
  -17.1866   15.2991  -20.7161 C   0  0  0  0  0  0  0  0  0  0  0  0
  -16.2022   15.3933  -24.3213 N   0  0  0  0  0  0  0  0  0  0  0  0
  -16.1280   16.1274  -25.5329 C   0  0  0  0  0  0  0  0  0  0  0  0
  -16.7544   17.2103  -25.6044 O   0  0  0  0  0  0  0  0  0  0  0  0
  -15.6842   14.4999  -24.2645 H   0  0  0  0  0  0  0  0  0  0  0  0
  -15.3673   15.6872  -26.6851 C   0  0  0  0  0  0  0  0  0  0  0  0
  -15.9586   15.4770  -27.8436 C   0  0  0  0  0  0  0  0  0  0  0  0
  1  2  1  0  0  0
  2  3  2  0  0  0
  3  4  1  0  0  0
  4  5  2  0  0  0
  5  6  1  0  0  0
  6  7  1  0  0  0
  7  8  1  0  0  0
  8  9  2  0  0  0
  9 13  1  0  0  0
 13 14  2  0  0  0
 14 15  1  0  0  0
 15 16  2  0  0  0
 16 19  1  0  0  0
 19 20  1  0  0  0
 20 21  2  0  0  0
 21 22  1  0  0  0
 22 23  2  0  0  0
 23 24  1  0  0  0
 24 25  2  0  0  0
 16 17  1  0  0  0
 17 18  2  0  0  0
  9 10  1  0  0  0
  7 26  1  0  0  0
 26 27  1  0  0  0
 27 28  1  0  0  0
 28 29  1  0  0  0
 29 30  1  0  0  0
 30 31  1  0  0  0
 29 32  1  0  0  0
 32 33  1  0  0  0
 33 34  2  0  0  0
 33 36  1  0  0  0
 36 37  2  0  0  0
 10  2  1  0  0  0
 31 26  1  0  0  0
 10  6  2  0  0  0
 18 13  1  0  0  0
 25 20  1  0  0  0
  1 11  1  0  0  0
  1 12  1  0  0  0
 32 35  1  0  0  0
M  END
> <minimizedAffinity>
-8.01806

> <CNNscore>
0.5472684503

> <CNNaffinity>
7.1860380173

> <CNN_VS>
3.9326918125

> <CNNaffinity_variance>
0.3708988130

$$$$
[H]c1nc2c(c(Oc3c([H])c([H])c(N([H])C(=O)N([H])c4c([H])c(C(C([H])([H])[H])(C([H])([H])[H])C([H])([H])[H])nn4-c4c([H])c([H])c(OC([H])([H])[H])c([H])c4[H])c4c([H])c([H])c([H])c([H])c34)c1[H])n(C([H])([H])[H])c(=O)n2[H]


 46 51  0  0  0  0  0  0  0  0999 V2000
  -21.2821   15.5749  -20.1804 N   0  0  0  0  0  0  0  0  0  0  0  0
  -21.0947   14.3614  -19.5274 C   0  0  0  0  0  0  0  0  0  0  0  0
  -21.4716   13.2767  -20.1547 O   0  0  0  0  0  0  0  0  0  0  0  0
  -20.5398   14.1056  -18.2589 N   0  0  0  0  0  0  0  0  0  0  0  0
  -21.7239   15.4556  -21.1733 H   0  0  0  0  0  0  0  0  0  0  0  0
  -20.2188   14.9832  -17.7796 H   0  0  0  0  0  0  0  0  0  0  0  0
  -20.4095   12.8510  -17.6542 C   0  0  0  0  0  0  0  0  0  0  0  0
  -21.1823   12.3655  -16.6535 C   0  0  0  0  0  0  0  0  0  0  0  0
  -20.9498   11.1331  -16.0310 C   0  0  0  0  0  0  0  0  0  0  0  0
  -19.8966   10.3455  -16.4211 C   0  0  0  0  0  0  0  0  0  0  0  0
  -19.1069   10.8163  -17.4323 C   0  0  0  0  0  0  0  0  0  0  0  0
  -18.0757   10.0115  -17.8661 C   0  0  0  0  0  0  0  0  0  0  0  0
  -17.2787   10.4298  -18.9082 C   0  0  0  0  0  0  0  0  0  0  0  0
  -17.4823   11.6263  -19.5301 C   0  0  0  0  0  0  0  0  0  0  0  0
  -18.5340   12.4557  -19.0983 C   0  0  0  0  0  0  0  0  0  0  0  0
  -19.3288   12.0435  -18.0613 C   0  0  0  0  0  0  0  0  0  0  0  0
  -19.7142    9.1311  -15.7594 O   0  0  0  0  0  0  0  0  0  0  0  0
  -19.8834    9.0375  -14.3752 C   0  0  0  0  0  0  0  0  0  0  0  0
  -19.2261    9.8484  -13.4749 C   0  0  0  0  0  0  0  0  0  0  0  0
  -19.4017    9.7427  -12.0993 C   0  0  0  0  0  0  0  0  0  0  0  0
  -20.2386    8.8236  -11.6119 N   0  0  0  0  0  0  0  0  0  0  0  0
  -20.8930    8.0201  -12.4669 C   0  0  0  0  0  0  0  0  0  0  0  0
  -21.7850    7.0220  -12.2443 N   0  0  0  0  0  0  0  0  0  0  0  0
  -22.1899    6.4816  -13.4021 C   0  0  0  0  0  0  0  0  0  0  0  0
  -23.0068    5.5421  -13.5337 O   0  0  0  0  0  0  0  0  0  0  0  0
  -21.5372    7.1577  -14.3697 N   0  0  0  0  0  0  0  0  0  0  0  0
  -21.6784    6.9047  -15.7839 C   0  0  0  0  0  0  0  0  0  0  0  0
  -20.7399    8.1005  -13.8237 C   0  0  0  0  0  0  0  0  0  0  0  0
  -22.0905    6.7430  -11.2676 H   0  0  0  0  0  0  0  0  0  0  0  0
  -21.4611   17.9822  -20.5411 N   0  0  0  0  0  0  0  0  0  0  0  0
  -21.1854   19.0879  -19.8957 N   0  0  0  0  0  0  0  0  0  0  0  0
  -20.6293   18.8584  -18.7176 C   0  0  0  0  0  0  0  0  0  0  0  0
  -20.5660   17.4474  -18.6512 C   0  0  0  0  0  0  0  0  0  0  0  0
  -21.0784   16.8770  -19.7765 C   0  0  0  0  0  0  0  0  0  0  0  0
  -23.1926   17.7701  -24.3666 C   0  0  0  0  0  0  0  0  0  0  0  0
  -23.9494   17.4424  -23.2367 C   0  0  0  0  0  0  0  0  0  0  0  0
  -23.3631   17.5134  -21.9675 C   0  0  0  0  0  0  0  0  0  0  0  0
  -22.0513   17.9020  -21.8304 C   0  0  0  0  0  0  0  0  0  0  0  0
  -21.3423   18.2142  -22.9597 C   0  0  0  0  0  0  0  0  0  0  0  0
  -21.8943   18.1543  -24.2282 C   0  0  0  0  0  0  0  0  0  0  0  0
  -23.6057   18.7709  -26.5549 C   0  0  0  0  0  0  0  0  0  0  0  0
  -23.7547   17.7078  -25.6335 O   0  0  0  0  0  0  0  0  0  0  0  0
  -20.1498   19.7670  -17.6440 C   0  0  0  0  0  0  0  0  0  0  0  0
  -19.4584   18.9778  -16.5463 C   0  0  0  0  0  0  0  0  0  0  0  0
  -19.1504   20.7445  -18.2200 C   0  0  0  0  0  0  0  0  0  0  0  0
  -21.2898   20.5054  -16.9851 C   0  0  0  0  0  0  0  0  0  0  0  0
 41 42  1  0  0  0
 42 35  1  0  0  0
 35 36  2  0  0  0
 36 37  1  0  0  0
 37 38  2  0  0  0
 38 39  1  0  0  0
 39 40  2  0  0  0
 38 30  1  0  0  0
 30 31  1  0  0  0
 31 32  2  0  0  0
 32 33  1  0  0  0
 33 34  2  0  0  0
 34  1  1  0  0  0
  1  2  1  0  0  0
  2  3  2  0  0  0
  2  4  1  0  0  0
  4  7  1  0  0  0
  7  8  2  0  0  0
  8  9  1  0  0  0
  9 10  2  0  0  0
 10 17  1  0  0  0
 17 18  1  0  0  0
 18 19  2  0  0  0
 19 20  1  0  0  0
 20 21  2  0  0  0
 21 22  1  0  0  0
 22 23  1  0  0  0
 23 24  1  0  0  0
 24 25  2  0  0  0
 24 26  1  0  0  0
 26 27  1  0  0  0
 26 28  1  0  0  0
 10 11  1  0  0  0
 11 12  2  0  0  0
 12 13  1  0  0  0
 13 14  2  0  0  0
 14 15  1  0  0  0
 15 16  2  0  0  0
 32 43  1  0  0  0
 43 44  1  0  0  0
 43 45  1  0  0  0
 43 46  1  0  0  0
 40 35  1  0  0  0
 34 30  1  0  0  0
 16  7  1  0  0  0
 28 18  1  0  0  0
 16 11  1  0  0  0
 28 22  2  0  0  0
  1  5  1  0  0  0
  4  6  1  0  0  0
 23 29  1  0  0  0
M  END
> <minimizedAffinity>
-8.77808

> <CNNscore>
0.0761000365

> <CNNaffinity>
6.5889344215

> <CNN_VS>
0.5014181733

> <CNNaffinity_variance>
0.1855160445

$$$$
[H]c1nc2c(c(Oc3c([H])c([H])c(N([H])C(=O)N([H])c4c([H])c(C(C([H])([H])[H])(C([H])([H])[H])C([H])([H])[H])nn4-c4c([H])c([H])c(OC([H])([H])[H])c([H])c4[H])c4c([H])c([H])c([H])c([H])c34)c1[H])n(C([H])([H])[H])c(=O)n2[H]


 46 51  0  0  0  0  0  0  0  0999 V2000
  -19.6535   12.7876  -15.6421 N   0  0  0  0  0  0  0  0  0  0  0  0
  -19.0872   12.8770  -16.9092 C   0  0  0  0  0  0  0  0  0  0  0  0
  -18.0113   13.6108  -17.0364 O   0  0  0  0  0  0  0  0  0  0  0  0
  -19.4977   12.2785  -18.1157 N   0  0  0  0  0  0  0  0  0  0  0  0
  -19.0961   13.3528  -14.8903 H   0  0  0  0  0  0  0  0  0  0  0  0
  -20.3465   11.6726  -17.9917 H   0  0  0  0  0  0  0  0  0  0  0  0
  -18.8884   12.4392  -19.3644 C   0  0  0  0  0  0  0  0  0  0  0  0
  -17.9615   11.6158  -19.9097 C   0  0  0  0  0  0  0  0  0  0  0  0
  -17.3253   11.8750  -21.1297 C   0  0  0  0  0  0  0  0  0  0  0  0
  -17.6238   13.0088  -21.8418 C   0  0  0  0  0  0  0  0  0  0  0  0
  -18.5598   13.8509  -21.3100 C   0  0  0  0  0  0  0  0  0  0  0  0
  -18.9037   14.9678  -22.0402 C   0  0  0  0  0  0  0  0  0  0  0  0
  -19.8700   15.8234  -21.5600 C   0  0  0  0  0  0  0  0  0  0  0  0
  -20.5031   15.5952  -20.3738 C   0  0  0  0  0  0  0  0  0  0  0  0
  -20.1628   14.4565  -19.6204 C   0  0  0  0  0  0  0  0  0  0  0  0
  -19.2015   13.6031  -20.0944 C   0  0  0  0  0  0  0  0  0  0  0  0
  -16.9530   13.2136  -23.0477 O   0  0  0  0  0  0  0  0  0  0  0  0
  -16.4805   14.4815  -23.3977 C   0  0  0  0  0  0  0  0  0  0  0  0
  -16.0649   15.4169  -22.4743 C   0  0  0  0  0  0  0  0  0  0  0  0
  -15.5994   16.6764  -22.8363 C   0  0  0  0  0  0  0  0  0  0  0  0
  -15.5446   17.0112  -24.1277 N   0  0  0  0  0  0  0  0  0  0  0  0
  -15.9430   16.1185  -25.0492 C   0  0  0  0  0  0  0  0  0  0  0  0
  -15.9893   16.1977  -26.4031 N   0  0  0  0  0  0  0  0  0  0  0  0
  -16.4601   15.0581  -26.9284 C   0  0  0  0  0  0  0  0  0  0  0  0
  -16.6238   14.8176  -28.1461 O   0  0  0  0  0  0  0  0  0  0  0  0
  -16.7125   14.2483  -25.8797 N   0  0  0  0  0  0  0  0  0  0  0  0
  -17.2339   12.9065  -25.9874 C   0  0  0  0  0  0  0  0  0  0  0  0
  -16.4057   14.8733  -24.7231 C   0  0  0  0  0  0  0  0  0  0  0  0
  -15.6831   17.0657  -26.9303 H   0  0  0  0  0  0  0  0  0  0  0  0
  -22.0175   12.8644  -15.0400 N   0  0  0  0  0  0  0  0  0  0  0  0
  -22.9491   12.0355  -14.6398 N   0  0  0  0  0  0  0  0  0  0  0  0
  -22.4958   10.8018  -14.4911 C   0  0  0  0  0  0  0  0  0  0  0  0
  -21.1309   10.9061  -14.8453 C   0  0  0  0  0  0  0  0  0  0  0  0
  -20.8073   12.1827  -15.1916 C   0  0  0  0  0  0  0  0  0  0  0  0
  -22.5148   16.9754  -15.7681 C   0  0  0  0  0  0  0  0  0  0  0  0
  -22.6175   16.4781  -14.4646 C   0  0  0  0  0  0  0  0  0  0  0  0
  -22.4532   15.1073  -14.2328 C   0  0  0  0  0  0  0  0  0  0  0  0
  -22.1929   14.2534  -15.2787 C   0  0  0  0  0  0  0  0  0  0  0  0
  -22.1003   14.7773  -16.5405 C   0  0  0  0  0  0  0  0  0  0  0  0
  -22.2573   16.1281  -16.8016 C   0  0  0  0  0  0  0  0  0  0  0  0
  -22.4092   18.8748  -17.2985 C   0  0  0  0  0  0  0  0  0  0  0  0
  -22.6729   18.3307  -16.0195 O   0  0  0  0  0  0  0  0  0  0  0  0
  -23.1541    9.5387  -14.0671 C   0  0  0  0  0  0  0  0  0  0  0  0
  -23.1719    8.5373  -15.2084 C   0  0  0  0  0  0  0  0  0  0  0  0
  -22.3820    8.9286  -12.9193 C   0  0  0  0  0  0  0  0  0  0  0  0
  -24.5942    9.7628  -13.6738 C   0  0  0  0  0  0  0  0  0  0  0  0
 41 42  1  0  0  0
 42 35  1  0  0  0
 35 36  2  0  0  0
 36 37  1  0  0  0
 37 38  2  0  0  0
 38 39  1  0  0  0
 39 40  2  0  0  0
 38 30  1  0  0  0
 30 31  1  0  0  0
 31 32  2  0  0  0
 32 33  1  0  0  0
 33 34  2  0  0  0
 34  1  1  0  0  0
  1  2  1  0  0  0
  2  3  2  0  0  0
  2  4  1  0  0  0
  4  7  1  0  0  0
  7  8  2  0  0  0
  8  9  1  0  0  0
  9 10  2  0  0  0
 10 17  1  0  0  0
 17 18  1  0  0  0
 18 19  2  0  0  0
 19 20  1  0  0  0
 20 21  2  0  0  0
 21 22  1  0  0  0
 22 23  1  0  0  0
 23 24  1  0  0  0
 24 25  2  0  0  0
 24 26  1  0  0  0
 26 27  1  0  0  0
 26 28  1  0  0  0
 10 11  1  0  0  0
 11 12  2  0  0  0
 12 13  1  0  0  0
 13 14  2  0  0  0
 14 15  1  0  0  0
 15 16  2  0  0  0
 32 43  1  0  0  0
 43 44  1  0  0  0
 43 45  1  0  0  0
 43 46  1  0  0  0
 40 35  1  0  0  0
 34 30  1  0  0  0
 16  7  1  0  0  0
 28 18  1  0  0  0
 16 11  1  0  0  0
 28 22  2  0  0  0
  1  5  1  0  0  0
  4  6  1  0  0  0
 23 29  1  0  0  0
M  END
> <minimizedAffinity>
-9.04884

> <CNNscore>
0.0720321834

> <CNNaffinity>
6.8675155640

> <CNN_VS>
0.4946821332

> <CNNaffinity_variance>
0.2237900198

$$$$
[H]c1nc2c(c(Oc3c([H])c([H])c(N([H])C(=O)N([H])c4c([H])c(C(C([H])([H])[H])(C([H])([H])[H])C([H])([H])[H])nn4-c4c([H])c([H])c(OC([H])([H])[H])c([H])c4[H])c4c([H])c([H])c([H])c([H])c34)c1[H])n(C([H])([H])[H])c(=O)n2[H]


 46 51  0  0  0  0  0  0  0  0999 V2000
  -19.8521   12.8317  -15.5819 N   0  0  0  0  0  0  0  0  0  0  0  0
  -19.2789   13.0493  -16.8302 C   0  0  0  0  0  0  0  0  0  0  0  0
  -18.2939   13.9079  -16.8981 O   0  0  0  0  0  0  0  0  0  0  0  0
  -19.5967   12.4686  -18.0729 N   0  0  0  0  0  0  0  0  0  0  0  0
  -19.3770   13.4192  -14.7917 H   0  0  0  0  0  0  0  0  0  0  0  0
  -20.3711   11.7632  -17.9971 H   0  0  0  0  0  0  0  0  0  0  0  0
  -18.9894   12.7610  -19.2985 C   0  0  0  0  0  0  0  0  0  0  0  0
  -19.3352   13.7655  -20.1387 C   0  0  0  0  0  0  0  0  0  0  0  0
  -18.7434   13.9569  -21.3931 C   0  0  0  0  0  0  0  0  0  0  0  0
  -17.7610   13.1075  -21.8347 C   0  0  0  0  0  0  0  0  0  0  0  0
  -17.3952   12.0893  -20.9995 C   0  0  0  0  0  0  0  0  0  0  0  0
  -16.3751   11.2595  -21.4115 C   0  0  0  0  0  0  0  0  0  0  0  0
  -15.9485   10.2440  -20.5849 C   0  0  0  0  0  0  0  0  0  0  0  0
  -16.5095   10.0346  -19.3595 C   0  0  0  0  0  0  0  0  0  0  0  0
  -17.5499   10.8773  -18.9263 C   0  0  0  0  0  0  0  0  0  0  0  0
  -17.9776   11.8883  -19.7460 C   0  0  0  0  0  0  0  0  0  0  0  0
  -17.2137   13.3474  -23.0952 O   0  0  0  0  0  0  0  0  0  0  0  0
  -16.7030   14.6056  -23.4262 C   0  0  0  0  0  0  0  0  0  0  0  0
  -16.3542   15.5528  -22.4874 C   0  0  0  0  0  0  0  0  0  0  0  0
  -15.8496   16.8024  -22.8308 C   0  0  0  0  0  0  0  0  0  0  0  0
  -15.6884   17.1153  -24.1188 N   0  0  0  0  0  0  0  0  0  0  0  0
  -16.0198   16.2106  -25.0551 C   0  0  0  0  0  0  0  0  0  0  0  0
  -15.9567   16.2677  -26.4094 N   0  0  0  0  0  0  0  0  0  0  0  0
  -16.3943   15.1233  -26.9527 C   0  0  0  0  0  0  0  0  0  0  0  0
  -16.4622   14.8641  -28.1756 O   0  0  0  0  0  0  0  0  0  0  0  0
  -16.7375   14.3331  -25.9149 N   0  0  0  0  0  0  0  0  0  0  0  0
  -17.2609   12.9939  -26.0428 C   0  0  0  0  0  0  0  0  0  0  0  0
  -16.5186   14.9747  -24.7474 C   0  0  0  0  0  0  0  0  0  0  0  0
  -15.6013   17.1245  -26.9240 H   0  0  0  0  0  0  0  0  0  0  0  0
  -22.1717   12.6316  -14.8495 N   0  0  0  0  0  0  0  0  0  0  0  0
  -23.0230   11.6805  -14.5563 N   0  0  0  0  0  0  0  0  0  0  0  0
  -22.4868   10.4755  -14.6579 C   0  0  0  0  0  0  0  0  0  0  0  0
  -21.1570   10.7382  -15.0604 C   0  0  0  0  0  0  0  0  0  0  0  0
  -20.9349   12.0757  -15.1869 C   0  0  0  0  0  0  0  0  0  0  0  0
  -22.9613   16.7608  -14.7905 C   0  0  0  0  0  0  0  0  0  0  0  0
  -23.1196   16.0013  -13.6264 C   0  0  0  0  0  0  0  0  0  0  0  0
  -22.8570   14.6266  -13.6569 C   0  0  0  0  0  0  0  0  0  0  0  0
  -22.4464   14.0248  -14.8231 C   0  0  0  0  0  0  0  0  0  0  0  0
  -22.3036   14.8010  -15.9422 C   0  0  0  0  0  0  0  0  0  0  0  0
  -22.5550   16.1626  -15.9435 C   0  0  0  0  0  0  0  0  0  0  0  0
  -22.2646   19.0505  -15.2728 C   0  0  0  0  0  0  0  0  0  0  0  0
  -23.2149   18.1249  -14.7816 O   0  0  0  0  0  0  0  0  0  0  0  0
  -23.0379    9.1136  -14.4347 C   0  0  0  0  0  0  0  0  0  0  0  0
  -23.7424    9.0367  -13.0918 C   0  0  0  0  0  0  0  0  0  0  0  0
  -24.0480    8.7956  -15.5138 C   0  0  0  0  0  0  0  0  0  0  0  0
  -21.9499    8.0675  -14.4061 C   0  0  0  0  0  0  0  0  0  0  0  0
 41 42  1  0  0  0
 42 35  1  0  0  0
 35 36  2  0  0  0
 36 37  1  0  0  0
 37 38  2  0  0  0
 38 39  1  0  0  0
 39 40  2  0  0  0
 38 30  1  0  0  0
 30 31  1  0  0  0
 31 32  2  0  0  0
 32 33  1  0  0  0
 33 34  2  0  0  0
 34  1  1  0  0  0
  1  2  1  0  0  0
  2  3  2  0  0  0
  2  4  1  0  0  0
  4  7  1  0  0  0
  7  8  2  0  0  0
  8  9  1  0  0  0
  9 10  2  0  0  0
 10 17  1  0  0  0
 17 18  1  0  0  0
 18 19  2  0  0  0
 19 20  1  0  0  0
 20 21  2  0  0  0
 21 22  1  0  0  0
 22 23  1  0  0  0
 23 24  1  0  0  0
 24 25  2  0  0  0
 24 26  1  0  0  0
 26 27  1  0  0  0
 26 28  1  0  0  0
 10 11  1  0  0  0
 11 12  2  0  0  0
 12 13  1  0  0  0
 13 14  2  0  0  0
 14 15  1  0  0  0
 15 16  2  0  0  0
 32 43  1  0  0  0
 43 44  1  0  0  0
 43 45  1  0  0  0
 43 46  1  0  0  0
 40 35  1  0  0  0
 34 30  1  0  0  0
 16  7  1  0  0  0
 28 18  1  0  0  0
 16 11  1  0  0  0
 28 22  2  0  0  0
  1  5  1  0  0  0
  4  6  1  0  0  0
 23 29  1  0  0  0
M  END
> <minimizedAffinity>
-10.30039

> <CNNscore>
0.0551491454

> <CNNaffinity>
6.8730115891

> <CNN_VS>
0.3790407181

> <CNNaffinity_variance>
0.2224556506

$$$$
[H]c1nc2c(c(Oc3c([H])c([H])c(N([H])C(=O)N([H])c4c([H])c(C(C([H])([H])[H])(C([H])([H])[H])C([H])([H])[H])nn4-c4c([H])c([H])c(OC([H])([H])[H])c([H])c4[H])c4c([H])c([H])c([H])c([H])c34)c1[H])n(C([H])([H])[H])c(=O)n2[H]


 46 51  0  0  0  0  0  0  0  0999 V2000
  -20.0989    9.3159  -16.0514 N   0  0  0  0  0  0  0  0  0  0  0  0
  -19.4399    9.9696  -17.0871 C   0  0  0  0  0  0  0  0  0  0  0  0
  -18.6322    9.2571  -17.8301 O   0  0  0  0  0  0  0  0  0  0  0  0
  -19.5110   11.3197  -17.4800 N   0  0  0  0  0  0  0  0  0  0  0  0
  -19.8553    8.2512  -16.0022 H   0  0  0  0  0  0  0  0  0  0  0  0
  -20.1825   11.8718  -16.8907 H   0  0  0  0  0  0  0  0  0  0  0  0
  -18.7916   11.9137  -18.5222 C   0  0  0  0  0  0  0  0  0  0  0  0
  -17.5775   11.5210  -18.9763 C   0  0  0  0  0  0  0  0  0  0  0  0
  -16.8686   12.2082  -19.9691 C   0  0  0  0  0  0  0  0  0  0  0  0
  -17.3914   13.3420  -20.5372 C   0  0  0  0  0  0  0  0  0  0  0  0
  -18.6177   13.7526  -20.0951 C   0  0  0  0  0  0  0  0  0  0  0  0
  -19.1747   14.8621  -20.6934 C   0  0  0  0  0  0  0  0  0  0  0  0
  -20.4254   15.2883  -20.3054 C   0  0  0  0  0  0  0  0  0  0  0  0
  -21.1357   14.6384  -19.3394 C   0  0  0  0  0  0  0  0  0  0  0  0
  -20.5789   13.5024  -18.7231 C   0  0  0  0  0  0  0  0  0  0  0  0
  -19.3346   13.0756  -19.1059 C   0  0  0  0  0  0  0  0  0  0  0  0
  -16.6353   13.9848  -21.5176 O   0  0  0  0  0  0  0  0  0  0  0  0
  -16.9454   13.8370  -22.8724 C   0  0  0  0  0  0  0  0  0  0  0  0
  -17.2055   12.6182  -23.4616 C   0  0  0  0  0  0  0  0  0  0  0  0
  -17.5102   12.4850  -24.8121 C   0  0  0  0  0  0  0  0  0  0  0  0
  -17.5582   13.5722  -25.5857 N   0  0  0  0  0  0  0  0  0  0  0  0
  -17.3095   14.7731  -25.0374 C   0  0  0  0  0  0  0  0  0  0  0  0
  -17.2932   16.0149  -25.5844 N   0  0  0  0  0  0  0  0  0  0  0  0
  -16.9937   16.9364  -24.6584 C   0  0  0  0  0  0  0  0  0  0  0  0
  -16.8995   18.1705  -24.8471 O   0  0  0  0  0  0  0  0  0  0  0  0
  -16.8200   16.2557  -23.5071 N   0  0  0  0  0  0  0  0  0  0  0  0
  -16.4849   16.8607  -22.2400 C   0  0  0  0  0  0  0  0  0  0  0  0
  -17.0068   14.9346  -23.7133 C   0  0  0  0  0  0  0  0  0  0  0  0
  -17.4969   16.1838  -26.6116 H   0  0  0  0  0  0  0  0  0  0  0  0
  -21.4201    8.9649  -14.0294 N   0  0  0  0  0  0  0  0  0  0  0  0
  -22.1486    9.6756  -13.2051 N   0  0  0  0  0  0  0  0  0  0  0  0
  -22.2211   10.9466  -13.5646 C   0  0  0  0  0  0  0  0  0  0  0  0
  -21.4427   11.0016  -14.7437 C   0  0  0  0  0  0  0  0  0  0  0  0
  -20.9320    9.7784  -15.0553 C   0  0  0  0  0  0  0  0  0  0  0  0
  -20.6312    4.8485  -13.6973 C   0  0  0  0  0  0  0  0  0  0  0  0
  -21.7272    5.2930  -14.4443 C   0  0  0  0  0  0  0  0  0  0  0  0
  -21.9832    6.6655  -14.5466 C   0  0  0  0  0  0  0  0  0  0  0  0
  -21.1639    7.5725  -13.9168 C   0  0  0  0  0  0  0  0  0  0  0  0
  -20.1013    7.0993  -13.1941 C   0  0  0  0  0  0  0  0  0  0  0  0
  -19.8218    5.7483  -13.0748 C   0  0  0  0  0  0  0  0  0  0  0  0
  -19.1384    3.0333  -13.0360 C   0  0  0  0  0  0  0  0  0  0  0  0
  -20.3588    3.4928  -13.5843 O   0  0  0  0  0  0  0  0  0  0  0  0
  -22.9116   12.1177  -12.9646 C   0  0  0  0  0  0  0  0  0  0  0  0
  -22.4330   12.3480  -11.5420 C   0  0  0  0  0  0  0  0  0  0  0  0
  -22.5968   13.3565  -13.7722 C   0  0  0  0  0  0  0  0  0  0  0  0
  -24.4041   11.9064  -12.8836 C   0  0  0  0  0  0  0  0  0  0  0  0
 41 42  1  0  0  0
 42 35  1  0  0  0
 35 36  2  0  0  0
 36 37  1  0  0  0
 37 38  2  0  0  0
 38 39  1  0  0  0
 39 40  2  0  0  0
 38 30  1  0  0  0
 30 31  1  0  0  0
 31 32  2  0  0  0
 32 33  1  0  0  0
 33 34  2  0  0  0
 34  1  1  0  0  0
  1  2  1  0  0  0
  2  3  2  0  0  0
  2  4  1  0  0  0
  4  7  1  0  0  0
  7  8  2  0  0  0
  8  9  1  0  0  0
  9 10  2  0  0  0
 10 17  1  0  0  0
 17 18  1  0  0  0
 18 19  2  0  0  0
 19 20  1  0  0  0
 20 21  2  0  0  0
 21 22  1  0  0  0
 22 23  1  0  0  0
 23 24  1  0  0  0
 24 25  2  0  0  0
 24 26  1  0  0  0
 26 27  1  0  0  0
 26 28  1  0  0  0
 10 11  1  0  0  0
 11 12  2  0  0  0
 12 13  1  0  0  0
 13 14  2  0  0  0
 14 15  1  0  0  0
 15 16  2  0  0  0
 32 43  1  0  0  0
 43 44  1  0  0  0
 43 45  1  0  0  0
 43 46  1  0  0  0
 40 35  1  0  0  0
 34 30  1  0  0  0
 16  7  1  0  0  0
 28 18  1  0  0  0
 16 11  1  0  0  0
 28 22  2  0  0  0
  1  5  1  0  0  0
  4  6  1  0  0  0
 23 29  1  0  0  0
M  END
> <minimizedAffinity>
-8.30737

> <CNNscore>
0.0477785431

> <CNNaffinity>
6.8009958267

> <CNN_VS>
0.3249416649

> <CNNaffinity_variance>
0.2394908369

$$$$
[H]c1nc2c(c(Oc3c([H])c([H])c(N([H])C(=O)N([H])c4c([H])c(C(C([H])([H])[H])(C([H])([H])[H])C([H])([H])[H])nn4-c4c([H])c([H])c(OC([H])([H])[H])c([H])c4[H])c4c([H])c([H])c([H])c([H])c34)c1[H])n(C([H])([H])[H])c(=O)n2[H]


 46 51  0  0  0  0  0  0  0  0999 V2000
  -18.3502   13.4416  -21.0852 N   0  0  0  0  0  0  0  0  0  0  0  0
  -18.3470   12.4101  -20.1523 C   0  0  0  0  0  0  0  0  0  0  0  0
  -17.6908   11.3213  -20.4622 O   0  0  0  0  0  0  0  0  0  0  0  0
  -18.9527   12.3517  -18.8827 N   0  0  0  0  0  0  0  0  0  0  0  0
  -17.7715   13.2015  -21.9812 H   0  0  0  0  0  0  0  0  0  0  0  0
  -19.4531   13.2421  -18.6382 H   0  0  0  0  0  0  0  0  0  0  0  0
  -18.9283   11.2610  -18.0073 C   0  0  0  0  0  0  0  0  0  0  0  0
  -18.2110   10.1240  -18.1720 C   0  0  0  0  0  0  0  0  0  0  0  0
  -18.2925    9.0304  -17.3015 C   0  0  0  0  0  0  0  0  0  0  0  0
  -19.1291    9.0681  -16.2151 C   0  0  0  0  0  0  0  0  0  0  0  0
  -19.8589   10.2086  -16.0293 C   0  0  0  0  0  0  0  0  0  0  0  0
  -20.6655   10.2771  -14.9141 C   0  0  0  0  0  0  0  0  0  0  0  0
  -21.3891   11.4225  -14.6674 C   0  0  0  0  0  0  0  0  0  0  0  0
  -21.3294   12.5007  -15.5004 C   0  0  0  0  0  0  0  0  0  0  0  0
  -20.5070   12.4440  -16.6409 C   0  0  0  0  0  0  0  0  0  0  0  0
  -19.7860   11.3061  -16.8902 C   0  0  0  0  0  0  0  0  0  0  0  0
  -19.1698    7.9456  -15.3878 O   0  0  0  0  0  0  0  0  0  0  0  0
  -20.3662    7.2544  -15.1774 C   0  0  0  0  0  0  0  0  0  0  0  0
  -21.1638    6.7910  -16.2018 C   0  0  0  0  0  0  0  0  0  0  0  0
  -22.3538    6.1068  -15.9783 C   0  0  0  0  0  0  0  0  0  0  0  0
  -22.7562    5.8790  -14.7257 N   0  0  0  0  0  0  0  0  0  0  0  0
  -21.9977    6.3191  -13.7079 C   0  0  0  0  0  0  0  0  0  0  0  0
  -22.1682    6.2238  -12.3651 N   0  0  0  0  0  0  0  0  0  0  0  0
  -21.1530    6.8104  -11.7158 C   0  0  0  0  0  0  0  0  0  0  0  0
  -21.0187    6.8922  -10.4738 O   0  0  0  0  0  0  0  0  0  0  0  0
  -20.3293    7.2819  -12.6741 N   0  0  0  0  0  0  0  0  0  0  0  0
  -19.0966    7.9889  -12.4200 C   0  0  0  0  0  0  0  0  0  0  0  0
  -20.8237    6.9950  -13.8972 C   0  0  0  0  0  0  0  0  0  0  0  0
  -23.0081    5.7402  -11.9339 H   0  0  0  0  0  0  0  0  0  0  0  0
  -18.7692   15.6264  -22.0892 N   0  0  0  0  0  0  0  0  0  0  0  0
  -19.5500   16.6584  -21.8877 N   0  0  0  0  0  0  0  0  0  0  0  0
  -20.3271   16.5031  -20.8286 C   0  0  0  0  0  0  0  0  0  0  0  0
  -19.9681   15.2258  -20.3396 C   0  0  0  0  0  0  0  0  0  0  0  0
  -18.9980   14.6580  -21.1082 C   0  0  0  0  0  0  0  0  0  0  0  0
  -15.9678   15.2237  -25.1984 C   0  0  0  0  0  0  0  0  0  0  0  0
  -15.6117   15.8818  -24.0165 C   0  0  0  0  0  0  0  0  0  0  0  0
  -16.5524   16.0133  -22.9881 C   0  0  0  0  0  0  0  0  0  0  0  0
  -17.8192   15.4999  -23.1373 C   0  0  0  0  0  0  0  0  0  0  0  0
  -18.1308   14.8630  -24.3089 C   0  0  0  0  0  0  0  0  0  0  0  0
  -17.2224   14.7165  -25.3436 C   0  0  0  0  0  0  0  0  0  0  0  0
  -15.3522   15.5079  -27.5438 C   0  0  0  0  0  0  0  0  0  0  0  0
  -15.0502   15.0812  -26.2293 O   0  0  0  0  0  0  0  0  0  0  0  0
  -21.3580   17.3751  -20.2081 C   0  0  0  0  0  0  0  0  0  0  0  0
  -22.1608   16.6016  -19.1770 C   0  0  0  0  0  0  0  0  0  0  0  0
  -20.6835   18.5321  -19.5064 C   0  0  0  0  0  0  0  0  0  0  0  0
  -22.3493   17.8823  -21.2274 C   0  0  0  0  0  0  0  0  0  0  0  0
 41 42  1  0  0  0
 42 35  1  0  0  0
 35 36  2  0  0  0
 36 37  1  0  0  0
 37 38  2  0  0  0
 38 39  1  0  0  0
 39 40  2  0  0  0
 38 30  1  0  0  0
 30 31  1  0  0  0
 31 32  2  0  0  0
 32 33  1  0  0  0
 33 34  2  0  0  0
 34  1  1  0  0  0
  1  2  1  0  0  0
  2  3  2  0  0  0
  2  4  1  0  0  0
  4  7  1  0  0  0
  7  8  2  0  0  0
  8  9  1  0  0  0
  9 10  2  0  0  0
 10 17  1  0  0  0
 17 18  1  0  0  0
 18 19  2  0  0  0
 19 20  1  0  0  0
 20 21  2  0  0  0
 21 22  1  0  0  0
 22 23  1  0  0  0
 23 24  1  0  0  0
 24 25  2  0  0  0
 24 26  1  0  0  0
 26 27  1  0  0  0
 26 28  1  0  0  0
 10 11  1  0  0  0
 11 12  2  0  0  0
 12 13  1  0  0  0
 13 14  2  0  0  0
 14 15  1  0  0  0
 15 16  2  0  0  0
 32 43  1  0  0  0
 43 44  1  0  0  0
 43 45  1  0  0  0
 43 46  1  0  0  0
 40 35  1  0  0  0
 34 30  1  0  0  0
 16  7  1  0  0  0
 28 18  1  0  0  0
 16 11  1  0  0  0
 28 22  2  0  0  0
  1  5  1  0  0  0
  4  6  1  0  0  0
 23 29  1  0  0  0
M  END
> <minimizedAffinity>
-9.48839

> <CNNscore>
0.0440331660

> <CNNaffinity>
6.8709907532

> <CNN_VS>
0.3025514781

> <CNNaffinity_variance>
0.1562301964

$$$$
[H]c1nc2c(c(Oc3c([H])c([H])c(N([H])C(=O)N([H])c4c([H])c(C(C([H])([H])[H])(C([H])([H])[H])C([H])([H])[H])nn4-c4c([H])c([H])c(OC([H])([H])[H])c([H])c4[H])c4c([H])c([H])c([H])c([H])c34)c1[H])n(C([H])([H])[H])c(=O)n2[H]


 46 51  0  0  0  0  0  0  0  0999 V2000
  -20.0414    9.0820  -15.5898 N   0  0  0  0  0  0  0  0  0  0  0  0
  -19.4056    9.8365  -16.5699 C   0  0  0  0  0  0  0  0  0  0  0  0
  -18.2348    9.4225  -16.9821 O   0  0  0  0  0  0  0  0  0  0  0  0
  -19.8387   11.0107  -17.2149 N   0  0  0  0  0  0  0  0  0  0  0  0
  -19.4627    8.2034  -15.2924 H   0  0  0  0  0  0  0  0  0  0  0  0
  -20.7905   11.3153  -16.8920 H   0  0  0  0  0  0  0  0  0  0  0  0
  -19.1259   11.7330  -18.1775 C   0  0  0  0  0  0  0  0  0  0  0  0
  -17.9400   11.3746  -18.7250 C   0  0  0  0  0  0  0  0  0  0  0  0
  -17.2329   12.1818  -19.6243 C   0  0  0  0  0  0  0  0  0  0  0  0
  -17.7280   13.4057  -19.9966 C   0  0  0  0  0  0  0  0  0  0  0  0
  -18.9257   13.7841  -19.4578 C   0  0  0  0  0  0  0  0  0  0  0  0
  -19.4567   14.9896  -19.8625 C   0  0  0  0  0  0  0  0  0  0  0  0
  -20.6797   15.3924  -19.3741 C   0  0  0  0  0  0  0  0  0  0  0  0
  -21.3876   14.6262  -18.4955 C   0  0  0  0  0  0  0  0  0  0  0  0
  -20.8573   13.3917  -18.0772 C   0  0  0  0  0  0  0  0  0  0  0  0
  -19.6406   12.9877  -18.5603 C   0  0  0  0  0  0  0  0  0  0  0  0
  -16.9750   14.1656  -20.8919 O   0  0  0  0  0  0  0  0  0  0  0  0
  -17.1484   14.0259  -22.2717 C   0  0  0  0  0  0  0  0  0  0  0  0
  -17.1596   12.8065  -22.9145 C   0  0  0  0  0  0  0  0  0  0  0  0
  -17.3304   12.6819  -24.2891 C   0  0  0  0  0  0  0  0  0  0  0  0
  -17.4927   13.7783  -25.0336 N   0  0  0  0  0  0  0  0  0  0  0  0
  -17.4865   14.9800  -24.4331 C   0  0  0  0  0  0  0  0  0  0  0  0
  -17.6286   16.2299  -24.9421 N   0  0  0  0  0  0  0  0  0  0  0  0
  -17.5571   17.1486  -23.9689 C   0  0  0  0  0  0  0  0  0  0  0  0
  -17.6498   18.3887  -24.1147 O   0  0  0  0  0  0  0  0  0  0  0  0
  -17.3673   16.4577  -22.8263 N   0  0  0  0  0  0  0  0  0  0  0  0
  -17.2365   17.0559  -21.5190 C   0  0  0  0  0  0  0  0  0  0  0  0
  -17.3201   15.1333  -23.0841 C   0  0  0  0  0  0  0  0  0  0  0  0
  -17.7747   16.4062  -25.9779 H   0  0  0  0  0  0  0  0  0  0  0  0
  -21.2901    9.2372  -13.4984 N   0  0  0  0  0  0  0  0  0  0  0  0
  -22.5122    9.5036  -13.1100 N   0  0  0  0  0  0  0  0  0  0  0  0
  -23.3248    9.7366  -14.1274 C   0  0  0  0  0  0  0  0  0  0  0  0
  -22.4882    9.5928  -15.2583 C   0  0  0  0  0  0  0  0  0  0  0  0
  -21.2140    9.2811  -14.8929 C   0  0  0  0  0  0  0  0  0  0  0  0
  -18.0425    8.3742  -10.9715 C   0  0  0  0  0  0  0  0  0  0  0  0
  -18.5915    7.3684  -11.7738 C   0  0  0  0  0  0  0  0  0  0  0  0
  -19.6746    7.6649  -12.6097 C   0  0  0  0  0  0  0  0  0  0  0  0
  -20.1972    8.9363  -12.6429 C   0  0  0  0  0  0  0  0  0  0  0  0
  -19.6334    9.8940  -11.8427 C   0  0  0  0  0  0  0  0  0  0  0  0
  -18.5617    9.6318  -11.0061 C   0  0  0  0  0  0  0  0  0  0  0  0
  -16.4673    9.0783   -9.2441 C   0  0  0  0  0  0  0  0  0  0  0  0
  -16.9680    8.1019  -10.1370 O   0  0  0  0  0  0  0  0  0  0  0  0
  -24.7700   10.0757  -14.1958 C   0  0  0  0  0  0  0  0  0  0  0  0
  -25.3483    9.6777  -15.5422 C   0  0  0  0  0  0  0  0  0  0  0  0
  -25.5168    9.3181  -13.1215 C   0  0  0  0  0  0  0  0  0  0  0  0
  -25.0038   11.5603  -14.0533 C   0  0  0  0  0  0  0  0  0  0  0  0
 41 42  1  0  0  0
 42 35  1  0  0  0
 35 36  2  0  0  0
 36 37  1  0  0  0
 37 38  2  0  0  0
 38 39  1  0  0  0
 39 40  2  0  0  0
 38 30  1  0  0  0
 30 31  1  0  0  0
 31 32  2  0  0  0
 32 33  1  0  0  0
 33 34  2  0  0  0
 34  1  1  0  0  0
  1  2  1  0  0  0
  2  3  2  0  0  0
  2  4  1  0  0  0
  4  7  1  0  0  0
  7  8  2  0  0  0
  8  9  1  0  0  0
  9 10  2  0  0  0
 10 17  1  0  0  0
 17 18  1  0  0  0
 18 19  2  0  0  0
 19 20  1  0  0  0
 20 21  2  0  0  0
 21 22  1  0  0  0
 22 23  1  0  0  0
 23 24  1  0  0  0
 24 25  2  0  0  0
 24 26  1  0  0  0
 26 27  1  0  0  0
 26 28  1  0  0  0
 10 11  1  0  0  0
 11 12  2  0  0  0
 12 13  1  0  0  0
 13 14  2  0  0  0
 14 15  1  0  0  0
 15 16  2  0  0  0
 32 43  1  0  0  0
 43 44  1  0  0  0
 43 45  1  0  0  0
 43 46  1  0  0  0
 40 35  1  0  0  0
 34 30  1  0  0  0
 16  7  1  0  0  0
 28 18  1  0  0  0
 16 11  1  0  0  0
 28 22  2  0  0  0
  1  5  1  0  0  0
  4  6  1  0  0  0
 23 29  1  0  0  0
M  END
> <minimizedAffinity>
-8.96961

> <CNNscore>
0.0412856340

> <CNNaffinity>
6.8618636131

> <CNN_VS>
0.2832963765

> <CNNaffinity_variance>
0.0623864718

$$$$
[H]c1nc2c(c(Oc3c([H])c([H])c(N([H])C(=O)N([H])c4c([H])c(C(C([H])([H])[H])(C([H])([H])[H])C([H])([H])[H])nn4-c4c([H])c([H])c(OC([H])([H])[H])c([H])c4[H])c4c([H])c([H])c([H])c([H])c34)c1[H])n(C([H])([H])[H])c(=O)n2[H]


 46 51  0  0  0  0  0  0  0  0999 V2000
  -19.8887   15.0361  -16.2542 N   0  0  0  0  0  0  0  0  0  0  0  0
  -19.0809   14.7042  -17.3366 C   0  0  0  0  0  0  0  0  0  0  0  0
  -17.7909   14.8747  -17.1986 O   0  0  0  0  0  0  0  0  0  0  0  0
  -19.4421   14.1910  -18.5969 N   0  0  0  0  0  0  0  0  0  0  0  0
  -19.3159   15.3965  -15.3955 H   0  0  0  0  0  0  0  0  0  0  0  0
  -20.4772   14.0355  -18.6825 H   0  0  0  0  0  0  0  0  0  0  0  0
  -18.5688   13.9063  -19.6519 C   0  0  0  0  0  0  0  0  0  0  0  0
  -18.2360   14.7485  -20.6591 C   0  0  0  0  0  0  0  0  0  0  0  0
  -17.4199   14.3767  -21.7343 C   0  0  0  0  0  0  0  0  0  0  0  0
  -16.9110   13.1053  -21.8131 C   0  0  0  0  0  0  0  0  0  0  0  0
  -17.2323   12.2413  -20.8041 C   0  0  0  0  0  0  0  0  0  0  0  0
  -16.6866   10.9767  -20.8470 C   0  0  0  0  0  0  0  0  0  0  0  0
  -16.9531   10.0861  -19.8310 C   0  0  0  0  0  0  0  0  0  0  0  0
  -17.7464   10.4222  -18.7738 C   0  0  0  0  0  0  0  0  0  0  0  0
  -18.3070   11.7117  -18.7171 C   0  0  0  0  0  0  0  0  0  0  0  0
  -18.0449   12.6004  -19.7263 C   0  0  0  0  0  0  0  0  0  0  0  0
  -16.1086   12.7941  -22.9110 O   0  0  0  0  0  0  0  0  0  0  0  0
  -16.5943   12.9309  -24.2144 C   0  0  0  0  0  0  0  0  0  0  0  0
  -17.6291   12.1740  -24.7208 C   0  0  0  0  0  0  0  0  0  0  0  0
  -18.1009   12.3185  -26.0211 C   0  0  0  0  0  0  0  0  0  0  0  0
  -17.5410   13.2239  -26.8270 N   0  0  0  0  0  0  0  0  0  0  0  0
  -16.5307   13.9758  -26.3593 C   0  0  0  0  0  0  0  0  0  0  0  0
  -15.7980   14.9511  -26.9537 N   0  0  0  0  0  0  0  0  0  0  0  0
  -14.8818   15.4387  -26.1058 C   0  0  0  0  0  0  0  0  0  0  0  0
  -14.0533   16.3442  -26.3532 O   0  0  0  0  0  0  0  0  0  0  0  0
  -15.0462   14.7538  -24.9555 N   0  0  0  0  0  0  0  0  0  0  0  0
  -14.2632   14.9595  -23.7603 C   0  0  0  0  0  0  0  0  0  0  0  0
  -16.0455   13.8555  -25.0860 C   0  0  0  0  0  0  0  0  0  0  0  0
  -15.9650   15.2529  -27.9568 H   0  0  0  0  0  0  0  0  0  0  0  0
  -21.9927   13.9577  -15.6483 N   0  0  0  0  0  0  0  0  0  0  0  0
  -23.2605   14.2741  -15.5605 N   0  0  0  0  0  0  0  0  0  0  0  0
  -23.4936   15.5256  -15.9197 C   0  0  0  0  0  0  0  0  0  0  0  0
  -22.2121   16.0154  -16.2623 C   0  0  0  0  0  0  0  0  0  0  0  0
  -21.2585   15.0567  -16.1018 C   0  0  0  0  0  0  0  0  0  0  0  0
  -20.3524   10.1884  -14.7656 C   0  0  0  0  0  0  0  0  0  0  0  0
  -20.7306   11.0474  -13.7283 C   0  0  0  0  0  0  0  0  0  0  0  0
  -21.2732   12.3015  -14.0324 C   0  0  0  0  0  0  0  0  0  0  0  0
  -21.4335   12.6886  -15.3421 C   0  0  0  0  0  0  0  0  0  0  0  0
  -21.0509   11.8209  -16.3299 C   0  0  0  0  0  0  0  0  0  0  0  0
  -20.5120   10.5741  -16.0611 C   0  0  0  0  0  0  0  0  0  0  0  0
  -19.3829    8.6035  -13.1817 C   0  0  0  0  0  0  0  0  0  0  0  0
  -19.8140    8.9406  -14.4862 O   0  0  0  0  0  0  0  0  0  0  0  0
  -24.7407   16.3309  -15.9877 C   0  0  0  0  0  0  0  0  0  0  0  0
  -25.9500   15.4284  -16.1572 C   0  0  0  0  0  0  0  0  0  0  0  0
  -24.9105   17.1067  -14.7011 C   0  0  0  0  0  0  0  0  0  0  0  0
  -24.7382   17.2675  -17.1717 C   0  0  0  0  0  0  0  0  0  0  0  0
 41 42  1  0  0  0
 42 35  1  0  0  0
 35 36  2  0  0  0
 36 37  1  0  0  0
 37 38  2  0  0  0
 38 39  1  0  0  0
 39 40  2  0  0  0
 38 30  1  0  0  0
 30 31  1  0  0  0
 31 32  2  0  0  0
 32 33  1  0  0  0
 33 34  2  0  0  0
 34  1  1  0  0  0
  1  2  1  0  0  0
  2  3  2  0  0  0
  2  4  1  0  0  0
  4  7  1  0  0  0
  7  8  2  0  0  0
  8  9  1  0  0  0
  9 10  2  0  0  0
 10 17  1  0  0  0
 17 18  1  0  0  0
 18 19  2  0  0  0
 19 20  1  0  0  0
 20 21  2  0  0  0
 21 22  1  0  0  0
 22 23  1  0  0  0
 23 24  1  0  0  0
 24 25  2  0  0  0
 24 26  1  0  0  0
 26 27  1  0  0  0
 26 28  1  0  0  0
 10 11  1  0  0  0
 11 12  2  0  0  0
 12 13  1  0  0  0
 13 14  2  0  0  0
 14 15  1  0  0  0
 15 16  2  0  0  0
 32 43  1  0  0  0
 43 44  1  0  0  0
 43 45  1  0  0  0
 43 46  1  0  0  0
 40 35  1  0  0  0
 34 30  1  0  0  0
 16  7  1  0  0  0
 28 18  1  0  0  0
 16 11  1  0  0  0
 28 22  2  0  0  0
  1  5  1  0  0  0
  4  6  1  0  0  0
 23 29  1  0  0  0
M  END
> <minimizedAffinity>
-9.53486

> <CNNscore>
0.0391289592

> <CNNaffinity>
7.1039285660

> <CNN_VS>
0.2779693305

> <CNNaffinity_variance>
0.1501595080

$$$$
[H]c1nc2c(c(Oc3c([H])c([H])c(N([H])C(=O)N([H])c4c([H])c(C(C([H])([H])[H])(C([H])([H])[H])C([H])([H])[H])nn4-c4c([H])c([H])c(OC([H])([H])[H])c([H])c4[H])c4c([H])c([H])c([H])c([H])c34)c1[H])n(C([H])([H])[H])c(=O)n2[H]


 46 51  0  0  0  0  0  0  0  0999 V2000
  -18.5186   13.9705  -17.4177 N   0  0  0  0  0  0  0  0  0  0  0  0
  -18.9083   14.9866  -18.2837 C   0  0  0  0  0  0  0  0  0  0  0  0
  -18.2283   16.1039  -18.2442 O   0  0  0  0  0  0  0  0  0  0  0  0
  -19.9488   15.0024  -19.2321 N   0  0  0  0  0  0  0  0  0  0  0  0
  -17.6557   14.2461  -16.8055 H   0  0  0  0  0  0  0  0  0  0  0  0
  -20.4679   14.0903  -19.2698 H   0  0  0  0  0  0  0  0  0  0  0  0
  -20.2995   16.0794  -20.0528 C   0  0  0  0  0  0  0  0  0  0  0  0
  -19.6739   16.4449  -21.1971 C   0  0  0  0  0  0  0  0  0  0  0  0
  -20.0203   17.5849  -21.9326 C   0  0  0  0  0  0  0  0  0  0  0  0
  -21.0373   18.4023  -21.5092 C   0  0  0  0  0  0  0  0  0  0  0  0
  -21.6837   18.0484  -20.3582 C   0  0  0  0  0  0  0  0  0  0  0  0
  -22.7391   18.8347  -19.9498 C   0  0  0  0  0  0  0  0  0  0  0  0
  -23.4430   18.4933  -18.8165 C   0  0  0  0  0  0  0  0  0  0  0  0
  -23.1247   17.3898  -18.0810 C   0  0  0  0  0  0  0  0  0  0  0  0
  -22.0509   16.5772  -18.4895 C   0  0  0  0  0  0  0  0  0  0  0  0
  -21.3477   16.9138  -19.6161 C   0  0  0  0  0  0  0  0  0  0  0  0
  -21.3319   19.5256  -22.2822 O   0  0  0  0  0  0  0  0  0  0  0  0
  -22.0592   19.4066  -23.4698 C   0  0  0  0  0  0  0  0  0  0  0  0
  -23.0537   18.4709  -23.6588 C   0  0  0  0  0  0  0  0  0  0  0  0
  -23.7680   18.3615  -24.8471 C   0  0  0  0  0  0  0  0  0  0  0  0
  -23.4935   19.1895  -25.8580 N   0  0  0  0  0  0  0  0  0  0  0  0
  -22.5292   20.1116  -25.7009 C   0  0  0  0  0  0  0  0  0  0  0  0
  -22.0580   21.0598  -26.5496 N   0  0  0  0  0  0  0  0  0  0  0  0
  -21.0801   21.7702  -25.9705 C   0  0  0  0  0  0  0  0  0  0  0  0
  -20.4433   22.7135  -26.4920 O   0  0  0  0  0  0  0  0  0  0  0  0
  -20.9377   21.2553  -24.7320 N   0  0  0  0  0  0  0  0  0  0  0  0
  -19.9879   21.7270  -23.7527 C   0  0  0  0  0  0  0  0  0  0  0  0
  -21.8102   20.2422  -24.5447 C   0  0  0  0  0  0  0  0  0  0  0  0
  -22.4436   21.1843  -27.5300 H   0  0  0  0  0  0  0  0  0  0  0  0
  -18.8113   11.6043  -17.9395 N   0  0  0  0  0  0  0  0  0  0  0  0
  -19.4180   10.5614  -17.4301 N   0  0  0  0  0  0  0  0  0  0  0  0
  -20.0889   10.8567  -16.3290 C   0  0  0  0  0  0  0  0  0  0  0  0
  -19.8546   12.2409  -16.1603 C   0  0  0  0  0  0  0  0  0  0  0  0
  -19.0605   12.7313  -17.1519 C   0  0  0  0  0  0  0  0  0  0  0  0
  -16.5030   11.6123  -21.4536 C   0  0  0  0  0  0  0  0  0  0  0  0
  -16.0476   10.9330  -20.3187 C   0  0  0  0  0  0  0  0  0  0  0  0
  -16.8220   10.9385  -19.1525 C   0  0  0  0  0  0  0  0  0  0  0  0
  -18.0229   11.6076  -19.1208 C   0  0  0  0  0  0  0  0  0  0  0  0
  -18.4350   12.2616  -20.2511 C   0  0  0  0  0  0  0  0  0  0  0  0
  -17.6919   12.2739  -21.4195 C   0  0  0  0  0  0  0  0  0  0  0  0
  -15.6637   12.7748  -23.4297 C   0  0  0  0  0  0  0  0  0  0  0  0
  -15.7517   11.6182  -22.6200 O   0  0  0  0  0  0  0  0  0  0  0  0
  -20.9165   10.0321  -15.4106 C   0  0  0  0  0  0  0  0  0  0  0  0
  -22.3861   10.1358  -15.7784 C   0  0  0  0  0  0  0  0  0  0  0  0
  -20.5048    8.5819  -15.5262 C   0  0  0  0  0  0  0  0  0  0  0  0
  -20.8007   10.5006  -13.9802 C   0  0  0  0  0  0  0  0  0  0  0  0
 41 42  1  0  0  0
 42 35  1  0  0  0
 35 36  2  0  0  0
 36 37  1  0  0  0
 37 38  2  0  0  0
 38 39  1  0  0  0
 39 40  2  0  0  0
 38 30  1  0  0  0
 30 31  1  0  0  0
 31 32  2  0  0  0
 32 33  1  0  0  0
 33 34  2  0  0  0
 34  1  1  0  0  0
  1  2  1  0  0  0
  2  3  2  0  0  0
  2  4  1  0  0  0
  4  7  1  0  0  0
  7  8  2  0  0  0
  8  9  1  0  0  0
  9 10  2  0  0  0
 10 17  1  0  0  0
 17 18  1  0  0  0
 18 19  2  0  0  0
 19 20  1  0  0  0
 20 21  2  0  0  0
 21 22  1  0  0  0
 22 23  1  0  0  0
 23 24  1  0  0  0
 24 25  2  0  0  0
 24 26  1  0  0  0
 26 27  1  0  0  0
 26 28  1  0  0  0
 10 11  1  0  0  0
 11 12  2  0  0  0
 12 13  1  0  0  0
 13 14  2  0  0  0
 14 15  1  0  0  0
 15 16  2  0  0  0
 32 43  1  0  0  0
 43 44  1  0  0  0
 43 45  1  0  0  0
 43 46  1  0  0  0
 40 35  1  0  0  0
 34 30  1  0  0  0
 16  7  1  0  0  0
 28 18  1  0  0  0
 16 11  1  0  0  0
 28 22  2  0  0  0
  1  5  1  0  0  0
  4  6  1  0  0  0
 23 29  1  0  0  0
M  END
> <minimizedAffinity>
-9.46186

> <CNNscore>
0.0351175070

> <CNNaffinity>
6.5611457825

> <CNN_VS>
0.2304110825

> <CNNaffinity_variance>
0.4007301927

$$$$
[H]c1nc2c(c(Oc3c([H])c([H])c(N([H])C(=O)N([H])c4c([H])c(C(C([H])([H])[H])(C([H])([H])[H])C([H])([H])[H])nn4-c4c([H])c([H])c(OC([H])([H])[H])c([H])c4[H])c4c([H])c([H])c([H])c([H])c34)c1[H])n(C([H])([H])[H])c(=O)n2[H]


 46 51  0  0  0  0  0  0  0  0999 V2000
  -17.8170   16.0007  -20.2100 N   0  0  0  0  0  0  0  0  0  0  0  0
  -18.3694   15.1927  -19.2219 C   0  0  0  0  0  0  0  0  0  0  0  0
  -18.2455   15.5902  -17.9814 O   0  0  0  0  0  0  0  0  0  0  0  0
  -19.0694   13.9777  -19.3490 N   0  0  0  0  0  0  0  0  0  0  0  0
  -17.3467   16.9005  -19.8046 H   0  0  0  0  0  0  0  0  0  0  0  0
  -19.1830   13.6858  -20.3514 H   0  0  0  0  0  0  0  0  0  0  0  0
  -19.5740   13.2036  -18.2990 C   0  0  0  0  0  0  0  0  0  0  0  0
  -20.4941   13.6009  -17.3879 C   0  0  0  0  0  0  0  0  0  0  0  0
  -20.8989   12.8076  -16.3075 C   0  0  0  0  0  0  0  0  0  0  0  0
  -20.3618   11.5589  -16.1228 C   0  0  0  0  0  0  0  0  0  0  0  0
  -19.4341   11.1381  -17.0340 C   0  0  0  0  0  0  0  0  0  0  0  0
  -18.9242    9.8664  -16.8867 C   0  0  0  0  0  0  0  0  0  0  0  0
  -18.0155    9.3875  -17.8040 C   0  0  0  0  0  0  0  0  0  0  0  0
  -17.6030   10.1404  -18.8636 C   0  0  0  0  0  0  0  0  0  0  0  0
  -18.1188   11.4396  -19.0265 C   0  0  0  0  0  0  0  0  0  0  0  0
  -19.0225   11.9199  -18.1158 C   0  0  0  0  0  0  0  0  0  0  0  0
  -20.8019   10.8187  -15.0253 O   0  0  0  0  0  0  0  0  0  0  0  0
  -21.7271    9.7833  -15.1847 C   0  0  0  0  0  0  0  0  0  0  0  0
  -22.9593    9.9529  -15.7788 C   0  0  0  0  0  0  0  0  0  0  0  0
  -23.8719    8.9142  -15.9285 C   0  0  0  0  0  0  0  0  0  0  0  0
  -23.5584    7.6944  -15.4852 N   0  0  0  0  0  0  0  0  0  0  0  0
  -22.3636    7.5005  -14.9025 C   0  0  0  0  0  0  0  0  0  0  0  0
  -21.8016    6.3836  -14.3749 N   0  0  0  0  0  0  0  0  0  0  0  0
  -20.5792    6.6502  -13.8944 C   0  0  0  0  0  0  0  0  0  0  0  0
  -19.8063    5.8326  -13.3450 O   0  0  0  0  0  0  0  0  0  0  0  0
  -20.3721    7.9624  -14.1277 N   0  0  0  0  0  0  0  0  0  0  0  0
  -19.1703    8.6783  -13.7717 C   0  0  0  0  0  0  0  0  0  0  0  0
  -21.4467    8.5026  -14.7410 C   0  0  0  0  0  0  0  0  0  0  0  0
  -22.3012    5.4480  -14.3671 H   0  0  0  0  0  0  0  0  0  0  0  0
  -18.2478   16.7252  -22.5005 N   0  0  0  0  0  0  0  0  0  0  0  0
  -17.9455   16.3446  -23.7166 N   0  0  0  0  0  0  0  0  0  0  0  0
  -17.2170   15.2406  -23.7327 C   0  0  0  0  0  0  0  0  0  0  0  0
  -17.0656   14.9245  -22.3628 C   0  0  0  0  0  0  0  0  0  0  0  0
  -17.6996   15.8351  -21.5734 C   0  0  0  0  0  0  0  0  0  0  0  0
  -20.5702   20.0866  -21.5083 C   0  0  0  0  0  0  0  0  0  0  0  0
  -19.1851   20.2125  -21.6581 C   0  0  0  0  0  0  0  0  0  0  0  0
  -18.4202   19.0868  -21.9858 C   0  0  0  0  0  0  0  0  0  0  0  0
  -19.0247   17.8641  -22.1591 C   0  0  0  0  0  0  0  0  0  0  0  0
  -20.3826   17.7802  -22.0034 C   0  0  0  0  0  0  0  0  0  0  0  0
  -21.1662   18.8751  -21.6802 C   0  0  0  0  0  0  0  0  0  0  0  0
  -22.3019   21.1344  -20.1428 C   0  0  0  0  0  0  0  0  0  0  0  0
  -21.3471   21.1899  -21.1852 O   0  0  0  0  0  0  0  0  0  0  0  0
  -16.6403   14.4389  -24.8431 C   0  0  0  0  0  0  0  0  0  0  0  0
  -16.4339   15.3036  -26.0741 C   0  0  0  0  0  0  0  0  0  0  0  0
  -15.2952   13.8909  -24.4234 C   0  0  0  0  0  0  0  0  0  0  0  0
  -17.5602   13.3168  -25.2595 C   0  0  0  0  0  0  0  0  0  0  0  0
 41 42  1  0  0  0
 42 35  1  0  0  0
 35 36  2  0  0  0
 36 37  1  0  0  0
 37 38  2  0  0  0
 38 39  1  0  0  0
 39 40  2  0  0  0
 38 30  1  0  0  0
 30 31  1  0  0  0
 31 32  2  0  0  0
 32 33  1  0  0  0
 33 34  2  0  0  0
 34  1  1  0  0  0
  1  2  1  0  0  0
  2  3  2  0  0  0
  2  4  1  0  0  0
  4  7  1  0  0  0
  7  8  2  0  0  0
  8  9  1  0  0  0
  9 10  2  0  0  0
 10 17  1  0  0  0
 17 18  1  0  0  0
 18 19  2  0  0  0
 19 20  1  0  0  0
 20 21  2  0  0  0
 21 22  1  0  0  0
 22 23  1  0  0  0
 23 24  1  0  0  0
 24 25  2  0  0  0
 24 26  1  0  0  0
 26 27  1  0  0  0
 26 28  1  0  0  0
 10 11  1  0  0  0
 11 12  2  0  0  0
 12 13  1  0  0  0
 13 14  2  0  0  0
 14 15  1  0  0  0
 15 16  2  0  0  0
 32 43  1  0  0  0
 43 44  1  0  0  0
 43 45  1  0  0  0
 43 46  1  0  0  0
 40 35  1  0  0  0
 34 30  1  0  0  0
 16  7  1  0  0  0
 28 18  1  0  0  0
 16 11  1  0  0  0
 28 22  2  0  0  0
  1  5  1  0  0  0
  4  6  1  0  0  0
 23 29  1  0  0  0
M  END
> <minimizedAffinity>
-9.36687

> <CNNscore>
0.0335448906

> <CNNaffinity>
6.7500557899

> <CNN_VS>
0.2264298797

> <CNNaffinity_variance>
0.2297251225

$$$$
[H]OC([H])([H])c1c([H])c([H])c(-n2nc(C(C([H])([H])[H])(C([H])([H])[H])C([H])([H])[H])c([H])c2N([H])C(=O)N([H])c2c([H])c([H])c(Oc3c([H])c([H])nc4c3nc([H])c(=O)n4[H])c3c([H])c([H])c([H])c([H])c23)c([H])c1[H]


 47 52  0  0  0  0  0  0  0  0999 V2000
  -20.8279   14.6139  -17.0381 N   0  0  0  0  0  0  0  0  0  0  0  0
  -20.6124   14.2627  -18.3762 C   0  0  0  0  0  0  0  0  0  0  0  0
  -21.4941   14.0122  -19.1853 O   0  0  0  0  0  0  0  0  0  0  0  0
  -19.2164   14.2145  -18.7626 N   0  0  0  0  0  0  0  0  0  0  0  0
  -19.8587   14.7994  -16.4791 H   0  0  0  0  0  0  0  0  0  0  0  0
  -18.5712   14.4485  -17.9461 H   0  0  0  0  0  0  0  0  0  0  0  0
  -18.6593   13.9122  -19.9811 C   0  0  0  0  0  0  0  0  0  0  0  0
  -18.7905   14.6917  -21.1205 C   0  0  0  0  0  0  0  0  0  0  0  0
  -18.2086   14.3646  -22.3255 C   0  0  0  0  0  0  0  0  0  0  0  0
  -17.4496   13.2142  -22.4499 C   0  0  0  0  0  0  0  0  0  0  0  0
  -17.2950   12.4075  -21.3483 C   0  0  0  0  0  0  0  0  0  0  0  0
  -16.5734   11.2467  -21.4946 C   0  0  0  0  0  0  0  0  0  0  0  0
  -16.4149   10.3893  -20.4365 C   0  0  0  0  0  0  0  0  0  0  0  0
  -16.9894   10.7225  -19.2505 C   0  0  0  0  0  0  0  0  0  0  0  0
  -17.7227   11.8953  -19.0937 C   0  0  0  0  0  0  0  0  0  0  0  0
  -17.8919   12.7534  -20.1316 C   0  0  0  0  0  0  0  0  0  0  0  0
  -16.8715   12.9133  -23.6969 O   0  0  0  0  0  0  0  0  0  0  0  0
  -15.8080   13.6706  -24.1643 C   0  0  0  0  0  0  0  0  0  0  0  0
  -14.6909   13.8787  -23.3956 C   0  0  0  0  0  0  0  0  0  0  0  0
  -13.6513   14.6269  -23.8771 C   0  0  0  0  0  0  0  0  0  0  0  0
  -13.7533   15.1581  -25.1294 N   0  0  0  0  0  0  0  0  0  0  0  0
  -14.8126   14.9861  -25.9139 C   0  0  0  0  0  0  0  0  0  0  0  0
  -14.8649   15.5192  -27.1358 N   0  0  0  0  0  0  0  0  0  0  0  0
  -15.9778   15.3001  -27.8956 C   0  0  0  0  0  0  0  0  0  0  0  0
  -15.9876   15.8245  -29.0390 O   0  0  0  0  0  0  0  0  0  0  0  0
  -17.0191   14.5453  -27.4078 C   0  0  0  0  0  0  0  0  0  0  0  0
  -16.9705   14.0100  -26.1828 N   0  0  0  0  0  0  0  0  0  0  0  0
  -15.8704   14.2244  -25.4287 C   0  0  0  0  0  0  0  0  0  0  0  0
  -14.0728   16.0868  -27.4933 H   0  0  0  0  0  0  0  0  0  0  0  0
  -23.2308   14.5079  -14.3859 C   0  0  0  0  0  0  0  0  0  0  0  0
  -22.0725   14.0929  -14.9862 C   0  0  0  0  0  0  0  0  0  0  0  0
  -21.9190   14.8197  -16.2080 C   0  0  0  0  0  0  0  0  0  0  0  0
  -22.9646   15.6208  -16.2855 N   0  0  0  0  0  0  0  0  0  0  0  0
  -23.7462   15.4209  -15.1796 N   0  0  0  0  0  0  0  0  0  0  0  0
  -23.4053   16.5973  -17.2295 C   0  0  0  0  0  0  0  0  0  0  0  0
  -22.4812   17.2551  -18.0488 C   0  0  0  0  0  0  0  0  0  0  0  0
  -22.8422   18.2456  -18.9289 C   0  0  0  0  0  0  0  0  0  0  0  0
  -24.1501   18.6482  -19.0569 C   0  0  0  0  0  0  0  0  0  0  0  0
  -25.0781   18.0018  -18.2474 C   0  0  0  0  0  0  0  0  0  0  0  0
  -24.7270   17.0066  -17.3583 C   0  0  0  0  0  0  0  0  0  0  0  0
  -24.5724   19.7110  -19.9972 C   0  0  0  0  0  0  0  0  0  0  0  0
  -25.7962   20.2831  -19.6341 O   0  0  0  0  0  0  0  0  0  0  0  0
  -25.9614   21.1234  -20.1213 H   0  0  0  0  0  0  0  0  0  0  0  0
  -25.1733   13.4685  -13.2838 C   0  0  0  0  0  0  0  0  0  0  0  0
  -23.7717   13.9869  -13.0845 C   0  0  0  0  0  0  0  0  0  0  0  0
  -22.8959   12.8440  -12.5928 C   0  0  0  0  0  0  0  0  0  0  0  0
  -23.8180   15.1334  -12.1179 C   0  0  0  0  0  0  0  0  0  0  0  0
 44 45  1  0  0  0
 45 46  1  0  0  0
 45 47  1  0  0  0
 45 30  1  0  0  0
 30 31  1  0  0  0
 31 32  2  0  0  0
 32  1  1  0  0  0
  1  2  1  0  0  0
  2  3  2  0  0  0
  2  4  1  0  0  0
  4  7  1  0  0  0
  7  8  2  0  0  0
  8  9  1  0  0  0
  9 10  2  0  0  0
 10 17  1  0  0  0
 17 18  1  0  0  0
 18 19  2  0  0  0
 19 20  1  0  0  0
 20 21  2  0  0  0
 21 22  1  0  0  0
 22 23  1  0  0  0
 23 24  1  0  0  0
 24 25  2  0  0  0
 24 26  1  0  0  0
 26 27  2  0  0  0
 27 28  1  0  0  0
 10 11  1  0  0  0
 11 12  2  0  0  0
 12 13  1  0  0  0
 13 14  2  0  0  0
 14 15  1  0  0  0
 15 16  2  0  0  0
 32 33  1  0  0  0
 33 34  1  0  0  0
 33 35  1  0  0  0
 35 36  2  0  0  0
 36 37  1  0  0  0
 37 38  2  0  0  0
 38 41  1  0  0  0
 41 42  1  0  0  0
 38 39  1  0  0  0
 39 40  2  0  0  0
 34 30  2  0  0  0
 40 35  1  0  0  0
 16  7  1  0  0  0
 28 18  1  0  0  0
 16 11  1  0  0  0
 28 22  2  0  0  0
  1  5  1  0  0  0
  4  6  1  0  0  0
 23 29  1  0  0  0
 42 43  1  0  0  0
M  END
> <minimizedAffinity>
-9.33279

> <CNNscore>
0.0867144540

> <CNNaffinity>
6.7289724350

> <CNN_VS>
0.5834991932

> <CNNaffinity_variance>
0.1741279215

$$$$
[H]OC([H])([H])c1c([H])c([H])c(-n2nc(C(C([H])([H])[H])(C([H])([H])[H])C([H])([H])[H])c([H])c2N([H])C(=O)N([H])c2c([H])c([H])c(Oc3c([H])c([H])nc4c3nc([H])c(=O)n4[H])c3c([H])c([H])c([H])c([H])c23)c([H])c1[H]


 47 52  0  0  0  0  0  0  0  0999 V2000
  -19.8105   10.8176  -14.9885 N   0  0  0  0  0  0  0  0  0  0  0  0
  -19.9229   11.7147  -16.0575 C   0  0  0  0  0  0  0  0  0  0  0  0
  -20.6438   12.7022  -16.0703 O   0  0  0  0  0  0  0  0  0  0  0  0
  -19.0928   11.3884  -17.1997 N   0  0  0  0  0  0  0  0  0  0  0  0
  -19.0811    9.9768  -15.2057 H   0  0  0  0  0  0  0  0  0  0  0  0
  -18.5306   10.4963  -17.0387 H   0  0  0  0  0  0  0  0  0  0  0  0
  -18.9594   12.0480  -18.3971 C   0  0  0  0  0  0  0  0  0  0  0  0
  -19.7069   13.1539  -18.7727 C   0  0  0  0  0  0  0  0  0  0  0  0
  -19.5397   13.7993  -19.9783 C   0  0  0  0  0  0  0  0  0  0  0  0
  -18.5937   13.3575  -20.8865 C   0  0  0  0  0  0  0  0  0  0  0  0
  -17.8317   12.2617  -20.5598 C   0  0  0  0  0  0  0  0  0  0  0  0
  -16.9241   11.8072  -21.4868 C   0  0  0  0  0  0  0  0  0  0  0  0
  -16.1605   10.6987  -21.2258 C   0  0  0  0  0  0  0  0  0  0  0  0
  -16.3298   10.0710  -20.0321 C   0  0  0  0  0  0  0  0  0  0  0  0
  -17.2472   10.5236  -19.0881 C   0  0  0  0  0  0  0  0  0  0  0  0
  -18.0131   11.6173  -19.3317 C   0  0  0  0  0  0  0  0  0  0  0  0
  -18.4525   14.0422  -22.1074 O   0  0  0  0  0  0  0  0  0  0  0  0
  -17.5431   15.0838  -22.2125 C   0  0  0  0  0  0  0  0  0  0  0  0
  -17.4234   16.0260  -21.2225 C   0  0  0  0  0  0  0  0  0  0  0  0
  -16.5175   17.0443  -21.3448 C   0  0  0  0  0  0  0  0  0  0  0  0
  -15.7443   17.1001  -22.4672 N   0  0  0  0  0  0  0  0  0  0  0  0
  -15.8208   16.2128  -23.4541 C   0  0  0  0  0  0  0  0  0  0  0  0
  -15.0382   16.3035  -24.5308 N   0  0  0  0  0  0  0  0  0  0  0  0
  -15.1600   15.3568  -25.5069 C   0  0  0  0  0  0  0  0  0  0  0  0
  -14.4065   15.4825  -26.5063 O   0  0  0  0  0  0  0  0  0  0  0  0
  -16.0705   14.3338  -25.3781 C   0  0  0  0  0  0  0  0  0  0  0  0
  -16.8574   14.2403  -24.3003 N   0  0  0  0  0  0  0  0  0  0  0  0
  -16.7390   15.1751  -23.3325 C   0  0  0  0  0  0  0  0  0  0  0  0
  -14.3546   17.0798  -24.6167 H   0  0  0  0  0  0  0  0  0  0  0  0
  -20.2947   10.5233  -11.4532 C   0  0  0  0  0  0  0  0  0  0  0  0
  -19.4971   10.6504  -12.5587 C   0  0  0  0  0  0  0  0  0  0  0  0
  -20.3393   10.6899  -13.7134 C   0  0  0  0  0  0  0  0  0  0  0  0
  -21.5754   10.5892  -13.2626 N   0  0  0  0  0  0  0  0  0  0  0  0
  -21.5318   10.4893  -11.8981 N   0  0  0  0  0  0  0  0  0  0  0  0
  -22.8636   10.5751  -13.8782 C   0  0  0  0  0  0  0  0  0  0  0  0
  -23.8482   11.4848  -13.4770 C   0  0  0  0  0  0  0  0  0  0  0  0
  -25.1217   11.4751  -13.9906 C   0  0  0  0  0  0  0  0  0  0  0  0
  -25.5031   10.5603  -14.9428 C   0  0  0  0  0  0  0  0  0  0  0  0
  -24.5330    9.6503  -15.3495 C   0  0  0  0  0  0  0  0  0  0  0  0
  -23.2509    9.6492  -14.8394 C   0  0  0  0  0  0  0  0  0  0  0  0
  -26.8669   10.5244  -15.5179 C   0  0  0  0  0  0  0  0  0  0  0  0
  -26.9377   11.1778  -16.7528 O   0  0  0  0  0  0  0  0  0  0  0  0
  -27.7734   10.9629  -17.2284 H   0  0  0  0  0  0  0  0  0  0  0  0
  -18.3072   10.5686   -9.9986 C   0  0  0  0  0  0  0  0  0  0  0  0
  -19.8082   10.4327  -10.0346 C   0  0  0  0  0  0  0  0  0  0  0  0
  -20.4184   11.5610   -9.2164 C   0  0  0  0  0  0  0  0  0  0  0  0
  -20.1790    9.0765   -9.5108 C   0  0  0  0  0  0  0  0  0  0  0  0
 44 45  1  0  0  0
 45 46  1  0  0  0
 45 47  1  0  0  0
 45 30  1  0  0  0
 30 31  1  0  0  0
 31 32  2  0  0  0
 32  1  1  0  0  0
  1  2  1  0  0  0
  2  3  2  0  0  0
  2  4  1  0  0  0
  4  7  1  0  0  0
  7  8  2  0  0  0
  8  9  1  0  0  0
  9 10  2  0  0  0
 10 17  1  0  0  0
 17 18  1  0  0  0
 18 19  2  0  0  0
 19 20  1  0  0  0
 20 21  2  0  0  0
 21 22  1  0  0  0
 22 23  1  0  0  0
 23 24  1  0  0  0
 24 25  2  0  0  0
 24 26  1  0  0  0
 26 27  2  0  0  0
 27 28  1  0  0  0
 10 11  1  0  0  0
 11 12  2  0  0  0
 12 13  1  0  0  0
 13 14  2  0  0  0
 14 15  1  0  0  0
 15 16  2  0  0  0
 32 33  1  0  0  0
 33 34  1  0  0  0
 33 35  1  0  0  0
 35 36  2  0  0  0
 36 37  1  0  0  0
 37 38  2  0  0  0
 38 41  1  0  0  0
 41 42  1  0  0  0
 38 39  1  0  0  0
 39 40  2  0  0  0
 34 30  2  0  0  0
 40 35  1  0  0  0
 16  7  1  0  0  0
 28 18  1  0  0  0
 16 11  1  0  0  0
 28 22  2  0  0  0
  1  5  1  0  0  0
  4  6  1  0  0  0
 23 29  1  0  0  0
 42 43  1  0  0  0
M  END
> <minimizedAffinity>
-10.60927

> <CNNscore>
0.0699640661

> <CNNaffinity>
6.5278282166

> <CNN_VS>
0.4567134082

> <CNNaffinity_variance>
0.1999020427

$$$$
[H]OC([H])([H])c1c([H])c([H])c(-n2nc(C(C([H])([H])[H])(C([H])([H])[H])C([H])([H])[H])c([H])c2N([H])C(=O)N([H])c2c([H])c([H])c(Oc3c([H])c([H])nc4c3nc([H])c(=O)n4[H])c3c([H])c([H])c([H])c([H])c23)c([H])c1[H]


 47 52  0  0  0  0  0  0  0  0999 V2000
  -19.8706   16.0892  -20.6555 N   0  0  0  0  0  0  0  0  0  0  0  0
  -20.4054   15.0450  -19.8914 C   0  0  0  0  0  0  0  0  0  0  0  0
  -21.5307   14.5855  -20.0236 O   0  0  0  0  0  0  0  0  0  0  0  0
  -19.5017   14.5156  -18.8897 N   0  0  0  0  0  0  0  0  0  0  0  0
  -18.8085   16.3460  -20.3519 H   0  0  0  0  0  0  0  0  0  0  0  0
  -18.5647   15.0253  -18.8928 H   0  0  0  0  0  0  0  0  0  0  0  0
  -19.7010   13.5017  -17.9848 C   0  0  0  0  0  0  0  0  0  0  0  0
  -20.5057   13.5993  -16.8596 C   0  0  0  0  0  0  0  0  0  0  0  0
  -20.6927   12.5580  -15.9774 C   0  0  0  0  0  0  0  0  0  0  0  0
  -20.0683   11.3406  -16.1848 C   0  0  0  0  0  0  0  0  0  0  0  0
  -19.2573   11.1979  -17.2848 C   0  0  0  0  0  0  0  0  0  0  0  0
  -18.6099    9.9977  -17.4579 C   0  0  0  0  0  0  0  0  0  0  0  0
  -17.7638    9.8117  -18.5207 C   0  0  0  0  0  0  0  0  0  0  0  0
  -17.5887   10.8436  -19.3879 C   0  0  0  0  0  0  0  0  0  0  0  0
  -18.2392   12.0627  -19.2197 C   0  0  0  0  0  0  0  0  0  0  0  0
  -19.0775   12.2644  -18.1715 C   0  0  0  0  0  0  0  0  0  0  0  0
  -20.2834   10.3009  -15.2615 O   0  0  0  0  0  0  0  0  0  0  0  0
  -21.4036    9.4926  -15.3823 C   0  0  0  0  0  0  0  0  0  0  0  0
  -22.6253   10.0163  -15.7219 C   0  0  0  0  0  0  0  0  0  0  0  0
  -23.7177    9.2005  -15.8385 C   0  0  0  0  0  0  0  0  0  0  0  0
  -23.5636    7.8649  -15.6084 N   0  0  0  0  0  0  0  0  0  0  0  0
  -22.4029    7.3078  -15.2775 C   0  0  0  0  0  0  0  0  0  0  0  0
  -22.2981    5.9942  -15.0691 N   0  0  0  0  0  0  0  0  0  0  0  0
  -21.0765    5.4819  -14.7387 C   0  0  0  0  0  0  0  0  0  0  0  0
  -21.0233    4.2399  -14.5466 O   0  0  0  0  0  0  0  0  0  0  0  0
  -19.9810    6.3059  -14.6250 C   0  0  0  0  0  0  0  0  0  0  0  0
  -20.0825    7.6236  -14.8324 N   0  0  0  0  0  0  0  0  0  0  0  0
  -21.2898    8.1336  -15.1601 C   0  0  0  0  0  0  0  0  0  0  0  0
  -23.1317    5.3823  -15.1580 H   0  0  0  0  0  0  0  0  0  0  0  0
  -21.6346   18.3401  -22.8098 C   0  0  0  0  0  0  0  0  0  0  0  0
  -21.4893   17.6560  -21.6328 C   0  0  0  0  0  0  0  0  0  0  0  0
  -20.2854   16.8886  -21.7095 C   0  0  0  0  0  0  0  0  0  0  0  0
  -19.7718   17.1401  -22.8986 N   0  0  0  0  0  0  0  0  0  0  0  0
  -20.5969   18.0168  -23.5501 N   0  0  0  0  0  0  0  0  0  0  0  0
  -18.5969   16.7128  -23.5885 C   0  0  0  0  0  0  0  0  0  0  0  0
  -17.5491   17.6104  -23.8219 C   0  0  0  0  0  0  0  0  0  0  0  0
  -16.4247   17.2704  -24.5333 C   0  0  0  0  0  0  0  0  0  0  0  0
  -16.2636   16.0109  -25.0593 C   0  0  0  0  0  0  0  0  0  0  0  0
  -17.2988   15.1097  -24.8341 C   0  0  0  0  0  0  0  0  0  0  0  0
  -18.4338   15.4404  -24.1226 C   0  0  0  0  0  0  0  0  0  0  0  0
  -15.0633   15.6120  -25.8289 C   0  0  0  0  0  0  0  0  0  0  0  0
  -14.2113   16.6931  -26.0783 O   0  0  0  0  0  0  0  0  0  0  0  0
  -13.3254   16.3918  -26.3869 H   0  0  0  0  0  0  0  0  0  0  0  0
  -22.2627   20.4515  -23.9125 C   0  0  0  0  0  0  0  0  0  0  0  0
  -22.7755   19.2574  -23.1483 C   0  0  0  0  0  0  0  0  0  0  0  0
  -23.7797   18.5172  -24.0193 C   0  0  0  0  0  0  0  0  0  0  0  0
  -23.3747   19.7354  -21.8585 C   0  0  0  0  0  0  0  0  0  0  0  0
 44 45  1  0  0  0
 45 46  1  0  0  0
 45 47  1  0  0  0
 45 30  1  0  0  0
 30 31  1  0  0  0
 31 32  2  0  0  0
 32  1  1  0  0  0
  1  2  1  0  0  0
  2  3  2  0  0  0
  2  4  1  0  0  0
  4  7  1  0  0  0
  7  8  2  0  0  0
  8  9  1  0  0  0
  9 10  2  0  0  0
 10 17  1  0  0  0
 17 18  1  0  0  0
 18 19  2  0  0  0
 19 20  1  0  0  0
 20 21  2  0  0  0
 21 22  1  0  0  0
 22 23  1  0  0  0
 23 24  1  0  0  0
 24 25  2  0  0  0
 24 26  1  0  0  0
 26 27  2  0  0  0
 27 28  1  0  0  0
 10 11  1  0  0  0
 11 12  2  0  0  0
 12 13  1  0  0  0
 13 14  2  0  0  0
 14 15  1  0  0  0
 15 16  2  0  0  0
 32 33  1  0  0  0
 33 34  1  0  0  0
 33 35  1  0  0  0
 35 36  2  0  0  0
 36 37  1  0  0  0
 37 38  2  0  0  0
 38 41  1  0  0  0
 41 42  1  0  0  0
 38 39  1  0  0  0
 39 40  2  0  0  0
 34 30  2  0  0  0
 40 35  1  0  0  0
 16  7  1  0  0  0
 28 18  1  0  0  0
 16 11  1  0  0  0
 28 22  2  0  0  0
  1  5  1  0  0  0
  4  6  1  0  0  0
 23 29  1  0  0  0
 42 43  1  0  0  0
M  END
> <minimizedAffinity>
-10.32378

> <CNNscore>
0.0620253608

> <CNNaffinity>
6.5260038376

> <CNN_VS>
0.4047777355

> <CNNaffinity_variance>
0.4122014046

$$$$
[H]OC([H])([H])c1c([H])c([H])c(-n2nc(C(C([H])([H])[H])(C([H])([H])[H])C([H])([H])[H])c([H])c2N([H])C(=O)N([H])c2c([H])c([H])c(Oc3c([H])c([H])nc4c3nc([H])c(=O)n4[H])c3c([H])c([H])c([H])c([H])c23)c([H])c1[H]


 47 52  0  0  0  0  0  0  0  0999 V2000
  -19.4335    9.8005  -15.4269 N   0  0  0  0  0  0  0  0  0  0  0  0
  -19.7732   10.5792  -16.5398 C   0  0  0  0  0  0  0  0  0  0  0  0
  -20.9097   10.9187  -16.8364 O   0  0  0  0  0  0  0  0  0  0  0  0
  -18.6437   10.9789  -17.3551 N   0  0  0  0  0  0  0  0  0  0  0  0
  -18.3174    9.6119  -15.3567 H   0  0  0  0  0  0  0  0  0  0  0  0
  -17.7240   10.5981  -16.9717 H   0  0  0  0  0  0  0  0  0  0  0  0
  -18.6202   11.7372  -18.5001 C   0  0  0  0  0  0  0  0  0  0  0  0
  -19.4459   12.8254  -18.7391 C   0  0  0  0  0  0  0  0  0  0  0  0
  -19.3885   13.5722  -19.8953 C   0  0  0  0  0  0  0  0  0  0  0  0
  -18.4801   13.2574  -20.8906 C   0  0  0  0  0  0  0  0  0  0  0  0
  -17.6436   12.1841  -20.7003 C   0  0  0  0  0  0  0  0  0  0  0  0
  -16.7740   11.8559  -21.7131 C   0  0  0  0  0  0  0  0  0  0  0  0
  -15.9395   10.7752  -21.5894 C   0  0  0  0  0  0  0  0  0  0  0  0
  -16.0006   10.0468  -20.4433 C   0  0  0  0  0  0  0  0  0  0  0  0
  -16.8788   10.3711  -19.4132 C   0  0  0  0  0  0  0  0  0  0  0  0
  -17.7138   11.4357  -19.5208 C   0  0  0  0  0  0  0  0  0  0  0  0
  -18.4515   14.0432  -22.0574 O   0  0  0  0  0  0  0  0  0  0  0  0
  -17.5535   15.0949  -22.1585 C   0  0  0  0  0  0  0  0  0  0  0  0
  -17.4075   16.0056  -21.1429 C   0  0  0  0  0  0  0  0  0  0  0  0
  -16.5133   17.0346  -21.2618 C   0  0  0  0  0  0  0  0  0  0  0  0
  -15.7783   17.1328  -22.4067 N   0  0  0  0  0  0  0  0  0  0  0  0
  -15.8813   16.2773  -23.4189 C   0  0  0  0  0  0  0  0  0  0  0  0
  -15.1355   16.4089  -24.5173 N   0  0  0  0  0  0  0  0  0  0  0  0
  -15.2831   15.4933  -25.5191 C   0  0  0  0  0  0  0  0  0  0  0  0
  -14.5642   15.6572  -26.5382 O   0  0  0  0  0  0  0  0  0  0  0  0
  -16.1817   14.4594  -25.3937 C   0  0  0  0  0  0  0  0  0  0  0  0
  -16.9317   14.3248  -24.2942 N   0  0  0  0  0  0  0  0  0  0  0  0
  -16.7876   15.2288  -23.3008 C   0  0  0  0  0  0  0  0  0  0  0  0
  -14.4606   17.1931  -24.6004 H   0  0  0  0  0  0  0  0  0  0  0  0
  -20.4928    7.6433  -12.7729 C   0  0  0  0  0  0  0  0  0  0  0  0
  -19.6492    7.9746  -13.7991 C   0  0  0  0  0  0  0  0  0  0  0  0
  -20.0978    9.2093  -14.3634 C   0  0  0  0  0  0  0  0  0  0  0  0
  -21.1635    9.5583  -13.6679 N   0  0  0  0  0  0  0  0  0  0  0  0
  -21.3889    8.6039  -12.7129 N   0  0  0  0  0  0  0  0  0  0  0  0
  -22.0615   10.6678  -13.7079 C   0  0  0  0  0  0  0  0  0  0  0  0
  -23.4097   10.4742  -14.0283 C   0  0  0  0  0  0  0  0  0  0  0  0
  -24.3024   11.5115  -14.1418 C   0  0  0  0  0  0  0  0  0  0  0  0
  -23.9151   12.8149  -13.9407 C   0  0  0  0  0  0  0  0  0  0  0  0
  -22.5770   13.0202  -13.6219 C   0  0  0  0  0  0  0  0  0  0  0  0
  -21.6706   11.9861  -13.5068 C   0  0  0  0  0  0  0  0  0  0  0  0
  -24.8527   13.9552  -14.0534 C   0  0  0  0  0  0  0  0  0  0  0  0
  -24.9244   14.4542  -15.3583 O   0  0  0  0  0  0  0  0  0  0  0  0
  -25.6988   15.0522  -15.4749 H   0  0  0  0  0  0  0  0  0  0  0  0
  -19.1231    6.4686  -11.0960 C   0  0  0  0  0  0  0  0  0  0  0  0
  -20.3841    6.4111  -11.9201 C   0  0  0  0  0  0  0  0  0  0  0  0
  -21.5774    6.3391  -10.9789 C   0  0  0  0  0  0  0  0  0  0  0  0
  -20.3029    5.2269  -12.8378 C   0  0  0  0  0  0  0  0  0  0  0  0
 44 45  1  0  0  0
 45 46  1  0  0  0
 45 47  1  0  0  0
 45 30  1  0  0  0
 30 31  1  0  0  0
 31 32  2  0  0  0
 32  1  1  0  0  0
  1  2  1  0  0  0
  2  3  2  0  0  0
  2  4  1  0  0  0
  4  7  1  0  0  0
  7  8  2  0  0  0
  8  9  1  0  0  0
  9 10  2  0  0  0
 10 17  1  0  0  0
 17 18  1  0  0  0
 18 19  2  0  0  0
 19 20  1  0  0  0
 20 21  2  0  0  0
 21 22  1  0  0  0
 22 23  1  0  0  0
 23 24  1  0  0  0
 24 25  2  0  0  0
 24 26  1  0  0  0
 26 27  2  0  0  0
 27 28  1  0  0  0
 10 11  1  0  0  0
 11 12  2  0  0  0
 12 13  1  0  0  0
 13 14  2  0  0  0
 14 15  1  0  0  0
 15 16  2  0  0  0
 32 33  1  0  0  0
 33 34  1  0  0  0
 33 35  1  0  0  0
 35 36  2  0  0  0
 36 37  1  0  0  0
 37 38  2  0  0  0
 38 41  1  0  0  0
 41 42  1  0  0  0
 38 39  1  0  0  0
 39 40  2  0  0  0
 34 30  2  0  0  0
 40 35  1  0  0  0
 16  7  1  0  0  0
 28 18  1  0  0  0
 16 11  1  0  0  0
 28 22  2  0  0  0
  1  5  1  0  0  0
  4  6  1  0  0  0
 23 29  1  0  0  0
 42 43  1  0  0  0
M  END
> <minimizedAffinity>
-9.48754

> <CNNscore>
0.0619971789

> <CNNaffinity>
6.6122398376

> <CNN_VS>
0.4099402130

> <CNNaffinity_variance>
0.1661961973

$$$$
[H]OC([H])([H])c1c([H])c([H])c(-n2nc(C(C([H])([H])[H])(C([H])([H])[H])C([H])([H])[H])c([H])c2N([H])C(=O)N([H])c2c([H])c([H])c(Oc3c([H])c([H])nc4c3nc([H])c(=O)n4[H])c3c([H])c([H])c([H])c([H])c23)c([H])c1[H]


 47 52  0  0  0  0  0  0  0  0999 V2000
  -20.4186   10.8855  -14.5339 N   0  0  0  0  0  0  0  0  0  0  0  0
  -20.6050   11.4503  -15.8014 C   0  0  0  0  0  0  0  0  0  0  0  0
  -21.6910   11.6486  -16.3269 O   0  0  0  0  0  0  0  0  0  0  0  0
  -19.3761   11.8041  -16.4832 N   0  0  0  0  0  0  0  0  0  0  0  0
  -19.3222   10.7985  -14.2573 H   0  0  0  0  0  0  0  0  0  0  0  0
  -18.5161   11.5617  -15.9006 H   0  0  0  0  0  0  0  0  0  0  0  0
  -19.1987   12.3723  -17.7210 C   0  0  0  0  0  0  0  0  0  0  0  0
  -19.7831   13.5611  -18.1312 C   0  0  0  0  0  0  0  0  0  0  0  0
  -19.5748   14.1096  -19.3777 C   0  0  0  0  0  0  0  0  0  0  0  0
  -18.7519   13.4790  -20.2942 C   0  0  0  0  0  0  0  0  0  0  0  0
  -18.1538   12.2955  -19.9339 C   0  0  0  0  0  0  0  0  0  0  0  0
  -17.3717   11.6573  -20.8670 C   0  0  0  0  0  0  0  0  0  0  0  0
  -16.7772   10.4577  -20.5717 C   0  0  0  0  0  0  0  0  0  0  0  0
  -16.9853    9.9264  -19.3380 C   0  0  0  0  0  0  0  0  0  0  0  0
  -17.7767   10.5650  -18.3875 C   0  0  0  0  0  0  0  0  0  0  0  0
  -18.3750   11.7513  -18.6646 C   0  0  0  0  0  0  0  0  0  0  0  0
  -18.5638   14.0696  -21.5573 O   0  0  0  0  0  0  0  0  0  0  0  0
  -17.6271   15.0801  -21.7132 C   0  0  0  0  0  0  0  0  0  0  0  0
  -17.4805   16.0657  -20.7701 C   0  0  0  0  0  0  0  0  0  0  0  0
  -16.5479   17.0522  -20.9421 C   0  0  0  0  0  0  0  0  0  0  0  0
  -15.7755   17.0328  -22.0662 N   0  0  0  0  0  0  0  0  0  0  0  0
  -15.8775   16.1011  -23.0089 C   0  0  0  0  0  0  0  0  0  0  0  0
  -15.0946   16.1184  -24.0891 N   0  0  0  0  0  0  0  0  0  0  0  0
  -15.2434   15.1291  -25.0181 C   0  0  0  0  0  0  0  0  0  0  0  0
  -14.4886   15.1860  -26.0228 O   0  0  0  0  0  0  0  0  0  0  0  0
  -16.1807   14.1384  -24.8394 C   0  0  0  0  0  0  0  0  0  0  0  0
  -16.9679   14.1183  -23.7580 N   0  0  0  0  0  0  0  0  0  0  0  0
  -16.8228   15.0955  -22.8366 C   0  0  0  0  0  0  0  0  0  0  0  0
  -14.3907   16.8710  -24.2130 H   0  0  0  0  0  0  0  0  0  0  0  0
  -23.1616    9.8596  -12.4741 C   0  0  0  0  0  0  0  0  0  0  0  0
  -22.6441   10.3607  -13.6383 C   0  0  0  0  0  0  0  0  0  0  0  0
  -21.2217   10.4188  -13.5048 C   0  0  0  0  0  0  0  0  0  0  0  0
  -20.9532    9.9599  -12.2971 N   0  0  0  0  0  0  0  0  0  0  0  0
  -22.1332    9.6272  -11.6881 N   0  0  0  0  0  0  0  0  0  0  0  0
  -19.7520    9.7475  -11.5549 C   0  0  0  0  0  0  0  0  0  0  0  0
  -19.0415    8.5496  -11.6888 C   0  0  0  0  0  0  0  0  0  0  0  0
  -17.9161    8.2676  -10.9541 C   0  0  0  0  0  0  0  0  0  0  0  0
  -17.4174    9.1610  -10.0365 C   0  0  0  0  0  0  0  0  0  0  0  0
  -18.1153   10.3556   -9.8941 C   0  0  0  0  0  0  0  0  0  0  0  0
  -19.2481   10.6492  -10.6254 C   0  0  0  0  0  0  0  0  0  0  0  0
  -16.2058    8.8886   -9.2303 C   0  0  0  0  0  0  0  0  0  0  0  0
  -16.0360    7.5237   -8.9750 O   0  0  0  0  0  0  0  0  0  0  0  0
  -15.1305    7.3284   -8.6391 H   0  0  0  0  0  0  0  0  0  0  0  0
  -25.2918   10.9716  -11.9319 C   0  0  0  0  0  0  0  0  0  0  0  0
  -24.6217    9.6462  -12.1914 C   0  0  0  0  0  0  0  0  0  0  0  0
  -25.2818    8.9955  -13.3979 C   0  0  0  0  0  0  0  0  0  0  0  0
  -24.7286    8.8051  -10.9536 C   0  0  0  0  0  0  0  0  0  0  0  0
 44 45  1  0  0  0
 45 46  1  0  0  0
 45 47  1  0  0  0
 45 30  1  0  0  0
 30 31  1  0  0  0
 31 32  2  0  0  0
 32  1  1  0  0  0
  1  2  1  0  0  0
  2  3  2  0  0  0
  2  4  1  0  0  0
  4  7  1  0  0  0
  7  8  2  0  0  0
  8  9  1  0  0  0
  9 10  2  0  0  0
 10 17  1  0  0  0
 17 18  1  0  0  0
 18 19  2  0  0  0
 19 20  1  0  0  0
 20 21  2  0  0  0
 21 22  1  0  0  0
 22 23  1  0  0  0
 23 24  1  0  0  0
 24 25  2  0  0  0
 24 26  1  0  0  0
 26 27  2  0  0  0
 27 28  1  0  0  0
 10 11  1  0  0  0
 11 12  2  0  0  0
 12 13  1  0  0  0
 13 14  2  0  0  0
 14 15  1  0  0  0
 15 16  2  0  0  0
 32 33  1  0  0  0
 33 34  1  0  0  0
 33 35  1  0  0  0
 35 36  2  0  0  0
 36 37  1  0  0  0
 37 38  2  0  0  0
 38 41  1  0  0  0
 41 42  1  0  0  0
 38 39  1  0  0  0
 39 40  2  0  0  0
 34 30  2  0  0  0
 40 35  1  0  0  0
 16  7  1  0  0  0
 28 18  1  0  0  0
 16 11  1  0  0  0
 28 22  2  0  0  0
  1  5  1  0  0  0
  4  6  1  0  0  0
 23 29  1  0  0  0
 42 43  1  0  0  0
M  END
> <minimizedAffinity>
-9.58338

> <CNNscore>
0.0563060157

> <CNNaffinity>
6.6266279221

> <CNN_VS>
0.3731190264

> <CNNaffinity_variance>
0.0842740387

$$$$
[H]OC([H])([H])c1c([H])c([H])c(-n2nc(C(C([H])([H])[H])(C([H])([H])[H])C([H])([H])[H])c([H])c2N([H])C(=O)N([H])c2c([H])c([H])c(Oc3c([H])c([H])nc4c3nc([H])c(=O)n4[H])c3c([H])c([H])c([H])c([H])c23)c([H])c1[H]


 47 52  0  0  0  0  0  0  0  0999 V2000
  -20.1970   16.1405  -19.1146 N   0  0  0  0  0  0  0  0  0  0  0  0
  -20.5071   14.8047  -18.8319 C   0  0  0  0  0  0  0  0  0  0  0  0
  -21.5874   14.2753  -19.0500 O   0  0  0  0  0  0  0  0  0  0  0  0
  -19.4190   14.0523  -18.2402 N   0  0  0  0  0  0  0  0  0  0  0  0
  -19.1336   16.4073  -18.8245 H   0  0  0  0  0  0  0  0  0  0  0  0
  -18.5487   14.6541  -18.1055 H   0  0  0  0  0  0  0  0  0  0  0  0
  -19.3815   12.7366  -17.8475 C   0  0  0  0  0  0  0  0  0  0  0  0
  -20.1817   12.1892  -16.8560 C   0  0  0  0  0  0  0  0  0  0  0  0
  -20.1263   10.8612  -16.4940 C   0  0  0  0  0  0  0  0  0  0  0  0
  -19.2463    9.9977  -17.1225 C   0  0  0  0  0  0  0  0  0  0  0  0
  -18.4298   10.4960  -18.1090 C   0  0  0  0  0  0  0  0  0  0  0  0
  -17.5311    9.6382  -18.6973 C   0  0  0  0  0  0  0  0  0  0  0  0
  -16.6705   10.0899  -19.6644 C   0  0  0  0  0  0  0  0  0  0  0  0
  -16.7353   11.4008  -20.0177 C   0  0  0  0  0  0  0  0  0  0  0  0
  -17.6412   12.2767  -19.4263 C   0  0  0  0  0  0  0  0  0  0  0  0
  -18.4979   11.8467  -18.4655 C   0  0  0  0  0  0  0  0  0  0  0  0
  -19.2184    8.6483  -16.7251 O   0  0  0  0  0  0  0  0  0  0  0  0
  -19.5156    8.3097  -15.4137 C   0  0  0  0  0  0  0  0  0  0  0  0
  -18.9619    8.9918  -14.3600 C   0  0  0  0  0  0  0  0  0  0  0  0
  -19.2708    8.6431  -13.0733 C   0  0  0  0  0  0  0  0  0  0  0  0
  -20.1343    7.6077  -12.8661 N   0  0  0  0  0  0  0  0  0  0  0  0
  -20.6979    6.9156  -13.8511 C   0  0  0  0  0  0  0  0  0  0  0  0
  -21.5432    5.9144  -13.6003 N   0  0  0  0  0  0  0  0  0  0  0  0
  -22.0945    5.2467  -14.6559 C   0  0  0  0  0  0  0  0  0  0  0  0
  -22.8823    4.3072  -14.3746 O   0  0  0  0  0  0  0  0  0  0  0  0
  -21.7825    5.6026  -15.9474 C   0  0  0  0  0  0  0  0  0  0  0  0
  -20.9347    6.6053  -16.2026 N   0  0  0  0  0  0  0  0  0  0  0  0
  -20.3879    7.2684  -15.1604 C   0  0  0  0  0  0  0  0  0  0  0  0
  -21.7713    5.6551  -12.6216 H   0  0  0  0  0  0  0  0  0  0  0  0
  -21.8774   18.4155  -21.3100 C   0  0  0  0  0  0  0  0  0  0  0  0
  -21.2832   17.2123  -21.0385 C   0  0  0  0  0  0  0  0  0  0  0  0
  -20.8388   17.2317  -19.6797 C   0  0  0  0  0  0  0  0  0  0  0  0
  -21.1783   18.4152  -19.2054 N   0  0  0  0  0  0  0  0  0  0  0  0
  -21.8034   19.1174  -20.2004 N   0  0  0  0  0  0  0  0  0  0  0  0
  -21.0393   19.0596  -17.9387 C   0  0  0  0  0  0  0  0  0  0  0  0
  -21.3718   18.3814  -16.7609 C   0  0  0  0  0  0  0  0  0  0  0  0
  -21.3166   18.9726  -15.5227 C   0  0  0  0  0  0  0  0  0  0  0  0
  -20.9228   20.2806  -15.3705 C   0  0  0  0  0  0  0  0  0  0  0  0
  -20.5900   20.9656  -16.5343 C   0  0  0  0  0  0  0  0  0  0  0  0
  -20.6434   20.3826  -17.7839 C   0  0  0  0  0  0  0  0  0  0  0  0
  -20.8506   20.9467  -14.0502 C   0  0  0  0  0  0  0  0  0  0  0  0
  -20.4207   22.2741  -14.1501 O   0  0  0  0  0  0  0  0  0  0  0  0
  -20.5857   22.7715  -13.3156 H   0  0  0  0  0  0  0  0  0  0  0  0
  -21.3745   19.2077  -23.5877 C   0  0  0  0  0  0  0  0  0  0  0  0
  -22.4714   18.8145  -22.6311 C   0  0  0  0  0  0  0  0  0  0  0  0
  -23.2322   17.6364  -23.2214 C   0  0  0  0  0  0  0  0  0  0  0  0
  -23.3507   20.0069  -22.3945 C   0  0  0  0  0  0  0  0  0  0  0  0
 44 45  1  0  0  0
 45 46  1  0  0  0
 45 47  1  0  0  0
 45 30  1  0  0  0
 30 31  1  0  0  0
 31 32  2  0  0  0
 32  1  1  0  0  0
  1  2  1  0  0  0
  2  3  2  0  0  0
  2  4  1  0  0  0
  4  7  1  0  0  0
  7  8  2  0  0  0
  8  9  1  0  0  0
  9 10  2  0  0  0
 10 17  1  0  0  0
 17 18  1  0  0  0
 18 19  2  0  0  0
 19 20  1  0  0  0
 20 21  2  0  0  0
 21 22  1  0  0  0
 22 23  1  0  0  0
 23 24  1  0  0  0
 24 25  2  0  0  0
 24 26  1  0  0  0
 26 27  2  0  0  0
 27 28  1  0  0  0
 10 11  1  0  0  0
 11 12  2  0  0  0
 12 13  1  0  0  0
 13 14  2  0  0  0
 14 15  1  0  0  0
 15 16  2  0  0  0
 32 33  1  0  0  0
 33 34  1  0  0  0
 33 35  1  0  0  0
 35 36  2  0  0  0
 36 37  1  0  0  0
 37 38  2  0  0  0
 38 41  1  0  0  0
 41 42  1  0  0  0
 38 39  1  0  0  0
 39 40  2  0  0  0
 34 30  2  0  0  0
 40 35  1  0  0  0
 16  7  1  0  0  0
 28 18  1  0  0  0
 16 11  1  0  0  0
 28 22  2  0  0  0
  1  5  1  0  0  0
  4  6  1  0  0  0
 23 29  1  0  0  0
 42 43  1  0  0  0
M  END
> <minimizedAffinity>
-8.70843

> <CNNscore>
0.0509958379

> <CNNaffinity>
6.4653840065

> <CNN_VS>
0.3297076821

> <CNNaffinity_variance>
0.1404708475

$$$$
[H]OC([H])([H])c1c([H])c([H])c(-n2nc(C(C([H])([H])[H])(C([H])([H])[H])C([H])([H])[H])c([H])c2N([H])C(=O)N([H])c2c([H])c([H])c(Oc3c([H])c([H])nc4c3nc([H])c(=O)n4[H])c3c([H])c([H])c([H])c([H])c23)c([H])c1[H]


 47 52  0  0  0  0  0  0  0  0999 V2000
  -22.1388   13.0291  -15.2495 N   0  0  0  0  0  0  0  0  0  0  0  0
  -21.3951   13.6148  -16.2810 C   0  0  0  0  0  0  0  0  0  0  0  0
  -21.0877   14.7968  -16.3388 O   0  0  0  0  0  0  0  0  0  0  0  0
  -20.9910   12.6922  -17.3230 N   0  0  0  0  0  0  0  0  0  0  0  0
  -22.3014   11.9185  -15.4117 H   0  0  0  0  0  0  0  0  0  0  0  0
  -21.3423   11.7029  -17.1339 H   0  0  0  0  0  0  0  0  0  0  0  0
  -20.2605   12.9291  -18.4617 C   0  0  0  0  0  0  0  0  0  0  0  0
  -20.5446   13.9240  -19.3850 C   0  0  0  0  0  0  0  0  0  0  0  0
  -19.7836   14.1419  -20.5125 C   0  0  0  0  0  0  0  0  0  0  0  0
  -18.6758   13.3554  -20.7753 C   0  0  0  0  0  0  0  0  0  0  0  0
  -18.3573   12.3535  -19.8905 C   0  0  0  0  0  0  0  0  0  0  0  0
  -17.2793   11.5525  -20.1833 C   0  0  0  0  0  0  0  0  0  0  0  0
  -16.9364   10.5178  -19.3516 C   0  0  0  0  0  0  0  0  0  0  0  0
  -17.6907   10.3131  -18.2396 C   0  0  0  0  0  0  0  0  0  0  0  0
  -18.7847   11.1184  -17.9359 C   0  0  0  0  0  0  0  0  0  0  0  0
  -19.1396   12.1448  -18.7500 C   0  0  0  0  0  0  0  0  0  0  0  0
  -17.9236   13.6081  -21.9372 O   0  0  0  0  0  0  0  0  0  0  0  0
  -17.1996   14.7856  -22.0471 C   0  0  0  0  0  0  0  0  0  0  0  0
  -17.1319   15.6786  -21.0079 C   0  0  0  0  0  0  0  0  0  0  0  0
  -16.4095   16.8336  -21.1363 C   0  0  0  0  0  0  0  0  0  0  0  0
  -15.7652   17.0740  -22.3143 N   0  0  0  0  0  0  0  0  0  0  0  0
  -15.7985   16.2419  -23.3505 C   0  0  0  0  0  0  0  0  0  0  0  0
  -15.1459   16.5157  -24.4815 N   0  0  0  0  0  0  0  0  0  0  0  0
  -15.2136   15.6172  -25.5071 C   0  0  0  0  0  0  0  0  0  0  0  0
  -14.5877   15.9166  -26.5563 O   0  0  0  0  0  0  0  0  0  0  0  0
  -15.9393   14.4565  -25.3721 C   0  0  0  0  0  0  0  0  0  0  0  0
  -16.5956   14.1791  -24.2399 N   0  0  0  0  0  0  0  0  0  0  0  0
  -16.5301   15.0659  -23.2230 C   0  0  0  0  0  0  0  0  0  0  0  0
  -14.6014   17.3947  -24.5716 H   0  0  0  0  0  0  0  0  0  0  0  0
  -23.0613   13.4732  -11.8186 C   0  0  0  0  0  0  0  0  0  0  0  0
  -22.3261   12.8739  -12.8059 C   0  0  0  0  0  0  0  0  0  0  0  0
  -22.7181   13.4401  -14.0589 C   0  0  0  0  0  0  0  0  0  0  0  0
  -23.6471   14.3337  -13.7768 N   0  0  0  0  0  0  0  0  0  0  0  0
  -23.8429   14.3417  -12.4220 N   0  0  0  0  0  0  0  0  0  0  0  0
  -24.4284   15.2404  -14.5555 C   0  0  0  0  0  0  0  0  0  0  0  0
  -25.6582   14.8367  -15.0867 C   0  0  0  0  0  0  0  0  0  0  0  0
  -26.4204   15.6458  -15.8931 C   0  0  0  0  0  0  0  0  0  0  0  0
  -26.0121   16.9157  -16.2244 C   0  0  0  0  0  0  0  0  0  0  0  0
  -24.7907   17.3284  -15.7025 C   0  0  0  0  0  0  0  0  0  0  0  0
  -24.0156   16.5237  -14.8928 C   0  0  0  0  0  0  0  0  0  0  0  0
  -26.8107   17.8136  -17.0893 C   0  0  0  0  0  0  0  0  0  0  0  0
  -26.4370   19.1542  -16.9485 O   0  0  0  0  0  0  0  0  0  0  0  0
  -26.8061   19.7107  -17.6731 H   0  0  0  0  0  0  0  0  0  0  0  0
  -22.9773   14.4391   -9.5540 C   0  0  0  0  0  0  0  0  0  0  0  0
  -22.9680   13.1600  -10.3520 C   0  0  0  0  0  0  0  0  0  0  0  0
  -24.1655   12.3186   -9.9361 C   0  0  0  0  0  0  0  0  0  0  0  0
  -21.6626   12.4586  -10.1175 C   0  0  0  0  0  0  0  0  0  0  0  0
 44 45  1  0  0  0
 45 46  1  0  0  0
 45 47  1  0  0  0
 45 30  1  0  0  0
 30 31  1  0  0  0
 31 32  2  0  0  0
 32  1  1  0  0  0
  1  2  1  0  0  0
  2  3  2  0  0  0
  2  4  1  0  0  0
  4  7  1  0  0  0
  7  8  2  0  0  0
  8  9  1  0  0  0
  9 10  2  0  0  0
 10 17  1  0  0  0
 17 18  1  0  0  0
 18 19  2  0  0  0
 19 20  1  0  0  0
 20 21  2  0  0  0
 21 22  1  0  0  0
 22 23  1  0  0  0
 23 24  1  0  0  0
 24 25  2  0  0  0
 24 26  1  0  0  0
 26 27  2  0  0  0
 27 28  1  0  0  0
 10 11  1  0  0  0
 11 12  2  0  0  0
 12 13  1  0  0  0
 13 14  2  0  0  0
 14 15  1  0  0  0
 15 16  2  0  0  0
 32 33  1  0  0  0
 33 34  1  0  0  0
 33 35  1  0  0  0
 35 36  2  0  0  0
 36 37  1  0  0  0
 37 38  2  0  0  0
 38 41  1  0  0  0
 41 42  1  0  0  0
 38 39  1  0  0  0
 39 40  2  0  0  0
 34 30  2  0  0  0
 40 35  1  0  0  0
 16  7  1  0  0  0
 28 18  1  0  0  0
 16 11  1  0  0  0
 28 22  2  0  0  0
  1  5  1  0  0  0
  4  6  1  0  0  0
 23 29  1  0  0  0
 42 43  1  0  0  0
M  END
> <minimizedAffinity>
-8.96233

> <CNNscore>
0.0444632694

> <CNNaffinity>
6.6010041237

> <CNN_VS>
0.2935022116

> <CNNaffinity_variance>
0.0564931855

$$$$
[H]OC([H])([H])c1c([H])c([H])c(-n2nc(C(C([H])([H])[H])(C([H])([H])[H])C([H])([H])[H])c([H])c2N([H])C(=O)N([H])c2c([H])c([H])c(Oc3c([H])c([H])nc4c3nc([H])c(=O)n4[H])c3c([H])c([H])c([H])c([H])c23)c([H])c1[H]


 47 52  0  0  0  0  0  0  0  0999 V2000
  -20.1504   12.2625  -15.3822 N   0  0  0  0  0  0  0  0  0  0  0  0
  -20.2195   12.6437  -16.7276 C   0  0  0  0  0  0  0  0  0  0  0  0
  -21.2183   13.0801  -17.2815 O   0  0  0  0  0  0  0  0  0  0  0  0
  -18.9773   12.4848  -17.4570 N   0  0  0  0  0  0  0  0  0  0  0  0
  -19.1203   11.8868  -15.0925 H   0  0  0  0  0  0  0  0  0  0  0  0
  -18.2039   12.0863  -16.8398 H   0  0  0  0  0  0  0  0  0  0  0  0
  -18.6978   12.7616  -18.7730 C   0  0  0  0  0  0  0  0  0  0  0  0
  -19.2712   13.7956  -19.4976 C   0  0  0  0  0  0  0  0  0  0  0  0
  -18.9596   14.0526  -20.8147 C   0  0  0  0  0  0  0  0  0  0  0  0
  -18.0372   13.2682  -21.4845 C   0  0  0  0  0  0  0  0  0  0  0  0
  -17.4456   12.2285  -20.8083 C   0  0  0  0  0  0  0  0  0  0  0  0
  -16.5621   11.4310  -21.4960 C   0  0  0  0  0  0  0  0  0  0  0  0
  -15.9674   10.3606  -20.8792 C   0  0  0  0  0  0  0  0  0  0  0  0
  -16.2781   10.1172  -19.5784 C   0  0  0  0  0  0  0  0  0  0  0  0
  -17.1726   10.9187  -18.8748 C   0  0  0  0  0  0  0  0  0  0  0  0
  -17.7723   11.9803  -19.4711 C   0  0  0  0  0  0  0  0  0  0  0  0
  -17.7453   13.5614  -22.8293 O   0  0  0  0  0  0  0  0  0  0  0  0
  -17.0379   14.7112  -23.1462 C   0  0  0  0  0  0  0  0  0  0  0  0
  -16.6736   15.6119  -22.1775 C   0  0  0  0  0  0  0  0  0  0  0  0
  -15.9732   16.7390  -22.5114 C   0  0  0  0  0  0  0  0  0  0  0  0
  -15.6507   16.9443  -23.8208 N   0  0  0  0  0  0  0  0  0  0  0  0
  -15.9791   16.1033  -24.7966 C   0  0  0  0  0  0  0  0  0  0  0  0
  -15.6353   16.3421  -26.0634 N   0  0  0  0  0  0  0  0  0  0  0  0
  -15.9963   15.4361  -27.0187 C   0  0  0  0  0  0  0  0  0  0  0  0
  -15.6561   15.7023  -28.2001 O   0  0  0  0  0  0  0  0  0  0  0  0
  -16.6983   14.3035  -26.6775 C   0  0  0  0  0  0  0  0  0  0  0  0
  -17.0454   14.0612  -25.4085 N   0  0  0  0  0  0  0  0  0  0  0  0
  -16.6893   14.9555  -24.4608 C   0  0  0  0  0  0  0  0  0  0  0  0
  -15.1054   17.2001  -26.3087 H   0  0  0  0  0  0  0  0  0  0  0  0
  -22.8149   12.8235  -13.0573 C   0  0  0  0  0  0  0  0  0  0  0  0
  -22.1747   13.0607  -14.2440 C   0  0  0  0  0  0  0  0  0  0  0  0
  -21.0046   12.2403  -14.2905 C   0  0  0  0  0  0  0  0  0  0  0  0
  -20.9941   11.5616  -13.1589 N   0  0  0  0  0  0  0  0  0  0  0  0
  -22.0919   11.9245  -12.4261 N   0  0  0  0  0  0  0  0  0  0  0  0
  -20.1247   10.5810  -12.5920 C   0  0  0  0  0  0  0  0  0  0  0  0
  -19.7996    9.4253  -13.3106 C   0  0  0  0  0  0  0  0  0  0  0  0
  -19.0195    8.4220  -12.7902 C   0  0  0  0  0  0  0  0  0  0  0  0
  -18.5057    8.5012  -11.5178 C   0  0  0  0  0  0  0  0  0  0  0  0
  -18.8224    9.6454  -10.7932 C   0  0  0  0  0  0  0  0  0  0  0  0
  -19.6065   10.6590  -11.3049 C   0  0  0  0  0  0  0  0  0  0  0  0
  -17.6602    7.4385  -10.9281 C   0  0  0  0  0  0  0  0  0  0  0  0
  -17.5107    6.3440  -11.7864 O   0  0  0  0  0  0  0  0  0  0  0  0
  -16.7814    5.7504  -11.4920 H   0  0  0  0  0  0  0  0  0  0  0  0
  -24.6555   14.3178  -13.7263 C   0  0  0  0  0  0  0  0  0  0  0  0
  -24.0828   13.4901  -12.6039 C   0  0  0  0  0  0  0  0  0  0  0  0
  -25.1014   12.4295  -12.2131 C   0  0  0  0  0  0  0  0  0  0  0  0
  -23.7363   14.4025  -11.4645 C   0  0  0  0  0  0  0  0  0  0  0  0
 44 45  1  0  0  0
 45 46  1  0  0  0
 45 47  1  0  0  0
 45 30  1  0  0  0
 30 31  1  0  0  0
 31 32  2  0  0  0
 32  1  1  0  0  0
  1  2  1  0  0  0
  2  3  2  0  0  0
  2  4  1  0  0  0
  4  7  1  0  0  0
  7  8  2  0  0  0
  8  9  1  0  0  0
  9 10  2  0  0  0
 10 17  1  0  0  0
 17 18  1  0  0  0
 18 19  2  0  0  0
 19 20  1  0  0  0
 20 21  2  0  0  0
 21 22  1  0  0  0
 22 23  1  0  0  0
 23 24  1  0  0  0
 24 25  2  0  0  0
 24 26  1  0  0  0
 26 27  2  0  0  0
 27 28  1  0  0  0
 10 11  1  0  0  0
 11 12  2  0  0  0
 12 13  1  0  0  0
 13 14  2  0  0  0
 14 15  1  0  0  0
 15 16  2  0  0  0
 32 33  1  0  0  0
 33 34  1  0  0  0
 33 35  1  0  0  0
 35 36  2  0  0  0
 36 37  1  0  0  0
 37 38  2  0  0  0
 38 41  1  0  0  0
 41 42  1  0  0  0
 38 39  1  0  0  0
 39 40  2  0  0  0
 34 30  2  0  0  0
 40 35  1  0  0  0
 16  7  1  0  0  0
 28 18  1  0  0  0
 16 11  1  0  0  0
 28 22  2  0  0  0
  1  5  1  0  0  0
  4  6  1  0  0  0
 23 29  1  0  0  0
 42 43  1  0  0  0
M  END
> <minimizedAffinity>
-10.63905

> <CNNscore>
0.0418632552

> <CNNaffinity>
6.4180541039

> <CNN_VS>
0.2686806321

> <CNNaffinity_variance>
0.2227086276

$$$$
[H]OC([H])([H])c1c([H])c([H])c(-n2nc(C(C([H])([H])[H])(C([H])([H])[H])C([H])([H])[H])c([H])c2N([H])C(=O)N([H])c2c([H])c([H])c(Oc3c([H])c([H])nc4c3nc([H])c(=O)n4[H])c3c([H])c([H])c([H])c([H])c23)c([H])c1[H]


 47 52  0  0  0  0  0  0  0  0999 V2000
  -19.2706    7.9023  -15.2378 N   0  0  0  0  0  0  0  0  0  0  0  0
  -19.7979    8.9149  -16.0482 C   0  0  0  0  0  0  0  0  0  0  0  0
  -20.9872    9.1773  -16.1565 O   0  0  0  0  0  0  0  0  0  0  0  0
  -18.8026    9.6698  -16.7829 N   0  0  0  0  0  0  0  0  0  0  0  0
  -18.1397    7.8450  -15.2999 H   0  0  0  0  0  0  0  0  0  0  0  0
  -17.8150    9.3159  -16.5897 H   0  0  0  0  0  0  0  0  0  0  0  0
  -18.9716   10.7184  -17.6538 C   0  0  0  0  0  0  0  0  0  0  0  0
  -19.9247   11.7151  -17.5083 C   0  0  0  0  0  0  0  0  0  0  0  0
  -20.0601   12.7602  -18.3955 C   0  0  0  0  0  0  0  0  0  0  0  0
  -19.2277   12.8595  -19.4965 C   0  0  0  0  0  0  0  0  0  0  0  0
  -18.2702   11.8921  -19.6848 C   0  0  0  0  0  0  0  0  0  0  0  0
  -17.4767   11.9786  -20.8040 C   0  0  0  0  0  0  0  0  0  0  0  0
  -16.5270   11.0229  -21.0578 C   0  0  0  0  0  0  0  0  0  0  0  0
  -16.3983    9.9976  -20.1746 C   0  0  0  0  0  0  0  0  0  0  0  0
  -17.1982    9.9014  -19.0396 C   0  0  0  0  0  0  0  0  0  0  0  0
  -18.1451   10.8372  -18.7750 C   0  0  0  0  0  0  0  0  0  0  0  0
  -19.3967   13.9410  -20.3805 O   0  0  0  0  0  0  0  0  0  0  0  0
  -18.8437   15.1750  -20.0737 C   0  0  0  0  0  0  0  0  0  0  0  0
  -18.4612   15.4844  -18.7930 C   0  0  0  0  0  0  0  0  0  0  0  0
  -17.9148   16.7071  -18.5121 C   0  0  0  0  0  0  0  0  0  0  0  0
  -17.7631   17.6042  -19.5285 N   0  0  0  0  0  0  0  0  0  0  0  0
  -18.1166   17.3539  -20.7852 C   0  0  0  0  0  0  0  0  0  0  0  0
  -17.9423   18.2603  -21.7486 N   0  0  0  0  0  0  0  0  0  0  0  0
  -18.3195   17.9399  -23.0210 C   0  0  0  0  0  0  0  0  0  0  0  0
  -18.1417   18.8246  -23.8974 O   0  0  0  0  0  0  0  0  0  0  0  0
  -18.8661   16.7086  -23.2985 C   0  0  0  0  0  0  0  0  0  0  0  0
  -19.0432   15.7977  -22.3349 N   0  0  0  0  0  0  0  0  0  0  0  0
  -18.6705   16.1114  -21.0749 C   0  0  0  0  0  0  0  0  0  0  0  0
  -17.5286   19.1860  -21.5272 H   0  0  0  0  0  0  0  0  0  0  0  0
  -20.9675    5.1493  -13.7014 C   0  0  0  0  0  0  0  0  0  0  0  0
  -20.6619    5.9305  -14.7834 C   0  0  0  0  0  0  0  0  0  0  0  0
  -19.7612    6.9542  -14.3533 C   0  0  0  0  0  0  0  0  0  0  0  0
  -19.5682    6.7475  -13.0644 N   0  0  0  0  0  0  0  0  0  0  0  0
  -20.3024    5.6559  -12.6863 N   0  0  0  0  0  0  0  0  0  0  0  0
  -18.7874    7.3910  -12.0569 C   0  0  0  0  0  0  0  0  0  0  0  0
  -17.8581    6.6597  -11.3090 C   0  0  0  0  0  0  0  0  0  0  0  0
  -17.1263    7.2135  -10.2874 C   0  0  0  0  0  0  0  0  0  0  0  0
  -17.2668    8.5362   -9.9411 C   0  0  0  0  0  0  0  0  0  0  0  0
  -18.1881    9.2736  -10.6772 C   0  0  0  0  0  0  0  0  0  0  0  0
  -18.9301    8.7276  -11.7045 C   0  0  0  0  0  0  0  0  0  0  0  0
  -16.4921    9.1641   -8.8468 C   0  0  0  0  0  0  0  0  0  0  0  0
  -16.6618   10.5520   -8.8071 O   0  0  0  0  0  0  0  0  0  0  0  0
  -16.3326   10.9327   -7.9599 H   0  0  0  0  0  0  0  0  0  0  0  0
  -23.1639    4.3008  -12.9773 C   0  0  0  0  0  0  0  0  0  0  0  0
  -21.8930    3.9658  -13.7159 C   0  0  0  0  0  0  0  0  0  0  0  0
  -22.2445    3.6147  -15.1540 C   0  0  0  0  0  0  0  0  0  0  0  0
  -21.2057    2.8403  -13.0004 C   0  0  0  0  0  0  0  0  0  0  0  0
 44 45  1  0  0  0
 45 46  1  0  0  0
 45 47  1  0  0  0
 45 30  1  0  0  0
 30 31  1  0  0  0
 31 32  2  0  0  0
 32  1  1  0  0  0
  1  2  1  0  0  0
  2  3  2  0  0  0
  2  4  1  0  0  0
  4  7  1  0  0  0
  7  8  2  0  0  0
  8  9  1  0  0  0
  9 10  2  0  0  0
 10 17  1  0  0  0
 17 18  1  0  0  0
 18 19  2  0  0  0
 19 20  1  0  0  0
 20 21  2  0  0  0
 21 22  1  0  0  0
 22 23  1  0  0  0
 23 24  1  0  0  0
 24 25  2  0  0  0
 24 26  1  0  0  0
 26 27  2  0  0  0
 27 28  1  0  0  0
 10 11  1  0  0  0
 11 12  2  0  0  0
 12 13  1  0  0  0
 13 14  2  0  0  0
 14 15  1  0  0  0
 15 16  2  0  0  0
 32 33  1  0  0  0
 33 34  1  0  0  0
 33 35  1  0  0  0
 35 36  2  0  0  0
 36 37  1  0  0  0
 37 38  2  0  0  0
 38 41  1  0  0  0
 41 42  1  0  0  0
 38 39  1  0  0  0
 39 40  2  0  0  0
 34 30  2  0  0  0
 40 35  1  0  0  0
 16  7  1  0  0  0
 28 18  1  0  0  0
 16 11  1  0  0  0
 28 22  2  0  0  0
  1  5  1  0  0  0
  4  6  1  0  0  0
 23 29  1  0  0  0
 42 43  1  0  0  0
M  END
> <minimizedAffinity>
-9.27491

> <CNNscore>
0.0404111445

> <CNNaffinity>
6.5343542099

> <CNN_VS>
0.2640607357

> <CNNaffinity_variance>
0.1330548227

$$$$
[H]c1nc2c(nc([H])c(=O)n2[H])c(Oc2c([H])c([H])c(N([H])C(=O)N([H])c3c([H])c(C(C([H])([H])[H])(C([H])([H])[H])C([H])([H])[H])nn3-c3c([H])c([H])c([H])c(N([H])[H])c3[H])c3c([H])c([H])c([H])c([H])c23)c1[H]


 47 52  0  0  0  0  0  0  0  0999 V2000
  -19.7300   13.6822  -17.8109 N   0  0  0  0  0  0  0  0  0  0  0  0
  -20.5363   14.3746  -18.7215 C   0  0  0  0  0  0  0  0  0  0  0  0
  -21.2862   13.9009  -19.5769 O   0  0  0  0  0  0  0  0  0  0  0  0
  -20.5215   15.8344  -18.6899 N   0  0  0  0  0  0  0  0  0  0  0  0
  -19.1646   14.3698  -17.1783 H   0  0  0  0  0  0  0  0  0  0  0  0
  -19.8733   16.2520  -17.9421 H   0  0  0  0  0  0  0  0  0  0  0  0
  -21.2764   16.6728  -19.5087 C   0  0  0  0  0  0  0  0  0  0  0  0
  -20.9793   17.0272  -20.7997 C   0  0  0  0  0  0  0  0  0  0  0  0
  -21.7677   17.8066  -21.6039 C   0  0  0  0  0  0  0  0  0  0  0  0
  -22.9609   18.3016  -21.1401 C   0  0  0  0  0  0  0  0  0  0  0  0
  -23.3007   17.9660  -19.8457 C   0  0  0  0  0  0  0  0  0  0  0  0
  -24.5194   18.4085  -19.3145 C   0  0  0  0  0  0  0  0  0  0  0  0
  -24.9328   18.0967  -18.0386 C   0  0  0  0  0  0  0  0  0  0  0  0
  -24.1441   17.3329  -17.2530 C   0  0  0  0  0  0  0  0  0  0  0  0
  -22.9165   16.8717  -17.7609 C   0  0  0  0  0  0  0  0  0  0  0  0
  -22.5088   17.1823  -19.0317 C   0  0  0  0  0  0  0  0  0  0  0  0
  -23.7558   19.0853  -21.9507 O   0  0  0  0  0  0  0  0  0  0  0  0
  -23.2815   19.9867  -22.8730 C   0  0  0  0  0  0  0  0  0  0  0  0
  -22.7844   21.2187  -22.5371 C   0  0  0  0  0  0  0  0  0  0  0  0
  -22.3082   22.1260  -23.4563 C   0  0  0  0  0  0  0  0  0  0  0  0
  -22.3353   21.7733  -24.7633 N   0  0  0  0  0  0  0  0  0  0  0  0
  -22.8131   20.5803  -25.1271 C   0  0  0  0  0  0  0  0  0  0  0  0
  -22.8184   20.2744  -26.4411 N   0  0  0  0  0  0  0  0  0  0  0  0
  -23.2929   19.0765  -26.8367 C   0  0  0  0  0  0  0  0  0  0  0  0
  -23.3129   18.7548  -28.0675 O   0  0  0  0  0  0  0  0  0  0  0  0
  -23.7748   18.1527  -25.9334 C   0  0  0  0  0  0  0  0  0  0  0  0
  -23.7689   18.4622  -24.6158 N   0  0  0  0  0  0  0  0  0  0  0  0
  -23.2920   19.6645  -24.2220 C   0  0  0  0  0  0  0  0  0  0  0  0
  -22.4660   20.9324  -27.1857 H   0  0  0  0  0  0  0  0  0  0  0  0
  -19.9183   10.4294  -16.4187 C   0  0  0  0  0  0  0  0  0  0  0  0
  -20.2627   11.7474  -16.4004 C   0  0  0  0  0  0  0  0  0  0  0  0
  -19.5625   12.3441  -17.5114 C   0  0  0  0  0  0  0  0  0  0  0  0
  -18.8694   11.3974  -18.1094 N   0  0  0  0  0  0  0  0  0  0  0  0
  -19.1035   10.2399  -17.4222 N   0  0  0  0  0  0  0  0  0  0  0  0
  -18.0247   11.2968  -19.2490 C   0  0  0  0  0  0  0  0  0  0  0  0
  -17.0224   10.3154  -19.2843 C   0  0  0  0  0  0  0  0  0  0  0  0
  -16.1401   10.2190  -20.3356 C   0  0  0  0  0  0  0  0  0  0  0  0
  -16.2200   11.1001  -21.3997 C   0  0  0  0  0  0  0  0  0  0  0  0
  -17.1964   12.0755  -21.3899 C   0  0  0  0  0  0  0  0  0  0  0  0
  -17.2258   12.9533  -22.4954 N   0  0  0  0  0  0  0  0  0  0  0  0
  -18.0696   12.1558  -20.3299 C   0  0  0  0  0  0  0  0  0  0  0  0
  -17.7206   12.6794  -23.3569 H   0  0  0  0  0  0  0  0  0  0  0  0
  -16.7519   13.8707  -22.4430 H   0  0  0  0  0  0  0  0  0  0  0  0
  -21.9337    9.4789  -15.4408 C   0  0  0  0  0  0  0  0  0  0  0  0
  -20.4375    9.4204  -15.4182 C   0  0  0  0  0  0  0  0  0  0  0  0
  -19.9039    8.0818  -15.8846 C   0  0  0  0  0  0  0  0  0  0  0  0
  -19.8395    9.7534  -14.0889 C   0  0  0  0  0  0  0  0  0  0  0  0
 44 45  1  0  0  0
 45 46  1  0  0  0
 45 47  1  0  0  0
 45 30  1  0  0  0
 30 31  1  0  0  0
 31 32  2  0  0  0
 32  1  1  0  0  0
  1  2  1  0  0  0
  2  3  2  0  0  0
  2  4  1  0  0  0
  4  7  1  0  0  0
  7  8  2  0  0  0
  8  9  1  0  0  0
  9 10  2  0  0  0
 10 17  1  0  0  0
 17 18  1  0  0  0
 18 19  2  0  0  0
 19 20  1  0  0  0
 20 21  2  0  0  0
 21 22  1  0  0  0
 22 23  1  0  0  0
 23 24  1  0  0  0
 24 25  2  0  0  0
 24 26  1  0  0  0
 26 27  2  0  0  0
 27 28  1  0  0  0
 10 11  1  0  0  0
 11 12  2  0  0  0
 12 13  1  0  0  0
 13 14  2  0  0  0
 14 15  1  0  0  0
 15 16  2  0  0  0
 32 33  1  0  0  0
 33 34  1  0  0  0
 33 35  1  0  0  0
 35 36  2  0  0  0
 36 37  1  0  0  0
 37 38  2  0  0  0
 38 39  1  0  0  0
 39 40  1  0  0  0
 39 41  2  0  0  0
 34 30  2  0  0  0
 41 35  1  0  0  0
 16  7  1  0  0  0
 28 18  1  0  0  0
 16 11  1  0  0  0
 28 22  2  0  0  0
  1  5  1  0  0  0
  4  6  1  0  0  0
 23 29  1  0  0  0
 40 42  1  0  0  0
 40 43  1  0  0  0
M  END
> <minimizedAffinity>
-9.98284

> <CNNscore>
0.2774841785

> <CNNaffinity>
6.9462418556

> <CNN_VS>
1.9274722338

> <CNNaffinity_variance>
0.1977131814

$$$$
[H]c1nc2c(nc([H])c(=O)n2[H])c(Oc2c([H])c([H])c(N([H])C(=O)N([H])c3c([H])c(C(C([H])([H])[H])(C([H])([H])[H])C([H])([H])[H])nn3-c3c([H])c([H])c([H])c(N([H])[H])c3[H])c3c([H])c([H])c([H])c([H])c23)c1[H]


 47 52  0  0  0  0  0  0  0  0999 V2000
  -19.5864   11.3983  -17.4534 N   0  0  0  0  0  0  0  0  0  0  0  0
  -19.1192   11.9054  -18.6714 C   0  0  0  0  0  0  0  0  0  0  0  0
  -18.8089   11.2728  -19.6823 O   0  0  0  0  0  0  0  0  0  0  0  0
  -18.9672   13.3513  -18.8075 N   0  0  0  0  0  0  0  0  0  0  0  0
  -19.7708   12.1993  -16.7343 H   0  0  0  0  0  0  0  0  0  0  0  0
  -19.2417   13.9073  -17.9305 H   0  0  0  0  0  0  0  0  0  0  0  0
  -18.5364   14.0189  -19.9529 C   0  0  0  0  0  0  0  0  0  0  0  0
  -18.8038   15.3237  -20.2795 C   0  0  0  0  0  0  0  0  0  0  0  0
  -18.3201   15.9744  -21.3832 C   0  0  0  0  0  0  0  0  0  0  0  0
  -17.4978   15.3249  -22.2698 C   0  0  0  0  0  0  0  0  0  0  0  0
  -17.2000   14.0099  -21.9772 C   0  0  0  0  0  0  0  0  0  0  0  0
  -16.3407   13.2921  -22.8197 C   0  0  0  0  0  0  0  0  0  0  0  0
  -15.9841   11.9840  -22.5801 C   0  0  0  0  0  0  0  0  0  0  0  0
  -16.4723   11.3510  -21.4922 C   0  0  0  0  0  0  0  0  0  0  0  0
  -17.3346   12.0478  -20.6269 C   0  0  0  0  0  0  0  0  0  0  0  0
  -17.6862   13.3501  -20.8671 C   0  0  0  0  0  0  0  0  0  0  0  0
  -17.0093   15.9808  -23.3806 O   0  0  0  0  0  0  0  0  0  0  0  0
  -16.5395   15.3577  -24.5116 C   0  0  0  0  0  0  0  0  0  0  0  0
  -15.4677   15.8130  -25.2338 C   0  0  0  0  0  0  0  0  0  0  0  0
  -14.9926   15.1933  -26.3674 C   0  0  0  0  0  0  0  0  0  0  0  0
  -15.6249   14.0711  -26.7851 N   0  0  0  0  0  0  0  0  0  0  0  0
  -16.6732   13.5987  -26.1057 C   0  0  0  0  0  0  0  0  0  0  0  0
  -17.2693   12.4772  -26.5608 N   0  0  0  0  0  0  0  0  0  0  0  0
  -18.3282   11.9767  -25.8937 C   0  0  0  0  0  0  0  0  0  0  0  0
  -18.9144   10.9211  -26.2945 O   0  0  0  0  0  0  0  0  0  0  0  0
  -18.8207   12.5811  -24.7562 C   0  0  0  0  0  0  0  0  0  0  0  0
  -18.2214   13.7064  -24.3021 N   0  0  0  0  0  0  0  0  0  0  0  0
  -17.1592   14.2059  -24.9732 C   0  0  0  0  0  0  0  0  0  0  0  0
  -16.9460   11.9641  -27.4232 H   0  0  0  0  0  0  0  0  0  0  0  0
  -20.0701    7.9059  -17.1021 C   0  0  0  0  0  0  0  0  0  0  0  0
  -19.6841    8.9792  -17.8472 C   0  0  0  0  0  0  0  0  0  0  0  0
  -19.9191   10.1321  -17.0127 C   0  0  0  0  0  0  0  0  0  0  0  0
  -20.4090    9.7093  -15.8657 N   0  0  0  0  0  0  0  0  0  0  0  0
  -20.4918    8.3479  -15.9473 N   0  0  0  0  0  0  0  0  0  0  0  0
  -20.8063   10.2945  -14.6321 C   0  0  0  0  0  0  0  0  0  0  0  0
  -20.2614    9.8162  -13.4308 C   0  0  0  0  0  0  0  0  0  0  0  0
  -20.6608   10.3060  -12.2087 C   0  0  0  0  0  0  0  0  0  0  0  0
  -21.6238   11.2970  -12.1324 C   0  0  0  0  0  0  0  0  0  0  0  0
  -22.1767   11.7849  -13.2992 C   0  0  0  0  0  0  0  0  0  0  0  0
  -23.1614   12.7875  -13.1624 N   0  0  0  0  0  0  0  0  0  0  0  0
  -21.7641   11.2826  -14.5116 C   0  0  0  0  0  0  0  0  0  0  0  0
  -22.8808   13.7739  -13.0607 H   0  0  0  0  0  0  0  0  0  0  0  0
  -24.1639   12.5346  -13.1640 H   0  0  0  0  0  0  0  0  0  0  0  0
  -19.3426    6.4958  -18.9471 C   0  0  0  0  0  0  0  0  0  0  0  0
  -19.9878    6.4782  -17.5958 C   0  0  0  0  0  0  0  0  0  0  0  0
  -19.1535    5.7451  -16.5661 C   0  0  0  0  0  0  0  0  0  0  0  0
  -21.3745    5.9193  -17.5953 C   0  0  0  0  0  0  0  0  0  0  0  0
 44 45  1  0  0  0
 45 46  1  0  0  0
 45 47  1  0  0  0
 45 30  1  0  0  0
 30 31  1  0  0  0
 31 32  2  0  0  0
 32  1  1  0  0  0
  1  2  1  0  0  0
  2  3  2  0  0  0
  2  4  1  0  0  0
  4  7  1  0  0  0
  7  8  2  0  0  0
  8  9  1  0  0  0
  9 10  2  0  0  0
 10 17  1  0  0  0
 17 18  1  0  0  0
 18 19  2  0  0  0
 19 20  1  0  0  0
 20 21  2  0  0  0
 21 22  1  0  0  0
 22 23  1  0  0  0
 23 24  1  0  0  0
 24 25  2  0  0  0
 24 26  1  0  0  0
 26 27  2  0  0  0
 27 28  1  0  0  0
 10 11  1  0  0  0
 11 12  2  0  0  0
 12 13  1  0  0  0
 13 14  2  0  0  0
 14 15  1  0  0  0
 15 16  2  0  0  0
 32 33  1  0  0  0
 33 34  1  0  0  0
 33 35  1  0  0  0
 35 36  2  0  0  0
 36 37  1  0  0  0
 37 38  2  0  0  0
 38 39  1  0  0  0
 39 40  1  0  0  0
 39 41  2  0  0  0
 34 30  2  0  0  0
 41 35  1  0  0  0
 16  7  1  0  0  0
 28 18  1  0  0  0
 16 11  1  0  0  0
 28 22  2  0  0  0
  1  5  1  0  0  0
  4  6  1  0  0  0
 23 29  1  0  0  0
 40 42  1  0  0  0
 40 43  1  0  0  0
M  END
> <minimizedAffinity>
14.74896

> <CNNscore>
0.1833823174

> <CNNaffinity>
7.3012380600

> <CNN_VS>
1.3389179707

> <CNNaffinity_variance>
0.5068010092

$$$$
[H]c1nc2c(nc([H])c(=O)n2[H])c(Oc2c([H])c([H])c(N([H])C(=O)N([H])c3c([H])c(C(C([H])([H])[H])(C([H])([H])[H])C([H])([H])[H])nn3-c3c([H])c([H])c([H])c(N([H])[H])c3[H])c3c([H])c([H])c([H])c([H])c23)c1[H]


 47 52  0  0  0  0  0  0  0  0999 V2000
  -17.5959   15.6184  -20.0005 N   0  0  0  0  0  0  0  0  0  0  0  0
  -18.6798   16.0949  -19.2542 C   0  0  0  0  0  0  0  0  0  0  0  0
  -19.8767   15.8583  -19.4270 O   0  0  0  0  0  0  0  0  0  0  0  0
  -18.4081   16.9799  -18.1249 N   0  0  0  0  0  0  0  0  0  0  0  0
  -16.6493   16.0061  -19.6181 H   0  0  0  0  0  0  0  0  0  0  0  0
  -17.3656   17.1848  -17.9670 H   0  0  0  0  0  0  0  0  0  0  0  0
  -19.3654   17.5238  -17.2699 C   0  0  0  0  0  0  0  0  0  0  0  0
  -19.9944   16.8739  -16.2391 C   0  0  0  0  0  0  0  0  0  0  0  0
  -20.8896   17.4475  -15.3758 C   0  0  0  0  0  0  0  0  0  0  0  0
  -21.2243   18.7730  -15.4989 C   0  0  0  0  0  0  0  0  0  0  0  0
  -20.6111   19.4662  -16.5221 C   0  0  0  0  0  0  0  0  0  0  0  0
  -20.8793   20.8313  -16.6897 C   0  0  0  0  0  0  0  0  0  0  0  0
  -20.2900   21.5906  -17.6756 C   0  0  0  0  0  0  0  0  0  0  0  0
  -19.4139   21.0125  -18.5247 C   0  0  0  0  0  0  0  0  0  0  0  0
  -19.1230   19.6444  -18.3783 C   0  0  0  0  0  0  0  0  0  0  0  0
  -19.7098   18.8919  -17.3950 C   0  0  0  0  0  0  0  0  0  0  0  0
  -22.1247   19.3511  -14.6283 O   0  0  0  0  0  0  0  0  0  0  0  0
  -21.9455   19.4467  -13.2694 C   0  0  0  0  0  0  0  0  0  0  0  0
  -21.0350   18.6951  -12.5737 C   0  0  0  0  0  0  0  0  0  0  0  0
  -20.8511   18.7862  -11.2127 C   0  0  0  0  0  0  0  0  0  0  0  0
  -21.6160   19.6711  -10.5304 N   0  0  0  0  0  0  0  0  0  0  0  0
  -22.5137   20.4202  -11.1759 C   0  0  0  0  0  0  0  0  0  0  0  0
  -23.2514   21.2879  -10.4528 N   0  0  0  0  0  0  0  0  0  0  0  0
  -24.1637   22.0581  -11.0784 C   0  0  0  0  0  0  0  0  0  0  0  0
  -24.8766   22.8871  -10.4278 O   0  0  0  0  0  0  0  0  0  0  0  0
  -24.3646   21.9833  -12.4406 C   0  0  0  0  0  0  0  0  0  0  0  0
  -23.6236   21.1116  -13.1637 N   0  0  0  0  0  0  0  0  0  0  0  0
  -22.7092   20.3405  -12.5334 C   0  0  0  0  0  0  0  0  0  0  0  0
  -23.1509   21.3969   -9.4089 H   0  0  0  0  0  0  0  0  0  0  0  0
  -17.1300   14.0778  -23.1571 C   0  0  0  0  0  0  0  0  0  0  0  0
  -17.2440   15.1990  -22.3915 C   0  0  0  0  0  0  0  0  0  0  0  0
  -17.4789   14.7266  -21.0489 C   0  0  0  0  0  0  0  0  0  0  0  0
  -17.4914   13.4101  -21.0788 N   0  0  0  0  0  0  0  0  0  0  0  0
  -17.2772   13.0405  -22.3766 N   0  0  0  0  0  0  0  0  0  0  0  0
  -17.6256   12.3554  -20.1345 C   0  0  0  0  0  0  0  0  0  0  0  0
  -16.8146   11.2159  -20.2482 C   0  0  0  0  0  0  0  0  0  0  0  0
  -16.9504   10.1426  -19.3982 C   0  0  0  0  0  0  0  0  0  0  0  0
  -17.9040   10.1600  -18.3954 C   0  0  0  0  0  0  0  0  0  0  0  0
  -18.7154   11.2685  -18.2618 C   0  0  0  0  0  0  0  0  0  0  0  0
  -19.6772   11.2285  -17.2288 N   0  0  0  0  0  0  0  0  0  0  0  0
  -18.5642   12.3320  -19.1212 C   0  0  0  0  0  0  0  0  0  0  0  0
  -19.4125   11.4937  -16.2688 H   0  0  0  0  0  0  0  0  0  0  0  0
  -20.6468   10.9336  -17.4330 H   0  0  0  0  0  0  0  0  0  0  0  0
  -17.6962   13.0346  -25.2814 C   0  0  0  0  0  0  0  0  0  0  0  0
  -16.8710   14.1114  -24.6472 C   0  0  0  0  0  0  0  0  0  0  0  0
  -17.2858   15.4974  -25.0953 C   0  0  0  0  0  0  0  0  0  0  0  0
  -15.3995   13.9461  -24.8539 C   0  0  0  0  0  0  0  0  0  0  0  0
 44 45  1  0  0  0
 45 46  1  0  0  0
 45 47  1  0  0  0
 45 30  1  0  0  0
 30 31  1  0  0  0
 31 32  2  0  0  0
 32  1  1  0  0  0
  1  2  1  0  0  0
  2  3  2  0  0  0
  2  4  1  0  0  0
  4  7  1  0  0  0
  7  8  2  0  0  0
  8  9  1  0  0  0
  9 10  2  0  0  0
 10 17  1  0  0  0
 17 18  1  0  0  0
 18 19  2  0  0  0
 19 20  1  0  0  0
 20 21  2  0  0  0
 21 22  1  0  0  0
 22 23  1  0  0  0
 23 24  1  0  0  0
 24 25  2  0  0  0
 24 26  1  0  0  0
 26 27  2  0  0  0
 27 28  1  0  0  0
 10 11  1  0  0  0
 11 12  2  0  0  0
 12 13  1  0  0  0
 13 14  2  0  0  0
 14 15  1  0  0  0
 15 16  2  0  0  0
 32 33  1  0  0  0
 33 34  1  0  0  0
 33 35  1  0  0  0
 35 36  2  0  0  0
 36 37  1  0  0  0
 37 38  2  0  0  0
 38 39  1  0  0  0
 39 40  1  0  0  0
 39 41  2  0  0  0
 34 30  2  0  0  0
 41 35  1  0  0  0
 16  7  1  0  0  0
 28 18  1  0  0  0
 16 11  1  0  0  0
 28 22  2  0  0  0
  1  5  1  0  0  0
  4  6  1  0  0  0
 23 29  1  0  0  0
 40 42  1  0  0  0
 40 43  1  0  0  0
M  END
> <minimizedAffinity>
-9.21193

> <CNNscore>
0.1120123267

> <CNNaffinity>
6.7976264954

> <CNN_VS>
0.7614179850

> <CNNaffinity_variance>
0.0186234955

$$$$
[H]c1nc2c(nc([H])c(=O)n2[H])c(Oc2c([H])c([H])c(N([H])C(=O)N([H])c3c([H])c(C(C([H])([H])[H])(C([H])([H])[H])C([H])([H])[H])nn3-c3c([H])c([H])c([H])c(N([H])[H])c3[H])c3c([H])c([H])c([H])c([H])c23)c1[H]


 47 52  0  0  0  0  0  0  0  0999 V2000
  -17.3295   16.3414  -20.3662 N   0  0  0  0  0  0  0  0  0  0  0  0
  -18.4376   16.8869  -19.7079 C   0  0  0  0  0  0  0  0  0  0  0  0
  -19.6299   16.6980  -19.9550 O   0  0  0  0  0  0  0  0  0  0  0  0
  -18.2013   17.7922  -18.5868 N   0  0  0  0  0  0  0  0  0  0  0  0
  -16.3936   16.6983  -19.9310 H   0  0  0  0  0  0  0  0  0  0  0  0
  -17.1633   17.9557  -18.3641 H   0  0  0  0  0  0  0  0  0  0  0  0
  -19.1874   18.4026  -17.8133 C   0  0  0  0  0  0  0  0  0  0  0  0
  -19.7231   17.9137  -16.6495 C   0  0  0  0  0  0  0  0  0  0  0  0
  -20.6502   18.5606  -15.8764 C   0  0  0  0  0  0  0  0  0  0  0  0
  -21.1188   19.7983  -16.2404 C   0  0  0  0  0  0  0  0  0  0  0  0
  -20.6029   20.3295  -17.4046 C   0  0  0  0  0  0  0  0  0  0  0  0
  -21.0104   21.6033  -17.8227 C   0  0  0  0  0  0  0  0  0  0  0  0
  -20.5240   22.2041  -18.9621 C   0  0  0  0  0  0  0  0  0  0  0  0
  -19.6152   21.5539  -19.7196 C   0  0  0  0  0  0  0  0  0  0  0  0
  -19.1853   20.2751  -19.3226 C   0  0  0  0  0  0  0  0  0  0  0  0
  -19.6700   19.6806  -18.1872 C   0  0  0  0  0  0  0  0  0  0  0  0
  -22.0513   20.4505  -15.4608 O   0  0  0  0  0  0  0  0  0  0  0  0
  -21.7724   21.0778  -14.2705 C   0  0  0  0  0  0  0  0  0  0  0  0
  -21.0585   22.2441  -14.1815 C   0  0  0  0  0  0  0  0  0  0  0  0
  -20.7758   22.8770  -12.9923 C   0  0  0  0  0  0  0  0  0  0  0  0
  -21.2330   22.3093  -11.8511 N   0  0  0  0  0  0  0  0  0  0  0  0
  -21.9323   21.1725  -11.9002 C   0  0  0  0  0  0  0  0  0  0  0  0
  -22.3672   20.6460  -10.7366 N   0  0  0  0  0  0  0  0  0  0  0  0
  -23.0771   19.5005  -10.7562 C   0  0  0  0  0  0  0  0  0  0  0  0
  -23.5028   18.9760   -9.6781 O   0  0  0  0  0  0  0  0  0  0  0  0
  -23.3717   18.8497  -11.9358 C   0  0  0  0  0  0  0  0  0  0  0  0
  -22.9339   19.3795  -13.1017 N   0  0  0  0  0  0  0  0  0  0  0  0
  -22.2222   20.5289  -13.0788 C   0  0  0  0  0  0  0  0  0  0  0  0
  -22.1782   21.0896   -9.7990 H   0  0  0  0  0  0  0  0  0  0  0  0
  -16.6441   14.6743  -23.4167 C   0  0  0  0  0  0  0  0  0  0  0  0
  -16.7229   15.8210  -22.6852 C   0  0  0  0  0  0  0  0  0  0  0  0
  -17.1840   15.4146  -21.3802 C   0  0  0  0  0  0  0  0  0  0  0  0
  -17.3483   14.1081  -21.3969 N   0  0  0  0  0  0  0  0  0  0  0  0
  -17.0131   13.6820  -22.6511 N   0  0  0  0  0  0  0  0  0  0  0  0
  -17.7278   13.1014  -20.4671 C   0  0  0  0  0  0  0  0  0  0  0  0
  -18.8159   13.3247  -19.6096 C   0  0  0  0  0  0  0  0  0  0  0  0
  -19.1820   12.4086  -18.6506 C   0  0  0  0  0  0  0  0  0  0  0  0
  -18.4762   11.2271  -18.5053 C   0  0  0  0  0  0  0  0  0  0  0  0
  -17.4010   10.9827  -19.3357 C   0  0  0  0  0  0  0  0  0  0  0  0
  -16.7111    9.7669  -19.1370 N   0  0  0  0  0  0  0  0  0  0  0  0
  -17.0506   11.9108  -20.2887 C   0  0  0  0  0  0  0  0  0  0  0  0
  -17.0556    8.9018  -19.5784 H   0  0  0  0  0  0  0  0  0  0  0  0
  -15.8606    9.7423  -18.5497 H   0  0  0  0  0  0  0  0  0  0  0  0
  -16.3535   16.0149  -25.4266 C   0  0  0  0  0  0  0  0  0  0  0  0
  -16.1921   14.6382  -24.8599 C   0  0  0  0  0  0  0  0  0  0  0  0
  -14.7437   14.1972  -24.8158 C   0  0  0  0  0  0  0  0  0  0  0  0
  -17.0034   13.5967  -25.5617 C   0  0  0  0  0  0  0  0  0  0  0  0
 44 45  1  0  0  0
 45 46  1  0  0  0
 45 47  1  0  0  0
 45 30  1  0  0  0
 30 31  1  0  0  0
 31 32  2  0  0  0
 32  1  1  0  0  0
  1  2  1  0  0  0
  2  3  2  0  0  0
  2  4  1  0  0  0
  4  7  1  0  0  0
  7  8  2  0  0  0
  8  9  1  0  0  0
  9 10  2  0  0  0
 10 17  1  0  0  0
 17 18  1  0  0  0
 18 19  2  0  0  0
 19 20  1  0  0  0
 20 21  2  0  0  0
 21 22  1  0  0  0
 22 23  1  0  0  0
 23 24  1  0  0  0
 24 25  2  0  0  0
 24 26  1  0  0  0
 26 27  2  0  0  0
 27 28  1  0  0  0
 10 11  1  0  0  0
 11 12  2  0  0  0
 12 13  1  0  0  0
 13 14  2  0  0  0
 14 15  1  0  0  0
 15 16  2  0  0  0
 32 33  1  0  0  0
 33 34  1  0  0  0
 33 35  1  0  0  0
 35 36  2  0  0  0
 36 37  1  0  0  0
 37 38  2  0  0  0
 38 39  1  0  0  0
 39 40  1  0  0  0
 39 41  2  0  0  0
 34 30  2  0  0  0
 41 35  1  0  0  0
 16  7  1  0  0  0
 28 18  1  0  0  0
 16 11  1  0  0  0
 28 22  2  0  0  0
  1  5  1  0  0  0
  4  6  1  0  0  0
 23 29  1  0  0  0
 40 42  1  0  0  0
 40 43  1  0  0  0
M  END
> <minimizedAffinity>
-8.86545

> <CNNscore>
0.0957534090

> <CNNaffinity>
6.8958597183

> <CNN_VS>
0.6603021026

> <CNNaffinity_variance>
0.0544411838

$$$$
[H]c1nc2c(nc([H])c(=O)n2[H])c(Oc2c([H])c([H])c(N([H])C(=O)N([H])c3c([H])c(C(C([H])([H])[H])(C([H])([H])[H])C([H])([H])[H])nn3-c3c([H])c([H])c([H])c(N([H])[H])c3[H])c3c([H])c([H])c([H])c([H])c23)c1[H]


 47 52  0  0  0  0  0  0  0  0999 V2000
  -17.3844   15.6195  -20.0510 N   0  0  0  0  0  0  0  0  0  0  0  0
  -18.4195   16.1113  -19.2476 C   0  0  0  0  0  0  0  0  0  0  0  0
  -19.6252   15.8751  -19.3426 O   0  0  0  0  0  0  0  0  0  0  0  0
  -18.0775   17.0142  -18.1522 N   0  0  0  0  0  0  0  0  0  0  0  0
  -16.4154   16.0110  -19.7340 H   0  0  0  0  0  0  0  0  0  0  0  0
  -17.0269   17.2188  -18.0620 H   0  0  0  0  0  0  0  0  0  0  0  0
  -18.9795   17.5749  -17.2493 C   0  0  0  0  0  0  0  0  0  0  0  0
  -19.4642   16.9801  -16.1126 C   0  0  0  0  0  0  0  0  0  0  0  0
  -20.3055   17.5743  -15.2101 C   0  0  0  0  0  0  0  0  0  0  0  0
  -20.7323   18.8648  -15.4010 C   0  0  0  0  0  0  0  0  0  0  0  0
  -20.2653   19.5025  -16.5319 C   0  0  0  0  0  0  0  0  0  0  0  0
  -20.6329   20.8323  -16.7767 C   0  0  0  0  0  0  0  0  0  0  0  0
  -20.1901   21.5375  -17.8733 C   0  0  0  0  0  0  0  0  0  0  0  0
  -19.3661   20.9390  -18.7595 C   0  0  0  0  0  0  0  0  0  0  0  0
  -18.9779   19.6056  -18.5377 C   0  0  0  0  0  0  0  0  0  0  0  0
  -19.4188   18.9071  -17.4445 C   0  0  0  0  0  0  0  0  0  0  0  0
  -21.5785   19.4639  -14.4911 O   0  0  0  0  0  0  0  0  0  0  0  0
  -22.7991   18.9602  -14.1109 C   0  0  0  0  0  0  0  0  0  0  0  0
  -23.8663   18.8455  -14.9627 C   0  0  0  0  0  0  0  0  0  0  0  0
  -25.0914   18.3421  -14.5878 C   0  0  0  0  0  0  0  0  0  0  0  0
  -25.2418   17.9392  -13.3038 N   0  0  0  0  0  0  0  0  0  0  0  0
  -24.2229   18.0365  -12.4458 C   0  0  0  0  0  0  0  0  0  0  0  0
  -24.4213   17.6211  -11.1776 N   0  0  0  0  0  0  0  0  0  0  0  0
  -23.4099   17.7057  -10.2907 C   0  0  0  0  0  0  0  0  0  0  0  0
  -23.5617   17.3234   -9.0868 O   0  0  0  0  0  0  0  0  0  0  0  0
  -22.1747   18.2067  -10.6445 C   0  0  0  0  0  0  0  0  0  0  0  0
  -21.9784   18.6232  -11.9172 N   0  0  0  0  0  0  0  0  0  0  0  0
  -22.9948   18.5368  -12.8047 C   0  0  0  0  0  0  0  0  0  0  0  0
  -25.3391   17.2284  -10.8385 H   0  0  0  0  0  0  0  0  0  0  0  0
  -17.0637   14.0191  -23.1959 C   0  0  0  0  0  0  0  0  0  0  0  0
  -17.1071   15.1539  -22.4433 C   0  0  0  0  0  0  0  0  0  0  0  0
  -17.3335   14.7101  -21.0896 C   0  0  0  0  0  0  0  0  0  0  0  0
  -17.4089   13.3954  -21.1012 N   0  0  0  0  0  0  0  0  0  0  0  0
  -17.2420   12.9998  -22.3983 N   0  0  0  0  0  0  0  0  0  0  0  0
  -17.5714   12.3602  -20.1400 C   0  0  0  0  0  0  0  0  0  0  0  0
  -16.8110   11.1860  -20.2507 C   0  0  0  0  0  0  0  0  0  0  0  0
  -16.9775   10.1310  -19.3834 C   0  0  0  0  0  0  0  0  0  0  0  0
  -17.9123   10.2023  -18.3655 C   0  0  0  0  0  0  0  0  0  0  0  0
  -18.6741   11.3458  -18.2345 C   0  0  0  0  0  0  0  0  0  0  0  0
  -19.6190   11.3604  -17.1854 N   0  0  0  0  0  0  0  0  0  0  0  0
  -18.4928   12.3902  -19.1113 C   0  0  0  0  0  0  0  0  0  0  0  0
  -19.3272   11.6272  -16.2338 H   0  0  0  0  0  0  0  0  0  0  0  0
  -20.6035   11.1041  -17.3696 H   0  0  0  0  0  0  0  0  0  0  0  0
  -17.5604   12.8436  -25.2678 C   0  0  0  0  0  0  0  0  0  0  0  0
  -16.8373   14.0216  -24.6917 C   0  0  0  0  0  0  0  0  0  0  0  0
  -17.3992   15.3406  -25.1802 C   0  0  0  0  0  0  0  0  0  0  0  0
  -15.3607   13.9980  -24.9253 C   0  0  0  0  0  0  0  0  0  0  0  0
 44 45  1  0  0  0
 45 46  1  0  0  0
 45 47  1  0  0  0
 45 30  1  0  0  0
 30 31  1  0  0  0
 31 32  2  0  0  0
 32  1  1  0  0  0
  1  2  1  0  0  0
  2  3  2  0  0  0
  2  4  1  0  0  0
  4  7  1  0  0  0
  7  8  2  0  0  0
  8  9  1  0  0  0
  9 10  2  0  0  0
 10 17  1  0  0  0
 17 18  1  0  0  0
 18 19  2  0  0  0
 19 20  1  0  0  0
 20 21  2  0  0  0
 21 22  1  0  0  0
 22 23  1  0  0  0
 23 24  1  0  0  0
 24 25  2  0  0  0
 24 26  1  0  0  0
 26 27  2  0  0  0
 27 28  1  0  0  0
 10 11  1  0  0  0
 11 12  2  0  0  0
 12 13  1  0  0  0
 13 14  2  0  0  0
 14 15  1  0  0  0
 15 16  2  0  0  0
 32 33  1  0  0  0
 33 34  1  0  0  0
 33 35  1  0  0  0
 35 36  2  0  0  0
 36 37  1  0  0  0
 37 38  2  0  0  0
 38 39  1  0  0  0
 39 40  1  0  0  0
 39 41  2  0  0  0
 34 30  2  0  0  0
 41 35  1  0  0  0
 16  7  1  0  0  0
 28 18  1  0  0  0
 16 11  1  0  0  0
 28 22  2  0  0  0
  1  5  1  0  0  0
  4  6  1  0  0  0
 23 29  1  0  0  0
 40 42  1  0  0  0
 40 43  1  0  0  0
M  END
> <minimizedAffinity>
-9.31661

> <CNNscore>
0.0673217922

> <CNNaffinity>
6.7635660172

> <CNN_VS>
0.4553353786

> <CNNaffinity_variance>
0.0365028754

$$$$
[H]c1nc2c(nc([H])c(=O)n2[H])c(Oc2c([H])c([H])c(N([H])C(=O)N([H])c3c([H])c(C(C([H])([H])[H])(C([H])([H])[H])C([H])([H])[H])nn3-c3c([H])c([H])c([H])c(N([H])[H])c3[H])c3c([H])c([H])c([H])c([H])c23)c1[H]


 47 52  0  0  0  0  0  0  0  0999 V2000
  -17.3428   15.6474  -20.0559 N   0  0  0  0  0  0  0  0  0  0  0  0
  -18.4404   16.0650  -19.2945 C   0  0  0  0  0  0  0  0  0  0  0  0
  -19.6265   15.7739  -19.4584 O   0  0  0  0  0  0  0  0  0  0  0  0
  -18.1994   16.9506  -18.1588 N   0  0  0  0  0  0  0  0  0  0  0  0
  -16.4117   16.0755  -19.6785 H   0  0  0  0  0  0  0  0  0  0  0  0
  -17.1662   17.2028  -18.0087 H   0  0  0  0  0  0  0  0  0  0  0  0
  -19.1727   17.4404  -17.2892 C   0  0  0  0  0  0  0  0  0  0  0  0
  -19.7500   16.7560  -16.2506 C   0  0  0  0  0  0  0  0  0  0  0  0
  -20.6628   17.2787  -15.3735 C   0  0  0  0  0  0  0  0  0  0  0  0
  -21.0715   18.5839  -15.4896 C   0  0  0  0  0  0  0  0  0  0  0  0
  -20.5122   19.3107  -16.5203 C   0  0  0  0  0  0  0  0  0  0  0  0
  -20.8573   20.6591  -16.6817 C   0  0  0  0  0  0  0  0  0  0  0  0
  -20.3250   21.4505  -17.6747 C   0  0  0  0  0  0  0  0  0  0  0  0
  -19.4309   20.9222  -18.5373 C   0  0  0  0  0  0  0  0  0  0  0  0
  -19.0632   19.5720  -18.3974 C   0  0  0  0  0  0  0  0  0  0  0  0
  -19.5934   18.7875  -17.4070 C   0  0  0  0  0  0  0  0  0  0  0  0
  -21.9896   19.1109  -14.6052 O   0  0  0  0  0  0  0  0  0  0  0  0
  -23.1009   18.4465  -14.1450 C   0  0  0  0  0  0  0  0  0  0  0  0
  -23.2898   18.1135  -12.8293 C   0  0  0  0  0  0  0  0  0  0  0  0
  -24.4006   17.4480  -12.3624 C   0  0  0  0  0  0  0  0  0  0  0  0
  -25.3557   17.1075  -13.2598 N   0  0  0  0  0  0  0  0  0  0  0  0
  -25.2049   17.4160  -14.5505 C   0  0  0  0  0  0  0  0  0  0  0  0
  -26.1842   17.0565  -15.4059 N   0  0  0  0  0  0  0  0  0  0  0  0
  -26.0595   17.3568  -16.7140 C   0  0  0  0  0  0  0  0  0  0  0  0
  -26.9635   17.0330  -17.5486 O   0  0  0  0  0  0  0  0  0  0  0  0
  -24.9556   18.0228  -17.2034 C   0  0  0  0  0  0  0  0  0  0  0  0
  -23.9743   18.3818  -16.3433 N   0  0  0  0  0  0  0  0  0  0  0  0
  -24.1023   18.0794  -15.0317 C   0  0  0  0  0  0  0  0  0  0  0  0
  -27.0545   16.5455  -15.1011 H   0  0  0  0  0  0  0  0  0  0  0  0
  -16.7623   14.1552  -23.2167 C   0  0  0  0  0  0  0  0  0  0  0  0
  -16.8909   15.2644  -22.4362 C   0  0  0  0  0  0  0  0  0  0  0  0
  -17.1944   14.7725  -21.1146 C   0  0  0  0  0  0  0  0  0  0  0  0
  -17.2287   13.4572  -21.1695 N   0  0  0  0  0  0  0  0  0  0  0  0
  -16.9629   13.1070  -22.4632 N   0  0  0  0  0  0  0  0  0  0  0  0
  -17.4241   12.3885  -20.2521 C   0  0  0  0  0  0  0  0  0  0  0  0
  -16.7090   11.1926  -20.4188 C   0  0  0  0  0  0  0  0  0  0  0  0
  -16.9096   10.1083  -19.5960 C   0  0  0  0  0  0  0  0  0  0  0  0
  -17.8348   10.1705  -18.5688 C   0  0  0  0  0  0  0  0  0  0  0  0
  -18.5523   11.3350  -18.3831 C   0  0  0  0  0  0  0  0  0  0  0  0
  -19.4895   11.3397  -17.3271 N   0  0  0  0  0  0  0  0  0  0  0  0
  -18.3374   12.4086  -19.2160 C   0  0  0  0  0  0  0  0  0  0  0  0
  -19.1821   11.5543  -16.3672 H   0  0  0  0  0  0  0  0  0  0  0  0
  -20.4841   11.1284  -17.5144 H   0  0  0  0  0  0  0  0  0  0  0  0
  -17.1742   13.0969  -25.3689 C   0  0  0  0  0  0  0  0  0  0  0  0
  -16.4359   14.2106  -24.6929 C   0  0  0  0  0  0  0  0  0  0  0  0
  -16.8997   15.5763  -25.1553 C   0  0  0  0  0  0  0  0  0  0  0  0
  -14.9497   14.1219  -24.8307 C   0  0  0  0  0  0  0  0  0  0  0  0
 44 45  1  0  0  0
 45 46  1  0  0  0
 45 47  1  0  0  0
 45 30  1  0  0  0
 30 31  1  0  0  0
 31 32  2  0  0  0
 32  1  1  0  0  0
  1  2  1  0  0  0
  2  3  2  0  0  0
  2  4  1  0  0  0
  4  7  1  0  0  0
  7  8  2  0  0  0
  8  9  1  0  0  0
  9 10  2  0  0  0
 10 17  1  0  0  0
 17 18  1  0  0  0
 18 19  2  0  0  0
 19 20  1  0  0  0
 20 21  2  0  0  0
 21 22  1  0  0  0
 22 23  1  0  0  0
 23 24  1  0  0  0
 24 25  2  0  0  0
 24 26  1  0  0  0
 26 27  2  0  0  0
 27 28  1  0  0  0
 10 11  1  0  0  0
 11 12  2  0  0  0
 12 13  1  0  0  0
 13 14  2  0  0  0
 14 15  1  0  0  0
 15 16  2  0  0  0
 32 33  1  0  0  0
 33 34  1  0  0  0
 33 35  1  0  0  0
 35 36  2  0  0  0
 36 37  1  0  0  0
 37 38  2  0  0  0
 38 39  1  0  0  0
 39 40  1  0  0  0
 39 41  2  0  0  0
 34 30  2  0  0  0
 41 35  1  0  0  0
 16  7  1  0  0  0
 28 18  1  0  0  0
 16 11  1  0  0  0
 28 22  2  0  0  0
  1  5  1  0  0  0
  4  6  1  0  0  0
 23 29  1  0  0  0
 40 42  1  0  0  0
 40 43  1  0  0  0
M  END
> <minimizedAffinity>
-9.19217

> <CNNscore>
0.0638756230

> <CNNaffinity>
7.0398902893

> <CNN_VS>
0.4496773779

> <CNNaffinity_variance>
0.1150460094

$$$$
[H]c1nc2c(nc([H])c(=O)n2[H])c(Oc2c([H])c([H])c(N([H])C(=O)N([H])c3c([H])c(C(C([H])([H])[H])(C([H])([H])[H])C([H])([H])[H])nn3-c3c([H])c([H])c([H])c(N([H])[H])c3[H])c3c([H])c([H])c([H])c([H])c23)c1[H]


 47 52  0  0  0  0  0  0  0  0999 V2000
  -18.9820   16.3245  -20.9274 N   0  0  0  0  0  0  0  0  0  0  0  0
  -19.3615   15.1474  -20.2723 C   0  0  0  0  0  0  0  0  0  0  0  0
  -20.3487   14.4446  -20.4959 O   0  0  0  0  0  0  0  0  0  0  0  0
  -18.5160   14.6537  -19.1889 N   0  0  0  0  0  0  0  0  0  0  0  0
  -18.0625   16.7354  -20.5049 H   0  0  0  0  0  0  0  0  0  0  0  0
  -17.6513   15.2602  -18.9940 H   0  0  0  0  0  0  0  0  0  0  0  0
  -18.7368   13.4921  -18.4506 C   0  0  0  0  0  0  0  0  0  0  0  0
  -19.5513   13.3711  -17.3539 C   0  0  0  0  0  0  0  0  0  0  0  0
  -19.7970   12.2044  -16.6801 C   0  0  0  0  0  0  0  0  0  0  0  0
  -19.2133   11.0301  -17.0853 C   0  0  0  0  0  0  0  0  0  0  0  0
  -18.3880   11.1060  -18.1884 C   0  0  0  0  0  0  0  0  0  0  0  0
  -17.7823    9.9418  -18.6795 C   0  0  0  0  0  0  0  0  0  0  0  0
  -16.9631    9.9385  -19.7861 C   0  0  0  0  0  0  0  0  0  0  0  0
  -16.7231   11.0959  -20.4383 C   0  0  0  0  0  0  0  0  0  0  0  0
  -17.3203   12.2798  -19.9698 C   0  0  0  0  0  0  0  0  0  0  0  0
  -18.1366   12.2795  -18.8693 C   0  0  0  0  0  0  0  0  0  0  0  0
  -19.4622    9.8547  -16.4076 O   0  0  0  0  0  0  0  0  0  0  0  0
  -20.6797    9.5020  -15.8771 C   0  0  0  0  0  0  0  0  0  0  0  0
  -21.7841   10.3122  -15.9192 C   0  0  0  0  0  0  0  0  0  0  0  0
  -23.0061    9.9647  -15.3894 C   0  0  0  0  0  0  0  0  0  0  0  0
  -23.1148    8.7524  -14.7959 N   0  0  0  0  0  0  0  0  0  0  0  0
  -22.0589    7.9368  -14.7366 C   0  0  0  0  0  0  0  0  0  0  0  0
  -22.2171    6.7391  -14.1361 N   0  0  0  0  0  0  0  0  0  0  0  0
  -21.1689    5.8948  -14.0636 C   0  0  0  0  0  0  0  0  0  0  0  0
  -21.2823    4.7576  -13.5045 O   0  0  0  0  0  0  0  0  0  0  0  0
  -19.9360    6.2223  -14.5874 C   0  0  0  0  0  0  0  0  0  0  0  0
  -19.7797    7.4246  -15.1888 N   0  0  0  0  0  0  0  0  0  0  0  0
  -20.8331    8.2693  -15.2602 C   0  0  0  0  0  0  0  0  0  0  0  0
  -23.1305    6.4240  -13.7141 H   0  0  0  0  0  0  0  0  0  0  0  0
  -20.7507   18.5060  -23.0879 C   0  0  0  0  0  0  0  0  0  0  0  0
  -20.5357   17.9846  -21.8477 C   0  0  0  0  0  0  0  0  0  0  0  0
  -19.4819   17.0139  -22.0151 C   0  0  0  0  0  0  0  0  0  0  0  0
  -19.1363   17.0059  -23.2858 N   0  0  0  0  0  0  0  0  0  0  0  0
  -19.9263   17.9242  -23.9178 N   0  0  0  0  0  0  0  0  0  0  0  0
  -18.1717   16.3402  -24.0911 C   0  0  0  0  0  0  0  0  0  0  0  0
  -18.3721   14.9971  -24.4447 C   0  0  0  0  0  0  0  0  0  0  0  0
  -17.4384   14.2916  -25.1682 C   0  0  0  0  0  0  0  0  0  0  0  0
  -16.2611   14.8974  -25.5710 C   0  0  0  0  0  0  0  0  0  0  0  0
  -16.0386   16.2178  -25.2359 C   0  0  0  0  0  0  0  0  0  0  0  0
  -14.8171   16.7824  -25.6637 N   0  0  0  0  0  0  0  0  0  0  0  0
  -16.9843   16.9066  -24.5123 C   0  0  0  0  0  0  0  0  0  0  0  0
  -14.7337   17.1671  -26.6161 H   0  0  0  0  0  0  0  0  0  0  0  0
  -14.0057   16.8108  -25.0237 H   0  0  0  0  0  0  0  0  0  0  0  0
  -23.0301   18.8980  -23.8442 C   0  0  0  0  0  0  0  0  0  0  0  0
  -21.7812   19.5764  -23.3726 C   0  0  0  0  0  0  0  0  0  0  0  0
  -21.9787   20.3028  -22.0582 C   0  0  0  0  0  0  0  0  0  0  0  0
  -21.1902   20.5180  -24.3723 C   0  0  0  0  0  0  0  0  0  0  0  0
 44 45  1  0  0  0
 45 46  1  0  0  0
 45 47  1  0  0  0
 45 30  1  0  0  0
 30 31  1  0  0  0
 31 32  2  0  0  0
 32  1  1  0  0  0
  1  2  1  0  0  0
  2  3  2  0  0  0
  2  4  1  0  0  0
  4  7  1  0  0  0
  7  8  2  0  0  0
  8  9  1  0  0  0
  9 10  2  0  0  0
 10 17  1  0  0  0
 17 18  1  0  0  0
 18 19  2  0  0  0
 19 20  1  0  0  0
 20 21  2  0  0  0
 21 22  1  0  0  0
 22 23  1  0  0  0
 23 24  1  0  0  0
 24 25  2  0  0  0
 24 26  1  0  0  0
 26 27  2  0  0  0
 27 28  1  0  0  0
 10 11  1  0  0  0
 11 12  2  0  0  0
 12 13  1  0  0  0
 13 14  2  0  0  0
 14 15  1  0  0  0
 15 16  2  0  0  0
 32 33  1  0  0  0
 33 34  1  0  0  0
 33 35  1  0  0  0
 35 36  2  0  0  0
 36 37  1  0  0  0
 37 38  2  0  0  0
 38 39  1  0  0  0
 39 40  1  0  0  0
 39 41  2  0  0  0
 34 30  2  0  0  0
 41 35  1  0  0  0
 16  7  1  0  0  0
 28 18  1  0  0  0
 16 11  1  0  0  0
 28 22  2  0  0  0
  1  5  1  0  0  0
  4  6  1  0  0  0
 23 29  1  0  0  0
 40 42  1  0  0  0
 40 43  1  0  0  0
M  END
> <minimizedAffinity>
-10.69921

> <CNNscore>
0.0594574548

> <CNNaffinity>
6.7009420395

> <CNN_VS>
0.3984209597

> <CNNaffinity_variance>
0.4301179349

$$$$
[H]c1nc2c(nc([H])c(=O)n2[H])c(Oc2c([H])c([H])c(N([H])C(=O)N([H])c3c([H])c(C(C([H])([H])[H])(C([H])([H])[H])C([H])([H])[H])nn3-c3c([H])c([H])c([H])c(N([H])[H])c3[H])c3c([H])c([H])c([H])c([H])c23)c1[H]


 47 52  0  0  0  0  0  0  0  0999 V2000
  -19.0769   16.2290  -20.9587 N   0  0  0  0  0  0  0  0  0  0  0  0
  -19.6431   15.1867  -20.2157 C   0  0  0  0  0  0  0  0  0  0  0  0
  -20.7669   14.6964  -20.3393 O   0  0  0  0  0  0  0  0  0  0  0  0
  -18.8431   14.5751  -19.1584 N   0  0  0  0  0  0  0  0  0  0  0  0
  -18.0653   16.4569  -20.6161 H   0  0  0  0  0  0  0  0  0  0  0  0
  -17.8607   14.9957  -19.0505 H   0  0  0  0  0  0  0  0  0  0  0  0
  -19.2453   13.5185  -18.3429 C   0  0  0  0  0  0  0  0  0  0  0  0
  -20.2715   13.5416  -17.4334 C   0  0  0  0  0  0  0  0  0  0  0  0
  -20.6850   12.4718  -16.6851 C   0  0  0  0  0  0  0  0  0  0  0  0
  -20.0650   11.2536  -16.8098 C   0  0  0  0  0  0  0  0  0  0  0  0
  -19.0282   11.1850  -17.7175 C   0  0  0  0  0  0  0  0  0  0  0  0
  -18.3687    9.9658  -17.9222 C   0  0  0  0  0  0  0  0  0  0  0  0
  -17.3394    9.8181  -18.8247 C   0  0  0  0  0  0  0  0  0  0  0  0
  -16.9363   10.8816  -19.5522 C   0  0  0  0  0  0  0  0  0  0  0  0
  -17.5822   12.1174  -19.3701 C   0  0  0  0  0  0  0  0  0  0  0  0
  -18.6075   12.2607  -18.4724 C   0  0  0  0  0  0  0  0  0  0  0  0
  -20.4826   10.1756  -16.0572 O   0  0  0  0  0  0  0  0  0  0  0  0
  -20.0954    9.9308  -14.7617 C   0  0  0  0  0  0  0  0  0  0  0  0
  -19.7870   10.9215  -13.8666 C   0  0  0  0  0  0  0  0  0  0  0  0
  -19.3983   10.6827  -12.5679 C   0  0  0  0  0  0  0  0  0  0  0  0
  -19.3195    9.3940  -12.1597 N   0  0  0  0  0  0  0  0  0  0  0  0
  -19.6126    8.4027  -13.0054 C   0  0  0  0  0  0  0  0  0  0  0  0
  -19.5202    7.1355  -12.5519 N   0  0  0  0  0  0  0  0  0  0  0  0
  -19.8121    6.1152  -13.3829 C   0  0  0  0  0  0  0  0  0  0  0  0
  -19.7356    4.9080  -12.9888 O   0  0  0  0  0  0  0  0  0  0  0  0
  -20.2033    6.3314  -14.6875 C   0  0  0  0  0  0  0  0  0  0  0  0
  -20.2948    7.6036  -15.1402 N   0  0  0  0  0  0  0  0  0  0  0  0
  -20.0015    8.6249  -14.3042 C   0  0  0  0  0  0  0  0  0  0  0  0
  -19.2272    6.8974  -11.5674 H   0  0  0  0  0  0  0  0  0  0  0  0
  -20.6677   18.5149  -23.1493 C   0  0  0  0  0  0  0  0  0  0  0  0
  -20.5323   17.9572  -21.9136 C   0  0  0  0  0  0  0  0  0  0  0  0
  -19.4998   16.9594  -22.0523 C   0  0  0  0  0  0  0  0  0  0  0  0
  -19.0895   16.9718  -23.3036 N   0  0  0  0  0  0  0  0  0  0  0  0
  -19.8188   17.9287  -23.9509 N   0  0  0  0  0  0  0  0  0  0  0  0
  -18.1043   16.2969  -24.0757 C   0  0  0  0  0  0  0  0  0  0  0  0
  -18.2696   14.9355  -24.3729 C   0  0  0  0  0  0  0  0  0  0  0  0
  -17.3147   14.2236  -25.0617 C   0  0  0  0  0  0  0  0  0  0  0  0
  -16.1506   14.8410  -25.4846 C   0  0  0  0  0  0  0  0  0  0  0  0
  -15.9626   16.1794  -25.2048 C   0  0  0  0  0  0  0  0  0  0  0  0
  -14.7531   16.7557  -25.6506 N   0  0  0  0  0  0  0  0  0  0  0  0
  -16.9290   16.8744  -24.5152 C   0  0  0  0  0  0  0  0  0  0  0  0
  -14.6740   17.1018  -26.6180 H   0  0  0  0  0  0  0  0  0  0  0  0
  -13.9462   16.8314  -25.0087 H   0  0  0  0  0  0  0  0  0  0  0  0
  -20.8897   20.7510  -24.0831 C   0  0  0  0  0  0  0  0  0  0  0  0
  -21.6506   19.6226  -23.4584 C   0  0  0  0  0  0  0  0  0  0  0  0
  -22.6598   19.0102  -24.4074 C   0  0  0  0  0  0  0  0  0  0  0  0
  -22.3347   19.9892  -22.1805 C   0  0  0  0  0  0  0  0  0  0  0  0
 44 45  1  0  0  0
 45 46  1  0  0  0
 45 47  1  0  0  0
 45 30  1  0  0  0
 30 31  1  0  0  0
 31 32  2  0  0  0
 32  1  1  0  0  0
  1  2  1  0  0  0
  2  3  2  0  0  0
  2  4  1  0  0  0
  4  7  1  0  0  0
  7  8  2  0  0  0
  8  9  1  0  0  0
  9 10  2  0  0  0
 10 17  1  0  0  0
 17 18  1  0  0  0
 18 19  2  0  0  0
 19 20  1  0  0  0
 20 21  2  0  0  0
 21 22  1  0  0  0
 22 23  1  0  0  0
 23 24  1  0  0  0
 24 25  2  0  0  0
 24 26  1  0  0  0
 26 27  2  0  0  0
 27 28  1  0  0  0
 10 11  1  0  0  0
 11 12  2  0  0  0
 12 13  1  0  0  0
 13 14  2  0  0  0
 14 15  1  0  0  0
 15 16  2  0  0  0
 32 33  1  0  0  0
 33 34  1  0  0  0
 33 35  1  0  0  0
 35 36  2  0  0  0
 36 37  1  0  0  0
 37 38  2  0  0  0
 38 39  1  0  0  0
 39 40  1  0  0  0
 39 41  2  0  0  0
 34 30  2  0  0  0
 41 35  1  0  0  0
 16  7  1  0  0  0
 28 18  1  0  0  0
 16 11  1  0  0  0
 28 22  2  0  0  0
  1  5  1  0  0  0
  4  6  1  0  0  0
 23 29  1  0  0  0
 40 42  1  0  0  0
 40 43  1  0  0  0
M  END
> <minimizedAffinity>
-10.56369

> <CNNscore>
0.0480378494

> <CNNaffinity>
6.6457986832

> <CNN_VS>
0.3192498684

> <CNNaffinity_variance>
0.3208030164

$$$$
[H]c1nc2c(nc([H])c(=O)n2[H])c(Oc2c([H])c([H])c(N([H])C(=O)N([H])c3c([H])c(C(C([H])([H])[H])(C([H])([H])[H])C([H])([H])[H])nn3-c3c([H])c([H])c([H])c(N([H])[H])c3[H])c3c([H])c([H])c([H])c([H])c23)c1[H]


 47 52  0  0  0  0  0  0  0  0999 V2000
  -19.0727    8.2411  -15.1852 N   0  0  0  0  0  0  0  0  0  0  0  0
  -19.4990    9.2464  -16.0607 C   0  0  0  0  0  0  0  0  0  0  0  0
  -20.6538    9.6184  -16.2769 O   0  0  0  0  0  0  0  0  0  0  0  0
  -18.4901    9.9695  -16.8297 N   0  0  0  0  0  0  0  0  0  0  0  0
  -17.9870    8.1263  -15.2108 H   0  0  0  0  0  0  0  0  0  0  0  0
  -17.4815    9.6524  -16.6405 H   0  0  0  0  0  0  0  0  0  0  0  0
  -18.7407   11.0078  -17.7255 C   0  0  0  0  0  0  0  0  0  0  0  0
  -19.5837   12.0698  -17.5202 C   0  0  0  0  0  0  0  0  0  0  0  0
  -19.7689   13.1087  -18.3931 C   0  0  0  0  0  0  0  0  0  0  0  0
  -19.0859   13.1485  -19.5830 C   0  0  0  0  0  0  0  0  0  0  0  0
  -18.2233   12.1000  -19.8286 C   0  0  0  0  0  0  0  0  0  0  0  0
  -17.4679   12.0887  -21.0086 C   0  0  0  0  0  0  0  0  0  0  0  0
  -16.5739   11.0861  -21.3111 C   0  0  0  0  0  0  0  0  0  0  0  0
  -16.4047   10.0639  -20.4457 C   0  0  0  0  0  0  0  0  0  0  0  0
  -17.1474   10.0505  -19.2515 C   0  0  0  0  0  0  0  0  0  0  0  0
  -18.0349   11.0507  -18.9526 C   0  0  0  0  0  0  0  0  0  0  0  0
  -19.2712   14.1958  -20.4615 O   0  0  0  0  0  0  0  0  0  0  0  0
  -18.4336   15.2795  -20.5722 C   0  0  0  0  0  0  0  0  0  0  0  0
  -17.9391   15.9641  -19.4931 C   0  0  0  0  0  0  0  0  0  0  0  0
  -17.1001   17.0503  -19.5976 C   0  0  0  0  0  0  0  0  0  0  0  0
  -16.7478   17.4583  -20.8399 N   0  0  0  0  0  0  0  0  0  0  0  0
  -17.2110   16.8146  -21.9145 C   0  0  0  0  0  0  0  0  0  0  0  0
  -16.8310   17.2581  -23.1307 N   0  0  0  0  0  0  0  0  0  0  0  0
  -17.2816   16.6262  -24.2327 C   0  0  0  0  0  0  0  0  0  0  0  0
  -16.9436   17.0173  -25.3953 O   0  0  0  0  0  0  0  0  0  0  0  0
  -18.1227   15.5365  -24.1514 C   0  0  0  0  0  0  0  0  0  0  0  0
  -18.5029   15.0939  -22.9302 N   0  0  0  0  0  0  0  0  0  0  0  0
  -18.0491   15.7296  -21.8265 C   0  0  0  0  0  0  0  0  0  0  0  0
  -16.1911   18.0848  -23.2667 H   0  0  0  0  0  0  0  0  0  0  0  0
  -21.0279    5.7623  -13.5767 C   0  0  0  0  0  0  0  0  0  0  0  0
  -20.6038    6.3840  -14.7124 C   0  0  0  0  0  0  0  0  0  0  0  0
  -19.7219    7.4361  -14.2694 C   0  0  0  0  0  0  0  0  0  0  0  0
  -19.6656    7.3910  -12.9545 N   0  0  0  0  0  0  0  0  0  0  0  0
  -20.4720    6.3619  -12.5578 N   0  0  0  0  0  0  0  0  0  0  0  0
  -18.9772    8.0888  -11.9243 C   0  0  0  0  0  0  0  0  0  0  0  0
  -17.8488    7.5064  -11.3271 C   0  0  0  0  0  0  0  0  0  0  0  0
  -17.1872    8.1128  -10.2843 C   0  0  0  0  0  0  0  0  0  0  0  0
  -17.6242    9.3296   -9.7909 C   0  0  0  0  0  0  0  0  0  0  0  0
  -18.7323    9.9241  -10.3599 C   0  0  0  0  0  0  0  0  0  0  0  0
  -19.1402   11.1594   -9.8109 N   0  0  0  0  0  0  0  0  0  0  0  0
  -19.3803    9.3024  -11.4020 C   0  0  0  0  0  0  0  0  0  0  0  0
  -18.6961   12.0343  -10.1262 H   0  0  0  0  0  0  0  0  0  0  0  0
  -19.8836   11.1886   -9.0930 H   0  0  0  0  0  0  0  0  0  0  0  0
  -22.4537    4.3802  -14.9833 C   0  0  0  0  0  0  0  0  0  0  0  0
  -21.9754    4.5829  -13.5788 C   0  0  0  0  0  0  0  0  0  0  0  0
  -21.1596    3.4121  -13.0710 C   0  0  0  0  0  0  0  0  0  0  0  0
  -23.0697    4.8808  -12.6046 C   0  0  0  0  0  0  0  0  0  0  0  0
 44 45  1  0  0  0
 45 46  1  0  0  0
 45 47  1  0  0  0
 45 30  1  0  0  0
 30 31  1  0  0  0
 31 32  2  0  0  0
 32  1  1  0  0  0
  1  2  1  0  0  0
  2  3  2  0  0  0
  2  4  1  0  0  0
  4  7  1  0  0  0
  7  8  2  0  0  0
  8  9  1  0  0  0
  9 10  2  0  0  0
 10 17  1  0  0  0
 17 18  1  0  0  0
 18 19  2  0  0  0
 19 20  1  0  0  0
 20 21  2  0  0  0
 21 22  1  0  0  0
 22 23  1  0  0  0
 23 24  1  0  0  0
 24 25  2  0  0  0
 24 26  1  0  0  0
 26 27  2  0  0  0
 27 28  1  0  0  0
 10 11  1  0  0  0
 11 12  2  0  0  0
 12 13  1  0  0  0
 13 14  2  0  0  0
 14 15  1  0  0  0
 15 16  2  0  0  0
 32 33  1  0  0  0
 33 34  1  0  0  0
 33 35  1  0  0  0
 35 36  2  0  0  0
 36 37  1  0  0  0
 37 38  2  0  0  0
 38 39  1  0  0  0
 39 40  1  0  0  0
 39 41  2  0  0  0
 34 30  2  0  0  0
 41 35  1  0  0  0
 16  7  1  0  0  0
 28 18  1  0  0  0
 16 11  1  0  0  0
 28 22  2  0  0  0
  1  5  1  0  0  0
  4  6  1  0  0  0
 23 29  1  0  0  0
 40 42  1  0  0  0
 40 43  1  0  0  0
M  END
> <minimizedAffinity>
-9.85107

> <CNNscore>
0.0451190919

> <CNNaffinity>
6.5153207779

> <CNN_VS>
0.2939653695

> <CNNaffinity_variance>
0.2089872360

$$$$
[H]c1nc(N([H])[H])c([H])c(-n2c(N([H])c3c([H])c(N([H])C(=O)c4c([H])c([H])c([H])c(C(F)(F)F)c4[H])c([H])c([H])c3C([H])([H])[H])nc3c([H])c([H])c([H])c([H])c32)n1


 41 45  0  0  0  0  0  0  0  0999 V2000
  -18.9205   17.2888  -17.3598 C   0  0  0  0  0  0  0  0  0  0  0  0
  -18.8828   16.8077  -18.7862 C   0  0  0  0  0  0  0  0  0  0  0  0
  -19.0017   17.6703  -19.8256 C   0  0  0  0  0  0  0  0  0  0  0  0
  -19.0013   17.2253  -21.1280 C   0  0  0  0  0  0  0  0  0  0  0  0
  -18.8782   15.8787  -21.4296 C   0  0  0  0  0  0  0  0  0  0  0  0
  -18.7619   14.9916  -20.3928 C   0  0  0  0  0  0  0  0  0  0  0  0
  -18.7584   15.4134  -19.0596 C   0  0  0  0  0  0  0  0  0  0  0  0
  -18.8053   15.5402  -22.8455 N   0  0  0  0  0  0  0  0  0  0  0  0
  -17.7518   14.7309  -23.3057 C   0  0  0  0  0  0  0  0  0  0  0  0
  -16.9123   14.2644  -22.4445 O   0  0  0  0  0  0  0  0  0  0  0  0
  -19.5403   15.9040  -23.4512 H   0  0  0  0  0  0  0  0  0  0  0  0
  -17.4677   14.3371  -24.6583 C   0  0  0  0  0  0  0  0  0  0  0  0
  -17.8318   13.0403  -25.0927 C   0  0  0  0  0  0  0  0  0  0  0  0
  -17.5230   12.5762  -26.3423 C   0  0  0  0  0  0  0  0  0  0  0  0
  -16.8388   13.3665  -27.2252 C   0  0  0  0  0  0  0  0  0  0  0  0
  -16.4576   14.6407  -26.8582 C   0  0  0  0  0  0  0  0  0  0  0  0
  -16.7788   15.0929  -25.5953 C   0  0  0  0  0  0  0  0  0  0  0  0
  -15.7061   15.4271  -27.8710 C   0  0  0  0  0  0  0  0  0  0  0  0
  -14.8623   16.3196  -27.1949 F   0  0  0  0  0  0  0  0  0  0  0  0
  -16.4847   16.1561  -28.7162 F   0  0  0  0  0  0  0  0  0  0  0  0
  -14.9516   14.5655  -28.6723 F   0  0  0  0  0  0  0  0  0  0  0  0
  -18.5386   14.6499  -17.9269 N   0  0  0  0  0  0  0  0  0  0  0  0
  -17.5577   14.8468  -17.4529 H   0  0  0  0  0  0  0  0  0  0  0  0
  -19.3281   13.6567  -17.3376 C   0  0  0  0  0  0  0  0  0  0  0  0
  -20.3271   13.6343  -16.4514 N   0  0  0  0  0  0  0  0  0  0  0  0
  -20.6974   12.3658  -16.1254 C   0  0  0  0  0  0  0  0  0  0  0  0
  -21.6042   11.7943  -15.2697 C   0  0  0  0  0  0  0  0  0  0  0  0
  -21.6995   10.4275  -15.1377 C   0  0  0  0  0  0  0  0  0  0  0  0
  -20.8806    9.5886  -15.8724 C   0  0  0  0  0  0  0  0  0  0  0  0
  -19.9689   10.1600  -16.7358 C   0  0  0  0  0  0  0  0  0  0  0  0
  -19.8978   11.5486  -16.8401 C   0  0  0  0  0  0  0  0  0  0  0  0
  -19.0841   12.3036  -17.5645 N   0  0  0  0  0  0  0  0  0  0  0  0
  -18.0965   11.8010  -18.4464 C   0  0  0  0  0  0  0  0  0  0  0  0
  -18.3252   11.7760  -19.8046 C   0  0  0  0  0  0  0  0  0  0  0  0
  -17.3892   11.2996  -20.6831 C   0  0  0  0  0  0  0  0  0  0  0  0
  -17.6017   11.2804  -22.0952 N   0  0  0  0  0  0  0  0  0  0  0  0
  -16.2055   10.8394  -20.1898 N   0  0  0  0  0  0  0  0  0  0  0  0
  -15.9844   10.8654  -18.8542 C   0  0  0  0  0  0  0  0  0  0  0  0
  -16.9066   11.3312  -18.0269 N   0  0  0  0  0  0  0  0  0  0  0  0
  -17.0659   10.6152  -22.6871 H   0  0  0  0  0  0  0  0  0  0  0  0
  -18.3032   11.9435  -22.5060 H   0  0  0  0  0  0  0  0  0  0  0  0
  1  2  1  0  0  0
  2  3  2  0  0  0
  3  4  1  0  0  0
  4  5  2  0  0  0
  5  8  1  0  0  0
  8  9  1  0  0  0
  9 10  2  0  0  0
  9 12  1  0  0  0
 12 13  2  0  0  0
 13 14  1  0  0  0
 14 15  2  0  0  0
 15 16  1  0  0  0
 16 17  2  0  0  0
 16 18  1  0  0  0
 18 19  1  0  0  0
 18 20  1  0  0  0
 18 21  1  0  0  0
  5  6  1  0  0  0
  6  7  2  0  0  0
  7 22  1  0  0  0
 22 24  1  0  0  0
 24 25  2  0  0  0
 25 26  1  0  0  0
 26 27  2  0  0  0
 27 28  1  0  0  0
 28 29  2  0  0  0
 29 30  1  0  0  0
 30 31  2  0  0  0
 31 32  1  0  0  0
 32 33  1  0  0  0
 33 34  2  0  0  0
 34 35  1  0  0  0
 35 36  1  0  0  0
 35 37  2  0  0  0
 37 38  1  0  0  0
 38 39  2  0  0  0
  7  2  1  0  0  0
 32 24  1  0  0  0
 39 33  1  0  0  0
 17 12  1  0  0  0
 31 26  1  0  0  0
  8 11  1  0  0  0
 22 23  1  0  0  0
 36 40  1  0  0  0
 36 41  1  0  0  0
M  END
> <minimizedAffinity>
-9.53258

> <CNNscore>
0.3494637012

> <CNNaffinity>
7.2994332314

> <CNN_VS>
2.5508868694

> <CNNaffinity_variance>
0.3692701757

$$$$
[H]c1nc(N([H])[H])c([H])c(-n2c(N([H])c3c([H])c(N([H])C(=O)c4c([H])c([H])c([H])c(C(F)(F)F)c4[H])c([H])c([H])c3C([H])([H])[H])nc3c([H])c([H])c([H])c([H])c32)n1


 41 45  0  0  0  0  0  0  0  0999 V2000
  -18.7249   17.2706  -23.6499 C   0  0  0  0  0  0  0  0  0  0  0  0
  -18.7413   17.4998  -22.1617 C   0  0  0  0  0  0  0  0  0  0  0  0
  -18.7957   18.7505  -21.6405 C   0  0  0  0  0  0  0  0  0  0  0  0
  -18.7762   18.9600  -20.2804 C   0  0  0  0  0  0  0  0  0  0  0  0
  -18.7015   17.9019  -19.3891 C   0  0  0  0  0  0  0  0  0  0  0  0
  -18.6409   16.6315  -19.8968 C   0  0  0  0  0  0  0  0  0  0  0  0
  -18.6594   16.3869  -21.2735 C   0  0  0  0  0  0  0  0  0  0  0  0
  -18.7743   18.2456  -17.9744 N   0  0  0  0  0  0  0  0  0  0  0  0
  -20.0334   18.3959  -17.3672 C   0  0  0  0  0  0  0  0  0  0  0  0
  -21.0886   18.1662  -18.0727 O   0  0  0  0  0  0  0  0  0  0  0  0
  -17.8925   18.3553  -17.4744 H   0  0  0  0  0  0  0  0  0  0  0  0
  -20.3194   18.7882  -16.0146 C   0  0  0  0  0  0  0  0  0  0  0  0
  -19.3955   18.4687  -14.9911 C   0  0  0  0  0  0  0  0  0  0  0  0
  -19.6415   18.7456  -13.6740 C   0  0  0  0  0  0  0  0  0  0  0  0
  -20.8108   19.3496  -13.2998 C   0  0  0  0  0  0  0  0  0  0  0  0
  -21.7497   19.6852  -14.2535 C   0  0  0  0  0  0  0  0  0  0  0  0
  -21.4844   19.4004  -15.5768 C   0  0  0  0  0  0  0  0  0  0  0  0
  -22.9976   20.3251  -13.7611 C   0  0  0  0  0  0  0  0  0  0  0  0
  -22.7438   20.8597  -12.4901 F   0  0  0  0  0  0  0  0  0  0  0  0
  -24.0614   19.4837  -13.6494 F   0  0  0  0  0  0  0  0  0  0  0  0
  -23.3862   21.3396  -14.6406 F   0  0  0  0  0  0  0  0  0  0  0  0
  -18.7164   15.1646  -21.9192 N   0  0  0  0  0  0  0  0  0  0  0  0
  -19.2976   15.1965  -22.8608 H   0  0  0  0  0  0  0  0  0  0  0  0
  -18.2064   13.9175  -21.5427 C   0  0  0  0  0  0  0  0  0  0  0  0
  -18.3427   13.1116  -20.4864 N   0  0  0  0  0  0  0  0  0  0  0  0
  -17.5299   12.0224  -20.5619 C   0  0  0  0  0  0  0  0  0  0  0  0
  -17.2520   10.9444  -19.7608 C   0  0  0  0  0  0  0  0  0  0  0  0
  -16.3070   10.0107  -20.1214 C   0  0  0  0  0  0  0  0  0  0  0  0
  -15.6112   10.1336  -21.3109 C   0  0  0  0  0  0  0  0  0  0  0  0
  -15.8899   11.2156  -22.1201 C   0  0  0  0  0  0  0  0  0  0  0  0
  -16.8506   12.1436  -21.7202 C   0  0  0  0  0  0  0  0  0  0  0  0
  -17.2462   13.2622  -22.3111 N   0  0  0  0  0  0  0  0  0  0  0  0
  -16.7542   13.7298  -23.5541 C   0  0  0  0  0  0  0  0  0  0  0  0
  -15.4567   14.1799  -23.6632 C   0  0  0  0  0  0  0  0  0  0  0  0
  -14.9506   14.6348  -24.8514 C   0  0  0  0  0  0  0  0  0  0  0  0
  -13.6039   15.0902  -24.9877 N   0  0  0  0  0  0  0  0  0  0  0  0
  -15.7605   14.6393  -25.9469 N   0  0  0  0  0  0  0  0  0  0  0  0
  -17.0352   14.1963  -25.8357 C   0  0  0  0  0  0  0  0  0  0  0  0
  -17.4994   13.7619  -24.6749 N   0  0  0  0  0  0  0  0  0  0  0  0
  -13.3563   15.7401  -25.7598 H   0  0  0  0  0  0  0  0  0  0  0  0
  -12.8890   14.7566  -24.2961 H   0  0  0  0  0  0  0  0  0  0  0  0
  1  2  1  0  0  0
  2  3  2  0  0  0
  3  4  1  0  0  0
  4  5  2  0  0  0
  5  8  1  0  0  0
  8  9  1  0  0  0
  9 10  2  0  0  0
  9 12  1  0  0  0
 12 13  2  0  0  0
 13 14  1  0  0  0
 14 15  2  0  0  0
 15 16  1  0  0  0
 16 17  2  0  0  0
 16 18  1  0  0  0
 18 19  1  0  0  0
 18 20  1  0  0  0
 18 21  1  0  0  0
  5  6  1  0  0  0
  6  7  2  0  0  0
  7 22  1  0  0  0
 22 24  1  0  0  0
 24 25  2  0  0  0
 25 26  1  0  0  0
 26 27  2  0  0  0
 27 28  1  0  0  0
 28 29  2  0  0  0
 29 30  1  0  0  0
 30 31  2  0  0  0
 31 32  1  0  0  0
 32 33  1  0  0  0
 33 34  2  0  0  0
 34 35  1  0  0  0
 35 36  1  0  0  0
 35 37  2  0  0  0
 37 38  1  0  0  0
 38 39  2  0  0  0
  7  2  1  0  0  0
 32 24  1  0  0  0
 39 33  1  0  0  0
 17 12  1  0  0  0
 31 26  1  0  0  0
  8 11  1  0  0  0
 22 23  1  0  0  0
 36 40  1  0  0  0
 36 41  1  0  0  0
M  END
> <minimizedAffinity>
-9.06208

> <CNNscore>
0.1824566424

> <CNNaffinity>
6.5379266739

> <CNN_VS>
1.1928881407

> <CNNaffinity_variance>
0.2707988322

$$$$
[H]c1nc(N([H])[H])c([H])c(-n2c(N([H])c3c([H])c(N([H])C(=O)c4c([H])c([H])c([H])c(C(F)(F)F)c4[H])c([H])c([H])c3C([H])([H])[H])nc3c([H])c([H])c([H])c([H])c32)n1


 41 45  0  0  0  0  0  0  0  0999 V2000
  -15.6745   11.4548  -22.3360 C   0  0  0  0  0  0  0  0  0  0  0  0
  -16.5034   11.3782  -21.0811 C   0  0  0  0  0  0  0  0  0  0  0  0
  -16.3289   10.3805  -20.1795 C   0  0  0  0  0  0  0  0  0  0  0  0
  -17.1104   10.2925  -19.0500 C   0  0  0  0  0  0  0  0  0  0  0  0
  -18.1055   11.2201  -18.7879 C   0  0  0  0  0  0  0  0  0  0  0  0
  -18.3000   12.2324  -19.6896 C   0  0  0  0  0  0  0  0  0  0  0  0
  -17.5219   12.3485  -20.8456 C   0  0  0  0  0  0  0  0  0  0  0  0
  -18.8076   11.0699  -17.5194 N   0  0  0  0  0  0  0  0  0  0  0  0
  -19.1308    9.7806  -17.0609 C   0  0  0  0  0  0  0  0  0  0  0  0
  -18.7415    8.7649  -17.7543 O   0  0  0  0  0  0  0  0  0  0  0  0
  -19.0302   11.9215  -17.0049 H   0  0  0  0  0  0  0  0  0  0  0  0
  -19.8669    9.4232  -15.8795 C   0  0  0  0  0  0  0  0  0  0  0  0
  -19.1651    8.9687  -14.7376 C   0  0  0  0  0  0  0  0  0  0  0  0
  -19.8086    8.5414  -13.6082 C   0  0  0  0  0  0  0  0  0  0  0  0
  -21.1755    8.5393  -13.5486 C   0  0  0  0  0  0  0  0  0  0  0  0
  -21.9137    8.9719  -14.6310 C   0  0  0  0  0  0  0  0  0  0  0  0
  -21.2486    9.4009  -15.7607 C   0  0  0  0  0  0  0  0  0  0  0  0
  -23.3924    8.9241  -14.4886 C   0  0  0  0  0  0  0  0  0  0  0  0
  -23.8319   10.1834  -14.0565 F   0  0  0  0  0  0  0  0  0  0  0  0
  -23.8478    8.0009  -13.5984 F   0  0  0  0  0  0  0  0  0  0  0  0
  -23.9748    8.6079  -15.7192 F   0  0  0  0  0  0  0  0  0  0  0  0
  -17.5315   13.3708  -21.7778 N   0  0  0  0  0  0  0  0  0  0  0  0
  -16.8373   13.1963  -22.6223 H   0  0  0  0  0  0  0  0  0  0  0  0
  -18.2307   14.5825  -21.7851 C   0  0  0  0  0  0  0  0  0  0  0  0
  -19.0622   15.2080  -20.9476 N   0  0  0  0  0  0  0  0  0  0  0  0
  -19.5639   16.3549  -21.4818 C   0  0  0  0  0  0  0  0  0  0  0  0
  -20.4550   17.3185  -21.0836 C   0  0  0  0  0  0  0  0  0  0  0  0
  -20.7933   18.3650  -21.9113 C   0  0  0  0  0  0  0  0  0  0  0  0
  -20.2370   18.4754  -23.1732 C   0  0  0  0  0  0  0  0  0  0  0  0
  -19.3386   17.5090  -23.5761 C   0  0  0  0  0  0  0  0  0  0  0  0
  -19.0230   16.4610  -22.7123 C   0  0  0  0  0  0  0  0  0  0  0  0
  -18.2286   15.4168  -22.9012 N   0  0  0  0  0  0  0  0  0  0  0  0
  -17.4826   15.1799  -24.0814 C   0  0  0  0  0  0  0  0  0  0  0  0
  -16.3851   15.9580  -24.3780 C   0  0  0  0  0  0  0  0  0  0  0  0
  -15.6416   15.7517  -25.5092 C   0  0  0  0  0  0  0  0  0  0  0  0
  -14.4916   16.5374  -25.8255 N   0  0  0  0  0  0  0  0  0  0  0  0
  -16.0069   14.7496  -26.3567 N   0  0  0  0  0  0  0  0  0  0  0  0
  -17.0862   13.9870  -26.0619 C   0  0  0  0  0  0  0  0  0  0  0  0
  -17.7877   14.2079  -24.9615 N   0  0  0  0  0  0  0  0  0  0  0  0
  -14.1726   16.6084  -26.8118 H   0  0  0  0  0  0  0  0  0  0  0  0
  -13.9922   17.0319  -25.0465 H   0  0  0  0  0  0  0  0  0  0  0  0
  1  2  1  0  0  0
  2  3  2  0  0  0
  3  4  1  0  0  0
  4  5  2  0  0  0
  5  8  1  0  0  0
  8  9  1  0  0  0
  9 10  2  0  0  0
  9 12  1  0  0  0
 12 13  2  0  0  0
 13 14  1  0  0  0
 14 15  2  0  0  0
 15 16  1  0  0  0
 16 17  2  0  0  0
 16 18  1  0  0  0
 18 19  1  0  0  0
 18 20  1  0  0  0
 18 21  1  0  0  0
  5  6  1  0  0  0
  6  7  2  0  0  0
  7 22  1  0  0  0
 22 24  1  0  0  0
 24 25  2  0  0  0
 25 26  1  0  0  0
 26 27  2  0  0  0
 27 28  1  0  0  0
 28 29  2  0  0  0
 29 30  1  0  0  0
 30 31  2  0  0  0
 31 32  1  0  0  0
 32 33  1  0  0  0
 33 34  2  0  0  0
 34 35  1  0  0  0
 35 36  1  0  0  0
 35 37  2  0  0  0
 37 38  1  0  0  0
 38 39  2  0  0  0
  7  2  1  0  0  0
 32 24  1  0  0  0
 39 33  1  0  0  0
 17 12  1  0  0  0
 31 26  1  0  0  0
  8 11  1  0  0  0
 22 23  1  0  0  0
 36 40  1  0  0  0
 36 41  1  0  0  0
M  END
> <minimizedAffinity>
-9.54842

> <CNNscore>
0.1727733016

> <CNNaffinity>
6.7087869644

> <CNN_VS>
1.1590992212

> <CNNaffinity_variance>
0.1881031692

$$$$
[H]c1nc(N([H])[H])c([H])c(-n2c(N([H])c3c([H])c(N([H])C(=O)c4c([H])c([H])c([H])c(C(F)(F)F)c4[H])c([H])c([H])c3C([H])([H])[H])nc3c([H])c([H])c([H])c([H])c32)n1


 41 45  0  0  0  0  0  0  0  0999 V2000
  -15.5944   11.6201  -22.6623 C   0  0  0  0  0  0  0  0  0  0  0  0
  -16.4243   11.5793  -21.4064 C   0  0  0  0  0  0  0  0  0  0  0  0
  -16.1619   10.6919  -20.4153 C   0  0  0  0  0  0  0  0  0  0  0  0
  -16.9422   10.6328  -19.2831 C   0  0  0  0  0  0  0  0  0  0  0  0
  -18.0260   11.4783  -19.1097 C   0  0  0  0  0  0  0  0  0  0  0  0
  -18.3096   12.3783  -20.1023 C   0  0  0  0  0  0  0  0  0  0  0  0
  -17.5352   12.4624  -21.2635 C   0  0  0  0  0  0  0  0  0  0  0  0
  -18.7226   11.3783  -17.8332 N   0  0  0  0  0  0  0  0  0  0  0  0
  -19.0576   10.1088  -17.3304 C   0  0  0  0  0  0  0  0  0  0  0  0
  -18.6836    9.0662  -17.9916 O   0  0  0  0  0  0  0  0  0  0  0  0
  -18.9327   12.2491  -17.3462 H   0  0  0  0  0  0  0  0  0  0  0  0
  -19.7911    9.7992  -16.1339 C   0  0  0  0  0  0  0  0  0  0  0  0
  -21.0610   10.3892  -15.9284 C   0  0  0  0  0  0  0  0  0  0  0  0
  -21.7771   10.1967  -14.7784 C   0  0  0  0  0  0  0  0  0  0  0  0
  -21.2767    9.4145  -13.7735 C   0  0  0  0  0  0  0  0  0  0  0  0
  -20.0436    8.8125  -13.9171 C   0  0  0  0  0  0  0  0  0  0  0  0
  -19.3362    9.0159  -15.0836 C   0  0  0  0  0  0  0  0  0  0  0  0
  -19.5679    7.9913  -12.7732 C   0  0  0  0  0  0  0  0  0  0  0  0
  -18.3116    8.4738  -12.3800 F   0  0  0  0  0  0  0  0  0  0  0  0
  -19.4336    6.6643  -13.0437 F   0  0  0  0  0  0  0  0  0  0  0  0
  -20.4738    8.0893  -11.7133 F   0  0  0  0  0  0  0  0  0  0  0  0
  -17.6356   13.3876  -22.2873 N   0  0  0  0  0  0  0  0  0  0  0  0
  -17.2700   13.0030  -23.2588 H   0  0  0  0  0  0  0  0  0  0  0  0
  -18.0704   14.7171  -22.2662 C   0  0  0  0  0  0  0  0  0  0  0  0
  -19.0473   15.3907  -21.6532 N   0  0  0  0  0  0  0  0  0  0  0  0
  -19.1096   16.6887  -22.0577 C   0  0  0  0  0  0  0  0  0  0  0  0
  -19.9157   17.7655  -21.7897 C   0  0  0  0  0  0  0  0  0  0  0  0
  -19.7325   18.9717  -22.4270 C   0  0  0  0  0  0  0  0  0  0  0  0
  -18.7214   19.1320  -23.3576 C   0  0  0  0  0  0  0  0  0  0  0  0
  -17.9072   18.0516  -23.6279 C   0  0  0  0  0  0  0  0  0  0  0  0
  -18.1253   16.8440  -22.9660 C   0  0  0  0  0  0  0  0  0  0  0  0
  -17.5010   15.6818  -23.0950 N   0  0  0  0  0  0  0  0  0  0  0  0
  -16.4058   15.4520  -23.9630 C   0  0  0  0  0  0  0  0  0  0  0  0
  -16.5333   15.6735  -25.3166 C   0  0  0  0  0  0  0  0  0  0  0  0
  -15.4922   15.4640  -26.1810 C   0  0  0  0  0  0  0  0  0  0  0  0
  -15.6003   15.7031  -27.5849 N   0  0  0  0  0  0  0  0  0  0  0  0
  -14.3050   15.0235  -25.6785 N   0  0  0  0  0  0  0  0  0  0  0  0
  -14.1835   14.8068  -24.3474 C   0  0  0  0  0  0  0  0  0  0  0  0
  -15.2061   15.0172  -23.5338 N   0  0  0  0  0  0  0  0  0  0  0  0
  -14.9570   15.2174  -28.2405 H   0  0  0  0  0  0  0  0  0  0  0  0
  -16.3365   16.3686  -27.9252 H   0  0  0  0  0  0  0  0  0  0  0  0
  1  2  1  0  0  0
  2  3  2  0  0  0
  3  4  1  0  0  0
  4  5  2  0  0  0
  5  8  1  0  0  0
  8  9  1  0  0  0
  9 10  2  0  0  0
  9 12  1  0  0  0
 12 13  2  0  0  0
 13 14  1  0  0  0
 14 15  2  0  0  0
 15 16  1  0  0  0
 16 17  2  0  0  0
 16 18  1  0  0  0
 18 19  1  0  0  0
 18 20  1  0  0  0
 18 21  1  0  0  0
  5  6  1  0  0  0
  6  7  2  0  0  0
  7 22  1  0  0  0
 22 24  1  0  0  0
 24 25  2  0  0  0
 25 26  1  0  0  0
 26 27  2  0  0  0
 27 28  1  0  0  0
 28 29  2  0  0  0
 29 30  1  0  0  0
 30 31  2  0  0  0
 31 32  1  0  0  0
 32 33  1  0  0  0
 33 34  2  0  0  0
 34 35  1  0  0  0
 35 36  1  0  0  0
 35 37  2  0  0  0
 37 38  1  0  0  0
 38 39  2  0  0  0
  7  2  1  0  0  0
 32 24  1  0  0  0
 39 33  1  0  0  0
 17 12  1  0  0  0
 31 26  1  0  0  0
  8 11  1  0  0  0
 22 23  1  0  0  0
 36 40  1  0  0  0
 36 41  1  0  0  0
M  END
> <minimizedAffinity>
-9.79732

> <CNNscore>
0.1584219486

> <CNNaffinity>
6.5937881470

> <CNN_VS>
1.0446007252

> <CNNaffinity_variance>
0.2544887364

$$$$
[H]c1nc(N([H])[H])c([H])c(-n2c(N([H])c3c([H])c(N([H])C(=O)c4c([H])c([H])c([H])c(C(F)(F)F)c4[H])c([H])c([H])c3C([H])([H])[H])nc3c([H])c([H])c([H])c([H])c32)n1


 41 45  0  0  0  0  0  0  0  0999 V2000
  -18.0321   17.0160  -23.8335 C   0  0  0  0  0  0  0  0  0  0  0  0
  -18.2109   17.4955  -22.4173 C   0  0  0  0  0  0  0  0  0  0  0  0
  -18.0843   18.8064  -22.0945 C   0  0  0  0  0  0  0  0  0  0  0  0
  -18.2143   19.2385  -20.7942 C   0  0  0  0  0  0  0  0  0  0  0  0
  -18.4809   18.3522  -19.7633 C   0  0  0  0  0  0  0  0  0  0  0  0
  -18.6074   17.0233  -20.0692 C   0  0  0  0  0  0  0  0  0  0  0  0
  -18.4812   16.5541  -21.3804 C   0  0  0  0  0  0  0  0  0  0  0  0
  -18.6808   18.9400  -18.4446 N   0  0  0  0  0  0  0  0  0  0  0  0
  -19.9449   18.8491  -17.8357 C   0  0  0  0  0  0  0  0  0  0  0  0
  -20.8753   18.1939  -18.4431 O   0  0  0  0  0  0  0  0  0  0  0  0
  -17.8780   19.3923  -18.0081 H   0  0  0  0  0  0  0  0  0  0  0  0
  -20.3616   19.4100  -16.5798 C   0  0  0  0  0  0  0  0  0  0  0  0
  -20.7383   20.7730  -16.5214 C   0  0  0  0  0  0  0  0  0  0  0  0
  -21.0719   21.3877  -15.3454 C   0  0  0  0  0  0  0  0  0  0  0  0
  -21.0494   20.6902  -14.1685 C   0  0  0  0  0  0  0  0  0  0  0  0
  -20.6907   19.3579  -14.1631 C   0  0  0  0  0  0  0  0  0  0  0  0
  -20.3591   18.7538  -15.3579 C   0  0  0  0  0  0  0  0  0  0  0  0
  -20.6786   18.6785  -12.8412 C   0  0  0  0  0  0  0  0  0  0  0  0
  -21.6804   17.6975  -12.8437 F   0  0  0  0  0  0  0  0  0  0  0  0
  -20.9072   19.4981  -11.7791 F   0  0  0  0  0  0  0  0  0  0  0  0
  -19.4296   18.0896  -12.6250 F   0  0  0  0  0  0  0  0  0  0  0  0
  -18.6927   15.2692  -21.8478 N   0  0  0  0  0  0  0  0  0  0  0  0
  -19.2476   15.2401  -22.8052 H   0  0  0  0  0  0  0  0  0  0  0  0
  -18.3636   14.0339  -21.2795 C   0  0  0  0  0  0  0  0  0  0  0  0
  -18.6459   13.4059  -20.1350 N   0  0  0  0  0  0  0  0  0  0  0  0
  -17.9780   12.2258  -20.0174 C   0  0  0  0  0  0  0  0  0  0  0  0
  -17.8744   11.2442  -19.0651 C   0  0  0  0  0  0  0  0  0  0  0  0
  -17.0438   10.1611  -19.2425 C   0  0  0  0  0  0  0  0  0  0  0  0
  -16.2897   10.0310  -20.3951 C   0  0  0  0  0  0  0  0  0  0  0  0
  -16.3931   11.0154  -21.3560 C   0  0  0  0  0  0  0  0  0  0  0  0
  -17.2417   12.1004  -21.1399 C   0  0  0  0  0  0  0  0  0  0  0  0
  -17.4652   13.1656  -21.8966 N   0  0  0  0  0  0  0  0  0  0  0  0
  -16.8664   13.3917  -23.1599 C   0  0  0  0  0  0  0  0  0  0  0  0
  -17.3781   12.7910  -24.2891 C   0  0  0  0  0  0  0  0  0  0  0  0
  -16.8239   12.9924  -25.5250 C   0  0  0  0  0  0  0  0  0  0  0  0
  -17.3497   12.3913  -26.7090 N   0  0  0  0  0  0  0  0  0  0  0  0
  -15.7378   13.8085  -25.6282 N   0  0  0  0  0  0  0  0  0  0  0  0
  -15.2377   14.3970  -24.5161 C   0  0  0  0  0  0  0  0  0  0  0  0
  -15.7927   14.1851  -23.3333 N   0  0  0  0  0  0  0  0  0  0  0  0
  -16.7355   12.2635  -27.5373 H   0  0  0  0  0  0  0  0  0  0  0  0
  -18.3538   12.0872  -26.7138 H   0  0  0  0  0  0  0  0  0  0  0  0
  1  2  1  0  0  0
  2  3  2  0  0  0
  3  4  1  0  0  0
  4  5  2  0  0  0
  5  8  1  0  0  0
  8  9  1  0  0  0
  9 10  2  0  0  0
  9 12  1  0  0  0
 12 13  2  0  0  0
 13 14  1  0  0  0
 14 15  2  0  0  0
 15 16  1  0  0  0
 16 17  2  0  0  0
 16 18  1  0  0  0
 18 19  1  0  0  0
 18 20  1  0  0  0
 18 21  1  0  0  0
  5  6  1  0  0  0
  6  7  2  0  0  0
  7 22  1  0  0  0
 22 24  1  0  0  0
 24 25  2  0  0  0
 25 26  1  0  0  0
 26 27  2  0  0  0
 27 28  1  0  0  0
 28 29  2  0  0  0
 29 30  1  0  0  0
 30 31  2  0  0  0
 31 32  1  0  0  0
 32 33  1  0  0  0
 33 34  2  0  0  0
 34 35  1  0  0  0
 35 36  1  0  0  0
 35 37  2  0  0  0
 37 38  1  0  0  0
 38 39  2  0  0  0
  7  2  1  0  0  0
 32 24  1  0  0  0
 39 33  1  0  0  0
 17 12  1  0  0  0
 31 26  1  0  0  0
  8 11  1  0  0  0
 22 23  1  0  0  0
 36 40  1  0  0  0
 36 41  1  0  0  0
M  END
> <minimizedAffinity>
-9.45254

> <CNNscore>
0.1311529875

> <CNNaffinity>
6.5920438766

> <CNN_VS>
0.8645662665

> <CNNaffinity_variance>
0.1681998074

$$$$
[H]c1nc(N([H])[H])c([H])c(-n2c(N([H])c3c([H])c(N([H])C(=O)c4c([H])c([H])c([H])c(C(F)(F)F)c4[H])c([H])c([H])c3C([H])([H])[H])nc3c([H])c([H])c([H])c([H])c32)n1


 41 45  0  0  0  0  0  0  0  0999 V2000
  -16.1095   10.7442  -21.0570 C   0  0  0  0  0  0  0  0  0  0  0  0
  -17.0605   10.7379  -19.8895 C   0  0  0  0  0  0  0  0  0  0  0  0
  -17.0499    9.7361  -18.9757 C   0  0  0  0  0  0  0  0  0  0  0  0
  -17.9424    9.7140  -17.9282 C   0  0  0  0  0  0  0  0  0  0  0  0
  -18.8864   10.7147  -17.7644 C   0  0  0  0  0  0  0  0  0  0  0  0
  -18.9157   11.7326  -18.6802 C   0  0  0  0  0  0  0  0  0  0  0  0
  -18.0219   11.7828  -19.7543 C   0  0  0  0  0  0  0  0  0  0  0  0
  -19.7184   10.6256  -16.5708 N   0  0  0  0  0  0  0  0  0  0  0  0
  -20.0711    9.3595  -16.0715 C   0  0  0  0  0  0  0  0  0  0  0  0
  -19.5957    8.3126  -16.6564 O   0  0  0  0  0  0  0  0  0  0  0  0
  -20.0066   11.5015  -16.1358 H   0  0  0  0  0  0  0  0  0  0  0  0
  -20.9247    9.0577  -14.9555 C   0  0  0  0  0  0  0  0  0  0  0  0
  -21.4618   10.1187  -14.1881 C   0  0  0  0  0  0  0  0  0  0  0  0
  -22.2187    9.8994  -13.0695 C   0  0  0  0  0  0  0  0  0  0  0  0
  -22.4825    8.6238  -12.6508 C   0  0  0  0  0  0  0  0  0  0  0  0
  -21.9861    7.5488  -13.3591 C   0  0  0  0  0  0  0  0  0  0  0  0
  -21.2265    7.7882  -14.4853 C   0  0  0  0  0  0  0  0  0  0  0  0
  -22.3073    6.1981  -12.8285 C   0  0  0  0  0  0  0  0  0  0  0  0
  -22.7364    5.3983  -13.8972 F   0  0  0  0  0  0  0  0  0  0  0  0
  -23.2834    6.1775  -11.8805 F   0  0  0  0  0  0  0  0  0  0  0  0
  -21.1699    5.6408  -12.2374 F   0  0  0  0  0  0  0  0  0  0  0  0
  -17.8640   12.7966  -20.6824 N   0  0  0  0  0  0  0  0  0  0  0  0
  -17.6972   12.4230  -21.7110 H   0  0  0  0  0  0  0  0  0  0  0  0
  -17.8332   14.1846  -20.5101 C   0  0  0  0  0  0  0  0  0  0  0  0
  -18.2422   15.0371  -19.5667 N   0  0  0  0  0  0  0  0  0  0  0  0
  -18.0620   16.3354  -19.9334 C   0  0  0  0  0  0  0  0  0  0  0  0
  -18.3347   17.5609  -19.3814 C   0  0  0  0  0  0  0  0  0  0  0  0
  -18.0590   18.7272  -20.0585 C   0  0  0  0  0  0  0  0  0  0  0  0
  -17.4922   18.6940  -21.3201 C   0  0  0  0  0  0  0  0  0  0  0  0
  -17.2145   17.4629  -21.8774 C   0  0  0  0  0  0  0  0  0  0  0  0
  -17.5114   16.3025  -21.1637 C   0  0  0  0  0  0  0  0  0  0  0  0
  -17.3687   15.0321  -21.5140 N   0  0  0  0  0  0  0  0  0  0  0  0
  -16.8220   14.5964  -22.7456 C   0  0  0  0  0  0  0  0  0  0  0  0
  -15.5847   15.0438  -23.1539 C   0  0  0  0  0  0  0  0  0  0  0  0
  -15.0277   14.6385  -24.3373 C   0  0  0  0  0  0  0  0  0  0  0  0
  -13.7398   15.0788  -24.7699 N   0  0  0  0  0  0  0  0  0  0  0  0
  -15.7248   13.7716  -25.1238 N   0  0  0  0  0  0  0  0  0  0  0  0
  -16.9407   13.3341  -24.7192 C   0  0  0  0  0  0  0  0  0  0  0  0
  -17.4561   13.7420  -23.5704 N   0  0  0  0  0  0  0  0  0  0  0  0
  -13.5014   15.0567  -25.7810 H   0  0  0  0  0  0  0  0  0  0  0  0
  -13.0582   15.4205  -24.0492 H   0  0  0  0  0  0  0  0  0  0  0  0
  1  2  1  0  0  0
  2  3  2  0  0  0
  3  4  1  0  0  0
  4  5  2  0  0  0
  5  8  1  0  0  0
  8  9  1  0  0  0
  9 10  2  0  0  0
  9 12  1  0  0  0
 12 13  2  0  0  0
 13 14  1  0  0  0
 14 15  2  0  0  0
 15 16  1  0  0  0
 16 17  2  0  0  0
 16 18  1  0  0  0
 18 19  1  0  0  0
 18 20  1  0  0  0
 18 21  1  0  0  0
  5  6  1  0  0  0
  6  7  2  0  0  0
  7 22  1  0  0  0
 22 24  1  0  0  0
 24 25  2  0  0  0
 25 26  1  0  0  0
 26 27  2  0  0  0
 27 28  1  0  0  0
 28 29  2  0  0  0
 29 30  1  0  0  0
 30 31  2  0  0  0
 31 32  1  0  0  0
 32 33  1  0  0  0
 33 34  2  0  0  0
 34 35  1  0  0  0
 35 36  1  0  0  0
 35 37  2  0  0  0
 37 38  1  0  0  0
 38 39  2  0  0  0
  7  2  1  0  0  0
 32 24  1  0  0  0
 39 33  1  0  0  0
 17 12  1  0  0  0
 31 26  1  0  0  0
  8 11  1  0  0  0
 22 23  1  0  0  0
 36 40  1  0  0  0
 36 41  1  0  0  0
M  END
> <minimizedAffinity>
-8.71699

> <CNNscore>
0.1174436808

> <CNNaffinity>
6.6775078773

> <CNN_VS>
0.7842311263

> <CNNaffinity_variance>
0.0949501097

$$$$
[H]c1nc(N([H])[H])c([H])c(-n2c(N([H])c3c([H])c(N([H])C(=O)c4c([H])c([H])c([H])c(C(F)(F)F)c4[H])c([H])c([H])c3C([H])([H])[H])nc3c([H])c([H])c([H])c([H])c32)n1


 41 45  0  0  0  0  0  0  0  0999 V2000
  -15.6378   11.6487  -22.6514 C   0  0  0  0  0  0  0  0  0  0  0  0
  -16.4439   11.6026  -21.3804 C   0  0  0  0  0  0  0  0  0  0  0  0
  -16.1497   10.7253  -20.3891 C   0  0  0  0  0  0  0  0  0  0  0  0
  -16.9082   10.6610  -19.2425 C   0  0  0  0  0  0  0  0  0  0  0  0
  -18.0017   11.4906  -19.0541 C   0  0  0  0  0  0  0  0  0  0  0  0
  -18.3175   12.3800  -20.0465 C   0  0  0  0  0  0  0  0  0  0  0  0
  -17.5657   12.4691  -21.2222 C   0  0  0  0  0  0  0  0  0  0  0  0
  -18.6733   11.3875  -17.7645 N   0  0  0  0  0  0  0  0  0  0  0  0
  -19.0071   10.1172  -17.2627 C   0  0  0  0  0  0  0  0  0  0  0  0
  -18.6537    9.0762  -17.9376 O   0  0  0  0  0  0  0  0  0  0  0  0
  -18.8676   12.2566  -17.2682 H   0  0  0  0  0  0  0  0  0  0  0  0
  -19.7186    9.8053  -16.0537 C   0  0  0  0  0  0  0  0  0  0  0  0
  -20.1233    8.4705  -15.8134 C   0  0  0  0  0  0  0  0  0  0  0  0
  -20.8684    8.1198  -14.7207 C   0  0  0  0  0  0  0  0  0  0  0  0
  -21.2529    9.0671  -13.8115 C   0  0  0  0  0  0  0  0  0  0  0  0
  -20.8875   10.3852  -13.9924 C   0  0  0  0  0  0  0  0  0  0  0  0
  -20.1348   10.7207  -15.0985 C   0  0  0  0  0  0  0  0  0  0  0  0
  -21.3581   11.3520  -12.9663 C   0  0  0  0  0  0  0  0  0  0  0  0
  -21.5647   12.5895  -13.5923 F   0  0  0  0  0  0  0  0  0  0  0  0
  -20.4931   11.5514  -11.9347 F   0  0  0  0  0  0  0  0  0  0  0  0
  -22.5511   10.8949  -12.3994 F   0  0  0  0  0  0  0  0  0  0  0  0
  -17.6992   13.3865  -22.2492 N   0  0  0  0  0  0  0  0  0  0  0  0
  -17.3854   12.9872  -23.2329 H   0  0  0  0  0  0  0  0  0  0  0  0
  -18.1116   14.7230  -22.2211 C   0  0  0  0  0  0  0  0  0  0  0  0
  -19.0694   15.4118  -21.5949 N   0  0  0  0  0  0  0  0  0  0  0  0
  -19.1153   16.7112  -21.9971 C   0  0  0  0  0  0  0  0  0  0  0  0
  -19.9000   17.8008  -21.7176 C   0  0  0  0  0  0  0  0  0  0  0  0
  -19.7049   19.0047  -22.3557 C   0  0  0  0  0  0  0  0  0  0  0  0
  -18.7032   19.1496  -23.2989 C   0  0  0  0  0  0  0  0  0  0  0  0
  -17.9105   18.0562  -23.5808 C   0  0  0  0  0  0  0  0  0  0  0  0
  -18.1402   16.8514  -22.9176 C   0  0  0  0  0  0  0  0  0  0  0  0
  -17.5369   15.6793  -23.0559 N   0  0  0  0  0  0  0  0  0  0  0  0
  -16.4568   15.4325  -23.9380 C   0  0  0  0  0  0  0  0  0  0  0  0
  -16.6419   15.5057  -25.3011 C   0  0  0  0  0  0  0  0  0  0  0  0
  -15.6170   15.2760  -26.1796 C   0  0  0  0  0  0  0  0  0  0  0  0
  -15.7856   15.3628  -27.5952 N   0  0  0  0  0  0  0  0  0  0  0  0
  -14.3873   14.9664  -25.6815 N   0  0  0  0  0  0  0  0  0  0  0  0
  -14.2092   14.8953  -24.3411 C   0  0  0  0  0  0  0  0  0  0  0  0
  -15.2173   15.1219  -23.5140 N   0  0  0  0  0  0  0  0  0  0  0  0
  -15.1320   14.8548  -28.2232 H   0  0  0  0  0  0  0  0  0  0  0  0
  -16.5756   15.9414  -27.9717 H   0  0  0  0  0  0  0  0  0  0  0  0
  1  2  1  0  0  0
  2  3  2  0  0  0
  3  4  1  0  0  0
  4  5  2  0  0  0
  5  8  1  0  0  0
  8  9  1  0  0  0
  9 10  2  0  0  0
  9 12  1  0  0  0
 12 13  2  0  0  0
 13 14  1  0  0  0
 14 15  2  0  0  0
 15 16  1  0  0  0
 16 17  2  0  0  0
 16 18  1  0  0  0
 18 19  1  0  0  0
 18 20  1  0  0  0
 18 21  1  0  0  0
  5  6  1  0  0  0
  6  7  2  0  0  0
  7 22  1  0  0  0
 22 24  1  0  0  0
 24 25  2  0  0  0
 25 26  1  0  0  0
 26 27  2  0  0  0
 27 28  1  0  0  0
 28 29  2  0  0  0
 29 30  1  0  0  0
 30 31  2  0  0  0
 31 32  1  0  0  0
 32 33  1  0  0  0
 33 34  2  0  0  0
 34 35  1  0  0  0
 35 36  1  0  0  0
 35 37  2  0  0  0
 37 38  1  0  0  0
 38 39  2  0  0  0
  7  2  1  0  0  0
 32 24  1  0  0  0
 39 33  1  0  0  0
 17 12  1  0  0  0
 31 26  1  0  0  0
  8 11  1  0  0  0
 22 23  1  0  0  0
 36 40  1  0  0  0
 36 41  1  0  0  0
M  END
> <minimizedAffinity>
-9.59246

> <CNNscore>
0.1151639968

> <CNNaffinity>
6.5167970657

> <CNN_VS>
0.7505003810

> <CNNaffinity_variance>
0.2604547441

$$$$
[H]c1nc(N([H])[H])c([H])c(-n2c(N([H])c3c([H])c(N([H])C(=O)c4c([H])c([H])c([H])c(C(F)(F)F)c4[H])c([H])c([H])c3C([H])([H])[H])nc3c([H])c([H])c([H])c([H])c32)n1


 41 45  0  0  0  0  0  0  0  0999 V2000
  -19.4537   16.9882  -22.6689 C   0  0  0  0  0  0  0  0  0  0  0  0
  -19.7436   17.2639  -21.2172 C   0  0  0  0  0  0  0  0  0  0  0  0
  -20.6980   18.1519  -20.8440 C   0  0  0  0  0  0  0  0  0  0  0  0
  -20.9384   18.4281  -19.5173 C   0  0  0  0  0  0  0  0  0  0  0  0
  -20.2163   17.8093  -18.5098 C   0  0  0  0  0  0  0  0  0  0  0  0
  -19.2447   16.9128  -18.8673 C   0  0  0  0  0  0  0  0  0  0  0  0
  -18.9777   16.6112  -20.2064 C   0  0  0  0  0  0  0  0  0  0  0  0
  -20.6204   18.1199  -17.1442 N   0  0  0  0  0  0  0  0  0  0  0  0
  -21.4211   17.2043  -16.4390 C   0  0  0  0  0  0  0  0  0  0  0  0
  -21.7250   16.0868  -17.0072 O   0  0  0  0  0  0  0  0  0  0  0  0
  -20.2913   18.9999  -16.7483 H   0  0  0  0  0  0  0  0  0  0  0  0
  -21.9724   17.3478  -15.1196 C   0  0  0  0  0  0  0  0  0  0  0  0
  -23.2599   16.8272  -14.8469 C   0  0  0  0  0  0  0  0  0  0  0  0
  -23.8733   16.9960  -13.6356 C   0  0  0  0  0  0  0  0  0  0  0  0
  -23.2491   17.6874  -12.6334 C   0  0  0  0  0  0  0  0  0  0  0  0
  -21.9923   18.2177  -12.8404 C   0  0  0  0  0  0  0  0  0  0  0  0
  -21.3880   18.0365  -14.0670 C   0  0  0  0  0  0  0  0  0  0  0  0
  -21.3916   18.9659  -11.7053 C   0  0  0  0  0  0  0  0  0  0  0  0
  -22.2332   18.8242  -10.5929 F   0  0  0  0  0  0  0  0  0  0  0  0
  -21.2239   20.2979  -11.9282 F   0  0  0  0  0  0  0  0  0  0  0  0
  -20.1245   18.4502  -11.4183 F   0  0  0  0  0  0  0  0  0  0  0  0
  -18.1124   15.6542  -20.7062 N   0  0  0  0  0  0  0  0  0  0  0  0
  -17.4798   16.0291  -21.5336 H   0  0  0  0  0  0  0  0  0  0  0  0
  -17.9591   14.3062  -20.3650 C   0  0  0  0  0  0  0  0  0  0  0  0
  -18.2229   13.5593  -19.2895 N   0  0  0  0  0  0  0  0  0  0  0  0
  -17.7797   12.2802  -19.4302 C   0  0  0  0  0  0  0  0  0  0  0  0
  -17.7553   11.1552  -18.6459 C   0  0  0  0  0  0  0  0  0  0  0  0
  -17.1685    9.9902  -19.0854 C   0  0  0  0  0  0  0  0  0  0  0  0
  -16.5879    9.9214  -20.3392 C   0  0  0  0  0  0  0  0  0  0  0  0
  -16.6127   11.0505  -21.1316 C   0  0  0  0  0  0  0  0  0  0  0  0
  -17.2122   12.2142  -20.6514 C   0  0  0  0  0  0  0  0  0  0  0  0
  -17.3158   13.4092  -21.2155 N   0  0  0  0  0  0  0  0  0  0  0  0
  -16.8323   13.7308  -22.5072 C   0  0  0  0  0  0  0  0  0  0  0  0
  -17.2286   12.9934  -23.6012 C   0  0  0  0  0  0  0  0  0  0  0  0
  -16.7816   13.2814  -24.8631 C   0  0  0  0  0  0  0  0  0  0  0  0
  -17.1935   12.5386  -26.0113 N   0  0  0  0  0  0  0  0  0  0  0  0
  -15.9220   14.3253  -25.0287 N   0  0  0  0  0  0  0  0  0  0  0  0
  -15.5347   15.0477  -23.9510 C   0  0  0  0  0  0  0  0  0  0  0  0
  -15.9818   14.7477  -22.7419 N   0  0  0  0  0  0  0  0  0  0  0  0
  -16.5964   12.5330  -26.8617 H   0  0  0  0  0  0  0  0  0  0  0  0
  -18.0976   12.0081  -25.9677 H   0  0  0  0  0  0  0  0  0  0  0  0
  1  2  1  0  0  0
  2  3  2  0  0  0
  3  4  1  0  0  0
  4  5  2  0  0  0
  5  8  1  0  0  0
  8  9  1  0  0  0
  9 10  2  0  0  0
  9 12  1  0  0  0
 12 13  2  0  0  0
 13 14  1  0  0  0
 14 15  2  0  0  0
 15 16  1  0  0  0
 16 17  2  0  0  0
 16 18  1  0  0  0
 18 19  1  0  0  0
 18 20  1  0  0  0
 18 21  1  0  0  0
  5  6  1  0  0  0
  6  7  2  0  0  0
  7 22  1  0  0  0
 22 24  1  0  0  0
 24 25  2  0  0  0
 25 26  1  0  0  0
 26 27  2  0  0  0
 27 28  1  0  0  0
 28 29  2  0  0  0
 29 30  1  0  0  0
 30 31  2  0  0  0
 31 32  1  0  0  0
 32 33  1  0  0  0
 33 34  2  0  0  0
 34 35  1  0  0  0
 35 36  1  0  0  0
 35 37  2  0  0  0
 37 38  1  0  0  0
 38 39  2  0  0  0
  7  2  1  0  0  0
 32 24  1  0  0  0
 39 33  1  0  0  0
 17 12  1  0  0  0
 31 26  1  0  0  0
  8 11  1  0  0  0
 22 23  1  0  0  0
 36 40  1  0  0  0
 36 41  1  0  0  0
M  END
> <minimizedAffinity>
-8.48027

> <CNNscore>
0.0982600823

> <CNNaffinity>
6.4422926903

> <CNN_VS>
0.6330202222

> <CNNaffinity_variance>
0.1249889508

$$$$
[H]c1nc(N([H])[H])c([H])c(-n2c(N([H])c3c([H])c(N([H])C(=O)c4c([H])c([H])c([H])c(C(F)(F)F)c4[H])c([H])c([H])c3C([H])([H])[H])nc3c([H])c([H])c([H])c([H])c32)n1


 41 45  0  0  0  0  0  0  0  0999 V2000
  -16.4687   10.1232  -19.4965 C   0  0  0  0  0  0  0  0  0  0  0  0
  -17.6564   10.5164  -18.6584 C   0  0  0  0  0  0  0  0  0  0  0  0
  -18.2601    9.6295  -17.8292 C   0  0  0  0  0  0  0  0  0  0  0  0
  -19.3663    9.9806  -17.0895 C   0  0  0  0  0  0  0  0  0  0  0  0
  -19.9068   11.2543  -17.1611 C   0  0  0  0  0  0  0  0  0  0  0  0
  -19.3136   12.1626  -17.9970 C   0  0  0  0  0  0  0  0  0  0  0  0
  -18.1886   11.8357  -18.7605 C   0  0  0  0  0  0  0  0  0  0  0  0
  -21.0246   11.5304  -16.2674 N   0  0  0  0  0  0  0  0  0  0  0  0
  -20.7788   11.7139  -14.8952 C   0  0  0  0  0  0  0  0  0  0  0  0
  -19.5579   11.6891  -14.4797 O   0  0  0  0  0  0  0  0  0  0  0  0
  -21.9530   11.5889  -16.6847 H   0  0  0  0  0  0  0  0  0  0  0  0
  -21.7390   11.9319  -13.8484 C   0  0  0  0  0  0  0  0  0  0  0  0
  -23.0813   12.2229  -14.1899 C   0  0  0  0  0  0  0  0  0  0  0  0
  -24.0272   12.5150  -13.2454 C   0  0  0  0  0  0  0  0  0  0  0  0
  -23.6970   12.5363  -11.9178 C   0  0  0  0  0  0  0  0  0  0  0  0
  -22.4038   12.2602  -11.5242 C   0  0  0  0  0  0  0  0  0  0  0  0
  -21.4635   11.9660  -12.4895 C   0  0  0  0  0  0  0  0  0  0  0  0
  -22.1265   12.3185  -10.0651 C   0  0  0  0  0  0  0  0  0  0  0  0
  -23.2422   12.8815   -9.4293 F   0  0  0  0  0  0  0  0  0  0  0  0
  -21.0388   13.0613   -9.7229 F   0  0  0  0  0  0  0  0  0  0  0  0
  -21.8947   11.0294   -9.5771 F   0  0  0  0  0  0  0  0  0  0  0  0
  -17.4264   12.6748  -19.5537 N   0  0  0  0  0  0  0  0  0  0  0  0
  -16.6625   13.2376  -18.9834 H   0  0  0  0  0  0  0  0  0  0  0  0
  -17.5098   12.9483  -20.9231 C   0  0  0  0  0  0  0  0  0  0  0  0
  -17.2197   12.2866  -22.0465 N   0  0  0  0  0  0  0  0  0  0  0  0
  -17.3952   13.0550  -23.1561 C   0  0  0  0  0  0  0  0  0  0  0  0
  -17.2108   12.8919  -24.5054 C   0  0  0  0  0  0  0  0  0  0  0  0
  -17.4467   13.9210  -25.3885 C   0  0  0  0  0  0  0  0  0  0  0  0
  -17.8827   15.1536  -24.9361 C   0  0  0  0  0  0  0  0  0  0  0  0
  -18.0714   15.3204  -23.5797 C   0  0  0  0  0  0  0  0  0  0  0  0
  -17.8182   14.2566  -22.7146 C   0  0  0  0  0  0  0  0  0  0  0  0
  -17.8925   14.2034  -21.3922 N   0  0  0  0  0  0  0  0  0  0  0  0
  -18.3012   15.2801  -20.5680 C   0  0  0  0  0  0  0  0  0  0  0  0
  -17.5442   16.4291  -20.4993 C   0  0  0  0  0  0  0  0  0  0  0  0
  -17.9143   17.4885  -19.7147 C   0  0  0  0  0  0  0  0  0  0  0  0
  -17.1512   18.6936  -19.6428 N   0  0  0  0  0  0  0  0  0  0  0  0
  -19.0616   17.3920  -18.9864 N   0  0  0  0  0  0  0  0  0  0  0  0
  -19.8030   16.2611  -19.0565 C   0  0  0  0  0  0  0  0  0  0  0  0
  -19.4221   15.2516  -19.8230 N   0  0  0  0  0  0  0  0  0  0  0  0
  -17.2399   19.3097  -18.8107 H   0  0  0  0  0  0  0  0  0  0  0  0
  -16.5102   18.9297  -20.4390 H   0  0  0  0  0  0  0  0  0  0  0  0
  1  2  1  0  0  0
  2  3  2  0  0  0
  3  4  1  0  0  0
  4  5  2  0  0  0
  5  8  1  0  0  0
  8  9  1  0  0  0
  9 10  2  0  0  0
  9 12  1  0  0  0
 12 13  2  0  0  0
 13 14  1  0  0  0
 14 15  2  0  0  0
 15 16  1  0  0  0
 16 17  2  0  0  0
 16 18  1  0  0  0
 18 19  1  0  0  0
 18 20  1  0  0  0
 18 21  1  0  0  0
  5  6  1  0  0  0
  6  7  2  0  0  0
  7 22  1  0  0  0
 22 24  1  0  0  0
 24 25  2  0  0  0
 25 26  1  0  0  0
 26 27  2  0  0  0
 27 28  1  0  0  0
 28 29  2  0  0  0
 29 30  1  0  0  0
 30 31  2  0  0  0
 31 32  1  0  0  0
 32 33  1  0  0  0
 33 34  2  0  0  0
 34 35  1  0  0  0
 35 36  1  0  0  0
 35 37  2  0  0  0
 37 38  1  0  0  0
 38 39  2  0  0  0
  7  2  1  0  0  0
 32 24  1  0  0  0
 39 33  1  0  0  0
 17 12  1  0  0  0
 31 26  1  0  0  0
  8 11  1  0  0  0
 22 23  1  0  0  0
 36 40  1  0  0  0
 36 41  1  0  0  0
M  END
> <minimizedAffinity>
-9.31923

> <CNNscore>
0.0847520754

> <CNNaffinity>
6.4242582321

> <CNN_VS>
0.5444692373

> <CNNaffinity_variance>
0.1672568619

$$$$
[H]OC(=O)[C@]([H])(N([H])[C@]1([H])C([H])([H])C([H])([H])[C@@]([H])(n2nc(-c3c([H])c([H])c(Oc4c([H])c([H])c([H])c([H])c4[H])c([H])c3[H])c3c(N([H])[H])nc([H])nc32)C([H])([H])C1([H])[H])C([H])([H])c1c([H])c([H])c([H])c([H])c1[H]


 45 50  0  0  0  0  0  0  0  0999 V2000
  -18.2724    9.1018  -17.4228 N   0  0  0  0  0  0  0  0  0  0  0  0
  -17.9839   10.1607  -18.3358 C   0  0  0  0  0  0  0  0  0  0  0  0
  -17.0774    9.9800  -19.3265 N   0  0  0  0  0  0  0  0  0  0  0  0
  -16.7437   10.9784  -20.1614 C   0  0  0  0  0  0  0  0  0  0  0  0
  -17.3221   12.1790  -20.0056 N   0  0  0  0  0  0  0  0  0  0  0  0
  -18.2272   12.4062  -19.0372 C   0  0  0  0  0  0  0  0  0  0  0  0
  -18.9268   13.4806  -18.6489 N   0  0  0  0  0  0  0  0  0  0  0  0
  -19.6985   13.1888  -17.6012 N   0  0  0  0  0  0  0  0  0  0  0  0
  -19.5151   11.8755  -17.2657 C   0  0  0  0  0  0  0  0  0  0  0  0
  -18.5954   11.3763  -18.1527 C   0  0  0  0  0  0  0  0  0  0  0  0
  -18.8392    8.2909  -17.7295 H   0  0  0  0  0  0  0  0  0  0  0  0
  -17.9280    9.1188  -16.4431 H   0  0  0  0  0  0  0  0  0  0  0  0
  -20.1798   11.2218  -16.1506 C   0  0  0  0  0  0  0  0  0  0  0  0
  -19.6670   11.3921  -14.8486 C   0  0  0  0  0  0  0  0  0  0  0  0
  -20.3128   10.8394  -13.7695 C   0  0  0  0  0  0  0  0  0  0  0  0
  -21.4692   10.1094  -13.9302 C   0  0  0  0  0  0  0  0  0  0  0  0
  -21.9874    9.9324  -15.1949 C   0  0  0  0  0  0  0  0  0  0  0  0
  -21.3235   10.4978  -16.2722 C   0  0  0  0  0  0  0  0  0  0  0  0
  -22.1463    9.5338  -12.8587 O   0  0  0  0  0  0  0  0  0  0  0  0
  -21.4813    8.5847  -12.0627 C   0  0  0  0  0  0  0  0  0  0  0  0
  -20.9025    7.4816  -12.6457 C   0  0  0  0  0  0  0  0  0  0  0  0
  -20.2583    6.5704  -11.8248 C   0  0  0  0  0  0  0  0  0  0  0  0
  -20.1778    6.7299  -10.4565 C   0  0  0  0  0  0  0  0  0  0  0  0
  -20.7606    7.8401   -9.8763 C   0  0  0  0  0  0  0  0  0  0  0  0
  -21.4010    8.7418  -10.7018 C   0  0  0  0  0  0  0  0  0  0  0  0
  -18.8626   14.8018  -19.2072 C   0  0  0  0  0  0  0  0  0  0  0  0
  -19.5486   14.8733  -20.5631 C   0  0  0  0  0  0  0  0  0  0  0  0
  -20.8703   15.5848  -20.4818 C   0  0  0  0  0  0  0  0  0  0  0  0
  -20.6803   17.0589  -20.1134 C   0  0  0  0  0  0  0  0  0  0  0  0
  -19.3660   17.1438  -19.3562 C   0  0  0  0  0  0  0  0  0  0  0  0
  -19.3714   15.9211  -18.3925 C   0  0  0  0  0  0  0  0  0  0  0  0
  -20.7672   17.8815  -21.2551 N   0  0  0  0  0  0  0  0  0  0  0  0
  -20.2262   18.7537  -21.1013 H   0  0  0  0  0  0  0  0  0  0  0  0
  -22.0563   18.1776  -21.8076 C   0  0  0  0  0  0  0  0  0  0  0  0
  -23.0910   18.3947  -20.7938 C   0  0  0  0  0  0  0  0  0  0  0  0
  -23.0740   19.4109  -19.8938 O   0  0  0  0  0  0  0  0  0  0  0  0
  -24.1017   17.5891  -20.7271 O   0  0  0  0  0  0  0  0  0  0  0  0
  -23.4242   19.3096  -18.9409 H   0  0  0  0  0  0  0  0  0  0  0  0
  -21.9716   19.2734  -22.8208 C   0  0  0  0  0  0  0  0  0  0  0  0
  -22.5946   18.9113  -24.1037 C   0  0  0  0  0  0  0  0  0  0  0  0
  -22.8253   17.5635  -24.3957 C   0  0  0  0  0  0  0  0  0  0  0  0
  -23.3380   17.2069  -25.6093 C   0  0  0  0  0  0  0  0  0  0  0  0
  -23.6545   18.1124  -26.5957 C   0  0  0  0  0  0  0  0  0  0  0  0
  -23.4349   19.4426  -26.3278 C   0  0  0  0  0  0  0  0  0  0  0  0
  -22.9183   19.8143  -25.1097 C   0  0  0  0  0  0  0  0  0  0  0  0
  1  2  1  0  0  0
  2  3  2  0  0  0
  3  4  1  0  0  0
  4  5  2  0  0  0
  5  6  1  0  0  0
  6  7  1  0  0  0
  7  8  1  0  0  0
  8  9  2  0  0  0
  9 13  1  0  0  0
 13 14  2  0  0  0
 14 15  1  0  0  0
 15 16  2  0  0  0
 16 19  1  0  0  0
 19 20  1  0  0  0
 20 21  2  0  0  0
 21 22  1  0  0  0
 22 23  2  0  0  0
 23 24  1  0  0  0
 24 25  2  0  0  0
 16 17  1  0  0  0
 17 18  2  0  0  0
  9 10  1  0  0  0
  7 26  1  0  0  0
 26 27  1  0  0  0
 27 28  1  0  0  0
 28 29  1  0  0  0
 29 30  1  0  0  0
 30 31  1  0  0  0
 29 32  1  0  0  0
 32 34  1  0  0  0
 34 39  1  0  0  0
 39 40  1  0  0  0
 40 41  2  0  0  0
 41 42  1  0  0  0
 42 43  2  0  0  0
 43 44  1  0  0  0
 44 45  2  0  0  0
 34 35  1  0  0  0
 35 36  1  0  0  0
 35 37  2  0  0  0
 10  2  1  0  0  0
 31 26  1  0  0  0
 45 40  1  0  0  0
 10  6  2  0  0  0
 18 13  1  0  0  0
 25 20  1  0  0  0
  1 11  1  0  0  0
  1 12  1  0  0  0
 32 33  1  0  0  0
 36 38  1  0  0  0
M  END
> <minimizedAffinity>
-8.12787

> <CNNscore>
0.5923443437

> <CNNaffinity>
7.0915589333

> <CNN_VS>
4.2006449699

> <CNNaffinity_variance>
0.2345159501

$$$$
[H]OC(=O)[C@]([H])(N([H])[C@]1([H])C([H])([H])C([H])([H])[C@@]([H])(n2nc(-c3c([H])c([H])c(Oc4c([H])c([H])c([H])c([H])c4[H])c([H])c3[H])c3c(N([H])[H])nc([H])nc32)C([H])([H])C1([H])[H])C([H])([H])c1c([H])c([H])c([H])c([H])c1[H]


 45 50  0  0  0  0  0  0  0  0999 V2000
  -17.6550    9.4297  -17.5604 N   0  0  0  0  0  0  0  0  0  0  0  0
  -17.6771   10.2643  -18.7184 C   0  0  0  0  0  0  0  0  0  0  0  0
  -16.8022   10.0506  -19.7307 N   0  0  0  0  0  0  0  0  0  0  0  0
  -16.7619   10.8578  -20.8040 C   0  0  0  0  0  0  0  0  0  0  0  0
  -17.6071   11.8977  -20.8695 N   0  0  0  0  0  0  0  0  0  0  0  0
  -18.4931   12.1499  -19.8896 C   0  0  0  0  0  0  0  0  0  0  0  0
  -19.4140   13.1017  -19.6882 N   0  0  0  0  0  0  0  0  0  0  0  0
  -20.0406   12.9148  -18.5260 N   0  0  0  0  0  0  0  0  0  0  0  0
  -19.5270   11.8026  -17.9175 C   0  0  0  0  0  0  0  0  0  0  0  0
  -18.5568   11.3177  -18.7574 C   0  0  0  0  0  0  0  0  0  0  0  0
  -18.0212    8.4620  -17.6099 H   0  0  0  0  0  0  0  0  0  0  0  0
  -17.2789    9.7674  -16.6531 H   0  0  0  0  0  0  0  0  0  0  0  0
  -19.9585   11.3156  -16.6179 C   0  0  0  0  0  0  0  0  0  0  0  0
  -19.7898   12.1372  -15.4849 C   0  0  0  0  0  0  0  0  0  0  0  0
  -20.2476   11.7287  -14.2558 C   0  0  0  0  0  0  0  0  0  0  0  0
  -20.8783   10.5147  -14.0994 C   0  0  0  0  0  0  0  0  0  0  0  0
  -21.0542    9.6973  -15.1951 C   0  0  0  0  0  0  0  0  0  0  0  0
  -20.5869   10.1257  -16.4276 C   0  0  0  0  0  0  0  0  0  0  0  0
  -21.3512   10.0698  -12.8680 O   0  0  0  0  0  0  0  0  0  0  0  0
  -20.5295   10.2000  -11.7347 C   0  0  0  0  0  0  0  0  0  0  0  0
  -20.8601   11.0945  -10.7437 C   0  0  0  0  0  0  0  0  0  0  0  0
  -20.0224   11.1921   -9.6447 C   0  0  0  0  0  0  0  0  0  0  0  0
  -18.8795   10.4305   -9.5112 C   0  0  0  0  0  0  0  0  0  0  0  0
  -18.5523    9.5332  -10.5097 C   0  0  0  0  0  0  0  0  0  0  0  0
  -19.3923    9.4436  -11.6010 C   0  0  0  0  0  0  0  0  0  0  0  0
  -19.7003   14.2215  -20.5400 C   0  0  0  0  0  0  0  0  0  0  0  0
  -20.9453   14.9690  -20.0869 C   0  0  0  0  0  0  0  0  0  0  0  0
  -20.6018   16.2780  -19.4324 C   0  0  0  0  0  0  0  0  0  0  0  0
  -19.9651   17.2445  -20.4351 C   0  0  0  0  0  0  0  0  0  0  0  0
  -19.3309   16.3836  -21.5143 C   0  0  0  0  0  0  0  0  0  0  0  0
  -18.6348   15.2195  -20.7500 C   0  0  0  0  0  0  0  0  0  0  0  0
  -20.9062   18.1868  -20.8978 N   0  0  0  0  0  0  0  0  0  0  0  0
  -21.6207   17.7117  -21.4816 H   0  0  0  0  0  0  0  0  0  0  0  0
  -20.4424   19.3815  -21.5398 C   0  0  0  0  0  0  0  0  0  0  0  0
  -19.3493   20.0434  -20.8237 C   0  0  0  0  0  0  0  0  0  0  0  0
  -18.0583   20.0507  -21.2435 O   0  0  0  0  0  0  0  0  0  0  0  0
  -19.5952   20.6743  -19.7208 O   0  0  0  0  0  0  0  0  0  0  0  0
  -17.2684   20.0221  -20.5984 H   0  0  0  0  0  0  0  0  0  0  0  0
  -20.1510   19.1401  -22.9860 C   0  0  0  0  0  0  0  0  0  0  0  0
  -21.3484   19.2517  -23.8338 C   0  0  0  0  0  0  0  0  0  0  0  0
  -22.0956   18.1042  -24.1167 C   0  0  0  0  0  0  0  0  0  0  0  0
  -23.1681   18.1790  -24.9574 C   0  0  0  0  0  0  0  0  0  0  0  0
  -23.5779   19.3442  -25.5637 C   0  0  0  0  0  0  0  0  0  0  0  0
  -22.8561   20.4835  -25.2982 C   0  0  0  0  0  0  0  0  0  0  0  0
  -21.7735   20.4209  -24.4539 C   0  0  0  0  0  0  0  0  0  0  0  0
  1  2  1  0  0  0
  2  3  2  0  0  0
  3  4  1  0  0  0
  4  5  2  0  0  0
  5  6  1  0  0  0
  6  7  1  0  0  0
  7  8  1  0  0  0
  8  9  2  0  0  0
  9 13  1  0  0  0
 13 14  2  0  0  0
 14 15  1  0  0  0
 15 16  2  0  0  0
 16 19  1  0  0  0
 19 20  1  0  0  0
 20 21  2  0  0  0
 21 22  1  0  0  0
 22 23  2  0  0  0
 23 24  1  0  0  0
 24 25  2  0  0  0
 16 17  1  0  0  0
 17 18  2  0  0  0
  9 10  1  0  0  0
  7 26  1  0  0  0
 26 27  1  0  0  0
 27 28  1  0  0  0
 28 29  1  0  0  0
 29 30  1  0  0  0
 30 31  1  0  0  0
 29 32  1  0  0  0
 32 34  1  0  0  0
 34 39  1  0  0  0
 39 40  1  0  0  0
 40 41  2  0  0  0
 41 42  1  0  0  0
 42 43  2  0  0  0
 43 44  1  0  0  0
 44 45  2  0  0  0
 34 35  1  0  0  0
 35 36  1  0  0  0
 35 37  2  0  0  0
 10  2  1  0  0  0
 31 26  1  0  0  0
 45 40  1  0  0  0
 10  6  2  0  0  0
 18 13  1  0  0  0
 25 20  1  0  0  0
  1 11  1  0  0  0
  1 12  1  0  0  0
 32 33  1  0  0  0
 36 38  1  0  0  0
M  END
> <minimizedAffinity>
-8.52076

> <CNNscore>
0.5686360598

> <CNNaffinity>
7.2805223465

> <CNN_VS>
4.1399674416

> <CNNaffinity_variance>
0.2111945450

$$$$
[H]OC(=O)[C@]([H])(N([H])[C@]1([H])C([H])([H])C([H])([H])[C@@]([H])(n2nc(-c3c([H])c([H])c(Oc4c([H])c([H])c([H])c([H])c4[H])c([H])c3[H])c3c(N([H])[H])nc([H])nc32)C([H])([H])C1([H])[H])C([H])([H])c1c([H])c([H])c([H])c([H])c1[H]


 45 50  0  0  0  0  0  0  0  0999 V2000
  -17.9162   13.4885  -21.6602 N   0  0  0  0  0  0  0  0  0  0  0  0
  -17.5918   12.3777  -20.8240 C   0  0  0  0  0  0  0  0  0  0  0  0
  -16.7131   11.4376  -21.2481 N   0  0  0  0  0  0  0  0  0  0  0  0
  -16.4363   10.3521  -20.5064 C   0  0  0  0  0  0  0  0  0  0  0  0
  -17.0471   10.1993  -19.3215 N   0  0  0  0  0  0  0  0  0  0  0  0
  -17.9264   11.1055  -18.8586 C   0  0  0  0  0  0  0  0  0  0  0  0
  -18.6781   11.1946  -17.7534 N   0  0  0  0  0  0  0  0  0  0  0  0
  -19.4133   12.3070  -17.7702 N   0  0  0  0  0  0  0  0  0  0  0  0
  -19.1548   12.9937  -18.9246 C   0  0  0  0  0  0  0  0  0  0  0  0
  -18.2304   12.2517  -19.6151 C   0  0  0  0  0  0  0  0  0  0  0  0
  -17.2327   14.2552  -21.7944 H   0  0  0  0  0  0  0  0  0  0  0  0
  -18.8319   13.5553  -22.1456 H   0  0  0  0  0  0  0  0  0  0  0  0
  -19.8017   14.2434  -19.2884 C   0  0  0  0  0  0  0  0  0  0  0  0
  -19.1799   15.4630  -18.9523 C   0  0  0  0  0  0  0  0  0  0  0  0
  -19.7365   16.6572  -19.3410 C   0  0  0  0  0  0  0  0  0  0  0  0
  -20.9082   16.6939  -20.0633 C   0  0  0  0  0  0  0  0  0  0  0  0
  -21.5311   15.5124  -20.4030 C   0  0  0  0  0  0  0  0  0  0  0  0
  -20.9551   14.3168  -20.0034 C   0  0  0  0  0  0  0  0  0  0  0  0
  -21.4999   17.8865  -20.4702 O   0  0  0  0  0  0  0  0  0  0  0  0
  -21.9821   17.9939  -21.7864 C   0  0  0  0  0  0  0  0  0  0  0  0
  -23.3321   17.9073  -22.0343 C   0  0  0  0  0  0  0  0  0  0  0  0
  -23.7647   18.0172  -23.3457 C   0  0  0  0  0  0  0  0  0  0  0  0
  -22.8967   18.2089  -24.4011 C   0  0  0  0  0  0  0  0  0  0  0  0
  -21.5415   18.2955  -24.1464 C   0  0  0  0  0  0  0  0  0  0  0  0
  -21.1199   18.1840  -22.8370 C   0  0  0  0  0  0  0  0  0  0  0  0
  -18.7645   10.2367  -16.6874 C   0  0  0  0  0  0  0  0  0  0  0  0
  -19.8637   10.5937  -15.6983 C   0  0  0  0  0  0  0  0  0  0  0  0
  -21.0586    9.6933  -15.8444 C   0  0  0  0  0  0  0  0  0  0  0  0
  -20.7103    8.2507  -15.4670 C   0  0  0  0  0  0  0  0  0  0  0  0
  -19.2160    8.0987  -15.6947 C   0  0  0  0  0  0  0  0  0  0  0  0
  -18.9350    8.8166  -17.0473 C   0  0  0  0  0  0  0  0  0  0  0  0
  -21.1503    7.9483  -14.1621 N   0  0  0  0  0  0  0  0  0  0  0  0
  -20.6160    8.5103  -13.4724 H   0  0  0  0  0  0  0  0  0  0  0  0
  -21.2236    6.5778  -13.7486 C   0  0  0  0  0  0  0  0  0  0  0  0
  -21.6254    5.6643  -14.8209 C   0  0  0  0  0  0  0  0  0  0  0  0
  -20.7738    4.8283  -15.4681 O   0  0  0  0  0  0  0  0  0  0  0  0
  -22.8632    5.6220  -15.1963 O   0  0  0  0  0  0  0  0  0  0  0  0
  -20.8689    4.6025  -16.4584 H   0  0  0  0  0  0  0  0  0  0  0  0
  -19.9749    6.1588  -13.0417 C   0  0  0  0  0  0  0  0  0  0  0  0
  -19.6569    7.0187  -11.8908 C   0  0  0  0  0  0  0  0  0  0  0  0
  -18.4703    7.7582  -11.8968 C   0  0  0  0  0  0  0  0  0  0  0  0
  -18.1276    8.5061  -10.8078 C   0  0  0  0  0  0  0  0  0  0  0  0
  -18.8954    8.5853   -9.6688 C   0  0  0  0  0  0  0  0  0  0  0  0
  -20.0660    7.8654   -9.6434 C   0  0  0  0  0  0  0  0  0  0  0  0
  -20.4218    7.1078  -10.7335 C   0  0  0  0  0  0  0  0  0  0  0  0
  1  2  1  0  0  0
  2  3  2  0  0  0
  3  4  1  0  0  0
  4  5  2  0  0  0
  5  6  1  0  0  0
  6  7  1  0  0  0
  7  8  1  0  0  0
  8  9  2  0  0  0
  9 13  1  0  0  0
 13 14  2  0  0  0
 14 15  1  0  0  0
 15 16  2  0  0  0
 16 19  1  0  0  0
 19 20  1  0  0  0
 20 21  2  0  0  0
 21 22  1  0  0  0
 22 23  2  0  0  0
 23 24  1  0  0  0
 24 25  2  0  0  0
 16 17  1  0  0  0
 17 18  2  0  0  0
  9 10  1  0  0  0
  7 26  1  0  0  0
 26 27  1  0  0  0
 27 28  1  0  0  0
 28 29  1  0  0  0
 29 30  1  0  0  0
 30 31  1  0  0  0
 29 32  1  0  0  0
 32 34  1  0  0  0
 34 39  1  0  0  0
 39 40  1  0  0  0
 40 41  2  0  0  0
 41 42  1  0  0  0
 42 43  2  0  0  0
 43 44  1  0  0  0
 44 45  2  0  0  0
 34 35  1  0  0  0
 35 36  1  0  0  0
 35 37  2  0  0  0
 10  2  1  0  0  0
 31 26  1  0  0  0
 45 40  1  0  0  0
 10  6  2  0  0  0
 18 13  1  0  0  0
 25 20  1  0  0  0
  1 11  1  0  0  0
  1 12  1  0  0  0
 32 33  1  0  0  0
 36 38  1  0  0  0
M  END
> <minimizedAffinity>
-8.04863

> <CNNscore>
0.5435580611

> <CNNaffinity>
7.2106437683

> <CNN_VS>
3.9194035530

> <CNNaffinity_variance>
0.2277166396

$$$$
[H]OC(=O)[C@]([H])(N([H])[C@]1([H])C([H])([H])C([H])([H])[C@@]([H])(n2nc(-c3c([H])c([H])c(Oc4c([H])c([H])c([H])c([H])c4[H])c([H])c3[H])c3c(N([H])[H])nc([H])nc32)C([H])([H])C1([H])[H])C([H])([H])c1c([H])c([H])c([H])c([H])c1[H]


 45 50  0  0  0  0  0  0  0  0999 V2000
  -17.9439    8.9508  -17.1930 N   0  0  0  0  0  0  0  0  0  0  0  0
  -17.9733    9.9909  -18.1706 C   0  0  0  0  0  0  0  0  0  0  0  0
  -17.2224    9.8932  -19.2942 N   0  0  0  0  0  0  0  0  0  0  0  0
  -17.1857   10.8842  -20.2006 C   0  0  0  0  0  0  0  0  0  0  0  0
  -17.9086   11.9935  -19.9831 N   0  0  0  0  0  0  0  0  0  0  0  0
  -18.6689   12.1361  -18.8830 C   0  0  0  0  0  0  0  0  0  0  0  0
  -19.4529   13.1151  -18.4125 N   0  0  0  0  0  0  0  0  0  0  0  0
  -19.9906   12.7689  -17.2423 N   0  0  0  0  0  0  0  0  0  0  0  0
  -19.5558   11.5163  -16.9061 C   0  0  0  0  0  0  0  0  0  0  0  0
  -18.7264   11.1115  -17.9210 C   0  0  0  0  0  0  0  0  0  0  0  0
  -18.4216    8.0504  -17.3775 H   0  0  0  0  0  0  0  0  0  0  0  0
  -17.4521    9.0700  -16.2861 H   0  0  0  0  0  0  0  0  0  0  0  0
  -19.9226   10.8319  -15.6775 C   0  0  0  0  0  0  0  0  0  0  0  0
  -20.7034    9.6605  -15.7496 C   0  0  0  0  0  0  0  0  0  0  0  0
  -21.0094    8.9581  -14.6094 C   0  0  0  0  0  0  0  0  0  0  0  0
  -20.5652    9.3770  -13.3753 C   0  0  0  0  0  0  0  0  0  0  0  0
  -19.7994   10.5192  -13.2836 C   0  0  0  0  0  0  0  0  0  0  0  0
  -19.4994   11.2150  -14.4441 C   0  0  0  0  0  0  0  0  0  0  0  0
  -20.8597    8.6902  -12.2008 O   0  0  0  0  0  0  0  0  0  0  0  0
  -19.8099    8.3440  -11.3321 C   0  0  0  0  0  0  0  0  0  0  0  0
  -19.7765    8.8538  -10.0551 C   0  0  0  0  0  0  0  0  0  0  0  0
  -18.7238    8.4880   -9.2323 C   0  0  0  0  0  0  0  0  0  0  0  0
  -17.7180    7.6384   -9.6452 C   0  0  0  0  0  0  0  0  0  0  0  0
  -17.7567    7.1289  -10.9289 C   0  0  0  0  0  0  0  0  0  0  0  0
  -18.8087    7.4995  -11.7416 C   0  0  0  0  0  0  0  0  0  0  0  0
  -19.6838   14.4000  -19.0100 C   0  0  0  0  0  0  0  0  0  0  0  0
  -18.3800   15.1307  -19.2937 C   0  0  0  0  0  0  0  0  0  0  0  0
  -18.0531   15.1374  -20.7609 C   0  0  0  0  0  0  0  0  0  0  0  0
  -19.0828   15.9503  -21.5508 C   0  0  0  0  0  0  0  0  0  0  0  0
  -20.3645   15.9230  -20.7356 C   0  0  0  0  0  0  0  0  0  0  0  0
  -20.4994   14.4541  -20.2377 C   0  0  0  0  0  0  0  0  0  0  0  0
  -18.5909   17.2374  -21.8492 N   0  0  0  0  0  0  0  0  0  0  0  0
  -19.0115   17.9324  -21.2033 H   0  0  0  0  0  0  0  0  0  0  0  0
  -18.6417   17.7095  -23.2017 C   0  0  0  0  0  0  0  0  0  0  0  0
  -19.3716   18.9704  -23.3538 C   0  0  0  0  0  0  0  0  0  0  0  0
  -18.8959   20.0494  -24.0265 O   0  0  0  0  0  0  0  0  0  0  0  0
  -20.5487   19.0963  -22.8309 O   0  0  0  0  0  0  0  0  0  0  0  0
  -19.0889   21.0086  -23.7375 H   0  0  0  0  0  0  0  0  0  0  0  0
  -17.2806   17.7274  -23.8196 C   0  0  0  0  0  0  0  0  0  0  0  0
  -16.7427   16.3774  -24.0498 C   0  0  0  0  0  0  0  0  0  0  0  0
  -17.5017   15.4529  -24.7740 C   0  0  0  0  0  0  0  0  0  0  0  0
  -17.0476   14.1762  -24.9364 C   0  0  0  0  0  0  0  0  0  0  0  0
  -15.8552   13.7229  -24.4207 C   0  0  0  0  0  0  0  0  0  0  0  0
  -15.0944   14.6167  -23.7055 C   0  0  0  0  0  0  0  0  0  0  0  0
  -15.5412   15.9051  -23.5343 C   0  0  0  0  0  0  0  0  0  0  0  0
  1  2  1  0  0  0
  2  3  2  0  0  0
  3  4  1  0  0  0
  4  5  2  0  0  0
  5  6  1  0  0  0
  6  7  1  0  0  0
  7  8  1  0  0  0
  8  9  2  0  0  0
  9 13  1  0  0  0
 13 14  2  0  0  0
 14 15  1  0  0  0
 15 16  2  0  0  0
 16 19  1  0  0  0
 19 20  1  0  0  0
 20 21  2  0  0  0
 21 22  1  0  0  0
 22 23  2  0  0  0
 23 24  1  0  0  0
 24 25  2  0  0  0
 16 17  1  0  0  0
 17 18  2  0  0  0
  9 10  1  0  0  0
  7 26  1  0  0  0
 26 27  1  0  0  0
 27 28  1  0  0  0
 28 29  1  0  0  0
 29 30  1  0  0  0
 30 31  1  0  0  0
 29 32  1  0  0  0
 32 34  1  0  0  0
 34 39  1  0  0  0
 39 40  1  0  0  0
 40 41  2  0  0  0
 41 42  1  0  0  0
 42 43  2  0  0  0
 43 44  1  0  0  0
 44 45  2  0  0  0
 34 35  1  0  0  0
 35 36  1  0  0  0
 35 37  2  0  0  0
 10  2  1  0  0  0
 31 26  1  0  0  0
 45 40  1  0  0  0
 10  6  2  0  0  0
 18 13  1  0  0  0
 25 20  1  0  0  0
  1 11  1  0  0  0
  1 12  1  0  0  0
 32 33  1  0  0  0
 36 38  1  0  0  0
M  END
> <minimizedAffinity>
-8.97347

> <CNNscore>
0.5288848281

> <CNNaffinity>
7.4644141197

> <CNN_VS>
3.9478154182

> <CNNaffinity_variance>
0.1303828061

$$$$
[H]OC(=O)[C@]([H])(N([H])[C@]1([H])C([H])([H])C([H])([H])[C@@]([H])(n2nc(-c3c([H])c([H])c(Oc4c([H])c([H])c([H])c([H])c4[H])c([H])c3[H])c3c(N([H])[H])nc([H])nc32)C([H])([H])C1([H])[H])C([H])([H])c1c([H])c([H])c([H])c([H])c1[H]


 45 50  0  0  0  0  0  0  0  0999 V2000
  -18.3489    9.1147  -17.3593 N   0  0  0  0  0  0  0  0  0  0  0  0
  -17.9891   10.1258  -18.3009 C   0  0  0  0  0  0  0  0  0  0  0  0
  -17.1225    9.8469  -19.3044 N   0  0  0  0  0  0  0  0  0  0  0  0
  -16.7213   10.7952  -20.1674 C   0  0  0  0  0  0  0  0  0  0  0  0
  -17.1904   12.0445  -20.0273 N   0  0  0  0  0  0  0  0  0  0  0  0
  -18.0523   12.3691  -19.0472 C   0  0  0  0  0  0  0  0  0  0  0  0
  -18.6482   13.5078  -18.6696 N   0  0  0  0  0  0  0  0  0  0  0  0
  -19.4202   13.3056  -17.6012 N   0  0  0  0  0  0  0  0  0  0  0  0
  -19.3440   11.9884  -17.2402 C   0  0  0  0  0  0  0  0  0  0  0  0
  -18.4895   11.3933  -18.1332 C   0  0  0  0  0  0  0  0  0  0  0  0
  -18.9899    8.3499  -17.6372 H   0  0  0  0  0  0  0  0  0  0  0  0
  -17.9840    9.1219  -16.3869 H   0  0  0  0  0  0  0  0  0  0  0  0
  -20.0392   11.4178  -16.0985 C   0  0  0  0  0  0  0  0  0  0  0  0
  -21.2921   10.8018  -16.2937 C   0  0  0  0  0  0  0  0  0  0  0  0
  -21.9404   10.1974  -15.2443 C   0  0  0  0  0  0  0  0  0  0  0  0
  -21.3878   10.1779  -13.9832 C   0  0  0  0  0  0  0  0  0  0  0  0
  -20.1630   10.7735  -13.7719 C   0  0  0  0  0  0  0  0  0  0  0  0
  -19.5225   11.3778  -14.8421 C   0  0  0  0  0  0  0  0  0  0  0  0
  -22.0195    9.5768  -12.8981 O   0  0  0  0  0  0  0  0  0  0  0  0
  -22.2629   10.3398  -11.7427 C   0  0  0  0  0  0  0  0  0  0  0  0
  -23.0867   11.4395  -11.8047 C   0  0  0  0  0  0  0  0  0  0  0  0
  -23.2988   12.1641  -10.6433 C   0  0  0  0  0  0  0  0  0  0  0  0
  -22.7183   11.8241   -9.4385 C   0  0  0  0  0  0  0  0  0  0  0  0
  -21.8919   10.7182   -9.3818 C   0  0  0  0  0  0  0  0  0  0  0  0
  -21.6858   10.0031  -10.5440 C   0  0  0  0  0  0  0  0  0  0  0  0
  -18.4819   14.8068  -19.2582 C   0  0  0  0  0  0  0  0  0  0  0  0
  -19.2773   14.9461  -20.5473 C   0  0  0  0  0  0  0  0  0  0  0  0
  -20.4935   15.8097  -20.3609 C   0  0  0  0  0  0  0  0  0  0  0  0
  -20.0991   17.2545  -20.0413 C   0  0  0  0  0  0  0  0  0  0  0  0
  -18.7194   17.1903  -19.4085 C   0  0  0  0  0  0  0  0  0  0  0  0
  -18.7786   15.9861  -18.4236 C   0  0  0  0  0  0  0  0  0  0  0  0
  -20.1944   18.0707  -21.1869 N   0  0  0  0  0  0  0  0  0  0  0  0
  -19.4137   17.8567  -21.8363 H   0  0  0  0  0  0  0  0  0  0  0  0
  -20.3438   19.4872  -21.0262 C   0  0  0  0  0  0  0  0  0  0  0  0
  -19.2288   20.2593  -21.5798 C   0  0  0  0  0  0  0  0  0  0  0  0
  -17.9344   20.1070  -21.2000 O   0  0  0  0  0  0  0  0  0  0  0  0
  -19.4557   21.1470  -22.4938 O   0  0  0  0  0  0  0  0  0  0  0  0
  -17.2786   20.8870  -21.1512 H   0  0  0  0  0  0  0  0  0  0  0  0
  -21.6845   19.9469  -21.5014 C   0  0  0  0  0  0  0  0  0  0  0  0
  -22.3125   18.9993  -22.4356 C   0  0  0  0  0  0  0  0  0  0  0  0
  -21.9476   19.0260  -23.7852 C   0  0  0  0  0  0  0  0  0  0  0  0
  -22.5709   18.2014  -24.6763 C   0  0  0  0  0  0  0  0  0  0  0  0
  -23.5645   17.3165  -24.3257 C   0  0  0  0  0  0  0  0  0  0  0  0
  -23.9375   17.2753  -23.0034 C   0  0  0  0  0  0  0  0  0  0  0  0
  -23.3178   18.1013  -22.0964 C   0  0  0  0  0  0  0  0  0  0  0  0
  1  2  1  0  0  0
  2  3  2  0  0  0
  3  4  1  0  0  0
  4  5  2  0  0  0
  5  6  1  0  0  0
  6  7  1  0  0  0
  7  8  1  0  0  0
  8  9  2  0  0  0
  9 13  1  0  0  0
 13 14  2  0  0  0
 14 15  1  0  0  0
 15 16  2  0  0  0
 16 19  1  0  0  0
 19 20  1  0  0  0
 20 21  2  0  0  0
 21 22  1  0  0  0
 22 23  2  0  0  0
 23 24  1  0  0  0
 24 25  2  0  0  0
 16 17  1  0  0  0
 17 18  2  0  0  0
  9 10  1  0  0  0
  7 26  1  0  0  0
 26 27  1  0  0  0
 27 28  1  0  0  0
 28 29  1  0  0  0
 29 30  1  0  0  0
 30 31  1  0  0  0
 29 32  1  0  0  0
 32 34  1  0  0  0
 34 39  1  0  0  0
 39 40  1  0  0  0
 40 41  2  0  0  0
 41 42  1  0  0  0
 42 43  2  0  0  0
 43 44  1  0  0  0
 44 45  2  0  0  0
 34 35  1  0  0  0
 35 36  1  0  0  0
 35 37  2  0  0  0
 10  2  1  0  0  0
 31 26  1  0  0  0
 45 40  1  0  0  0
 10  6  2  0  0  0
 18 13  1  0  0  0
 25 20  1  0  0  0
  1 11  1  0  0  0
  1 12  1  0  0  0
 32 33  1  0  0  0
 36 38  1  0  0  0
M  END
> <minimizedAffinity>
-7.58559

> <CNNscore>
0.5241481066

> <CNNaffinity>
7.1278939247

> <CNN_VS>
3.7360720634

> <CNNaffinity_variance>
0.1160377860

$$$$
[H]OC(=O)[C@]([H])(N([H])[C@]1([H])C([H])([H])C([H])([H])[C@@]([H])(n2nc(-c3c([H])c([H])c(Oc4c([H])c([H])c([H])c([H])c4[H])c([H])c3[H])c3c(N([H])[H])nc([H])nc32)C([H])([H])C1([H])[H])C([H])([H])c1c([H])c([H])c([H])c([H])c1[H]


 45 50  0  0  0  0  0  0  0  0999 V2000
  -18.3220    9.1154  -17.2115 N   0  0  0  0  0  0  0  0  0  0  0  0
  -18.0847   10.1423  -18.1746 C   0  0  0  0  0  0  0  0  0  0  0  0
  -17.2079    9.9389  -19.1874 N   0  0  0  0  0  0  0  0  0  0  0  0
  -16.9216   10.9092  -20.0715 C   0  0  0  0  0  0  0  0  0  0  0  0
  -17.5181   12.1043  -19.9436 N   0  0  0  0  0  0  0  0  0  0  0  0
  -18.3952   12.3531  -18.9549 C   0  0  0  0  0  0  0  0  0  0  0  0
  -19.1026   13.4291  -18.5857 N   0  0  0  0  0  0  0  0  0  0  0  0
  -19.8335   13.1651  -17.5020 N   0  0  0  0  0  0  0  0  0  0  0  0
  -19.6133   11.8698  -17.1215 C   0  0  0  0  0  0  0  0  0  0  0  0
  -18.7137   11.3527  -18.0188 C   0  0  0  0  0  0  0  0  0  0  0  0
  -18.8825    8.2826  -17.4670 H   0  0  0  0  0  0  0  0  0  0  0  0
  -17.9460    9.1778  -16.2454 H   0  0  0  0  0  0  0  0  0  0  0  0
  -20.2279   11.2489  -15.9600 C   0  0  0  0  0  0  0  0  0  0  0  0
  -21.3421   10.4044  -16.1403 C   0  0  0  0  0  0  0  0  0  0  0  0
  -21.9017    9.7537  -15.0678 C   0  0  0  0  0  0  0  0  0  0  0  0
  -21.3929    9.9083  -13.7976 C   0  0  0  0  0  0  0  0  0  0  0  0
  -20.3030   10.7285  -13.6005 C   0  0  0  0  0  0  0  0  0  0  0  0
  -19.7505   11.3766  -14.6939 C   0  0  0  0  0  0  0  0  0  0  0  0
  -21.9378    9.2658  -12.6894 O   0  0  0  0  0  0  0  0  0  0  0  0
  -23.2877    9.4901  -12.3669 C   0  0  0  0  0  0  0  0  0  0  0  0
  -23.7010   10.7384  -11.9637 C   0  0  0  0  0  0  0  0  0  0  0  0
  -25.0396   10.9158  -11.6542 C   0  0  0  0  0  0  0  0  0  0  0  0
  -25.9632    9.8939  -11.7360 C   0  0  0  0  0  0  0  0  0  0  0  0
  -25.5427    8.6421  -12.1420 C   0  0  0  0  0  0  0  0  0  0  0  0
  -24.2073    8.4746  -12.4473 C   0  0  0  0  0  0  0  0  0  0  0  0
  -19.0829   14.7279  -19.1972 C   0  0  0  0  0  0  0  0  0  0  0  0
  -19.8141   14.7326  -20.5311 C   0  0  0  0  0  0  0  0  0  0  0  0
  -21.1463   15.4222  -20.4338 C   0  0  0  0  0  0  0  0  0  0  0  0
  -20.9737   16.9131  -20.1300 C   0  0  0  0  0  0  0  0  0  0  0  0
  -19.6373   17.0524  -19.4210 C   0  0  0  0  0  0  0  0  0  0  0  0
  -19.5870   15.8692  -18.4105 C   0  0  0  0  0  0  0  0  0  0  0  0
  -21.1141   17.6878  -21.2995 N   0  0  0  0  0  0  0  0  0  0  0  0
  -20.4151   18.4548  -21.2985 H   0  0  0  0  0  0  0  0  0  0  0  0
  -22.4097   18.1857  -21.6575 C   0  0  0  0  0  0  0  0  0  0  0  0
  -23.2559   18.4970  -20.5031 C   0  0  0  0  0  0  0  0  0  0  0  0
  -24.3100   17.7397  -20.1052 O   0  0  0  0  0  0  0  0  0  0  0  0
  -23.0080   19.5499  -19.7925 O   0  0  0  0  0  0  0  0  0  0  0  0
  -25.1570   18.1415  -19.7028 H   0  0  0  0  0  0  0  0  0  0  0  0
  -22.3055   19.3052  -22.6426 C   0  0  0  0  0  0  0  0  0  0  0  0
  -22.6910   18.9024  -24.0043 C   0  0  0  0  0  0  0  0  0  0  0  0
  -22.7941   19.8762  -25.0024 C   0  0  0  0  0  0  0  0  0  0  0  0
  -23.2177   19.5291  -26.2525 C   0  0  0  0  0  0  0  0  0  0  0  0
  -23.5597   18.2449  -26.6091 C   0  0  0  0  0  0  0  0  0  0  0  0
  -23.4651   17.2730  -25.6418 C   0  0  0  0  0  0  0  0  0  0  0  0
  -23.0405   17.6101  -24.3788 C   0  0  0  0  0  0  0  0  0  0  0  0
  1  2  1  0  0  0
  2  3  2  0  0  0
  3  4  1  0  0  0
  4  5  2  0  0  0
  5  6  1  0  0  0
  6  7  1  0  0  0
  7  8  1  0  0  0
  8  9  2  0  0  0
  9 13  1  0  0  0
 13 14  2  0  0  0
 14 15  1  0  0  0
 15 16  2  0  0  0
 16 19  1  0  0  0
 19 20  1  0  0  0
 20 21  2  0  0  0
 21 22  1  0  0  0
 22 23  2  0  0  0
 23 24  1  0  0  0
 24 25  2  0  0  0
 16 17  1  0  0  0
 17 18  2  0  0  0
  9 10  1  0  0  0
  7 26  1  0  0  0
 26 27  1  0  0  0
 27 28  1  0  0  0
 28 29  1  0  0  0
 29 30  1  0  0  0
 30 31  1  0  0  0
 29 32  1  0  0  0
 32 34  1  0  0  0
 34 39  1  0  0  0
 39 40  1  0  0  0
 40 41  2  0  0  0
 41 42  1  0  0  0
 42 43  2  0  0  0
 43 44  1  0  0  0
 44 45  2  0  0  0
 34 35  1  0  0  0
 35 36  1  0  0  0
 35 37  2  0  0  0
 10  2  1  0  0  0
 31 26  1  0  0  0
 45 40  1  0  0  0
 10  6  2  0  0  0
 18 13  1  0  0  0
 25 20  1  0  0  0
  1 11  1  0  0  0
  1 12  1  0  0  0
 32 33  1  0  0  0
 36 38  1  0  0  0
M  END
> <minimizedAffinity>
-7.89470

> <CNNscore>
0.4062353671

> <CNNaffinity>
6.8652353287

> <CNN_VS>
2.7889013290

> <CNNaffinity_variance>
0.1584998518

$$$$
[H]OC(=O)[C@]([H])(N([H])[C@]1([H])C([H])([H])C([H])([H])[C@@]([H])(n2nc(-c3c([H])c([H])c(Oc4c([H])c([H])c([H])c([H])c4[H])c([H])c3[H])c3c(N([H])[H])nc([H])nc32)C([H])([H])C1([H])[H])C([H])([H])c1c([H])c([H])c([H])c([H])c1[H]


 45 50  0  0  0  0  0  0  0  0999 V2000
  -17.7187    9.3927  -17.5257 N   0  0  0  0  0  0  0  0  0  0  0  0
  -17.7784   10.2547  -18.6622 C   0  0  0  0  0  0  0  0  0  0  0  0
  -16.9521   10.0522  -19.7168 N   0  0  0  0  0  0  0  0  0  0  0  0
  -16.9462   10.8838  -20.7720 C   0  0  0  0  0  0  0  0  0  0  0  0
  -17.7771   11.9373  -20.7761 N   0  0  0  0  0  0  0  0  0  0  0  0
  -18.6153   12.1792  -19.7526 C   0  0  0  0  0  0  0  0  0  0  0  0
  -19.5114   13.1394  -19.4889 N   0  0  0  0  0  0  0  0  0  0  0  0
  -20.0893   12.9343  -18.3047 N   0  0  0  0  0  0  0  0  0  0  0  0
  -19.5671   11.8005  -17.7453 C   0  0  0  0  0  0  0  0  0  0  0  0
  -18.6423   11.3215  -18.6381 C   0  0  0  0  0  0  0  0  0  0  0  0
  -18.1018    8.4319  -17.5813 H   0  0  0  0  0  0  0  0  0  0  0  0
  -17.2980    9.7033  -16.6285 H   0  0  0  0  0  0  0  0  0  0  0  0
  -19.9489   11.2893  -16.4394 C   0  0  0  0  0  0  0  0  0  0  0  0
  -20.6742   10.0833  -16.3580 C   0  0  0  0  0  0  0  0  0  0  0  0
  -20.9911    9.5441  -15.1350 C   0  0  0  0  0  0  0  0  0  0  0  0
  -20.6119   10.1632  -13.9650 C   0  0  0  0  0  0  0  0  0  0  0  0
  -19.9010   11.3425  -14.0231 C   0  0  0  0  0  0  0  0  0  0  0  0
  -19.5890   11.8718  -15.2654 C   0  0  0  0  0  0  0  0  0  0  0  0
  -20.9193    9.6451  -12.7101 O   0  0  0  0  0  0  0  0  0  0  0  0
  -19.8916    9.5014  -11.7615 C   0  0  0  0  0  0  0  0  0  0  0  0
  -18.9914    8.4676  -11.8732 C   0  0  0  0  0  0  0  0  0  0  0  0
  -17.9950    8.3618  -10.9166 C   0  0  0  0  0  0  0  0  0  0  0  0
  -17.8755    9.2490   -9.8665 C   0  0  0  0  0  0  0  0  0  0  0  0
  -18.7823   10.2859   -9.7594 C   0  0  0  0  0  0  0  0  0  0  0  0
  -19.7719   10.3827  -10.7165 C   0  0  0  0  0  0  0  0  0  0  0  0
  -19.8172   14.2830  -20.3013 C   0  0  0  0  0  0  0  0  0  0  0  0
  -20.8634   15.1734  -19.6481 C   0  0  0  0  0  0  0  0  0  0  0  0
  -20.2570   16.4342  -19.0982 C   0  0  0  0  0  0  0  0  0  0  0  0
  -19.7070   17.3164  -20.2225 C   0  0  0  0  0  0  0  0  0  0  0  0
  -19.3845   16.3841  -21.3778 C   0  0  0  0  0  0  0  0  0  0  0  0
  -18.6999   15.1478  -20.7247 C   0  0  0  0  0  0  0  0  0  0  0  0
  -20.6014   18.3621  -20.5294 N   0  0  0  0  0  0  0  0  0  0  0  0
  -21.0855   18.1586  -21.4245 H   0  0  0  0  0  0  0  0  0  0  0  0
  -20.1297   19.7155  -20.5066 C   0  0  0  0  0  0  0  0  0  0  0  0
  -19.4582   20.0796  -19.2567 C   0  0  0  0  0  0  0  0  0  0  0  0
  -18.1428   19.8564  -19.0059 O   0  0  0  0  0  0  0  0  0  0  0  0
  -20.1301   20.6565  -18.3130 O   0  0  0  0  0  0  0  0  0  0  0  0
  -17.7913   19.6148  -18.0791 H   0  0  0  0  0  0  0  0  0  0  0  0
  -19.3296   20.0300  -21.7296 C   0  0  0  0  0  0  0  0  0  0  0  0
  -20.1079   20.7523  -22.7482 C   0  0  0  0  0  0  0  0  0  0  0  0
  -19.4595   21.2360  -23.8887 C   0  0  0  0  0  0  0  0  0  0  0  0
  -20.1531   21.9676  -24.8086 C   0  0  0  0  0  0  0  0  0  0  0  0
  -21.4899   22.2701  -24.6868 C   0  0  0  0  0  0  0  0  0  0  0  0
  -22.1453   21.8036  -23.5723 C   0  0  0  0  0  0  0  0  0  0  0  0
  -21.4576   21.0663  -22.6383 C   0  0  0  0  0  0  0  0  0  0  0  0
  1  2  1  0  0  0
  2  3  2  0  0  0
  3  4  1  0  0  0
  4  5  2  0  0  0
  5  6  1  0  0  0
  6  7  1  0  0  0
  7  8  1  0  0  0
  8  9  2  0  0  0
  9 13  1  0  0  0
 13 14  2  0  0  0
 14 15  1  0  0  0
 15 16  2  0  0  0
 16 19  1  0  0  0
 19 20  1  0  0  0
 20 21  2  0  0  0
 21 22  1  0  0  0
 22 23  2  0  0  0
 23 24  1  0  0  0
 24 25  2  0  0  0
 16 17  1  0  0  0
 17 18  2  0  0  0
  9 10  1  0  0  0
  7 26  1  0  0  0
 26 27  1  0  0  0
 27 28  1  0  0  0
 28 29  1  0  0  0
 29 30  1  0  0  0
 30 31  1  0  0  0
 29 32  1  0  0  0
 32 34  1  0  0  0
 34 39  1  0  0  0
 39 40  1  0  0  0
 40 41  2  0  0  0
 41 42  1  0  0  0
 42 43  2  0  0  0
 43 44  1  0  0  0
 44 45  2  0  0  0
 34 35  1  0  0  0
 35 36  1  0  0  0
 35 37  2  0  0  0
 10  2  1  0  0  0
 31 26  1  0  0  0
 45 40  1  0  0  0
 10  6  2  0  0  0
 18 13  1  0  0  0
 25 20  1  0  0  0
  1 11  1  0  0  0
  1 12  1  0  0  0
 32 33  1  0  0  0
 36 38  1  0  0  0
M  END
> <minimizedAffinity>
-7.98855

> <CNNscore>
0.4027594030

> <CNNaffinity>
7.0657172203

> <CNN_VS>
2.8457839489

> <CNNaffinity_variance>
0.2206160277

$$$$
[H]OC(=O)[C@]([H])(N([H])[C@]1([H])C([H])([H])C([H])([H])[C@@]([H])(n2nc(-c3c([H])c([H])c(Oc4c([H])c([H])c([H])c([H])c4[H])c([H])c3[H])c3c(N([H])[H])nc([H])nc32)C([H])([H])C1([H])[H])C([H])([H])c1c([H])c([H])c([H])c([H])c1[H]


 45 50  0  0  0  0  0  0  0  0999 V2000
  -15.3304   12.3789  -23.3583 N   0  0  0  0  0  0  0  0  0  0  0  0
  -15.8481   13.5457  -23.9977 C   0  0  0  0  0  0  0  0  0  0  0  0
  -15.2903   13.9991  -25.1462 N   0  0  0  0  0  0  0  0  0  0  0  0
  -15.7194   15.1277  -25.7355 C   0  0  0  0  0  0  0  0  0  0  0  0
  -16.7209   15.8183  -25.1695 N   0  0  0  0  0  0  0  0  0  0  0  0
  -17.3058   15.4078  -24.0302 C   0  0  0  0  0  0  0  0  0  0  0  0
  -18.2826   15.8973  -23.2552 N   0  0  0  0  0  0  0  0  0  0  0  0
  -18.4898   15.1079  -22.2006 N   0  0  0  0  0  0  0  0  0  0  0  0
  -17.6244   14.0503  -22.2598 C   0  0  0  0  0  0  0  0  0  0  0  0
  -16.8765   14.2279  -23.3960 C   0  0  0  0  0  0  0  0  0  0  0  0
  -15.5115   11.4419  -23.7609 H   0  0  0  0  0  0  0  0  0  0  0  0
  -14.7697   12.4396  -22.4861 H   0  0  0  0  0  0  0  0  0  0  0  0
  -17.5530   13.0022  -21.2554 C   0  0  0  0  0  0  0  0  0  0  0  0
  -17.5475   13.3563  -19.8909 C   0  0  0  0  0  0  0  0  0  0  0  0
  -17.5464   12.3840  -18.9206 C   0  0  0  0  0  0  0  0  0  0  0  0
  -17.5502   11.0478  -19.2528 C   0  0  0  0  0  0  0  0  0  0  0  0
  -17.5571   10.6807  -20.5812 C   0  0  0  0  0  0  0  0  0  0  0  0
  -17.5590   11.6748  -21.5470 C   0  0  0  0  0  0  0  0  0  0  0  0
  -17.5464   10.0380  -18.2945 O   0  0  0  0  0  0  0  0  0  0  0  0
  -18.6523    9.9089  -17.4360 C   0  0  0  0  0  0  0  0  0  0  0  0
  -18.8438    8.7438  -16.7306 C   0  0  0  0  0  0  0  0  0  0  0  0
  -19.9468    8.6579  -15.8968 C   0  0  0  0  0  0  0  0  0  0  0  0
  -20.8505    9.6905  -15.7509 C   0  0  0  0  0  0  0  0  0  0  0  0
  -20.6530   10.8587  -16.4616 C   0  0  0  0  0  0  0  0  0  0  0  0
  -19.5520   10.9347  -17.2903 C   0  0  0  0  0  0  0  0  0  0  0  0
  -19.0089   17.1205  -23.4494 C   0  0  0  0  0  0  0  0  0  0  0  0
  -20.1280   17.2778  -22.4310 C   0  0  0  0  0  0  0  0  0  0  0  0
  -19.7909   18.3057  -21.3873 C   0  0  0  0  0  0  0  0  0  0  0  0
  -19.6872   19.7034  -22.0042 C   0  0  0  0  0  0  0  0  0  0  0  0
  -19.3288   19.4991  -23.4664 C   0  0  0  0  0  0  0  0  0  0  0  0
  -18.2447   18.3819  -23.4678 C   0  0  0  0  0  0  0  0  0  0  0  0
  -20.8630   20.4467  -21.7747 N   0  0  0  0  0  0  0  0  0  0  0  0
  -20.8339   20.8657  -20.8257 H   0  0  0  0  0  0  0  0  0  0  0  0
  -22.1362   19.8347  -22.0177 C   0  0  0  0  0  0  0  0  0  0  0  0
  -22.9902   19.7701  -20.8294 C   0  0  0  0  0  0  0  0  0  0  0  0
  -24.3001   19.4145  -20.8513 O   0  0  0  0  0  0  0  0  0  0  0  0
  -22.4958   20.0589  -19.6687 O   0  0  0  0  0  0  0  0  0  0  0  0
  -24.9944   19.8278  -20.2285 H   0  0  0  0  0  0  0  0  0  0  0  0
  -22.8097   20.4411  -23.2066 C   0  0  0  0  0  0  0  0  0  0  0  0
  -23.0138   19.4761  -24.2984 C   0  0  0  0  0  0  0  0  0  0  0  0
  -23.1767   19.9461  -25.6052 C   0  0  0  0  0  0  0  0  0  0  0  0
  -23.4362   19.0688  -26.6179 C   0  0  0  0  0  0  0  0  0  0  0  0
  -23.5507   17.7099  -26.4348 C   0  0  0  0  0  0  0  0  0  0  0  0
  -23.3937   17.2281  -25.1570 C   0  0  0  0  0  0  0  0  0  0  0  0
  -23.1329   18.1016  -24.1286 C   0  0  0  0  0  0  0  0  0  0  0  0
  1  2  1  0  0  0
  2  3  2  0  0  0
  3  4  1  0  0  0
  4  5  2  0  0  0
  5  6  1  0  0  0
  6  7  1  0  0  0
  7  8  1  0  0  0
  8  9  2  0  0  0
  9 13  1  0  0  0
 13 14  2  0  0  0
 14 15  1  0  0  0
 15 16  2  0  0  0
 16 19  1  0  0  0
 19 20  1  0  0  0
 20 21  2  0  0  0
 21 22  1  0  0  0
 22 23  2  0  0  0
 23 24  1  0  0  0
 24 25  2  0  0  0
 16 17  1  0  0  0
 17 18  2  0  0  0
  9 10  1  0  0  0
  7 26  1  0  0  0
 26 27  1  0  0  0
 27 28  1  0  0  0
 28 29  1  0  0  0
 29 30  1  0  0  0
 30 31  1  0  0  0
 29 32  1  0  0  0
 32 34  1  0  0  0
 34 39  1  0  0  0
 39 40  1  0  0  0
 40 41  2  0  0  0
 41 42  1  0  0  0
 42 43  2  0  0  0
 43 44  1  0  0  0
 44 45  2  0  0  0
 34 35  1  0  0  0
 35 36  1  0  0  0
 35 37  2  0  0  0
 10  2  1  0  0  0
 31 26  1  0  0  0
 45 40  1  0  0  0
 10  6  2  0  0  0
 18 13  1  0  0  0
 25 20  1  0  0  0
  1 11  1  0  0  0
  1 12  1  0  0  0
 32 33  1  0  0  0
 36 38  1  0  0  0
M  END
> <minimizedAffinity>
-10.18510

> <CNNscore>
0.4022482336

> <CNNaffinity>
7.4240617752

> <CNN_VS>
2.9863157272

> <CNNaffinity_variance>
0.0591714568

$$$$
[H]OC(=O)[C@]([H])(N([H])[C@]1([H])C([H])([H])C([H])([H])[C@@]([H])(n2nc(-c3c([H])c([H])c(Oc4c([H])c([H])c([H])c([H])c4[H])c([H])c3[H])c3c(N([H])[H])nc([H])nc32)C([H])([H])C1([H])[H])C([H])([H])c1c([H])c([H])c([H])c([H])c1[H]


 45 50  0  0  0  0  0  0  0  0999 V2000
  -17.8956   13.3567  -21.7116 N   0  0  0  0  0  0  0  0  0  0  0  0
  -17.6261   12.2587  -20.8398 C   0  0  0  0  0  0  0  0  0  0  0  0
  -16.7938   11.2640  -21.2320 N   0  0  0  0  0  0  0  0  0  0  0  0
  -16.5705   10.1905  -20.4556 C   0  0  0  0  0  0  0  0  0  0  0  0
  -17.1888   10.1052  -19.2678 N   0  0  0  0  0  0  0  0  0  0  0  0
  -18.0234   11.0673  -18.8358 C   0  0  0  0  0  0  0  0  0  0  0  0
  -18.7707   11.2277  -17.7357 N   0  0  0  0  0  0  0  0  0  0  0  0
  -19.4511   12.3734  -17.7895 N   0  0  0  0  0  0  0  0  0  0  0  0
  -19.1587   13.0097  -18.9644 C   0  0  0  0  0  0  0  0  0  0  0  0
  -18.2709   12.2023  -19.6290 C   0  0  0  0  0  0  0  0  0  0  0  0
  -17.1757   14.0848  -21.8685 H   0  0  0  0  0  0  0  0  0  0  0  0
  -18.8067   13.4523  -22.2009 H   0  0  0  0  0  0  0  0  0  0  0  0
  -19.7440   14.2771  -19.3691 C   0  0  0  0  0  0  0  0  0  0  0  0
  -18.9621   15.4482  -19.3024 C   0  0  0  0  0  0  0  0  0  0  0  0
  -19.4687   16.6478  -19.7397 C   0  0  0  0  0  0  0  0  0  0  0  0
  -20.7443   16.7373  -20.2505 C   0  0  0  0  0  0  0  0  0  0  0  0
  -21.5244   15.6036  -20.3253 C   0  0  0  0  0  0  0  0  0  0  0  0
  -20.9970   14.4015  -19.8805 C   0  0  0  0  0  0  0  0  0  0  0  0
  -21.2886   17.9374  -20.6993 O   0  0  0  0  0  0  0  0  0  0  0  0
  -21.8468   17.9927  -21.9885 C   0  0  0  0  0  0  0  0  0  0  0  0
  -21.0296   18.1169  -23.0877 C   0  0  0  0  0  0  0  0  0  0  0  0
  -21.6207   18.1689  -24.3395 C   0  0  0  0  0  0  0  0  0  0  0  0
  -22.9870   18.1009  -24.5198 C   0  0  0  0  0  0  0  0  0  0  0  0
  -23.8032   17.9758  -23.4121 C   0  0  0  0  0  0  0  0  0  0  0  0
  -23.2055   17.9257  -22.1692 C   0  0  0  0  0  0  0  0  0  0  0  0
  -18.9042   10.3096  -16.6401 C   0  0  0  0  0  0  0  0  0  0  0  0
  -19.9490   10.7775  -15.6383 C   0  0  0  0  0  0  0  0  0  0  0  0
  -21.2121    9.9678  -15.7316 C   0  0  0  0  0  0  0  0  0  0  0  0
  -20.9658    8.5138  -15.3191 C   0  0  0  0  0  0  0  0  0  0  0  0
  -19.4933    8.2411  -15.5747 C   0  0  0  0  0  0  0  0  0  0  0  0
  -19.1909    8.8972  -16.9538 C   0  0  0  0  0  0  0  0  0  0  0  0
  -21.3962    8.2828  -13.9966 N   0  0  0  0  0  0  0  0  0  0  0  0
  -22.3087    8.7508  -13.8375 H   0  0  0  0  0  0  0  0  0  0  0  0
  -20.4970    8.5474  -12.9120 C   0  0  0  0  0  0  0  0  0  0  0  0
  -20.7825    9.8000  -12.2082 C   0  0  0  0  0  0  0  0  0  0  0  0
  -19.9592   10.8794  -12.2102 O   0  0  0  0  0  0  0  0  0  0  0  0
  -21.8823    9.9213  -11.5369 O   0  0  0  0  0  0  0  0  0  0  0  0
  -19.8519   11.4927  -11.4021 H   0  0  0  0  0  0  0  0  0  0  0  0
  -20.3804    7.3646  -12.0054 C   0  0  0  0  0  0  0  0  0  0  0  0
  -19.0474    7.2458  -11.3939 C   0  0  0  0  0  0  0  0  0  0  0  0
  -18.3227    6.0612  -11.5578 C   0  0  0  0  0  0  0  0  0  0  0  0
  -17.1156    5.9094  -10.9394 C   0  0  0  0  0  0  0  0  0  0  0  0
  -16.5444    6.8739  -10.1415 C   0  0  0  0  0  0  0  0  0  0  0  0
  -17.2414    8.0458   -9.9679 C   0  0  0  0  0  0  0  0  0  0  0  0
  -18.4584    8.2105  -10.5847 C   0  0  0  0  0  0  0  0  0  0  0  0
  1  2  1  0  0  0
  2  3  2  0  0  0
  3  4  1  0  0  0
  4  5  2  0  0  0
  5  6  1  0  0  0
  6  7  1  0  0  0
  7  8  1  0  0  0
  8  9  2  0  0  0
  9 13  1  0  0  0
 13 14  2  0  0  0
 14 15  1  0  0  0
 15 16  2  0  0  0
 16 19  1  0  0  0
 19 20  1  0  0  0
 20 21  2  0  0  0
 21 22  1  0  0  0
 22 23  2  0  0  0
 23 24  1  0  0  0
 24 25  2  0  0  0
 16 17  1  0  0  0
 17 18  2  0  0  0
  9 10  1  0  0  0
  7 26  1  0  0  0
 26 27  1  0  0  0
 27 28  1  0  0  0
 28 29  1  0  0  0
 29 30  1  0  0  0
 30 31  1  0  0  0
 29 32  1  0  0  0
 32 34  1  0  0  0
 34 39  1  0  0  0
 39 40  1  0  0  0
 40 41  2  0  0  0
 41 42  1  0  0  0
 42 43  2  0  0  0
 43 44  1  0  0  0
 44 45  2  0  0  0
 34 35  1  0  0  0
 35 36  1  0  0  0
 35 37  2  0  0  0
 10  2  1  0  0  0
 31 26  1  0  0  0
 45 40  1  0  0  0
 10  6  2  0  0  0
 18 13  1  0  0  0
 25 20  1  0  0  0
  1 11  1  0  0  0
  1 12  1  0  0  0
 32 33  1  0  0  0
 36 38  1  0  0  0
M  END
> <minimizedAffinity>
-8.30963

> <CNNscore>
0.3962022364

> <CNNaffinity>
7.0507164001

> <CNN_VS>
2.7935097218

> <CNNaffinity_variance>
0.1717170477

$$$$
[H]OC(=O)[C@]([H])(N([H])[C@]1([H])C([H])([H])C([H])([H])[C@@]([H])(n2c([H])c(-c3c([H])c([H])c(Oc4c([H])c([H])c([H])c([H])c4[H])c([H])c3[H])c3c(N([H])[H])nc([H])nc32)C([H])([H])C1([H])[H])C([H])([H])O[H]


 41 45  0  0  0  0  0  0  0  0999 V2000
  -17.2550    9.8378  -18.3803 N   0  0  0  0  0  0  0  0  0  0  0  0
  -16.7970   10.4153  -19.5839 C   0  0  0  0  0  0  0  0  0  0  0  0
  -15.8932    9.7944  -20.3745 N   0  0  0  0  0  0  0  0  0  0  0  0
  -15.4908   10.3569  -21.5214 C   0  0  0  0  0  0  0  0  0  0  0  0
  -15.9786   11.5388  -21.8991 N   0  0  0  0  0  0  0  0  0  0  0  0
  -16.8679   12.2024  -21.1711 C   0  0  0  0  0  0  0  0  0  0  0  0
  -17.5189   13.3917  -21.3261 N   0  0  0  0  0  0  0  0  0  0  0  0
  -18.3302   13.5863  -20.2822 C   0  0  0  0  0  0  0  0  0  0  0  0
  -18.2076   12.5013  -19.4233 C   0  0  0  0  0  0  0  0  0  0  0  0
  -17.3076   11.6463  -19.9707 C   0  0  0  0  0  0  0  0  0  0  0  0
  -16.6035    9.7427  -17.5783 H   0  0  0  0  0  0  0  0  0  0  0  0
  -18.2309    9.4862  -18.2266 H   0  0  0  0  0  0  0  0  0  0  0  0
  -18.8941   12.3961  -18.1675 C   0  0  0  0  0  0  0  0  0  0  0  0
  -19.6501   11.2762  -17.8532 C   0  0  0  0  0  0  0  0  0  0  0  0
  -20.3322   11.2004  -16.6586 C   0  0  0  0  0  0  0  0  0  0  0  0
  -20.3113   12.2077  -15.7164 C   0  0  0  0  0  0  0  0  0  0  0  0
  -19.5649   13.3260  -16.0170 C   0  0  0  0  0  0  0  0  0  0  0  0
  -18.8830   13.4073  -17.2057 C   0  0  0  0  0  0  0  0  0  0  0  0
  -21.0136   12.1149  -14.4962 O   0  0  0  0  0  0  0  0  0  0  0  0
  -20.7255   10.9703  -13.7594 C   0  0  0  0  0  0  0  0  0  0  0  0
  -21.6842    9.9643  -13.5951 C   0  0  0  0  0  0  0  0  0  0  0  0
  -21.4436    8.8144  -12.8740 C   0  0  0  0  0  0  0  0  0  0  0  0
  -20.2235    8.6301  -12.2868 C   0  0  0  0  0  0  0  0  0  0  0  0
  -19.2498    9.5946  -12.4224 C   0  0  0  0  0  0  0  0  0  0  0  0
  -19.5118   10.7491  -13.1547 C   0  0  0  0  0  0  0  0  0  0  0  0
  -17.2997   14.2337  -22.4444 C   0  0  0  0  0  0  0  0  0  0  0  0
  -18.5180   14.8781  -23.0075 C   0  0  0  0  0  0  0  0  0  0  0  0
  -18.1156   15.3918  -24.4082 C   0  0  0  0  0  0  0  0  0  0  0  0
  -17.0610   16.4165  -24.3118 C   0  0  0  0  0  0  0  0  0  0  0  0
  -15.9906   16.1914  -23.2648 C   0  0  0  0  0  0  0  0  0  0  0  0
  -16.3625   15.3903  -22.0860 C   0  0  0  0  0  0  0  0  0  0  0  0
  -16.3638   16.5828  -25.5422 N   0  0  0  0  0  0  0  0  0  0  0  0
  -16.2514   17.5651  -25.8646 H   0  0  0  0  0  0  0  0  0  0  0  0
  -15.5791   15.6106  -26.1224 C   0  0  0  0  0  0  0  0  0  0  0  0
  -16.1630   15.2925  -27.4815 C   0  0  0  0  0  0  0  0  0  0  0  0
  -16.0472   16.1592  -28.5539 O   0  0  0  0  0  0  0  0  0  0  0  0
  -16.7657   14.2160  -27.6333 O   0  0  0  0  0  0  0  0  0  0  0  0
  -15.9037   15.8594  -29.4879 H   0  0  0  0  0  0  0  0  0  0  0  0
  -14.1238   15.8253  -26.3506 C   0  0  0  0  0  0  0  0  0  0  0  0
  -13.3658   15.2751  -25.3123 O   0  0  0  0  0  0  0  0  0  0  0  0
  -12.4696   15.0131  -25.6843 H   0  0  0  0  0  0  0  0  0  0  0  0
  1  2  1  0  0  0
  2  3  2  0  0  0
  3  4  1  0  0  0
  4  5  2  0  0  0
  5  6  1  0  0  0
  6  7  1  0  0  0
  7  8  1  0  0  0
  8  9  2  0  0  0
  9 13  1  0  0  0
 13 14  2  0  0  0
 14 15  1  0  0  0
 15 16  2  0  0  0
 16 19  1  0  0  0
 19 20  1  0  0  0
 20 21  2  0  0  0
 21 22  1  0  0  0
 22 23  2  0  0  0
 23 24  1  0  0  0
 24 25  2  0  0  0
 16 17  1  0  0  0
 17 18  2  0  0  0
  9 10  1  0  0  0
  7 26  1  0  0  0
 26 27  1  0  0  0
 27 28  1  0  0  0
 28 29  1  0  0  0
 29 30  1  0  0  0
 30 31  1  0  0  0
 29 32  1  0  0  0
 32 34  1  0  0  0
 34 39  1  0  0  0
 39 40  1  0  0  0
 34 35  1  0  0  0
 35 36  1  0  0  0
 35 37  2  0  0  0
 10  2  1  0  0  0
 31 26  1  0  0  0
 10  6  2  0  0  0
 18 13  1  0  0  0
 25 20  1  0  0  0
  1 11  1  0  0  0
  1 12  1  0  0  0
 32 33  1  0  0  0
 40 41  1  0  0  0
 36 38  1  0  0  0
M  END
> <minimizedAffinity>
-9.54050

> <CNNscore>
0.8309519291

> <CNNaffinity>
7.4801688194

> <CNN_VS>
6.2156605721

> <CNNaffinity_variance>
0.0287096836

$$$$
[H]OC(=O)[C@]([H])(N([H])[C@]1([H])C([H])([H])C([H])([H])[C@@]([H])(n2c([H])c(-c3c([H])c([H])c(Oc4c([H])c([H])c([H])c([H])c4[H])c([H])c3[H])c3c(N([H])[H])nc([H])nc32)C([H])([H])C1([H])[H])C([H])([H])O[H]


 41 45  0  0  0  0  0  0  0  0999 V2000
  -18.2120    9.2434  -17.4235 N   0  0  0  0  0  0  0  0  0  0  0  0
  -17.9601   10.2254  -18.4053 C   0  0  0  0  0  0  0  0  0  0  0  0
  -17.1223    9.9996  -19.4419 N   0  0  0  0  0  0  0  0  0  0  0  0
  -16.9169   10.9430  -20.3701 C   0  0  0  0  0  0  0  0  0  0  0  0
  -17.5386   12.1193  -20.2836 N   0  0  0  0  0  0  0  0  0  0  0  0
  -18.3736   12.4069  -19.2930 C   0  0  0  0  0  0  0  0  0  0  0  0
  -19.1281   13.4998  -18.9792 N   0  0  0  0  0  0  0  0  0  0  0  0
  -19.8091   13.2542  -17.8559 C   0  0  0  0  0  0  0  0  0  0  0  0
  -19.4930   11.9725  -17.4230 C   0  0  0  0  0  0  0  0  0  0  0  0
  -18.6094   11.4481  -18.3089 C   0  0  0  0  0  0  0  0  0  0  0  0
  -17.4562    8.9712  -16.7666 H   0  0  0  0  0  0  0  0  0  0  0  0
  -19.1298    8.7512  -17.3007 H   0  0  0  0  0  0  0  0  0  0  0  0
  -20.0001   11.3913  -16.2128 C   0  0  0  0  0  0  0  0  0  0  0  0
  -21.1995   10.6945  -16.1977 C   0  0  0  0  0  0  0  0  0  0  0  0
  -21.6933   10.1694  -15.0235 C   0  0  0  0  0  0  0  0  0  0  0  0
  -21.0456   10.2974  -13.8124 C   0  0  0  0  0  0  0  0  0  0  0  0
  -19.8537   10.9884  -13.8138 C   0  0  0  0  0  0  0  0  0  0  0  0
  -19.3566   11.5138  -14.9805 C   0  0  0  0  0  0  0  0  0  0  0  0
  -21.5629    9.7524  -12.6182 O   0  0  0  0  0  0  0  0  0  0  0  0
  -21.3158   10.5236  -11.4868 C   0  0  0  0  0  0  0  0  0  0  0  0
  -20.4070   10.0955  -10.5128 C   0  0  0  0  0  0  0  0  0  0  0  0
  -20.1312   10.8258   -9.3766 C   0  0  0  0  0  0  0  0  0  0  0  0
  -20.7617   12.0212   -9.1744 C   0  0  0  0  0  0  0  0  0  0  0  0
  -21.6644   12.4814  -10.1072 C   0  0  0  0  0  0  0  0  0  0  0  0
  -21.9294   11.7295  -11.2483 C   0  0  0  0  0  0  0  0  0  0  0  0
  -19.1215   14.6757  -19.7697 C   0  0  0  0  0  0  0  0  0  0  0  0
  -20.3641   15.4936  -19.7088 C   0  0  0  0  0  0  0  0  0  0  0  0
  -20.2953   16.4576  -20.9145 C   0  0  0  0  0  0  0  0  0  0  0  0
  -19.1433   17.3691  -20.7966 C   0  0  0  0  0  0  0  0  0  0  0  0
  -17.8649   16.7775  -20.2416 C   0  0  0  0  0  0  0  0  0  0  0  0
  -17.9967   15.6210  -19.3389 C   0  0  0  0  0  0  0  0  0  0  0  0
  -18.7867   17.9439  -22.0495 N   0  0  0  0  0  0  0  0  0  0  0  0
  -18.9942   17.3612  -22.8854 H   0  0  0  0  0  0  0  0  0  0  0  0
  -18.5165   19.2818  -22.2361 C   0  0  0  0  0  0  0  0  0  0  0  0
  -19.2509   19.7348  -23.4790 C   0  0  0  0  0  0  0  0  0  0  0  0
  -18.8744   20.8625  -24.1869 O   0  0  0  0  0  0  0  0  0  0  0  0
  -20.2238   19.0682  -23.8718 O   0  0  0  0  0  0  0  0  0  0  0  0
  -18.9066   20.9251  -25.1757 H   0  0  0  0  0  0  0  0  0  0  0  0
  -18.8389   20.2896  -21.1891 C   0  0  0  0  0  0  0  0  0  0  0  0
  -18.1500   21.4857  -21.4138 O   0  0  0  0  0  0  0  0  0  0  0  0
  -18.6974   22.2379  -21.0336 H   0  0  0  0  0  0  0  0  0  0  0  0
  1  2  1  0  0  0
  2  3  2  0  0  0
  3  4  1  0  0  0
  4  5  2  0  0  0
  5  6  1  0  0  0
  6  7  1  0  0  0
  7  8  1  0  0  0
  8  9  2  0  0  0
  9 13  1  0  0  0
 13 14  2  0  0  0
 14 15  1  0  0  0
 15 16  2  0  0  0
 16 19  1  0  0  0
 19 20  1  0  0  0
 20 21  2  0  0  0
 21 22  1  0  0  0
 22 23  2  0  0  0
 23 24  1  0  0  0
 24 25  2  0  0  0
 16 17  1  0  0  0
 17 18  2  0  0  0
  9 10  1  0  0  0
  7 26  1  0  0  0
 26 27  1  0  0  0
 27 28  1  0  0  0
 28 29  1  0  0  0
 29 30  1  0  0  0
 30 31  1  0  0  0
 29 32  1  0  0  0
 32 34  1  0  0  0
 34 39  1  0  0  0
 39 40  1  0  0  0
 34 35  1  0  0  0
 35 36  1  0  0  0
 35 37  2  0  0  0
 10  2  1  0  0  0
 31 26  1  0  0  0
 10  6  2  0  0  0
 18 13  1  0  0  0
 25 20  1  0  0  0
  1 11  1  0  0  0
  1 12  1  0  0  0
 32 33  1  0  0  0
 40 41  1  0  0  0
 36 38  1  0  0  0
M  END
> <minimizedAffinity>
-7.79265

> <CNNscore>
0.6392322183

> <CNNaffinity>
6.9867639542

> <CNN_VS>
4.4661645889

> <CNNaffinity_variance>
0.1561045200

$$$$
[H]OC(=O)[C@]([H])(N([H])[C@]1([H])C([H])([H])C([H])([H])[C@@]([H])(n2c([H])c(-c3c([H])c([H])c(Oc4c([H])c([H])c([H])c([H])c4[H])c([H])c3[H])c3c(N([H])[H])nc([H])nc32)C([H])([H])C1([H])[H])C([H])([H])O[H]


 41 45  0  0  0  0  0  0  0  0999 V2000
  -17.3254    9.8573  -18.2981 N   0  0  0  0  0  0  0  0  0  0  0  0
  -16.8631   10.4188  -19.5075 C   0  0  0  0  0  0  0  0  0  0  0  0
  -15.9510    9.7908  -20.2830 N   0  0  0  0  0  0  0  0  0  0  0  0
  -15.5446   10.3378  -21.4359 C   0  0  0  0  0  0  0  0  0  0  0  0
  -16.0365   11.5110  -21.8348 N   0  0  0  0  0  0  0  0  0  0  0  0
  -16.9341   12.1807  -21.1225 C   0  0  0  0  0  0  0  0  0  0  0  0
  -17.5905   13.3639  -21.2998 N   0  0  0  0  0  0  0  0  0  0  0  0
  -18.4094   13.5700  -20.2641 C   0  0  0  0  0  0  0  0  0  0  0  0
  -18.2861   12.4991  -19.3878 C   0  0  0  0  0  0  0  0  0  0  0  0
  -17.3781   11.6408  -19.9164 C   0  0  0  0  0  0  0  0  0  0  0  0
  -16.6785    9.7782  -17.4907 H   0  0  0  0  0  0  0  0  0  0  0  0
  -18.3004    9.5026  -18.1449 H   0  0  0  0  0  0  0  0  0  0  0  0
  -18.9799   12.4093  -18.1348 C   0  0  0  0  0  0  0  0  0  0  0  0
  -18.7697   13.3408  -17.1285 C   0  0  0  0  0  0  0  0  0  0  0  0
  -19.4161   13.2259  -15.9172 C   0  0  0  0  0  0  0  0  0  0  0  0
  -20.2945   12.2022  -15.6287 C   0  0  0  0  0  0  0  0  0  0  0  0
  -20.5111   11.2698  -16.6195 C   0  0  0  0  0  0  0  0  0  0  0  0
  -19.8700   11.3790  -17.8285 C   0  0  0  0  0  0  0  0  0  0  0  0
  -20.9507   12.0988  -14.3839 O   0  0  0  0  0  0  0  0  0  0  0  0
  -22.2246   12.6579  -14.3639 C   0  0  0  0  0  0  0  0  0  0  0  0
  -22.4236   13.9990  -14.7105 C   0  0  0  0  0  0  0  0  0  0  0  0
  -23.6665   14.5950  -14.7048 C   0  0  0  0  0  0  0  0  0  0  0  0
  -24.7635   13.8623  -14.3484 C   0  0  0  0  0  0  0  0  0  0  0  0
  -24.6143   12.5384  -13.9996 C   0  0  0  0  0  0  0  0  0  0  0  0
  -23.3509   11.9543  -14.0116 C   0  0  0  0  0  0  0  0  0  0  0  0
  -17.3690   14.1898  -22.4297 C   0  0  0  0  0  0  0  0  0  0  0  0
  -18.5684   14.9090  -22.9404 C   0  0  0  0  0  0  0  0  0  0  0  0
  -18.1974   15.3956  -24.3592 C   0  0  0  0  0  0  0  0  0  0  0  0
  -17.0774   16.3522  -24.3133 C   0  0  0  0  0  0  0  0  0  0  0  0
  -15.9777   16.0610  -23.3141 C   0  0  0  0  0  0  0  0  0  0  0  0
  -16.3462   15.2855  -22.1172 C   0  0  0  0  0  0  0  0  0  0  0  0
  -16.4267   16.4737  -25.5740 N   0  0  0  0  0  0  0  0  0  0  0  0
  -16.3106   17.4449  -25.9269 H   0  0  0  0  0  0  0  0  0  0  0  0
  -15.6818   15.4727  -26.1579 C   0  0  0  0  0  0  0  0  0  0  0  0
  -16.1924   15.2769  -27.5687 C   0  0  0  0  0  0  0  0  0  0  0  0
  -16.0922   16.2653  -28.5319 O   0  0  0  0  0  0  0  0  0  0  0  0
  -16.7184   14.1906  -27.8660 O   0  0  0  0  0  0  0  0  0  0  0  0
  -15.8946   16.0827  -29.4861 H   0  0  0  0  0  0  0  0  0  0  0  0
  -14.2018   15.5790  -26.2774 C   0  0  0  0  0  0  0  0  0  0  0  0
  -13.8073   16.9067  -26.4700 O   0  0  0  0  0  0  0  0  0  0  0  0
  -12.8839   17.0168  -26.0888 H   0  0  0  0  0  0  0  0  0  0  0  0
  1  2  1  0  0  0
  2  3  2  0  0  0
  3  4  1  0  0  0
  4  5  2  0  0  0
  5  6  1  0  0  0
  6  7  1  0  0  0
  7  8  1  0  0  0
  8  9  2  0  0  0
  9 13  1  0  0  0
 13 14  2  0  0  0
 14 15  1  0  0  0
 15 16  2  0  0  0
 16 19  1  0  0  0
 19 20  1  0  0  0
 20 21  2  0  0  0
 21 22  1  0  0  0
 22 23  2  0  0  0
 23 24  1  0  0  0
 24 25  2  0  0  0
 16 17  1  0  0  0
 17 18  2  0  0  0
  9 10  1  0  0  0
  7 26  1  0  0  0
 26 27  1  0  0  0
 27 28  1  0  0  0
 28 29  1  0  0  0
 29 30  1  0  0  0
 30 31  1  0  0  0
 29 32  1  0  0  0
 32 34  1  0  0  0
 34 39  1  0  0  0
 39 40  1  0  0  0
 34 35  1  0  0  0
 35 36  1  0  0  0
 35 37  2  0  0  0
 10  2  1  0  0  0
 31 26  1  0  0  0
 10  6  2  0  0  0
 18 13  1  0  0  0
 25 20  1  0  0  0
  1 11  1  0  0  0
  1 12  1  0  0  0
 32 33  1  0  0  0
 40 41  1  0  0  0
 36 38  1  0  0  0
M  END
> <minimizedAffinity>
-9.06355

> <CNNscore>
0.5814199448

> <CNNaffinity>
7.3923783302

> <CNN_VS>
4.2980761528

> <CNNaffinity_variance>
0.1399346739

$$$$
[H]OC(=O)[C@]([H])(N([H])[C@]1([H])C([H])([H])C([H])([H])[C@@]([H])(n2c([H])c(-c3c([H])c([H])c(Oc4c([H])c([H])c([H])c([H])c4[H])c([H])c3[H])c3c(N([H])[H])nc([H])nc32)C([H])([H])C1([H])[H])C([H])([H])O[H]


 41 45  0  0  0  0  0  0  0  0999 V2000
  -17.3265   13.5103  -21.2781 N   0  0  0  0  0  0  0  0  0  0  0  0
  -17.4044   12.2957  -20.5636 C   0  0  0  0  0  0  0  0  0  0  0  0
  -16.6489   11.2242  -20.8934 N   0  0  0  0  0  0  0  0  0  0  0  0
  -16.7291   10.0901  -20.1855 C   0  0  0  0  0  0  0  0  0  0  0  0
  -17.5563   10.0039  -19.1435 N   0  0  0  0  0  0  0  0  0  0  0  0
  -18.3257   11.0170  -18.7653 C   0  0  0  0  0  0  0  0  0  0  0  0
  -19.2292   11.1938  -17.7581 N   0  0  0  0  0  0  0  0  0  0  0  0
  -19.7232   12.4336  -17.8254 C   0  0  0  0  0  0  0  0  0  0  0  0
  -19.1315   13.0835  -18.9013 C   0  0  0  0  0  0  0  0  0  0  0  0
  -18.2683   12.2120  -19.4809 C   0  0  0  0  0  0  0  0  0  0  0  0
  -17.6747   13.5525  -22.2546 H   0  0  0  0  0  0  0  0  0  0  0  0
  -16.9327   14.4012  -20.8895 H   0  0  0  0  0  0  0  0  0  0  0  0
  -19.4647   14.4187  -19.3084 C   0  0  0  0  0  0  0  0  0  0  0  0
  -20.6381   14.6884  -19.9974 C   0  0  0  0  0  0  0  0  0  0  0  0
  -20.9318   15.9689  -20.4127 C   0  0  0  0  0  0  0  0  0  0  0  0
  -20.1000   17.0439  -20.1780 C   0  0  0  0  0  0  0  0  0  0  0  0
  -18.9307   16.7892  -19.4955 C   0  0  0  0  0  0  0  0  0  0  0  0
  -18.6327   15.5155  -19.0792 C   0  0  0  0  0  0  0  0  0  0  0  0
  -20.4152   18.3503  -20.6079 O   0  0  0  0  0  0  0  0  0  0  0  0
  -21.3213   18.3993  -21.6626 C   0  0  0  0  0  0  0  0  0  0  0  0
  -22.6919   18.5480  -21.4228 C   0  0  0  0  0  0  0  0  0  0  0  0
  -23.6255   18.6012  -22.4357 C   0  0  0  0  0  0  0  0  0  0  0  0
  -23.2154   18.5064  -23.7357 C   0  0  0  0  0  0  0  0  0  0  0  0
  -21.8756   18.3590  -24.0182 C   0  0  0  0  0  0  0  0  0  0  0  0
  -20.9479   18.3075  -22.9816 C   0  0  0  0  0  0  0  0  0  0  0  0
  -19.5446   10.1654  -16.8358 C   0  0  0  0  0  0  0  0  0  0  0  0
  -18.4805    9.1449  -16.6283 C   0  0  0  0  0  0  0  0  0  0  0  0
  -19.1710    7.9491  -15.9347 C   0  0  0  0  0  0  0  0  0  0  0  0
  -19.6954    8.3363  -14.6130 C   0  0  0  0  0  0  0  0  0  0  0  0
  -20.3089    9.7163  -14.5048 C   0  0  0  0  0  0  0  0  0  0  0  0
  -19.8253   10.7416  -15.4452 C   0  0  0  0  0  0  0  0  0  0  0  0
  -20.6962    7.4351  -14.1506 N   0  0  0  0  0  0  0  0  0  0  0  0
  -20.9954    7.5656  -13.1633 H   0  0  0  0  0  0  0  0  0  0  0  0
  -21.4894    6.6714  -14.9784 C   0  0  0  0  0  0  0  0  0  0  0  0
  -21.8032    5.3786  -14.2576 C   0  0  0  0  0  0  0  0  0  0  0  0
  -23.0003    4.7079  -14.4360 O   0  0  0  0  0  0  0  0  0  0  0  0
  -20.9539    4.9088  -13.4810 O   0  0  0  0  0  0  0  0  0  0  0  0
  -23.0761    3.7199  -14.4639 H   0  0  0  0  0  0  0  0  0  0  0  0
  -22.7956    7.1780  -15.4817 C   0  0  0  0  0  0  0  0  0  0  0  0
  -23.5764    7.6804  -14.4360 O   0  0  0  0  0  0  0  0  0  0  0  0
  -24.1755    8.3959  -14.8090 H   0  0  0  0  0  0  0  0  0  0  0  0
  1  2  1  0  0  0
  2  3  2  0  0  0
  3  4  1  0  0  0
  4  5  2  0  0  0
  5  6  1  0  0  0
  6  7  1  0  0  0
  7  8  1  0  0  0
  8  9  2  0  0  0
  9 13  1  0  0  0
 13 14  2  0  0  0
 14 15  1  0  0  0
 15 16  2  0  0  0
 16 19  1  0  0  0
 19 20  1  0  0  0
 20 21  2  0  0  0
 21 22  1  0  0  0
 22 23  2  0  0  0
 23 24  1  0  0  0
 24 25  2  0  0  0
 16 17  1  0  0  0
 17 18  2  0  0  0
  9 10  1  0  0  0
  7 26  1  0  0  0
 26 27  1  0  0  0
 27 28  1  0  0  0
 28 29  1  0  0  0
 29 30  1  0  0  0
 30 31  1  0  0  0
 29 32  1  0  0  0
 32 34  1  0  0  0
 34 39  1  0  0  0
 39 40  1  0  0  0
 34 35  1  0  0  0
 35 36  1  0  0  0
 35 37  2  0  0  0
 10  2  1  0  0  0
 31 26  1  0  0  0
 10  6  2  0  0  0
 18 13  1  0  0  0
 25 20  1  0  0  0
  1 11  1  0  0  0
  1 12  1  0  0  0
 32 33  1  0  0  0
 40 41  1  0  0  0
 36 38  1  0  0  0
M  END
> <minimizedAffinity>
-7.45665

> <CNNscore>
0.5561685562

> <CNNaffinity>
6.9882254601

> <CNN_VS>
3.8866312504

> <CNNaffinity_variance>
0.2691107690

$$$$
[H]OC(=O)[C@]([H])(N([H])[C@]1([H])C([H])([H])C([H])([H])[C@@]([H])(n2c([H])c(-c3c([H])c([H])c(Oc4c([H])c([H])c([H])c([H])c4[H])c([H])c3[H])c3c(N([H])[H])nc([H])nc32)C([H])([H])C1([H])[H])C([H])([H])O[H]


 41 45  0  0  0  0  0  0  0  0999 V2000
  -18.2057    9.2014  -17.4364 N   0  0  0  0  0  0  0  0  0  0  0  0
  -17.9272   10.2525  -18.3361 C   0  0  0  0  0  0  0  0  0  0  0  0
  -17.0651   10.1004  -19.3662 N   0  0  0  0  0  0  0  0  0  0  0  0
  -16.8344   11.1092  -20.2164 C   0  0  0  0  0  0  0  0  0  0  0  0
  -17.4545   12.2787  -20.0575 N   0  0  0  0  0  0  0  0  0  0  0  0
  -18.3124   12.4959  -19.0685 C   0  0  0  0  0  0  0  0  0  0  0  0
  -19.0709   13.5662  -18.6924 N   0  0  0  0  0  0  0  0  0  0  0  0
  -19.7797   13.2410  -17.6072 C   0  0  0  0  0  0  0  0  0  0  0  0
  -19.4781   11.9291  -17.2634 C   0  0  0  0  0  0  0  0  0  0  0  0
  -18.5748   11.4678  -18.1645 C   0  0  0  0  0  0  0  0  0  0  0  0
  -17.4670    8.8775  -16.7837 H   0  0  0  0  0  0  0  0  0  0  0  0
  -19.1278    8.7059  -17.3726 H   0  0  0  0  0  0  0  0  0  0  0  0
  -20.0161   11.2620  -16.1124 C   0  0  0  0  0  0  0  0  0  0  0  0
  -21.0930   10.3945  -16.2224 C   0  0  0  0  0  0  0  0  0  0  0  0
  -21.6226    9.7853  -15.1058 C   0  0  0  0  0  0  0  0  0  0  0  0
  -21.1311    9.9911  -13.8335 C   0  0  0  0  0  0  0  0  0  0  0  0
  -20.0622   10.8516  -13.7106 C   0  0  0  0  0  0  0  0  0  0  0  0
  -19.5302   11.4614  -14.8194 C   0  0  0  0  0  0  0  0  0  0  0  0
  -21.6829    9.3585  -12.6995 O   0  0  0  0  0  0  0  0  0  0  0  0
  -20.7686    8.6117  -11.9631 C   0  0  0  0  0  0  0  0  0  0  0  0
  -20.4797    8.9415  -10.6343 C   0  0  0  0  0  0  0  0  0  0  0  0
  -19.5815    8.2310   -9.8670 C   0  0  0  0  0  0  0  0  0  0  0  0
  -18.9353    7.1557  -10.4088 C   0  0  0  0  0  0  0  0  0  0  0  0
  -19.1889    6.7952  -11.7135 C   0  0  0  0  0  0  0  0  0  0  0  0
  -20.0995    7.5251  -12.4722 C   0  0  0  0  0  0  0  0  0  0  0  0
  -19.0416   14.7975  -19.3928 C   0  0  0  0  0  0  0  0  0  0  0  0
  -20.3179   15.1879  -20.0526 C   0  0  0  0  0  0  0  0  0  0  0  0
  -19.9505   16.3021  -21.0582 C   0  0  0  0  0  0  0  0  0  0  0  0
  -19.4163   17.4862  -20.3622 C   0  0  0  0  0  0  0  0  0  0  0  0
  -18.5120   17.2248  -19.1763 C   0  0  0  0  0  0  0  0  0  0  0  0
  -18.7048   15.9571  -18.4514 C   0  0  0  0  0  0  0  0  0  0  0  0
  -18.6691   18.3270  -21.2353 N   0  0  0  0  0  0  0  0  0  0  0  0
  -17.7929   17.9144  -21.6139 H   0  0  0  0  0  0  0  0  0  0  0  0
  -19.1766   19.4543  -21.8430 C   0  0  0  0  0  0  0  0  0  0  0  0
  -18.9081   19.3420  -23.3279 C   0  0  0  0  0  0  0  0  0  0  0  0
  -18.9079   20.4463  -24.1617 O   0  0  0  0  0  0  0  0  0  0  0  0
  -18.6812   18.2183  -23.8085 O   0  0  0  0  0  0  0  0  0  0  0  0
  -18.2790   20.5609  -24.9193 H   0  0  0  0  0  0  0  0  0  0  0  0
  -20.6150   19.8178  -21.7212 C   0  0  0  0  0  0  0  0  0  0  0  0
  -21.3128   19.5069  -22.8925 O   0  0  0  0  0  0  0  0  0  0  0  0
  -22.2675   19.3129  -22.6455 H   0  0  0  0  0  0  0  0  0  0  0  0
  1  2  1  0  0  0
  2  3  2  0  0  0
  3  4  1  0  0  0
  4  5  2  0  0  0
  5  6  1  0  0  0
  6  7  1  0  0  0
  7  8  1  0  0  0
  8  9  2  0  0  0
  9 13  1  0  0  0
 13 14  2  0  0  0
 14 15  1  0  0  0
 15 16  2  0  0  0
 16 19  1  0  0  0
 19 20  1  0  0  0
 20 21  2  0  0  0
 21 22  1  0  0  0
 22 23  2  0  0  0
 23 24  1  0  0  0
 24 25  2  0  0  0
 16 17  1  0  0  0
 17 18  2  0  0  0
  9 10  1  0  0  0
  7 26  1  0  0  0
 26 27  1  0  0  0
 27 28  1  0  0  0
 28 29  1  0  0  0
 29 30  1  0  0  0
 30 31  1  0  0  0
 29 32  1  0  0  0
 32 34  1  0  0  0
 34 39  1  0  0  0
 39 40  1  0  0  0
 34 35  1  0  0  0
 35 36  1  0  0  0
 35 37  2  0  0  0
 10  2  1  0  0  0
 31 26  1  0  0  0
 10  6  2  0  0  0
 18 13  1  0  0  0
 25 20  1  0  0  0
  1 11  1  0  0  0
  1 12  1  0  0  0
 32 33  1  0  0  0
 40 41  1  0  0  0
 36 38  1  0  0  0
M  END
> <minimizedAffinity>
-7.18885

> <CNNscore>
0.5497235656

> <CNNaffinity>
6.9667463303

> <CNN_VS>
3.8297846317

> <CNNaffinity_variance>
0.2446007729

$$$$
[H]OC(=O)[C@]([H])(N([H])[C@]1([H])C([H])([H])C([H])([H])[C@@]([H])(n2c([H])c(-c3c([H])c([H])c(Oc4c([H])c([H])c([H])c([H])c4[H])c([H])c3[H])c3c(N([H])[H])nc([H])nc32)C([H])([H])C1([H])[H])C([H])([H])O[H]


 41 45  0  0  0  0  0  0  0  0999 V2000
  -18.2814    9.1406  -17.4237 N   0  0  0  0  0  0  0  0  0  0  0  0
  -17.8865   10.1540  -18.3232 C   0  0  0  0  0  0  0  0  0  0  0  0
  -16.9838    9.9260  -19.3033 N   0  0  0  0  0  0  0  0  0  0  0  0
  -16.6421   10.9012  -20.1553 C   0  0  0  0  0  0  0  0  0  0  0  0
  -17.1901   12.1119  -20.0477 N   0  0  0  0  0  0  0  0  0  0  0  0
  -18.0822   12.4037  -19.1094 C   0  0  0  0  0  0  0  0  0  0  0  0
  -18.7863   13.5285  -18.7908 N   0  0  0  0  0  0  0  0  0  0  0  0
  -19.5709   13.2712  -17.7401 C   0  0  0  0  0  0  0  0  0  0  0  0
  -19.3760   11.9490  -17.3607 C   0  0  0  0  0  0  0  0  0  0  0  0
  -18.4597   11.4123  -18.2050 C   0  0  0  0  0  0  0  0  0  0  0  0
  -17.6011    8.7811  -16.7276 H   0  0  0  0  0  0  0  0  0  0  0  0
  -19.2365    8.7082  -17.4017 H   0  0  0  0  0  0  0  0  0  0  0  0
  -20.0169   11.3405  -16.2300 C   0  0  0  0  0  0  0  0  0  0  0  0
  -21.1481   10.5522  -16.3831 C   0  0  0  0  0  0  0  0  0  0  0  0
  -21.7746   10.0004  -15.2871 C   0  0  0  0  0  0  0  0  0  0  0  0
  -21.3317   10.1893  -13.9945 C   0  0  0  0  0  0  0  0  0  0  0  0
  -20.2096   10.9713  -13.8288 C   0  0  0  0  0  0  0  0  0  0  0  0
  -19.5810   11.5238  -14.9170 C   0  0  0  0  0  0  0  0  0  0  0  0
  -21.9829    9.6160  -12.8818 O   0  0  0  0  0  0  0  0  0  0  0  0
  -23.3215    9.9751  -12.7585 C   0  0  0  0  0  0  0  0  0  0  0  0
  -24.3362    9.0280  -12.9356 C   0  0  0  0  0  0  0  0  0  0  0  0
  -25.6747    9.3381  -12.8234 C   0  0  0  0  0  0  0  0  0  0  0  0
  -26.0470   10.6192  -12.5275 C   0  0  0  0  0  0  0  0  0  0  0  0
  -25.0815   11.5841  -12.3451 C   0  0  0  0  0  0  0  0  0  0  0  0
  -23.7350   11.2514  -12.4624 C   0  0  0  0  0  0  0  0  0  0  0  0
  -18.6381   14.7418  -19.5074 C   0  0  0  0  0  0  0  0  0  0  0  0
  -19.6310   14.9677  -20.5936 C   0  0  0  0  0  0  0  0  0  0  0  0
  -19.0485   16.0988  -21.4704 C   0  0  0  0  0  0  0  0  0  0  0  0
  -18.9208   17.3499  -20.7020 C   0  0  0  0  0  0  0  0  0  0  0  0
  -18.4734   17.2180  -19.2616 C   0  0  0  0  0  0  0  0  0  0  0  0
  -18.7784   15.9499  -18.5772 C   0  0  0  0  0  0  0  0  0  0  0  0
  -18.0040   18.2565  -21.3061 N   0  0  0  0  0  0  0  0  0  0  0  0
  -17.0701   17.8620  -21.5375 H   0  0  0  0  0  0  0  0  0  0  0  0
  -18.3682   19.4543  -21.8808 C   0  0  0  0  0  0  0  0  0  0  0  0
  -18.6593   19.1981  -23.3434 C   0  0  0  0  0  0  0  0  0  0  0  0
  -17.7463   18.5783  -24.1783 O   0  0  0  0  0  0  0  0  0  0  0  0
  -19.7560   19.5586  -23.8041 O   0  0  0  0  0  0  0  0  0  0  0  0
  -18.0017   17.9387  -24.8912 H   0  0  0  0  0  0  0  0  0  0  0  0
  -19.5281   20.2359  -21.3713 C   0  0  0  0  0  0  0  0  0  0  0  0
  -19.4119   21.5873  -21.7114 O   0  0  0  0  0  0  0  0  0  0  0  0
  -20.3376   21.9704  -21.7908 H   0  0  0  0  0  0  0  0  0  0  0  0
  1  2  1  0  0  0
  2  3  2  0  0  0
  3  4  1  0  0  0
  4  5  2  0  0  0
  5  6  1  0  0  0
  6  7  1  0  0  0
  7  8  1  0  0  0
  8  9  2  0  0  0
  9 13  1  0  0  0
 13 14  2  0  0  0
 14 15  1  0  0  0
 15 16  2  0  0  0
 16 19  1  0  0  0
 19 20  1  0  0  0
 20 21  2  0  0  0
 21 22  1  0  0  0
 22 23  2  0  0  0
 23 24  1  0  0  0
 24 25  2  0  0  0
 16 17  1  0  0  0
 17 18  2  0  0  0
  9 10  1  0  0  0
  7 26  1  0  0  0
 26 27  1  0  0  0
 27 28  1  0  0  0
 28 29  1  0  0  0
 29 30  1  0  0  0
 30 31  1  0  0  0
 29 32  1  0  0  0
 32 34  1  0  0  0
 34 39  1  0  0  0
 39 40  1  0  0  0
 34 35  1  0  0  0
 35 36  1  0  0  0
 35 37  2  0  0  0
 10  2  1  0  0  0
 31 26  1  0  0  0
 10  6  2  0  0  0
 18 13  1  0  0  0
 25 20  1  0  0  0
  1 11  1  0  0  0
  1 12  1  0  0  0
 32 33  1  0  0  0
 40 41  1  0  0  0
 36 38  1  0  0  0
M  END
> <minimizedAffinity>
-7.01422

> <CNNscore>
0.5401499271

> <CNNaffinity>
6.8716478348

> <CNN_VS>
3.7117199898

> <CNNaffinity_variance>
0.1733474731

$$$$
[H]OC(=O)[C@]([H])(N([H])[C@]1([H])C([H])([H])C([H])([H])[C@@]([H])(n2c([H])c(-c3c([H])c([H])c(Oc4c([H])c([H])c([H])c([H])c4[H])c([H])c3[H])c3c(N([H])[H])nc([H])nc32)C([H])([H])C1([H])[H])C([H])([H])O[H]


 41 45  0  0  0  0  0  0  0  0999 V2000
  -18.0403    9.2038  -17.4285 N   0  0  0  0  0  0  0  0  0  0  0  0
  -17.9661   10.2517  -18.3709 C   0  0  0  0  0  0  0  0  0  0  0  0
  -17.1730   10.1745  -19.4628 N   0  0  0  0  0  0  0  0  0  0  0  0
  -17.1370   11.1761  -20.3512 C   0  0  0  0  0  0  0  0  0  0  0  0
  -17.8858   12.2642  -20.1697 N   0  0  0  0  0  0  0  0  0  0  0  0
  -18.6863   12.4052  -19.1205 C   0  0  0  0  0  0  0  0  0  0  0  0
  -19.5429   13.3846  -18.7092 N   0  0  0  0  0  0  0  0  0  0  0  0
  -20.1200   13.0092  -17.5639 C   0  0  0  0  0  0  0  0  0  0  0  0
  -19.6299   11.7567  -17.2159 C   0  0  0  0  0  0  0  0  0  0  0  0
  -18.7470   11.3821  -18.1755 C   0  0  0  0  0  0  0  0  0  0  0  0
  -17.2189    8.9953  -16.8297 H   0  0  0  0  0  0  0  0  0  0  0  0
  -18.8848    8.6000  -17.2802 H   0  0  0  0  0  0  0  0  0  0  0  0
  -19.9899   11.0655  -16.0108 C   0  0  0  0  0  0  0  0  0  0  0  0
  -19.4896   11.4606  -14.7787 C   0  0  0  0  0  0  0  0  0  0  0  0
  -19.8155   10.7691  -13.6325 C   0  0  0  0  0  0  0  0  0  0  0  0
  -20.6407    9.6638  -13.6311 C   0  0  0  0  0  0  0  0  0  0  0  0
  -21.1434    9.2604  -14.8488 C   0  0  0  0  0  0  0  0  0  0  0  0
  -20.8223    9.9455  -15.9942 C   0  0  0  0  0  0  0  0  0  0  0  0
  -20.9672    8.9668  -12.4486 O   0  0  0  0  0  0  0  0  0  0  0  0
  -19.8939    8.7808  -11.5829 C   0  0  0  0  0  0  0  0  0  0  0  0
  -18.8854    7.8575  -11.8806 C   0  0  0  0  0  0  0  0  0  0  0  0
  -17.8045    7.6399  -11.0532 C   0  0  0  0  0  0  0  0  0  0  0  0
  -17.6949    8.3456   -9.8882 C   0  0  0  0  0  0  0  0  0  0  0  0
  -18.6648    9.2649   -9.5549 C   0  0  0  0  0  0  0  0  0  0  0  0
  -19.7488    9.4706  -10.4036 C   0  0  0  0  0  0  0  0  0  0  0  0
  -19.7228   14.5868  -19.4373 C   0  0  0  0  0  0  0  0  0  0  0  0
  -21.0859   15.1809  -19.3628 C   0  0  0  0  0  0  0  0  0  0  0  0
  -21.1630   16.2078  -20.5148 C   0  0  0  0  0  0  0  0  0  0  0  0
  -20.1824   17.2911  -20.3231 C   0  0  0  0  0  0  0  0  0  0  0  0
  -18.8307   16.8917  -19.7700 C   0  0  0  0  0  0  0  0  0  0  0  0
  -18.7791   15.6815  -18.9318 C   0  0  0  0  0  0  0  0  0  0  0  0
  -19.9097   17.9856  -21.5358 N   0  0  0  0  0  0  0  0  0  0  0  0
  -19.2777   18.8069  -21.4498 H   0  0  0  0  0  0  0  0  0  0  0  0
  -20.1403   17.4670  -22.7910 C   0  0  0  0  0  0  0  0  0  0  0  0
  -21.0216   18.4417  -23.5413 C   0  0  0  0  0  0  0  0  0  0  0  0
  -20.5088   19.5572  -24.1795 O   0  0  0  0  0  0  0  0  0  0  0  0
  -22.2455   18.2281  -23.5817 O   0  0  0  0  0  0  0  0  0  0  0  0
  -20.8483   19.8970  -25.0467 H   0  0  0  0  0  0  0  0  0  0  0  0
  -19.0173   17.1478  -23.7146 C   0  0  0  0  0  0  0  0  0  0  0  0
  -18.1205   18.2171  -23.8036 O   0  0  0  0  0  0  0  0  0  0  0  0
  -17.2102   17.8451  -24.0113 H   0  0  0  0  0  0  0  0  0  0  0  0
  1  2  1  0  0  0
  2  3  2  0  0  0
  3  4  1  0  0  0
  4  5  2  0  0  0
  5  6  1  0  0  0
  6  7  1  0  0  0
  7  8  1  0  0  0
  8  9  2  0  0  0
  9 13  1  0  0  0
 13 14  2  0  0  0
 14 15  1  0  0  0
 15 16  2  0  0  0
 16 19  1  0  0  0
 19 20  1  0  0  0
 20 21  2  0  0  0
 21 22  1  0  0  0
 22 23  2  0  0  0
 23 24  1  0  0  0
 24 25  2  0  0  0
 16 17  1  0  0  0
 17 18  2  0  0  0
  9 10  1  0  0  0
  7 26  1  0  0  0
 26 27  1  0  0  0
 27 28  1  0  0  0
 28 29  1  0  0  0
 29 30  1  0  0  0
 30 31  1  0  0  0
 29 32  1  0  0  0
 32 34  1  0  0  0
 34 39  1  0  0  0
 39 40  1  0  0  0
 34 35  1  0  0  0
 35 36  1  0  0  0
 35 37  2  0  0  0
 10  2  1  0  0  0
 31 26  1  0  0  0
 10  6  2  0  0  0
 18 13  1  0  0  0
 25 20  1  0  0  0
  1 11  1  0  0  0
  1 12  1  0  0  0
 32 33  1  0  0  0
 40 41  1  0  0  0
 36 38  1  0  0  0
M  END
> <minimizedAffinity>
-7.56025

> <CNNscore>
0.5333653092

> <CNNaffinity>
6.9223008156

> <CNN_VS>
3.6921150684

> <CNNaffinity_variance>
0.1682180613

$$$$
[H]OC(=O)[C@]([H])(N([H])[C@]1([H])C([H])([H])C([H])([H])[C@@]([H])(n2c([H])c(-c3c([H])c([H])c(Oc4c([H])c([H])c([H])c([H])c4[H])c([H])c3[H])c3c(N([H])[H])nc([H])nc32)C([H])([H])C1([H])[H])C([H])([H])O[H]


 41 45  0  0  0  0  0  0  0  0999 V2000
  -17.1582   10.4275  -20.9023 N   0  0  0  0  0  0  0  0  0  0  0  0
  -17.0351   11.7261  -21.4411 C   0  0  0  0  0  0  0  0  0  0  0  0
  -16.3897   11.9568  -22.6063 N   0  0  0  0  0  0  0  0  0  0  0  0
  -16.3049   13.1972  -23.1043 C   0  0  0  0  0  0  0  0  0  0  0  0
  -16.8583   14.2223  -22.4559 N   0  0  0  0  0  0  0  0  0  0  0  0
  -17.5061   14.0667  -21.3081 C   0  0  0  0  0  0  0  0  0  0  0  0
  -18.1559   14.9209  -20.4654 N   0  0  0  0  0  0  0  0  0  0  0  0
  -18.6503   14.2283  -19.4351 C   0  0  0  0  0  0  0  0  0  0  0  0
  -18.3162   12.8906  -19.6054 C   0  0  0  0  0  0  0  0  0  0  0  0
  -17.6121   12.7890  -20.7606 C   0  0  0  0  0  0  0  0  0  0  0  0
  -16.3151    9.9405  -20.5435 H   0  0  0  0  0  0  0  0  0  0  0  0
  -18.0612    9.8987  -20.8332 H   0  0  0  0  0  0  0  0  0  0  0  0
  -18.6377   11.8610  -18.6588 C   0  0  0  0  0  0  0  0  0  0  0  0
  -17.8442   10.7305  -18.5292 C   0  0  0  0  0  0  0  0  0  0  0  0
  -18.1808    9.7327  -17.6408 C   0  0  0  0  0  0  0  0  0  0  0  0
  -19.3021    9.7875  -16.8392 C   0  0  0  0  0  0  0  0  0  0  0  0
  -20.0992   10.9048  -16.9592 C   0  0  0  0  0  0  0  0  0  0  0  0
  -19.7689   11.9023  -17.8426 C   0  0  0  0  0  0  0  0  0  0  0  0
  -19.6329    8.7585  -15.9323 O   0  0  0  0  0  0  0  0  0  0  0  0
  -20.0884    9.2121  -14.6984 C   0  0  0  0  0  0  0  0  0  0  0  0
  -21.4433    9.1259  -14.3593 C   0  0  0  0  0  0  0  0  0  0  0  0
  -21.9394    9.5623  -13.1495 C   0  0  0  0  0  0  0  0  0  0  0  0
  -21.0882   10.1054  -12.2287 C   0  0  0  0  0  0  0  0  0  0  0  0
  -19.7463   10.2101  -12.5202 C   0  0  0  0  0  0  0  0  0  0  0  0
  -19.2643    9.7635  -13.7473 C   0  0  0  0  0  0  0  0  0  0  0  0
  -18.2353   16.3137  -20.7137 C   0  0  0  0  0  0  0  0  0  0  0  0
  -19.3706   16.7455  -21.5746 C   0  0  0  0  0  0  0  0  0  0  0  0
  -19.0315   18.1817  -22.0328 C   0  0  0  0  0  0  0  0  0  0  0  0
  -18.9572   19.0993  -20.8820 C   0  0  0  0  0  0  0  0  0  0  0  0
  -18.3281   18.5521  -19.6182 C   0  0  0  0  0  0  0  0  0  0  0  0
  -18.4009   17.0960  -19.4080 C   0  0  0  0  0  0  0  0  0  0  0  0
  -18.2299   20.2841  -21.1896 N   0  0  0  0  0  0  0  0  0  0  0  0
  -17.3359   20.1412  -21.7013 H   0  0  0  0  0  0  0  0  0  0  0  0
  -18.7692   21.5513  -21.1573 C   0  0  0  0  0  0  0  0  0  0  0  0
  -19.6451   21.7145  -22.3802 C   0  0  0  0  0  0  0  0  0  0  0  0
  -19.1238   22.0300  -23.6225 O   0  0  0  0  0  0  0  0  0  0  0  0
  -20.8723   21.5591  -22.2585 O   0  0  0  0  0  0  0  0  0  0  0  0
  -19.4687   21.6551  -24.4730 H   0  0  0  0  0  0  0  0  0  0  0  0
  -19.5949   22.0116  -20.0074 C   0  0  0  0  0  0  0  0  0  0  0  0
  -18.8277   22.1005  -18.8416 O   0  0  0  0  0  0  0  0  0  0  0  0
  -19.2300   22.8114  -18.2560 H   0  0  0  0  0  0  0  0  0  0  0  0
  1  2  1  0  0  0
  2  3  2  0  0  0
  3  4  1  0  0  0
  4  5  2  0  0  0
  5  6  1  0  0  0
  6  7  1  0  0  0
  7  8  1  0  0  0
  8  9  2  0  0  0
  9 13  1  0  0  0
 13 14  2  0  0  0
 14 15  1  0  0  0
 15 16  2  0  0  0
 16 19  1  0  0  0
 19 20  1  0  0  0
 20 21  2  0  0  0
 21 22  1  0  0  0
 22 23  2  0  0  0
 23 24  1  0  0  0
 24 25  2  0  0  0
 16 17  1  0  0  0
 17 18  2  0  0  0
  9 10  1  0  0  0
  7 26  1  0  0  0
 26 27  1  0  0  0
 27 28  1  0  0  0
 28 29  1  0  0  0
 29 30  1  0  0  0
 30 31  1  0  0  0
 29 32  1  0  0  0
 32 34  1  0  0  0
 34 39  1  0  0  0
 39 40  1  0  0  0
 34 35  1  0  0  0
 35 36  1  0  0  0
 35 37  2  0  0  0
 10  2  1  0  0  0
 31 26  1  0  0  0
 10  6  2  0  0  0
 18 13  1  0  0  0
 25 20  1  0  0  0
  1 11  1  0  0  0
  1 12  1  0  0  0
 32 33  1  0  0  0
 40 41  1  0  0  0
 36 38  1  0  0  0
M  END
> <minimizedAffinity>
-8.34953

> <CNNscore>
0.5097432733

> <CNNaffinity>
7.1253724098

> <CNN_VS>
3.6321105957

> <CNNaffinity_variance>
0.3202860951

$$$$
[H]OC(=O)[C@]([H])(N([H])[C@]1([H])C([H])([H])C([H])([H])[C@@]([H])(n2c([H])c(-c3c([H])c([H])c(Oc4c([H])c([H])c([H])c([H])c4[H])c([H])c3[H])c3c(N([H])[H])nc([H])nc32)C([H])([H])C1([H])[H])C([H])([H])O[H]


 41 45  0  0  0  0  0  0  0  0999 V2000
  -18.3281    9.1419  -17.3994 N   0  0  0  0  0  0  0  0  0  0  0  0
  -18.0275   10.2203  -18.2588 C   0  0  0  0  0  0  0  0  0  0  0  0
  -17.1360   10.1013  -19.2680 N   0  0  0  0  0  0  0  0  0  0  0  0
  -16.8845   11.1358  -20.0806 C   0  0  0  0  0  0  0  0  0  0  0  0
  -17.5126   12.2985  -19.9044 N   0  0  0  0  0  0  0  0  0  0  0  0
  -18.3990   12.4838  -18.9342 C   0  0  0  0  0  0  0  0  0  0  0  0
  -19.1714   13.5404  -18.5479 N   0  0  0  0  0  0  0  0  0  0  0  0
  -19.9097   13.1810  -17.4936 C   0  0  0  0  0  0  0  0  0  0  0  0
  -19.6137   11.8601  -17.1809 C   0  0  0  0  0  0  0  0  0  0  0  0
  -18.6837   11.4283  -18.0693 C   0  0  0  0  0  0  0  0  0  0  0  0
  -17.6071    8.8003  -16.7359 H   0  0  0  0  0  0  0  0  0  0  0  0
  -19.2499    8.6425  -17.3768 H   0  0  0  0  0  0  0  0  0  0  0  0
  -20.1821   11.1574  -16.0662 C   0  0  0  0  0  0  0  0  0  0  0  0
  -19.6279   11.2528  -14.7981 C   0  0  0  0  0  0  0  0  0  0  0  0
  -20.1618   10.5473  -13.7420 C   0  0  0  0  0  0  0  0  0  0  0  0
  -21.2567    9.7180  -13.8697 C   0  0  0  0  0  0  0  0  0  0  0  0
  -21.8158    9.6136  -15.1245 C   0  0  0  0  0  0  0  0  0  0  0  0
  -21.2882   10.3141  -16.1806 C   0  0  0  0  0  0  0  0  0  0  0  0
  -21.7936    9.0031  -12.7782 O   0  0  0  0  0  0  0  0  0  0  0  0
  -21.6784    7.6211  -12.8909 C   0  0  0  0  0  0  0  0  0  0  0  0
  -20.4214    7.0068  -12.9130 C   0  0  0  0  0  0  0  0  0  0  0  0
  -20.2591    5.6423  -13.0235 C   0  0  0  0  0  0  0  0  0  0  0  0
  -21.3601    4.8382  -13.1167 C   0  0  0  0  0  0  0  0  0  0  0  0
  -22.6173    5.4001  -13.0991 C   0  0  0  0  0  0  0  0  0  0  0  0
  -22.7607    6.7801  -12.9868 C   0  0  0  0  0  0  0  0  0  0  0  0
  -19.1261   14.7924  -19.2099 C   0  0  0  0  0  0  0  0  0  0  0  0
  -20.4057   15.2338  -19.8301 C   0  0  0  0  0  0  0  0  0  0  0  0
  -20.0316   16.3704  -20.8078 C   0  0  0  0  0  0  0  0  0  0  0  0
  -19.4545   17.5187  -20.0866 C   0  0  0  0  0  0  0  0  0  0  0  0
  -18.5330   17.1982  -18.9287 C   0  0  0  0  0  0  0  0  0  0  0  0
  -18.7420   15.9131  -18.2400 C   0  0  0  0  0  0  0  0  0  0  0  0
  -18.7049   18.3688  -20.9485 N   0  0  0  0  0  0  0  0  0  0  0  0
  -17.6716   18.2681  -20.8897 H   0  0  0  0  0  0  0  0  0  0  0  0
  -19.2365   19.0306  -22.0334 C   0  0  0  0  0  0  0  0  0  0  0  0
  -19.3223   20.5003  -21.6843 C   0  0  0  0  0  0  0  0  0  0  0  0
  -18.2020   21.2493  -21.3703 O   0  0  0  0  0  0  0  0  0  0  0  0
  -20.4386   21.0471  -21.6808 O   0  0  0  0  0  0  0  0  0  0  0  0
  -18.0790   22.1935  -21.6459 H   0  0  0  0  0  0  0  0  0  0  0  0
  -18.5846   18.9727  -23.3705 C   0  0  0  0  0  0  0  0  0  0  0  0
  -18.8456   20.1321  -24.1074 O   0  0  0  0  0  0  0  0  0  0  0  0
  -18.0757   20.2834  -24.7354 H   0  0  0  0  0  0  0  0  0  0  0  0
  1  2  1  0  0  0
  2  3  2  0  0  0
  3  4  1  0  0  0
  4  5  2  0  0  0
  5  6  1  0  0  0
  6  7  1  0  0  0
  7  8  1  0  0  0
  8  9  2  0  0  0
  9 13  1  0  0  0
 13 14  2  0  0  0
 14 15  1  0  0  0
 15 16  2  0  0  0
 16 19  1  0  0  0
 19 20  1  0  0  0
 20 21  2  0  0  0
 21 22  1  0  0  0
 22 23  2  0  0  0
 23 24  1  0  0  0
 24 25  2  0  0  0
 16 17  1  0  0  0
 17 18  2  0  0  0
  9 10  1  0  0  0
  7 26  1  0  0  0
 26 27  1  0  0  0
 27 28  1  0  0  0
 28 29  1  0  0  0
 29 30  1  0  0  0
 30 31  1  0  0  0
 29 32  1  0  0  0
 32 34  1  0  0  0
 34 39  1  0  0  0
 39 40  1  0  0  0
 34 35  1  0  0  0
 35 36  1  0  0  0
 35 37  2  0  0  0
 10  2  1  0  0  0
 31 26  1  0  0  0
 10  6  2  0  0  0
 18 13  1  0  0  0
 25 20  1  0  0  0
  1 11  1  0  0  0
  1 12  1  0  0  0
 32 33  1  0  0  0
 40 41  1  0  0  0
 36 38  1  0  0  0
M  END
> <minimizedAffinity>
-7.17790

> <CNNscore>
0.4810241759

> <CNNaffinity>
6.8742585182

> <CNN_VS>
3.3066844940

> <CNNaffinity_variance>
0.2497462928

$$$$
[H]c1c([H])c(Cl)c(-c2c([H])c3c([H])nc(N([H])c4c([H])c([H])c(N5C([H])([H])C([H])([H])N(C([H])([H])[H])C([H])([H])C5([H])[H])c([H])c4[H])nc3n(C([H])([H])[H])c2=O)c(Cl)c1[H]


 35 39  0  0  0  0  0  0  0  0999 V2000
  -16.9918   10.5550  -19.5582 C   0  0  0  0  0  0  0  0  0  0  0  0
  -15.9881   10.1209  -20.3900 N   0  0  0  0  0  0  0  0  0  0  0  0
  -15.6842   10.7154  -21.5432 C   0  0  0  0  0  0  0  0  0  0  0  0
  -16.3719   11.8130  -21.9667 C   0  0  0  0  0  0  0  0  0  0  0  0
  -16.0804   12.4578  -23.1665 C   0  0  0  0  0  0  0  0  0  0  0  0
  -16.7994   13.5649  -23.5599 C   0  0  0  0  0  0  0  0  0  0  0  0
  -17.7989   13.9809  -22.7107 C   0  0  0  0  0  0  0  0  0  0  0  0
  -18.4694   14.9920  -23.0510 O   0  0  0  0  0  0  0  0  0  0  0  0
  -18.0774   13.3561  -21.5534 N   0  0  0  0  0  0  0  0  0  0  0  0
  -19.1457   13.8213  -20.6707 C   0  0  0  0  0  0  0  0  0  0  0  0
  -17.3861   12.2707  -21.1495 C   0  0  0  0  0  0  0  0  0  0  0  0
  -17.6400   11.6312  -20.0086 N   0  0  0  0  0  0  0  0  0  0  0  0
  -16.4824   14.2280  -24.8184 C   0  0  0  0  0  0  0  0  0  0  0  0
  -16.9279   13.6926  -26.0084 C   0  0  0  0  0  0  0  0  0  0  0  0
  -17.8756   12.2208  -26.0557 Cl  0  0  0  0  0  0  0  0  0  0  0  0
  -16.6407   14.3029  -27.2214 C   0  0  0  0  0  0  0  0  0  0  0  0
  -15.8927   15.4763  -27.2734 C   0  0  0  0  0  0  0  0  0  0  0  0
  -15.4459   16.0129  -26.0790 C   0  0  0  0  0  0  0  0  0  0  0  0
  -15.7466   15.3852  -24.8923 C   0  0  0  0  0  0  0  0  0  0  0  0
  -15.1598   16.1017  -23.4089 Cl  0  0  0  0  0  0  0  0  0  0  0  0
  -17.2562    9.8573  -18.3587 N   0  0  0  0  0  0  0  0  0  0  0  0
  -16.4549    9.2285  -18.0316 H   0  0  0  0  0  0  0  0  0  0  0  0
  -20.6985    9.7774  -15.8733 C   0  0  0  0  0  0  0  0  0  0  0  0
  -19.8333    8.7140  -15.9954 C   0  0  0  0  0  0  0  0  0  0  0  0
  -18.7234    8.7522  -16.8080 C   0  0  0  0  0  0  0  0  0  0  0  0
  -18.4136    9.8949  -17.5640 C   0  0  0  0  0  0  0  0  0  0  0  0
  -19.2859   10.9428  -17.4290 C   0  0  0  0  0  0  0  0  0  0  0  0
  -20.4174   10.8998  -16.5990 C   0  0  0  0  0  0  0  0  0  0  0  0
  -24.6290   10.4754  -12.4622 C   0  0  0  0  0  0  0  0  0  0  0  0
  -24.1813    9.4371  -13.3897 N   0  0  0  0  0  0  0  0  0  0  0  0
  -22.8350    9.0837  -12.9841 C   0  0  0  0  0  0  0  0  0  0  0  0
  -21.8589   10.0448  -13.6320 C   0  0  0  0  0  0  0  0  0  0  0  0
  -21.8420    9.7543  -15.0501 N   0  0  0  0  0  0  0  0  0  0  0  0
  -23.1543    9.4185  -15.6178 C   0  0  0  0  0  0  0  0  0  0  0  0
  -24.2197   10.0010  -14.7149 C   0  0  0  0  0  0  0  0  0  0  0  0
 29 30  1  0  0  0
 30 31  1  0  0  0
 31 32  1  0  0  0
 32 33  1  0  0  0
 33 34  1  0  0  0
 34 35  1  0  0  0
 33 23  1  0  0  0
 23 24  2  0  0  0
 24 25  1  0  0  0
 25 26  2  0  0  0
 26 21  1  0  0  0
 21  1  1  0  0  0
  1  2  2  0  0  0
  2  3  1  0  0  0
  3  4  2  0  0  0
  4  5  1  0  0  0
  5  6  2  0  0  0
  6 13  1  0  0  0
 13 14  2  0  0  0
 14 15  1  0  0  0
 14 16  1  0  0  0
 16 17  2  0  0  0
 17 18  1  0  0  0
 18 19  2  0  0  0
 19 20  1  0  0  0
  6  7  1  0  0  0
  7  8  2  0  0  0
  7  9  1  0  0  0
  9 10  1  0  0  0
  9 11  1  0  0  0
 11 12  2  0  0  0
 26 27  1  0  0  0
 27 28  2  0  0  0
 35 30  1  0  0  0
 28 23  1  0  0  0
 12  1  1  0  0  0
 11  4  1  0  0  0
 19 13  1  0  0  0
 21 22  1  0  0  0
M  END
> <minimizedAffinity>
-10.98444

> <CNNscore>
0.9896225929

> <CNNaffinity>
7.9736542702

> <CNN_VS>
7.8909082413

> <CNNaffinity_variance>
0.0228086356

$$$$
[H]c1c([H])c(Cl)c(-c2c([H])c3c([H])nc(N([H])c4c([H])c([H])c(N5C([H])([H])C([H])([H])N(C([H])([H])[H])C([H])([H])C5([H])[H])c([H])c4[H])nc3n(C([H])([H])[H])c2=O)c(Cl)c1[H]


 35 39  0  0  0  0  0  0  0  0999 V2000
  -16.9591   10.5860  -19.5655 C   0  0  0  0  0  0  0  0  0  0  0  0
  -15.9575   10.1494  -20.3986 N   0  0  0  0  0  0  0  0  0  0  0  0
  -15.6633   10.7342  -21.5593 C   0  0  0  0  0  0  0  0  0  0  0  0
  -16.3595   11.8238  -21.9897 C   0  0  0  0  0  0  0  0  0  0  0  0
  -16.0783   12.4583  -23.1973 C   0  0  0  0  0  0  0  0  0  0  0  0
  -16.8056   13.5575  -23.5975 C   0  0  0  0  0  0  0  0  0  0  0  0
  -17.8029   13.9762  -22.7469 C   0  0  0  0  0  0  0  0  0  0  0  0
  -18.4808   14.9802  -23.0933 O   0  0  0  0  0  0  0  0  0  0  0  0
  -18.0714   13.3612  -21.5821 N   0  0  0  0  0  0  0  0  0  0  0  0
  -19.1375   13.8291  -20.6980 C   0  0  0  0  0  0  0  0  0  0  0  0
  -17.3718   12.2838  -21.1713 C   0  0  0  0  0  0  0  0  0  0  0  0
  -17.6158   11.6540  -20.0229 N   0  0  0  0  0  0  0  0  0  0  0  0
  -16.4993   14.2100  -24.8641 C   0  0  0  0  0  0  0  0  0  0  0  0
  -15.7713   15.3809  -24.8755 C   0  0  0  0  0  0  0  0  0  0  0  0
  -15.1954   16.1188  -23.3955 Cl  0  0  0  0  0  0  0  0  0  0  0  0
  -15.4653   16.0235  -26.0670 C   0  0  0  0  0  0  0  0  0  0  0  0
  -15.8849   15.5044  -27.2891 C   0  0  0  0  0  0  0  0  0  0  0  0
  -16.6154   14.3294  -27.2770 C   0  0  0  0  0  0  0  0  0  0  0  0
  -16.9032   13.7154  -26.0799 C   0  0  0  0  0  0  0  0  0  0  0  0
  -17.8292   12.2323  -26.1160 Cl  0  0  0  0  0  0  0  0  0  0  0  0
  -17.2129    9.8985  -18.3579 N   0  0  0  0  0  0  0  0  0  0  0  0
  -16.4012    9.2881  -18.0220 H   0  0  0  0  0  0  0  0  0  0  0  0
  -20.6593    9.7867  -15.8793 C   0  0  0  0  0  0  0  0  0  0  0  0
  -19.7874    8.7292  -16.0045 C   0  0  0  0  0  0  0  0  0  0  0  0
  -18.6763    8.7777  -16.8148 C   0  0  0  0  0  0  0  0  0  0  0  0
  -18.3720    9.9256  -17.5652 C   0  0  0  0  0  0  0  0  0  0  0  0
  -19.2509   10.9676  -17.4271 C   0  0  0  0  0  0  0  0  0  0  0  0
  -20.3837   10.9140  -16.5994 C   0  0  0  0  0  0  0  0  0  0  0  0
  -25.1254    8.8856  -13.2688 C   0  0  0  0  0  0  0  0  0  0  0  0
  -24.1308    9.9538  -13.3625 N   0  0  0  0  0  0  0  0  0  0  0  0
  -24.0956   10.3545  -14.7554 C   0  0  0  0  0  0  0  0  0  0  0  0
  -23.1457    9.4421  -15.5047 C   0  0  0  0  0  0  0  0  0  0  0  0
  -21.8041    9.7529  -15.0584 N   0  0  0  0  0  0  0  0  0  0  0  0
  -21.6930   10.0444  -13.6231 C   0  0  0  0  0  0  0  0  0  0  0  0
  -22.8727    9.4076  -12.9217 C   0  0  0  0  0  0  0  0  0  0  0  0
 29 30  1  0  0  0
 30 31  1  0  0  0
 31 32  1  0  0  0
 32 33  1  0  0  0
 33 34  1  0  0  0
 34 35  1  0  0  0
 33 23  1  0  0  0
 23 24  2  0  0  0
 24 25  1  0  0  0
 25 26  2  0  0  0
 26 21  1  0  0  0
 21  1  1  0  0  0
  1  2  2  0  0  0
  2  3  1  0  0  0
  3  4  2  0  0  0
  4  5  1  0  0  0
  5  6  2  0  0  0
  6 13  1  0  0  0
 13 14  2  0  0  0
 14 15  1  0  0  0
 14 16  1  0  0  0
 16 17  2  0  0  0
 17 18  1  0  0  0
 18 19  2  0  0  0
 19 20  1  0  0  0
  6  7  1  0  0  0
  7  8  2  0  0  0
  7  9  1  0  0  0
  9 10  1  0  0  0
  9 11  1  0  0  0
 11 12  2  0  0  0
 26 27  1  0  0  0
 27 28  2  0  0  0
 35 30  1  0  0  0
 28 23  1  0  0  0
 12  1  1  0  0  0
 11  4  1  0  0  0
 19 13  1  0  0  0
 21 22  1  0  0  0
M  END
> <minimizedAffinity>
-10.97739

> <CNNscore>
0.9887724519

> <CNNaffinity>
7.9726014137

> <CNN_VS>
7.8830885887

> <CNNaffinity_variance>
0.0261176731

$$$$
[H]c1c([H])c(Cl)c(-c2c([H])c3c([H])nc(N([H])c4c([H])c([H])c(N5C([H])([H])C([H])([H])N(C([H])([H])[H])C([H])([H])C5([H])[H])c([H])c4[H])nc3n(C([H])([H])[H])c2=O)c(Cl)c1[H]


 35 39  0  0  0  0  0  0  0  0999 V2000
  -18.8082   12.4656  -18.7904 C   0  0  0  0  0  0  0  0  0  0  0  0
  -17.8407   11.6659  -19.3491 N   0  0  0  0  0  0  0  0  0  0  0  0
  -17.2885   11.9062  -20.5378 C   0  0  0  0  0  0  0  0  0  0  0  0
  -17.6657   12.9859  -21.2787 C   0  0  0  0  0  0  0  0  0  0  0  0
  -17.1095   13.2656  -22.5247 C   0  0  0  0  0  0  0  0  0  0  0  0
  -17.5182   14.3674  -23.2434 C   0  0  0  0  0  0  0  0  0  0  0  0
  -18.4876   15.1530  -22.6635 C   0  0  0  0  0  0  0  0  0  0  0  0
  -18.8764   16.1664  -23.3037 O   0  0  0  0  0  0  0  0  0  0  0  0
  -19.0223   14.8800  -21.4607 N   0  0  0  0  0  0  0  0  0  0  0  0
  -20.0512   15.7335  -20.8693 C   0  0  0  0  0  0  0  0  0  0  0  0
  -18.6367   13.8067  -20.7406 C   0  0  0  0  0  0  0  0  0  0  0  0
  -19.1490   13.5110  -19.5468 N   0  0  0  0  0  0  0  0  0  0  0  0
  -16.9267   14.6461  -24.5458 C   0  0  0  0  0  0  0  0  0  0  0  0
  -16.0398   15.6922  -24.6881 C   0  0  0  0  0  0  0  0  0  0  0  0
  -15.5958   16.7104  -23.3344 Cl  0  0  0  0  0  0  0  0  0  0  0  0
  -15.4616   15.9802  -25.9165 C   0  0  0  0  0  0  0  0  0  0  0  0
  -15.7602   15.2202  -27.0445 C   0  0  0  0  0  0  0  0  0  0  0  0
  -16.6503   14.1706  -26.9011 C   0  0  0  0  0  0  0  0  0  0  0  0
  -17.2072   13.9095  -25.6704 C   0  0  0  0  0  0  0  0  0  0  0  0
  -18.3266   12.5723  -25.5392 Cl  0  0  0  0  0  0  0  0  0  0  0  0
  -19.3500   12.1301  -17.5297 N   0  0  0  0  0  0  0  0  0  0  0  0
  -19.6095   12.9738  -16.9254 H   0  0  0  0  0  0  0  0  0  0  0  0
  -20.2533    8.3466  -15.8258 C   0  0  0  0  0  0  0  0  0  0  0  0
  -21.0105    9.4737  -15.6009 C   0  0  0  0  0  0  0  0  0  0  0  0
  -20.7037   10.6947  -16.1564 C   0  0  0  0  0  0  0  0  0  0  0  0
  -19.5866   10.8539  -16.9930 C   0  0  0  0  0  0  0  0  0  0  0  0
  -18.8456    9.7212  -17.2054 C   0  0  0  0  0  0  0  0  0  0  0  0
  -19.1618    8.4771  -16.6365 C   0  0  0  0  0  0  0  0  0  0  0  0
  -21.4218    4.1236  -12.9323 C   0  0  0  0  0  0  0  0  0  0  0  0
  -21.0125    4.4055  -14.3077 N   0  0  0  0  0  0  0  0  0  0  0  0
  -19.7421    5.0984  -14.2192 C   0  0  0  0  0  0  0  0  0  0  0  0
  -20.0028    6.5782  -14.0227 C   0  0  0  0  0  0  0  0  0  0  0  0
  -20.5495    7.0898  -15.2617 N   0  0  0  0  0  0  0  0  0  0  0  0
  -21.4846    6.1794  -15.9355 C   0  0  0  0  0  0  0  0  0  0  0  0
  -22.0387    5.2246  -14.9007 C   0  0  0  0  0  0  0  0  0  0  0  0
 29 30  1  0  0  0
 30 31  1  0  0  0
 31 32  1  0  0  0
 32 33  1  0  0  0
 33 34  1  0  0  0
 34 35  1  0  0  0
 33 23  1  0  0  0
 23 24  2  0  0  0
 24 25  1  0  0  0
 25 26  2  0  0  0
 26 21  1  0  0  0
 21  1  1  0  0  0
  1  2  2  0  0  0
  2  3  1  0  0  0
  3  4  2  0  0  0
  4  5  1  0  0  0
  5  6  2  0  0  0
  6 13  1  0  0  0
 13 14  2  0  0  0
 14 15  1  0  0  0
 14 16  1  0  0  0
 16 17  2  0  0  0
 17 18  1  0  0  0
 18 19  2  0  0  0
 19 20  1  0  0  0
  6  7  1  0  0  0
  7  8  2  0  0  0
  7  9  1  0  0  0
  9 10  1  0  0  0
  9 11  1  0  0  0
 11 12  2  0  0  0
 26 27  1  0  0  0
 27 28  2  0  0  0
 35 30  1  0  0  0
 28 23  1  0  0  0
 12  1  1  0  0  0
 11  4  1  0  0  0
 19 13  1  0  0  0
 21 22  1  0  0  0
M  END
> <minimizedAffinity>
-9.93743

> <CNNscore>
0.5102404952

> <CNNaffinity>
7.3297624588

> <CNN_VS>
3.7399415970

> <CNNaffinity_variance>
0.2775796950

$$$$
[H]c1c([H])c(Cl)c(-c2c([H])c3c([H])nc(N([H])c4c([H])c([H])c(N5C([H])([H])C([H])([H])N(C([H])([H])[H])C([H])([H])C5([H])[H])c([H])c4[H])nc3n(C([H])([H])[H])c2=O)c(Cl)c1[H]


 35 39  0  0  0  0  0  0  0  0999 V2000
  -18.7939   11.7946  -18.9326 C   0  0  0  0  0  0  0  0  0  0  0  0
  -19.5277   12.8826  -19.3392 N   0  0  0  0  0  0  0  0  0  0  0  0
  -19.2688   13.5656  -20.4538 C   0  0  0  0  0  0  0  0  0  0  0  0
  -18.2356   13.2095  -21.2680 C   0  0  0  0  0  0  0  0  0  0  0  0
  -17.9374   13.9018  -22.4393 C   0  0  0  0  0  0  0  0  0  0  0  0
  -16.8837   13.5106  -23.2357 C   0  0  0  0  0  0  0  0  0  0  0  0
  -16.1639   12.4186  -22.8081 C   0  0  0  0  0  0  0  0  0  0  0  0
  -15.1955   12.0433  -23.5217 O   0  0  0  0  0  0  0  0  0  0  0  0
  -16.4547   11.7529  -21.6770 N   0  0  0  0  0  0  0  0  0  0  0  0
  -15.6719   10.5953  -21.2479 C   0  0  0  0  0  0  0  0  0  0  0  0
  -17.4816   12.1191  -20.8829 C   0  0  0  0  0  0  0  0  0  0  0  0
  -17.7926   11.4789  -19.7566 N   0  0  0  0  0  0  0  0  0  0  0  0
  -16.5843   14.2457  -24.4579 C   0  0  0  0  0  0  0  0  0  0  0  0
  -16.9739   13.7367  -25.6788 C   0  0  0  0  0  0  0  0  0  0  0  0
  -17.8289   12.2140  -25.8085 Cl  0  0  0  0  0  0  0  0  0  0  0  0
  -16.7019   14.4155  -26.8584 C   0  0  0  0  0  0  0  0  0  0  0  0
  -16.0261   15.6329  -26.8449 C   0  0  0  0  0  0  0  0  0  0  0  0
  -15.6355   16.1430  -25.6195 C   0  0  0  0  0  0  0  0  0  0  0  0
  -15.9194   15.4472  -24.4671 C   0  0  0  0  0  0  0  0  0  0  0  0
  -15.4053   16.1326  -22.9426 Cl  0  0  0  0  0  0  0  0  0  0  0  0
  -19.1294   11.1357  -17.7289 N   0  0  0  0  0  0  0  0  0  0  0  0
  -18.5547   10.2540  -17.5369 H   0  0  0  0  0  0  0  0  0  0  0  0
  -22.0903   12.0098  -14.8131 C   0  0  0  0  0  0  0  0  0  0  0  0
  -21.8008   10.7313  -15.2322 C   0  0  0  0  0  0  0  0  0  0  0  0
  -20.8412   10.4627  -16.1813 C   0  0  0  0  0  0  0  0  0  0  0  0
  -20.0985   11.4949  -16.7780 C   0  0  0  0  0  0  0  0  0  0  0  0
  -20.4003   12.7602  -16.3477 C   0  0  0  0  0  0  0  0  0  0  0  0
  -21.3804   13.0301  -15.3792 C   0  0  0  0  0  0  0  0  0  0  0  0
  -25.2630   13.8689  -11.0648 C   0  0  0  0  0  0  0  0  0  0  0  0
  -25.1226   12.6384  -11.8426 N   0  0  0  0  0  0  0  0  0  0  0  0
  -23.7885   12.1384  -11.5738 C   0  0  0  0  0  0  0  0  0  0  0  0
  -22.8124   12.8129  -12.5164 C   0  0  0  0  0  0  0  0  0  0  0  0
  -23.0724   12.3037  -13.8463 N   0  0  0  0  0  0  0  0  0  0  0  0
  -24.4946   12.1014  -14.1526 C   0  0  0  0  0  0  0  0  0  0  0  0
  -25.3044   12.9849  -13.2291 C   0  0  0  0  0  0  0  0  0  0  0  0
 29 30  1  0  0  0
 30 31  1  0  0  0
 31 32  1  0  0  0
 32 33  1  0  0  0
 33 34  1  0  0  0
 34 35  1  0  0  0
 33 23  1  0  0  0
 23 24  2  0  0  0
 24 25  1  0  0  0
 25 26  2  0  0  0
 26 21  1  0  0  0
 21  1  1  0  0  0
  1  2  2  0  0  0
  2  3  1  0  0  0
  3  4  2  0  0  0
  4  5  1  0  0  0
  5  6  2  0  0  0
  6 13  1  0  0  0
 13 14  2  0  0  0
 14 15  1  0  0  0
 14 16  1  0  0  0
 16 17  2  0  0  0
 17 18  1  0  0  0
 18 19  2  0  0  0
 19 20  1  0  0  0
  6  7  1  0  0  0
  7  8  2  0  0  0
  7  9  1  0  0  0
  9 10  1  0  0  0
  9 11  1  0  0  0
 11 12  2  0  0  0
 26 27  1  0  0  0
 27 28  2  0  0  0
 35 30  1  0  0  0
 28 23  1  0  0  0
 12  1  1  0  0  0
 11  4  1  0  0  0
 19 13  1  0  0  0
 21 22  1  0  0  0
M  END
> <minimizedAffinity>
-9.35832

> <CNNscore>
0.3927334249

> <CNNaffinity>
6.9250564575

> <CNN_VS>
2.7197010517

> <CNNaffinity_variance>
0.1764394343

$$$$
[H]c1c([H])c(Cl)c(-c2c([H])c3c([H])nc(N([H])c4c([H])c([H])c(N5C([H])([H])C([H])([H])N(C([H])([H])[H])C([H])([H])C5([H])[H])c([H])c4[H])nc3n(C([H])([H])[H])c2=O)c(Cl)c1[H]


 35 39  0  0  0  0  0  0  0  0999 V2000
  -18.7512   11.7221  -18.8512 C   0  0  0  0  0  0  0  0  0  0  0  0
  -19.4970   12.8026  -19.2564 N   0  0  0  0  0  0  0  0  0  0  0  0
  -19.2529   13.4825  -20.3761 C   0  0  0  0  0  0  0  0  0  0  0  0
  -18.2238   13.1310  -21.1975 C   0  0  0  0  0  0  0  0  0  0  0  0
  -17.9410   13.8203  -22.3743 C   0  0  0  0  0  0  0  0  0  0  0  0
  -16.8910   13.4338  -23.1779 C   0  0  0  0  0  0  0  0  0  0  0  0
  -16.1590   12.3495  -22.7516 C   0  0  0  0  0  0  0  0  0  0  0  0
  -15.1938   11.9786  -23.4717 O   0  0  0  0  0  0  0  0  0  0  0  0
  -16.4350   11.6866  -21.6152 N   0  0  0  0  0  0  0  0  0  0  0  0
  -15.6395   10.5371  -21.1876 C   0  0  0  0  0  0  0  0  0  0  0  0
  -17.4580   12.0482  -20.8140 C   0  0  0  0  0  0  0  0  0  0  0  0
  -17.7545   11.4107  -19.6823 N   0  0  0  0  0  0  0  0  0  0  0  0
  -16.6078   14.1657  -24.4059 C   0  0  0  0  0  0  0  0  0  0  0  0
  -15.9186   15.3588  -24.3513 C   0  0  0  0  0  0  0  0  0  0  0  0
  -15.3654   16.0312  -22.8320 Cl  0  0  0  0  0  0  0  0  0  0  0  0
  -15.6353   16.0766  -25.5049 C   0  0  0  0  0  0  0  0  0  0  0  0
  -16.0392   15.6131  -26.7543 C   0  0  0  0  0  0  0  0  0  0  0  0
  -16.7307   14.4160  -26.8083 C   0  0  0  0  0  0  0  0  0  0  0  0
  -16.9967   13.7269  -25.6477 C   0  0  0  0  0  0  0  0  0  0  0  0
  -17.8736   12.2186  -25.7671 Cl  0  0  0  0  0  0  0  0  0  0  0  0
  -19.0713   11.0661  -17.6418 N   0  0  0  0  0  0  0  0  0  0  0  0
  -18.4283   10.2444  -17.4054 H   0  0  0  0  0  0  0  0  0  0  0  0
  -22.1561   12.1690  -14.9399 C   0  0  0  0  0  0  0  0  0  0  0  0
  -21.3195   13.0819  -15.5406 C   0  0  0  0  0  0  0  0  0  0  0  0
  -20.3210   12.7100  -16.4114 C   0  0  0  0  0  0  0  0  0  0  0  0
  -20.1028   11.3608  -16.7354 C   0  0  0  0  0  0  0  0  0  0  0  0
  -20.9455   10.4672  -16.1283 C   0  0  0  0  0  0  0  0  0  0  0  0
  -21.9631   10.8506  -15.2401 C   0  0  0  0  0  0  0  0  0  0  0  0
  -26.2276   12.6392  -11.6574 C   0  0  0  0  0  0  0  0  0  0  0  0
  -25.2594   13.5242  -12.3043 N   0  0  0  0  0  0  0  0  0  0  0  0
  -25.4131   13.3200  -13.7314 C   0  0  0  0  0  0  0  0  0  0  0  0
  -24.5682   12.1342  -14.1513 C   0  0  0  0  0  0  0  0  0  0  0  0
  -23.1803   12.5312  -14.0424 N   0  0  0  0  0  0  0  0  0  0  0  0
  -22.8790   13.3763  -12.8796 C   0  0  0  0  0  0  0  0  0  0  0  0
  -23.9511   13.1417  -11.8379 C   0  0  0  0  0  0  0  0  0  0  0  0
 29 30  1  0  0  0
 30 31  1  0  0  0
 31 32  1  0  0  0
 32 33  1  0  0  0
 33 34  1  0  0  0
 34 35  1  0  0  0
 33 23  1  0  0  0
 23 24  2  0  0  0
 24 25  1  0  0  0
 25 26  2  0  0  0
 26 21  1  0  0  0
 21  1  1  0  0  0
  1  2  2  0  0  0
  2  3  1  0  0  0
  3  4  2  0  0  0
  4  5  1  0  0  0
  5  6  2  0  0  0
  6 13  1  0  0  0
 13 14  2  0  0  0
 14 15  1  0  0  0
 14 16  1  0  0  0
 16 17  2  0  0  0
 17 18  1  0  0  0
 18 19  2  0  0  0
 19 20  1  0  0  0
  6  7  1  0  0  0
  7  8  2  0  0  0
  7  9  1  0  0  0
  9 10  1  0  0  0
  9 11  1  0  0  0
 11 12  2  0  0  0
 26 27  1  0  0  0
 27 28  2  0  0  0
 35 30  1  0  0  0
 28 23  1  0  0  0
 12  1  1  0  0  0
 11  4  1  0  0  0
 19 13  1  0  0  0
 21 22  1  0  0  0
M  END
> <minimizedAffinity>
-9.36666

> <CNNscore>
0.3717282414

> <CNNaffinity>
6.9342031479

> <CNN_VS>
2.5776391029

> <CNNaffinity_variance>
0.1551069319

$$$$
[H]c1c([H])c(Cl)c(-c2c([H])c3c([H])nc(N([H])c4c([H])c([H])c(N5C([H])([H])C([H])([H])N(C([H])([H])[H])C([H])([H])C5([H])[H])c([H])c4[H])nc3n(C([H])([H])[H])c2=O)c(Cl)c1[H]


 35 39  0  0  0  0  0  0  0  0999 V2000
  -18.8570   10.3354  -17.5370 C   0  0  0  0  0  0  0  0  0  0  0  0
  -17.6565   10.0061  -18.1185 N   0  0  0  0  0  0  0  0  0  0  0  0
  -17.0811   10.7352  -19.0740 C   0  0  0  0  0  0  0  0  0  0  0  0
  -17.6702   11.8744  -19.5348 C   0  0  0  0  0  0  0  0  0  0  0  0
  -17.0963   12.6590  -20.5325 C   0  0  0  0  0  0  0  0  0  0  0  0
  -17.7238   13.8039  -20.9715 C   0  0  0  0  0  0  0  0  0  0  0  0
  -18.9243   14.1131  -20.3744 C   0  0  0  0  0  0  0  0  0  0  0  0
  -19.5156   15.1565  -20.7609 O   0  0  0  0  0  0  0  0  0  0  0  0
  -19.4751   13.3535  -19.4118 N   0  0  0  0  0  0  0  0  0  0  0  0
  -20.7524   13.7074  -18.7951 C   0  0  0  0  0  0  0  0  0  0  0  0
  -18.8778   12.2288  -18.9673 C   0  0  0  0  0  0  0  0  0  0  0  0
  -19.4002   11.4566  -18.0156 N   0  0  0  0  0  0  0  0  0  0  0  0
  -17.1105   14.6137  -22.0165 C   0  0  0  0  0  0  0  0  0  0  0  0
  -17.0885   14.1557  -23.3169 C   0  0  0  0  0  0  0  0  0  0  0  0
  -17.7837   12.6102  -23.7581 Cl  0  0  0  0  0  0  0  0  0  0  0  0
  -16.5111   14.9059  -24.3318 C   0  0  0  0  0  0  0  0  0  0  0  0
  -15.9356   16.1460  -24.0672 C   0  0  0  0  0  0  0  0  0  0  0  0
  -15.9580   16.6051  -22.7622 C   0  0  0  0  0  0  0  0  0  0  0  0
  -16.5377   15.8387  -21.7775 C   0  0  0  0  0  0  0  0  0  0  0  0
  -16.5416   16.4615  -20.1434 Cl  0  0  0  0  0  0  0  0  0  0  0  0
  -19.4028    9.4983  -16.5387 N   0  0  0  0  0  0  0  0  0  0  0  0
  -19.4050    8.4588  -16.7912 H   0  0  0  0  0  0  0  0  0  0  0  0
  -21.1075   10.7351  -12.8511 C   0  0  0  0  0  0  0  0  0  0  0  0
  -21.3737   11.3570  -14.0497 C   0  0  0  0  0  0  0  0  0  0  0  0
  -20.8109   10.9481  -15.2370 C   0  0  0  0  0  0  0  0  0  0  0  0
  -19.9241    9.8598  -15.2855 C   0  0  0  0  0  0  0  0  0  0  0  0
  -19.6719    9.2534  -14.0831 C   0  0  0  0  0  0  0  0  0  0  0  0
  -20.2480    9.6739  -12.8737 C   0  0  0  0  0  0  0  0  0  0  0  0
  -23.8577   12.6402   -8.8040 C   0  0  0  0  0  0  0  0  0  0  0  0
  -22.5738   11.9716   -9.0125 N   0  0  0  0  0  0  0  0  0  0  0  0
  -21.8218   12.8120   -9.9237 C   0  0  0  0  0  0  0  0  0  0  0  0
  -22.2054   12.4592  -11.3466 C   0  0  0  0  0  0  0  0  0  0  0  0
  -21.6707   11.1431  -11.6256 N   0  0  0  0  0  0  0  0  0  0  0  0
  -21.7543   10.2020  -10.5011 C   0  0  0  0  0  0  0  0  0  0  0  0
  -22.8525   10.6743   -9.5737 C   0  0  0  0  0  0  0  0  0  0  0  0
 29 30  1  0  0  0
 30 31  1  0  0  0
 31 32  1  0  0  0
 32 33  1  0  0  0
 33 34  1  0  0  0
 34 35  1  0  0  0
 33 23  1  0  0  0
 23 24  2  0  0  0
 24 25  1  0  0  0
 25 26  2  0  0  0
 26 21  1  0  0  0
 21  1  1  0  0  0
  1  2  2  0  0  0
  2  3  1  0  0  0
  3  4  2  0  0  0
  4  5  1  0  0  0
  5  6  2  0  0  0
  6 13  1  0  0  0
 13 14  2  0  0  0
 14 15  1  0  0  0
 14 16  1  0  0  0
 16 17  2  0  0  0
 17 18  1  0  0  0
 18 19  2  0  0  0
 19 20  1  0  0  0
  6  7  1  0  0  0
  7  8  2  0  0  0
  7  9  1  0  0  0
  9 10  1  0  0  0
  9 11  1  0  0  0
 11 12  2  0  0  0
 26 27  1  0  0  0
 27 28  2  0  0  0
 35 30  1  0  0  0
 28 23  1  0  0  0
 12  1  1  0  0  0
 11  4  1  0  0  0
 19 13  1  0  0  0
 21 22  1  0  0  0
M  END
> <minimizedAffinity>
-8.07500

> <CNNscore>
0.3297190964

> <CNNaffinity>
6.8806543350

> <CNN_VS>
2.2686831951

> <CNNaffinity_variance>
0.2035352737

$$$$
[H]c1c([H])c(Cl)c(-c2c([H])c3c([H])nc(N([H])c4c([H])c([H])c(N5C([H])([H])C([H])([H])N(C([H])([H])[H])C([H])([H])C5([H])[H])c([H])c4[H])nc3n(C([H])([H])[H])c2=O)c(Cl)c1[H]


 35 39  0  0  0  0  0  0  0  0999 V2000
  -19.2179   13.1605  -18.9203 C   0  0  0  0  0  0  0  0  0  0  0  0
  -19.7966   14.2534  -19.5188 N   0  0  0  0  0  0  0  0  0  0  0  0
  -19.4565   14.6903  -20.7310 C   0  0  0  0  0  0  0  0  0  0  0  0
  -18.4920   14.0581  -21.4571 C   0  0  0  0  0  0  0  0  0  0  0  0
  -18.1123   14.4888  -22.7261 C   0  0  0  0  0  0  0  0  0  0  0  0
  -17.1323   13.8224  -23.4283 C   0  0  0  0  0  0  0  0  0  0  0  0
  -16.5679   12.7312  -22.8087 C   0  0  0  0  0  0  0  0  0  0  0  0
  -15.6693   12.1067  -23.4332 O   0  0  0  0  0  0  0  0  0  0  0  0
  -16.9369   12.3184  -21.5837 N   0  0  0  0  0  0  0  0  0  0  0  0
  -16.3193   11.1547  -20.9502 C   0  0  0  0  0  0  0  0  0  0  0  0
  -17.8940   12.9562  -20.8790 C   0  0  0  0  0  0  0  0  0  0  0  0
  -18.2795   12.5703  -19.6635 N   0  0  0  0  0  0  0  0  0  0  0  0
  -16.7461   14.2859  -24.7549 C   0  0  0  0  0  0  0  0  0  0  0  0
  -15.9386   15.3958  -24.8869 C   0  0  0  0  0  0  0  0  0  0  0  0
  -15.3548   16.2780  -23.4915 Cl  0  0  0  0  0  0  0  0  0  0  0  0
  -15.5555   15.8591  -26.1378 C   0  0  0  0  0  0  0  0  0  0  0  0
  -15.9756   15.2162  -27.2994 C   0  0  0  0  0  0  0  0  0  0  0  0
  -16.7858   14.1026  -27.1662 C   0  0  0  0  0  0  0  0  0  0  0  0
  -17.1490   13.6670  -25.9128 C   0  0  0  0  0  0  0  0  0  0  0  0
  -18.1741   12.2551  -25.7957 Cl  0  0  0  0  0  0  0  0  0  0  0  0
  -19.6294   12.7731  -17.6257 N   0  0  0  0  0  0  0  0  0  0  0  0
  -19.8481   13.5913  -16.9720 H   0  0  0  0  0  0  0  0  0  0  0  0
  -20.2979    8.9103  -15.9931 C   0  0  0  0  0  0  0  0  0  0  0  0
  -21.1401    9.9765  -15.7735 C   0  0  0  0  0  0  0  0  0  0  0  0
  -20.9090   11.2243  -16.3056 C   0  0  0  0  0  0  0  0  0  0  0  0
  -19.7861   11.4756  -17.1112 C   0  0  0  0  0  0  0  0  0  0  0  0
  -18.9600   10.4024  -17.3189 C   0  0  0  0  0  0  0  0  0  0  0  0
  -19.1992    9.1308  -16.7739 C   0  0  0  0  0  0  0  0  0  0  0  0
  -21.0535    3.8417  -14.8483 C   0  0  0  0  0  0  0  0  0  0  0  0
  -21.0945    5.1217  -14.1421 N   0  0  0  0  0  0  0  0  0  0  0  0
  -22.0800    5.9331  -14.8295 C   0  0  0  0  0  0  0  0  0  0  0  0
  -21.4130    6.6304  -15.9979 C   0  0  0  0  0  0  0  0  0  0  0  0
  -20.5162    7.6274  -15.4526 N   0  0  0  0  0  0  0  0  0  0  0  0
  -19.8034    7.2057  -14.2396 C   0  0  0  0  0  0  0  0  0  0  0  0
  -19.7739    5.6931  -14.2139 C   0  0  0  0  0  0  0  0  0  0  0  0
 29 30  1  0  0  0
 30 31  1  0  0  0
 31 32  1  0  0  0
 32 33  1  0  0  0
 33 34  1  0  0  0
 34 35  1  0  0  0
 33 23  1  0  0  0
 23 24  2  0  0  0
 24 25  1  0  0  0
 25 26  2  0  0  0
 26 21  1  0  0  0
 21  1  1  0  0  0
  1  2  2  0  0  0
  2  3  1  0  0  0
  3  4  2  0  0  0
  4  5  1  0  0  0
  5  6  2  0  0  0
  6 13  1  0  0  0
 13 14  2  0  0  0
 14 15  1  0  0  0
 14 16  1  0  0  0
 16 17  2  0  0  0
 17 18  1  0  0  0
 18 19  2  0  0  0
 19 20  1  0  0  0
  6  7  1  0  0  0
  7  8  2  0  0  0
  7  9  1  0  0  0
  9 10  1  0  0  0
  9 11  1  0  0  0
 11 12  2  0  0  0
 26 27  1  0  0  0
 27 28  2  0  0  0
 35 30  1  0  0  0
 28 23  1  0  0  0
 12  1  1  0  0  0
 11  4  1  0  0  0
 19 13  1  0  0  0
 21 22  1  0  0  0
M  END
> <minimizedAffinity>
-10.29024

> <CNNscore>
0.3096068203

> <CNNaffinity>
7.2428069115

> <CNN_VS>
2.2424223423

> <CNNaffinity_variance>
0.1707640588

$$$$
[H]c1c([H])c(Cl)c(-c2c([H])c3c([H])nc(N([H])c4c([H])c([H])c(N5C([H])([H])C([H])([H])N(C([H])([H])[H])C([H])([H])C5([H])[H])c([H])c4[H])nc3n(C([H])([H])[H])c2=O)c(Cl)c1[H]


 35 39  0  0  0  0  0  0  0  0999 V2000
  -18.2463    9.7816  -17.8334 C   0  0  0  0  0  0  0  0  0  0  0  0
  -18.5092    8.6469  -17.1046 N   0  0  0  0  0  0  0  0  0  0  0  0
  -19.4406    8.5867  -16.1536 C   0  0  0  0  0  0  0  0  0  0  0  0
  -20.1995    9.6766  -15.8480 C   0  0  0  0  0  0  0  0  0  0  0  0
  -21.1806    9.6480  -14.8597 C   0  0  0  0  0  0  0  0  0  0  0  0
  -21.9267   10.7717  -14.5801 C   0  0  0  0  0  0  0  0  0  0  0  0
  -21.6455   11.8953  -15.3228 C   0  0  0  0  0  0  0  0  0  0  0  0
  -22.3163   12.9348  -15.0836 O   0  0  0  0  0  0  0  0  0  0  0  0
  -20.6978   11.9192  -16.2759 N   0  0  0  0  0  0  0  0  0  0  0  0
  -20.4213   13.1283  -17.0496 C   0  0  0  0  0  0  0  0  0  0  0  0
  -19.9560   10.8307  -16.5656 C   0  0  0  0  0  0  0  0  0  0  0  0
  -19.0102   10.8251  -17.5039 N   0  0  0  0  0  0  0  0  0  0  0  0
  -22.9492   10.7256  -13.5427 C   0  0  0  0  0  0  0  0  0  0  0  0
  -24.2215   10.2922  -13.8506 C   0  0  0  0  0  0  0  0  0  0  0  0
  -24.6530    9.7886  -15.4713 Cl  0  0  0  0  0  0  0  0  0  0  0  0
  -25.2146   10.2383  -12.8826 C   0  0  0  0  0  0  0  0  0  0  0  0
  -24.9559   10.6209  -11.5689 C   0  0  0  0  0  0  0  0  0  0  0  0
  -23.6791   11.0556  -11.2606 C   0  0  0  0  0  0  0  0  0  0  0  0
  -22.7155   11.0981  -12.2416 C   0  0  0  0  0  0  0  0  0  0  0  0
  -21.1167   11.6547  -11.8032 Cl  0  0  0  0  0  0  0  0  0  0  0  0
  -17.2310    9.7619  -18.8154 N   0  0  0  0  0  0  0  0  0  0  0  0
  -16.5225    8.9690  -18.6976 H   0  0  0  0  0  0  0  0  0  0  0  0
  -16.5317   12.2621  -22.1759 C   0  0  0  0  0  0  0  0  0  0  0  0
  -15.7672   11.1539  -21.8900 C   0  0  0  0  0  0  0  0  0  0  0  0
  -16.0026   10.3547  -20.7949 C   0  0  0  0  0  0  0  0  0  0  0  0
  -17.0500   10.6338  -19.9015 C   0  0  0  0  0  0  0  0  0  0  0  0
  -17.8000   11.7402  -20.2028 C   0  0  0  0  0  0  0  0  0  0  0  0
  -17.5564   12.5533  -21.3212 C   0  0  0  0  0  0  0  0  0  0  0  0
  -16.3068   15.9111  -25.9451 C   0  0  0  0  0  0  0  0  0  0  0  0
  -15.7600   14.5758  -25.7065 N   0  0  0  0  0  0  0  0  0  0  0  0
  -16.8989   13.6978  -25.5222 C   0  0  0  0  0  0  0  0  0  0  0  0
  -17.3295   13.7508  -24.0702 C   0  0  0  0  0  0  0  0  0  0  0  0
  -16.3022   13.0943  -23.2896 N   0  0  0  0  0  0  0  0  0  0  0  0
  -14.9308   13.3595  -23.7438 C   0  0  0  0  0  0  0  0  0  0  0  0
  -14.9372   14.6544  -24.5265 C   0  0  0  0  0  0  0  0  0  0  0  0
 29 30  1  0  0  0
 30 31  1  0  0  0
 31 32  1  0  0  0
 32 33  1  0  0  0
 33 34  1  0  0  0
 34 35  1  0  0  0
 33 23  1  0  0  0
 23 24  2  0  0  0
 24 25  1  0  0  0
 25 26  2  0  0  0
 26 21  1  0  0  0
 21  1  1  0  0  0
  1  2  2  0  0  0
  2  3  1  0  0  0
  3  4  2  0  0  0
  4  5  1  0  0  0
  5  6  2  0  0  0
  6 13  1  0  0  0
 13 14  2  0  0  0
 14 15  1  0  0  0
 14 16  1  0  0  0
 16 17  2  0  0  0
 17 18  1  0  0  0
 18 19  2  0  0  0
 19 20  1  0  0  0
  6  7  1  0  0  0
  7  8  2  0  0  0
  7  9  1  0  0  0
  9 10  1  0  0  0
  9 11  1  0  0  0
 11 12  2  0  0  0
 26 27  1  0  0  0
 27 28  2  0  0  0
 35 30  1  0  0  0
 28 23  1  0  0  0
 12  1  1  0  0  0
 11  4  1  0  0  0
 19 13  1  0  0  0
 21 22  1  0  0  0
M  END
> <minimizedAffinity>
-9.18228

> <CNNscore>
0.2447080761

> <CNNaffinity>
6.4979934692

> <CNN_VS>
1.5901114941

> <CNNaffinity_variance>
0.0959377661

$$$$
[H]c1c([H])c(Cl)c(-c2c([H])c3c([H])nc(N([H])c4c([H])c([H])c(N5C([H])([H])C([H])([H])N(C([H])([H])[H])C([H])([H])C5([H])[H])c([H])c4[H])nc3n(C([H])([H])[H])c2=O)c(Cl)c1[H]


 35 39  0  0  0  0  0  0  0  0999 V2000
  -18.2019    9.8605  -17.9547 C   0  0  0  0  0  0  0  0  0  0  0  0
  -18.4422    8.7015  -17.2571 N   0  0  0  0  0  0  0  0  0  0  0  0
  -19.3618    8.6012  -16.2980 C   0  0  0  0  0  0  0  0  0  0  0  0
  -20.1307    9.6717  -15.9517 C   0  0  0  0  0  0  0  0  0  0  0  0
  -21.1000    9.6012  -14.9538 C   0  0  0  0  0  0  0  0  0  0  0  0
  -21.8568   10.7064  -14.6326 C   0  0  0  0  0  0  0  0  0  0  0  0
  -21.5984   11.8550  -15.3446 C   0  0  0  0  0  0  0  0  0  0  0  0
  -22.2794   12.8783  -15.0672 O   0  0  0  0  0  0  0  0  0  0  0  0
  -20.6621   11.9194  -16.3071 N   0  0  0  0  0  0  0  0  0  0  0  0
  -20.4097   13.1543  -17.0475 C   0  0  0  0  0  0  0  0  0  0  0  0
  -19.9100   10.8495  -16.6373 C   0  0  0  0  0  0  0  0  0  0  0  0
  -18.9751   10.8839  -17.5858 N   0  0  0  0  0  0  0  0  0  0  0  0
  -22.8667   10.6164  -13.5857 C   0  0  0  0  0  0  0  0  0  0  0  0
  -22.5382   10.9343  -12.2848 C   0  0  0  0  0  0  0  0  0  0  0  0
  -20.9234   11.4496  -11.8452 Cl  0  0  0  0  0  0  0  0  0  0  0  0
  -23.4798   10.8574  -11.2682 C   0  0  0  0  0  0  0  0  0  0  0  0
  -24.7870   10.4563  -11.5314 C   0  0  0  0  0  0  0  0  0  0  0  0
  -25.1161   10.1375  -12.8369 C   0  0  0  0  0  0  0  0  0  0  0  0
  -24.1610   10.2234  -13.8234 C   0  0  0  0  0  0  0  0  0  0  0  0
  -24.6248    9.8102  -15.4581 Cl  0  0  0  0  0  0  0  0  0  0  0  0
  -17.1978    9.8830  -18.9480 N   0  0  0  0  0  0  0  0  0  0  0  0
  -16.4617    9.1137  -18.8447 H   0  0  0  0  0  0  0  0  0  0  0  0
  -16.6240   12.4303  -22.2970 C   0  0  0  0  0  0  0  0  0  0  0  0
  -15.8293   11.3369  -22.0378 C   0  0  0  0  0  0  0  0  0  0  0  0
  -16.0241   10.5221  -20.9462 C   0  0  0  0  0  0  0  0  0  0  0  0
  -17.0588   10.7691  -20.0288 C   0  0  0  0  0  0  0  0  0  0  0  0
  -17.8393   11.8611  -20.3037 C   0  0  0  0  0  0  0  0  0  0  0  0
  -17.6371   12.6902  -21.4186 C   0  0  0  0  0  0  0  0  0  0  0  0
  -15.0438   15.3371  -26.3744 C   0  0  0  0  0  0  0  0  0  0  0  0
  -16.2664   15.1550  -25.5927 N   0  0  0  0  0  0  0  0  0  0  0  0
  -15.9197   15.4638  -24.2193 C   0  0  0  0  0  0  0  0  0  0  0  0
  -15.3495   14.2212  -23.5656 C   0  0  0  0  0  0  0  0  0  0  0  0
  -16.4363   13.2781  -23.4068 N   0  0  0  0  0  0  0  0  0  0  0  0
  -17.3841   13.2479  -24.5284 C   0  0  0  0  0  0  0  0  0  0  0  0
  -16.6781   13.7839  -25.7546 C   0  0  0  0  0  0  0  0  0  0  0  0
 29 30  1  0  0  0
 30 31  1  0  0  0
 31 32  1  0  0  0
 32 33  1  0  0  0
 33 34  1  0  0  0
 34 35  1  0  0  0
 33 23  1  0  0  0
 23 24  2  0  0  0
 24 25  1  0  0  0
 25 26  2  0  0  0
 26 21  1  0  0  0
 21  1  1  0  0  0
  1  2  2  0  0  0
  2  3  1  0  0  0
  3  4  2  0  0  0
  4  5  1  0  0  0
  5  6  2  0  0  0
  6 13  1  0  0  0
 13 14  2  0  0  0
 14 15  1  0  0  0
 14 16  1  0  0  0
 16 17  2  0  0  0
 17 18  1  0  0  0
 18 19  2  0  0  0
 19 20  1  0  0  0
  6  7  1  0  0  0
  7  8  2  0  0  0
  7  9  1  0  0  0
  9 10  1  0  0  0
  9 11  1  0  0  0
 11 12  2  0  0  0
 26 27  1  0  0  0
 27 28  2  0  0  0
 35 30  1  0  0  0
 28 23  1  0  0  0
 12  1  1  0  0  0
 11  4  1  0  0  0
 19 13  1  0  0  0
 21 22  1  0  0  0
M  END
> <minimizedAffinity>
-9.13974

> <CNNscore>
0.2310136706

> <CNNaffinity>
6.5687799454

> <CNN_VS>
1.5174779892

> <CNNaffinity_variance>
0.0595711172

$$$$
[H]c1c([H])c(N([H])C(=O)c2c([H])c([H])c(C([H])([H])[H])c(-c3c([H])c([H])c4nc(N([H])C([H])([H])[H])nc([H])c4c3[H])c2[H])c(C([H])([H])[H])c(C(F)(F)F)c1[H]


 35 38  0  0  0  0  0  0  0  0999 V2000
  -17.9617   12.9797  -20.2263 C   0  0  0  0  0  0  0  0  0  0  0  0
  -18.8665   13.8310  -19.6211 C   0  0  0  0  0  0  0  0  0  0  0  0
  -19.4249   13.5960  -18.3948 C   0  0  0  0  0  0  0  0  0  0  0  0
  -19.0702   12.4599  -17.7311 C   0  0  0  0  0  0  0  0  0  0  0  0
  -18.1654   11.5832  -18.3077 C   0  0  0  0  0  0  0  0  0  0  0  0
  -17.6085   11.8412  -19.5575 C   0  0  0  0  0  0  0  0  0  0  0  0
  -16.6496   10.8632  -20.0940 C   0  0  0  0  0  0  0  0  0  0  0  0
  -15.3803   15.6282  -25.4711 C   0  0  0  0  0  0  0  0  0  0  0  0
  -15.4270   16.5019  -24.4403 N   0  0  0  0  0  0  0  0  0  0  0  0
  -15.9133   16.2006  -23.2458 C   0  0  0  0  0  0  0  0  0  0  0  0
  -16.4054   14.9582  -22.9880 C   0  0  0  0  0  0  0  0  0  0  0  0
  -16.9267   14.5681  -21.7751 C   0  0  0  0  0  0  0  0  0  0  0  0
  -17.4193   13.3010  -21.5412 C   0  0  0  0  0  0  0  0  0  0  0  0
  -17.3864   12.3882  -22.5699 C   0  0  0  0  0  0  0  0  0  0  0  0
  -16.8654   12.7745  -23.7853 C   0  0  0  0  0  0  0  0  0  0  0  0
  -16.3742   14.0316  -24.0244 C   0  0  0  0  0  0  0  0  0  0  0  0
  -15.8637   14.3986  -25.2273 N   0  0  0  0  0  0  0  0  0  0  0  0
  -15.4685   15.5823  -27.9694 C   0  0  0  0  0  0  0  0  0  0  0  0
  -14.8482   16.0035  -26.7318 N   0  0  0  0  0  0  0  0  0  0  0  0
  -13.9947   16.5938  -26.8000 H   0  0  0  0  0  0  0  0  0  0  0  0
  -20.3840   14.5499  -17.7891 C   0  0  0  0  0  0  0  0  0  0  0  0
  -21.3235   14.9192  -18.5395 O   0  0  0  0  0  0  0  0  0  0  0  0
  -20.2117   14.9786  -16.4685 N   0  0  0  0  0  0  0  0  0  0  0  0
  -19.3656   14.5592  -15.9699 H   0  0  0  0  0  0  0  0  0  0  0  0
  -21.0100   15.8757  -15.7256 C   0  0  0  0  0  0  0  0  0  0  0  0
  -22.2357   15.5641  -15.1840 C   0  0  0  0  0  0  0  0  0  0  0  0
  -22.9544   16.5016  -14.4680 C   0  0  0  0  0  0  0  0  0  0  0  0
  -22.4257   17.7467  -14.3064 C   0  0  0  0  0  0  0  0  0  0  0  0
  -21.1908   18.1086  -14.8349 C   0  0  0  0  0  0  0  0  0  0  0  0
  -20.4850   17.1823  -15.5405 C   0  0  0  0  0  0  0  0  0  0  0  0
  -19.1841   17.5473  -16.1158 C   0  0  0  0  0  0  0  0  0  0  0  0
  -20.7372   19.4598  -14.5820 C   0  0  0  0  0  0  0  0  0  0  0  0
  -21.6996   20.1872  -13.8469 F   0  0  0  0  0  0  0  0  0  0  0  0
  -20.6092   20.1428  -15.7730 F   0  0  0  0  0  0  0  0  0  0  0  0
  -19.5825   19.6059  -13.8605 F   0  0  0  0  0  0  0  0  0  0  0  0
 18 19  1  0  0  0
 19  8  1  0  0  0
  8  9  2  0  0  0
  9 10  1  0  0  0
 10 11  2  0  0  0
 11 12  1  0  0  0
 12 13  2  0  0  0
 13 14  1  0  0  0
 14 15  2  0  0  0
 15 16  1  0  0  0
 16 17  2  0  0  0
 13  1  1  0  0  0
  1  2  2  0  0  0
  2  3  1  0  0  0
  3  4  2  0  0  0
  4  5  1  0  0  0
  5  6  2  0  0  0
  6  7  1  0  0  0
  3 21  1  0  0  0
 21 22  2  0  0  0
 21 23  1  0  0  0
 23 25  1  0  0  0
 25 26  2  0  0  0
 26 27  1  0  0  0
 27 28  2  0  0  0
 28 29  1  0  0  0
 29 30  2  0  0  0
 30 31  1  0  0  0
 29 32  1  0  0  0
 32 33  1  0  0  0
 32 34  1  0  0  0
 32 35  1  0  0  0
 17  8  1  0  0  0
  6  1  1  0  0  0
 30 25  1  0  0  0
 16 11  1  0  0  0
 19 20  1  0  0  0
 23 24  1  0  0  0
M  END
> <minimizedAffinity>
-9.23571

> <CNNscore>
0.2492573261

> <CNNaffinity>
6.6828851700

> <CNN_VS>
1.6657581329

> <CNNaffinity_variance>
0.0667959824

$$$$
[H]c1c([H])c(N([H])C(=O)c2c([H])c([H])c(C([H])([H])[H])c(-c3c([H])c([H])c4nc(N([H])C([H])([H])[H])nc([H])c4c3[H])c2[H])c(C([H])([H])[H])c(C(F)(F)F)c1[H]


 35 38  0  0  0  0  0  0  0  0999 V2000
  -21.1909   17.4335  -18.6336 C   0  0  0  0  0  0  0  0  0  0  0  0
  -20.5185   16.2318  -18.5172 C   0  0  0  0  0  0  0  0  0  0  0  0
  -19.7393   15.9003  -17.4431 C   0  0  0  0  0  0  0  0  0  0  0  0
  -19.6184   16.8037  -16.4300 C   0  0  0  0  0  0  0  0  0  0  0  0
  -20.2787   18.0190  -16.5128 C   0  0  0  0  0  0  0  0  0  0  0  0
  -21.0672   18.3370  -17.6155 C   0  0  0  0  0  0  0  0  0  0  0  0
  -21.7406   19.6447  -17.6204 C   0  0  0  0  0  0  0  0  0  0  0  0
  -23.5286   18.6487  -24.4855 C   0  0  0  0  0  0  0  0  0  0  0  0
  -22.1861   18.4890  -24.5059 N   0  0  0  0  0  0  0  0  0  0  0  0
  -21.4628   18.2278  -23.4276 C   0  0  0  0  0  0  0  0  0  0  0  0
  -22.0526   18.1031  -22.2075 C   0  0  0  0  0  0  0  0  0  0  0  0
  -21.3715   17.8330  -21.0421 C   0  0  0  0  0  0  0  0  0  0  0  0
  -21.9952   17.7118  -19.8177 C   0  0  0  0  0  0  0  0  0  0  0  0
  -23.3608   17.8690  -19.7629 C   0  0  0  0  0  0  0  0  0  0  0  0
  -24.0462   18.1393  -20.9270 C   0  0  0  0  0  0  0  0  0  0  0  0
  -23.4329   18.2608  -22.1466 C   0  0  0  0  0  0  0  0  0  0  0  0
  -24.1210   18.5276  -23.2857 N   0  0  0  0  0  0  0  0  0  0  0  0
  -23.7386   18.5729  -26.9758 C   0  0  0  0  0  0  0  0  0  0  0  0
  -24.2557   18.9276  -25.6717 N   0  0  0  0  0  0  0  0  0  0  0  0
  -25.1833   19.3962  -25.6350 H   0  0  0  0  0  0  0  0  0  0  0  0
  -19.0479   14.5916  -17.3672 C   0  0  0  0  0  0  0  0  0  0  0  0
  -18.1206   14.5201  -16.5203 O   0  0  0  0  0  0  0  0  0  0  0  0
  -19.4388   13.5392  -18.2022 N   0  0  0  0  0  0  0  0  0  0  0  0
  -20.2510   13.7672  -18.8571 H   0  0  0  0  0  0  0  0  0  0  0  0
  -18.9055   12.2339  -18.2776 C   0  0  0  0  0  0  0  0  0  0  0  0
  -19.2650   11.1955  -17.4498 C   0  0  0  0  0  0  0  0  0  0  0  0
  -18.6947    9.9453  -17.5908 C   0  0  0  0  0  0  0  0  0  0  0  0
  -17.7656    9.7571  -18.5690 C   0  0  0  0  0  0  0  0  0  0  0  0
  -17.3700   10.7758  -19.4300 C   0  0  0  0  0  0  0  0  0  0  0  0
  -17.9336   12.0071  -19.2882 C   0  0  0  0  0  0  0  0  0  0  0  0
  -17.5223   13.0989  -20.1799 C   0  0  0  0  0  0  0  0  0  0  0  0
  -16.3820   10.4423  -20.4340 C   0  0  0  0  0  0  0  0  0  0  0  0
  -16.3491    9.0495  -20.6683 F   0  0  0  0  0  0  0  0  0  0  0  0
  -15.1205   10.7550  -19.9735 F   0  0  0  0  0  0  0  0  0  0  0  0
  -16.5479   10.9886  -21.6787 F   0  0  0  0  0  0  0  0  0  0  0  0
 18 19  1  0  0  0
 19  8  1  0  0  0
  8  9  2  0  0  0
  9 10  1  0  0  0
 10 11  2  0  0  0
 11 12  1  0  0  0
 12 13  2  0  0  0
 13 14  1  0  0  0
 14 15  2  0  0  0
 15 16  1  0  0  0
 16 17  2  0  0  0
 13  1  1  0  0  0
  1  2  2  0  0  0
  2  3  1  0  0  0
  3  4  2  0  0  0
  4  5  1  0  0  0
  5  6  2  0  0  0
  6  7  1  0  0  0
  3 21  1  0  0  0
 21 22  2  0  0  0
 21 23  1  0  0  0
 23 25  1  0  0  0
 25 26  2  0  0  0
 26 27  1  0  0  0
 27 28  2  0  0  0
 28 29  1  0  0  0
 29 30  2  0  0  0
 30 31  1  0  0  0
 29 32  1  0  0  0
 32 33  1  0  0  0
 32 34  1  0  0  0
 32 35  1  0  0  0
 17  8  1  0  0  0
  6  1  1  0  0  0
 30 25  1  0  0  0
 16 11  1  0  0  0
 19 20  1  0  0  0
 23 24  1  0  0  0
M  END
> <minimizedAffinity>
-8.95685

> <CNNscore>
0.2475683242

> <CNNaffinity>
6.0866994858

> <CNN_VS>
1.5068739653

> <CNNaffinity_variance>
0.2157930434

$$$$
[H]c1c([H])c(N([H])C(=O)c2c([H])c([H])c(C([H])([H])[H])c(-c3c([H])c([H])c4nc(N([H])C([H])([H])[H])nc([H])c4c3[H])c2[H])c(C([H])([H])[H])c(C(F)(F)F)c1[H]


 35 38  0  0  0  0  0  0  0  0999 V2000
  -17.2408   12.5264  -20.8235 C   0  0  0  0  0  0  0  0  0  0  0  0
  -17.8272   13.3571  -19.8877 C   0  0  0  0  0  0  0  0  0  0  0  0
  -18.0693   12.9885  -18.5930 C   0  0  0  0  0  0  0  0  0  0  0  0
  -17.7126   11.7327  -18.2020 C   0  0  0  0  0  0  0  0  0  0  0  0
  -17.1222   10.8726  -19.1137 C   0  0  0  0  0  0  0  0  0  0  0  0
  -16.8846   11.2677  -20.4276 C   0  0  0  0  0  0  0  0  0  0  0  0
  -16.2459   10.2963  -21.3289 C   0  0  0  0  0  0  0  0  0  0  0  0
  -15.4152   15.4493  -26.2374 C   0  0  0  0  0  0  0  0  0  0  0  0
  -14.7589   15.9357  -25.1600 N   0  0  0  0  0  0  0  0  0  0  0  0
  -14.9532   15.4990  -23.9248 C   0  0  0  0  0  0  0  0  0  0  0  0
  -15.8508   14.5083  -23.6703 C   0  0  0  0  0  0  0  0  0  0  0  0
  -16.1093   14.0008  -22.4170 C   0  0  0  0  0  0  0  0  0  0  0  0
  -17.0255   12.9954  -22.1874 C   0  0  0  0  0  0  0  0  0  0  0  0
  -17.7104   12.4789  -23.2629 C   0  0  0  0  0  0  0  0  0  0  0  0
  -17.4547   12.9840  -24.5188 C   0  0  0  0  0  0  0  0  0  0  0  0
  -16.5457   13.9826  -24.7540 C   0  0  0  0  0  0  0  0  0  0  0  0
  -16.3038   14.4708  -25.9971 N   0  0  0  0  0  0  0  0  0  0  0  0
  -16.0344   15.6288  -28.6531 C   0  0  0  0  0  0  0  0  0  0  0  0
  -15.1683   15.9539  -27.5405 N   0  0  0  0  0  0  0  0  0  0  0  0
  -14.3550   16.5733  -27.7310 H   0  0  0  0  0  0  0  0  0  0  0  0
  -18.6932   13.9253  -17.6288 C   0  0  0  0  0  0  0  0  0  0  0  0
  -18.8129   13.4899  -16.4547 O   0  0  0  0  0  0  0  0  0  0  0  0
  -19.1030   15.1961  -18.0464 N   0  0  0  0  0  0  0  0  0  0  0  0
  -18.9186   15.4084  -19.0766 H   0  0  0  0  0  0  0  0  0  0  0  0
  -19.7123   16.2166  -17.2838 C   0  0  0  0  0  0  0  0  0  0  0  0
  -19.0312   17.1051  -16.4843 C   0  0  0  0  0  0  0  0  0  0  0  0
  -19.7041   18.0770  -15.7696 C   0  0  0  0  0  0  0  0  0  0  0  0
  -21.0610   18.1409  -15.8708 C   0  0  0  0  0  0  0  0  0  0  0  0
  -21.7933   17.2652  -16.6659 C   0  0  0  0  0  0  0  0  0  0  0  0
  -21.1271   16.3080  -17.3688 C   0  0  0  0  0  0  0  0  0  0  0  0
  -21.8822   15.3669  -18.2058 C   0  0  0  0  0  0  0  0  0  0  0  0
  -23.2292   17.4468  -16.6951 C   0  0  0  0  0  0  0  0  0  0  0  0
  -23.6022   18.6362  -16.0305 F   0  0  0  0  0  0  0  0  0  0  0  0
  -23.8447   16.4362  -15.9873 F   0  0  0  0  0  0  0  0  0  0  0  0
  -23.8204   17.5501  -17.9259 F   0  0  0  0  0  0  0  0  0  0  0  0
 18 19  1  0  0  0
 19  8  1  0  0  0
  8  9  2  0  0  0
  9 10  1  0  0  0
 10 11  2  0  0  0
 11 12  1  0  0  0
 12 13  2  0  0  0
 13 14  1  0  0  0
 14 15  2  0  0  0
 15 16  1  0  0  0
 16 17  2  0  0  0
 13  1  1  0  0  0
  1  2  2  0  0  0
  2  3  1  0  0  0
  3  4  2  0  0  0
  4  5  1  0  0  0
  5  6  2  0  0  0
  6  7  1  0  0  0
  3 21  1  0  0  0
 21 22  2  0  0  0
 21 23  1  0  0  0
 23 25  1  0  0  0
 25 26  2  0  0  0
 26 27  1  0  0  0
 27 28  2  0  0  0
 28 29  1  0  0  0
 29 30  2  0  0  0
 30 31  1  0  0  0
 29 32  1  0  0  0
 32 33  1  0  0  0
 32 34  1  0  0  0
 32 35  1  0  0  0
 17  8  1  0  0  0
  6  1  1  0  0  0
 30 25  1  0  0  0
 16 11  1  0  0  0
 19 20  1  0  0  0
 23 24  1  0  0  0
M  END
> <minimizedAffinity>
-8.61675

> <CNNscore>
0.2366577238

> <CNNaffinity>
6.6341400146

> <CNN_VS>
1.5700204372

> <CNNaffinity_variance>
0.1247618347

$$$$
[H]c1c([H])c(N([H])C(=O)c2c([H])c([H])c(C([H])([H])[H])c(-c3c([H])c([H])c4nc(N([H])C([H])([H])[H])nc([H])c4c3[H])c2[H])c(C([H])([H])[H])c(C(F)(F)F)c1[H]


 35 38  0  0  0  0  0  0  0  0999 V2000
  -17.3558   12.2147  -20.8164 C   0  0  0  0  0  0  0  0  0  0  0  0
  -18.1880   12.9059  -19.9566 C   0  0  0  0  0  0  0  0  0  0  0  0
  -18.4922   12.4820  -18.6923 C   0  0  0  0  0  0  0  0  0  0  0  0
  -17.9449   11.3135  -18.2540 C   0  0  0  0  0  0  0  0  0  0  0  0
  -17.1057   10.5939  -19.0892 C   0  0  0  0  0  0  0  0  0  0  0  0
  -16.8088   11.0431  -20.3734 C   0  0  0  0  0  0  0  0  0  0  0  0
  -15.9023   10.2235  -21.1920 C   0  0  0  0  0  0  0  0  0  0  0  0
  -15.4104   15.3991  -26.0377 C   0  0  0  0  0  0  0  0  0  0  0  0
  -14.8612   15.9037  -24.9100 N   0  0  0  0  0  0  0  0  0  0  0  0
  -15.1008   15.4226  -23.6994 C   0  0  0  0  0  0  0  0  0  0  0  0
  -15.9376   14.3637  -23.5246 C   0  0  0  0  0  0  0  0  0  0  0  0
  -16.2369   13.8069  -22.3017 C   0  0  0  0  0  0  0  0  0  0  0  0
  -17.0895   12.7327  -22.1533 C   0  0  0  0  0  0  0  0  0  0  0  0
  -17.6651   12.1960  -23.2817 C   0  0  0  0  0  0  0  0  0  0  0  0
  -17.3681   12.7502  -24.5074 C   0  0  0  0  0  0  0  0  0  0  0  0
  -16.5219   13.8172  -24.6620 C   0  0  0  0  0  0  0  0  0  0  0  0
  -16.2382   14.3532  -25.8763 N   0  0  0  0  0  0  0  0  0  0  0  0
  -15.8720   15.5780  -28.4884 C   0  0  0  0  0  0  0  0  0  0  0  0
  -15.1192   15.9533  -27.3111 N   0  0  0  0  0  0  0  0  0  0  0  0
  -14.3538   16.6468  -27.4323 H   0  0  0  0  0  0  0  0  0  0  0  0
  -19.3844   13.2698  -17.8091 C   0  0  0  0  0  0  0  0  0  0  0  0
  -19.6858   12.7201  -16.7186 O   0  0  0  0  0  0  0  0  0  0  0  0
  -19.8322   14.5340  -18.2075 N   0  0  0  0  0  0  0  0  0  0  0  0
  -19.4729   14.8549  -19.1607 H   0  0  0  0  0  0  0  0  0  0  0  0
  -20.6793   15.4246  -17.5123 C   0  0  0  0  0  0  0  0  0  0  0  0
  -22.0390   15.2635  -17.3785 C   0  0  0  0  0  0  0  0  0  0  0  0
  -22.7974   16.1826  -16.6798 C   0  0  0  0  0  0  0  0  0  0  0  0
  -22.1723   17.2570  -16.1224 C   0  0  0  0  0  0  0  0  0  0  0  0
  -20.8007   17.4628  -16.2306 C   0  0  0  0  0  0  0  0  0  0  0  0
  -20.0560   16.5552  -16.9203 C   0  0  0  0  0  0  0  0  0  0  0  0
  -18.6081   16.7594  -17.0553 C   0  0  0  0  0  0  0  0  0  0  0  0
  -20.2585   18.6384  -15.5829 C   0  0  0  0  0  0  0  0  0  0  0  0
  -21.2661   19.3423  -14.8864 F   0  0  0  0  0  0  0  0  0  0  0  0
  -19.7960   19.5259  -16.5315 F   0  0  0  0  0  0  0  0  0  0  0  0
  -19.2792   18.4395  -14.6467 F   0  0  0  0  0  0  0  0  0  0  0  0
 18 19  1  0  0  0
 19  8  1  0  0  0
  8  9  2  0  0  0
  9 10  1  0  0  0
 10 11  2  0  0  0
 11 12  1  0  0  0
 12 13  2  0  0  0
 13 14  1  0  0  0
 14 15  2  0  0  0
 15 16  1  0  0  0
 16 17  2  0  0  0
 13  1  1  0  0  0
  1  2  2  0  0  0
  2  3  1  0  0  0
  3  4  2  0  0  0
  4  5  1  0  0  0
  5  6  2  0  0  0
  6  7  1  0  0  0
  3 21  1  0  0  0
 21 22  2  0  0  0
 21 23  1  0  0  0
 23 25  1  0  0  0
 25 26  2  0  0  0
 26 27  1  0  0  0
 27 28  2  0  0  0
 28 29  1  0  0  0
 29 30  2  0  0  0
 30 31  1  0  0  0
 29 32  1  0  0  0
 32 33  1  0  0  0
 32 34  1  0  0  0
 32 35  1  0  0  0
 17  8  1  0  0  0
  6  1  1  0  0  0
 30 25  1  0  0  0
 16 11  1  0  0  0
 19 20  1  0  0  0
 23 24  1  0  0  0
M  END
> <minimizedAffinity>
-9.06521

> <CNNscore>
0.2337489873

> <CNNaffinity>
6.6223273277

> <CNN_VS>
1.5479623079

> <CNNaffinity_variance>
0.1329264939

$$$$
[H]c1c([H])c(N([H])C(=O)c2c([H])c([H])c(C([H])([H])[H])c(-c3c([H])c([H])c4nc(N([H])C([H])([H])[H])nc([H])c4c3[H])c2[H])c(C([H])([H])[H])c(C(F)(F)F)c1[H]


 35 38  0  0  0  0  0  0  0  0999 V2000
  -17.8032   12.2161  -19.9642 C   0  0  0  0  0  0  0  0  0  0  0  0
  -18.7011   12.5941  -18.9840 C   0  0  0  0  0  0  0  0  0  0  0  0
  -19.0615   11.7921  -17.9363 C   0  0  0  0  0  0  0  0  0  0  0  0
  -18.5051   10.5510  -17.8523 C   0  0  0  0  0  0  0  0  0  0  0  0
  -17.6008   10.1384  -18.8175 C   0  0  0  0  0  0  0  0  0  0  0  0
  -17.2473   10.9706  -19.8765 C   0  0  0  0  0  0  0  0  0  0  0  0
  -16.2739   10.4585  -20.8531 C   0  0  0  0  0  0  0  0  0  0  0  0
  -16.5249   15.1296  -25.5377 C   0  0  0  0  0  0  0  0  0  0  0  0
  -16.8176   13.8212  -25.7123 N   0  0  0  0  0  0  0  0  0  0  0  0
  -17.1192   12.9988  -24.7188 C   0  0  0  0  0  0  0  0  0  0  0  0
  -17.1509   13.4432  -23.4329 C   0  0  0  0  0  0  0  0  0  0  0  0
  -17.4548   12.6527  -22.3477 C   0  0  0  0  0  0  0  0  0  0  0  0
  -17.4795   13.1298  -21.0536 C   0  0  0  0  0  0  0  0  0  0  0  0
  -17.1860   14.4571  -20.8419 C   0  0  0  0  0  0  0  0  0  0  0  0
  -16.8813   15.2516  -21.9253 C   0  0  0  0  0  0  0  0  0  0  0  0
  -16.8553   14.7842  -23.2135 C   0  0  0  0  0  0  0  0  0  0  0  0
  -16.5532   15.5787  -24.2717 N   0  0  0  0  0  0  0  0  0  0  0  0
  -15.8793   15.4176  -27.9359 C   0  0  0  0  0  0  0  0  0  0  0  0
  -16.2082   15.9672  -26.6383 N   0  0  0  0  0  0  0  0  0  0  0  0
  -16.2041   17.0026  -26.5413 H   0  0  0  0  0  0  0  0  0  0  0  0
  -20.0234   12.2539  -16.9076 C   0  0  0  0  0  0  0  0  0  0  0  0
  -20.7414   13.2314  -17.2412 O   0  0  0  0  0  0  0  0  0  0  0  0
  -20.0893   11.6116  -15.6664 N   0  0  0  0  0  0  0  0  0  0  0  0
  -19.4144   10.7919  -15.5517 H   0  0  0  0  0  0  0  0  0  0  0  0
  -20.9295   11.9045  -14.5699 C   0  0  0  0  0  0  0  0  0  0  0  0
  -22.0348   12.7212  -14.6307 C   0  0  0  0  0  0  0  0  0  0  0  0
  -22.8064   12.9562  -13.5093 C   0  0  0  0  0  0  0  0  0  0  0  0
  -22.4520   12.3619  -12.3358 C   0  0  0  0  0  0  0  0  0  0  0  0
  -21.3436   11.5285  -12.2250 C   0  0  0  0  0  0  0  0  0  0  0  0
  -20.5850   11.2992  -13.3321 C   0  0  0  0  0  0  0  0  0  0  0  0
  -19.4046   10.4311  -13.2341 C   0  0  0  0  0  0  0  0  0  0  0  0
  -21.0825   10.9503  -10.9238 C   0  0  0  0  0  0  0  0  0  0  0  0
  -22.1144   11.2680  -10.0128 F   0  0  0  0  0  0  0  0  0  0  0  0
  -19.9449   11.5096  -10.3813 F   0  0  0  0  0  0  0  0  0  0  0  0
  -20.9821    9.5864  -10.8556 F   0  0  0  0  0  0  0  0  0  0  0  0
 18 19  1  0  0  0
 19  8  1  0  0  0
  8  9  2  0  0  0
  9 10  1  0  0  0
 10 11  2  0  0  0
 11 12  1  0  0  0
 12 13  2  0  0  0
 13 14  1  0  0  0
 14 15  2  0  0  0
 15 16  1  0  0  0
 16 17  2  0  0  0
 13  1  1  0  0  0
  1  2  2  0  0  0
  2  3  1  0  0  0
  3  4  2  0  0  0
  4  5  1  0  0  0
  5  6  2  0  0  0
  6  7  1  0  0  0
  3 21  1  0  0  0
 21 22  2  0  0  0
 21 23  1  0  0  0
 23 25  1  0  0  0
 25 26  2  0  0  0
 26 27  1  0  0  0
 27 28  2  0  0  0
 28 29  1  0  0  0
 29 30  2  0  0  0
 30 31  1  0  0  0
 29 32  1  0  0  0
 32 33  1  0  0  0
 32 34  1  0  0  0
 32 35  1  0  0  0
 17  8  1  0  0  0
  6  1  1  0  0  0
 30 25  1  0  0  0
 16 11  1  0  0  0
 19 20  1  0  0  0
 23 24  1  0  0  0
M  END
> <minimizedAffinity>
-9.81147

> <CNNscore>
0.2229836434

> <CNNaffinity>
6.1508107185

> <CNN_VS>
1.3715301752

> <CNNaffinity_variance>
0.1066773385

$$$$
[H]c1c([H])c(N([H])C(=O)c2c([H])c([H])c(C([H])([H])[H])c(-c3c([H])c([H])c4nc(N([H])C([H])([H])[H])nc([H])c4c3[H])c2[H])c(C([H])([H])[H])c(C(F)(F)F)c1[H]


 35 38  0  0  0  0  0  0  0  0999 V2000
  -17.6993   13.0100  -20.4001 C   0  0  0  0  0  0  0  0  0  0  0  0
  -18.5131   13.8795  -19.6992 C   0  0  0  0  0  0  0  0  0  0  0  0
  -18.9738   13.6338  -18.4350 C   0  0  0  0  0  0  0  0  0  0  0  0
  -18.6109   12.4673  -17.8312 C   0  0  0  0  0  0  0  0  0  0  0  0
  -17.7957   11.5716  -18.5042 C   0  0  0  0  0  0  0  0  0  0  0  0
  -17.3376   11.8410  -19.7913 C   0  0  0  0  0  0  0  0  0  0  0  0
  -16.4693   10.8410  -20.4314 C   0  0  0  0  0  0  0  0  0  0  0  0
  -15.4183   15.6763  -25.7736 C   0  0  0  0  0  0  0  0  0  0  0  0
  -15.2990   16.5065  -24.7131 N   0  0  0  0  0  0  0  0  0  0  0  0
  -15.6937   16.1923  -23.4885 C   0  0  0  0  0  0  0  0  0  0  0  0
  -16.2564   14.9808  -23.2281 C   0  0  0  0  0  0  0  0  0  0  0  0
  -16.6912   14.5801  -21.9850 C   0  0  0  0  0  0  0  0  0  0  0  0
  -17.2586   13.3450  -21.7492 C   0  0  0  0  0  0  0  0  0  0  0  0
  -17.3945   12.4767  -22.8077 C   0  0  0  0  0  0  0  0  0  0  0  0
  -16.9606   12.8739  -24.0534 C   0  0  0  0  0  0  0  0  0  0  0  0
  -16.3959   14.0993  -24.2946 C   0  0  0  0  0  0  0  0  0  0  0  0
  -15.9727   14.4774  -25.5275 N   0  0  0  0  0  0  0  0  0  0  0  0
  -15.6210   15.5662  -28.2632 C   0  0  0  0  0  0  0  0  0  0  0  0
  -14.9784   16.0636  -27.0659 N   0  0  0  0  0  0  0  0  0  0  0  0
  -14.1793   16.7179  -27.1872 H   0  0  0  0  0  0  0  0  0  0  0  0
  -19.8373   14.6079  -17.7265 C   0  0  0  0  0  0  0  0  0  0  0  0
  -19.2473   15.3494  -16.8993 O   0  0  0  0  0  0  0  0  0  0  0  0
  -21.2092   14.6593  -17.9962 N   0  0  0  0  0  0  0  0  0  0  0  0
  -21.5452   13.9645  -18.7344 H   0  0  0  0  0  0  0  0  0  0  0  0
  -22.1844   15.5077  -17.4278 C   0  0  0  0  0  0  0  0  0  0  0  0
  -22.7026   15.3619  -16.1618 C   0  0  0  0  0  0  0  0  0  0  0  0
  -23.6557   16.2379  -15.6796 C   0  0  0  0  0  0  0  0  0  0  0  0
  -24.0757   17.2541  -16.4836 C   0  0  0  0  0  0  0  0  0  0  0  0
  -23.5814   17.4424  -17.7703 C   0  0  0  0  0  0  0  0  0  0  0  0
  -22.6424   16.5769  -18.2428 C   0  0  0  0  0  0  0  0  0  0  0  0
  -22.1154   16.7516  -19.6023 C   0  0  0  0  0  0  0  0  0  0  0  0
  -24.1025   18.5674  -18.5175 C   0  0  0  0  0  0  0  0  0  0  0  0
  -23.0795   19.4957  -18.8131 F   0  0  0  0  0  0  0  0  0  0  0  0
  -25.0048   19.2671  -17.7444 F   0  0  0  0  0  0  0  0  0  0  0  0
  -24.6740   18.2988  -19.7326 F   0  0  0  0  0  0  0  0  0  0  0  0
 18 19  1  0  0  0
 19  8  1  0  0  0
  8  9  2  0  0  0
  9 10  1  0  0  0
 10 11  2  0  0  0
 11 12  1  0  0  0
 12 13  2  0  0  0
 13 14  1  0  0  0
 14 15  2  0  0  0
 15 16  1  0  0  0
 16 17  2  0  0  0
 13  1  1  0  0  0
  1  2  2  0  0  0
  2  3  1  0  0  0
  3  4  2  0  0  0
  4  5  1  0  0  0
  5  6  2  0  0  0
  6  7  1  0  0  0
  3 21  1  0  0  0
 21 22  2  0  0  0
 21 23  1  0  0  0
 23 25  1  0  0  0
 25 26  2  0  0  0
 26 27  1  0  0  0
 27 28  2  0  0  0
 28 29  1  0  0  0
 29 30  2  0  0  0
 30 31  1  0  0  0
 29 32  1  0  0  0
 32 33  1  0  0  0
 32 34  1  0  0  0
 32 35  1  0  0  0
 17  8  1  0  0  0
  6  1  1  0  0  0
 30 25  1  0  0  0
 16 11  1  0  0  0
 19 20  1  0  0  0
 23 24  1  0  0  0
M  END
> <minimizedAffinity>
-8.77469

> <CNNscore>
0.2211980671

> <CNNaffinity>
6.6819572449

> <CNN_VS>
1.4780360460

> <CNNaffinity_variance>
0.0833466277

$$$$
[H]c1c([H])c(N([H])C(=O)c2c([H])c([H])c(C([H])([H])[H])c(-c3c([H])c([H])c4nc(N([H])C([H])([H])[H])nc([H])c4c3[H])c2[H])c(C([H])([H])[H])c(C(F)(F)F)c1[H]


 35 38  0  0  0  0  0  0  0  0999 V2000
  -17.6228   13.1522  -20.4515 C   0  0  0  0  0  0  0  0  0  0  0  0
  -18.2797   14.1047  -19.6959 C   0  0  0  0  0  0  0  0  0  0  0  0
  -18.6905   13.8990  -18.4077 C   0  0  0  0  0  0  0  0  0  0  0  0
  -18.4386   12.6881  -17.8354 C   0  0  0  0  0  0  0  0  0  0  0  0
  -17.7818   11.7092  -18.5634 C   0  0  0  0  0  0  0  0  0  0  0  0
  -17.3720   11.9391  -19.8742 C   0  0  0  0  0  0  0  0  0  0  0  0
  -16.6735   10.8495  -20.5733 C   0  0  0  0  0  0  0  0  0  0  0  0
  -15.4351   15.6357  -25.9500 C   0  0  0  0  0  0  0  0  0  0  0  0
  -15.2150   16.4637  -24.9041 N   0  0  0  0  0  0  0  0  0  0  0  0
  -15.5706   16.1829  -23.6596 C   0  0  0  0  0  0  0  0  0  0  0  0
  -16.1945   15.0106  -23.3619 C   0  0  0  0  0  0  0  0  0  0  0  0
  -16.5946   14.6459  -22.0962 C   0  0  0  0  0  0  0  0  0  0  0  0
  -17.2258   13.4502  -21.8227 C   0  0  0  0  0  0  0  0  0  0  0  0
  -17.4648   12.5852  -22.8654 C   0  0  0  0  0  0  0  0  0  0  0  0
  -17.0659   12.9464  -24.1337 C   0  0  0  0  0  0  0  0  0  0  0  0
  -16.4382   14.1325  -24.4123 C   0  0  0  0  0  0  0  0  0  0  0  0
  -16.0507   14.4754  -25.6671 N   0  0  0  0  0  0  0  0  0  0  0  0
  -15.8030   15.5850  -28.4226 C   0  0  0  0  0  0  0  0  0  0  0  0
  -15.0331   15.9863  -27.2649 N   0  0  0  0  0  0  0  0  0  0  0  0
  -14.1710   16.5433  -27.4321 H   0  0  0  0  0  0  0  0  0  0  0  0
  -19.3834   14.9612  -17.6407 C   0  0  0  0  0  0  0  0  0  0  0  0
  -20.4794   14.6248  -17.1233 O   0  0  0  0  0  0  0  0  0  0  0  0
  -18.8143   16.2345  -17.5294 N   0  0  0  0  0  0  0  0  0  0  0  0
  -17.8738   16.3477  -18.0225 H   0  0  0  0  0  0  0  0  0  0  0  0
  -19.3187   17.3651  -16.8502 C   0  0  0  0  0  0  0  0  0  0  0  0
  -19.6875   17.3786  -15.5249 C   0  0  0  0  0  0  0  0  0  0  0  0
  -20.1721   18.5296  -14.9347 C   0  0  0  0  0  0  0  0  0  0  0  0
  -20.2791   19.6572  -15.6915 C   0  0  0  0  0  0  0  0  0  0  0  0
  -19.9189   19.6927  -17.0348 C   0  0  0  0  0  0  0  0  0  0  0  0
  -19.4419   18.5564  -17.6138 C   0  0  0  0  0  0  0  0  0  0  0  0
  -19.0661   18.5697  -19.0333 C   0  0  0  0  0  0  0  0  0  0  0  0
  -20.0705   20.9568  -17.7236 C   0  0  0  0  0  0  0  0  0  0  0  0
  -20.9547   20.8334  -18.8184 F   0  0  0  0  0  0  0  0  0  0  0  0
  -18.8670   21.3358  -18.2797 F   0  0  0  0  0  0  0  0  0  0  0  0
  -20.5749   22.0049  -17.0008 F   0  0  0  0  0  0  0  0  0  0  0  0
 18 19  1  0  0  0
 19  8  1  0  0  0
  8  9  2  0  0  0
  9 10  1  0  0  0
 10 11  2  0  0  0
 11 12  1  0  0  0
 12 13  2  0  0  0
 13 14  1  0  0  0
 14 15  2  0  0  0
 15 16  1  0  0  0
 16 17  2  0  0  0
 13  1  1  0  0  0
  1  2  2  0  0  0
  2  3  1  0  0  0
  3  4  2  0  0  0
  4  5  1  0  0  0
  5  6  2  0  0  0
  6  7  1  0  0  0
  3 21  1  0  0  0
 21 22  2  0  0  0
 21 23  1  0  0  0
 23 25  1  0  0  0
 25 26  2  0  0  0
 26 27  1  0  0  0
 27 28  2  0  0  0
 28 29  1  0  0  0
 29 30  2  0  0  0
 30 31  1  0  0  0
 29 32  1  0  0  0
 32 33  1  0  0  0
 32 34  1  0  0  0
 32 35  1  0  0  0
 17  8  1  0  0  0
  6  1  1  0  0  0
 30 25  1  0  0  0
 16 11  1  0  0  0
 19 20  1  0  0  0
 23 24  1  0  0  0
M  END
> <minimizedAffinity>
-9.48823

> <CNNscore>
0.2122125030

> <CNNaffinity>
6.6369552612

> <CNN_VS>
1.4084448814

> <CNNaffinity_variance>
0.1008783206

$$$$
[H]c1c([H])c(N([H])C(=O)c2c([H])c([H])c(C([H])([H])[H])c(-c3c([H])c([H])c4nc(N([H])C([H])([H])[H])nc([H])c4c3[H])c2[H])c(C([H])([H])[H])c(C(F)(F)F)c1[H]


 35 38  0  0  0  0  0  0  0  0999 V2000
  -17.7452   12.0605  -20.0028 C   0  0  0  0  0  0  0  0  0  0  0  0
  -18.7493   12.3407  -19.0957 C   0  0  0  0  0  0  0  0  0  0  0  0
  -19.1049   11.5017  -18.0756 C   0  0  0  0  0  0  0  0  0  0  0  0
  -18.4325   10.3238  -17.9445 C   0  0  0  0  0  0  0  0  0  0  0  0
  -17.4195   10.0098  -18.8361 C   0  0  0  0  0  0  0  0  0  0  0  0
  -17.0730   10.8780  -19.8681 C   0  0  0  0  0  0  0  0  0  0  0  0
  -15.9804   10.4723  -20.7654 C   0  0  0  0  0  0  0  0  0  0  0  0
  -16.4715   15.1302  -25.4929 C   0  0  0  0  0  0  0  0  0  0  0  0
  -16.7159   13.8164  -25.6989 N   0  0  0  0  0  0  0  0  0  0  0  0
  -17.0062   12.9640  -24.7277 C   0  0  0  0  0  0  0  0  0  0  0  0
  -17.0754   13.3804  -23.4339 C   0  0  0  0  0  0  0  0  0  0  0  0
  -17.3708   12.5578  -22.3704 C   0  0  0  0  0  0  0  0  0  0  0  0
  -17.4342   13.0070  -21.0676 C   0  0  0  0  0  0  0  0  0  0  0  0
  -17.1903   14.3388  -20.8242 C   0  0  0  0  0  0  0  0  0  0  0  0
  -16.8944   15.1655  -21.8858 C   0  0  0  0  0  0  0  0  0  0  0  0
  -16.8300   14.7259  -23.1824 C   0  0  0  0  0  0  0  0  0  0  0  0
  -16.5372   15.5518  -24.2189 N   0  0  0  0  0  0  0  0  0  0  0  0
  -15.8450   15.4903  -27.8864 C   0  0  0  0  0  0  0  0  0  0  0  0
  -16.1648   16.0006  -26.5707 N   0  0  0  0  0  0  0  0  0  0  0  0
  -16.1618   17.0327  -26.4430 H   0  0  0  0  0  0  0  0  0  0  0  0
  -20.1849   11.8584  -17.1253 C   0  0  0  0  0  0  0  0  0  0  0  0
  -20.7867   10.8851  -16.6032 O   0  0  0  0  0  0  0  0  0  0  0  0
  -20.4751   13.2014  -16.8610 N   0  0  0  0  0  0  0  0  0  0  0  0
  -19.8609   13.9018  -17.3830 H   0  0  0  0  0  0  0  0  0  0  0  0
  -21.4577   13.7337  -15.9977 C   0  0  0  0  0  0  0  0  0  0  0  0
  -21.7959   13.1980  -14.7766 C   0  0  0  0  0  0  0  0  0  0  0  0
  -22.7703   13.7820  -13.9906 C   0  0  0  0  0  0  0  0  0  0  0  0
  -23.3937   14.9035  -14.4480 C   0  0  0  0  0  0  0  0  0  0  0  0
  -23.0862   15.4818  -15.6753 C   0  0  0  0  0  0  0  0  0  0  0  0
  -22.1256   14.9035  -16.4479 C   0  0  0  0  0  0  0  0  0  0  0  0
  -21.7933   15.4921  -17.7516 C   0  0  0  0  0  0  0  0  0  0  0  0
  -23.8139   16.6789  -16.0396 C   0  0  0  0  0  0  0  0  0  0  0  0
  -24.7011   17.0645  -15.0101 F   0  0  0  0  0  0  0  0  0  0  0  0
  -24.6215   16.4246  -17.1279 F   0  0  0  0  0  0  0  0  0  0  0  0
  -23.0770   17.8061  -16.2878 F   0  0  0  0  0  0  0  0  0  0  0  0
 18 19  1  0  0  0
 19  8  1  0  0  0
  8  9  2  0  0  0
  9 10  1  0  0  0
 10 11  2  0  0  0
 11 12  1  0  0  0
 12 13  2  0  0  0
 13 14  1  0  0  0
 14 15  2  0  0  0
 15 16  1  0  0  0
 16 17  2  0  0  0
 13  1  1  0  0  0
  1  2  2  0  0  0
  2  3  1  0  0  0
  3  4  2  0  0  0
  4  5  1  0  0  0
  5  6  2  0  0  0
  6  7  1  0  0  0
  3 21  1  0  0  0
 21 22  2  0  0  0
 21 23  1  0  0  0
 23 25  1  0  0  0
 25 26  2  0  0  0
 26 27  1  0  0  0
 27 28  2  0  0  0
 28 29  1  0  0  0
 29 30  2  0  0  0
 30 31  1  0  0  0
 29 32  1  0  0  0
 32 33  1  0  0  0
 32 34  1  0  0  0
 32 35  1  0  0  0
 17  8  1  0  0  0
  6  1  1  0  0  0
 30 25  1  0  0  0
 16 11  1  0  0  0
 19 20  1  0  0  0
 23 24  1  0  0  0
M  END
> <minimizedAffinity>
-9.40251

> <CNNscore>
0.1948874891

> <CNNaffinity>
6.3369741440

> <CNN_VS>
1.2349970341

> <CNNaffinity_variance>
0.0970337838

$$$$
[H]c1c([H])c(N([H])C(=O)c2c([H])c([H])c(C([H])([H])[H])c(-c3c([H])c([H])c4nc(N([H])C([H])([H])[H])nc([H])c4c3[H])c2[H])c(C([H])([H])[H])c(C(F)(F)F)c1[H]


 35 38  0  0  0  0  0  0  0  0999 V2000
  -17.1128   12.1837  -20.9058 C   0  0  0  0  0  0  0  0  0  0  0  0
  -17.8438   12.8679  -19.9534 C   0  0  0  0  0  0  0  0  0  0  0  0
  -18.0558   12.4050  -18.6839 C   0  0  0  0  0  0  0  0  0  0  0  0
  -17.5167   11.2025  -18.3369 C   0  0  0  0  0  0  0  0  0  0  0  0
  -16.7777   10.4887  -19.2664 C   0  0  0  0  0  0  0  0  0  0  0  0
  -16.5737   10.9779  -20.5540 C   0  0  0  0  0  0  0  0  0  0  0  0
  -15.7700   10.1614  -21.4765 C   0  0  0  0  0  0  0  0  0  0  0  0
  -15.3203   15.3242  -26.2077 C   0  0  0  0  0  0  0  0  0  0  0  0
  -14.5167   15.6125  -25.1593 N   0  0  0  0  0  0  0  0  0  0  0  0
  -14.6733   15.0925  -23.9513 C   0  0  0  0  0  0  0  0  0  0  0  0
  -15.6817   14.2148  -23.6969 C   0  0  0  0  0  0  0  0  0  0  0  0
  -15.9103   13.6320  -22.4709 C   0  0  0  0  0  0  0  0  0  0  0  0
  -16.9412   12.7447  -22.2408 C   0  0  0  0  0  0  0  0  0  0  0  0
  -17.7772   12.4305  -23.2872 C   0  0  0  0  0  0  0  0  0  0  0  0
  -17.5518   13.0115  -24.5158 C   0  0  0  0  0  0  0  0  0  0  0  0
  -16.5295   13.8936  -24.7513 C   0  0  0  0  0  0  0  0  0  0  0  0
  -16.3193   14.4586  -25.9674 N   0  0  0  0  0  0  0  0  0  0  0  0
  -15.9927   15.6411  -28.5949 C   0  0  0  0  0  0  0  0  0  0  0  0
  -15.1076   15.9103  -27.4823 N   0  0  0  0  0  0  0  0  0  0  0  0
  -14.3066   16.5517  -27.6513 H   0  0  0  0  0  0  0  0  0  0  0  0
  -18.8411   13.1867  -17.6996 C   0  0  0  0  0  0  0  0  0  0  0  0
  -18.1634   13.8761  -16.8948 O   0  0  0  0  0  0  0  0  0  0  0  0
  -20.2389   13.1279  -17.7079 N   0  0  0  0  0  0  0  0  0  0  0  0
  -20.6548   12.5000  -18.4651 H   0  0  0  0  0  0  0  0  0  0  0  0
  -21.1505   13.7915  -16.8578 C   0  0  0  0  0  0  0  0  0  0  0  0
  -21.5721   13.3113  -15.6395 C   0  0  0  0  0  0  0  0  0  0  0  0
  -22.4677   14.0246  -14.8667 C   0  0  0  0  0  0  0  0  0  0  0  0
  -22.9286   15.2182  -15.3342 C   0  0  0  0  0  0  0  0  0  0  0  0
  -22.5316   15.7448  -16.5591 C   0  0  0  0  0  0  0  0  0  0  0  0
  -21.6490   15.0390  -17.3187 C   0  0  0  0  0  0  0  0  0  0  0  0
  -21.2252   15.5721  -18.6198 C   0  0  0  0  0  0  0  0  0  0  0  0
  -23.0866   17.0278  -16.9350 C   0  0  0  0  0  0  0  0  0  0  0  0
  -23.8985   17.5495  -15.9033 F   0  0  0  0  0  0  0  0  0  0  0  0
  -23.9345   16.8754  -18.0116 F   0  0  0  0  0  0  0  0  0  0  0  0
  -22.2004   18.0356  -17.2074 F   0  0  0  0  0  0  0  0  0  0  0  0
 18 19  1  0  0  0
 19  8  1  0  0  0
  8  9  2  0  0  0
  9 10  1  0  0  0
 10 11  2  0  0  0
 11 12  1  0  0  0
 12 13  2  0  0  0
 13 14  1  0  0  0
 14 15  2  0  0  0
 15 16  1  0  0  0
 16 17  2  0  0  0
 13  1  1  0  0  0
  1  2  2  0  0  0
  2  3  1  0  0  0
  3  4  2  0  0  0
  4  5  1  0  0  0
  5  6  2  0  0  0
  6  7  1  0  0  0
  3 21  1  0  0  0
 21 22  2  0  0  0
 21 23  1  0  0  0
 23 25  1  0  0  0
 25 26  2  0  0  0
 26 27  1  0  0  0
 27 28  2  0  0  0
 28 29  1  0  0  0
 29 30  2  0  0  0
 30 31  1  0  0  0
 29 32  1  0  0  0
 32 33  1  0  0  0
 32 34  1  0  0  0
 32 35  1  0  0  0
 17  8  1  0  0  0
  6  1  1  0  0  0
 30 25  1  0  0  0
 16 11  1  0  0  0
 19 20  1  0  0  0
 23 24  1  0  0  0
M  END
> <minimizedAffinity>
-9.03409

> <CNNscore>
0.1925245374

> <CNNaffinity>
6.4745292664

> <CNN_VS>
1.2465057373

> <CNNaffinity_variance>
0.2189377099

$$$$
[H]O[C@]1([H])C([H])([H])C([H])([H])[C@@]([H])(N([H])[C@]2([H])C([H])([H])C([H])([H])[C@@]([H])(n3c([H])c(-c4c([H])c([H])c(Oc5c([H])c([H])c([H])c([H])c5[H])c([H])c4[H])c4c(N([H])[H])nc([H])nc43)C([H])([H])C2([H])[H])C([H])([H])C1([H])[H]


 41 46  0  0  0  0  0  0  0  0999 V2000
  -18.3877    8.9482  -17.2265 N   0  0  0  0  0  0  0  0  0  0  0  0
  -18.1182   10.0778  -18.0533 C   0  0  0  0  0  0  0  0  0  0  0  0
  -17.1580    9.9415  -19.0259 N   0  0  0  0  0  0  0  0  0  0  0  0
  -16.9026   10.9474  -19.8488 C   0  0  0  0  0  0  0  0  0  0  0  0
  -17.5807   12.0859  -19.7234 N   0  0  0  0  0  0  0  0  0  0  0  0
  -18.5273   12.2641  -18.7851 C   0  0  0  0  0  0  0  0  0  0  0  0
  -19.3414   13.2803  -18.4452 N   0  0  0  0  0  0  0  0  0  0  0  0
  -20.1174   12.9302  -17.3941 C   0  0  0  0  0  0  0  0  0  0  0  0
  -19.8261   11.6708  -17.0279 C   0  0  0  0  0  0  0  0  0  0  0  0
  -18.8134   11.2293  -17.9136 C   0  0  0  0  0  0  0  0  0  0  0  0
  -19.2077    8.3450  -17.5378 H   0  0  0  0  0  0  0  0  0  0  0  0
  -17.8477    8.6705  -16.3975 H   0  0  0  0  0  0  0  0  0  0  0  0
  -20.2799   10.7798  -15.9486 C   0  0  0  0  0  0  0  0  0  0  0  0
  -21.1936    9.7848  -16.0819 C   0  0  0  0  0  0  0  0  0  0  0  0
  -21.4196    8.8926  -15.0475 C   0  0  0  0  0  0  0  0  0  0  0  0
  -20.7545    8.9496  -13.8401 C   0  0  0  0  0  0  0  0  0  0  0  0
  -19.8147   10.0095  -13.7293 C   0  0  0  0  0  0  0  0  0  0  0  0
  -19.5804   10.8886  -14.7306 C   0  0  0  0  0  0  0  0  0  0  0  0
  -20.8597    8.1701  -12.8151 O   0  0  0  0  0  0  0  0  0  0  0  0
  -20.9605    7.4130  -11.8188 C   0  0  0  0  0  0  0  0  0  0  0  0
  -20.7335    6.0279  -11.9865 C   0  0  0  0  0  0  0  0  0  0  0  0
  -20.8335    5.1344  -10.9627 C   0  0  0  0  0  0  0  0  0  0  0  0
  -21.1699    5.5978   -9.7214 C   0  0  0  0  0  0  0  0  0  0  0  0
  -21.4021    6.9350   -9.4879 C   0  0  0  0  0  0  0  0  0  0  0  0
  -21.2920    7.8068  -10.5334 C   0  0  0  0  0  0  0  0  0  0  0  0
  -19.3836   14.5546  -19.1211 C   0  0  0  0  0  0  0  0  0  0  0  0
  -20.6283   14.7273  -19.9227 C   0  0  0  0  0  0  0  0  0  0  0  0
  -20.4656   16.0643  -20.7079 C   0  0  0  0  0  0  0  0  0  0  0  0
  -20.5103   17.1491  -19.6202 C   0  0  0  0  0  0  0  0  0  0  0  0
  -19.1710   17.0015  -18.8906 C   0  0  0  0  0  0  0  0  0  0  0  0
  -19.2206   15.7020  -18.1187 C   0  0  0  0  0  0  0  0  0  0  0  0
  -20.7985   18.4302  -20.0242 N   0  0  0  0  0  0  0  0  0  0  0  0
  -20.0290   19.0557  -20.3242 H   0  0  0  0  0  0  0  0  0  0  0  0
  -21.9971   19.1110  -20.0128 C   0  0  0  0  0  0  0  0  0  0  0  0
  -23.0392   18.0835  -19.4706 C   0  0  0  0  0  0  0  0  0  0  0  0
  -24.4072   18.5771  -19.8975 C   0  0  0  0  0  0  0  0  0  0  0  0
  -24.6856   19.8765  -19.1647 C   0  0  0  0  0  0  0  0  0  0  0  0
  -25.8319   20.4324  -19.7475 O   0  0  0  0  0  0  0  0  0  0  0  0
  -23.5710   20.8575  -19.3039 C   0  0  0  0  0  0  0  0  0  0  0  0
  -22.1877   20.2785  -19.0968 C   0  0  0  0  0  0  0  0  0  0  0  0
  -26.4758   19.7646  -20.0298 H   0  0  0  0  0  0  0  0  0  0  0  0
  1  2  1  0  0  0
  2  3  2  0  0  0
  3  4  1  0  0  0
  4  5  2  0  0  0
  5  6  1  0  0  0
  6  7  1  0  0  0
  7  8  1  0  0  0
  8  9  2  0  0  0
  9 13  1  0  0  0
 13 14  2  0  0  0
 14 15  1  0  0  0
 15 16  2  0  0  0
 16 19  1  0  0  0
 19 20  1  0  0  0
 20 21  2  0  0  0
 21 22  1  0  0  0
 22 23  2  0  0  0
 23 24  1  0  0  0
 24 25  2  0  0  0
 16 17  1  0  0  0
 17 18  2  0  0  0
  9 10  1  0  0  0
  7 26  1  0  0  0
 26 27  1  0  0  0
 27 28  1  0  0  0
 28 29  1  0  0  0
 29 30  1  0  0  0
 30 31  1  0  0  0
 29 32  1  0  0  0
 32 34  1  0  0  0
 34 35  1  0  0  0
 35 36  1  0  0  0
 36 37  1  0  0  0
 37 38  1  0  0  0
 37 39  1  0  0  0
 39 40  1  0  0  0
 10  2  1  0  0  0
 31 26  1  0  0  0
 40 34  1  0  0  0
 10  6  2  0  0  0
 18 13  1  0  0  0
 25 20  1  0  0  0
  1 11  1  0  0  0
  1 12  1  0  0  0
 32 33  1  0  0  0
 38 41  1  0  0  0
M  END
> <minimizedAffinity>
-6.81254

> <CNNscore>
0.6008964181

> <CNNaffinity>
6.9500679970

> <CNN_VS>
4.1762709618

> <CNNaffinity_variance>
0.3092022538

$$$$
[H]O[C@]1([H])C([H])([H])C([H])([H])[C@@]([H])(N([H])[C@]2([H])C([H])([H])C([H])([H])[C@@]([H])(n3c([H])c(-c4c([H])c([H])c(Oc5c([H])c([H])c([H])c([H])c5[H])c([H])c4[H])c4c(N([H])[H])nc([H])nc43)C([H])([H])C2([H])[H])C([H])([H])C1([H])[H]


 41 46  0  0  0  0  0  0  0  0999 V2000
  -17.7755    9.4973  -17.3699 N   0  0  0  0  0  0  0  0  0  0  0  0
  -17.8591   10.4733  -18.4056 C   0  0  0  0  0  0  0  0  0  0  0  0
  -16.9937   10.3540  -19.4656 N   0  0  0  0  0  0  0  0  0  0  0  0
  -17.0618   11.2094  -20.4744 C   0  0  0  0  0  0  0  0  0  0  0  0
  -17.9709   12.1813  -20.4503 N   0  0  0  0  0  0  0  0  0  0  0  0
  -18.8362   12.3368  -19.4329 C   0  0  0  0  0  0  0  0  0  0  0  0
  -19.8274   13.2052  -19.1596 N   0  0  0  0  0  0  0  0  0  0  0  0
  -20.3934   12.9129  -17.9665 C   0  0  0  0  0  0  0  0  0  0  0  0
  -19.7821   11.8403  -17.4365 C   0  0  0  0  0  0  0  0  0  0  0  0
  -18.7864   11.4569  -18.3672 C   0  0  0  0  0  0  0  0  0  0  0  0
  -18.4587    8.6856  -17.4569 H   0  0  0  0  0  0  0  0  0  0  0  0
  -17.1070    9.5080  -16.5896 H   0  0  0  0  0  0  0  0  0  0  0  0
  -19.9077   11.1035  -16.1692 C   0  0  0  0  0  0  0  0  0  0  0  0
  -20.3680    9.8330  -16.0402 C   0  0  0  0  0  0  0  0  0  0  0  0
  -20.2806    9.1718  -14.8268 C   0  0  0  0  0  0  0  0  0  0  0  0
  -19.7383    9.7401  -13.6927 C   0  0  0  0  0  0  0  0  0  0  0  0
  -19.2777   11.0739  -13.8590 C   0  0  0  0  0  0  0  0  0  0  0  0
  -19.3536   11.7337  -15.0376 C   0  0  0  0  0  0  0  0  0  0  0  0
  -19.5819    9.2241  -12.5185 O   0  0  0  0  0  0  0  0  0  0  0  0
  -19.4298    8.7214  -11.3784 C   0  0  0  0  0  0  0  0  0  0  0  0
  -20.1451    7.5480  -11.0471 C   0  0  0  0  0  0  0  0  0  0  0  0
  -20.0485    6.9438   -9.8297 C   0  0  0  0  0  0  0  0  0  0  0  0
  -19.2265    7.4978   -8.8884 C   0  0  0  0  0  0  0  0  0  0  0  0
  -18.4992    8.6385   -9.1459 C   0  0  0  0  0  0  0  0  0  0  0  0
  -18.6149    9.2202  -10.3761 C   0  0  0  0  0  0  0  0  0  0  0  0
  -20.2315   14.2838  -20.0290 C   0  0  0  0  0  0  0  0  0  0  0  0
  -21.4305   15.0044  -19.5144 C   0  0  0  0  0  0  0  0  0  0  0  0
  -21.8377   16.0277  -20.6180 C   0  0  0  0  0  0  0  0  0  0  0  0
  -20.6957   17.0561  -20.6195 C   0  0  0  0  0  0  0  0  0  0  0  0
  -19.5181   16.3052  -21.2498 C   0  0  0  0  0  0  0  0  0  0  0  0
  -19.0700   15.2569  -20.2562 C   0  0  0  0  0  0  0  0  0  0  0  0
  -20.9560   18.2809  -21.1848 N   0  0  0  0  0  0  0  0  0  0  0  0
  -20.5105   19.1294  -20.7911 H   0  0  0  0  0  0  0  0  0  0  0  0
  -21.8357   18.6202  -22.1905 C   0  0  0  0  0  0  0  0  0  0  0  0
  -21.8616   20.1806  -22.1938 C   0  0  0  0  0  0  0  0  0  0  0  0
  -23.1383   20.5982  -22.8959 C   0  0  0  0  0  0  0  0  0  0  0  0
  -23.0298   20.1818  -24.3512 C   0  0  0  0  0  0  0  0  0  0  0  0
  -24.2990   20.3565  -24.9180 O   0  0  0  0  0  0  0  0  0  0  0  0
  -22.6451   18.7492  -24.5052 C   0  0  0  0  0  0  0  0  0  0  0  0
  -21.5068   18.2994  -23.6143 C   0  0  0  0  0  0  0  0  0  0  0  0
  -24.7737   21.1210  -24.5569 H   0  0  0  0  0  0  0  0  0  0  0  0
  1  2  1  0  0  0
  2  3  2  0  0  0
  3  4  1  0  0  0
  4  5  2  0  0  0
  5  6  1  0  0  0
  6  7  1  0  0  0
  7  8  1  0  0  0
  8  9  2  0  0  0
  9 13  1  0  0  0
 13 14  2  0  0  0
 14 15  1  0  0  0
 15 16  2  0  0  0
 16 19  1  0  0  0
 19 20  1  0  0  0
 20 21  2  0  0  0
 21 22  1  0  0  0
 22 23  2  0  0  0
 23 24  1  0  0  0
 24 25  2  0  0  0
 16 17  1  0  0  0
 17 18  2  0  0  0
  9 10  1  0  0  0
  7 26  1  0  0  0
 26 27  1  0  0  0
 27 28  1  0  0  0
 28 29  1  0  0  0
 29 30  1  0  0  0
 30 31  1  0  0  0
 29 32  1  0  0  0
 32 34  1  0  0  0
 34 35  1  0  0  0
 35 36  1  0  0  0
 36 37  1  0  0  0
 37 38  1  0  0  0
 37 39  1  0  0  0
 39 40  1  0  0  0
 10  2  1  0  0  0
 31 26  1  0  0  0
 40 34  1  0  0  0
 10  6  2  0  0  0
 18 13  1  0  0  0
 25 20  1  0  0  0
  1 11  1  0  0  0
  1 12  1  0  0  0
 32 33  1  0  0  0
 38 41  1  0  0  0
M  END
> <minimizedAffinity>
-7.67313

> <CNNscore>
0.5625033379

> <CNNaffinity>
7.0054626465

> <CNN_VS>
3.9405961037

> <CNNaffinity_variance>
0.3885448277

$$$$
[H]O[C@]1([H])C([H])([H])C([H])([H])[C@@]([H])(N([H])[C@]2([H])C([H])([H])C([H])([H])[C@@]([H])(n3c([H])c(-c4c([H])c([H])c(Oc5c([H])c([H])c([H])c([H])c5[H])c([H])c4[H])c4c(N([H])[H])nc([H])nc43)C([H])([H])C2([H])[H])C([H])([H])C1([H])[H]


 41 46  0  0  0  0  0  0  0  0999 V2000
  -16.9377    9.9863  -20.3480 N   0  0  0  0  0  0  0  0  0  0  0  0
  -16.7524   11.1851  -21.0969 C   0  0  0  0  0  0  0  0  0  0  0  0
  -15.8921   11.1419  -22.1668 N   0  0  0  0  0  0  0  0  0  0  0  0
  -15.7203   12.2170  -22.9211 C   0  0  0  0  0  0  0  0  0  0  0  0
  -16.3845   13.3337  -22.6326 N   0  0  0  0  0  0  0  0  0  0  0  0
  -17.2347   13.4217  -21.5946 C   0  0  0  0  0  0  0  0  0  0  0  0
  -18.0130   14.3970  -21.0906 N   0  0  0  0  0  0  0  0  0  0  0  0
  -18.6816   13.9507  -20.0028 C   0  0  0  0  0  0  0  0  0  0  0  0
  -18.3538   12.6676  -19.7765 C   0  0  0  0  0  0  0  0  0  0  0  0
  -17.4323   12.3134  -20.7915 C   0  0  0  0  0  0  0  0  0  0  0  0
  -17.7834    9.4038  -20.6285 H   0  0  0  0  0  0  0  0  0  0  0  0
  -16.3185    9.6442  -19.6026 H   0  0  0  0  0  0  0  0  0  0  0  0
  -18.6982   11.6831  -18.7387 C   0  0  0  0  0  0  0  0  0  0  0  0
  -17.9860   10.5647  -18.4481 C   0  0  0  0  0  0  0  0  0  0  0  0
  -18.2991    9.7987  -17.3379 C   0  0  0  0  0  0  0  0  0  0  0  0
  -19.3294   10.1053  -16.4732 C   0  0  0  0  0  0  0  0  0  0  0  0
  -20.0619   11.2744  -16.8130 C   0  0  0  0  0  0  0  0  0  0  0  0
  -19.7682   12.0350  -17.8926 C   0  0  0  0  0  0  0  0  0  0  0  0
  -19.7038    9.4881  -15.4016 O   0  0  0  0  0  0  0  0  0  0  0  0
  -20.0689    8.8884  -14.3610 C   0  0  0  0  0  0  0  0  0  0  0  0
  -19.1103    8.6093  -13.3603 C   0  0  0  0  0  0  0  0  0  0  0  0
  -19.4176    7.9527  -12.2066 C   0  0  0  0  0  0  0  0  0  0  0  0
  -20.7075    7.5450  -12.0103 C   0  0  0  0  0  0  0  0  0  0  0  0
  -21.6914    7.7865  -12.9431 C   0  0  0  0  0  0  0  0  0  0  0  0
  -21.3534    8.4489  -14.0887 C   0  0  0  0  0  0  0  0  0  0  0  0
  -18.1233   15.7239  -21.6471 C   0  0  0  0  0  0  0  0  0  0  0  0
  -18.5122   15.7020  -23.0858 C   0  0  0  0  0  0  0  0  0  0  0  0
  -18.4425   17.1775  -23.5843 C   0  0  0  0  0  0  0  0  0  0  0  0
  -19.5931   17.8804  -22.8469 C   0  0  0  0  0  0  0  0  0  0  0  0
  -19.1059   17.9728  -21.3970 C   0  0  0  0  0  0  0  0  0  0  0  0
  -19.1071   16.5700  -20.8322 C   0  0  0  0  0  0  0  0  0  0  0  0
  -20.0413   19.0681  -23.3720 N   0  0  0  0  0  0  0  0  0  0  0  0
  -19.4533   19.9170  -23.2879 H   0  0  0  0  0  0  0  0  0  0  0  0
  -21.2555   19.3771  -23.9469 C   0  0  0  0  0  0  0  0  0  0  0  0
  -22.1326   18.1019  -23.7463 C   0  0  0  0  0  0  0  0  0  0  0  0
  -23.2566   18.1767  -24.7604 C   0  0  0  0  0  0  0  0  0  0  0  0
  -24.1426   19.3521  -24.3911 C   0  0  0  0  0  0  0  0  0  0  0  0
  -25.0230   19.5479  -25.4632 O   0  0  0  0  0  0  0  0  0  0  0  0
  -23.3653   20.6092  -24.1922 C   0  0  0  0  0  0  0  0  0  0  0  0
  -22.1115   20.4538  -23.3584 C   0  0  0  0  0  0  0  0  0  0  0  0
  -25.2895   18.7197  -25.8912 H   0  0  0  0  0  0  0  0  0  0  0  0
  1  2  1  0  0  0
  2  3  2  0  0  0
  3  4  1  0  0  0
  4  5  2  0  0  0
  5  6  1  0  0  0
  6  7  1  0  0  0
  7  8  1  0  0  0
  8  9  2  0  0  0
  9 13  1  0  0  0
 13 14  2  0  0  0
 14 15  1  0  0  0
 15 16  2  0  0  0
 16 19  1  0  0  0
 19 20  1  0  0  0
 20 21  2  0  0  0
 21 22  1  0  0  0
 22 23  2  0  0  0
 23 24  1  0  0  0
 24 25  2  0  0  0
 16 17  1  0  0  0
 17 18  2  0  0  0
  9 10  1  0  0  0
  7 26  1  0  0  0
 26 27  1  0  0  0
 27 28  1  0  0  0
 28 29  1  0  0  0
 29 30  1  0  0  0
 30 31  1  0  0  0
 29 32  1  0  0  0
 32 34  1  0  0  0
 34 35  1  0  0  0
 35 36  1  0  0  0
 36 37  1  0  0  0
 37 38  1  0  0  0
 37 39  1  0  0  0
 39 40  1  0  0  0
 10  2  1  0  0  0
 31 26  1  0  0  0
 40 34  1  0  0  0
 10  6  2  0  0  0
 18 13  1  0  0  0
 25 20  1  0  0  0
  1 11  1  0  0  0
  1 12  1  0  0  0
 32 33  1  0  0  0
 38 41  1  0  0  0
M  END
> <minimizedAffinity>
-9.42380

> <CNNscore>
0.5570760965

> <CNNaffinity>
7.2994184494

> <CNN_VS>
4.0663313866

> <CNNaffinity_variance>
0.3108628392

$$$$
[H]O[C@]1([H])C([H])([H])C([H])([H])[C@@]([H])(N([H])[C@]2([H])C([H])([H])C([H])([H])[C@@]([H])(n3c([H])c(-c4c([H])c([H])c(Oc5c([H])c([H])c([H])c([H])c5[H])c([H])c4[H])c4c(N([H])[H])nc([H])nc43)C([H])([H])C2([H])[H])C([H])([H])C1([H])[H]


 41 46  0  0  0  0  0  0  0  0999 V2000
  -18.1438    9.2485  -17.2258 N   0  0  0  0  0  0  0  0  0  0  0  0
  -18.0734   10.3044  -18.1810 C   0  0  0  0  0  0  0  0  0  0  0  0
  -17.1609   10.1822  -19.2004 N   0  0  0  0  0  0  0  0  0  0  0  0
  -17.0879   11.1148  -20.1380 C   0  0  0  0  0  0  0  0  0  0  0  0
  -17.9018   12.1664  -20.0820 N   0  0  0  0  0  0  0  0  0  0  0  0
  -18.8083   12.3278  -19.1021 C   0  0  0  0  0  0  0  0  0  0  0  0
  -19.7284   13.2658  -18.8110 N   0  0  0  0  0  0  0  0  0  0  0  0
  -20.3899   12.9400  -17.6771 C   0  0  0  0  0  0  0  0  0  0  0  0
  -19.9147   11.7753  -17.2055 C   0  0  0  0  0  0  0  0  0  0  0  0
  -18.9051   11.3684  -18.1110 C   0  0  0  0  0  0  0  0  0  0  0  0
  -18.8936    8.5169  -17.4147 H   0  0  0  0  0  0  0  0  0  0  0  0
  -17.5253    9.1340  -16.4132 H   0  0  0  0  0  0  0  0  0  0  0  0
  -20.1846   10.9596  -16.0111 C   0  0  0  0  0  0  0  0  0  0  0  0
  -20.8795    9.7937  -15.9954 C   0  0  0  0  0  0  0  0  0  0  0  0
  -20.9258    9.0164  -14.8504 C   0  0  0  0  0  0  0  0  0  0  0  0
  -20.2902    9.3614  -13.6755 C   0  0  0  0  0  0  0  0  0  0  0  0
  -19.5826   10.5926  -13.7224 C   0  0  0  0  0  0  0  0  0  0  0  0
  -19.5257   11.3631  -14.8330 C   0  0  0  0  0  0  0  0  0  0  0  0
  -20.2407    8.7165  -12.5569 O   0  0  0  0  0  0  0  0  0  0  0  0
  -20.1923    8.0912  -11.4695 C   0  0  0  0  0  0  0  0  0  0  0  0
  -19.2973    8.5301  -10.4673 C   0  0  0  0  0  0  0  0  0  0  0  0
  -19.1720    7.9034   -9.2639 C   0  0  0  0  0  0  0  0  0  0  0  0
  -19.9435    6.8023   -9.0170 C   0  0  0  0  0  0  0  0  0  0  0  0
  -20.8375    6.3229   -9.9484 C   0  0  0  0  0  0  0  0  0  0  0  0
  -20.9424    6.9736  -11.1446 C   0  0  0  0  0  0  0  0  0  0  0  0
  -19.9768   14.4421  -19.6092 C   0  0  0  0  0  0  0  0  0  0  0  0
  -21.3482   14.9870  -19.3995 C   0  0  0  0  0  0  0  0  0  0  0  0
  -21.5239   16.1469  -20.4264 C   0  0  0  0  0  0  0  0  0  0  0  0
  -20.5574   17.2361  -19.9352 C   0  0  0  0  0  0  0  0  0  0  0  0
  -19.1686   16.6788  -20.2645 C   0  0  0  0  0  0  0  0  0  0  0  0
  -18.9187   15.5149  -19.3317 C   0  0  0  0  0  0  0  0  0  0  0  0
  -20.7761   18.5164  -20.3829 N   0  0  0  0  0  0  0  0  0  0  0  0
  -21.6224   18.7230  -20.9438 H   0  0  0  0  0  0  0  0  0  0  0  0
  -19.9714   19.6322  -20.2949 C   0  0  0  0  0  0  0  0  0  0  0  0
  -20.1833   20.3893  -21.6431 C   0  0  0  0  0  0  0  0  0  0  0  0
  -18.9942   21.3121  -21.8213 C   0  0  0  0  0  0  0  0  0  0  0  0
  -19.0568   22.3711  -20.7362 C   0  0  0  0  0  0  0  0  0  0  0  0
  -17.8363   23.0582  -20.7701 O   0  0  0  0  0  0  0  0  0  0  0  0
  -19.2210   21.7821  -19.3760 C   0  0  0  0  0  0  0  0  0  0  0  0
  -20.2659   20.6910  -19.2799 C   0  0  0  0  0  0  0  0  0  0  0  0
  -17.4789   23.1524  -21.6666 H   0  0  0  0  0  0  0  0  0  0  0  0
  1  2  1  0  0  0
  2  3  2  0  0  0
  3  4  1  0  0  0
  4  5  2  0  0  0
  5  6  1  0  0  0
  6  7  1  0  0  0
  7  8  1  0  0  0
  8  9  2  0  0  0
  9 13  1  0  0  0
 13 14  2  0  0  0
 14 15  1  0  0  0
 15 16  2  0  0  0
 16 19  1  0  0  0
 19 20  1  0  0  0
 20 21  2  0  0  0
 21 22  1  0  0  0
 22 23  2  0  0  0
 23 24  1  0  0  0
 24 25  2  0  0  0
 16 17  1  0  0  0
 17 18  2  0  0  0
  9 10  1  0  0  0
  7 26  1  0  0  0
 26 27  1  0  0  0
 27 28  1  0  0  0
 28 29  1  0  0  0
 29 30  1  0  0  0
 30 31  1  0  0  0
 29 32  1  0  0  0
 32 34  1  0  0  0
 34 35  1  0  0  0
 35 36  1  0  0  0
 36 37  1  0  0  0
 37 38  1  0  0  0
 37 39  1  0  0  0
 39 40  1  0  0  0
 10  2  1  0  0  0
 31 26  1  0  0  0
 40 34  1  0  0  0
 10  6  2  0  0  0
 18 13  1  0  0  0
 25 20  1  0  0  0
  1 11  1  0  0  0
  1 12  1  0  0  0
 32 33  1  0  0  0
 38 41  1  0  0  0
M  END
> <minimizedAffinity>
-7.84407

> <CNNscore>
0.5008649826

> <CNNaffinity>
6.9263663292

> <CNN_VS>
3.4691743851

> <CNNaffinity_variance>
0.2161290348

$$$$
[H]O[C@]1([H])C([H])([H])C([H])([H])[C@@]([H])(N([H])[C@]2([H])C([H])([H])C([H])([H])[C@@]([H])(n3c([H])c(-c4c([H])c([H])c(Oc5c([H])c([H])c([H])c([H])c5[H])c([H])c4[H])c4c(N([H])[H])nc([H])nc43)C([H])([H])C2([H])[H])C([H])([H])C1([H])[H]


 41 46  0  0  0  0  0  0  0  0999 V2000
  -18.2460    9.1281  -17.1689 N   0  0  0  0  0  0  0  0  0  0  0  0
  -18.1302   10.1992  -18.1025 C   0  0  0  0  0  0  0  0  0  0  0  0
  -17.2196   10.0611  -19.1216 N   0  0  0  0  0  0  0  0  0  0  0  0
  -17.1063   11.0087  -20.0400 C   0  0  0  0  0  0  0  0  0  0  0  0
  -17.8779   12.0905  -19.9652 N   0  0  0  0  0  0  0  0  0  0  0  0
  -18.7808   12.2683  -18.9848 C   0  0  0  0  0  0  0  0  0  0  0  0
  -19.6640   13.2361  -18.6774 N   0  0  0  0  0  0  0  0  0  0  0  0
  -20.3420   12.9143  -17.5522 C   0  0  0  0  0  0  0  0  0  0  0  0
  -19.9151   11.7224  -17.1027 C   0  0  0  0  0  0  0  0  0  0  0  0
  -18.9193   11.2938  -18.0134 C   0  0  0  0  0  0  0  0  0  0  0  0
  -19.0236    8.4308  -17.3745 H   0  0  0  0  0  0  0  0  0  0  0  0
  -17.6355    8.9728  -16.3570 H   0  0  0  0  0  0  0  0  0  0  0  0
  -20.2215   10.8944  -15.9257 C   0  0  0  0  0  0  0  0  0  0  0  0
  -21.0160    9.7938  -15.9235 C   0  0  0  0  0  0  0  0  0  0  0  0
  -21.0977    8.9862  -14.8017 C   0  0  0  0  0  0  0  0  0  0  0  0
  -20.4006    9.2352  -13.6376 C   0  0  0  0  0  0  0  0  0  0  0  0
  -19.5886   10.4008  -13.6694 C   0  0  0  0  0  0  0  0  0  0  0  0
  -19.4959   11.1996  -14.7574 C   0  0  0  0  0  0  0  0  0  0  0  0
  -20.3761    8.5519  -12.5413 O   0  0  0  0  0  0  0  0  0  0  0  0
  -20.3536    7.8881  -11.4761 C   0  0  0  0  0  0  0  0  0  0  0  0
  -21.1691    6.7383  -11.3693 C   0  0  0  0  0  0  0  0  0  0  0  0
  -21.2151    5.9680  -10.2463 C   0  0  0  0  0  0  0  0  0  0  0  0
  -20.4411    6.3240   -9.1773 C   0  0  0  0  0  0  0  0  0  0  0  0
  -19.6220    7.4305   -9.2151 C   0  0  0  0  0  0  0  0  0  0  0  0
  -19.5956    8.1818  -10.3553 C   0  0  0  0  0  0  0  0  0  0  0  0
  -19.8626   14.4370  -19.4525 C   0  0  0  0  0  0  0  0  0  0  0  0
  -21.2715   14.9199  -19.3939 C   0  0  0  0  0  0  0  0  0  0  0  0
  -21.3692   16.1176  -20.3873 C   0  0  0  0  0  0  0  0  0  0  0  0
  -20.5182   17.2191  -19.7360 C   0  0  0  0  0  0  0  0  0  0  0  0
  -19.0767   16.7299  -19.9115 C   0  0  0  0  0  0  0  0  0  0  0  0
  -18.8937   15.5353  -19.0023 C   0  0  0  0  0  0  0  0  0  0  0  0
  -20.7349   18.5092  -20.1558 N   0  0  0  0  0  0  0  0  0  0  0  0
  -21.4816   19.0720  -19.7095 H   0  0  0  0  0  0  0  0  0  0  0  0
  -20.1626   19.2065  -21.1980 C   0  0  0  0  0  0  0  0  0  0  0  0
  -21.2216   19.1605  -22.3435 C   0  0  0  0  0  0  0  0  0  0  0  0
  -20.4848   19.4501  -23.6360 C   0  0  0  0  0  0  0  0  0  0  0  0
  -19.9929   20.8848  -23.5829 C   0  0  0  0  0  0  0  0  0  0  0  0
  -19.1197   21.0537  -24.6654 O   0  0  0  0  0  0  0  0  0  0  0  0
  -19.2421   21.1821  -22.3292 C   0  0  0  0  0  0  0  0  0  0  0  0
  -19.8964   20.6725  -21.0628 C   0  0  0  0  0  0  0  0  0  0  0  0
  -19.3863   20.5500  -25.4499 H   0  0  0  0  0  0  0  0  0  0  0  0
  1  2  1  0  0  0
  2  3  2  0  0  0
  3  4  1  0  0  0
  4  5  2  0  0  0
  5  6  1  0  0  0
  6  7  1  0  0  0
  7  8  1  0  0  0
  8  9  2  0  0  0
  9 13  1  0  0  0
 13 14  2  0  0  0
 14 15  1  0  0  0
 15 16  2  0  0  0
 16 19  1  0  0  0
 19 20  1  0  0  0
 20 21  2  0  0  0
 21 22  1  0  0  0
 22 23  2  0  0  0
 23 24  1  0  0  0
 24 25  2  0  0  0
 16 17  1  0  0  0
 17 18  2  0  0  0
  9 10  1  0  0  0
  7 26  1  0  0  0
 26 27  1  0  0  0
 27 28  1  0  0  0
 28 29  1  0  0  0
 29 30  1  0  0  0
 30 31  1  0  0  0
 29 32  1  0  0  0
 32 34  1  0  0  0
 34 35  1  0  0  0
 35 36  1  0  0  0
 36 37  1  0  0  0
 37 38  1  0  0  0
 37 39  1  0  0  0
 39 40  1  0  0  0
 10  2  1  0  0  0
 31 26  1  0  0  0
 40 34  1  0  0  0
 10  6  2  0  0  0
 18 13  1  0  0  0
 25 20  1  0  0  0
  1 11  1  0  0  0
  1 12  1  0  0  0
 32 33  1  0  0  0
 38 41  1  0  0  0
M  END
> <minimizedAffinity>
-7.57623

> <CNNscore>
0.4987986088

> <CNNaffinity>
6.9140295982

> <CNN_VS>
3.4487082958

> <CNNaffinity_variance>
0.2176506966

$$$$
[H]O[C@]1([H])C([H])([H])C([H])([H])[C@@]([H])(N([H])[C@]2([H])C([H])([H])C([H])([H])[C@@]([H])(n3c([H])c(-c4c([H])c([H])c(Oc5c([H])c([H])c([H])c([H])c5[H])c([H])c4[H])c4c(N([H])[H])nc([H])nc43)C([H])([H])C2([H])[H])C([H])([H])C1([H])[H]


 41 46  0  0  0  0  0  0  0  0999 V2000
  -18.2942    8.8294  -17.2483 N   0  0  0  0  0  0  0  0  0  0  0  0
  -18.1491   10.0139  -18.0282 C   0  0  0  0  0  0  0  0  0  0  0  0
  -17.2178   10.0025  -19.0378 N   0  0  0  0  0  0  0  0  0  0  0  0
  -17.0766   11.0626  -19.8192 C   0  0  0  0  0  0  0  0  0  0  0  0
  -17.8406   12.1334  -19.6165 N   0  0  0  0  0  0  0  0  0  0  0  0
  -18.7629   12.1892  -18.6397 C   0  0  0  0  0  0  0  0  0  0  0  0
  -19.6444   13.1174  -18.2242 N   0  0  0  0  0  0  0  0  0  0  0  0
  -20.3494   12.6563  -17.1659 C   0  0  0  0  0  0  0  0  0  0  0  0
  -19.9424   11.4105  -16.8708 C   0  0  0  0  0  0  0  0  0  0  0  0
  -18.9307   11.0957  -17.8100 C   0  0  0  0  0  0  0  0  0  0  0  0
  -19.0729    8.1745  -17.5609 H   0  0  0  0  0  0  0  0  0  0  0  0
  -17.7027    8.5606  -16.4521 H   0  0  0  0  0  0  0  0  0  0  0  0
  -20.2812   10.4366  -15.8212 C   0  0  0  0  0  0  0  0  0  0  0  0
  -19.6740   10.3413  -14.6110 C   0  0  0  0  0  0  0  0  0  0  0  0
  -20.1846    9.5078  -13.6302 C   0  0  0  0  0  0  0  0  0  0  0  0
  -21.3127    8.7336  -13.8072 C   0  0  0  0  0  0  0  0  0  0  0  0
  -21.9163    8.8477  -15.0885 C   0  0  0  0  0  0  0  0  0  0  0  0
  -21.4317    9.6584  -16.0570 C   0  0  0  0  0  0  0  0  0  0  0  0
  -21.8950    7.9400  -12.9702 O   0  0  0  0  0  0  0  0  0  0  0  0
  -22.4615    7.1701  -12.1565 C   0  0  0  0  0  0  0  0  0  0  0  0
  -23.8505    7.3109  -11.9350 C   0  0  0  0  0  0  0  0  0  0  0  0
  -24.5418    6.5264  -11.0613 C   0  0  0  0  0  0  0  0  0  0  0  0
  -23.8619    5.5640  -10.3683 C   0  0  0  0  0  0  0  0  0  0  0  0
  -22.5089    5.3715  -10.5379 C   0  0  0  0  0  0  0  0  0  0  0  0
  -21.8437    6.1718  -11.4224 C   0  0  0  0  0  0  0  0  0  0  0  0
  -19.8160   14.4130  -18.8361 C   0  0  0  0  0  0  0  0  0  0  0  0
  -19.7620   14.3459  -20.3241 C   0  0  0  0  0  0  0  0  0  0  0  0
  -19.8066   15.8185  -20.8341 C   0  0  0  0  0  0  0  0  0  0  0  0
  -21.2246   16.2968  -20.4845 C   0  0  0  0  0  0  0  0  0  0  0  0
  -21.2014   16.4504  -18.9601 C   0  0  0  0  0  0  0  0  0  0  0  0
  -21.1241   15.0603  -18.3695 C   0  0  0  0  0  0  0  0  0  0  0  0
  -21.6994   17.3957  -21.1586 N   0  0  0  0  0  0  0  0  0  0  0  0
  -21.3947   17.5666  -22.1340 H   0  0  0  0  0  0  0  0  0  0  0  0
  -22.4880   18.4337  -20.7105 C   0  0  0  0  0  0  0  0  0  0  0  0
  -22.2112   19.6070  -21.7016 C   0  0  0  0  0  0  0  0  0  0  0  0
  -22.6320   20.8836  -21.0011 C   0  0  0  0  0  0  0  0  0  0  0  0
  -24.1378   20.8420  -20.8172 C   0  0  0  0  0  0  0  0  0  0  0  0
  -24.4710   21.9027  -19.9647 O   0  0  0  0  0  0  0  0  0  0  0  0
  -24.5980   19.5733  -20.1827 C   0  0  0  0  0  0  0  0  0  0  0  0
  -23.9788   18.3168  -20.7564 C   0  0  0  0  0  0  0  0  0  0  0  0
  -23.9142   22.6853  -20.0976 H   0  0  0  0  0  0  0  0  0  0  0  0
  1  2  1  0  0  0
  2  3  2  0  0  0
  3  4  1  0  0  0
  4  5  2  0  0  0
  5  6  1  0  0  0
  6  7  1  0  0  0
  7  8  1  0  0  0
  8  9  2  0  0  0
  9 13  1  0  0  0
 13 14  2  0  0  0
 14 15  1  0  0  0
 15 16  2  0  0  0
 16 19  1  0  0  0
 19 20  1  0  0  0
 20 21  2  0  0  0
 21 22  1  0  0  0
 22 23  2  0  0  0
 23 24  1  0  0  0
 24 25  2  0  0  0
 16 17  1  0  0  0
 17 18  2  0  0  0
  9 10  1  0  0  0
  7 26  1  0  0  0
 26 27  1  0  0  0
 27 28  1  0  0  0
 28 29  1  0  0  0
 29 30  1  0  0  0
 30 31  1  0  0  0
 29 32  1  0  0  0
 32 34  1  0  0  0
 34 35  1  0  0  0
 35 36  1  0  0  0
 36 37  1  0  0  0
 37 38  1  0  0  0
 37 39  1  0  0  0
 39 40  1  0  0  0
 10  2  1  0  0  0
 31 26  1  0  0  0
 40 34  1  0  0  0
 10  6  2  0  0  0
 18 13  1  0  0  0
 25 20  1  0  0  0
  1 11  1  0  0  0
  1 12  1  0  0  0
 32 33  1  0  0  0
 38 41  1  0  0  0
M  END
> <minimizedAffinity>
-6.85620

> <CNNscore>
0.4888142645

> <CNNaffinity>
6.7409830093

> <CNN_VS>
3.2950887680

> <CNNaffinity_variance>
0.3721333742

$$$$
[H]O[C@]1([H])C([H])([H])C([H])([H])[C@@]([H])(N([H])[C@]2([H])C([H])([H])C([H])([H])[C@@]([H])(n3c([H])c(-c4c([H])c([H])c(Oc5c([H])c([H])c([H])c([H])c5[H])c([H])c4[H])c4c(N([H])[H])nc([H])nc43)C([H])([H])C2([H])[H])C([H])([H])C1([H])[H]


 41 46  0  0  0  0  0  0  0  0999 V2000
  -18.2367    8.6657  -17.2772 N   0  0  0  0  0  0  0  0  0  0  0  0
  -18.2703    9.9622  -17.8691 C   0  0  0  0  0  0  0  0  0  0  0  0
  -17.4445   10.1950  -18.9417 N   0  0  0  0  0  0  0  0  0  0  0  0
  -17.4713   11.3690  -19.5544 C   0  0  0  0  0  0  0  0  0  0  0  0
  -18.3006   12.3159  -19.1219 N   0  0  0  0  0  0  0  0  0  0  0  0
  -19.1246   12.1326  -18.0753 C   0  0  0  0  0  0  0  0  0  0  0  0
  -20.0374   12.8955  -17.4461 N   0  0  0  0  0  0  0  0  0  0  0  0
  -20.5937   12.2132  -16.4193 C   0  0  0  0  0  0  0  0  0  0  0  0
  -20.0548   10.9840  -16.3600 C   0  0  0  0  0  0  0  0  0  0  0  0
  -19.1164   10.9159  -17.4181 C   0  0  0  0  0  0  0  0  0  0  0  0
  -18.9834    7.9908  -17.6236 H   0  0  0  0  0  0  0  0  0  0  0  0
  -17.5495    8.3408  -16.5857 H   0  0  0  0  0  0  0  0  0  0  0  0
  -20.2050    9.8349  -15.4533 C   0  0  0  0  0  0  0  0  0  0  0  0
  -20.9723    8.7407  -15.6907 C   0  0  0  0  0  0  0  0  0  0  0  0
  -20.9063    7.6390  -14.8544 C   0  0  0  0  0  0  0  0  0  0  0  0
  -20.0825    7.5760  -13.7495 C   0  0  0  0  0  0  0  0  0  0  0  0
  -19.3026    8.7420  -13.5230 C   0  0  0  0  0  0  0  0  0  0  0  0
  -19.3535    9.8258  -14.3310 C   0  0  0  0  0  0  0  0  0  0  0  0
  -19.9164    6.6062  -12.9121 O   0  0  0  0  0  0  0  0  0  0  0  0
  -19.7535    5.6641  -12.0987 C   0  0  0  0  0  0  0  0  0  0  0  0
  -19.3995    4.3876  -12.5922 C   0  0  0  0  0  0  0  0  0  0  0  0
  -19.2152    3.3081  -11.7816 C   0  0  0  0  0  0  0  0  0  0  0  0
  -19.3821    3.4664  -10.4342 C   0  0  0  0  0  0  0  0  0  0  0  0
  -19.7242    4.6829   -9.8866 C   0  0  0  0  0  0  0  0  0  0  0  0
  -19.8999    5.7472  -10.7243 C   0  0  0  0  0  0  0  0  0  0  0  0
  -20.3781   14.2446  -17.8287 C   0  0  0  0  0  0  0  0  0  0  0  0
  -21.6664   14.6932  -17.2282 C   0  0  0  0  0  0  0  0  0  0  0  0
  -21.9775   16.0911  -17.8445 C   0  0  0  0  0  0  0  0  0  0  0  0
  -20.8956   17.0117  -17.2583 C   0  0  0  0  0  0  0  0  0  0  0  0
  -19.6120   16.5847  -17.9782 C   0  0  0  0  0  0  0  0  0  0  0  0
  -19.2452   15.2101  -17.4655 C   0  0  0  0  0  0  0  0  0  0  0  0
  -21.1398   18.3633  -17.2870 N   0  0  0  0  0  0  0  0  0  0  0  0
  -21.1497   18.8606  -18.1959 H   0  0  0  0  0  0  0  0  0  0  0  0
  -21.2914   19.2555  -16.2472 C   0  0  0  0  0  0  0  0  0  0  0  0
  -20.1749   18.8765  -15.2248 C   0  0  0  0  0  0  0  0  0  0  0  0
  -20.5885   19.4554  -13.8865 C   0  0  0  0  0  0  0  0  0  0  0  0
  -20.5516   20.9683  -13.9995 C   0  0  0  0  0  0  0  0  0  0  0  0
  -21.1615   21.4755  -12.8447 O   0  0  0  0  0  0  0  0  0  0  0  0
  -21.3087   21.4684  -15.1830 C   0  0  0  0  0  0  0  0  0  0  0  0
  -21.0449   20.7144  -16.4689 C   0  0  0  0  0  0  0  0  0  0  0  0
  -20.9871   20.9383  -12.0565 H   0  0  0  0  0  0  0  0  0  0  0  0
  1  2  1  0  0  0
  2  3  2  0  0  0
  3  4  1  0  0  0
  4  5  2  0  0  0
  5  6  1  0  0  0
  6  7  1  0  0  0
  7  8  1  0  0  0
  8  9  2  0  0  0
  9 13  1  0  0  0
 13 14  2  0  0  0
 14 15  1  0  0  0
 15 16  2  0  0  0
 16 19  1  0  0  0
 19 20  1  0  0  0
 20 21  2  0  0  0
 21 22  1  0  0  0
 22 23  2  0  0  0
 23 24  1  0  0  0
 24 25  2  0  0  0
 16 17  1  0  0  0
 17 18  2  0  0  0
  9 10  1  0  0  0
  7 26  1  0  0  0
 26 27  1  0  0  0
 27 28  1  0  0  0
 28 29  1  0  0  0
 29 30  1  0  0  0
 30 31  1  0  0  0
 29 32  1  0  0  0
 32 34  1  0  0  0
 34 35  1  0  0  0
 35 36  1  0  0  0
 36 37  1  0  0  0
 37 38  1  0  0  0
 37 39  1  0  0  0
 39 40  1  0  0  0
 10  2  1  0  0  0
 31 26  1  0  0  0
 40 34  1  0  0  0
 10  6  2  0  0  0
 18 13  1  0  0  0
 25 20  1  0  0  0
  1 11  1  0  0  0
  1 12  1  0  0  0
 32 33  1  0  0  0
 38 41  1  0  0  0
M  END
> <minimizedAffinity>
-6.88893

> <CNNscore>
0.4596578777

> <CNNaffinity>
6.7150573730

> <CNN_VS>
3.0866289139

> <CNNaffinity_variance>
0.1815206110

$$$$
[H]O[C@]1([H])C([H])([H])C([H])([H])[C@@]([H])(N([H])[C@]2([H])C([H])([H])C([H])([H])[C@@]([H])(n3c([H])c(-c4c([H])c([H])c(Oc5c([H])c([H])c([H])c([H])c5[H])c([H])c4[H])c4c(N([H])[H])nc([H])nc43)C([H])([H])C2([H])[H])C([H])([H])C1([H])[H]


 41 46  0  0  0  0  0  0  0  0999 V2000
  -18.1250    8.8106  -17.2235 N   0  0  0  0  0  0  0  0  0  0  0  0
  -18.1868   10.0446  -17.9345 C   0  0  0  0  0  0  0  0  0  0  0  0
  -17.3360   10.2099  -19.0000 N   0  0  0  0  0  0  0  0  0  0  0  0
  -17.3860   11.3203  -19.7202 C   0  0  0  0  0  0  0  0  0  0  0  0
  -18.2628   12.2698  -19.4019 N   0  0  0  0  0  0  0  0  0  0  0  0
  -19.1128   12.1514  -18.3668 C   0  0  0  0  0  0  0  0  0  0  0  0
  -20.0726   12.9326  -17.8379 N   0  0  0  0  0  0  0  0  0  0  0  0
  -20.6363   12.3265  -16.7682 C   0  0  0  0  0  0  0  0  0  0  0  0
  -20.0551   11.1301  -16.5791 C   0  0  0  0  0  0  0  0  0  0  0  0
  -19.0813   11.0017  -17.5989 C   0  0  0  0  0  0  0  0  0  0  0  0
  -18.8350    8.0777  -17.5266 H   0  0  0  0  0  0  0  0  0  0  0  0
  -17.4490    8.5781  -16.4852 H   0  0  0  0  0  0  0  0  0  0  0  0
  -20.1923   10.0646  -15.5738 C   0  0  0  0  0  0  0  0  0  0  0  0
  -20.8543    8.8934  -15.7543 C   0  0  0  0  0  0  0  0  0  0  0  0
  -20.7744    7.8858  -14.8077 C   0  0  0  0  0  0  0  0  0  0  0  0
  -20.0405    7.9965  -13.6449 C   0  0  0  0  0  0  0  0  0  0  0  0
  -19.3704    9.2388  -13.4815 C   0  0  0  0  0  0  0  0  0  0  0  0
  -19.4363   10.2327  -14.3970 C   0  0  0  0  0  0  0  0  0  0  0  0
  -19.8710    7.1281  -12.7033 O   0  0  0  0  0  0  0  0  0  0  0  0
  -19.7062    6.2855  -11.7876 C   0  0  0  0  0  0  0  0  0  0  0  0
  -19.4735    6.7432  -10.4705 C   0  0  0  0  0  0  0  0  0  0  0  0
  -19.2725    5.8985   -9.4204 C   0  0  0  0  0  0  0  0  0  0  0  0
  -19.2948    4.5514   -9.6516 C   0  0  0  0  0  0  0  0  0  0  0  0
  -19.5187    4.0380  -10.9097 C   0  0  0  0  0  0  0  0  0  0  0  0
  -19.7191    4.9095  -11.9420 C   0  0  0  0  0  0  0  0  0  0  0  0
  -20.4499   14.2262  -18.3544 C   0  0  0  0  0  0  0  0  0  0  0  0
  -19.3036   15.1785  -18.3830 C   0  0  0  0  0  0  0  0  0  0  0  0
  -19.8875   16.5590  -18.8122 C   0  0  0  0  0  0  0  0  0  0  0  0
  -20.3028   16.3546  -20.2776 C   0  0  0  0  0  0  0  0  0  0  0  0
  -21.5417   15.4569  -20.1926 C   0  0  0  0  0  0  0  0  0  0  0  0
  -21.0759   14.0891  -19.7462 C   0  0  0  0  0  0  0  0  0  0  0  0
  -20.4702   17.4819  -21.0447 N   0  0  0  0  0  0  0  0  0  0  0  0
  -19.9026   18.3249  -20.8431 H   0  0  0  0  0  0  0  0  0  0  0  0
  -21.3853   17.7435  -22.0419 C   0  0  0  0  0  0  0  0  0  0  0  0
  -22.4325   18.6980  -21.3876 C   0  0  0  0  0  0  0  0  0  0  0  0
  -23.6886   18.6186  -22.2321 C   0  0  0  0  0  0  0  0  0  0  0  0
  -23.3765   19.2147  -23.5923 C   0  0  0  0  0  0  0  0  0  0  0  0
  -24.4630   18.9152  -24.4245 O   0  0  0  0  0  0  0  0  0  0  0  0
  -22.1485   18.6278  -24.2018 C   0  0  0  0  0  0  0  0  0  0  0  0
  -20.9696   18.5062  -23.2600 C   0  0  0  0  0  0  0  0  0  0  0  0
  -25.3126   18.9244  -23.9572 H   0  0  0  0  0  0  0  0  0  0  0  0
  1  2  1  0  0  0
  2  3  2  0  0  0
  3  4  1  0  0  0
  4  5  2  0  0  0
  5  6  1  0  0  0
  6  7  1  0  0  0
  7  8  1  0  0  0
  8  9  2  0  0  0
  9 13  1  0  0  0
 13 14  2  0  0  0
 14 15  1  0  0  0
 15 16  2  0  0  0
 16 19  1  0  0  0
 19 20  1  0  0  0
 20 21  2  0  0  0
 21 22  1  0  0  0
 22 23  2  0  0  0
 23 24  1  0  0  0
 24 25  2  0  0  0
 16 17  1  0  0  0
 17 18  2  0  0  0
  9 10  1  0  0  0
  7 26  1  0  0  0
 26 27  1  0  0  0
 27 28  1  0  0  0
 28 29  1  0  0  0
 29 30  1  0  0  0
 30 31  1  0  0  0
 29 32  1  0  0  0
 32 34  1  0  0  0
 34 35  1  0  0  0
 35 36  1  0  0  0
 36 37  1  0  0  0
 37 38  1  0  0  0
 37 39  1  0  0  0
 39 40  1  0  0  0
 10  2  1  0  0  0
 31 26  1  0  0  0
 40 34  1  0  0  0
 10  6  2  0  0  0
 18 13  1  0  0  0
 25 20  1  0  0  0
  1 11  1  0  0  0
  1 12  1  0  0  0
 32 33  1  0  0  0
 38 41  1  0  0  0
M  END
> <minimizedAffinity>
-7.96890

> <CNNscore>
0.4303385913

> <CNNaffinity>
6.7048897743

> <CNN_VS>
2.8853728771

> <CNNaffinity_variance>
0.1903097183

$$$$
[H]O[C@]1([H])C([H])([H])C([H])([H])[C@@]([H])(N([H])[C@]2([H])C([H])([H])C([H])([H])[C@@]([H])(n3c([H])c(-c4c([H])c([H])c(Oc5c([H])c([H])c([H])c([H])c5[H])c([H])c4[H])c4c(N([H])[H])nc([H])nc43)C([H])([H])C2([H])[H])C([H])([H])C1([H])[H]


 41 46  0  0  0  0  0  0  0  0999 V2000
  -17.3207   13.3961  -20.9170 N   0  0  0  0  0  0  0  0  0  0  0  0
  -17.5267   12.2162  -20.1439 C   0  0  0  0  0  0  0  0  0  0  0  0
  -16.7790   11.1082  -20.4599 N   0  0  0  0  0  0  0  0  0  0  0  0
  -16.9011   10.0014  -19.7428 C   0  0  0  0  0  0  0  0  0  0  0  0
  -17.7519    9.9731  -18.7196 N   0  0  0  0  0  0  0  0  0  0  0  0
  -18.5048   11.0329  -18.3758 C   0  0  0  0  0  0  0  0  0  0  0  0
  -19.4181   11.2720  -17.4168 N   0  0  0  0  0  0  0  0  0  0  0  0
  -19.8920   12.5344  -17.5225 C   0  0  0  0  0  0  0  0  0  0  0  0
  -19.2915   13.1484  -18.5557 C   0  0  0  0  0  0  0  0  0  0  0  0
  -18.3961   12.2009  -19.1082 C   0  0  0  0  0  0  0  0  0  0  0  0
  -16.6401   14.0988  -20.4975 H   0  0  0  0  0  0  0  0  0  0  0  0
  -17.7465   13.5950  -21.8309 H   0  0  0  0  0  0  0  0  0  0  0  0
  -19.4240   14.4704  -19.1878 C   0  0  0  0  0  0  0  0  0  0  0  0
  -20.3369   14.8008  -20.1364 C   0  0  0  0  0  0  0  0  0  0  0  0
  -20.4914   16.1171  -20.5373 C   0  0  0  0  0  0  0  0  0  0  0  0
  -19.7486   17.1580  -20.0196 C   0  0  0  0  0  0  0  0  0  0  0  0
  -18.7944   16.7762  -19.0385 C   0  0  0  0  0  0  0  0  0  0  0  0
  -18.6318   15.4955  -18.6341 C   0  0  0  0  0  0  0  0  0  0  0  0
  -19.8132   18.4192  -20.2931 O   0  0  0  0  0  0  0  0  0  0  0  0
  -19.8769   19.6441  -20.5598 C   0  0  0  0  0  0  0  0  0  0  0  0
  -21.0055   20.3798  -20.1315 C   0  0  0  0  0  0  0  0  0  0  0  0
  -21.1610   21.7088  -20.3884 C   0  0  0  0  0  0  0  0  0  0  0  0
  -20.1847   22.3571  -21.0922 C   0  0  0  0  0  0  0  0  0  0  0  0
  -19.0583   21.7013  -21.5370 C   0  0  0  0  0  0  0  0  0  0  0  0
  -18.9295   20.3697  -21.2622 C   0  0  0  0  0  0  0  0  0  0  0  0
  -19.8185   10.3155  -16.4132 C   0  0  0  0  0  0  0  0  0  0  0  0
  -18.8424    9.1972  -16.2781 C   0  0  0  0  0  0  0  0  0  0  0  0
  -19.4748    8.1773  -15.2827 C   0  0  0  0  0  0  0  0  0  0  0  0
  -19.4650    8.9113  -13.9326 C   0  0  0  0  0  0  0  0  0  0  0  0
  -20.5517    9.9813  -14.0816 C   0  0  0  0  0  0  0  0  0  0  0  0
  -20.0384   11.0093  -15.0649 C   0  0  0  0  0  0  0  0  0  0  0  0
  -19.5774    8.1418  -12.8000 N   0  0  0  0  0  0  0  0  0  0  0  0
  -20.2756    8.3960  -12.0780 H   0  0  0  0  0  0  0  0  0  0  0  0
  -18.8134    7.0748  -12.3781 C   0  0  0  0  0  0  0  0  0  0  0  0
  -18.2233    7.5203  -11.0036 C   0  0  0  0  0  0  0  0  0  0  0  0
  -17.0167    6.6424  -10.7374 C   0  0  0  0  0  0  0  0  0  0  0  0
  -17.5076    5.2204  -10.5371 C   0  0  0  0  0  0  0  0  0  0  0  0
  -16.3737    4.3975  -10.5335 O   0  0  0  0  0  0  0  0  0  0  0  0
  -18.4062    4.7691  -11.6383 C   0  0  0  0  0  0  0  0  0  0  0  0
  -19.4663    5.7713  -12.0422 C   0  0  0  0  0  0  0  0  0  0  0  0
  -15.6012    4.8180  -10.1255 H   0  0  0  0  0  0  0  0  0  0  0  0
  1  2  1  0  0  0
  2  3  2  0  0  0
  3  4  1  0  0  0
  4  5  2  0  0  0
  5  6  1  0  0  0
  6  7  1  0  0  0
  7  8  1  0  0  0
  8  9  2  0  0  0
  9 13  1  0  0  0
 13 14  2  0  0  0
 14 15  1  0  0  0
 15 16  2  0  0  0
 16 19  1  0  0  0
 19 20  1  0  0  0
 20 21  2  0  0  0
 21 22  1  0  0  0
 22 23  2  0  0  0
 23 24  1  0  0  0
 24 25  2  0  0  0
 16 17  1  0  0  0
 17 18  2  0  0  0
  9 10  1  0  0  0
  7 26  1  0  0  0
 26 27  1  0  0  0
 27 28  1  0  0  0
 28 29  1  0  0  0
 29 30  1  0  0  0
 30 31  1  0  0  0
 29 32  1  0  0  0
 32 34  1  0  0  0
 34 35  1  0  0  0
 35 36  1  0  0  0
 36 37  1  0  0  0
 37 38  1  0  0  0
 37 39  1  0  0  0
 39 40  1  0  0  0
 10  2  1  0  0  0
 31 26  1  0  0  0
 40 34  1  0  0  0
 10  6  2  0  0  0
 18 13  1  0  0  0
 25 20  1  0  0  0
  1 11  1  0  0  0
  1 12  1  0  0  0
 32 33  1  0  0  0
 38 41  1  0  0  0
M  END
> <minimizedAffinity>
-7.93580

> <CNNscore>
0.4183760583

> <CNNaffinity>
6.9153618813

> <CNN_VS>
2.8932218552

> <CNNaffinity_variance>
0.1884448528

$$$$
[H]c1nc2c(nc([H])c(=O)n2[H])c(Oc2c([H])c([H])c(N([H])C(=O)N([H])c3c([H])c(C(C([H])([H])[H])(C([H])([H])[H])C([H])([H])[H])nn3-c3c([H])c([H])c([H])c(C(F)(F)F)c3[H])c3c([H])c([H])c([H])c([H])c23)c1[H]


 48 53  0  0  0  0  0  0  0  0999 V2000
  -20.3263   11.4266  -15.5199 N   0  0  0  0  0  0  0  0  0  0  0  0
  -19.6034   10.8038  -16.5625 C   0  0  0  0  0  0  0  0  0  0  0  0
  -19.2954    9.5631  -16.4790 O   0  0  0  0  0  0  0  0  0  0  0  0
  -19.2218   11.5482  -17.6673 N   0  0  0  0  0  0  0  0  0  0  0  0
  -20.4928   12.4831  -15.7632 H   0  0  0  0  0  0  0  0  0  0  0  0
  -18.8754   10.3811  -18.2999 H   0  0  0  0  0  0  0  0  0  0  0  0
  -18.8340   12.2325  -18.7488 C   0  0  0  0  0  0  0  0  0  0  0  0
  -19.4808   13.3871  -19.2358 C   0  0  0  0  0  0  0  0  0  0  0  0
  -19.2159   13.9555  -20.4361 C   0  0  0  0  0  0  0  0  0  0  0  0
  -18.2299   13.3803  -21.2842 C   0  0  0  0  0  0  0  0  0  0  0  0
  -17.5801   12.2604  -20.8378 C   0  0  0  0  0  0  0  0  0  0  0  0
  -16.5886   11.6902  -21.6372 C   0  0  0  0  0  0  0  0  0  0  0  0
  -15.9063   10.5775  -21.1881 C   0  0  0  0  0  0  0  0  0  0  0  0
  -16.1880   10.0242  -19.9690 C   0  0  0  0  0  0  0  0  0  0  0  0
  -17.1703   10.5871  -19.1773 C   0  0  0  0  0  0  0  0  0  0  0  0
  -17.8558   11.7010  -19.6283 C   0  0  0  0  0  0  0  0  0  0  0  0
  -18.0402   14.0178  -22.4661 O   0  0  0  0  0  0  0  0  0  0  0  0
  -17.2987   14.9977  -22.9472 C   0  0  0  0  0  0  0  0  0  0  0  0
  -16.8748   16.0400  -22.1127 C   0  0  0  0  0  0  0  0  0  0  0  0
  -16.1095   17.0324  -22.6484 C   0  0  0  0  0  0  0  0  0  0  0  0
  -15.7453   17.0500  -23.9473 N   0  0  0  0  0  0  0  0  0  0  0  0
  -16.1402   16.0549  -24.7807 C   0  0  0  0  0  0  0  0  0  0  0  0
  -15.7567   16.1252  -26.0551 N   0  0  0  0  0  0  0  0  0  0  0  0
  -16.1297   15.1684  -26.9080 C   0  0  0  0  0  0  0  0  0  0  0  0
  -15.7864   15.1972  -28.1360 O   0  0  0  0  0  0  0  0  0  0  0  0
  -16.9013   14.1328  -26.4484 C   0  0  0  0  0  0  0  0  0  0  0  0
  -17.3013   14.0470  -25.1482 N   0  0  0  0  0  0  0  0  0  0  0  0
  -16.9103   15.0325  -24.2979 C   0  0  0  0  0  0  0  0  0  0  0  0
  -15.1728   16.8958  -26.4361 H   0  0  0  0  0  0  0  0  0  0  0  0
  -21.8407   11.3407  -12.2668 C   0  0  0  0  0  0  0  0  0  0  0  0
  -21.3721   11.9656  -13.3852 C   0  0  0  0  0  0  0  0  0  0  0  0
  -20.8499   10.9938  -14.3074 C   0  0  0  0  0  0  0  0  0  0  0  0
  -21.0400    9.8477  -13.6838 N   0  0  0  0  0  0  0  0  0  0  0  0
  -21.6344   10.0568  -12.4589 N   0  0  0  0  0  0  0  0  0  0  0  0
  -20.7750    8.4913  -14.0161 C   0  0  0  0  0  0  0  0  0  0  0  0
  -19.7671    7.8085  -13.3781 C   0  0  0  0  0  0  0  0  0  0  0  0
  -19.5629    6.4721  -13.6457 C   0  0  0  0  0  0  0  0  0  0  0  0
  -20.3924    5.8289  -14.5703 C   0  0  0  0  0  0  0  0  0  0  0  0
  -21.4083    6.4917  -15.2205 C   0  0  0  0  0  0  0  0  0  0  0  0
  -21.5877    7.8217  -14.9341 C   0  0  0  0  0  0  0  0  0  0  0  0
  -22.2490    5.7354  -16.1781 C   0  0  0  0  0  0  0  0  0  0  0  0
  -21.5652    5.4751  -17.3577 F   0  0  0  0  0  0  0  0  0  0  0  0
  -22.7279    4.5676  -15.6608 F   0  0  0  0  0  0  0  0  0  0  0  0
  -23.2826    6.6024  -16.5576 F   0  0  0  0  0  0  0  0  0  0  0  0
  -23.1187   13.2600  -11.5258 C   0  0  0  0  0  0  0  0  0  0  0  0
  -22.4555   12.0055  -11.0604 C   0  0  0  0  0  0  0  0  0  0  0  0
  -23.5381   11.0843  -10.5220 C   0  0  0  0  0  0  0  0  0  0  0  0
  -21.4075   12.2976  -10.0365 C   0  0  0  0  0  0  0  0  0  0  0  0
 45 46  1  0  0  0
 46 47  1  0  0  0
 46 48  1  0  0  0
 46 30  1  0  0  0
 30 31  1  0  0  0
 31 32  2  0  0  0
 32  1  1  0  0  0
  1  2  1  0  0  0
  2  3  2  0  0  0
  2  4  1  0  0  0
  4  7  1  0  0  0
  7  8  2  0  0  0
  8  9  1  0  0  0
  9 10  2  0  0  0
 10 17  1  0  0  0
 17 18  1  0  0  0
 18 19  2  0  0  0
 19 20  1  0  0  0
 20 21  2  0  0  0
 21 22  1  0  0  0
 22 23  1  0  0  0
 23 24  1  0  0  0
 24 25  2  0  0  0
 24 26  1  0  0  0
 26 27  2  0  0  0
 27 28  1  0  0  0
 10 11  1  0  0  0
 11 12  2  0  0  0
 12 13  1  0  0  0
 13 14  2  0  0  0
 14 15  1  0  0  0
 15 16  2  0  0  0
 32 33  1  0  0  0
 33 34  1  0  0  0
 33 35  1  0  0  0
 35 36  2  0  0  0
 36 37  1  0  0  0
 37 38  2  0  0  0
 38 39  1  0  0  0
 39 40  2  0  0  0
 39 41  1  0  0  0
 41 42  1  0  0  0
 41 43  1  0  0  0
 41 44  1  0  0  0
 34 30  2  0  0  0
 40 35  1  0  0  0
 16  7  1  0  0  0
 28 18  1  0  0  0
 16 11  1  0  0  0
 28 22  2  0  0  0
  1  5  1  0  0  0
  4  6  1  0  0  0
 23 29  1  0  0  0
M  END
> <minimizedAffinity>
-10.85436

> <CNNscore>
0.0905706584

> <CNNaffinity>
7.0549988747

> <CNN_VS>
0.6389759183

> <CNNaffinity_variance>
0.1353401244

$$$$
[H]c1nc2c(nc([H])c(=O)n2[H])c(Oc2c([H])c([H])c(N([H])C(=O)N([H])c3c([H])c(C(C([H])([H])[H])(C([H])([H])[H])C([H])([H])[H])nn3-c3c([H])c([H])c([H])c(C(F)(F)F)c3[H])c3c([H])c([H])c([H])c([H])c23)c1[H]


 48 53  0  0  0  0  0  0  0  0999 V2000
  -19.9258    9.3753  -16.0764 N   0  0  0  0  0  0  0  0  0  0  0  0
  -20.4398   10.6640  -16.3457 C   0  0  0  0  0  0  0  0  0  0  0  0
  -21.4101   11.1273  -15.6492 O   0  0  0  0  0  0  0  0  0  0  0  0
  -19.8939   11.4149  -17.3745 N   0  0  0  0  0  0  0  0  0  0  0  0
  -19.1078    9.1492  -16.7715 H   0  0  0  0  0  0  0  0  0  0  0  0
  -20.5923   12.5025  -16.9145 H   0  0  0  0  0  0  0  0  0  0  0  0
  -19.3955   12.1697  -18.3595 C   0  0  0  0  0  0  0  0  0  0  0  0
  -19.9554   13.3905  -18.7895 C   0  0  0  0  0  0  0  0  0  0  0  0
  -19.5748   14.0457  -19.9118 C   0  0  0  0  0  0  0  0  0  0  0  0
  -18.5494   13.4991  -20.7317 C   0  0  0  0  0  0  0  0  0  0  0  0
  -17.9820   12.3162  -20.3388 C   0  0  0  0  0  0  0  0  0  0  0  0
  -16.9547   11.7702  -21.1093 C   0  0  0  0  0  0  0  0  0  0  0  0
  -16.3548   10.5926  -20.7107 C   0  0  0  0  0  0  0  0  0  0  0  0
  -16.7530    9.9516  -19.5696 C   0  0  0  0  0  0  0  0  0  0  0  0
  -17.7708   10.4906  -18.8066 C   0  0  0  0  0  0  0  0  0  0  0  0
  -18.3737   11.6696  -19.2072 C   0  0  0  0  0  0  0  0  0  0  0  0
  -18.2424   14.2251  -21.8353 O   0  0  0  0  0  0  0  0  0  0  0  0
  -17.4823   15.2556  -22.1547 C   0  0  0  0  0  0  0  0  0  0  0  0
  -17.5510   16.4425  -21.4138 C   0  0  0  0  0  0  0  0  0  0  0  0
  -16.7486   17.4830  -21.7758 C   0  0  0  0  0  0  0  0  0  0  0  0
  -15.8932   17.4146  -22.8168 N   0  0  0  0  0  0  0  0  0  0  0  0
  -15.8039   16.2790  -23.5537 C   0  0  0  0  0  0  0  0  0  0  0  0
  -14.9468   16.2682  -24.5742 N   0  0  0  0  0  0  0  0  0  0  0  0
  -14.8339   15.1715  -25.3269 C   0  0  0  0  0  0  0  0  0  0  0  0
  -14.0275   15.1186  -26.3136 O   0  0  0  0  0  0  0  0  0  0  0  0
  -15.6065   14.0790  -25.0289 C   0  0  0  0  0  0  0  0  0  0  0  0
  -16.4873   14.0747  -23.9888 N   0  0  0  0  0  0  0  0  0  0  0  0
  -16.5859   15.2023  -23.2364 C   0  0  0  0  0  0  0  0  0  0  0  0
  -14.3474   17.0783  -24.8274 H   0  0  0  0  0  0  0  0  0  0  0  0
  -20.8891    6.2655  -14.5649 C   0  0  0  0  0  0  0  0  0  0  0  0
  -20.6504    7.0925  -15.6232 C   0  0  0  0  0  0  0  0  0  0  0  0
  -20.2268    8.3831  -15.1510 C   0  0  0  0  0  0  0  0  0  0  0  0
  -20.2370    8.2471  -13.8395 N   0  0  0  0  0  0  0  0  0  0  0  0
  -20.6350    6.9760  -13.4885 N   0  0  0  0  0  0  0  0  0  0  0  0
  -19.9200    9.1136  -12.7583 C   0  0  0  0  0  0  0  0  0  0  0  0
  -20.6529   10.2580  -12.5529 C   0  0  0  0  0  0  0  0  0  0  0  0
  -20.3939   11.0557  -11.4592 C   0  0  0  0  0  0  0  0  0  0  0  0
  -19.3805   10.6828  -10.5701 C   0  0  0  0  0  0  0  0  0  0  0  0
  -18.6344    9.5413  -10.7547 C   0  0  0  0  0  0  0  0  0  0  0  0
  -18.9146    8.7669  -11.8524 C   0  0  0  0  0  0  0  0  0  0  0  0
  -17.5857    9.2115   -9.7610 C   0  0  0  0  0  0  0  0  0  0  0  0
  -16.5953    8.4121  -10.3151 F   0  0  0  0  0  0  0  0  0  0  0  0
  -17.0183   10.3167   -9.1976 F   0  0  0  0  0  0  0  0  0  0  0  0
  -18.2002    8.3931   -8.8037 F   0  0  0  0  0  0  0  0  0  0  0  0
  -20.1810    3.9576  -14.3685 C   0  0  0  0  0  0  0  0  0  0  0  0
  -21.3602    4.8342  -14.6352 C   0  0  0  0  0  0  0  0  0  0  0  0
  -22.3596    4.6169  -13.5106 C   0  0  0  0  0  0  0  0  0  0  0  0
  -21.9534    4.5468  -15.9759 C   0  0  0  0  0  0  0  0  0  0  0  0
 45 46  1  0  0  0
 46 47  1  0  0  0
 46 48  1  0  0  0
 46 30  1  0  0  0
 30 31  1  0  0  0
 31 32  2  0  0  0
 32  1  1  0  0  0
  1  2  1  0  0  0
  2  3  2  0  0  0
  2  4  1  0  0  0
  4  7  1  0  0  0
  7  8  2  0  0  0
  8  9  1  0  0  0
  9 10  2  0  0  0
 10 17  1  0  0  0
 17 18  1  0  0  0
 18 19  2  0  0  0
 19 20  1  0  0  0
 20 21  2  0  0  0
 21 22  1  0  0  0
 22 23  1  0  0  0
 23 24  1  0  0  0
 24 25  2  0  0  0
 24 26  1  0  0  0
 26 27  2  0  0  0
 27 28  1  0  0  0
 10 11  1  0  0  0
 11 12  2  0  0  0
 12 13  1  0  0  0
 13 14  2  0  0  0
 14 15  1  0  0  0
 15 16  2  0  0  0
 32 33  1  0  0  0
 33 34  1  0  0  0
 33 35  1  0  0  0
 35 36  2  0  0  0
 36 37  1  0  0  0
 37 38  2  0  0  0
 38 39  1  0  0  0
 39 40  2  0  0  0
 39 41  1  0  0  0
 41 42  1  0  0  0
 41 43  1  0  0  0
 41 44  1  0  0  0
 34 30  2  0  0  0
 40 35  1  0  0  0
 16  7  1  0  0  0
 28 18  1  0  0  0
 16 11  1  0  0  0
 28 22  2  0  0  0
  1  5  1  0  0  0
  4  6  1  0  0  0
 23 29  1  0  0  0
M  END
> <minimizedAffinity>
-10.87958

> <CNNscore>
0.0852382556

> <CNNaffinity>
6.8441953659

> <CNN_VS>
0.5833872557

> <CNNaffinity_variance>
0.2374622822

$$$$
[H]c1nc2c(nc([H])c(=O)n2[H])c(Oc2c([H])c([H])c(N([H])C(=O)N([H])c3c([H])c(C(C([H])([H])[H])(C([H])([H])[H])C([H])([H])[H])nn3-c3c([H])c([H])c([H])c(C(F)(F)F)c3[H])c3c([H])c([H])c([H])c([H])c23)c1[H]


 48 53  0  0  0  0  0  0  0  0999 V2000
  -20.2637    9.6040  -16.2345 N   0  0  0  0  0  0  0  0  0  0  0  0
  -19.0000    9.7062  -16.8590 C   0  0  0  0  0  0  0  0  0  0  0  0
  -18.0492    8.9181  -16.5184 O   0  0  0  0  0  0  0  0  0  0  0  0
  -18.7960   10.6716  -17.8320 N   0  0  0  0  0  0  0  0  0  0  0  0
  -20.9446   10.3576  -16.6489 H   0  0  0  0  0  0  0  0  0  0  0  0
  -17.6077   10.0631  -18.1479 H   0  0  0  0  0  0  0  0  0  0  0  0
  -18.5589   11.5909  -18.7739 C   0  0  0  0  0  0  0  0  0  0  0  0
  -19.3489   12.7402  -18.9827 C   0  0  0  0  0  0  0  0  0  0  0  0
  -19.2316   13.5560  -20.0572 C   0  0  0  0  0  0  0  0  0  0  0  0
  -18.2620   13.2675  -21.0568 C   0  0  0  0  0  0  0  0  0  0  0  0
  -17.4755   12.1602  -20.8808 C   0  0  0  0  0  0  0  0  0  0  0  0
  -16.4973   11.8676  -21.8319 C   0  0  0  0  0  0  0  0  0  0  0  0
  -15.6789   10.7703  -21.6537 C   0  0  0  0  0  0  0  0  0  0  0  0
  -15.8129    9.9638  -20.5569 C   0  0  0  0  0  0  0  0  0  0  0  0
  -16.7819   10.2517  -19.6152 C   0  0  0  0  0  0  0  0  0  0  0  0
  -17.6037   11.3501  -19.7948 C   0  0  0  0  0  0  0  0  0  0  0  0
  -18.2247   14.1389  -22.0953 O   0  0  0  0  0  0  0  0  0  0  0  0
  -17.4415   15.1017  -22.5436 C   0  0  0  0  0  0  0  0  0  0  0  0
  -17.0016   16.1152  -21.6824 C   0  0  0  0  0  0  0  0  0  0  0  0
  -16.1931   17.0907  -22.1846 C   0  0  0  0  0  0  0  0  0  0  0  0
  -15.8011   17.1183  -23.4753 N   0  0  0  0  0  0  0  0  0  0  0  0
  -16.2106   16.1510  -24.3340 C   0  0  0  0  0  0  0  0  0  0  0  0
  -15.7981   16.2302  -25.5988 N   0  0  0  0  0  0  0  0  0  0  0  0
  -16.1841   15.3008  -26.4759 C   0  0  0  0  0  0  0  0  0  0  0  0
  -15.8141   15.3390  -27.6959 O   0  0  0  0  0  0  0  0  0  0  0  0
  -16.9987   14.2836  -26.0506 C   0  0  0  0  0  0  0  0  0  0  0  0
  -17.4287   14.1891  -24.7607 N   0  0  0  0  0  0  0  0  0  0  0  0
  -17.0237   15.1466  -23.8853 C   0  0  0  0  0  0  0  0  0  0  0  0
  -15.1815   16.9874  -25.9540 H   0  0  0  0  0  0  0  0  0  0  0  0
  -21.4091    6.7349  -14.4071 C   0  0  0  0  0  0  0  0  0  0  0  0
  -20.8620    7.3621  -15.4879 C   0  0  0  0  0  0  0  0  0  0  0  0
  -20.7979    8.7791  -15.2517 C   0  0  0  0  0  0  0  0  0  0  0  0
  -21.3091    8.9111  -14.0436 N   0  0  0  0  0  0  0  0  0  0  0  0
  -21.6761    7.6837  -13.5374 N   0  0  0  0  0  0  0  0  0  0  0  0
  -21.5371   10.0230  -13.1880 C   0  0  0  0  0  0  0  0  0  0  0  0
  -21.0802   10.0020  -11.8919 C   0  0  0  0  0  0  0  0  0  0  0  0
  -21.2338   11.1112  -11.0886 C   0  0  0  0  0  0  0  0  0  0  0  0
  -21.8577   12.2488  -11.6116 C   0  0  0  0  0  0  0  0  0  0  0  0
  -22.3222   12.2934  -12.9062 C   0  0  0  0  0  0  0  0  0  0  0  0
  -22.1556   11.1740  -13.6824 C   0  0  0  0  0  0  0  0  0  0  0  0
  -22.9624   13.5403  -13.3870 C   0  0  0  0  0  0  0  0  0  0  0  0
  -22.1367   14.2283  -14.2655 F   0  0  0  0  0  0  0  0  0  0  0  0
  -24.1749   13.3253  -13.9738 F   0  0  0  0  0  0  0  0  0  0  0  0
  -23.0630   14.3815  -12.2708 F   0  0  0  0  0  0  0  0  0  0  0  0
  -22.1687    4.7532  -15.5743 C   0  0  0  0  0  0  0  0  0  0  0  0
  -21.6600    5.2544  -14.2628 C   0  0  0  0  0  0  0  0  0  0  0  0
  -20.3241    4.5791  -13.9981 C   0  0  0  0  0  0  0  0  0  0  0  0
  -22.6446    4.9977  -13.1689 C   0  0  0  0  0  0  0  0  0  0  0  0
 45 46  1  0  0  0
 46 47  1  0  0  0
 46 48  1  0  0  0
 46 30  1  0  0  0
 30 31  1  0  0  0
 31 32  2  0  0  0
 32  1  1  0  0  0
  1  2  1  0  0  0
  2  3  2  0  0  0
  2  4  1  0  0  0
  4  7  1  0  0  0
  7  8  2  0  0  0
  8  9  1  0  0  0
  9 10  2  0  0  0
 10 17  1  0  0  0
 17 18  1  0  0  0
 18 19  2  0  0  0
 19 20  1  0  0  0
 20 21  2  0  0  0
 21 22  1  0  0  0
 22 23  1  0  0  0
 23 24  1  0  0  0
 24 25  2  0  0  0
 24 26  1  0  0  0
 26 27  2  0  0  0
 27 28  1  0  0  0
 10 11  1  0  0  0
 11 12  2  0  0  0
 12 13  1  0  0  0
 13 14  2  0  0  0
 14 15  1  0  0  0
 15 16  2  0  0  0
 32 33  1  0  0  0
 33 34  1  0  0  0
 33 35  1  0  0  0
 35 36  2  0  0  0
 36 37  1  0  0  0
 37 38  2  0  0  0
 38 39  1  0  0  0
 39 40  2  0  0  0
 39 41  1  0  0  0
 41 42  1  0  0  0
 41 43  1  0  0  0
 41 44  1  0  0  0
 34 30  2  0  0  0
 40 35  1  0  0  0
 16  7  1  0  0  0
 28 18  1  0  0  0
 16 11  1  0  0  0
 28 22  2  0  0  0
  1  5  1  0  0  0
  4  6  1  0  0  0
 23 29  1  0  0  0
M  END
> <minimizedAffinity>
-10.42767

> <CNNscore>
0.0701548979

> <CNNaffinity>
6.7972440720

> <CNN_VS>
0.4768599570

> <CNNaffinity_variance>
0.2354032695

$$$$
[H]c1nc2c(nc([H])c(=O)n2[H])c(Oc2c([H])c([H])c(N([H])C(=O)N([H])c3c([H])c(C(C([H])([H])[H])(C([H])([H])[H])C([H])([H])[H])nn3-c3c([H])c([H])c([H])c(C(F)(F)F)c3[H])c3c([H])c([H])c([H])c([H])c23)c1[H]


 48 53  0  0  0  0  0  0  0  0999 V2000
  -19.8604   14.4256  -19.6716 N   0  0  0  0  0  0  0  0  0  0  0  0
  -19.4283   14.3660  -18.3273 C   0  0  0  0  0  0  0  0  0  0  0  0
  -18.4946   15.1415  -17.9173 O   0  0  0  0  0  0  0  0  0  0  0  0
  -20.0142   13.4557  -17.4622 N   0  0  0  0  0  0  0  0  0  0  0  0
  -20.6573   13.6905  -19.8383 H   0  0  0  0  0  0  0  0  0  0  0  0
  -19.3902   14.0887  -16.4171 H   0  0  0  0  0  0  0  0  0  0  0  0
  -20.5531   12.5900  -16.5970 C   0  0  0  0  0  0  0  0  0  0  0  0
  -21.4646   12.9422  -15.5803 C   0  0  0  0  0  0  0  0  0  0  0  0
  -21.8478   12.1094  -14.5835 C   0  0  0  0  0  0  0  0  0  0  0  0
  -21.3195   10.7902  -14.5272 C   0  0  0  0  0  0  0  0  0  0  0  0
  -20.4349   10.4158  -15.5033 C   0  0  0  0  0  0  0  0  0  0  0  0
  -19.9212    9.1185  -15.4888 C   0  0  0  0  0  0  0  0  0  0  0  0
  -19.0499    8.7185  -16.4819 C   0  0  0  0  0  0  0  0  0  0  0  0
  -18.6816    9.5764  -17.4819 C   0  0  0  0  0  0  0  0  0  0  0  0
  -19.1885   10.8615  -17.4966 C   0  0  0  0  0  0  0  0  0  0  0  0
  -20.0601   11.2632  -16.5000 C   0  0  0  0  0  0  0  0  0  0  0  0
  -21.7592   10.0348  -13.4902 O   0  0  0  0  0  0  0  0  0  0  0  0
  -22.9059    9.7275  -12.9140 C   0  0  0  0  0  0  0  0  0  0  0  0
  -23.6504    8.6281  -13.3607 C   0  0  0  0  0  0  0  0  0  0  0  0
  -24.8290    8.3440  -12.7380 C   0  0  0  0  0  0  0  0  0  0  0  0
  -25.3053    9.0781  -11.7112 N   0  0  0  0  0  0  0  0  0  0  0  0
  -24.6075   10.1489  -11.2560 C   0  0  0  0  0  0  0  0  0  0  0  0
  -25.1270   10.8420  -10.2432 N   0  0  0  0  0  0  0  0  0  0  0  0
  -24.4735   11.9058   -9.7705 C   0  0  0  0  0  0  0  0  0  0  0  0
  -24.9351   12.5981   -8.8039 O   0  0  0  0  0  0  0  0  0  0  0  0
  -23.2786   12.2593  -10.3419 C   0  0  0  0  0  0  0  0  0  0  0  0
  -22.7347   11.5605  -11.3781 N   0  0  0  0  0  0  0  0  0  0  0  0
  -23.4176   10.4815  -11.8434 C   0  0  0  0  0  0  0  0  0  0  0  0
  -26.0297   10.6019   -9.7880 H   0  0  0  0  0  0  0  0  0  0  0  0
  -19.6155   17.0780  -22.0774 C   0  0  0  0  0  0  0  0  0  0  0  0
  -20.1008   16.4890  -20.9468 C   0  0  0  0  0  0  0  0  0  0  0  0
  -19.5028   15.1927  -20.7739 C   0  0  0  0  0  0  0  0  0  0  0  0
  -18.6956   15.0878  -21.8112 N   0  0  0  0  0  0  0  0  0  0  0  0
  -18.7640   16.2197  -22.5933 N   0  0  0  0  0  0  0  0  0  0  0  0
  -17.7950   14.0835  -22.2591 C   0  0  0  0  0  0  0  0  0  0  0  0
  -17.1182   14.2421  -23.4448 C   0  0  0  0  0  0  0  0  0  0  0  0
  -16.1880   13.3045  -23.8385 C   0  0  0  0  0  0  0  0  0  0  0  0
  -15.9474   12.1982  -23.0169 C   0  0  0  0  0  0  0  0  0  0  0  0
  -16.6120   12.0189  -21.8252 C   0  0  0  0  0  0  0  0  0  0  0  0
  -17.5326   12.9685  -21.4593 C   0  0  0  0  0  0  0  0  0  0  0  0
  -16.2919   10.8251  -21.0077 C   0  0  0  0  0  0  0  0  0  0  0  0
  -17.2725    9.8500  -21.1282 F   0  0  0  0  0  0  0  0  0  0  0  0
  -15.0740   10.2868  -21.3040 F   0  0  0  0  0  0  0  0  0  0  0  0
  -16.3708   11.2365  -19.6705 F   0  0  0  0  0  0  0  0  0  0  0  0
  -21.0726   18.2275  -23.6337 C   0  0  0  0  0  0  0  0  0  0  0  0
  -19.9989   18.4337  -22.6163 C   0  0  0  0  0  0  0  0  0  0  0  0
  -20.5959   19.2379  -21.4729 C   0  0  0  0  0  0  0  0  0  0  0  0
  -18.8100   19.1103  -23.2168 C   0  0  0  0  0  0  0  0  0  0  0  0
 45 46  1  0  0  0
 46 47  1  0  0  0
 46 48  1  0  0  0
 46 30  1  0  0  0
 30 31  1  0  0  0
 31 32  2  0  0  0
 32  1  1  0  0  0
  1  2  1  0  0  0
  2  3  2  0  0  0
  2  4  1  0  0  0
  4  7  1  0  0  0
  7  8  2  0  0  0
  8  9  1  0  0  0
  9 10  2  0  0  0
 10 17  1  0  0  0
 17 18  1  0  0  0
 18 19  2  0  0  0
 19 20  1  0  0  0
 20 21  2  0  0  0
 21 22  1  0  0  0
 22 23  1  0  0  0
 23 24  1  0  0  0
 24 25  2  0  0  0
 24 26  1  0  0  0
 26 27  2  0  0  0
 27 28  1  0  0  0
 10 11  1  0  0  0
 11 12  2  0  0  0
 12 13  1  0  0  0
 13 14  2  0  0  0
 14 15  1  0  0  0
 15 16  2  0  0  0
 32 33  1  0  0  0
 33 34  1  0  0  0
 33 35  1  0  0  0
 35 36  2  0  0  0
 36 37  1  0  0  0
 37 38  2  0  0  0
 38 39  1  0  0  0
 39 40  2  0  0  0
 39 41  1  0  0  0
 41 42  1  0  0  0
 41 43  1  0  0  0
 41 44  1  0  0  0
 34 30  2  0  0  0
 40 35  1  0  0  0
 16  7  1  0  0  0
 28 18  1  0  0  0
 16 11  1  0  0  0
 28 22  2  0  0  0
  1  5  1  0  0  0
  4  6  1  0  0  0
 23 29  1  0  0  0
M  END
> <minimizedAffinity>
-9.30286

> <CNNscore>
0.0644252747

> <CNNaffinity>
6.6907591820

> <CNN_VS>
0.4310539961

> <CNNaffinity_variance>
0.3090505004

$$$$
[H]c1nc2c(nc([H])c(=O)n2[H])c(Oc2c([H])c([H])c(N([H])C(=O)N([H])c3c([H])c(C(C([H])([H])[H])(C([H])([H])[H])C([H])([H])[H])nn3-c3c([H])c([H])c([H])c(C(F)(F)F)c3[H])c3c([H])c([H])c([H])c([H])c23)c1[H]


 48 53  0  0  0  0  0  0  0  0999 V2000
  -18.4838   14.9331  -21.3242 N   0  0  0  0  0  0  0  0  0  0  0  0
  -18.1620   13.5649  -21.4720 C   0  0  0  0  0  0  0  0  0  0  0  0
  -17.8485   13.0993  -22.6237 O   0  0  0  0  0  0  0  0  0  0  0  0
  -18.1998   12.7318  -20.3654 N   0  0  0  0  0  0  0  0  0  0  0  0
  -18.7285   15.1457  -20.2762 H   0  0  0  0  0  0  0  0  0  0  0  0
  -17.5719   11.7633  -21.1071 H   0  0  0  0  0  0  0  0  0  0  0  0
  -18.2264   11.8953  -19.3224 C   0  0  0  0  0  0  0  0  0  0  0  0
  -17.4861   10.6977  -19.2420 C   0  0  0  0  0  0  0  0  0  0  0  0
  -17.6681    9.7564  -18.2856 C   0  0  0  0  0  0  0  0  0  0  0  0
  -18.6575    9.9542  -17.2834 C   0  0  0  0  0  0  0  0  0  0  0  0
  -19.3907   11.1100  -17.3311 C   0  0  0  0  0  0  0  0  0  0  0  0
  -20.3498   11.3435  -16.3449 C   0  0  0  0  0  0  0  0  0  0  0  0
  -21.0771   12.5165  -16.3646 C   0  0  0  0  0  0  0  0  0  0  0  0
  -20.8715   13.4554  -17.3382 C   0  0  0  0  0  0  0  0  0  0  0  0
  -19.9230   13.2248  -18.3159 C   0  0  0  0  0  0  0  0  0  0  0  0
  -19.1956   12.0480  -18.2976 C   0  0  0  0  0  0  0  0  0  0  0  0
  -18.7678    8.9542  -16.3739 O   0  0  0  0  0  0  0  0  0  0  0  0
  -19.7145    8.3712  -15.6630 C   0  0  0  0  0  0  0  0  0  0  0  0
  -20.6683    7.5568  -16.2871 C   0  0  0  0  0  0  0  0  0  0  0  0
  -21.6289    6.9723  -15.5169 C   0  0  0  0  0  0  0  0  0  0  0  0
  -21.6968    7.1470  -14.1809 N   0  0  0  0  0  0  0  0  0  0  0  0
  -20.7878    7.9301  -13.5476 C   0  0  0  0  0  0  0  0  0  0  0  0
  -20.9052    8.0726  -12.2277 N   0  0  0  0  0  0  0  0  0  0  0  0
  -20.0336    8.8396  -11.5688 C   0  0  0  0  0  0  0  0  0  0  0  0
  -20.1100    9.0046  -10.3064 O   0  0  0  0  0  0  0  0  0  0  0  0
  -19.0350    9.4638  -12.2706 C   0  0  0  0  0  0  0  0  0  0  0  0
  -18.9020    9.3278  -13.6202 N   0  0  0  0  0  0  0  0  0  0  0  0
  -19.8008    8.5426  -14.2703 C   0  0  0  0  0  0  0  0  0  0  0  0
  -21.6498    7.6145  -11.6660 H   0  0  0  0  0  0  0  0  0  0  0  0
  -19.4258   18.0066  -22.9209 C   0  0  0  0  0  0  0  0  0  0  0  0
  -19.5344   17.0361  -21.9685 C   0  0  0  0  0  0  0  0  0  0  0  0
  -18.5461   16.0160  -22.1932 C   0  0  0  0  0  0  0  0  0  0  0  0
  -17.9068   16.4407  -23.2652 N   0  0  0  0  0  0  0  0  0  0  0  0
  -18.4356   17.6354  -23.7017 N   0  0  0  0  0  0  0  0  0  0  0  0
  -16.8153   15.9369  -24.0236 C   0  0  0  0  0  0  0  0  0  0  0  0
  -15.6716   15.5129  -23.3900 C   0  0  0  0  0  0  0  0  0  0  0  0
  -14.6459   14.9529  -24.1205 C   0  0  0  0  0  0  0  0  0  0  0  0
  -14.7885   14.8250  -25.5061 C   0  0  0  0  0  0  0  0  0  0  0  0
  -15.9244   15.2413  -26.1620 C   0  0  0  0  0  0  0  0  0  0  0  0
  -16.9289   15.7953  -25.4088 C   0  0  0  0  0  0  0  0  0  0  0  0
  -16.0011   15.0610  -27.6309 C   0  0  0  0  0  0  0  0  0  0  0  0
  -16.7418   16.0718  -28.2280 F   0  0  0  0  0  0  0  0  0  0  0  0
  -14.7749   14.9827  -28.2233 F   0  0  0  0  0  0  0  0  0  0  0  0
  -16.7591   13.9014  -27.8416 F   0  0  0  0  0  0  0  0  0  0  0  0
  -20.7055   19.6365  -21.6670 C   0  0  0  0  0  0  0  0  0  0  0  0
  -20.2843   19.2408  -23.0440 C   0  0  0  0  0  0  0  0  0  0  0  0
  -19.4166   20.3584  -23.5996 C   0  0  0  0  0  0  0  0  0  0  0  0
  -21.4688   18.9663  -23.9121 C   0  0  0  0  0  0  0  0  0  0  0  0
 45 46  1  0  0  0
 46 47  1  0  0  0
 46 48  1  0  0  0
 46 30  1  0  0  0
 30 31  1  0  0  0
 31 32  2  0  0  0
 32  1  1  0  0  0
  1  2  1  0  0  0
  2  3  2  0  0  0
  2  4  1  0  0  0
  4  7  1  0  0  0
  7  8  2  0  0  0
  8  9  1  0  0  0
  9 10  2  0  0  0
 10 17  1  0  0  0
 17 18  1  0  0  0
 18 19  2  0  0  0
 19 20  1  0  0  0
 20 21  2  0  0  0
 21 22  1  0  0  0
 22 23  1  0  0  0
 23 24  1  0  0  0
 24 25  2  0  0  0
 24 26  1  0  0  0
 26 27  2  0  0  0
 27 28  1  0  0  0
 10 11  1  0  0  0
 11 12  2  0  0  0
 12 13  1  0  0  0
 13 14  2  0  0  0
 14 15  1  0  0  0
 15 16  2  0  0  0
 32 33  1  0  0  0
 33 34  1  0  0  0
 33 35  1  0  0  0
 35 36  2  0  0  0
 36 37  1  0  0  0
 37 38  2  0  0  0
 38 39  1  0  0  0
 39 40  2  0  0  0
 39 41  1  0  0  0
 41 42  1  0  0  0
 41 43  1  0  0  0
 41 44  1  0  0  0
 34 30  2  0  0  0
 40 35  1  0  0  0
 16  7  1  0  0  0
 28 18  1  0  0  0
 16 11  1  0  0  0
 28 22  2  0  0  0
  1  5  1  0  0  0
  4  6  1  0  0  0
 23 29  1  0  0  0
M  END
> <minimizedAffinity>
-10.74911

> <CNNscore>
0.0611694418

> <CNNaffinity>
7.0886487961

> <CNN_VS>
0.4336086810

> <CNNaffinity_variance>
0.2171823084

$$$$
[H]c1nc2c(nc([H])c(=O)n2[H])c(Oc2c([H])c([H])c(N([H])C(=O)N([H])c3c([H])c(C(C([H])([H])[H])(C([H])([H])[H])C([H])([H])[H])nn3-c3c([H])c([H])c([H])c(C(F)(F)F)c3[H])c3c([H])c([H])c([H])c([H])c23)c1[H]


 48 53  0  0  0  0  0  0  0  0999 V2000
  -20.1914   13.3988  -18.0943 N   0  0  0  0  0  0  0  0  0  0  0  0
  -21.0050   14.3653  -17.4609 C   0  0  0  0  0  0  0  0  0  0  0  0
  -21.5325   14.1139  -16.3209 O   0  0  0  0  0  0  0  0  0  0  0  0
  -21.2355   15.5795  -18.0878 N   0  0  0  0  0  0  0  0  0  0  0  0
  -19.8347   13.7867  -19.0564 H   0  0  0  0  0  0  0  0  0  0  0  0
  -21.7808   16.0481  -16.9193 H   0  0  0  0  0  0  0  0  0  0  0  0
  -21.4832   16.7621  -18.6607 C   0  0  0  0  0  0  0  0  0  0  0  0
  -21.7609   16.9411  -20.0317 C   0  0  0  0  0  0  0  0  0  0  0  0
  -21.8075   18.1477  -20.6448 C   0  0  0  0  0  0  0  0  0  0  0  0
  -21.5675   19.3294  -19.8908 C   0  0  0  0  0  0  0  0  0  0  0  0
  -21.2994   19.1895  -18.5551 C   0  0  0  0  0  0  0  0  0  0  0  0
  -21.0868   20.3334  -17.7848 C   0  0  0  0  0  0  0  0  0  0  0  0
  -20.8427   20.2093  -16.4318 C   0  0  0  0  0  0  0  0  0  0  0  0
  -20.8059   18.9795  -15.8337 C   0  0  0  0  0  0  0  0  0  0  0  0
  -21.0150   17.8461  -16.5956 C   0  0  0  0  0  0  0  0  0  0  0  0
  -21.2574   17.9703  -17.9520 C   0  0  0  0  0  0  0  0  0  0  0  0
  -21.6311   20.4872  -20.5941 O   0  0  0  0  0  0  0  0  0  0  0  0
  -22.2189   20.9456  -21.6830 C   0  0  0  0  0  0  0  0  0  0  0  0
  -23.5989   21.1864  -21.6946 C   0  0  0  0  0  0  0  0  0  0  0  0
  -24.1672   21.6607  -22.8391 C   0  0  0  0  0  0  0  0  0  0  0  0
  -23.4546   21.9064  -23.9580 N   0  0  0  0  0  0  0  0  0  0  0  0
  -22.1165   21.6830  -23.9782 C   0  0  0  0  0  0  0  0  0  0  0  0
  -21.4629   21.9374  -25.1113 N   0  0  0  0  0  0  0  0  0  0  0  0
  -20.1464   21.7249  -25.1732 C   0  0  0  0  0  0  0  0  0  0  0  0
  -19.4822   21.9535  -26.2377 O   0  0  0  0  0  0  0  0  0  0  0  0
  -19.4976   21.2484  -24.0636 C   0  0  0  0  0  0  0  0  0  0  0  0
  -20.1522   20.9835  -22.8978 N   0  0  0  0  0  0  0  0  0  0  0  0
  -21.4922   21.2067  -22.8579 C   0  0  0  0  0  0  0  0  0  0  0  0
  -21.9237   22.2983  -25.9699 H   0  0  0  0  0  0  0  0  0  0  0  0
  -19.8391   10.2012  -16.5023 C   0  0  0  0  0  0  0  0  0  0  0  0
  -20.3918   11.4383  -16.6598 C   0  0  0  0  0  0  0  0  0  0  0  0
  -19.7659   12.1182  -17.7615 C   0  0  0  0  0  0  0  0  0  0  0  0
  -18.8788   11.2446  -18.1955 N   0  0  0  0  0  0  0  0  0  0  0  0
  -18.9231   10.0944  -17.4390 N   0  0  0  0  0  0  0  0  0  0  0  0
  -17.9311   11.2487  -19.2548 C   0  0  0  0  0  0  0  0  0  0  0  0
  -16.9650   10.2733  -19.3207 C   0  0  0  0  0  0  0  0  0  0  0  0
  -16.0965   10.2341  -20.3901 C   0  0  0  0  0  0  0  0  0  0  0  0
  -16.2150   11.1965  -21.3983 C   0  0  0  0  0  0  0  0  0  0  0  0
  -17.1748   12.1818  -21.3543 C   0  0  0  0  0  0  0  0  0  0  0  0
  -18.0252   12.1960  -20.2774 C   0  0  0  0  0  0  0  0  0  0  0  0
  -17.2404   13.1576  -22.4676 C   0  0  0  0  0  0  0  0  0  0  0  0
  -16.0109   13.7651  -22.6825 F   0  0  0  0  0  0  0  0  0  0  0  0
  -17.6880   12.6079  -23.6330 F   0  0  0  0  0  0  0  0  0  0  0  0
  -18.0709   14.1964  -22.0261 F   0  0  0  0  0  0  0  0  0  0  0  0
  -21.6344    9.4183  -15.0773 C   0  0  0  0  0  0  0  0  0  0  0  0
  -20.2086    9.1820  -15.4533 C   0  0  0  0  0  0  0  0  0  0  0  0
  -20.1223    7.8048  -16.0909 C   0  0  0  0  0  0  0  0  0  0  0  0
  -19.3100    9.3078  -14.2664 C   0  0  0  0  0  0  0  0  0  0  0  0
 45 46  1  0  0  0
 46 47  1  0  0  0
 46 48  1  0  0  0
 46 30  1  0  0  0
 30 31  1  0  0  0
 31 32  2  0  0  0
 32  1  1  0  0  0
  1  2  1  0  0  0
  2  3  2  0  0  0
  2  4  1  0  0  0
  4  7  1  0  0  0
  7  8  2  0  0  0
  8  9  1  0  0  0
  9 10  2  0  0  0
 10 17  1  0  0  0
 17 18  1  0  0  0
 18 19  2  0  0  0
 19 20  1  0  0  0
 20 21  2  0  0  0
 21 22  1  0  0  0
 22 23  1  0  0  0
 23 24  1  0  0  0
 24 25  2  0  0  0
 24 26  1  0  0  0
 26 27  2  0  0  0
 27 28  1  0  0  0
 10 11  1  0  0  0
 11 12  2  0  0  0
 12 13  1  0  0  0
 13 14  2  0  0  0
 14 15  1  0  0  0
 15 16  2  0  0  0
 32 33  1  0  0  0
 33 34  1  0  0  0
 33 35  1  0  0  0
 35 36  2  0  0  0
 36 37  1  0  0  0
 37 38  2  0  0  0
 38 39  1  0  0  0
 39 40  2  0  0  0
 39 41  1  0  0  0
 41 42  1  0  0  0
 41 43  1  0  0  0
 41 44  1  0  0  0
 34 30  2  0  0  0
 40 35  1  0  0  0
 16  7  1  0  0  0
 28 18  1  0  0  0
 16 11  1  0  0  0
 28 22  2  0  0  0
  1  5  1  0  0  0
  4  6  1  0  0  0
 23 29  1  0  0  0
M  END
> <minimizedAffinity>
-9.46508

> <CNNscore>
0.0583781376

> <CNNaffinity>
7.0423154831

> <CNN_VS>
0.4111172557

> <CNNaffinity_variance>
0.3060014546

$$$$
[H]c1nc2c(nc([H])c(=O)n2[H])c(Oc2c([H])c([H])c(N([H])C(=O)N([H])c3c([H])c(C(C([H])([H])[H])(C([H])([H])[H])C([H])([H])[H])nn3-c3c([H])c([H])c([H])c(C(F)(F)F)c3[H])c3c([H])c([H])c([H])c([H])c23)c1[H]


 48 53  0  0  0  0  0  0  0  0999 V2000
  -19.6753   10.9973  -15.4131 N   0  0  0  0  0  0  0  0  0  0  0  0
  -20.3253   11.9471  -16.2334 C   0  0  0  0  0  0  0  0  0  0  0  0
  -21.4873   12.3828  -15.9154 O   0  0  0  0  0  0  0  0  0  0  0  0
  -19.7009   12.3927  -17.3875 N   0  0  0  0  0  0  0  0  0  0  0  0
  -18.6995   10.7408  -15.8437 H   0  0  0  0  0  0  0  0  0  0  0  0
  -20.6538   13.3743  -17.4912 H   0  0  0  0  0  0  0  0  0  0  0  0
  -19.1325   12.8460  -18.5098 C   0  0  0  0  0  0  0  0  0  0  0  0
  -19.5257   14.0204  -19.1844 C   0  0  0  0  0  0  0  0  0  0  0  0
  -19.0926   14.3663  -20.4200 C   0  0  0  0  0  0  0  0  0  0  0  0
  -18.1839   13.5174  -21.1099 C   0  0  0  0  0  0  0  0  0  0  0  0
  -17.7791   12.3709  -20.4795 C   0  0  0  0  0  0  0  0  0  0  0  0
  -16.8668   11.5325  -21.1213 C   0  0  0  0  0  0  0  0  0  0  0  0
  -16.4288   10.3876  -20.4866 C   0  0  0  0  0  0  0  0  0  0  0  0
  -16.8766   10.0618  -19.2356 C   0  0  0  0  0  0  0  0  0  0  0  0
  -17.7808   10.8905  -18.5997 C   0  0  0  0  0  0  0  0  0  0  0  0
  -18.2216   12.0368  -19.2367 C   0  0  0  0  0  0  0  0  0  0  0  0
  -17.8128   13.9465  -22.3417 O   0  0  0  0  0  0  0  0  0  0  0  0
  -17.1422   14.9516  -22.8724 C   0  0  0  0  0  0  0  0  0  0  0  0
  -16.7128   16.0175  -22.0714 C   0  0  0  0  0  0  0  0  0  0  0  0
  -16.0222   17.0356  -22.6582 C   0  0  0  0  0  0  0  0  0  0  0  0
  -15.7370   17.0566  -23.9766 N   0  0  0  0  0  0  0  0  0  0  0  0
  -16.1394   16.0391  -24.7786 C   0  0  0  0  0  0  0  0  0  0  0  0
  -15.8357   16.1138  -26.0741 N   0  0  0  0  0  0  0  0  0  0  0  0
  -16.2190   15.1351  -26.8971 C   0  0  0  0  0  0  0  0  0  0  0  0
  -15.9509   15.1672  -28.1436 O   0  0  0  0  0  0  0  0  0  0  0  0
  -16.9186   14.0730  -26.3856 C   0  0  0  0  0  0  0  0  0  0  0  0
  -17.2367   13.9824  -25.0634 N   0  0  0  0  0  0  0  0  0  0  0  0
  -16.8367   14.9904  -24.2442 C   0  0  0  0  0  0  0  0  0  0  0  0
  -15.3078   16.9041  -26.4941 H   0  0  0  0  0  0  0  0  0  0  0  0
  -19.9099   10.0984  -11.9461 C   0  0  0  0  0  0  0  0  0  0  0  0
  -19.4686   10.8600  -12.9882 C   0  0  0  0  0  0  0  0  0  0  0  0
  -20.0014   10.3548  -14.2247 C   0  0  0  0  0  0  0  0  0  0  0  0
  -20.7295    9.3233  -13.8449 N   0  0  0  0  0  0  0  0  0  0  0  0
  -20.6738    9.1698  -12.4771 N   0  0  0  0  0  0  0  0  0  0  0  0
  -21.5386    8.3820  -14.5376 C   0  0  0  0  0  0  0  0  0  0  0  0
  -22.6853    8.7935  -15.1740 C   0  0  0  0  0  0  0  0  0  0  0  0
  -23.4260    7.8939  -15.9099 C   0  0  0  0  0  0  0  0  0  0  0  0
  -22.9937    6.5664  -15.9964 C   0  0  0  0  0  0  0  0  0  0  0  0
  -21.8487    6.1319  -15.3687 C   0  0  0  0  0  0  0  0  0  0  0  0
  -21.1317    7.0497  -14.6430 C   0  0  0  0  0  0  0  0  0  0  0  0
  -21.4538    4.7114  -15.5184 C   0  0  0  0  0  0  0  0  0  0  0  0
  -21.4240    4.3313  -16.8531 F   0  0  0  0  0  0  0  0  0  0  0  0
  -20.2535    4.4274  -14.9359 F   0  0  0  0  0  0  0  0  0  0  0  0
  -22.4963    3.9571  -14.9635 F   0  0  0  0  0  0  0  0  0  0  0  0
  -20.4286   11.3952   -9.9673 C   0  0  0  0  0  0  0  0  0  0  0  0
  -19.5696   10.2907  -10.4891 C   0  0  0  0  0  0  0  0  0  0  0  0
  -19.9536    9.0195   -9.7493 C   0  0  0  0  0  0  0  0  0  0  0  0
  -18.1198   10.6149  -10.3317 C   0  0  0  0  0  0  0  0  0  0  0  0
 45 46  1  0  0  0
 46 47  1  0  0  0
 46 48  1  0  0  0
 46 30  1  0  0  0
 30 31  1  0  0  0
 31 32  2  0  0  0
 32  1  1  0  0  0
  1  2  1  0  0  0
  2  3  2  0  0  0
  2  4  1  0  0  0
  4  7  1  0  0  0
  7  8  2  0  0  0
  8  9  1  0  0  0
  9 10  2  0  0  0
 10 17  1  0  0  0
 17 18  1  0  0  0
 18 19  2  0  0  0
 19 20  1  0  0  0
 20 21  2  0  0  0
 21 22  1  0  0  0
 22 23  1  0  0  0
 23 24  1  0  0  0
 24 25  2  0  0  0
 24 26  1  0  0  0
 26 27  2  0  0  0
 27 28  1  0  0  0
 10 11  1  0  0  0
 11 12  2  0  0  0
 12 13  1  0  0  0
 13 14  2  0  0  0
 14 15  1  0  0  0
 15 16  2  0  0  0
 32 33  1  0  0  0
 33 34  1  0  0  0
 33 35  1  0  0  0
 35 36  2  0  0  0
 36 37  1  0  0  0
 37 38  2  0  0  0
 38 39  1  0  0  0
 39 40  2  0  0  0
 39 41  1  0  0  0
 41 42  1  0  0  0
 41 43  1  0  0  0
 41 44  1  0  0  0
 34 30  2  0  0  0
 40 35  1  0  0  0
 16  7  1  0  0  0
 28 18  1  0  0  0
 16 11  1  0  0  0
 28 22  2  0  0  0
  1  5  1  0  0  0
  4  6  1  0  0  0
 23 29  1  0  0  0
M  END
> <minimizedAffinity>
-10.53526

> <CNNscore>
0.0570518002

> <CNNaffinity>
6.9160356522

> <CNN_VS>
0.3945722878

> <CNNaffinity_variance>
0.1687358320

$$$$
[H]c1nc2c(nc([H])c(=O)n2[H])c(Oc2c([H])c([H])c(N([H])C(=O)N([H])c3c([H])c(C(C([H])([H])[H])(C([H])([H])[H])C([H])([H])[H])nn3-c3c([H])c([H])c([H])c(C(F)(F)F)c3[H])c3c([H])c([H])c([H])c([H])c23)c1[H]


 48 53  0  0  0  0  0  0  0  0999 V2000
  -20.3528   11.0640  -15.6027 N   0  0  0  0  0  0  0  0  0  0  0  0
  -19.3262   10.4732  -16.3736 C   0  0  0  0  0  0  0  0  0  0  0  0
  -18.6862    9.4593  -15.9223 O   0  0  0  0  0  0  0  0  0  0  0  0
  -19.0114   11.0061  -17.6134 N   0  0  0  0  0  0  0  0  0  0  0  0
  -20.7807   11.9162  -16.1450 H   0  0  0  0  0  0  0  0  0  0  0  0
  -18.2449    9.8965  -17.8653 H   0  0  0  0  0  0  0  0  0  0  0  0
  -18.6767   11.4919  -18.8135 C   0  0  0  0  0  0  0  0  0  0  0  0
  -17.5712   11.0529  -19.5711 C   0  0  0  0  0  0  0  0  0  0  0  0
  -17.1158   11.6801  -20.6816 C   0  0  0  0  0  0  0  0  0  0  0  0
  -17.7684   12.8567  -21.1423 C   0  0  0  0  0  0  0  0  0  0  0  0
  -18.8487   13.3064  -20.4307 C   0  0  0  0  0  0  0  0  0  0  0  0
  -19.5252   14.4431  -20.8748 C   0  0  0  0  0  0  0  0  0  0  0  0
  -20.6323   14.8920  -20.1832 C   0  0  0  0  0  0  0  0  0  0  0  0
  -21.0770   14.2381  -19.0668 C   0  0  0  0  0  0  0  0  0  0  0  0
  -20.4072   13.1133  -18.6254 C   0  0  0  0  0  0  0  0  0  0  0  0
  -19.2962   12.6647  -19.3172 C   0  0  0  0  0  0  0  0  0  0  0  0
  -17.2358   13.4146  -22.2578 O   0  0  0  0  0  0  0  0  0  0  0  0
  -16.7649   14.5856  -22.6432 C   0  0  0  0  0  0  0  0  0  0  0  0
  -16.4559   15.5707  -21.6963 C   0  0  0  0  0  0  0  0  0  0  0  0
  -15.9711   16.7663  -22.1356 C   0  0  0  0  0  0  0  0  0  0  0  0
  -15.7777   17.0373  -23.4430 N   0  0  0  0  0  0  0  0  0  0  0  0
  -16.0678   16.1039  -24.3840 C   0  0  0  0  0  0  0  0  0  0  0  0
  -15.8631   16.4267  -25.6607 N   0  0  0  0  0  0  0  0  0  0  0  0
  -16.1417   15.5376  -26.6167 C   0  0  0  0  0  0  0  0  0  0  0  0
  -15.9623   15.8054  -27.8507 O   0  0  0  0  0  0  0  0  0  0  0  0
  -16.6334   14.3091  -26.2585 C   0  0  0  0  0  0  0  0  0  0  0  0
  -16.8480   13.9644  -24.9574 N   0  0  0  0  0  0  0  0  0  0  0  0
  -16.5578   14.8854  -24.0010 C   0  0  0  0  0  0  0  0  0  0  0  0
  -15.4925   17.3481  -25.9664 H   0  0  0  0  0  0  0  0  0  0  0  0
  -21.9662   11.4091  -12.4150 C   0  0  0  0  0  0  0  0  0  0  0  0
  -21.4693   11.8794  -13.5952 C   0  0  0  0  0  0  0  0  0  0  0  0
  -20.9096   10.7963  -14.3577 C   0  0  0  0  0  0  0  0  0  0  0  0
  -21.1079    9.7453  -13.5867 N   0  0  0  0  0  0  0  0  0  0  0  0
  -21.7419   10.1139  -12.4207 N   0  0  0  0  0  0  0  0  0  0  0  0
  -20.8199    8.3597  -13.7194 C   0  0  0  0  0  0  0  0  0  0  0  0
  -19.9193    7.7577  -12.8733 C   0  0  0  0  0  0  0  0  0  0  0  0
  -19.7000    6.3994  -12.9531 C   0  0  0  0  0  0  0  0  0  0  0  0
  -20.4042    5.6513  -13.9024 C   0  0  0  0  0  0  0  0  0  0  0  0
  -21.3112    6.2319  -14.7592 C   0  0  0  0  0  0  0  0  0  0  0  0
  -21.5086    7.5860  -14.6567 C   0  0  0  0  0  0  0  0  0  0  0  0
  -22.0236    5.3675  -15.7293 C   0  0  0  0  0  0  0  0  0  0  0  0
  -22.8288    6.1144  -16.5783 F   0  0  0  0  0  0  0  0  0  0  0  0
  -21.1820    4.5877  -16.4672 F   0  0  0  0  0  0  0  0  0  0  0  0
  -22.9245    4.6003  -14.9787 F   0  0  0  0  0  0  0  0  0  0  0  0
  -23.7002   11.3871  -10.7240 C   0  0  0  0  0  0  0  0  0  0  0  0
  -22.6244   12.2263  -11.3312 C   0  0  0  0  0  0  0  0  0  0  0  0
  -21.5859   12.4944  -10.2542 C   0  0  0  0  0  0  0  0  0  0  0  0
  -23.1826   13.4904  -11.8990 C   0  0  0  0  0  0  0  0  0  0  0  0
 45 46  1  0  0  0
 46 47  1  0  0  0
 46 48  1  0  0  0
 46 30  1  0  0  0
 30 31  1  0  0  0
 31 32  2  0  0  0
 32  1  1  0  0  0
  1  2  1  0  0  0
  2  3  2  0  0  0
  2  4  1  0  0  0
  4  7  1  0  0  0
  7  8  2  0  0  0
  8  9  1  0  0  0
  9 10  2  0  0  0
 10 17  1  0  0  0
 17 18  1  0  0  0
 18 19  2  0  0  0
 19 20  1  0  0  0
 20 21  2  0  0  0
 21 22  1  0  0  0
 22 23  1  0  0  0
 23 24  1  0  0  0
 24 25  2  0  0  0
 24 26  1  0  0  0
 26 27  2  0  0  0
 27 28  1  0  0  0
 10 11  1  0  0  0
 11 12  2  0  0  0
 12 13  1  0  0  0
 13 14  2  0  0  0
 14 15  1  0  0  0
 15 16  2  0  0  0
 32 33  1  0  0  0
 33 34  1  0  0  0
 33 35  1  0  0  0
 35 36  2  0  0  0
 36 37  1  0  0  0
 37 38  2  0  0  0
 38 39  1  0  0  0
 39 40  2  0  0  0
 39 41  1  0  0  0
 41 42  1  0  0  0
 41 43  1  0  0  0
 41 44  1  0  0  0
 34 30  2  0  0  0
 40 35  1  0  0  0
 16  7  1  0  0  0
 28 18  1  0  0  0
 16 11  1  0  0  0
 28 22  2  0  0  0
  1  5  1  0  0  0
  4  6  1  0  0  0
 23 29  1  0  0  0
M  END
> <minimizedAffinity>
-9.92912

> <CNNscore>
0.0564690754

> <CNNaffinity>
7.1541075706

> <CNN_VS>
0.4039858282

> <CNNaffinity_variance>
0.2223163098

$$$$
[H]c1nc2c(nc([H])c(=O)n2[H])c(Oc2c([H])c([H])c(N([H])C(=O)N([H])c3c([H])c(C(C([H])([H])[H])(C([H])([H])[H])C([H])([H])[H])nn3-c3c([H])c([H])c([H])c(C(F)(F)F)c3[H])c3c([H])c([H])c([H])c([H])c23)c1[H]


 48 53  0  0  0  0  0  0  0  0999 V2000
  -20.3590   13.8499  -18.2868 N   0  0  0  0  0  0  0  0  0  0  0  0
  -20.1865   15.1620  -17.7908 C   0  0  0  0  0  0  0  0  0  0  0  0
  -19.5847   15.3537  -16.6762 O   0  0  0  0  0  0  0  0  0  0  0  0
  -20.6830   16.2352  -18.5133 N   0  0  0  0  0  0  0  0  0  0  0  0
  -20.8959   13.8821  -19.2429 H   0  0  0  0  0  0  0  0  0  0  0  0
  -19.9819   17.0790  -17.6894 H   0  0  0  0  0  0  0  0  0  0  0  0
  -21.1490   17.2967  -19.1798 C   0  0  0  0  0  0  0  0  0  0  0  0
  -22.1099   17.2322  -20.2100 C   0  0  0  0  0  0  0  0  0  0  0  0
  -22.4268   18.2720  -21.0177 C   0  0  0  0  0  0  0  0  0  0  0  0
  -21.7708   19.5220  -20.8449 C   0  0  0  0  0  0  0  0  0  0  0  0
  -20.8353   19.6185  -19.8494 C   0  0  0  0  0  0  0  0  0  0  0  0
  -20.1953   20.8405  -19.6391 C   0  0  0  0  0  0  0  0  0  0  0  0
  -19.2701   20.9600  -18.6217 C   0  0  0  0  0  0  0  0  0  0  0  0
  -18.9705   19.8965  -17.8150 C   0  0  0  0  0  0  0  0  0  0  0  0
  -19.6026   18.6857  -18.0230 C   0  0  0  0  0  0  0  0  0  0  0  0
  -20.5282   18.5652  -19.0442 C   0  0  0  0  0  0  0  0  0  0  0  0
  -22.1523   20.4992  -21.7045 O   0  0  0  0  0  0  0  0  0  0  0  0
  -23.0787   20.6938  -22.6239 C   0  0  0  0  0  0  0  0  0  0  0  0
  -23.9492   21.7875  -22.5314 C   0  0  0  0  0  0  0  0  0  0  0  0
  -24.8914   21.9533  -23.5021 C   0  0  0  0  0  0  0  0  0  0  0  0
  -25.0182   21.1075  -24.5455 N   0  0  0  0  0  0  0  0  0  0  0  0
  -24.1904   20.0390  -24.6629 C   0  0  0  0  0  0  0  0  0  0  0  0
  -24.3636   19.2331  -25.7100 N   0  0  0  0  0  0  0  0  0  0  0  0
  -23.5729   18.1676  -25.8578 C   0  0  0  0  0  0  0  0  0  0  0  0
  -23.7048   17.3696  -26.8439 O   0  0  0  0  0  0  0  0  0  0  0  0
  -22.5980   17.9292  -24.9240 C   0  0  0  0  0  0  0  0  0  0  0  0
  -22.4087   18.7441  -23.8480 N   0  0  0  0  0  0  0  0  0  0  0  0
  -23.2256   19.8225  -23.7175 C   0  0  0  0  0  0  0  0  0  0  0  0
  -25.0923   19.3843  -26.4351 H   0  0  0  0  0  0  0  0  0  0  0  0
  -20.1989   10.7833  -16.4286 C   0  0  0  0  0  0  0  0  0  0  0  0
  -20.6928   12.0240  -16.7070 C   0  0  0  0  0  0  0  0  0  0  0  0
  -20.0002   12.5855  -17.8352 C   0  0  0  0  0  0  0  0  0  0  0  0
  -19.1361   11.6449  -18.1624 N   0  0  0  0  0  0  0  0  0  0  0  0
  -19.2557   10.5636  -17.3174 N   0  0  0  0  0  0  0  0  0  0  0  0
  -18.1523   11.5242  -19.1812 C   0  0  0  0  0  0  0  0  0  0  0  0
  -17.2271   10.5090  -19.1308 C   0  0  0  0  0  0  0  0  0  0  0  0
  -16.3239   10.3476  -20.1591 C   0  0  0  0  0  0  0  0  0  0  0  0
  -16.3654   11.2280  -21.2454 C   0  0  0  0  0  0  0  0  0  0  0  0
  -17.2831   12.2509  -21.3182 C   0  0  0  0  0  0  0  0  0  0  0  0
  -18.1696   12.3873  -20.2796 C   0  0  0  0  0  0  0  0  0  0  0  0
  -17.2676   13.1338  -22.5082 C   0  0  0  0  0  0  0  0  0  0  0  0
  -16.0405   13.7660  -22.6546 F   0  0  0  0  0  0  0  0  0  0  0  0
  -17.5844   12.4792  -23.6622 F   0  0  0  0  0  0  0  0  0  0  0  0
  -18.1657   14.1737  -22.2330 F   0  0  0  0  0  0  0  0  0  0  0  0
  -22.1344    9.7533  -15.3993 C   0  0  0  0  0  0  0  0  0  0  0  0
  -20.6479    9.8695  -15.3155 C   0  0  0  0  0  0  0  0  0  0  0  0
  -20.0623    8.4917  -15.5789 C   0  0  0  0  0  0  0  0  0  0  0  0
  -20.2237   10.4153  -13.9911 C   0  0  0  0  0  0  0  0  0  0  0  0
 45 46  1  0  0  0
 46 47  1  0  0  0
 46 48  1  0  0  0
 46 30  1  0  0  0
 30 31  1  0  0  0
 31 32  2  0  0  0
 32  1  1  0  0  0
  1  2  1  0  0  0
  2  3  2  0  0  0
  2  4  1  0  0  0
  4  7  1  0  0  0
  7  8  2  0  0  0
  8  9  1  0  0  0
  9 10  2  0  0  0
 10 17  1  0  0  0
 17 18  1  0  0  0
 18 19  2  0  0  0
 19 20  1  0  0  0
 20 21  2  0  0  0
 21 22  1  0  0  0
 22 23  1  0  0  0
 23 24  1  0  0  0
 24 25  2  0  0  0
 24 26  1  0  0  0
 26 27  2  0  0  0
 27 28  1  0  0  0
 10 11  1  0  0  0
 11 12  2  0  0  0
 12 13  1  0  0  0
 13 14  2  0  0  0
 14 15  1  0  0  0
 15 16  2  0  0  0
 32 33  1  0  0  0
 33 34  1  0  0  0
 33 35  1  0  0  0
 35 36  2  0  0  0
 36 37  1  0  0  0
 37 38  2  0  0  0
 38 39  1  0  0  0
 39 40  2  0  0  0
 39 41  1  0  0  0
 41 42  1  0  0  0
 41 43  1  0  0  0
 41 44  1  0  0  0
 34 30  2  0  0  0
 40 35  1  0  0  0
 16  7  1  0  0  0
 28 18  1  0  0  0
 16 11  1  0  0  0
 28 22  2  0  0  0
  1  5  1  0  0  0
  4  6  1  0  0  0
 23 29  1  0  0  0
M  END
> <minimizedAffinity>
-10.30115

> <CNNscore>
0.0563602448

> <CNNaffinity>
6.7647743225

> <CNN_VS>
0.3812643290

> <CNNaffinity_variance>
0.2870332003

$$$$
[H]OC(=O)[C@]([H])(N([H])[C@]1([H])C([H])([H])C([H])([H])[C@]([H])(n2c([H])c(-c3c([H])c([H])c(Oc4c([H])c([H])c([H])c([H])c4[H])c([H])c3[H])c3c(N([H])[H])nc([H])nc32)C([H])([H])C1([H])[H])C([H])([H])O[H]


 41 45  0  0  0  0  0  0  0  0999 V2000
  -17.4903    9.4165  -17.9226 N   0  0  0  0  0  0  0  0  0  0  0  0
  -17.3109   10.2887  -19.0422 C   0  0  0  0  0  0  0  0  0  0  0  0
  -16.3748    9.9750  -19.9554 N   0  0  0  0  0  0  0  0  0  0  0  0
  -16.2488   10.7921  -21.0067 C   0  0  0  0  0  0  0  0  0  0  0  0
  -16.9974   11.8767  -21.1777 N   0  0  0  0  0  0  0  0  0  0  0  0
  -17.9430   12.2118  -20.2745 C   0  0  0  0  0  0  0  0  0  0  0  0
  -18.8346   13.2009  -20.1697 N   0  0  0  0  0  0  0  0  0  0  0  0
  -19.5632   13.0332  -19.0215 C   0  0  0  0  0  0  0  0  0  0  0  0
  -19.1277   11.9051  -18.3693 C   0  0  0  0  0  0  0  0  0  0  0  0
  -18.1188   11.3840  -19.1430 C   0  0  0  0  0  0  0  0  0  0  0  0
  -16.7510    9.4130  -17.1936 H   0  0  0  0  0  0  0  0  0  0  0  0
  -18.3015    8.8042  -17.8078 H   0  0  0  0  0  0  0  0  0  0  0  0
  -19.6330   11.4265  -17.0780 C   0  0  0  0  0  0  0  0  0  0  0  0
  -19.5976   12.2557  -15.9745 C   0  0  0  0  0  0  0  0  0  0  0  0
  -20.0249   11.8076  -14.7528 C   0  0  0  0  0  0  0  0  0  0  0  0
  -20.5072   10.5346  -14.5402 C   0  0  0  0  0  0  0  0  0  0  0  0
  -20.5445    9.7028  -15.6387 C   0  0  0  0  0  0  0  0  0  0  0  0
  -20.1163   10.1482  -16.8688 C   0  0  0  0  0  0  0  0  0  0  0  0
  -20.9289   10.1288  -13.2784 O   0  0  0  0  0  0  0  0  0  0  0  0
  -20.0356    9.8806  -12.2432 C   0  0  0  0  0  0  0  0  0  0  0  0
  -19.9058   10.7346  -11.1610 C   0  0  0  0  0  0  0  0  0  0  0  0
  -19.0090   10.4349  -10.1728 C   0  0  0  0  0  0  0  0  0  0  0  0
  -18.2336    9.2978  -10.2370 C   0  0  0  0  0  0  0  0  0  0  0  0
  -18.3521    8.4362  -11.3104 C   0  0  0  0  0  0  0  0  0  0  0  0
  -19.2676    8.7403  -12.3217 C   0  0  0  0  0  0  0  0  0  0  0  0
  -19.0355   14.2987  -21.0921 C   0  0  0  0  0  0  0  0  0  0  0  0
  -17.8696   14.8867  -21.7421 C   0  0  0  0  0  0  0  0  0  0  0  0
  -17.3508   16.1952  -21.1763 C   0  0  0  0  0  0  0  0  0  0  0  0
  -18.5062   17.1484  -21.0119 C   0  0  0  0  0  0  0  0  0  0  0  0
  -19.3666   16.4827  -19.9063 C   0  0  0  0  0  0  0  0  0  0  0  0
  -20.0261   15.3057  -20.5405 C   0  0  0  0  0  0  0  0  0  0  0  0
  -18.2195   18.4753  -20.7073 N   0  0  0  0  0  0  0  0  0  0  0  0
  -17.2160   18.7019  -20.5133 H   0  0  0  0  0  0  0  0  0  0  0  0
  -19.0745   19.5494  -20.8688 C   0  0  0  0  0  0  0  0  0  0  0  0
  -19.2255   20.2188  -19.5127 C   0  0  0  0  0  0  0  0  0  0  0  0
  -18.2360   20.1096  -18.5539 O   0  0  0  0  0  0  0  0  0  0  0  0
  -20.2505   20.8810  -19.2423 O   0  0  0  0  0  0  0  0  0  0  0  0
  -17.7855   20.9432  -18.1884 H   0  0  0  0  0  0  0  0  0  0  0  0
  -18.7562   20.6520  -21.8166 C   0  0  0  0  0  0  0  0  0  0  0  0
  -18.1739   21.7591  -21.1879 O   0  0  0  0  0  0  0  0  0  0  0  0
  -17.8644   22.4152  -21.8490 H   0  0  0  0  0  0  0  0  0  0  0  0
  1  2  1  0  0  0
  2  3  2  0  0  0
  3  4  1  0  0  0
  4  5  2  0  0  0
  5  6  1  0  0  0
  6  7  1  0  0  0
  7  8  1  0  0  0
  8  9  2  0  0  0
  9 13  1  0  0  0
 13 14  2  0  0  0
 14 15  1  0  0  0
 15 16  2  0  0  0
 16 19  1  0  0  0
 19 20  1  0  0  0
 20 21  2  0  0  0
 21 22  1  0  0  0
 22 23  2  0  0  0
 23 24  1  0  0  0
 24 25  2  0  0  0
 16 17  1  0  0  0
 17 18  2  0  0  0
  9 10  1  0  0  0
  7 26  1  0  0  0
 26 27  1  0  0  0
 27 28  1  0  0  0
 28 29  1  0  0  0
 29 30  1  0  0  0
 30 31  1  0  0  0
 29 32  1  0  0  0
 32 34  1  0  0  0
 34 39  1  0  0  0
 39 40  1  0  0  0
 34 35  1  0  0  0
 35 36  1  0  0  0
 35 37  2  0  0  0
 10  2  1  0  0  0
 31 26  1  0  0  0
 10  6  2  0  0  0
 18 13  1  0  0  0
 25 20  1  0  0  0
  1 11  1  0  0  0
  1 12  1  0  0  0
 32 33  1  0  0  0
 40 41  1  0  0  0
 36 38  1  0  0  0
M  END
> <minimizedAffinity>
-8.41552

> <CNNscore>
0.7544583678

> <CNNaffinity>
7.2727537155

> <CNN_VS>
5.4869899750

> <CNNaffinity_variance>
0.1772071272

$$$$
[H]OC(=O)[C@]([H])(N([H])[C@]1([H])C([H])([H])C([H])([H])[C@]([H])(n2c([H])c(-c3c([H])c([H])c(Oc4c([H])c([H])c([H])c([H])c4[H])c([H])c3[H])c3c(N([H])[H])nc([H])nc32)C([H])([H])C1([H])[H])C([H])([H])O[H]


 41 45  0  0  0  0  0  0  0  0999 V2000
  -17.7480    9.4875  -17.5748 N   0  0  0  0  0  0  0  0  0  0  0  0
  -17.7676   10.3816  -18.6913 C   0  0  0  0  0  0  0  0  0  0  0  0
  -16.9271   10.1474  -19.7147 N   0  0  0  0  0  0  0  0  0  0  0  0
  -16.9874   10.9819  -20.7581 C   0  0  0  0  0  0  0  0  0  0  0  0
  -17.8280   12.0094  -20.8190 N   0  0  0  0  0  0  0  0  0  0  0  0
  -18.6807   12.2644  -19.8040 C   0  0  0  0  0  0  0  0  0  0  0  0
  -19.6229   13.1833  -19.5759 N   0  0  0  0  0  0  0  0  0  0  0  0
  -20.1948   12.9505  -18.3528 C   0  0  0  0  0  0  0  0  0  0  0  0
  -19.6037   11.8517  -17.7779 C   0  0  0  0  0  0  0  0  0  0  0  0
  -18.6593   11.4147  -18.6752 C   0  0  0  0  0  0  0  0  0  0  0  0
  -16.9286    9.5318  -16.9388 H   0  0  0  0  0  0  0  0  0  0  0  0
  -18.4930    8.8154  -17.3761 H   0  0  0  0  0  0  0  0  0  0  0  0
  -19.9148   11.3241  -16.4449 C   0  0  0  0  0  0  0  0  0  0  0  0
  -20.7537   10.2354  -16.3136 C   0  0  0  0  0  0  0  0  0  0  0  0
  -21.0881    9.7595  -15.0737 C   0  0  0  0  0  0  0  0  0  0  0  0
  -20.6263   10.3148  -13.9004 C   0  0  0  0  0  0  0  0  0  0  0  0
  -19.7885   11.4021  -14.0259 C   0  0  0  0  0  0  0  0  0  0  0  0
  -19.4493   11.8844  -15.2698 C   0  0  0  0  0  0  0  0  0  0  0  0
  -20.9966    9.7929  -12.6653 O   0  0  0  0  0  0  0  0  0  0  0  0
  -20.1515    9.8284  -11.5627 C   0  0  0  0  0  0  0  0  0  0  0  0
  -20.3485   10.7076  -10.5112 C   0  0  0  0  0  0  0  0  0  0  0  0
  -19.4821   10.6938   -9.4530 C   0  0  0  0  0  0  0  0  0  0  0  0
  -18.4176    9.8198   -9.4168 C   0  0  0  0  0  0  0  0  0  0  0  0
  -18.2083    8.9367  -10.4585 C   0  0  0  0  0  0  0  0  0  0  0  0
  -19.0921    8.9490  -11.5411 C   0  0  0  0  0  0  0  0  0  0  0  0
  -20.0118   14.2721  -20.4474 C   0  0  0  0  0  0  0  0  0  0  0  0
  -18.9723   15.1463  -20.9792 C   0  0  0  0  0  0  0  0  0  0  0  0
  -18.7927   16.4937  -20.3057 C   0  0  0  0  0  0  0  0  0  0  0  0
  -20.1396   17.1556  -20.1706 C   0  0  0  0  0  0  0  0  0  0  0  0
  -20.8904   16.2410  -19.1678 C   0  0  0  0  0  0  0  0  0  0  0  0
  -21.2325   14.9953  -19.9120 C   0  0  0  0  0  0  0  0  0  0  0  0
  -20.1751   18.4883  -19.7728 N   0  0  0  0  0  0  0  0  0  0  0  0
  -21.0694   18.8219  -19.3425 H   0  0  0  0  0  0  0  0  0  0  0  0
  -19.0875   19.3352  -19.6703 C   0  0  0  0  0  0  0  0  0  0  0  0
  -19.2224   20.3834  -20.7626 C   0  0  0  0  0  0  0  0  0  0  0  0
  -18.1038   20.9646  -21.3295 O   0  0  0  0  0  0  0  0  0  0  0  0
  -20.3508   20.7376  -21.1668 O   0  0  0  0  0  0  0  0  0  0  0  0
  -17.9384   20.8853  -22.3284 H   0  0  0  0  0  0  0  0  0  0  0  0
  -18.8227   20.1019  -18.4223 C   0  0  0  0  0  0  0  0  0  0  0  0
  -18.8490   21.4878  -18.6190 O   0  0  0  0  0  0  0  0  0  0  0  0
  -18.7940   21.9645  -17.7628 H   0  0  0  0  0  0  0  0  0  0  0  0
  1  2  1  0  0  0
  2  3  2  0  0  0
  3  4  1  0  0  0
  4  5  2  0  0  0
  5  6  1  0  0  0
  6  7  1  0  0  0
  7  8  1  0  0  0
  8  9  2  0  0  0
  9 13  1  0  0  0
 13 14  2  0  0  0
 14 15  1  0  0  0
 15 16  2  0  0  0
 16 19  1  0  0  0
 19 20  1  0  0  0
 20 21  2  0  0  0
 21 22  1  0  0  0
 22 23  2  0  0  0
 23 24  1  0  0  0
 24 25  2  0  0  0
 16 17  1  0  0  0
 17 18  2  0  0  0
  9 10  1  0  0  0
  7 26  1  0  0  0
 26 27  1  0  0  0
 27 28  1  0  0  0
 28 29  1  0  0  0
 29 30  1  0  0  0
 30 31  1  0  0  0
 29 32  1  0  0  0
 32 34  1  0  0  0
 34 39  1  0  0  0
 39 40  1  0  0  0
 34 35  1  0  0  0
 35 36  1  0  0  0
 35 37  2  0  0  0
 10  2  1  0  0  0
 31 26  1  0  0  0
 10  6  2  0  0  0
 18 13  1  0  0  0
 25 20  1  0  0  0
  1 11  1  0  0  0
  1 12  1  0  0  0
 32 33  1  0  0  0
 40 41  1  0  0  0
 36 38  1  0  0  0
M  END
> <minimizedAffinity>
-7.59127

> <CNNscore>
0.6714817286

> <CNNaffinity>
7.0439658165

> <CNN_VS>
4.7298941612

> <CNNaffinity_variance>
0.1369274557

$$$$
[H]OC(=O)[C@]([H])(N([H])[C@]1([H])C([H])([H])C([H])([H])[C@]([H])(n2c([H])c(-c3c([H])c([H])c(Oc4c([H])c([H])c([H])c([H])c4[H])c([H])c3[H])c3c(N([H])[H])nc([H])nc32)C([H])([H])C1([H])[H])C([H])([H])O[H]


 41 45  0  0  0  0  0  0  0  0999 V2000
  -17.6086    9.6888  -18.0770 N   0  0  0  0  0  0  0  0  0  0  0  0
  -17.1396   10.3080  -19.2782 C   0  0  0  0  0  0  0  0  0  0  0  0
  -16.2277    9.6562  -20.0213 N   0  0  0  0  0  0  0  0  0  0  0  0
  -15.8289   10.2449  -21.1540 C   0  0  0  0  0  0  0  0  0  0  0  0
  -16.2902   11.4225  -21.5622 N   0  0  0  0  0  0  0  0  0  0  0  0
  -17.2055   12.0953  -20.8331 C   0  0  0  0  0  0  0  0  0  0  0  0
  -17.8507   13.2564  -20.9737 N   0  0  0  0  0  0  0  0  0  0  0  0
  -18.6921   13.4383  -19.9077 C   0  0  0  0  0  0  0  0  0  0  0  0
  -18.5848   12.3645  -19.0575 C   0  0  0  0  0  0  0  0  0  0  0  0
  -17.6618   11.5200  -19.6258 C   0  0  0  0  0  0  0  0  0  0  0  0
  -16.9539    9.6451  -17.2723 H   0  0  0  0  0  0  0  0  0  0  0  0
  -18.5458    9.2921  -17.9746 H   0  0  0  0  0  0  0  0  0  0  0  0
  -19.2933   12.2223  -17.7809 C   0  0  0  0  0  0  0  0  0  0  0  0
  -20.0134   11.0741  -17.5171 C   0  0  0  0  0  0  0  0  0  0  0  0
  -20.7159   10.9457  -16.3484 C   0  0  0  0  0  0  0  0  0  0  0  0
  -20.7552   11.9232  -15.3782 C   0  0  0  0  0  0  0  0  0  0  0  0
  -20.0380   13.0716  -15.6366 C   0  0  0  0  0  0  0  0  0  0  0  0
  -19.3304   13.2056  -16.8097 C   0  0  0  0  0  0  0  0  0  0  0  0
  -21.4848   11.7430  -14.2076 O   0  0  0  0  0  0  0  0  0  0  0  0
  -20.8845   11.3724  -13.0103 C   0  0  0  0  0  0  0  0  0  0  0  0
  -19.7414   10.5921  -12.9696 C   0  0  0  0  0  0  0  0  0  0  0  0
  -19.1970   10.2612  -11.7592 C   0  0  0  0  0  0  0  0  0  0  0  0
  -19.7674   10.6917  -10.5813 C   0  0  0  0  0  0  0  0  0  0  0  0
  -20.9080   11.4709  -10.6061 C   0  0  0  0  0  0  0  0  0  0  0  0
  -21.4664   11.8102  -11.8416 C   0  0  0  0  0  0  0  0  0  0  0  0
  -17.7149   14.2067  -22.0576 C   0  0  0  0  0  0  0  0  0  0  0  0
  -18.3720   13.9165  -23.3271 C   0  0  0  0  0  0  0  0  0  0  0  0
  -17.5034   13.3704  -24.4446 C   0  0  0  0  0  0  0  0  0  0  0  0
  -16.2747   14.2331  -24.5741 C   0  0  0  0  0  0  0  0  0  0  0  0
  -15.5177   13.9818  -23.2438 C   0  0  0  0  0  0  0  0  0  0  0  0
  -16.2850   14.6958  -22.1837 C   0  0  0  0  0  0  0  0  0  0  0  0
  -15.4506   14.0339  -25.6771 N   0  0  0  0  0  0  0  0  0  0  0  0
  -15.3917   13.0548  -26.0433 H   0  0  0  0  0  0  0  0  0  0  0  0
  -14.9010   15.0234  -26.4705 C   0  0  0  0  0  0  0  0  0  0  0  0
  -15.7191   15.0880  -27.7497 C   0  0  0  0  0  0  0  0  0  0  0  0
  -16.8134   14.2640  -27.9339 O   0  0  0  0  0  0  0  0  0  0  0  0
  -15.4142   15.8902  -28.6584 O   0  0  0  0  0  0  0  0  0  0  0  0
  -17.7323   14.6648  -28.0965 H   0  0  0  0  0  0  0  0  0  0  0  0
  -14.8078   16.4304  -25.9937 C   0  0  0  0  0  0  0  0  0  0  0  0
  -13.6725   17.0939  -26.4744 O   0  0  0  0  0  0  0  0  0  0  0  0
  -13.7011   18.0480  -26.2463 H   0  0  0  0  0  0  0  0  0  0  0  0
  1  2  1  0  0  0
  2  3  2  0  0  0
  3  4  1  0  0  0
  4  5  2  0  0  0
  5  6  1  0  0  0
  6  7  1  0  0  0
  7  8  1  0  0  0
  8  9  2  0  0  0
  9 13  1  0  0  0
 13 14  2  0  0  0
 14 15  1  0  0  0
 15 16  2  0  0  0
 16 19  1  0  0  0
 19 20  1  0  0  0
 20 21  2  0  0  0
 21 22  1  0  0  0
 22 23  2  0  0  0
 23 24  1  0  0  0
 24 25  2  0  0  0
 16 17  1  0  0  0
 17 18  2  0  0  0
  9 10  1  0  0  0
  7 26  1  0  0  0
 26 27  1  0  0  0
 27 28  1  0  0  0
 28 29  1  0  0  0
 29 30  1  0  0  0
 30 31  1  0  0  0
 29 32  1  0  0  0
 32 34  1  0  0  0
 34 39  1  0  0  0
 39 40  1  0  0  0
 34 35  1  0  0  0
 35 36  1  0  0  0
 35 37  2  0  0  0
 10  2  1  0  0  0
 31 26  1  0  0  0
 10  6  2  0  0  0
 18 13  1  0  0  0
 25 20  1  0  0  0
  1 11  1  0  0  0
  1 12  1  0  0  0
 32 33  1  0  0  0
 40 41  1  0  0  0
 36 38  1  0  0  0
M  END
> <minimizedAffinity>
-8.59000

> <CNNscore>
0.6165279150

> <CNNaffinity>
7.3202848434

> <CNN_VS>
4.5131597519

> <CNNaffinity_variance>
0.1287781596

$$$$
[H]OC(=O)[C@]([H])(N([H])[C@]1([H])C([H])([H])C([H])([H])[C@]([H])(n2c([H])c(-c3c([H])c([H])c(Oc4c([H])c([H])c([H])c([H])c4[H])c([H])c3[H])c3c(N([H])[H])nc([H])nc32)C([H])([H])C1([H])[H])C([H])([H])O[H]


 41 45  0  0  0  0  0  0  0  0999 V2000
  -17.3637    9.7169  -18.1938 N   0  0  0  0  0  0  0  0  0  0  0  0
  -16.9252   10.3319  -19.4086 C   0  0  0  0  0  0  0  0  0  0  0  0
  -15.9572    9.7272  -20.1199 N   0  0  0  0  0  0  0  0  0  0  0  0
  -15.5874   10.3087  -21.2661 C   0  0  0  0  0  0  0  0  0  0  0  0
  -16.1291   11.4353  -21.7171 N   0  0  0  0  0  0  0  0  0  0  0  0
  -17.1019   12.0602  -21.0205 C   0  0  0  0  0  0  0  0  0  0  0  0
  -17.8294   13.1650  -21.2056 N   0  0  0  0  0  0  0  0  0  0  0  0
  -18.6968   13.3165  -20.1558 C   0  0  0  0  0  0  0  0  0  0  0  0
  -18.5220   12.2806  -19.2705 C   0  0  0  0  0  0  0  0  0  0  0  0
  -17.5310   11.4902  -19.8009 C   0  0  0  0  0  0  0  0  0  0  0  0
  -16.7189    9.7471  -17.3805 H   0  0  0  0  0  0  0  0  0  0  0  0
  -18.2702    9.2547  -18.0897 H   0  0  0  0  0  0  0  0  0  0  0  0
  -19.2358   12.1255  -17.9984 C   0  0  0  0  0  0  0  0  0  0  0  0
  -19.6746   10.8777  -17.6026 C   0  0  0  0  0  0  0  0  0  0  0  0
  -20.3808   10.7245  -16.4391 C   0  0  0  0  0  0  0  0  0  0  0  0
  -20.6964   11.7725  -15.6022 C   0  0  0  0  0  0  0  0  0  0  0  0
  -20.2606   13.0205  -15.9928 C   0  0  0  0  0  0  0  0  0  0  0  0
  -19.5506   13.1799  -17.1613 C   0  0  0  0  0  0  0  0  0  0  0  0
  -21.4166   11.5631  -14.4307 O   0  0  0  0  0  0  0  0  0  0  0  0
  -22.7298   11.1084  -14.4399 C   0  0  0  0  0  0  0  0  0  0  0  0
  -23.1577   10.1088  -15.2973 C   0  0  0  0  0  0  0  0  0  0  0  0
  -24.4635    9.7037  -15.2579 C   0  0  0  0  0  0  0  0  0  0  0  0
  -25.3588   10.2739  -14.3795 C   0  0  0  0  0  0  0  0  0  0  0  0
  -24.9465   11.2721  -13.5180 C   0  0  0  0  0  0  0  0  0  0  0  0
  -23.6128   11.6880  -13.5564 C   0  0  0  0  0  0  0  0  0  0  0  0
  -17.7494   14.0887  -22.3176 C   0  0  0  0  0  0  0  0  0  0  0  0
  -18.2921   13.6773  -23.6075 C   0  0  0  0  0  0  0  0  0  0  0  0
  -17.3005   13.2075  -24.6551 C   0  0  0  0  0  0  0  0  0  0  0  0
  -16.1816   14.2120  -24.7536 C   0  0  0  0  0  0  0  0  0  0  0  0
  -15.4769   14.1009  -23.3764 C   0  0  0  0  0  0  0  0  0  0  0  0
  -16.3855   14.7480  -22.3874 C   0  0  0  0  0  0  0  0  0  0  0  0
  -15.2773   14.0810  -25.8029 N   0  0  0  0  0  0  0  0  0  0  0  0
  -15.0705   13.1049  -26.1200 H   0  0  0  0  0  0  0  0  0  0  0  0
  -14.8177   15.1030  -26.6121 C   0  0  0  0  0  0  0  0  0  0  0  0
  -15.7199   15.1570  -27.8339 C   0  0  0  0  0  0  0  0  0  0  0  0
  -16.8098   14.3148  -27.9483 O   0  0  0  0  0  0  0  0  0  0  0  0
  -15.4898   15.9669  -28.7578 O   0  0  0  0  0  0  0  0  0  0  0  0
  -17.7442   14.7001  -28.0480 H   0  0  0  0  0  0  0  0  0  0  0  0
  -14.7448   16.5047  -26.1168 C   0  0  0  0  0  0  0  0  0  0  0  0
  -13.5752   17.1629  -26.5158 O   0  0  0  0  0  0  0  0  0  0  0  0
  -13.6112   18.1151  -26.2809 H   0  0  0  0  0  0  0  0  0  0  0  0
  1  2  1  0  0  0
  2  3  2  0  0  0
  3  4  1  0  0  0
  4  5  2  0  0  0
  5  6  1  0  0  0
  6  7  1  0  0  0
  7  8  1  0  0  0
  8  9  2  0  0  0
  9 13  1  0  0  0
 13 14  2  0  0  0
 14 15  1  0  0  0
 15 16  2  0  0  0
 16 19  1  0  0  0
 19 20  1  0  0  0
 20 21  2  0  0  0
 21 22  1  0  0  0
 22 23  2  0  0  0
 23 24  1  0  0  0
 24 25  2  0  0  0
 16 17  1  0  0  0
 17 18  2  0  0  0
  9 10  1  0  0  0
  7 26  1  0  0  0
 26 27  1  0  0  0
 27 28  1  0  0  0
 28 29  1  0  0  0
 29 30  1  0  0  0
 30 31  1  0  0  0
 29 32  1  0  0  0
 32 34  1  0  0  0
 34 39  1  0  0  0
 39 40  1  0  0  0
 34 35  1  0  0  0
 35 36  1  0  0  0
 35 37  2  0  0  0
 10  2  1  0  0  0
 31 26  1  0  0  0
 10  6  2  0  0  0
 18 13  1  0  0  0
 25 20  1  0  0  0
  1 11  1  0  0  0
  1 12  1  0  0  0
 32 33  1  0  0  0
 40 41  1  0  0  0
 36 38  1  0  0  0
M  END
> <minimizedAffinity>
-8.51146

> <CNNscore>
0.6160670519

> <CNNaffinity>
7.2736806870

> <CNN_VS>
4.4810748100

> <CNNaffinity_variance>
0.1041420102

$$$$
[H]OC(=O)[C@]([H])(N([H])[C@]1([H])C([H])([H])C([H])([H])[C@]([H])(n2c([H])c(-c3c([H])c([H])c(Oc4c([H])c([H])c([H])c([H])c4[H])c([H])c3[H])c3c(N([H])[H])nc([H])nc32)C([H])([H])C1([H])[H])C([H])([H])O[H]


 41 45  0  0  0  0  0  0  0  0999 V2000
  -17.8881   13.3704  -20.3103 N   0  0  0  0  0  0  0  0  0  0  0  0
  -17.9983   12.1801  -19.5247 C   0  0  0  0  0  0  0  0  0  0  0  0
  -17.1413   11.1720  -19.7651 N   0  0  0  0  0  0  0  0  0  0  0  0
  -17.2479   10.0829  -18.9961 C   0  0  0  0  0  0  0  0  0  0  0  0
  -18.1484    9.9638  -18.0261 N   0  0  0  0  0  0  0  0  0  0  0  0
  -19.0191   10.9622  -17.7665 C   0  0  0  0  0  0  0  0  0  0  0  0
  -20.0034   11.1452  -16.8823 N   0  0  0  0  0  0  0  0  0  0  0  0
  -20.5599   12.3823  -17.0748 C   0  0  0  0  0  0  0  0  0  0  0  0
  -19.9161   13.0124  -18.1120 C   0  0  0  0  0  0  0  0  0  0  0  0
  -18.9520   12.1365  -18.5495 C   0  0  0  0  0  0  0  0  0  0  0  0
  -18.1923   13.3210  -21.3019 H   0  0  0  0  0  0  0  0  0  0  0  0
  -17.5284   14.2562  -19.9466 H   0  0  0  0  0  0  0  0  0  0  0  0
  -20.2640   14.3339  -18.6456 C   0  0  0  0  0  0  0  0  0  0  0  0
  -21.2018   14.4448  -19.6529 C   0  0  0  0  0  0  0  0  0  0  0  0
  -21.5043   15.6673  -20.1912 C   0  0  0  0  0  0  0  0  0  0  0  0
  -20.9132   16.8420  -19.7802 C   0  0  0  0  0  0  0  0  0  0  0  0
  -19.9762   16.7368  -18.7748 C   0  0  0  0  0  0  0  0  0  0  0  0
  -19.6685   15.5105  -18.2304 C   0  0  0  0  0  0  0  0  0  0  0  0
  -21.2563   18.0588  -20.3603 O   0  0  0  0  0  0  0  0  0  0  0  0
  -21.8081   18.1432  -21.6330 C   0  0  0  0  0  0  0  0  0  0  0  0
  -23.1744   18.2310  -21.8396 C   0  0  0  0  0  0  0  0  0  0  0  0
  -23.6566   18.3124  -23.1169 C   0  0  0  0  0  0  0  0  0  0  0  0
  -22.8052   18.3084  -24.2001 C   0  0  0  0  0  0  0  0  0  0  0  0
  -21.4396   18.2214  -24.0097 C   0  0  0  0  0  0  0  0  0  0  0  0
  -20.9444   18.1379  -22.7055 C   0  0  0  0  0  0  0  0  0  0  0  0
  -20.4508   10.2153  -15.8667 C   0  0  0  0  0  0  0  0  0  0  0  0
  -21.8817   10.0988  -15.6084 C   0  0  0  0  0  0  0  0  0  0  0  0
  -22.4236   10.8201  -14.3888 C   0  0  0  0  0  0  0  0  0  0  0  0
  -21.5577   10.4890  -13.2008 C   0  0  0  0  0  0  0  0  0  0  0  0
  -20.1979   11.1469  -13.5529 C   0  0  0  0  0  0  0  0  0  0  0  0
  -19.5894   10.3046  -14.6219 C   0  0  0  0  0  0  0  0  0  0  0  0
  -22.0024   10.8766  -11.9407 N   0  0  0  0  0  0  0  0  0  0  0  0
  -22.3504   10.1130  -11.3148 H   0  0  0  0  0  0  0  0  0  0  0  0
  -21.8093   12.1140  -11.3557 C   0  0  0  0  0  0  0  0  0  0  0  0
  -23.1223   12.8731  -11.4525 C   0  0  0  0  0  0  0  0  0  0  0  0
  -24.2526   12.4211  -10.7979 O   0  0  0  0  0  0  0  0  0  0  0  0
  -23.2011   13.9219  -12.1279 O   0  0  0  0  0  0  0  0  0  0  0  0
  -24.7137   13.0095  -10.1104 H   0  0  0  0  0  0  0  0  0  0  0  0
  -21.3898   12.2367   -9.9329 C   0  0  0  0  0  0  0  0  0  0  0  0
  -22.0998   11.3825   -9.0805 O   0  0  0  0  0  0  0  0  0  0  0  0
  -21.7205   11.3957   -8.1754 H   0  0  0  0  0  0  0  0  0  0  0  0
  1  2  1  0  0  0
  2  3  2  0  0  0
  3  4  1  0  0  0
  4  5  2  0  0  0
  5  6  1  0  0  0
  6  7  1  0  0  0
  7  8  1  0  0  0
  8  9  2  0  0  0
  9 13  1  0  0  0
 13 14  2  0  0  0
 14 15  1  0  0  0
 15 16  2  0  0  0
 16 19  1  0  0  0
 19 20  1  0  0  0
 20 21  2  0  0  0
 21 22  1  0  0  0
 22 23  2  0  0  0
 23 24  1  0  0  0
 24 25  2  0  0  0
 16 17  1  0  0  0
 17 18  2  0  0  0
  9 10  1  0  0  0
  7 26  1  0  0  0
 26 27  1  0  0  0
 27 28  1  0  0  0
 28 29  1  0  0  0
 29 30  1  0  0  0
 30 31  1  0  0  0
 29 32  1  0  0  0
 32 34  1  0  0  0
 34 39  1  0  0  0
 39 40  1  0  0  0
 34 35  1  0  0  0
 35 36  1  0  0  0
 35 37  2  0  0  0
 10  2  1  0  0  0
 31 26  1  0  0  0
 10  6  2  0  0  0
 18 13  1  0  0  0
 25 20  1  0  0  0
  1 11  1  0  0  0
  1 12  1  0  0  0
 32 33  1  0  0  0
 40 41  1  0  0  0
 36 38  1  0  0  0
M  END
> <minimizedAffinity>
-6.84333

> <CNNscore>
0.4056997597

> <CNNaffinity>
6.6894807816

> <CNN_VS>
2.7139208317

> <CNNaffinity_variance>
0.4165194929

$$$$
[H]OC(=O)[C@]([H])(N([H])[C@]1([H])C([H])([H])C([H])([H])[C@]([H])(n2c([H])c(-c3c([H])c([H])c(Oc4c([H])c([H])c([H])c([H])c4[H])c([H])c3[H])c3c(N([H])[H])nc([H])nc32)C([H])([H])C1([H])[H])C([H])([H])O[H]


 41 45  0  0  0  0  0  0  0  0999 V2000
  -18.4759    9.0665  -17.3523 N   0  0  0  0  0  0  0  0  0  0  0  0
  -18.0257   10.1222  -18.2063 C   0  0  0  0  0  0  0  0  0  0  0  0
  -17.1238    9.8335  -19.1612 N   0  0  0  0  0  0  0  0  0  0  0  0
  -16.7427   10.8331  -19.9639 C   0  0  0  0  0  0  0  0  0  0  0  0
  -17.2120   12.0717  -19.8548 N   0  0  0  0  0  0  0  0  0  0  0  0
  -18.1176   12.3852  -18.9042 C   0  0  0  0  0  0  0  0  0  0  0  0
  -18.7667   13.4991  -18.5548 N   0  0  0  0  0  0  0  0  0  0  0  0
  -19.5926   13.2279  -17.4957 C   0  0  0  0  0  0  0  0  0  0  0  0
  -19.4710   11.9028  -17.1540 C   0  0  0  0  0  0  0  0  0  0  0  0
  -18.5550   11.3673  -18.0271 C   0  0  0  0  0  0  0  0  0  0  0  0
  -17.8094    8.7060  -16.6426 H   0  0  0  0  0  0  0  0  0  0  0  0
  -19.4108    8.6553  -17.4072 H   0  0  0  0  0  0  0  0  0  0  0  0
  -20.1604   11.2510  -16.0351 C   0  0  0  0  0  0  0  0  0  0  0  0
  -19.6580   11.3681  -14.7544 C   0  0  0  0  0  0  0  0  0  0  0  0
  -20.2660   10.7287  -13.7067 C   0  0  0  0  0  0  0  0  0  0  0  0
  -21.3901    9.9449  -13.8485 C   0  0  0  0  0  0  0  0  0  0  0  0
  -21.8957    9.8247  -15.1251 C   0  0  0  0  0  0  0  0  0  0  0  0
  -21.2884   10.4651  -16.1815 C   0  0  0  0  0  0  0  0  0  0  0  0
  -21.9694    9.3166  -12.7509 O   0  0  0  0  0  0  0  0  0  0  0  0
  -21.8989    7.9416  -12.5621 C   0  0  0  0  0  0  0  0  0  0  0  0
  -23.0117    7.1248  -12.6706 C   0  0  0  0  0  0  0  0  0  0  0  0
  -22.8778    5.7778  -12.4742 C   0  0  0  0  0  0  0  0  0  0  0  0
  -21.6545    5.2216  -12.1704 C   0  0  0  0  0  0  0  0  0  0  0  0
  -20.5353    6.0238  -12.0590 C   0  0  0  0  0  0  0  0  0  0  0  0
  -20.6695    7.4005  -12.2590 C   0  0  0  0  0  0  0  0  0  0  0  0
  -18.6485   14.8075  -19.1632 C   0  0  0  0  0  0  0  0  0  0  0  0
  -18.9355   15.9841  -18.3502 C   0  0  0  0  0  0  0  0  0  0  0  0
  -20.2912   16.6385  -18.5379 C   0  0  0  0  0  0  0  0  0  0  0  0
  -20.5378   16.8370  -20.0111 C   0  0  0  0  0  0  0  0  0  0  0  0
  -20.6513   15.3888  -20.5547 C   0  0  0  0  0  0  0  0  0  0  0  0
  -19.2698   14.8286  -20.5463 C   0  0  0  0  0  0  0  0  0  0  0  0
  -21.6280   17.6131  -20.3917 N   0  0  0  0  0  0  0  0  0  0  0  0
  -21.9308   18.3535  -19.7162 H   0  0  0  0  0  0  0  0  0  0  0  0
  -22.1894   17.6627  -21.6539 C   0  0  0  0  0  0  0  0  0  0  0  0
  -23.6856   17.4480  -21.4953 C   0  0  0  0  0  0  0  0  0  0  0  0
  -24.3198   17.7308  -20.3003 O   0  0  0  0  0  0  0  0  0  0  0  0
  -24.3685   17.0107  -22.4465 O   0  0  0  0  0  0  0  0  0  0  0  0
  -25.0731   18.4113  -20.2710 H   0  0  0  0  0  0  0  0  0  0  0  0
  -22.0560   18.8732  -22.5096 C   0  0  0  0  0  0  0  0  0  0  0  0
  -22.9902   19.8676  -22.1954 O   0  0  0  0  0  0  0  0  0  0  0  0
  -22.8007   20.6950  -22.6881 H   0  0  0  0  0  0  0  0  0  0  0  0
  1  2  1  0  0  0
  2  3  2  0  0  0
  3  4  1  0  0  0
  4  5  2  0  0  0
  5  6  1  0  0  0
  6  7  1  0  0  0
  7  8  1  0  0  0
  8  9  2  0  0  0
  9 13  1  0  0  0
 13 14  2  0  0  0
 14 15  1  0  0  0
 15 16  2  0  0  0
 16 19  1  0  0  0
 19 20  1  0  0  0
 20 21  2  0  0  0
 21 22  1  0  0  0
 22 23  2  0  0  0
 23 24  1  0  0  0
 24 25  2  0  0  0
 16 17  1  0  0  0
 17 18  2  0  0  0
  9 10  1  0  0  0
  7 26  1  0  0  0
 26 27  1  0  0  0
 27 28  1  0  0  0
 28 29  1  0  0  0
 29 30  1  0  0  0
 30 31  1  0  0  0
 29 32  1  0  0  0
 32 34  1  0  0  0
 34 39  1  0  0  0
 39 40  1  0  0  0
 34 35  1  0  0  0
 35 36  1  0  0  0
 35 37  2  0  0  0
 10  2  1  0  0  0
 31 26  1  0  0  0
 10  6  2  0  0  0
 18 13  1  0  0  0
 25 20  1  0  0  0
  1 11  1  0  0  0
  1 12  1  0  0  0
 32 33  1  0  0  0
 40 41  1  0  0  0
 36 38  1  0  0  0
M  END
> <minimizedAffinity>
-7.01955

> <CNNscore>
0.3785804808

> <CNNaffinity>
6.5340905190

> <CNN_VS>
2.4736790657

> <CNNaffinity_variance>
0.1549721509

$$$$
[H]OC(=O)[C@]([H])(N([H])[C@]1([H])C([H])([H])C([H])([H])[C@]([H])(n2c([H])c(-c3c([H])c([H])c(Oc4c([H])c([H])c([H])c([H])c4[H])c([H])c3[H])c3c(N([H])[H])nc([H])nc32)C([H])([H])C1([H])[H])C([H])([H])O[H]


 41 45  0  0  0  0  0  0  0  0999 V2000
  -18.0954    9.3324  -17.3779 N   0  0  0  0  0  0  0  0  0  0  0  0
  -17.8761   10.2610  -18.4438 C   0  0  0  0  0  0  0  0  0  0  0  0
  -16.9748    9.9476  -19.3914 N   0  0  0  0  0  0  0  0  0  0  0  0
  -16.8114   10.8203  -20.3916 C   0  0  0  0  0  0  0  0  0  0  0  0
  -17.4914   11.9586  -20.4810 N   0  0  0  0  0  0  0  0  0  0  0  0
  -18.4010   12.2945  -19.5419 C   0  0  0  0  0  0  0  0  0  0  0  0
  -19.2259   13.3290  -19.3595 N   0  0  0  0  0  0  0  0  0  0  0  0
  -19.9477   13.1349  -18.2111 C   0  0  0  0  0  0  0  0  0  0  0  0
  -19.5763   11.9425  -17.6387 C   0  0  0  0  0  0  0  0  0  0  0  0
  -18.6136   11.4092  -18.4613 C   0  0  0  0  0  0  0  0  0  0  0  0
  -17.3477    9.2360  -16.6639 H   0  0  0  0  0  0  0  0  0  0  0  0
  -18.9424    8.7663  -17.2871 H   0  0  0  0  0  0  0  0  0  0  0  0
  -20.0931   11.4156  -16.3709 C   0  0  0  0  0  0  0  0  0  0  0  0
  -21.2000   10.5903  -16.3683 C   0  0  0  0  0  0  0  0  0  0  0  0
  -21.7201   10.1266  -15.1891 C   0  0  0  0  0  0  0  0  0  0  0  0
  -21.1935   10.4397  -13.9551 C   0  0  0  0  0  0  0  0  0  0  0  0
  -20.0883   11.2634  -13.9521 C   0  0  0  0  0  0  0  0  0  0  0  0
  -19.5617   11.7322  -15.1344 C   0  0  0  0  0  0  0  0  0  0  0  0
  -21.7601    9.9420  -12.7862 O   0  0  0  0  0  0  0  0  0  0  0  0
  -23.1292    9.7446  -12.6526 C   0  0  0  0  0  0  0  0  0  0  0  0
  -23.6910    8.4797  -12.6121 C   0  0  0  0  0  0  0  0  0  0  0  0
  -25.0461    8.3507  -12.4782 C   0  0  0  0  0  0  0  0  0  0  0  0
  -25.8599    9.4583  -12.3829 C   0  0  0  0  0  0  0  0  0  0  0  0
  -25.3139   10.7267  -12.4216 C   0  0  0  0  0  0  0  0  0  0  0  0
  -23.9296   10.8613  -12.5587 C   0  0  0  0  0  0  0  0  0  0  0  0
  -19.3689   14.4937  -20.2076 C   0  0  0  0  0  0  0  0  0  0  0  0
  -18.3153   15.5023  -20.1923 C   0  0  0  0  0  0  0  0  0  0  0  0
  -18.5735   16.7575  -19.3805 C   0  0  0  0  0  0  0  0  0  0  0  0
  -19.9340   17.2984  -19.7369 C   0  0  0  0  0  0  0  0  0  0  0  0
  -20.9033   16.2078  -19.2109 C   0  0  0  0  0  0  0  0  0  0  0  0
  -20.7778   15.0510  -20.1429 C   0  0  0  0  0  0  0  0  0  0  0  0
  -20.2791   18.5606  -19.2640 N   0  0  0  0  0  0  0  0  0  0  0  0
  -20.5118   18.6283  -18.2455 H   0  0  0  0  0  0  0  0  0  0  0  0
  -20.1145   19.7549  -19.9401 C   0  0  0  0  0  0  0  0  0  0  0  0
  -19.2698   20.6627  -19.0613 C   0  0  0  0  0  0  0  0  0  0  0  0
  -18.2208   20.1547  -18.3184 O   0  0  0  0  0  0  0  0  0  0  0  0
  -19.5114   21.8874  -18.9963 O   0  0  0  0  0  0  0  0  0  0  0  0
  -17.2777   20.5028  -18.4629 H   0  0  0  0  0  0  0  0  0  0  0  0
  -19.4709   19.7988  -21.2814 C   0  0  0  0  0  0  0  0  0  0  0  0
  -18.1808   20.3418  -21.2486 O   0  0  0  0  0  0  0  0  0  0  0  0
  -17.7376   20.2454  -22.1189 H   0  0  0  0  0  0  0  0  0  0  0  0
  1  2  1  0  0  0
  2  3  2  0  0  0
  3  4  1  0  0  0
  4  5  2  0  0  0
  5  6  1  0  0  0
  6  7  1  0  0  0
  7  8  1  0  0  0
  8  9  2  0  0  0
  9 13  1  0  0  0
 13 14  2  0  0  0
 14 15  1  0  0  0
 15 16  2  0  0  0
 16 19  1  0  0  0
 19 20  1  0  0  0
 20 21  2  0  0  0
 21 22  1  0  0  0
 22 23  2  0  0  0
 23 24  1  0  0  0
 24 25  2  0  0  0
 16 17  1  0  0  0
 17 18  2  0  0  0
  9 10  1  0  0  0
  7 26  1  0  0  0
 26 27  1  0  0  0
 27 28  1  0  0  0
 28 29  1  0  0  0
 29 30  1  0  0  0
 30 31  1  0  0  0
 29 32  1  0  0  0
 32 34  1  0  0  0
 34 39  1  0  0  0
 39 40  1  0  0  0
 34 35  1  0  0  0
 35 36  1  0  0  0
 35 37  2  0  0  0
 10  2  1  0  0  0
 31 26  1  0  0  0
 10  6  2  0  0  0
 18 13  1  0  0  0
 25 20  1  0  0  0
  1 11  1  0  0  0
  1 12  1  0  0  0
 32 33  1  0  0  0
 40 41  1  0  0  0
 36 38  1  0  0  0
M  END
> <minimizedAffinity>
-6.89895

> <CNNscore>
0.3740687668

> <CNNaffinity>
6.6807465553

> <CNN_VS>
2.4990587234

> <CNNaffinity_variance>
0.2064150870

$$$$
[H]OC(=O)[C@]([H])(N([H])[C@]1([H])C([H])([H])C([H])([H])[C@]([H])(n2c([H])c(-c3c([H])c([H])c(Oc4c([H])c([H])c([H])c([H])c4[H])c([H])c3[H])c3c(N([H])[H])nc([H])nc32)C([H])([H])C1([H])[H])C([H])([H])O[H]


 41 45  0  0  0  0  0  0  0  0999 V2000
  -18.1011    9.0842  -17.4210 N   0  0  0  0  0  0  0  0  0  0  0  0
  -18.1385   10.3233  -18.1348 C   0  0  0  0  0  0  0  0  0  0  0  0
  -17.2955   10.4930  -19.1688 N   0  0  0  0  0  0  0  0  0  0  0  0
  -17.3725   11.6492  -19.8365 C   0  0  0  0  0  0  0  0  0  0  0  0
  -18.2315   12.6135  -19.5230 N   0  0  0  0  0  0  0  0  0  0  0  0
  -19.0872   12.4659  -18.4894 C   0  0  0  0  0  0  0  0  0  0  0  0
  -20.0455   13.2219  -17.9469 N   0  0  0  0  0  0  0  0  0  0  0  0
  -20.6113   12.5494  -16.8957 C   0  0  0  0  0  0  0  0  0  0  0  0
  -19.9995   11.3270  -16.7579 C   0  0  0  0  0  0  0  0  0  0  0  0
  -19.0487   11.2638  -17.7479 C   0  0  0  0  0  0  0  0  0  0  0  0
  -17.2816    8.9078  -16.8083 H   0  0  0  0  0  0  0  0  0  0  0  0
  -18.8334    8.3731  -17.4848 H   0  0  0  0  0  0  0  0  0  0  0  0
  -20.2989   10.3445  -15.7106 C   0  0  0  0  0  0  0  0  0  0  0  0
  -21.3337    9.4469  -15.8838 C   0  0  0  0  0  0  0  0  0  0  0  0
  -21.6530    8.5532  -14.8963 C   0  0  0  0  0  0  0  0  0  0  0  0
  -20.9857    8.4853  -13.6928 C   0  0  0  0  0  0  0  0  0  0  0  0
  -19.9518    9.3793  -13.5148 C   0  0  0  0  0  0  0  0  0  0  0  0
  -19.6269   10.2796  -14.5041 C   0  0  0  0  0  0  0  0  0  0  0  0
  -21.3501    7.5581  -12.7220 O   0  0  0  0  0  0  0  0  0  0  0  0
  -21.4592    6.2005  -12.9983 C   0  0  0  0  0  0  0  0  0  0  0  0
  -20.3628    5.4281  -13.3427 C   0  0  0  0  0  0  0  0  0  0  0  0
  -20.5346    4.0963  -13.6024 C   0  0  0  0  0  0  0  0  0  0  0  0
  -21.7800    3.5118  -13.5266 C   0  0  0  0  0  0  0  0  0  0  0  0
  -22.8831    4.2696  -13.1840 C   0  0  0  0  0  0  0  0  0  0  0  0
  -22.7103    5.6308  -12.9185 C   0  0  0  0  0  0  0  0  0  0  0  0
  -20.4554   14.5465  -18.3635 C   0  0  0  0  0  0  0  0  0  0  0  0
  -20.9554   14.7278  -19.7217 C   0  0  0  0  0  0  0  0  0  0  0  0
  -19.9951   15.3172  -20.7375 C   0  0  0  0  0  0  0  0  0  0  0  0
  -19.3584   16.5500  -20.1496 C   0  0  0  0  0  0  0  0  0  0  0  0
  -18.5020   15.9906  -18.9836 C   0  0  0  0  0  0  0  0  0  0  0  0
  -19.4601   15.5975  -17.9112 C   0  0  0  0  0  0  0  0  0  0  0  0
  -18.6063   17.3616  -20.9929 N   0  0  0  0  0  0  0  0  0  0  0  0
  -17.6705   16.9918  -21.2822 H   0  0  0  0  0  0  0  0  0  0  0  0
  -19.0638   18.4780  -21.6674 C   0  0  0  0  0  0  0  0  0  0  0  0
  -18.8544   18.2303  -23.1522 C   0  0  0  0  0  0  0  0  0  0  0  0
  -19.0411   16.9728  -23.6945 O   0  0  0  0  0  0  0  0  0  0  0  0
  -18.5089   19.1632  -23.9090 O   0  0  0  0  0  0  0  0  0  0  0  0
  -19.7257   16.8314  -24.4313 H   0  0  0  0  0  0  0  0  0  0  0  0
  -20.4764   18.9296  -21.5411 C   0  0  0  0  0  0  0  0  0  0  0  0
  -21.2087   18.7636  -22.7228 O   0  0  0  0  0  0  0  0  0  0  0  0
  -22.1603   18.9531  -22.5751 H   0  0  0  0  0  0  0  0  0  0  0  0
  1  2  1  0  0  0
  2  3  2  0  0  0
  3  4  1  0  0  0
  4  5  2  0  0  0
  5  6  1  0  0  0
  6  7  1  0  0  0
  7  8  1  0  0  0
  8  9  2  0  0  0
  9 13  1  0  0  0
 13 14  2  0  0  0
 14 15  1  0  0  0
 15 16  2  0  0  0
 16 19  1  0  0  0
 19 20  1  0  0  0
 20 21  2  0  0  0
 21 22  1  0  0  0
 22 23  2  0  0  0
 23 24  1  0  0  0
 24 25  2  0  0  0
 16 17  1  0  0  0
 17 18  2  0  0  0
  9 10  1  0  0  0
  7 26  1  0  0  0
 26 27  1  0  0  0
 27 28  1  0  0  0
 28 29  1  0  0  0
 29 30  1  0  0  0
 30 31  1  0  0  0
 29 32  1  0  0  0
 32 34  1  0  0  0
 34 39  1  0  0  0
 39 40  1  0  0  0
 34 35  1  0  0  0
 35 36  1  0  0  0
 35 37  2  0  0  0
 10  2  1  0  0  0
 31 26  1  0  0  0
 10  6  2  0  0  0
 18 13  1  0  0  0
 25 20  1  0  0  0
  1 11  1  0  0  0
  1 12  1  0  0  0
 32 33  1  0  0  0
 40 41  1  0  0  0
 36 38  1  0  0  0
M  END
> <minimizedAffinity>
-6.77129

> <CNNscore>
0.3474200666

> <CNNaffinity>
6.5230970383

> <CNN_VS>
2.2662549019

> <CNNaffinity_variance>
0.1738025248

$$$$
[H]OC(=O)[C@]([H])(N([H])[C@]1([H])C([H])([H])C([H])([H])[C@]([H])(n2c([H])c(-c3c([H])c([H])c(Oc4c([H])c([H])c([H])c([H])c4[H])c([H])c3[H])c3c(N([H])[H])nc([H])nc32)C([H])([H])C1([H])[H])C([H])([H])O[H]


 41 45  0  0  0  0  0  0  0  0999 V2000
  -17.1839   10.6653  -21.1971 N   0  0  0  0  0  0  0  0  0  0  0  0
  -17.0668   12.0458  -21.5534 C   0  0  0  0  0  0  0  0  0  0  0  0
  -16.5229   12.3566  -22.7434 N   0  0  0  0  0  0  0  0  0  0  0  0
  -16.4528   13.6534  -23.0631 C   0  0  0  0  0  0  0  0  0  0  0  0
  -16.8910   14.6228  -22.2666 N   0  0  0  0  0  0  0  0  0  0  0  0
  -17.4404   14.3351  -21.0676 C   0  0  0  0  0  0  0  0  0  0  0  0
  -17.9659   15.0596  -20.0760 N   0  0  0  0  0  0  0  0  0  0  0  0
  -18.3897   14.2210  -19.0788 C   0  0  0  0  0  0  0  0  0  0  0  0
  -18.1290   12.9210  -19.4386 C   0  0  0  0  0  0  0  0  0  0  0  0
  -17.5387   12.9805  -20.6780 C   0  0  0  0  0  0  0  0  0  0  0  0
  -16.3119   10.1566  -20.9546 H   0  0  0  0  0  0  0  0  0  0  0  0
  -18.0740   10.1622  -21.1707 H   0  0  0  0  0  0  0  0  0  0  0  0
  -18.3947   11.7432  -18.6055 C   0  0  0  0  0  0  0  0  0  0  0  0
  -17.5052   10.6871  -18.6022 C   0  0  0  0  0  0  0  0  0  0  0  0
  -17.7621    9.5627  -17.8636 C   0  0  0  0  0  0  0  0  0  0  0  0
  -18.8930    9.4062  -17.0923 C   0  0  0  0  0  0  0  0  0  0  0  0
  -19.7842   10.4576  -17.0922 C   0  0  0  0  0  0  0  0  0  0  0  0
  -19.5309   11.5900  -17.8328 C   0  0  0  0  0  0  0  0  0  0  0  0
  -19.1065    8.2429  -16.3602 O   0  0  0  0  0  0  0  0  0  0  0  0
  -19.7732    8.2469  -15.1409 C   0  0  0  0  0  0  0  0  0  0  0  0
  -21.0700    7.7800  -15.0085 C   0  0  0  0  0  0  0  0  0  0  0  0
  -21.6723    7.8095  -13.7808 C   0  0  0  0  0  0  0  0  0  0  0  0
  -21.0097    8.2959  -12.6751 C   0  0  0  0  0  0  0  0  0  0  0  0
  -19.7155    8.7650  -12.7917 C   0  0  0  0  0  0  0  0  0  0  0  0
  -19.0980    8.7362  -14.0451 C   0  0  0  0  0  0  0  0  0  0  0  0
  -18.0877   16.5010  -20.0156 C   0  0  0  0  0  0  0  0  0  0  0  0
  -18.4020   17.1220  -18.7337 C   0  0  0  0  0  0  0  0  0  0  0  0
  -19.8390   17.5533  -18.5098 C   0  0  0  0  0  0  0  0  0  0  0  0
  -20.3027   18.3461  -19.7045 C   0  0  0  0  0  0  0  0  0  0  0  0
  -20.3139   17.2986  -20.8483 C   0  0  0  0  0  0  0  0  0  0  0  0
  -18.8867   17.0347  -21.1888 C   0  0  0  0  0  0  0  0  0  0  0  0
  -21.5190   19.0152  -19.6118 N   0  0  0  0  0  0  0  0  0  0  0  0
  -21.5447   19.8485  -18.9784 H   0  0  0  0  0  0  0  0  0  0  0  0
  -22.6100   18.8371  -20.4416 C   0  0  0  0  0  0  0  0  0  0  0  0
  -23.7205   18.2200  -19.6074 C   0  0  0  0  0  0  0  0  0  0  0  0
  -25.0322   18.2466  -20.0421 O   0  0  0  0  0  0  0  0  0  0  0  0
  -23.4641   17.6769  -18.5112 O   0  0  0  0  0  0  0  0  0  0  0  0
  -25.5415   17.3788  -20.1804 H   0  0  0  0  0  0  0  0  0  0  0  0
  -23.2407   19.9884  -21.1432 C   0  0  0  0  0  0  0  0  0  0  0  0
  -22.5903   20.3205  -22.3377 O   0  0  0  0  0  0  0  0  0  0  0  0
  -23.0967   20.9974  -22.8362 H   0  0  0  0  0  0  0  0  0  0  0  0
  1  2  1  0  0  0
  2  3  2  0  0  0
  3  4  1  0  0  0
  4  5  2  0  0  0
  5  6  1  0  0  0
  6  7  1  0  0  0
  7  8  1  0  0  0
  8  9  2  0  0  0
  9 13  1  0  0  0
 13 14  2  0  0  0
 14 15  1  0  0  0
 15 16  2  0  0  0
 16 19  1  0  0  0
 19 20  1  0  0  0
 20 21  2  0  0  0
 21 22  1  0  0  0
 22 23  2  0  0  0
 23 24  1  0  0  0
 24 25  2  0  0  0
 16 17  1  0  0  0
 17 18  2  0  0  0
  9 10  1  0  0  0
  7 26  1  0  0  0
 26 27  1  0  0  0
 27 28  1  0  0  0
 28 29  1  0  0  0
 29 30  1  0  0  0
 30 31  1  0  0  0
 29 32  1  0  0  0
 32 34  1  0  0  0
 34 39  1  0  0  0
 39 40  1  0  0  0
 34 35  1  0  0  0
 35 36  1  0  0  0
 35 37  2  0  0  0
 10  2  1  0  0  0
 31 26  1  0  0  0
 10  6  2  0  0  0
 18 13  1  0  0  0
 25 20  1  0  0  0
  1 11  1  0  0  0
  1 12  1  0  0  0
 32 33  1  0  0  0
 40 41  1  0  0  0
 36 38  1  0  0  0
M  END
> <minimizedAffinity>
-7.93777

> <CNNscore>
0.3299327791

> <CNNaffinity>
6.8160171509

> <CNN_VS>
2.2488274574

> <CNNaffinity_variance>
0.3322161138

$$$$
[H]c1nc(N([H])c2c([H])c([H])c([H])c(N([H])[H])c2[H])nc([H])c1N([H])C(=O)c1c([H])c(N([H])C(=O)c2c([H])c([H])c([H])c(C(F)(F)F)c2[H])c([H])c([H])c1C([H])([H])[H]


 42 45  0  0  0  0  0  0  0  0999 V2000
  -19.5886   10.1969  -17.2408 C   0  0  0  0  0  0  0  0  0  0  0  0
  -20.2084   11.3807  -16.5969 C   0  0  0  0  0  0  0  0  0  0  0  0
  -21.1269   11.1677  -15.5586 C   0  0  0  0  0  0  0  0  0  0  0  0
  -21.6905   12.2609  -14.9198 C   0  0  0  0  0  0  0  0  0  0  0  0
  -21.3593   13.5278  -15.2926 C   0  0  0  0  0  0  0  0  0  0  0  0
  -20.4314   13.7094  -16.3385 C   0  0  0  0  0  0  0  0  0  0  0  0
  -19.8529   12.6417  -16.9956 C   0  0  0  0  0  0  0  0  0  0  0  0
  -21.9565   14.6695  -14.7010 N   0  0  0  0  0  0  0  0  0  0  0  0
  -22.8020   15.5410  -15.4061 C   0  0  0  0  0  0  0  0  0  0  0  0
  -23.0128   15.2778  -16.6495 O   0  0  0  0  0  0  0  0  0  0  0  0
  -21.7582   14.8842  -13.6878 H   0  0  0  0  0  0  0  0  0  0  0  0
  -23.4631   16.7213  -14.8524 C   0  0  0  0  0  0  0  0  0  0  0  0
  -24.6981   17.1569  -15.2710 C   0  0  0  0  0  0  0  0  0  0  0  0
  -25.3029   18.2885  -14.7167 C   0  0  0  0  0  0  0  0  0  0  0  0
  -24.6794   18.9986  -13.7344 C   0  0  0  0  0  0  0  0  0  0  0  0
  -23.4435   18.5890  -13.2919 C   0  0  0  0  0  0  0  0  0  0  0  0
  -22.8477   17.4631  -13.8481 C   0  0  0  0  0  0  0  0  0  0  0  0
  -22.6900   19.3034  -12.2136 C   0  0  0  0  0  0  0  0  0  0  0  0
  -21.5629   18.6077  -11.8320 F   0  0  0  0  0  0  0  0  0  0  0  0
  -23.5082   19.5458  -11.1058 F   0  0  0  0  0  0  0  0  0  0  0  0
  -22.2748   20.5206  -12.6912 F   0  0  0  0  0  0  0  0  0  0  0  0
  -18.9472   12.8206  -18.1177 C   0  0  0  0  0  0  0  0  0  0  0  0
  -17.7450   13.1434  -17.9192 O   0  0  0  0  0  0  0  0  0  0  0  0
  -19.3363   12.6533  -19.4789 N   0  0  0  0  0  0  0  0  0  0  0  0
  -20.3472   12.4266  -19.6490 H   0  0  0  0  0  0  0  0  0  0  0  0
  -18.4945   12.7793  -20.5927 C   0  0  0  0  0  0  0  0  0  0  0  0
  -18.3495   13.9472  -21.3113 C   0  0  0  0  0  0  0  0  0  0  0  0
  -17.5270   13.9729  -22.3684 N   0  0  0  0  0  0  0  0  0  0  0  0
  -16.8287   12.9325  -22.7824 C   0  0  0  0  0  0  0  0  0  0  0  0
  -16.9727   11.7913  -22.0790 N   0  0  0  0  0  0  0  0  0  0  0  0
  -17.7634   11.6807  -21.0231 C   0  0  0  0  0  0  0  0  0  0  0  0
  -15.9280   12.9319  -23.8595 N   0  0  0  0  0  0  0  0  0  0  0  0
  -15.1204   12.2293  -23.8466 H   0  0  0  0  0  0  0  0  0  0  0  0
  -15.9392   13.7569  -25.0065 C   0  0  0  0  0  0  0  0  0  0  0  0
  -16.7699   13.5959  -26.0978 C   0  0  0  0  0  0  0  0  0  0  0  0
  -16.7131   14.4426  -27.2034 C   0  0  0  0  0  0  0  0  0  0  0  0
  -15.8198   15.4841  -27.2580 C   0  0  0  0  0  0  0  0  0  0  0  0
  -14.9599   15.6773  -26.1683 C   0  0  0  0  0  0  0  0  0  0  0  0
  -14.0462   16.7622  -26.2324 N   0  0  0  0  0  0  0  0  0  0  0  0
  -15.0388   14.8224  -25.0871 C   0  0  0  0  0  0  0  0  0  0  0  0
  -13.0444   16.6104  -25.9746 H   0  0  0  0  0  0  0  0  0  0  0  0
  -14.3286   17.7146  -26.5312 H   0  0  0  0  0  0  0  0  0  0  0  0
  1  2  1  0  0  0
  2  3  2  0  0  0
  3  4  1  0  0  0
  4  5  2  0  0  0
  5  8  1  0  0  0
  8  9  1  0  0  0
  9 10  2  0  0  0
  9 12  1  0  0  0
 12 13  2  0  0  0
 13 14  1  0  0  0
 14 15  2  0  0  0
 15 16  1  0  0  0
 16 17  2  0  0  0
 16 18  1  0  0  0
 18 19  1  0  0  0
 18 20  1  0  0  0
 18 21  1  0  0  0
  5  6  1  0  0  0
  6  7  2  0  0  0
  7 22  1  0  0  0
 22 23  2  0  0  0
 22 24  1  0  0  0
 24 26  1  0  0  0
 26 27  2  0  0  0
 27 28  1  0  0  0
 28 29  2  0  0  0
 29 32  1  0  0  0
 32 34  1  0  0  0
 34 35  2  0  0  0
 35 36  1  0  0  0
 36 37  2  0  0  0
 37 38  1  0  0  0
 38 39  1  0  0  0
 38 40  2  0  0  0
 29 30  1  0  0  0
 30 31  2  0  0  0
  7  2  1  0  0  0
 31 26  1  0  0  0
 17 12  1  0  0  0
 40 34  1  0  0  0
  8 11  1  0  0  0
 24 25  1  0  0  0
 32 33  1  0  0  0
 39 41  1  0  0  0
 39 42  1  0  0  0
M  END
> <minimizedAffinity>
-8.15784

> <CNNscore>
0.2743789256

> <CNNaffinity>
6.6521024704

> <CNN_VS>
1.8251967430

> <CNNaffinity_variance>
0.3872258663

$$$$
[H]c1nc(N([H])c2c([H])c([H])c([H])c(N([H])[H])c2[H])nc([H])c1N([H])C(=O)c1c([H])c(N([H])C(=O)c2c([H])c([H])c([H])c(C(F)(F)F)c2[H])c([H])c([H])c1C([H])([H])[H]


 42 45  0  0  0  0  0  0  0  0999 V2000
  -21.1006   14.2498  -17.4361 C   0  0  0  0  0  0  0  0  0  0  0  0
  -20.8314   13.0724  -16.5751 C   0  0  0  0  0  0  0  0  0  0  0  0
  -21.6779   12.8420  -15.4808 C   0  0  0  0  0  0  0  0  0  0  0  0
  -21.4654   11.7277  -14.6847 C   0  0  0  0  0  0  0  0  0  0  0  0
  -20.4484   10.8647  -14.9580 C   0  0  0  0  0  0  0  0  0  0  0  0
  -19.6158   11.1224  -16.0663 C   0  0  0  0  0  0  0  0  0  0  0  0
  -19.8003   12.2238  -16.8783 C   0  0  0  0  0  0  0  0  0  0  0  0
  -20.1656    9.7457  -14.1345 N   0  0  0  0  0  0  0  0  0  0  0  0
  -19.6015    9.8630  -12.8541 C   0  0  0  0  0  0  0  0  0  0  0  0
  -19.3217   11.0509  -12.4414 O   0  0  0  0  0  0  0  0  0  0  0  0
  -20.3807    8.7780  -14.4940 H   0  0  0  0  0  0  0  0  0  0  0  0
  -19.3036    8.7546  -11.9489 C   0  0  0  0  0  0  0  0  0  0  0  0
  -20.0516    7.6021  -11.8999 C   0  0  0  0  0  0  0  0  0  0  0  0
  -19.7358    6.5599  -11.0238 C   0  0  0  0  0  0  0  0  0  0  0  0
  -18.6655    6.6572  -10.1856 C   0  0  0  0  0  0  0  0  0  0  0  0
  -17.8956    7.7964  -10.2102 C   0  0  0  0  0  0  0  0  0  0  0  0
  -18.2158    8.8292  -11.0835 C   0  0  0  0  0  0  0  0  0  0  0  0
  -16.6990    7.9862   -9.3308 C   0  0  0  0  0  0  0  0  0  0  0  0
  -15.9468    9.0736   -9.7204 F   0  0  0  0  0  0  0  0  0  0  0  0
  -15.9075    6.8337   -9.3046 F   0  0  0  0  0  0  0  0  0  0  0  0
  -17.1220    8.2227   -8.0473 F   0  0  0  0  0  0  0  0  0  0  0  0
  -18.9064   12.5318  -17.9817 C   0  0  0  0  0  0  0  0  0  0  0  0
  -17.8310   13.1555  -17.7736 O   0  0  0  0  0  0  0  0  0  0  0  0
  -19.1697   12.1675  -19.3345 N   0  0  0  0  0  0  0  0  0  0  0  0
  -20.0848   11.6860  -19.5167 H   0  0  0  0  0  0  0  0  0  0  0  0
  -18.3253   12.4094  -20.4270 C   0  0  0  0  0  0  0  0  0  0  0  0
  -18.3785   13.5541  -21.1938 C   0  0  0  0  0  0  0  0  0  0  0  0
  -17.5360   13.6961  -22.2256 N   0  0  0  0  0  0  0  0  0  0  0  0
  -16.6365   12.7942  -22.5702 C   0  0  0  0  0  0  0  0  0  0  0  0
  -16.5867   11.6751  -21.8197 N   0  0  0  0  0  0  0  0  0  0  0  0
  -17.3818   11.4560  -20.7842 C   0  0  0  0  0  0  0  0  0  0  0  0
  -15.7115   12.9246  -23.6183 N   0  0  0  0  0  0  0  0  0  0  0  0
  -14.8047   12.3576  -23.5699 H   0  0  0  0  0  0  0  0  0  0  0  0
  -15.8136   13.7267  -24.7771 C   0  0  0  0  0  0  0  0  0  0  0  0
  -16.7400   13.5565  -25.7868 C   0  0  0  0  0  0  0  0  0  0  0  0
  -16.7704   14.3801  -26.9108 C   0  0  0  0  0  0  0  0  0  0  0  0
  -15.8717   15.4066  -27.0665 C   0  0  0  0  0  0  0  0  0  0  0  0
  -14.9159   15.6084  -26.0616 C   0  0  0  0  0  0  0  0  0  0  0  0
  -13.9971   16.6778  -26.2294 N   0  0  0  0  0  0  0  0  0  0  0  0
  -14.9098   14.7765  -24.9597 C   0  0  0  0  0  0  0  0  0  0  0  0
  -12.9784   16.5160  -26.0582 H   0  0  0  0  0  0  0  0  0  0  0  0
  -14.2922   17.6282  -26.5221 H   0  0  0  0  0  0  0  0  0  0  0  0
  1  2  1  0  0  0
  2  3  2  0  0  0
  3  4  1  0  0  0
  4  5  2  0  0  0
  5  8  1  0  0  0
  8  9  1  0  0  0
  9 10  2  0  0  0
  9 12  1  0  0  0
 12 13  2  0  0  0
 13 14  1  0  0  0
 14 15  2  0  0  0
 15 16  1  0  0  0
 16 17  2  0  0  0
 16 18  1  0  0  0
 18 19  1  0  0  0
 18 20  1  0  0  0
 18 21  1  0  0  0
  5  6  1  0  0  0
  6  7  2  0  0  0
  7 22  1  0  0  0
 22 23  2  0  0  0
 22 24  1  0  0  0
 24 26  1  0  0  0
 26 27  2  0  0  0
 27 28  1  0  0  0
 28 29  2  0  0  0
 29 32  1  0  0  0
 32 34  1  0  0  0
 34 35  2  0  0  0
 35 36  1  0  0  0
 36 37  2  0  0  0
 37 38  1  0  0  0
 38 39  1  0  0  0
 38 40  2  0  0  0
 29 30  1  0  0  0
 30 31  2  0  0  0
  7  2  1  0  0  0
 31 26  1  0  0  0
 17 12  1  0  0  0
 40 34  1  0  0  0
  8 11  1  0  0  0
 24 25  1  0  0  0
 32 33  1  0  0  0
 39 41  1  0  0  0
 39 42  1  0  0  0
M  END
> <minimizedAffinity>
-9.51531

> <CNNscore>
0.2518655360

> <CNNaffinity>
6.4610719681

> <CNN_VS>
1.6273213625

> <CNNaffinity_variance>
0.2008068562

$$$$
[H]c1nc(N([H])c2c([H])c([H])c([H])c(N([H])[H])c2[H])nc([H])c1N([H])C(=O)c1c([H])c(N([H])C(=O)c2c([H])c([H])c([H])c(C(F)(F)F)c2[H])c([H])c([H])c1C([H])([H])[H]


 42 45  0  0  0  0  0  0  0  0999 V2000
  -15.4019   12.7351  -23.2422 C   0  0  0  0  0  0  0  0  0  0  0  0
  -15.9346   14.0978  -22.9987 C   0  0  0  0  0  0  0  0  0  0  0  0
  -15.3752   15.1674  -23.7130 C   0  0  0  0  0  0  0  0  0  0  0  0
  -15.8825   16.4435  -23.5266 C   0  0  0  0  0  0  0  0  0  0  0  0
  -16.9114   16.6606  -22.6618 C   0  0  0  0  0  0  0  0  0  0  0  0
  -17.4539   15.5647  -21.9599 C   0  0  0  0  0  0  0  0  0  0  0  0
  -16.9706   14.2815  -22.1222 C   0  0  0  0  0  0  0  0  0  0  0  0
  -17.4194   17.9588  -22.4032 N   0  0  0  0  0  0  0  0  0  0  0  0
  -18.5173   18.5002  -23.0909 C   0  0  0  0  0  0  0  0  0  0  0  0
  -19.0566   17.7701  -24.0051 O   0  0  0  0  0  0  0  0  0  0  0  0
  -16.9547   18.5531  -21.6664 H   0  0  0  0  0  0  0  0  0  0  0  0
  -19.1012   19.8203  -22.8602 C   0  0  0  0  0  0  0  0  0  0  0  0
  -18.7315   20.6336  -21.8151 C   0  0  0  0  0  0  0  0  0  0  0  0
  -19.3085   21.8925  -21.6265 C   0  0  0  0  0  0  0  0  0  0  0  0
  -20.2630   22.3547  -22.4828 C   0  0  0  0  0  0  0  0  0  0  0  0
  -20.6547   21.5664  -23.5393 C   0  0  0  0  0  0  0  0  0  0  0  0
  -20.0771   20.3152  -23.7206 C   0  0  0  0  0  0  0  0  0  0  0  0
  -21.6898   21.9958  -24.5320 C   0  0  0  0  0  0  0  0  0  0  0  0
  -22.9655   21.7120  -24.0940 F   0  0  0  0  0  0  0  0  0  0  0  0
  -21.4634   21.4063  -25.7797 F   0  0  0  0  0  0  0  0  0  0  0  0
  -21.6099   23.3550  -24.6998 F   0  0  0  0  0  0  0  0  0  0  0  0
  -17.4798   13.1584  -21.3535 C   0  0  0  0  0  0  0  0  0  0  0  0
  -18.0405   12.1914  -21.9360 O   0  0  0  0  0  0  0  0  0  0  0  0
  -17.3894   13.0697  -19.9336 N   0  0  0  0  0  0  0  0  0  0  0  0
  -16.9615   13.8932  -19.4426 H   0  0  0  0  0  0  0  0  0  0  0  0
  -17.8320   11.9947  -19.1504 C   0  0  0  0  0  0  0  0  0  0  0  0
  -18.9636   12.0387  -18.3637 C   0  0  0  0  0  0  0  0  0  0  0  0
  -19.3063   10.9640  -17.6411 N   0  0  0  0  0  0  0  0  0  0  0  0
  -18.6193    9.8374  -17.6274 C   0  0  0  0  0  0  0  0  0  0  0  0
  -17.5127    9.7967  -18.3966 N   0  0  0  0  0  0  0  0  0  0  0  0
  -17.1041   10.8128  -19.1402 C   0  0  0  0  0  0  0  0  0  0  0  0
  -18.9683    8.6786  -16.9155 N   0  0  0  0  0  0  0  0  0  0  0  0
  -18.7413    7.7270  -17.3502 H   0  0  0  0  0  0  0  0  0  0  0  0
  -19.5974    8.5864  -15.6536 C   0  0  0  0  0  0  0  0  0  0  0  0
  -18.9702    8.7522  -14.4347 C   0  0  0  0  0  0  0  0  0  0  0  0
  -19.6548    8.6308  -13.2267 C   0  0  0  0  0  0  0  0  0  0  0  0
  -20.9959    8.3375  -13.1942 C   0  0  0  0  0  0  0  0  0  0  0  0
  -21.6653    8.1613  -14.4128 C   0  0  0  0  0  0  0  0  0  0  0  0
  -23.0534    7.8665  -14.3670 N   0  0  0  0  0  0  0  0  0  0  0  0
  -20.9610    8.2872  -15.5936 C   0  0  0  0  0  0  0  0  0  0  0  0
  -23.4377    7.0940  -14.9576 H   0  0  0  0  0  0  0  0  0  0  0  0
  -23.7164    8.3873  -13.7626 H   0  0  0  0  0  0  0  0  0  0  0  0
  1  2  1  0  0  0
  2  3  2  0  0  0
  3  4  1  0  0  0
  4  5  2  0  0  0
  5  8  1  0  0  0
  8  9  1  0  0  0
  9 10  2  0  0  0
  9 12  1  0  0  0
 12 13  2  0  0  0
 13 14  1  0  0  0
 14 15  2  0  0  0
 15 16  1  0  0  0
 16 17  2  0  0  0
 16 18  1  0  0  0
 18 19  1  0  0  0
 18 20  1  0  0  0
 18 21  1  0  0  0
  5  6  1  0  0  0
  6  7  2  0  0  0
  7 22  1  0  0  0
 22 23  2  0  0  0
 22 24  1  0  0  0
 24 26  1  0  0  0
 26 27  2  0  0  0
 27 28  1  0  0  0
 28 29  2  0  0  0
 29 32  1  0  0  0
 32 34  1  0  0  0
 34 35  2  0  0  0
 35 36  1  0  0  0
 36 37  2  0  0  0
 37 38  1  0  0  0
 38 39  1  0  0  0
 38 40  2  0  0  0
 29 30  1  0  0  0
 30 31  2  0  0  0
  7  2  1  0  0  0
 31 26  1  0  0  0
 17 12  1  0  0  0
 40 34  1  0  0  0
  8 11  1  0  0  0
 24 25  1  0  0  0
 32 33  1  0  0  0
 39 41  1  0  0  0
 39 42  1  0  0  0
M  END
> <minimizedAffinity>
-8.36478

> <CNNscore>
0.2350435108

> <CNNaffinity>
6.3648481369

> <CNN_VS>
1.4960162640

> <CNNaffinity_variance>
0.0257127974

$$$$
[H]c1nc(N([H])c2c([H])c([H])c([H])c(N([H])[H])c2[H])nc([H])c1N([H])C(=O)c1c([H])c(N([H])C(=O)c2c([H])c([H])c([H])c(C(F)(F)F)c2[H])c([H])c([H])c1C([H])([H])[H]


 42 45  0  0  0  0  0  0  0  0999 V2000
  -19.9367   10.6406  -17.0586 C   0  0  0  0  0  0  0  0  0  0  0  0
  -20.4823   11.9156  -16.5324 C   0  0  0  0  0  0  0  0  0  0  0  0
  -21.4059   11.8586  -15.4785 C   0  0  0  0  0  0  0  0  0  0  0  0
  -21.9007   13.0398  -14.9487 C   0  0  0  0  0  0  0  0  0  0  0  0
  -21.4977   14.2430  -15.4423 C   0  0  0  0  0  0  0  0  0  0  0  0
  -20.5665   14.2675  -16.5007 C   0  0  0  0  0  0  0  0  0  0  0  0
  -20.0555   13.1090  -17.0512 C   0  0  0  0  0  0  0  0  0  0  0  0
  -22.0234   15.4698  -14.9641 N   0  0  0  0  0  0  0  0  0  0  0  0
  -23.1407   16.0972  -15.5380 C   0  0  0  0  0  0  0  0  0  0  0  0
  -23.6817   15.5198  -16.5546 O   0  0  0  0  0  0  0  0  0  0  0  0
  -21.5574   15.9416  -14.1442 H   0  0  0  0  0  0  0  0  0  0  0  0
  -23.7430   17.3489  -15.0828 C   0  0  0  0  0  0  0  0  0  0  0  0
  -24.1324   17.5665  -13.7823 C   0  0  0  0  0  0  0  0  0  0  0  0
  -24.7023   18.7779  -13.3807 C   0  0  0  0  0  0  0  0  0  0  0  0
  -24.8889   19.7885  -14.2760 C   0  0  0  0  0  0  0  0  0  0  0  0
  -24.5091   19.6039  -15.5847 C   0  0  0  0  0  0  0  0  0  0  0  0
  -23.9436   18.3964  -15.9773 C   0  0  0  0  0  0  0  0  0  0  0  0
  -24.6700   20.6604  -16.6330 C   0  0  0  0  0  0  0  0  0  0  0  0
  -23.4528   21.1544  -17.0506 F   0  0  0  0  0  0  0  0  0  0  0  0
  -25.4843   21.7012  -16.1757 F   0  0  0  0  0  0  0  0  0  0  0  0
  -25.2840   20.1106  -17.7297 F   0  0  0  0  0  0  0  0  0  0  0  0
  -19.1471   13.1248  -18.1853 C   0  0  0  0  0  0  0  0  0  0  0  0
  -17.9016   13.0591  -18.0032 O   0  0  0  0  0  0  0  0  0  0  0  0
  -19.5800   13.2152  -19.5405 N   0  0  0  0  0  0  0  0  0  0  0  0
  -20.6141   13.3133  -19.6927 H   0  0  0  0  0  0  0  0  0  0  0  0
  -18.7482   13.1987  -20.6687 C   0  0  0  0  0  0  0  0  0  0  0  0
  -18.5567   14.2884  -21.4916 C   0  0  0  0  0  0  0  0  0  0  0  0
  -17.7483   14.1781  -22.5541 N   0  0  0  0  0  0  0  0  0  0  0  0
  -17.1066   13.0716  -22.8784 C   0  0  0  0  0  0  0  0  0  0  0  0
  -17.2959   12.0069  -22.0730 N   0  0  0  0  0  0  0  0  0  0  0  0
  -18.0767   12.0311  -21.0043 C   0  0  0  0  0  0  0  0  0  0  0  0
  -16.2216   12.9294  -23.9590 N   0  0  0  0  0  0  0  0  0  0  0  0
  -15.5242   12.1174  -23.9418 H   0  0  0  0  0  0  0  0  0  0  0  0
  -16.1197   13.7357  -25.1150 C   0  0  0  0  0  0  0  0  0  0  0  0
  -16.8859   13.5969  -26.2553 C   0  0  0  0  0  0  0  0  0  0  0  0
  -16.7178   14.4222  -27.3657 C   0  0  0  0  0  0  0  0  0  0  0  0
  -15.7734   15.4190  -27.3761 C   0  0  0  0  0  0  0  0  0  0  0  0
  -14.9763   15.5885  -26.2359 C   0  0  0  0  0  0  0  0  0  0  0  0
  -14.0089   16.6275  -26.2550 N   0  0  0  0  0  0  0  0  0  0  0  0
  -15.1653   14.7556  -25.1510 C   0  0  0  0  0  0  0  0  0  0  0  0
  -13.0341   16.4324  -25.9312 H   0  0  0  0  0  0  0  0  0  0  0  0
  -14.2251   17.5874  -26.5836 H   0  0  0  0  0  0  0  0  0  0  0  0
  1  2  1  0  0  0
  2  3  2  0  0  0
  3  4  1  0  0  0
  4  5  2  0  0  0
  5  8  1  0  0  0
  8  9  1  0  0  0
  9 10  2  0  0  0
  9 12  1  0  0  0
 12 13  2  0  0  0
 13 14  1  0  0  0
 14 15  2  0  0  0
 15 16  1  0  0  0
 16 17  2  0  0  0
 16 18  1  0  0  0
 18 19  1  0  0  0
 18 20  1  0  0  0
 18 21  1  0  0  0
  5  6  1  0  0  0
  6  7  2  0  0  0
  7 22  1  0  0  0
 22 23  2  0  0  0
 22 24  1  0  0  0
 24 26  1  0  0  0
 26 27  2  0  0  0
 27 28  1  0  0  0
 28 29  2  0  0  0
 29 32  1  0  0  0
 32 34  1  0  0  0
 34 35  2  0  0  0
 35 36  1  0  0  0
 36 37  2  0  0  0
 37 38  1  0  0  0
 38 39  1  0  0  0
 38 40  2  0  0  0
 29 30  1  0  0  0
 30 31  2  0  0  0
  7  2  1  0  0  0
 31 26  1  0  0  0
 17 12  1  0  0  0
 40 34  1  0  0  0
  8 11  1  0  0  0
 24 25  1  0  0  0
 32 33  1  0  0  0
 39 41  1  0  0  0
 39 42  1  0  0  0
M  END
> <minimizedAffinity>
-7.67941

> <CNNscore>
0.2049728930

> <CNNaffinity>
6.6384415627

> <CNN_VS>
1.3607006073

> <CNNaffinity_variance>
0.3286692798

$$$$
[H]c1nc(N([H])c2c([H])c([H])c([H])c(N([H])[H])c2[H])nc([H])c1N([H])C(=O)c1c([H])c(N([H])C(=O)c2c([H])c([H])c([H])c(C(F)(F)F)c2[H])c([H])c([H])c1C([H])([H])[H]


 42 45  0  0  0  0  0  0  0  0999 V2000
  -15.6741   12.7201  -22.9308 C   0  0  0  0  0  0  0  0  0  0  0  0
  -16.3900   14.0039  -22.7320 C   0  0  0  0  0  0  0  0  0  0  0  0
  -15.9491   15.1280  -23.4455 C   0  0  0  0  0  0  0  0  0  0  0  0
  -16.6263   16.3285  -23.3012 C   0  0  0  0  0  0  0  0  0  0  0  0
  -17.7069   16.4199  -22.4780 C   0  0  0  0  0  0  0  0  0  0  0  0
  -18.1271   15.2717  -21.7758 C   0  0  0  0  0  0  0  0  0  0  0  0
  -17.4737   14.0613  -21.8968 C   0  0  0  0  0  0  0  0  0  0  0  0
  -18.3905   17.6430  -22.2619 N   0  0  0  0  0  0  0  0  0  0  0  0
  -19.4333   18.0914  -23.0883 C   0  0  0  0  0  0  0  0  0  0  0  0
  -19.7505   17.3472  -24.0909 O   0  0  0  0  0  0  0  0  0  0  0  0
  -18.1059   18.2520  -21.4494 H   0  0  0  0  0  0  0  0  0  0  0  0
  -20.1899   19.3294  -22.9104 C   0  0  0  0  0  0  0  0  0  0  0  0
  -21.4680   19.5044  -23.3861 C   0  0  0  0  0  0  0  0  0  0  0  0
  -22.1638   20.7013  -23.1947 C   0  0  0  0  0  0  0  0  0  0  0  0
  -21.5896   21.7391  -22.5231 C   0  0  0  0  0  0  0  0  0  0  0  0
  -20.3126   21.5965  -22.0333 C   0  0  0  0  0  0  0  0  0  0  0  0
  -19.6261   20.4036  -22.2277 C   0  0  0  0  0  0  0  0  0  0  0  0
  -19.6073   22.6800  -21.2785 C   0  0  0  0  0  0  0  0  0  0  0  0
  -20.1190   22.8328  -20.0078 F   0  0  0  0  0  0  0  0  0  0  0  0
  -19.6628   23.8928  -21.9724 F   0  0  0  0  0  0  0  0  0  0  0  0
  -18.2841   22.3429  -21.1466 F   0  0  0  0  0  0  0  0  0  0  0  0
  -17.8599   12.8915  -21.1261 C   0  0  0  0  0  0  0  0  0  0  0  0
  -18.3871   11.8994  -21.6976 O   0  0  0  0  0  0  0  0  0  0  0  0
  -17.6807   12.7824  -19.7161 N   0  0  0  0  0  0  0  0  0  0  0  0
  -17.2815   13.6239  -19.2316 H   0  0  0  0  0  0  0  0  0  0  0  0
  -18.0031   11.6649  -18.9337 C   0  0  0  0  0  0  0  0  0  0  0  0
  -17.2420   10.5158  -18.8942 C   0  0  0  0  0  0  0  0  0  0  0  0
  -17.6322    9.4928  -18.1223 N   0  0  0  0  0  0  0  0  0  0  0  0
  -18.7223    9.5065  -17.3788 C   0  0  0  0  0  0  0  0  0  0  0  0
  -19.4657   10.6306  -17.4195 N   0  0  0  0  0  0  0  0  0  0  0  0
  -19.1517   11.6859  -18.1545 C   0  0  0  0  0  0  0  0  0  0  0  0
  -19.1417    8.4713  -16.5280 N   0  0  0  0  0  0  0  0  0  0  0  0
  -18.9648    7.4602  -16.8319 H   0  0  0  0  0  0  0  0  0  0  0  0
  -19.7858    8.5789  -15.2750 C   0  0  0  0  0  0  0  0  0  0  0  0
  -21.0740    8.1639  -15.0012 C   0  0  0  0  0  0  0  0  0  0  0  0
  -21.6496    8.3170  -13.7411 C   0  0  0  0  0  0  0  0  0  0  0  0
  -20.9554    8.8936  -12.7060 C   0  0  0  0  0  0  0  0  0  0  0  0
  -19.6451    9.3280  -12.9478 C   0  0  0  0  0  0  0  0  0  0  0  0
  -18.9342    9.9151  -11.8681 N   0  0  0  0  0  0  0  0  0  0  0  0
  -19.1014    9.1634  -14.2062 C   0  0  0  0  0  0  0  0  0  0  0  0
  -18.4079   10.8058  -12.0190 H   0  0  0  0  0  0  0  0  0  0  0  0
  -18.9140    9.4976  -10.9187 H   0  0  0  0  0  0  0  0  0  0  0  0
  1  2  1  0  0  0
  2  3  2  0  0  0
  3  4  1  0  0  0
  4  5  2  0  0  0
  5  8  1  0  0  0
  8  9  1  0  0  0
  9 10  2  0  0  0
  9 12  1  0  0  0
 12 13  2  0  0  0
 13 14  1  0  0  0
 14 15  2  0  0  0
 15 16  1  0  0  0
 16 17  2  0  0  0
 16 18  1  0  0  0
 18 19  1  0  0  0
 18 20  1  0  0  0
 18 21  1  0  0  0
  5  6  1  0  0  0
  6  7  2  0  0  0
  7 22  1  0  0  0
 22 23  2  0  0  0
 22 24  1  0  0  0
 24 26  1  0  0  0
 26 27  2  0  0  0
 27 28  1  0  0  0
 28 29  2  0  0  0
 29 32  1  0  0  0
 32 34  1  0  0  0
 34 35  2  0  0  0
 35 36  1  0  0  0
 36 37  2  0  0  0
 37 38  1  0  0  0
 38 39  1  0  0  0
 38 40  2  0  0  0
 29 30  1  0  0  0
 30 31  2  0  0  0
  7  2  1  0  0  0
 31 26  1  0  0  0
 17 12  1  0  0  0
 40 34  1  0  0  0
  8 11  1  0  0  0
 24 25  1  0  0  0
 32 33  1  0  0  0
 39 41  1  0  0  0
 39 42  1  0  0  0
M  END
> <minimizedAffinity>
-7.69387

> <CNNscore>
0.1863978505

> <CNNaffinity>
6.2765421867

> <CNN_VS>
1.1699339151

> <CNNaffinity_variance>
0.0431016684

$$$$
[H]c1nc(N([H])c2c([H])c([H])c([H])c(N([H])[H])c2[H])nc([H])c1N([H])C(=O)c1c([H])c(N([H])C(=O)c2c([H])c([H])c([H])c(C(F)(F)F)c2[H])c([H])c([H])c1C([H])([H])[H]


 42 45  0  0  0  0  0  0  0  0999 V2000
  -16.3438   10.5405  -20.3210 C   0  0  0  0  0  0  0  0  0  0  0  0
  -17.0153   11.7571  -20.8396 C   0  0  0  0  0  0  0  0  0  0  0  0
  -16.7146   12.1775  -22.1434 C   0  0  0  0  0  0  0  0  0  0  0  0
  -17.3578   13.2912  -22.6598 C   0  0  0  0  0  0  0  0  0  0  0  0
  -18.2711   13.9718  -21.9139 C   0  0  0  0  0  0  0  0  0  0  0  0
  -18.5535   13.5233  -20.6073 C   0  0  0  0  0  0  0  0  0  0  0  0
  -17.9295   12.4182  -20.0633 C   0  0  0  0  0  0  0  0  0  0  0  0
  -18.9075   15.1471  -22.3869 N   0  0  0  0  0  0  0  0  0  0  0  0
  -18.4396   16.4386  -22.0964 C   0  0  0  0  0  0  0  0  0  0  0  0
  -17.3941   16.5310  -21.3493 O   0  0  0  0  0  0  0  0  0  0  0  0
  -19.7746   15.0565  -22.9802 H   0  0  0  0  0  0  0  0  0  0  0  0
  -19.0360   17.6875  -22.5671 C   0  0  0  0  0  0  0  0  0  0  0  0
  -18.4057   18.9054  -22.4690 C   0  0  0  0  0  0  0  0  0  0  0  0
  -19.0043   20.0800  -22.9331 C   0  0  0  0  0  0  0  0  0  0  0  0
  -20.2421   20.0507  -23.5029 C   0  0  0  0  0  0  0  0  0  0  0  0
  -20.8996   18.8483  -23.6174 C   0  0  0  0  0  0  0  0  0  0  0  0
  -20.2986   17.6841  -23.1532 C   0  0  0  0  0  0  0  0  0  0  0  0
  -22.2573   18.7215  -24.2353 C   0  0  0  0  0  0  0  0  0  0  0  0
  -23.2594   18.8914  -23.3043 F   0  0  0  0  0  0  0  0  0  0  0  0
  -22.4009   17.4904  -24.8827 F   0  0  0  0  0  0  0  0  0  0  0  0
  -22.4100   19.7030  -25.1815 F   0  0  0  0  0  0  0  0  0  0  0  0
  -18.1659   11.9897  -18.6951 C   0  0  0  0  0  0  0  0  0  0  0  0
  -17.7160   12.6652  -17.7306 O   0  0  0  0  0  0  0  0  0  0  0  0
  -18.8958   10.8141  -18.3525 N   0  0  0  0  0  0  0  0  0  0  0  0
  -19.2347   10.2270  -19.1542 H   0  0  0  0  0  0  0  0  0  0  0  0
  -19.1810   10.3774  -17.0514 C   0  0  0  0  0  0  0  0  0  0  0  0
  -20.0142   11.0530  -16.1850 C   0  0  0  0  0  0  0  0  0  0  0  0
  -20.2227   10.5643  -14.9552 N   0  0  0  0  0  0  0  0  0  0  0  0
  -19.6718    9.4543  -14.5018 C   0  0  0  0  0  0  0  0  0  0  0  0
  -18.8567    8.7956  -15.3500 N   0  0  0  0  0  0  0  0  0  0  0  0
  -18.5975    9.2091  -16.5806 C   0  0  0  0  0  0  0  0  0  0  0  0
  -19.8972    8.8907  -13.2357 N   0  0  0  0  0  0  0  0  0  0  0  0
  -20.7263    8.2241  -13.1161 H   0  0  0  0  0  0  0  0  0  0  0  0
  -19.1524    9.0824  -12.0504 C   0  0  0  0  0  0  0  0  0  0  0  0
  -19.1788   10.2183  -11.2657 C   0  0  0  0  0  0  0  0  0  0  0  0
  -18.4025   10.3419  -10.1147 C   0  0  0  0  0  0  0  0  0  0  0  0
  -17.5682    9.3306   -9.7062 C   0  0  0  0  0  0  0  0  0  0  0  0
  -17.5147    8.1628  -10.4791 C   0  0  0  0  0  0  0  0  0  0  0  0
  -16.6548    7.1208  -10.0425 N   0  0  0  0  0  0  0  0  0  0  0  0
  -18.2949    8.0690  -11.6143 C   0  0  0  0  0  0  0  0  0  0  0  0
  -16.0214    6.6512  -10.7292 H   0  0  0  0  0  0  0  0  0  0  0  0
  -16.6211    6.7991   -9.0568 H   0  0  0  0  0  0  0  0  0  0  0  0
  1  2  1  0  0  0
  2  3  2  0  0  0
  3  4  1  0  0  0
  4  5  2  0  0  0
  5  8  1  0  0  0
  8  9  1  0  0  0
  9 10  2  0  0  0
  9 12  1  0  0  0
 12 13  2  0  0  0
 13 14  1  0  0  0
 14 15  2  0  0  0
 15 16  1  0  0  0
 16 17  2  0  0  0
 16 18  1  0  0  0
 18 19  1  0  0  0
 18 20  1  0  0  0
 18 21  1  0  0  0
  5  6  1  0  0  0
  6  7  2  0  0  0
  7 22  1  0  0  0
 22 23  2  0  0  0
 22 24  1  0  0  0
 24 26  1  0  0  0
 26 27  2  0  0  0
 27 28  1  0  0  0
 28 29  2  0  0  0
 29 32  1  0  0  0
 32 34  1  0  0  0
 34 35  2  0  0  0
 35 36  1  0  0  0
 36 37  2  0  0  0
 37 38  1  0  0  0
 38 39  1  0  0  0
 38 40  2  0  0  0
 29 30  1  0  0  0
 30 31  2  0  0  0
  7  2  1  0  0  0
 31 26  1  0  0  0
 17 12  1  0  0  0
 40 34  1  0  0  0
  8 11  1  0  0  0
 24 25  1  0  0  0
 32 33  1  0  0  0
 39 41  1  0  0  0
 39 42  1  0  0  0
M  END
> <minimizedAffinity>
-9.18384

> <CNNscore>
0.1422092766

> <CNNaffinity>
6.0725350380

> <CNN_VS>
0.8635708094

> <CNNaffinity_variance>
0.1483210623

$$$$
[H]c1nc(N([H])c2c([H])c([H])c([H])c(N([H])[H])c2[H])nc([H])c1N([H])C(=O)c1c([H])c(N([H])C(=O)c2c([H])c([H])c([H])c(C(F)(F)F)c2[H])c([H])c([H])c1C([H])([H])[H]


 42 45  0  0  0  0  0  0  0  0999 V2000
  -16.3624   10.4966  -20.2043 C   0  0  0  0  0  0  0  0  0  0  0  0
  -17.0274   11.7145  -20.7282 C   0  0  0  0  0  0  0  0  0  0  0  0
  -16.7073   12.1406  -22.0254 C   0  0  0  0  0  0  0  0  0  0  0  0
  -17.3439   13.2557  -22.5471 C   0  0  0  0  0  0  0  0  0  0  0  0
  -18.2695   13.9320  -21.8125 C   0  0  0  0  0  0  0  0  0  0  0  0
  -18.5714   13.4778  -20.5123 C   0  0  0  0  0  0  0  0  0  0  0  0
  -17.9543   12.3712  -19.9634 C   0  0  0  0  0  0  0  0  0  0  0  0
  -18.9001   15.1084  -22.2905 N   0  0  0  0  0  0  0  0  0  0  0  0
  -18.4042   16.3974  -22.0374 C   0  0  0  0  0  0  0  0  0  0  0  0
  -17.3372   16.4867  -21.3210 O   0  0  0  0  0  0  0  0  0  0  0  0
  -19.7845   15.0209  -22.8581 H   0  0  0  0  0  0  0  0  0  0  0  0
  -18.9935   17.6467  -22.5156 C   0  0  0  0  0  0  0  0  0  0  0  0
  -18.3523   18.8602  -22.4338 C   0  0  0  0  0  0  0  0  0  0  0  0
  -18.9445   20.0354  -22.9045 C   0  0  0  0  0  0  0  0  0  0  0  0
  -20.1868   20.0112  -23.4648 C   0  0  0  0  0  0  0  0  0  0  0  0
  -20.8552   18.8134  -23.5630 C   0  0  0  0  0  0  0  0  0  0  0  0
  -20.2605   17.6486  -23.0922 C   0  0  0  0  0  0  0  0  0  0  0  0
  -22.2184   18.6922  -24.1695 C   0  0  0  0  0  0  0  0  0  0  0  0
  -23.2121   18.8747  -23.2319 F   0  0  0  0  0  0  0  0  0  0  0  0
  -22.3756   17.4582  -24.8083 F   0  0  0  0  0  0  0  0  0  0  0  0
  -22.3718   19.6690  -25.1205 F   0  0  0  0  0  0  0  0  0  0  0  0
  -18.2112   11.9368  -18.6007 C   0  0  0  0  0  0  0  0  0  0  0  0
  -17.7555   12.5948  -17.6270 O   0  0  0  0  0  0  0  0  0  0  0  0
  -18.9684   10.7740  -18.2738 N   0  0  0  0  0  0  0  0  0  0  0  0
  -19.3126   10.2006  -19.0831 H   0  0  0  0  0  0  0  0  0  0  0  0
  -19.2736   10.3329  -16.9788 C   0  0  0  0  0  0  0  0  0  0  0  0
  -20.1518   10.9835  -16.1381 C   0  0  0  0  0  0  0  0  0  0  0  0
  -20.3768   10.4927  -14.9121 N   0  0  0  0  0  0  0  0  0  0  0  0
  -19.8015    9.4034  -14.4389 C   0  0  0  0  0  0  0  0  0  0  0  0
  -18.9424    8.7692  -15.2620 N   0  0  0  0  0  0  0  0  0  0  0  0
  -18.6643    9.1866  -16.4871 C   0  0  0  0  0  0  0  0  0  0  0  0
  -20.0419    8.8374  -13.1767 N   0  0  0  0  0  0  0  0  0  0  0  0
  -21.0296    8.4888  -12.9554 H   0  0  0  0  0  0  0  0  0  0  0  0
  -19.1272    8.6506  -12.1159 C   0  0  0  0  0  0  0  0  0  0  0  0
  -18.4092    7.4961  -11.8748 C   0  0  0  0  0  0  0  0  0  0  0  0
  -17.5341    7.3796  -10.7963 C   0  0  0  0  0  0  0  0  0  0  0  0
  -17.3455    8.4170   -9.9165 C   0  0  0  0  0  0  0  0  0  0  0  0
  -18.0589    9.6044  -10.1296 C   0  0  0  0  0  0  0  0  0  0  0  0
  -17.8497   10.6729   -9.2184 N   0  0  0  0  0  0  0  0  0  0  0  0
  -18.9190    9.6905  -11.2062 C   0  0  0  0  0  0  0  0  0  0  0  0
  -18.6716   11.1868   -8.8266 H   0  0  0  0  0  0  0  0  0  0  0  0
  -16.9041   10.9718   -8.9142 H   0  0  0  0  0  0  0  0  0  0  0  0
  1  2  1  0  0  0
  2  3  2  0  0  0
  3  4  1  0  0  0
  4  5  2  0  0  0
  5  8  1  0  0  0
  8  9  1  0  0  0
  9 10  2  0  0  0
  9 12  1  0  0  0
 12 13  2  0  0  0
 13 14  1  0  0  0
 14 15  2  0  0  0
 15 16  1  0  0  0
 16 17  2  0  0  0
 16 18  1  0  0  0
 18 19  1  0  0  0
 18 20  1  0  0  0
 18 21  1  0  0  0
  5  6  1  0  0  0
  6  7  2  0  0  0
  7 22  1  0  0  0
 22 23  2  0  0  0
 22 24  1  0  0  0
 24 26  1  0  0  0
 26 27  2  0  0  0
 27 28  1  0  0  0
 28 29  2  0  0  0
 29 32  1  0  0  0
 32 34  1  0  0  0
 34 35  2  0  0  0
 35 36  1  0  0  0
 36 37  2  0  0  0
 37 38  1  0  0  0
 38 39  1  0  0  0
 38 40  2  0  0  0
 29 30  1  0  0  0
 30 31  2  0  0  0
  7  2  1  0  0  0
 31 26  1  0  0  0
 17 12  1  0  0  0
 40 34  1  0  0  0
  8 11  1  0  0  0
 24 25  1  0  0  0
 32 33  1  0  0  0
 39 41  1  0  0  0
 39 42  1  0  0  0
M  END
> <minimizedAffinity>
-9.14459

> <CNNscore>
0.1304019839

> <CNNaffinity>
6.0409426689

> <CNN_VS>
0.7877508998

> <CNNaffinity_variance>
0.1528945267

$$$$
[H]c1nc(N([H])c2c([H])c([H])c([H])c(N([H])[H])c2[H])nc([H])c1N([H])C(=O)c1c([H])c(N([H])C(=O)c2c([H])c([H])c([H])c(C(F)(F)F)c2[H])c([H])c([H])c1C([H])([H])[H]


 42 45  0  0  0  0  0  0  0  0999 V2000
  -21.4173   14.4590  -18.1221 C   0  0  0  0  0  0  0  0  0  0  0  0
  -20.3305   14.6853  -19.1059 C   0  0  0  0  0  0  0  0  0  0  0  0
  -20.5236   15.6584  -20.0973 C   0  0  0  0  0  0  0  0  0  0  0  0
  -19.5065   15.9104  -21.0043 C   0  0  0  0  0  0  0  0  0  0  0  0
  -18.3326   15.2240  -20.9373 C   0  0  0  0  0  0  0  0  0  0  0  0
  -18.1678   14.2535  -19.9279 C   0  0  0  0  0  0  0  0  0  0  0  0
  -19.1618   13.9781  -19.0099 C   0  0  0  0  0  0  0  0  0  0  0  0
  -17.2916   15.4143  -21.8808 N   0  0  0  0  0  0  0  0  0  0  0  0
  -17.1723   14.6480  -23.0512 C   0  0  0  0  0  0  0  0  0  0  0  0
  -18.0511   13.7256  -23.2423 O   0  0  0  0  0  0  0  0  0  0  0  0
  -16.5672   16.1592  -21.7008 H   0  0  0  0  0  0  0  0  0  0  0  0
  -16.1373   14.8053  -24.0715 C   0  0  0  0  0  0  0  0  0  0  0  0
  -14.7952   14.8616  -23.7785 C   0  0  0  0  0  0  0  0  0  0  0  0
  -13.8318   15.0092  -24.7802 C   0  0  0  0  0  0  0  0  0  0  0  0
  -14.1994   15.1012  -26.0895 C   0  0  0  0  0  0  0  0  0  0  0  0
  -15.5339   15.0473  -26.4169 C   0  0  0  0  0  0  0  0  0  0  0  0
  -16.4867   14.9010  -25.4155 C   0  0  0  0  0  0  0  0  0  0  0  0
  -16.0273   15.1333  -27.8277 C   0  0  0  0  0  0  0  0  0  0  0  0
  -14.9866   15.1879  -28.7298 F   0  0  0  0  0  0  0  0  0  0  0  0
  -16.8737   16.2336  -27.9970 F   0  0  0  0  0  0  0  0  0  0  0  0
  -16.7562   14.0070  -28.1146 F   0  0  0  0  0  0  0  0  0  0  0  0
  -19.0248   12.9335  -18.0090 C   0  0  0  0  0  0  0  0  0  0  0  0
  -18.5199   13.1936  -16.8837 O   0  0  0  0  0  0  0  0  0  0  0  0
  -19.4337   11.5839  -18.2175 N   0  0  0  0  0  0  0  0  0  0  0  0
  -19.8149   11.3551  -19.1686 H   0  0  0  0  0  0  0  0  0  0  0  0
  -19.3558   10.5497  -17.2744 C   0  0  0  0  0  0  0  0  0  0  0  0
  -18.3950    9.5612  -17.3035 C   0  0  0  0  0  0  0  0  0  0  0  0
  -18.4028    8.6065  -16.3638 N   0  0  0  0  0  0  0  0  0  0  0  0
  -19.2885    8.5424  -15.3877 C   0  0  0  0  0  0  0  0  0  0  0  0
  -20.2277    9.5094  -15.3615 N   0  0  0  0  0  0  0  0  0  0  0  0
  -20.2912   10.4880  -16.2506 C   0  0  0  0  0  0  0  0  0  0  0  0
  -19.3048    7.5820  -14.3637 N   0  0  0  0  0  0  0  0  0  0  0  0
  -19.1428    6.5567  -14.6254 H   0  0  0  0  0  0  0  0  0  0  0  0
  -19.5082    7.7853  -12.9802 C   0  0  0  0  0  0  0  0  0  0  0  0
  -20.6484    7.4407  -12.2817 C   0  0  0  0  0  0  0  0  0  0  0  0
  -20.7836    7.6869  -10.9165 C   0  0  0  0  0  0  0  0  0  0  0  0
  -19.7801    8.2895  -10.1984 C   0  0  0  0  0  0  0  0  0  0  0  0
  -18.6082    8.6542  -10.8750 C   0  0  0  0  0  0  0  0  0  0  0  0
  -17.5743    9.2690  -10.1207 N   0  0  0  0  0  0  0  0  0  0  0  0
  -18.5029    8.3980  -12.2277 C   0  0  0  0  0  0  0  0  0  0  0  0
  -17.1049   10.1270  -10.4903 H   0  0  0  0  0  0  0  0  0  0  0  0
  -17.2586    8.9037   -9.2026 H   0  0  0  0  0  0  0  0  0  0  0  0
  1  2  1  0  0  0
  2  3  2  0  0  0
  3  4  1  0  0  0
  4  5  2  0  0  0
  5  8  1  0  0  0
  8  9  1  0  0  0
  9 10  2  0  0  0
  9 12  1  0  0  0
 12 13  2  0  0  0
 13 14  1  0  0  0
 14 15  2  0  0  0
 15 16  1  0  0  0
 16 17  2  0  0  0
 16 18  1  0  0  0
 18 19  1  0  0  0
 18 20  1  0  0  0
 18 21  1  0  0  0
  5  6  1  0  0  0
  6  7  2  0  0  0
  7 22  1  0  0  0
 22 23  2  0  0  0
 22 24  1  0  0  0
 24 26  1  0  0  0
 26 27  2  0  0  0
 27 28  1  0  0  0
 28 29  2  0  0  0
 29 32  1  0  0  0
 32 34  1  0  0  0
 34 35  2  0  0  0
 35 36  1  0  0  0
 36 37  2  0  0  0
 37 38  1  0  0  0
 38 39  1  0  0  0
 38 40  2  0  0  0
 29 30  1  0  0  0
 30 31  2  0  0  0
  7  2  1  0  0  0
 31 26  1  0  0  0
 17 12  1  0  0  0
 40 34  1  0  0  0
  8 11  1  0  0  0
 24 25  1  0  0  0
 32 33  1  0  0  0
 39 41  1  0  0  0
 39 42  1  0  0  0
M  END
> <minimizedAffinity>
-9.55513

> <CNNscore>
0.1278999895

> <CNNaffinity>
6.1807336807

> <CNN_VS>
0.7905157804

> <CNNaffinity_variance>
0.0642331988

$$$$
[H]c1nc(N([H])c2c([H])c([H])c([H])c(N([H])[H])c2[H])nc([H])c1N([H])C(=O)c1c([H])c(N([H])C(=O)c2c([H])c([H])c([H])c(C(F)(F)F)c2[H])c([H])c([H])c1C([H])([H])[H]


 42 45  0  0  0  0  0  0  0  0999 V2000
  -16.3320   10.0145  -20.6216 C   0  0  0  0  0  0  0  0  0  0  0  0
  -16.9745   11.3357  -20.8256 C   0  0  0  0  0  0  0  0  0  0  0  0
  -16.7808   11.9864  -22.0529 C   0  0  0  0  0  0  0  0  0  0  0  0
  -17.4014   13.2051  -22.2772 C   0  0  0  0  0  0  0  0  0  0  0  0
  -18.1902   13.7674  -21.3205 C   0  0  0  0  0  0  0  0  0  0  0  0
  -18.3672   13.0879  -20.0978 C   0  0  0  0  0  0  0  0  0  0  0  0
  -17.7623   11.8731  -19.8428 C   0  0  0  0  0  0  0  0  0  0  0  0
  -18.7958   15.0378  -21.4917 N   0  0  0  0  0  0  0  0  0  0  0  0
  -18.1415   16.2427  -21.1893 C   0  0  0  0  0  0  0  0  0  0  0  0
  -16.9447   16.1601  -20.7196 O   0  0  0  0  0  0  0  0  0  0  0  0
  -19.7836   15.0891  -21.8574 H   0  0  0  0  0  0  0  0  0  0  0  0
  -18.7003   17.5826  -21.3603 C   0  0  0  0  0  0  0  0  0  0  0  0
  -18.1932   18.6946  -20.7305 C   0  0  0  0  0  0  0  0  0  0  0  0
  -18.7506   19.9623  -20.9198 C   0  0  0  0  0  0  0  0  0  0  0  0
  -19.8230   20.1337  -21.7435 C   0  0  0  0  0  0  0  0  0  0  0  0
  -20.3538   19.0421  -22.3896 C   0  0  0  0  0  0  0  0  0  0  0  0
  -19.7948   17.7842  -22.1963 C   0  0  0  0  0  0  0  0  0  0  0  0
  -21.5251   19.1384  -23.3169 C   0  0  0  0  0  0  0  0  0  0  0  0
  -22.1120   17.9090  -23.5270 F   0  0  0  0  0  0  0  0  0  0  0  0
  -21.1536   19.7128  -24.5366 F   0  0  0  0  0  0  0  0  0  0  0  0
  -22.4748   19.9517  -22.7526 F   0  0  0  0  0  0  0  0  0  0  0  0
  -17.8861   11.1993  -18.5613 C   0  0  0  0  0  0  0  0  0  0  0  0
  -16.8660   10.9932  -17.8503 O   0  0  0  0  0  0  0  0  0  0  0  0
  -19.1255   10.7348  -18.0317 N   0  0  0  0  0  0  0  0  0  0  0  0
  -19.9702   10.8668  -18.6411 H   0  0  0  0  0  0  0  0  0  0  0  0
  -19.3028   10.1124  -16.7883 C   0  0  0  0  0  0  0  0  0  0  0  0
  -18.9500    8.8042  -16.5326 C   0  0  0  0  0  0  0  0  0  0  0  0
  -19.1642    8.2898  -15.3143 N   0  0  0  0  0  0  0  0  0  0  0  0
  -19.7041    8.9631  -14.3161 C   0  0  0  0  0  0  0  0  0  0  0  0
  -20.0492   10.2419  -14.5684 N   0  0  0  0  0  0  0  0  0  0  0  0
  -19.8719   10.8265  -15.7428 C   0  0  0  0  0  0  0  0  0  0  0  0
  -19.9072    8.4714  -13.0168 N   0  0  0  0  0  0  0  0  0  0  0  0
  -20.8823    8.1160  -12.7542 H   0  0  0  0  0  0  0  0  0  0  0  0
  -18.9684    8.3705  -11.9656 C   0  0  0  0  0  0  0  0  0  0  0  0
  -18.2275    7.2455  -11.6621 C   0  0  0  0  0  0  0  0  0  0  0  0
  -17.3289    7.2153  -10.5971 C   0  0  0  0  0  0  0  0  0  0  0  0
  -17.1389    8.3129   -9.7940 C   0  0  0  0  0  0  0  0  0  0  0  0
  -17.8750    9.4726  -10.0718 C   0  0  0  0  0  0  0  0  0  0  0  0
  -17.6642   10.6037   -9.2399 N   0  0  0  0  0  0  0  0  0  0  0  0
  -18.7580    9.4729  -11.1332 C   0  0  0  0  0  0  0  0  0  0  0  0
  -18.4860   11.1313   -8.8665 H   0  0  0  0  0  0  0  0  0  0  0  0
  -16.7174   10.9362   -8.9770 H   0  0  0  0  0  0  0  0  0  0  0  0
  1  2  1  0  0  0
  2  3  2  0  0  0
  3  4  1  0  0  0
  4  5  2  0  0  0
  5  8  1  0  0  0
  8  9  1  0  0  0
  9 10  2  0  0  0
  9 12  1  0  0  0
 12 13  2  0  0  0
 13 14  1  0  0  0
 14 15  2  0  0  0
 15 16  1  0  0  0
 16 17  2  0  0  0
 16 18  1  0  0  0
 18 19  1  0  0  0
 18 20  1  0  0  0
 18 21  1  0  0  0
  5  6  1  0  0  0
  6  7  2  0  0  0
  7 22  1  0  0  0
 22 23  2  0  0  0
 22 24  1  0  0  0
 24 26  1  0  0  0
 26 27  2  0  0  0
 27 28  1  0  0  0
 28 29  2  0  0  0
 29 32  1  0  0  0
 32 34  1  0  0  0
 34 35  2  0  0  0
 35 36  1  0  0  0
 36 37  2  0  0  0
 37 38  1  0  0  0
 38 39  1  0  0  0
 38 40  2  0  0  0
 29 30  1  0  0  0
 30 31  2  0  0  0
  7  2  1  0  0  0
 31 26  1  0  0  0
 17 12  1  0  0  0
 40 34  1  0  0  0
  8 11  1  0  0  0
 24 25  1  0  0  0
 32 33  1  0  0  0
 39 41  1  0  0  0
 39 42  1  0  0  0
M  END
> <minimizedAffinity>
-8.93477

> <CNNscore>
0.1122548804

> <CNNaffinity>
6.0319328308

> <CNN_VS>
0.6771138906

> <CNNaffinity_variance>
0.1613037884

$$$$
