[H]c1c([H])c([H])c(N2C([H])([H])C([H])([H])N(C(=O)C([H])([H])Sc3nnc([H])n3-c3c([H])c([H])c([H])c([H])c3C([H])([H])[H])C([H])([H])C2([H])[H])c([H])c1[H]


 28 31  0  0  0  0  0  0  0  0999 V2000
  -18.1888   16.2134  -21.0775 C   0  0  0  0  0  0  0  0  0  0  0  0
  -19.3996   16.0101  -20.2580 C   0  0  0  0  0  0  0  0  0  0  0  0
  -20.4391   16.6500  -20.5311 O   0  0  0  0  0  0  0  0  0  0  0  0
  -19.4067   15.1062  -19.1720 N   0  0  0  0  0  0  0  0  0  0  0  0
  -18.2127   14.3870  -18.8466 C   0  0  0  0  0  0  0  0  0  0  0  0
  -18.3928   13.4399  -17.6759 C   0  0  0  0  0  0  0  0  0  0  0  0
  -19.6653   12.7612  -17.7353 N   0  0  0  0  0  0  0  0  0  0  0  0
  -20.8271   13.3667  -18.3839 C   0  0  0  0  0  0  0  0  0  0  0  0
  -20.5969   14.8846  -18.3783 C   0  0  0  0  0  0  0  0  0  0  0  0
  -19.8041   11.4888  -17.1513 C   0  0  0  0  0  0  0  0  0  0  0  0
  -20.8006   11.2406  -16.2415 C   0  0  0  0  0  0  0  0  0  0  0  0
  -20.9017    9.9756  -15.6783 C   0  0  0  0  0  0  0  0  0  0  0  0
  -20.0284    8.9598  -16.0081 C   0  0  0  0  0  0  0  0  0  0  0  0
  -19.0202    9.2077  -16.9281 C   0  0  0  0  0  0  0  0  0  0  0  0
  -18.9192   10.4604  -17.4862 C   0  0  0  0  0  0  0  0  0  0  0  0
  -18.3021   15.3487  -22.6723 S   0  0  0  0  0  0  0  0  0  0  0  0
  -16.3630   13.5017  -23.5585 N   0  0  0  0  0  0  0  0  0  0  0  0
  -15.8056   12.3533  -23.1639 C   0  0  0  0  0  0  0  0  0  0  0  0
  -16.3653   12.0250  -21.9915 N   0  0  0  0  0  0  0  0  0  0  0  0
  -17.2367   12.9410  -21.6784 N   0  0  0  0  0  0  0  0  0  0  0  0
  -17.2554   13.8736  -22.6383 C   0  0  0  0  0  0  0  0  0  0  0  0
  -17.8133   12.8098  -25.8534 C   0  0  0  0  0  0  0  0  0  0  0  0
  -16.7595   13.8656  -25.8870 C   0  0  0  0  0  0  0  0  0  0  0  0
  -16.4667   14.5342  -27.0559 C   0  0  0  0  0  0  0  0  0  0  0  0
  -15.4800   15.5143  -27.0581 C   0  0  0  0  0  0  0  0  0  0  0  0
  -14.7713   15.8526  -25.9271 C   0  0  0  0  0  0  0  0  0  0  0  0
  -15.0602   15.1870  -24.7562 C   0  0  0  0  0  0  0  0  0  0  0  0
  -16.0504   14.2038  -24.7557 C   0  0  0  0  0  0  0  0  0  0  0  0
 22 23  1  0  0  0
 23 24  2  0  0  0
 24 25  1  0  0  0
 25 26  2  0  0  0
 26 27  1  0  0  0
 27 28  2  0  0  0
 28 17  1  0  0  0
 17 18  1  0  0  0
 18 19  2  0  0  0
 19 20  1  0  0  0
 20 21  2  0  0  0
 21 16  1  0  0  0
 16  1  1  0  0  0
  1  2  1  0  0  0
  2  3  2  0  0  0
  2  4  1  0  0  0
  4  5  1  0  0  0
  5  6  1  0  0  0
  6  7  1  0  0  0
  7 10  1  0  0  0
 10 11  2  0  0  0
 11 12  1  0  0  0
 12 13  2  0  0  0
 13 14  1  0  0  0
 14 15  2  0  0  0
  7  8  1  0  0  0
  8  9  1  0  0  0
 28 23  1  0  0  0
 21 17  1  0  0  0
  9  4  1  0  0  0
 15 10  1  0  0  0
M  END
> <minimizedAffinity>
-8.47241

> <CNNscore>
0.5681957006

> <CNNaffinity>
6.7669839859

> <CNN_VS>
3.8449711800

> <CNNaffinity_variance>
0.3089617491

$$$$
[H]c1c([H])c([H])c(N2C([H])([H])C([H])([H])N(C(=O)C([H])([H])Sc3nnc([H])n3-c3c([H])c([H])c([H])c([H])c3C([H])([H])[H])C([H])([H])C2([H])[H])c([H])c1[H]


 28 31  0  0  0  0  0  0  0  0999 V2000
  -18.3233   14.9012  -19.9894 C   0  0  0  0  0  0  0  0  0  0  0  0
  -19.6528   15.5107  -19.7902 C   0  0  0  0  0  0  0  0  0  0  0  0
  -20.5911   15.1986  -20.5564 O   0  0  0  0  0  0  0  0  0  0  0  0
  -19.8857   16.4388  -18.7506 N   0  0  0  0  0  0  0  0  0  0  0  0
  -18.8085   16.8111  -17.8847 C   0  0  0  0  0  0  0  0  0  0  0  0
  -19.2276   17.7926  -16.8072 C   0  0  0  0  0  0  0  0  0  0  0  0
  -20.5241   17.4619  -16.2656 N   0  0  0  0  0  0  0  0  0  0  0  0
  -21.5304   16.7604  -17.0607 C   0  0  0  0  0  0  0  0  0  0  0  0
  -21.1924   17.0231  -18.5351 C   0  0  0  0  0  0  0  0  0  0  0  0
  -20.8402   17.8256  -14.9438 C   0  0  0  0  0  0  0  0  0  0  0  0
  -22.1255   17.7181  -14.4761 C   0  0  0  0  0  0  0  0  0  0  0  0
  -22.4027   18.0951  -13.1689 C   0  0  0  0  0  0  0  0  0  0  0  0
  -21.4217   18.5747  -12.3259 C   0  0  0  0  0  0  0  0  0  0  0  0
  -20.1212   18.6842  -12.7958 C   0  0  0  0  0  0  0  0  0  0  0  0
  -19.8458   18.3111  -14.0904 C   0  0  0  0  0  0  0  0  0  0  0  0
  -17.9801   14.5935  -21.7477 S   0  0  0  0  0  0  0  0  0  0  0  0
  -16.1426   12.7715  -22.8703 N   0  0  0  0  0  0  0  0  0  0  0  0
  -15.6769   11.5390  -22.6483 C   0  0  0  0  0  0  0  0  0  0  0  0
  -16.2949   11.0744  -21.5537 N   0  0  0  0  0  0  0  0  0  0  0  0
  -17.1121   11.9912  -21.1198 N   0  0  0  0  0  0  0  0  0  0  0  0
  -17.0369   13.0598  -21.9224 C   0  0  0  0  0  0  0  0  0  0  0  0
  -17.7722   12.8036  -25.1489 C   0  0  0  0  0  0  0  0  0  0  0  0
  -16.5421   13.6434  -25.0593 C   0  0  0  0  0  0  0  0  0  0  0  0
  -16.1693   14.4634  -26.1022 C   0  0  0  0  0  0  0  0  0  0  0  0
  -15.0182   15.2359  -25.9911 C   0  0  0  0  0  0  0  0  0  0  0  0
  -14.2215   15.2185  -24.8683 C   0  0  0  0  0  0  0  0  0  0  0  0
  -14.5899   14.4003  -23.8231 C   0  0  0  0  0  0  0  0  0  0  0  0
  -15.7450   13.6258  -23.9361 C   0  0  0  0  0  0  0  0  0  0  0  0
 22 23  1  0  0  0
 23 24  2  0  0  0
 24 25  1  0  0  0
 25 26  2  0  0  0
 26 27  1  0  0  0
 27 28  2  0  0  0
 28 17  1  0  0  0
 17 18  1  0  0  0
 18 19  2  0  0  0
 19 20  1  0  0  0
 20 21  2  0  0  0
 21 16  1  0  0  0
 16  1  1  0  0  0
  1  2  1  0  0  0
  2  3  2  0  0  0
  2  4  1  0  0  0
  4  5  1  0  0  0
  5  6  1  0  0  0
  6  7  1  0  0  0
  7 10  1  0  0  0
 10 11  2  0  0  0
 11 12  1  0  0  0
 12 13  2  0  0  0
 13 14  1  0  0  0
 14 15  2  0  0  0
  7  8  1  0  0  0
  8  9  1  0  0  0
 28 23  1  0  0  0
 21 17  1  0  0  0
  9  4  1  0  0  0
 15 10  1  0  0  0
M  END
> <minimizedAffinity>
-7.23410

> <CNNscore>
0.5362339020

> <CNNaffinity>
6.2425680161

> <CNN_VS>
3.3474767208

> <CNNaffinity_variance>
0.2728060484

$$$$
[H]c1c([H])c([H])c(N2C([H])([H])C([H])([H])N(C(=O)C([H])([H])Sc3nnc([H])n3-c3c([H])c([H])c([H])c([H])c3C([H])([H])[H])C([H])([H])C2([H])[H])c([H])c1[H]


 28 31  0  0  0  0  0  0  0  0999 V2000
  -17.8875   17.6428  -20.2441 C   0  0  0  0  0  0  0  0  0  0  0  0
  -19.0775   16.7794  -20.3750 C   0  0  0  0  0  0  0  0  0  0  0  0
  -19.9017   17.0061  -21.2882 O   0  0  0  0  0  0  0  0  0  0  0  0
  -19.3027   15.7018  -19.4892 N   0  0  0  0  0  0  0  0  0  0  0  0
  -18.3703   15.4525  -18.4323 C   0  0  0  0  0  0  0  0  0  0  0  0
  -18.7398   14.2473  -17.5892 C   0  0  0  0  0  0  0  0  0  0  0  0
  -19.2330   13.1627  -18.4040 N   0  0  0  0  0  0  0  0  0  0  0  0
  -19.9011   13.4063  -19.6812 C   0  0  0  0  0  0  0  0  0  0  0  0
  -20.4554   14.8369  -19.6256 C   0  0  0  0  0  0  0  0  0  0  0  0
  -19.0790   11.8352  -17.9642 C   0  0  0  0  0  0  0  0  0  0  0  0
  -18.1096   11.0271  -18.5022 C   0  0  0  0  0  0  0  0  0  0  0  0
  -17.9927    9.7195  -18.0505 C   0  0  0  0  0  0  0  0  0  0  0  0
  -18.8238    9.2090  -17.0748 C   0  0  0  0  0  0  0  0  0  0  0  0
  -19.8046   10.0239  -16.5287 C   0  0  0  0  0  0  0  0  0  0  0  0
  -19.9212   11.3192  -16.9756 C   0  0  0  0  0  0  0  0  0  0  0  0
  -16.4434   16.9317  -21.0883 S   0  0  0  0  0  0  0  0  0  0  0  0
  -16.7372   15.8367  -23.6712 N   0  0  0  0  0  0  0  0  0  0  0  0
  -16.9871   16.2430  -24.9193 C   0  0  0  0  0  0  0  0  0  0  0  0
  -17.1393   17.5738  -24.8785 N   0  0  0  0  0  0  0  0  0  0  0  0
  -16.9873   17.9697  -23.6469 N   0  0  0  0  0  0  0  0  0  0  0  0
  -16.7356   16.9067  -22.8734 C   0  0  0  0  0  0  0  0  0  0  0  0
  -14.2628   14.7035  -24.3358 C   0  0  0  0  0  0  0  0  0  0  0  0
  -15.3007   13.9283  -23.5955 C   0  0  0  0  0  0  0  0  0  0  0  0
  -15.0708   12.6236  -23.2160 C   0  0  0  0  0  0  0  0  0  0  0  0
  -16.0559   11.9250  -22.5262 C   0  0  0  0  0  0  0  0  0  0  0  0
  -17.2697   12.4869  -22.1998 C   0  0  0  0  0  0  0  0  0  0  0  0
  -17.5045   13.7907  -22.5771 C   0  0  0  0  0  0  0  0  0  0  0  0
  -16.5152   14.4903  -23.2692 C   0  0  0  0  0  0  0  0  0  0  0  0
 22 23  1  0  0  0
 23 24  2  0  0  0
 24 25  1  0  0  0
 25 26  2  0  0  0
 26 27  1  0  0  0
 27 28  2  0  0  0
 28 17  1  0  0  0
 17 18  1  0  0  0
 18 19  2  0  0  0
 19 20  1  0  0  0
 20 21  2  0  0  0
 21 16  1  0  0  0
 16  1  1  0  0  0
  1  2  1  0  0  0
  2  3  2  0  0  0
  2  4  1  0  0  0
  4  5  1  0  0  0
  5  6  1  0  0  0
  6  7  1  0  0  0
  7 10  1  0  0  0
 10 11  2  0  0  0
 11 12  1  0  0  0
 12 13  2  0  0  0
 13 14  1  0  0  0
 14 15  2  0  0  0
  7  8  1  0  0  0
  8  9  1  0  0  0
 28 23  1  0  0  0
 21 17  1  0  0  0
  9  4  1  0  0  0
 15 10  1  0  0  0
M  END
> <minimizedAffinity>
-8.39423

> <CNNscore>
0.3829767108

> <CNNaffinity>
6.4017763138

> <CNN_VS>
2.4517312050

> <CNNaffinity_variance>
0.1820451021

$$$$
[H]c1c([H])c([H])c(N2C([H])([H])C([H])([H])N(C(=O)C([H])([H])Sc3nnc([H])n3-c3c([H])c([H])c([H])c([H])c3C([H])([H])[H])C([H])([H])C2([H])[H])c([H])c1[H]


 28 31  0  0  0  0  0  0  0  0999 V2000
  -17.3606   12.2454  -19.3847 C   0  0  0  0  0  0  0  0  0  0  0  0
  -17.5680   10.8177  -19.0725 C   0  0  0  0  0  0  0  0  0  0  0  0
  -16.9150    9.9527  -19.6971 O   0  0  0  0  0  0  0  0  0  0  0  0
  -18.4889   10.4100  -18.0815 N   0  0  0  0  0  0  0  0  0  0  0  0
  -19.2504   11.3975  -17.3790 C   0  0  0  0  0  0  0  0  0  0  0  0
  -20.1710   10.8006  -16.3320 C   0  0  0  0  0  0  0  0  0  0  0  0
  -19.5307    9.7222  -15.6175 N   0  0  0  0  0  0  0  0  0  0  0  0
  -18.4848    8.9086  -16.2349 C   0  0  0  0  0  0  0  0  0  0  0  0
  -18.6807    9.0131  -17.7540 C   0  0  0  0  0  0  0  0  0  0  0  0
  -19.9204    9.4334  -14.2968 C   0  0  0  0  0  0  0  0  0  0  0  0
  -19.5027   10.2222  -13.2550 C   0  0  0  0  0  0  0  0  0  0  0  0
  -19.8991    9.9018  -11.9636 C   0  0  0  0  0  0  0  0  0  0  0  0
  -20.7024    8.8121  -11.6978 C   0  0  0  0  0  0  0  0  0  0  0  0
  -21.1267    8.0130  -12.7492 C   0  0  0  0  0  0  0  0  0  0  0  0
  -20.7343    8.3296  -14.0286 C   0  0  0  0  0  0  0  0  0  0  0  0
  -17.6047   12.5905  -21.1525 S   0  0  0  0  0  0  0  0  0  0  0  0
  -18.3703   15.0133  -22.3776 N   0  0  0  0  0  0  0  0  0  0  0  0
  -19.1620   16.0622  -22.1365 C   0  0  0  0  0  0  0  0  0  0  0  0
  -19.7466   15.8513  -20.9493 N   0  0  0  0  0  0  0  0  0  0  0  0
  -19.3270   14.7116  -20.4786 N   0  0  0  0  0  0  0  0  0  0  0  0
  -18.4679   14.1681  -21.3492 C   0  0  0  0  0  0  0  0  0  0  0  0
  -15.8710   16.2789  -22.3992 C   0  0  0  0  0  0  0  0  0  0  0  0
  -16.3372   15.4560  -23.5533 C   0  0  0  0  0  0  0  0  0  0  0  0
  -15.5470   15.2949  -24.6707 C   0  0  0  0  0  0  0  0  0  0  0  0
  -16.0066   14.5217  -25.7314 C   0  0  0  0  0  0  0  0  0  0  0  0
  -17.2348   13.8996  -25.7154 C   0  0  0  0  0  0  0  0  0  0  0  0
  -18.0285   14.0578  -24.6007 C   0  0  0  0  0  0  0  0  0  0  0  0
  -17.5661   14.8340  -23.5373 C   0  0  0  0  0  0  0  0  0  0  0  0
 22 23  1  0  0  0
 23 24  2  0  0  0
 24 25  1  0  0  0
 25 26  2  0  0  0
 26 27  1  0  0  0
 27 28  2  0  0  0
 28 17  1  0  0  0
 17 18  1  0  0  0
 18 19  2  0  0  0
 19 20  1  0  0  0
 20 21  2  0  0  0
 21 16  1  0  0  0
 16  1  1  0  0  0
  1  2  1  0  0  0
  2  3  2  0  0  0
  2  4  1  0  0  0
  4  5  1  0  0  0
  5  6  1  0  0  0
  6  7  1  0  0  0
  7 10  1  0  0  0
 10 11  2  0  0  0
 11 12  1  0  0  0
 12 13  2  0  0  0
 13 14  1  0  0  0
 14 15  2  0  0  0
  7  8  1  0  0  0
  8  9  1  0  0  0
 28 23  1  0  0  0
 21 17  1  0  0  0
  9  4  1  0  0  0
 15 10  1  0  0  0
M  END
> <minimizedAffinity>
-7.16194

> <CNNscore>
0.3776423037

> <CNNaffinity>
6.1783523560

> <CNN_VS>
2.3332071304

> <CNNaffinity_variance>
0.1016890779

$$$$
[H]c1c([H])c([H])c(N2C([H])([H])C([H])([H])N(C(=O)C([H])([H])Sc3nnc([H])n3-c3c([H])c([H])c([H])c([H])c3C([H])([H])[H])C([H])([H])C2([H])[H])c([H])c1[H]


 28 31  0  0  0  0  0  0  0  0999 V2000
  -17.5066   12.2467  -19.5660 C   0  0  0  0  0  0  0  0  0  0  0  0
  -17.9716   11.0858  -18.7817 C   0  0  0  0  0  0  0  0  0  0  0  0
  -17.3882    9.9867  -18.9092 O   0  0  0  0  0  0  0  0  0  0  0  0
  -19.0621   11.1929  -17.8896 N   0  0  0  0  0  0  0  0  0  0  0  0
  -19.7425   12.4451  -17.7564 C   0  0  0  0  0  0  0  0  0  0  0  0
  -20.8692   12.4014  -16.7422 C   0  0  0  0  0  0  0  0  0  0  0  0
  -20.4998   11.6388  -15.5736 N   0  0  0  0  0  0  0  0  0  0  0  0
  -19.5243   10.5524  -15.6445 C   0  0  0  0  0  0  0  0  0  0  0  0
  -19.5089   10.0648  -17.1002 C   0  0  0  0  0  0  0  0  0  0  0  0
  -21.0927   11.9348  -14.3325 C   0  0  0  0  0  0  0  0  0  0  0  0
  -22.1322   12.8262  -14.2477 C   0  0  0  0  0  0  0  0  0  0  0  0
  -22.6868   13.1013  -13.0050 C   0  0  0  0  0  0  0  0  0  0  0  0
  -22.2225   12.5029  -11.8519 C   0  0  0  0  0  0  0  0  0  0  0  0
  -21.1719   11.6009  -11.9346 C   0  0  0  0  0  0  0  0  0  0  0  0
  -20.6219   11.3280  -13.1651 C   0  0  0  0  0  0  0  0  0  0  0  0
  -17.9829   12.1121  -21.3149 S   0  0  0  0  0  0  0  0  0  0  0  0
  -16.3229   13.8450  -22.7977 N   0  0  0  0  0  0  0  0  0  0  0  0
  -15.2179   13.7914  -23.5468 C   0  0  0  0  0  0  0  0  0  0  0  0
  -14.8150   12.5134  -23.5655 N   0  0  0  0  0  0  0  0  0  0  0  0
  -15.6454   11.8076  -22.8523 N   0  0  0  0  0  0  0  0  0  0  0  0
  -16.5953   12.6132  -22.3619 C   0  0  0  0  0  0  0  0  0  0  0  0
  -18.2774   14.5844  -24.6637 C   0  0  0  0  0  0  0  0  0  0  0  0
  -18.0343   15.3884  -23.4305 C   0  0  0  0  0  0  0  0  0  0  0  0
  -18.7683   16.5259  -23.1730 C   0  0  0  0  0  0  0  0  0  0  0  0
  -18.5210   17.2558  -22.0152 C   0  0  0  0  0  0  0  0  0  0  0  0
  -17.5608   16.8872  -21.0998 C   0  0  0  0  0  0  0  0  0  0  0  0
  -16.8243   15.7509  -21.3528 C   0  0  0  0  0  0  0  0  0  0  0  0
  -17.0736   15.0198  -22.5149 C   0  0  0  0  0  0  0  0  0  0  0  0
 22 23  1  0  0  0
 23 24  2  0  0  0
 24 25  1  0  0  0
 25 26  2  0  0  0
 26 27  1  0  0  0
 27 28  2  0  0  0
 28 17  1  0  0  0
 17 18  1  0  0  0
 18 19  2  0  0  0
 19 20  1  0  0  0
 20 21  2  0  0  0
 21 16  1  0  0  0
 16  1  1  0  0  0
  1  2  1  0  0  0
  2  3  2  0  0  0
  2  4  1  0  0  0
  4  5  1  0  0  0
  5  6  1  0  0  0
  6  7  1  0  0  0
  7 10  1  0  0  0
 10 11  2  0  0  0
 11 12  1  0  0  0
 12 13  2  0  0  0
 13 14  1  0  0  0
 14 15  2  0  0  0
  7  8  1  0  0  0
  8  9  1  0  0  0
 28 23  1  0  0  0
 21 17  1  0  0  0
  9  4  1  0  0  0
 15 10  1  0  0  0
M  END
> <minimizedAffinity>
-7.57912

> <CNNscore>
0.2601910830

> <CNNaffinity>
5.9793248177

> <CNN_VS>
1.5557669401

> <CNNaffinity_variance>
0.1871910542

$$$$
[H]c1c([H])c([H])c(N2C([H])([H])C([H])([H])N(C(=O)C([H])([H])Sc3nnc([H])n3-c3c([H])c([H])c([H])c([H])c3C([H])([H])[H])C([H])([H])C2([H])[H])c([H])c1[H]


 28 31  0  0  0  0  0  0  0  0999 V2000
  -19.1979   16.1717  -19.3711 C   0  0  0  0  0  0  0  0  0  0  0  0
  -19.0637   17.4530  -20.0915 C   0  0  0  0  0  0  0  0  0  0  0  0
  -18.0168   18.1245  -19.9578 O   0  0  0  0  0  0  0  0  0  0  0  0
  -20.0944   17.9347  -20.9295 N   0  0  0  0  0  0  0  0  0  0  0  0
  -21.3005   17.1767  -21.0689 C   0  0  0  0  0  0  0  0  0  0  0  0
  -22.2932   17.8141  -22.0219 C   0  0  0  0  0  0  0  0  0  0  0  0
  -21.6341   18.3649  -23.1820 N   0  0  0  0  0  0  0  0  0  0  0  0
  -20.2524   18.8388  -23.1253 C   0  0  0  0  0  0  0  0  0  0  0  0
  -19.9604   19.1789  -21.6570 C   0  0  0  0  0  0  0  0  0  0  0  0
  -22.3318   18.4597  -24.4001 C   0  0  0  0  0  0  0  0  0  0  0  0
  -22.8971   17.3481  -24.9718 C   0  0  0  0  0  0  0  0  0  0  0  0
  -23.5702   17.4774  -26.1792 C   0  0  0  0  0  0  0  0  0  0  0  0
  -23.6874   18.6931  -26.8209 C   0  0  0  0  0  0  0  0  0  0  0  0
  -23.1172   19.8188  -26.2451 C   0  0  0  0  0  0  0  0  0  0  0  0
  -22.4502   19.6916  -25.0492 C   0  0  0  0  0  0  0  0  0  0  0  0
  -17.6166   15.2800  -19.2828 S   0  0  0  0  0  0  0  0  0  0  0  0
  -17.6959   12.8552  -20.7219 N   0  0  0  0  0  0  0  0  0  0  0  0
  -17.4661   12.4056  -21.9590 C   0  0  0  0  0  0  0  0  0  0  0  0
  -17.0931   13.4587  -22.6990 N   0  0  0  0  0  0  0  0  0  0  0  0
  -17.0938   14.5179  -21.9409 N   0  0  0  0  0  0  0  0  0  0  0  0
  -17.4659   14.1698  -20.7032 C   0  0  0  0  0  0  0  0  0  0  0  0
  -16.1554   10.5936  -20.1217 C   0  0  0  0  0  0  0  0  0  0  0  0
  -17.3639   10.9475  -19.3213 C   0  0  0  0  0  0  0  0  0  0  0  0
  -17.7602   10.1661  -18.2577 C   0  0  0  0  0  0  0  0  0  0  0  0
  -18.8904   10.5201  -17.5286 C   0  0  0  0  0  0  0  0  0  0  0  0
  -19.6432   11.6339  -17.8259 C   0  0  0  0  0  0  0  0  0  0  0  0
  -19.2513   12.4182  -18.8884 C   0  0  0  0  0  0  0  0  0  0  0  0
  -18.1171   12.0616  -19.6190 C   0  0  0  0  0  0  0  0  0  0  0  0
 22 23  1  0  0  0
 23 24  2  0  0  0
 24 25  1  0  0  0
 25 26  2  0  0  0
 26 27  1  0  0  0
 27 28  2  0  0  0
 28 17  1  0  0  0
 17 18  1  0  0  0
 18 19  2  0  0  0
 19 20  1  0  0  0
 20 21  2  0  0  0
 21 16  1  0  0  0
 16  1  1  0  0  0
  1  2  1  0  0  0
  2  3  2  0  0  0
  2  4  1  0  0  0
  4  5  1  0  0  0
  5  6  1  0  0  0
  6  7  1  0  0  0
  7 10  1  0  0  0
 10 11  2  0  0  0
 11 12  1  0  0  0
 12 13  2  0  0  0
 13 14  1  0  0  0
 14 15  2  0  0  0
  7  8  1  0  0  0
  8  9  1  0  0  0
 28 23  1  0  0  0
 21 17  1  0  0  0
  9  4  1  0  0  0
 15 10  1  0  0  0
M  END
> <minimizedAffinity>
-8.05889

> <CNNscore>
0.2256115675

> <CNNaffinity>
5.6433677673

> <CNN_VS>
1.2732090950

> <CNNaffinity_variance>
0.3046742380

$$$$
[H]c1c([H])c([H])c(N2C([H])([H])C([H])([H])N(C(=O)C([H])([H])Sc3nnc([H])n3-c3c([H])c([H])c([H])c([H])c3C([H])([H])[H])C([H])([H])C2([H])[H])c([H])c1[H]


 28 31  0  0  0  0  0  0  0  0999 V2000
  -17.3279   16.2078  -20.0222 C   0  0  0  0  0  0  0  0  0  0  0  0
  -17.2182   17.4823  -20.7587 C   0  0  0  0  0  0  0  0  0  0  0  0
  -16.0879   17.9805  -20.9563 O   0  0  0  0  0  0  0  0  0  0  0  0
  -18.3649   18.1492  -21.2451 N   0  0  0  0  0  0  0  0  0  0  0  0
  -19.6602   17.5900  -21.0037 C   0  0  0  0  0  0  0  0  0  0  0  0
  -20.7815   18.4098  -21.6125 C   0  0  0  0  0  0  0  0  0  0  0  0
  -20.4266   18.9011  -22.9225 N   0  0  0  0  0  0  0  0  0  0  0  0
  -19.0362   19.1565  -23.2943 C   0  0  0  0  0  0  0  0  0  0  0  0
  -18.2633   19.3875  -21.9881 C   0  0  0  0  0  0  0  0  0  0  0  0
  -21.4364   19.1511  -23.8698 C   0  0  0  0  0  0  0  0  0  0  0  0
  -22.3946   18.2065  -24.1380 C   0  0  0  0  0  0  0  0  0  0  0  0
  -23.3704   18.4839  -25.0858 C   0  0  0  0  0  0  0  0  0  0  0  0
  -23.4045   19.6837  -25.7660 C   0  0  0  0  0  0  0  0  0  0  0  0
  -22.4373   20.6408  -25.4966 C   0  0  0  0  0  0  0  0  0  0  0  0
  -21.4703   20.3668  -24.5581 C   0  0  0  0  0  0  0  0  0  0  0  0
  -17.3462   14.7797  -21.1466 S   0  0  0  0  0  0  0  0  0  0  0  0
  -18.7285   13.0761  -19.3736 N   0  0  0  0  0  0  0  0  0  0  0  0
  -18.6343   11.8373  -18.8818 C   0  0  0  0  0  0  0  0  0  0  0  0
  -17.5448   11.2781  -19.4259 N   0  0  0  0  0  0  0  0  0  0  0  0
  -16.9898   12.1450  -20.2239 N   0  0  0  0  0  0  0  0  0  0  0  0
  -17.7076   13.2747  -20.2100 C   0  0  0  0  0  0  0  0  0  0  0  0
  -18.4743   14.4595  -16.9508 C   0  0  0  0  0  0  0  0  0  0  0  0
  -19.6288   14.6969  -17.8657 C   0  0  0  0  0  0  0  0  0  0  0  0
  -20.6102   15.6087  -17.5425 C   0  0  0  0  0  0  0  0  0  0  0  0
  -21.6747   15.8104  -18.4145 C   0  0  0  0  0  0  0  0  0  0  0  0
  -21.7943   15.1297  -19.6053 C   0  0  0  0  0  0  0  0  0  0  0  0
  -20.8159   14.2171  -19.9329 C   0  0  0  0  0  0  0  0  0  0  0  0
  -19.7485   14.0158  -19.0569 C   0  0  0  0  0  0  0  0  0  0  0  0
 22 23  1  0  0  0
 23 24  2  0  0  0
 24 25  1  0  0  0
 25 26  2  0  0  0
 26 27  1  0  0  0
 27 28  2  0  0  0
 28 17  1  0  0  0
 17 18  1  0  0  0
 18 19  2  0  0  0
 19 20  1  0  0  0
 20 21  2  0  0  0
 21 16  1  0  0  0
 16  1  1  0  0  0
  1  2  1  0  0  0
  2  3  2  0  0  0
  2  4  1  0  0  0
  4  5  1  0  0  0
  5  6  1  0  0  0
  6  7  1  0  0  0
  7 10  1  0  0  0
 10 11  2  0  0  0
 11 12  1  0  0  0
 12 13  2  0  0  0
 13 14  1  0  0  0
 14 15  2  0  0  0
  7  8  1  0  0  0
  8  9  1  0  0  0
 28 23  1  0  0  0
 21 17  1  0  0  0
  9  4  1  0  0  0
 15 10  1  0  0  0
M  END
> <minimizedAffinity>
-6.66789

> <CNNscore>
0.2207649797

> <CNNaffinity>
5.8945670128

> <CNN_VS>
1.3013139963

> <CNNaffinity_variance>
0.1433123648

$$$$
[H]c1c([H])c([H])c(N2C([H])([H])C([H])([H])N(C(=O)C([H])([H])Sc3nnc([H])n3-c3c([H])c([H])c([H])c([H])c3C([H])([H])[H])C([H])([H])C2([H])[H])c([H])c1[H]


 28 31  0  0  0  0  0  0  0  0999 V2000
  -19.4401   16.0154  -18.4816 C   0  0  0  0  0  0  0  0  0  0  0  0
  -18.8811   16.6369  -19.6982 C   0  0  0  0  0  0  0  0  0  0  0  0
  -17.7041   16.3778  -20.0333 O   0  0  0  0  0  0  0  0  0  0  0  0
  -19.6501   17.5178  -20.4913 N   0  0  0  0  0  0  0  0  0  0  0  0
  -20.9908   17.8298  -20.0991 C   0  0  0  0  0  0  0  0  0  0  0  0
  -21.6883   18.7653  -21.0678 C   0  0  0  0  0  0  0  0  0  0  0  0
  -21.3835   18.4307  -22.4385 N   0  0  0  0  0  0  0  0  0  0  0  0
  -20.1251   17.7853  -22.8080 C   0  0  0  0  0  0  0  0  0  0  0  0
  -19.1162   18.1129  -21.6981 C   0  0  0  0  0  0  0  0  0  0  0  0
  -22.3099   18.7358  -23.4525 C   0  0  0  0  0  0  0  0  0  0  0  0
  -22.6007   17.8220  -24.4336 C   0  0  0  0  0  0  0  0  0  0  0  0
  -23.5130   18.1609  -25.4238 C   0  0  0  0  0  0  0  0  0  0  0  0
  -24.1365   19.3913  -25.4491 C   0  0  0  0  0  0  0  0  0  0  0  0
  -23.8448   20.3171  -24.4582 C   0  0  0  0  0  0  0  0  0  0  0  0
  -22.9412   19.9823  -23.4772 C   0  0  0  0  0  0  0  0  0  0  0  0
  -18.2758   14.8387  -17.7308 S   0  0  0  0  0  0  0  0  0  0  0  0
  -19.0369   12.1240  -17.8190 N   0  0  0  0  0  0  0  0  0  0  0  0
  -19.8618   11.2840  -17.1869 C   0  0  0  0  0  0  0  0  0  0  0  0
  -20.4884   11.9879  -16.2342 N   0  0  0  0  0  0  0  0  0  0  0  0
  -20.0623   13.2179  -16.2812 N   0  0  0  0  0  0  0  0  0  0  0  0
  -19.1567   13.3302  -17.2603 C   0  0  0  0  0  0  0  0  0  0  0  0
  -19.7752   13.0313  -20.3646 C   0  0  0  0  0  0  0  0  0  0  0  0
  -18.5381   12.2241  -20.1540 C   0  0  0  0  0  0  0  0  0  0  0  0
  -17.7185   11.8986  -21.2130 C   0  0  0  0  0  0  0  0  0  0  0  0
  -16.5712   11.1455  -20.9875 C   0  0  0  0  0  0  0  0  0  0  0  0
  -16.2112   10.7036  -19.7342 C   0  0  0  0  0  0  0  0  0  0  0  0
  -17.0273   11.0263  -18.6724 C   0  0  0  0  0  0  0  0  0  0  0  0
  -18.1782   11.7818  -18.9003 C   0  0  0  0  0  0  0  0  0  0  0  0
 22 23  1  0  0  0
 23 24  2  0  0  0
 24 25  1  0  0  0
 25 26  2  0  0  0
 26 27  1  0  0  0
 27 28  2  0  0  0
 28 17  1  0  0  0
 17 18  1  0  0  0
 18 19  2  0  0  0
 19 20  1  0  0  0
 20 21  2  0  0  0
 21 16  1  0  0  0
 16  1  1  0  0  0
  1  2  1  0  0  0
  2  3  2  0  0  0
  2  4  1  0  0  0
  4  5  1  0  0  0
  5  6  1  0  0  0
  6  7  1  0  0  0
  7 10  1  0  0  0
 10 11  2  0  0  0
 11 12  1  0  0  0
 12 13  2  0  0  0
 13 14  1  0  0  0
 14 15  2  0  0  0
  7  8  1  0  0  0
  8  9  1  0  0  0
 28 23  1  0  0  0
 21 17  1  0  0  0
  9  4  1  0  0  0
 15 10  1  0  0  0
M  END
> <minimizedAffinity>
-7.75554

> <CNNscore>
0.2160294652

> <CNNaffinity>
5.4447674751

> <CNN_VS>
1.1762301922

> <CNNaffinity_variance>
0.4201307893

$$$$
[H]c1c([H])c([H])c(N2C([H])([H])C([H])([H])N(C(=O)C([H])([H])Sc3nnc([H])n3-c3c([H])c([H])c([H])c([H])c3C([H])([H])[H])C([H])([H])C2([H])[H])c([H])c1[H]


 28 31  0  0  0  0  0  0  0  0999 V2000
  -17.3527   14.0266  -21.8633 C   0  0  0  0  0  0  0  0  0  0  0  0
  -18.1338   13.3815  -20.7898 C   0  0  0  0  0  0  0  0  0  0  0  0
  -18.0621   12.1417  -20.6401 O   0  0  0  0  0  0  0  0  0  0  0  0
  -18.9599   14.1376  -19.9282 N   0  0  0  0  0  0  0  0  0  0  0  0
  -19.0575   15.5539  -20.1100 C   0  0  0  0  0  0  0  0  0  0  0  0
  -19.9603   16.2206  -19.0900 C   0  0  0  0  0  0  0  0  0  0  0  0
  -19.7742   15.6608  -17.7727 N   0  0  0  0  0  0  0  0  0  0  0  0
  -19.3343   14.2798  -17.5822 C   0  0  0  0  0  0  0  0  0  0  0  0
  -19.7108   13.5146  -18.8588 C   0  0  0  0  0  0  0  0  0  0  0  0
  -20.0267   16.4524  -16.6373 C   0  0  0  0  0  0  0  0  0  0  0  0
  -21.1281   16.2206  -15.8527 C   0  0  0  0  0  0  0  0  0  0  0  0
  -21.3507   17.0277  -14.7452 C   0  0  0  0  0  0  0  0  0  0  0  0
  -20.4950   18.0568  -14.4103 C   0  0  0  0  0  0  0  0  0  0  0  0
  -19.3804   18.2932  -15.2014 C   0  0  0  0  0  0  0  0  0  0  0  0
  -19.1592   17.4944  -16.2987 C   0  0  0  0  0  0  0  0  0  0  0  0
  -16.4218   12.8108  -22.8426 S   0  0  0  0  0  0  0  0  0  0  0  0
  -17.3107   13.9729  -25.2543 N   0  0  0  0  0  0  0  0  0  0  0  0
  -17.6464   13.6003  -26.4928 C   0  0  0  0  0  0  0  0  0  0  0  0
  -17.4958   12.2705  -26.5597 N   0  0  0  0  0  0  0  0  0  0  0  0
  -17.0822   11.8424  -25.4011 N   0  0  0  0  0  0  0  0  0  0  0  0
  -16.9585   12.8833  -24.5688 C   0  0  0  0  0  0  0  0  0  0  0  0
  -14.8997   15.3956  -25.3616 C   0  0  0  0  0  0  0  0  0  0  0  0
  -16.1422   16.0094  -24.8087 C   0  0  0  0  0  0  0  0  0  0  0  0
  -16.1391   17.3019  -24.3306 C   0  0  0  0  0  0  0  0  0  0  0  0
  -17.3120   17.8489  -23.8214 C   0  0  0  0  0  0  0  0  0  0  0  0
  -18.4952   17.1466  -23.7727 C   0  0  0  0  0  0  0  0  0  0  0  0
  -18.5035   15.8541  -24.2492 C   0  0  0  0  0  0  0  0  0  0  0  0
  -17.3259   15.3067  -24.7597 C   0  0  0  0  0  0  0  0  0  0  0  0
 22 23  1  0  0  0
 23 24  2  0  0  0
 24 25  1  0  0  0
 25 26  2  0  0  0
 26 27  1  0  0  0
 27 28  2  0  0  0
 28 17  1  0  0  0
 17 18  1  0  0  0
 18 19  2  0  0  0
 19 20  1  0  0  0
 20 21  2  0  0  0
 21 16  1  0  0  0
 16  1  1  0  0  0
  1  2  1  0  0  0
  2  3  2  0  0  0
  2  4  1  0  0  0
  4  5  1  0  0  0
  5  6  1  0  0  0
  6  7  1  0  0  0
  7 10  1  0  0  0
 10 11  2  0  0  0
 11 12  1  0  0  0
 12 13  2  0  0  0
 13 14  1  0  0  0
 14 15  2  0  0  0
  7  8  1  0  0  0
  8  9  1  0  0  0
 28 23  1  0  0  0
 21 17  1  0  0  0
  9  4  1  0  0  0
 15 10  1  0  0  0
M  END
> <minimizedAffinity>
-7.22831

> <CNNscore>
0.2066019475

> <CNNaffinity>
6.2162098885

> <CNN_VS>
1.2842810154

> <CNNaffinity_variance>
0.2013646364

$$$$
[H]OC(C([H])([H])[H])(C([H])([H])[H])C([H])([H])C([H])([H])N([H])S(=O)(=O)c1c([H])c([H])c(C([H])([H])[H])c(-c2c([H])nc(N([H])[H])c(-c3onc(C([H])([H])[H])c3[H])c2[H])c1[H]


 34 36  0  0  0  0  0  0  0  0999 V2000
  -18.6208   11.0797  -18.2721 C   0  0  0  0  0  0  0  0  0  0  0  0
  -18.8089    9.9784  -17.4285 C   0  0  0  0  0  0  0  0  0  0  0  0
  -19.7083   10.0097  -16.3837 C   0  0  0  0  0  0  0  0  0  0  0  0
  -20.4507   11.1372  -16.1427 C   0  0  0  0  0  0  0  0  0  0  0  0
  -20.2848   12.2348  -16.9586 C   0  0  0  0  0  0  0  0  0  0  0  0
  -19.3656   12.1981  -18.0243 C   0  0  0  0  0  0  0  0  0  0  0  0
  -19.2197   13.3902  -18.9018 C   0  0  0  0  0  0  0  0  0  0  0  0
  -16.8574   11.8180  -21.4694 C   0  0  0  0  0  0  0  0  0  0  0  0
  -17.7904   11.8951  -20.4252 C   0  0  0  0  0  0  0  0  0  0  0  0
  -17.6511   11.0303  -19.3604 C   0  0  0  0  0  0  0  0  0  0  0  0
  -16.6017   10.1322  -19.3749 C   0  0  0  0  0  0  0  0  0  0  0  0
  -15.7199   10.0712  -20.3786 N   0  0  0  0  0  0  0  0  0  0  0  0
  -15.8438   10.9198  -21.4388 C   0  0  0  0  0  0  0  0  0  0  0  0
  -14.8906   10.8205  -22.4759 N   0  0  0  0  0  0  0  0  0  0  0  0
  -15.0012   10.1885  -23.3021 H   0  0  0  0  0  0  0  0  0  0  0  0
  -14.0276   11.3899  -22.4453 H   0  0  0  0  0  0  0  0  0  0  0  0
  -18.1137   15.7885  -24.3692 C   0  0  0  0  0  0  0  0  0  0  0  0
  -17.5933   14.4796  -23.8706 C   0  0  0  0  0  0  0  0  0  0  0  0
  -17.6602   13.9877  -22.5529 C   0  0  0  0  0  0  0  0  0  0  0  0
  -17.0623   12.7665  -22.5725 C   0  0  0  0  0  0  0  0  0  0  0  0
  -16.6606   12.5342  -23.8151 O   0  0  0  0  0  0  0  0  0  0  0  0
  -16.9676   13.5221  -24.5605 N   0  0  0  0  0  0  0  0  0  0  0  0
  -19.8987    8.5877  -15.3564 S   0  0  0  0  0  0  0  0  0  0  0  0
  -21.2390    8.7219  -14.6708 O   0  0  0  0  0  0  0  0  0  0  0  0
  -19.8295    7.3620  -16.1967 O   0  0  0  0  0  0  0  0  0  0  0  0
  -18.6922    8.6521  -14.1545 N   0  0  0  0  0  0  0  0  0  0  0  0
  -18.2272    9.6039  -14.2332 H   0  0  0  0  0  0  0  0  0  0  0  0
  -19.2230    8.4761  -12.8180 C   0  0  0  0  0  0  0  0  0  0  0  0
  -19.1113    9.7131  -11.9875 C   0  0  0  0  0  0  0  0  0  0  0  0
  -18.5966    9.4628  -10.6096 C   0  0  0  0  0  0  0  0  0  0  0  0
  -19.6493    9.2929   -9.5625 C   0  0  0  0  0  0  0  0  0  0  0  0
  -17.7260    8.2299  -10.6279 C   0  0  0  0  0  0  0  0  0  0  0  0
  -17.7801   10.5286  -10.2263 O   0  0  0  0  0  0  0  0  0  0  0  0
  -17.0134   10.2321   -9.6961 H   0  0  0  0  0  0  0  0  0  0  0  0
 17 18  1  0  0  0
 18 19  1  0  0  0
 19 20  2  0  0  0
 20  8  1  0  0  0
  8  9  2  0  0  0
  9 10  1  0  0  0
 10  1  1  0  0  0
  1  2  2  0  0  0
  2  3  1  0  0  0
  3 23  1  0  0  0
 23 24  2  0  0  0
 23 25  2  0  0  0
 23 26  1  0  0  0
 26 28  1  0  0  0
 28 29  1  0  0  0
 29 30  1  0  0  0
 30 31  1  0  0  0
 30 32  1  0  0  0
 30 33  1  0  0  0
  3  4  2  0  0  0
  4  5  1  0  0  0
  5  6  2  0  0  0
  6  7  1  0  0  0
 10 11  2  0  0  0
 11 12  1  0  0  0
 12 13  2  0  0  0
 13 14  1  0  0  0
 20 21  1  0  0  0
 21 22  1  0  0  0
 22 18  2  0  0  0
 13  8  1  0  0  0
  6  1  1  0  0  0
 26 27  1  0  0  0
 33 34  1  0  0  0
 14 15  1  0  0  0
 14 16  1  0  0  0
M  END
> <minimizedAffinity>
-9.26563

> <CNNscore>
0.9596504569

> <CNNaffinity>
7.1263527870

> <CNN_VS>
6.8388075829

> <CNNaffinity_variance>
0.0788712353

$$$$
[H]OC(C([H])([H])[H])(C([H])([H])[H])C([H])([H])C([H])([H])N([H])S(=O)(=O)c1c([H])c([H])c(C([H])([H])[H])c(-c2c([H])nc(N([H])[H])c(-c3onc(C([H])([H])[H])c3[H])c2[H])c1[H]


 34 36  0  0  0  0  0  0  0  0999 V2000
  -18.9102   11.7991  -18.2585 C   0  0  0  0  0  0  0  0  0  0  0  0
  -19.4390   13.0950  -18.2302 C   0  0  0  0  0  0  0  0  0  0  0  0
  -20.4429   13.4503  -17.3542 C   0  0  0  0  0  0  0  0  0  0  0  0
  -20.9546   12.5289  -16.4769 C   0  0  0  0  0  0  0  0  0  0  0  0
  -20.4513   11.2465  -16.4841 C   0  0  0  0  0  0  0  0  0  0  0  0
  -19.4260   10.8884  -17.3802 C   0  0  0  0  0  0  0  0  0  0  0  0
  -18.8872    9.5023  -17.3543 C   0  0  0  0  0  0  0  0  0  0  0  0
  -16.7594   11.7578  -21.2999 C   0  0  0  0  0  0  0  0  0  0  0  0
  -17.7643   12.1309  -20.3956 C   0  0  0  0  0  0  0  0  0  0  0  0
  -17.8607   11.4408  -19.2058 C   0  0  0  0  0  0  0  0  0  0  0  0
  -16.9647   10.4177  -18.9640 C   0  0  0  0  0  0  0  0  0  0  0  0
  -16.0116   10.0739  -19.8369 N   0  0  0  0  0  0  0  0  0  0  0  0
  -15.9029   10.7469  -21.0179 C   0  0  0  0  0  0  0  0  0  0  0  0
  -14.8822   10.3505  -21.9095 N   0  0  0  0  0  0  0  0  0  0  0  0
  -15.0095    9.6131  -22.6406 H   0  0  0  0  0  0  0  0  0  0  0  0
  -13.9489   10.7940  -21.8620 H   0  0  0  0  0  0  0  0  0  0  0  0
  -17.5145   15.0987  -25.0442 C   0  0  0  0  0  0  0  0  0  0  0  0
  -17.0104   13.9712  -24.2031 C   0  0  0  0  0  0  0  0  0  0  0  0
  -17.4515   13.6121  -22.9150 C   0  0  0  0  0  0  0  0  0  0  0  0
  -16.7109   12.5325  -22.5473 C   0  0  0  0  0  0  0  0  0  0  0  0
  -15.8789   12.2563  -23.5427 O   0  0  0  0  0  0  0  0  0  0  0  0
  -16.0535   13.0862  -24.4949 N   0  0  0  0  0  0  0  0  0  0  0  0
  -21.0667   15.1008  -17.3685 S   0  0  0  0  0  0  0  0  0  0  0  0
  -22.4299   15.0571  -16.7172 O   0  0  0  0  0  0  0  0  0  0  0  0
  -20.1294   15.9865  -16.6267 O   0  0  0  0  0  0  0  0  0  0  0  0
  -21.2835   15.5582  -18.9959 N   0  0  0  0  0  0  0  0  0  0  0  0
  -22.2995   15.8488  -19.1031 H   0  0  0  0  0  0  0  0  0  0  0  0
  -20.4179   16.6507  -19.3908 C   0  0  0  0  0  0  0  0  0  0  0  0
  -19.2407   16.1920  -20.1883 C   0  0  0  0  0  0  0  0  0  0  0  0
  -17.9518   16.8100  -19.7600 C   0  0  0  0  0  0  0  0  0  0  0  0
  -16.7424   16.3188  -20.4875 C   0  0  0  0  0  0  0  0  0  0  0  0
  -18.0459   18.3069  -19.9288 C   0  0  0  0  0  0  0  0  0  0  0  0
  -17.7596   16.5680  -18.3983 O   0  0  0  0  0  0  0  0  0  0  0  0
  -17.3444   17.3287  -17.9449 H   0  0  0  0  0  0  0  0  0  0  0  0
 17 18  1  0  0  0
 18 19  1  0  0  0
 19 20  2  0  0  0
 20  8  1  0  0  0
  8  9  2  0  0  0
  9 10  1  0  0  0
 10  1  1  0  0  0
  1  2  2  0  0  0
  2  3  1  0  0  0
  3 23  1  0  0  0
 23 24  2  0  0  0
 23 25  2  0  0  0
 23 26  1  0  0  0
 26 28  1  0  0  0
 28 29  1  0  0  0
 29 30  1  0  0  0
 30 31  1  0  0  0
 30 32  1  0  0  0
 30 33  1  0  0  0
  3  4  2  0  0  0
  4  5  1  0  0  0
  5  6  2  0  0  0
  6  7  1  0  0  0
 10 11  2  0  0  0
 11 12  1  0  0  0
 12 13  2  0  0  0
 13 14  1  0  0  0
 20 21  1  0  0  0
 21 22  1  0  0  0
 22 18  2  0  0  0
 13  8  1  0  0  0
  6  1  1  0  0  0
 26 27  1  0  0  0
 33 34  1  0  0  0
 14 15  1  0  0  0
 14 16  1  0  0  0
M  END
> <minimizedAffinity>
-9.09197

> <CNNscore>
0.8306550980

> <CNNaffinity>
7.2075967789

> <CNN_VS>
5.9870271683

> <CNNaffinity_variance>
0.0648892671

$$$$
[H]OC(C([H])([H])[H])(C([H])([H])[H])C([H])([H])C([H])([H])N([H])S(=O)(=O)c1c([H])c([H])c(C([H])([H])[H])c(-c2c([H])nc(N([H])[H])c(-c3onc(C([H])([H])[H])c3[H])c2[H])c1[H]


 34 36  0  0  0  0  0  0  0  0999 V2000
  -19.0663   12.6236  -18.8355 C   0  0  0  0  0  0  0  0  0  0  0  0
  -19.5307   11.9378  -17.7068 C   0  0  0  0  0  0  0  0  0  0  0  0
  -20.5257   12.4528  -16.9030 C   0  0  0  0  0  0  0  0  0  0  0  0
  -21.0924   13.6671  -17.1945 C   0  0  0  0  0  0  0  0  0  0  0  0
  -20.6536   14.3622  -18.3001 C   0  0  0  0  0  0  0  0  0  0  0  0
  -19.6376   13.8322  -19.1181 C   0  0  0  0  0  0  0  0  0  0  0  0
  -19.1956   14.5942  -20.3165 C   0  0  0  0  0  0  0  0  0  0  0  0
  -16.6843   12.1067  -21.6526 C   0  0  0  0  0  0  0  0  0  0  0  0
  -17.7003   12.6683  -20.8659 C   0  0  0  0  0  0  0  0  0  0  0  0
  -18.0005   12.0679  -19.6615 C   0  0  0  0  0  0  0  0  0  0  0  0
  -17.2872   10.9447  -19.2903 C   0  0  0  0  0  0  0  0  0  0  0  0
  -16.3207   10.4211  -20.0520 N   0  0  0  0  0  0  0  0  0  0  0  0
  -16.0118   11.0034  -21.2458 C   0  0  0  0  0  0  0  0  0  0  0  0
  -14.9847   10.4172  -22.0174 N   0  0  0  0  0  0  0  0  0  0  0  0
  -15.1525    9.6643  -22.7241 H   0  0  0  0  0  0  0  0  0  0  0  0
  -14.0048   10.7274  -21.9005 H   0  0  0  0  0  0  0  0  0  0  0  0
  -15.4904   15.4579  -25.2714 C   0  0  0  0  0  0  0  0  0  0  0  0
  -15.9006   14.2269  -24.5304 C   0  0  0  0  0  0  0  0  0  0  0  0
  -16.0135   14.0761  -23.1349 C   0  0  0  0  0  0  0  0  0  0  0  0
  -16.4141   12.7941  -22.9226 C   0  0  0  0  0  0  0  0  0  0  0  0
  -16.5355   12.2083  -24.1065 O   0  0  0  0  0  0  0  0  0  0  0  0
  -16.2393   13.0356  -25.0305 N   0  0  0  0  0  0  0  0  0  0  0  0
  -21.0668   11.5386  -15.4941 S   0  0  0  0  0  0  0  0  0  0  0  0
  -22.1052   12.3871  -14.7966 O   0  0  0  0  0  0  0  0  0  0  0  0
  -21.6288   10.2355  -15.9405 O   0  0  0  0  0  0  0  0  0  0  0  0
  -19.7369   11.3758  -14.4408 N   0  0  0  0  0  0  0  0  0  0  0  0
  -19.2595   12.3235  -14.3960 H   0  0  0  0  0  0  0  0  0  0  0  0
  -20.1254   10.9604  -13.1082 C   0  0  0  0  0  0  0  0  0  0  0  0
  -20.5810    9.5383  -13.0593 C   0  0  0  0  0  0  0  0  0  0  0  0
  -19.4608    8.5527  -13.0432 C   0  0  0  0  0  0  0  0  0  0  0  0
  -18.6174    8.5740  -11.8096 C   0  0  0  0  0  0  0  0  0  0  0  0
  -20.0264    7.1647  -13.2212 C   0  0  0  0  0  0  0  0  0  0  0  0
  -18.6258    8.7923  -14.1364 O   0  0  0  0  0  0  0  0  0  0  0  0
  -18.2790    7.9633  -14.5225 H   0  0  0  0  0  0  0  0  0  0  0  0
 17 18  1  0  0  0
 18 19  1  0  0  0
 19 20  2  0  0  0
 20  8  1  0  0  0
  8  9  2  0  0  0
  9 10  1  0  0  0
 10  1  1  0  0  0
  1  2  2  0  0  0
  2  3  1  0  0  0
  3 23  1  0  0  0
 23 24  2  0  0  0
 23 25  2  0  0  0
 23 26  1  0  0  0
 26 28  1  0  0  0
 28 29  1  0  0  0
 29 30  1  0  0  0
 30 31  1  0  0  0
 30 32  1  0  0  0
 30 33  1  0  0  0
  3  4  2  0  0  0
  4  5  1  0  0  0
  5  6  2  0  0  0
  6  7  1  0  0  0
 10 11  2  0  0  0
 11 12  1  0  0  0
 12 13  2  0  0  0
 13 14  1  0  0  0
 20 21  1  0  0  0
 21 22  1  0  0  0
 22 18  2  0  0  0
 13  8  1  0  0  0
  6  1  1  0  0  0
 26 27  1  0  0  0
 33 34  1  0  0  0
 14 15  1  0  0  0
 14 16  1  0  0  0
M  END
> <minimizedAffinity>
-8.17944

> <CNNscore>
0.7285178900

> <CNNaffinity>
6.8588705063

> <CNN_VS>
4.9968099594

> <CNNaffinity_variance>
0.1348638535

$$$$
[H]OC(C([H])([H])[H])(C([H])([H])[H])C([H])([H])C([H])([H])N([H])S(=O)(=O)c1c([H])c([H])c(C([H])([H])[H])c(-c2c([H])nc(N([H])[H])c(-c3onc(C([H])([H])[H])c3[H])c2[H])c1[H]


 34 36  0  0  0  0  0  0  0  0999 V2000
  -17.7085   14.2634  -22.5691 C   0  0  0  0  0  0  0  0  0  0  0  0
  -17.9243   15.4980  -21.9454 C   0  0  0  0  0  0  0  0  0  0  0  0
  -18.1887   16.6409  -22.6701 C   0  0  0  0  0  0  0  0  0  0  0  0
  -18.2475   16.5945  -24.0394 C   0  0  0  0  0  0  0  0  0  0  0  0
  -18.0392   15.3916  -24.6778 C   0  0  0  0  0  0  0  0  0  0  0  0
  -17.7698   14.2272  -23.9337 C   0  0  0  0  0  0  0  0  0  0  0  0
  -17.5677   12.9376  -24.6466 C   0  0  0  0  0  0  0  0  0  0  0  0
  -17.8179   11.6863  -19.8814 C   0  0  0  0  0  0  0  0  0  0  0  0
  -18.1310   12.8291  -20.6314 C   0  0  0  0  0  0  0  0  0  0  0  0
  -17.4129   13.0707  -21.7834 C   0  0  0  0  0  0  0  0  0  0  0  0
  -16.4221   12.1771  -22.1409 C   0  0  0  0  0  0  0  0  0  0  0  0
  -16.1355   11.0913  -21.4146 N   0  0  0  0  0  0  0  0  0  0  0  0
  -16.8368   10.8381  -20.2729 C   0  0  0  0  0  0  0  0  0  0  0  0
  -16.5007    9.6806  -19.5374 N   0  0  0  0  0  0  0  0  0  0  0  0
  -15.7742    9.6662  -18.7848 H   0  0  0  0  0  0  0  0  0  0  0  0
  -16.9806    8.7846  -19.7297 H   0  0  0  0  0  0  0  0  0  0  0  0
  -20.9192   12.2053  -15.8984 C   0  0  0  0  0  0  0  0  0  0  0  0
  -19.9647   11.6741  -16.9179 C   0  0  0  0  0  0  0  0  0  0  0  0
  -19.4382   12.3644  -18.0265 C   0  0  0  0  0  0  0  0  0  0  0  0
  -18.6196   11.4872  -18.6665 C   0  0  0  0  0  0  0  0  0  0  0  0
  -18.6479   10.3447  -17.9932 O   0  0  0  0  0  0  0  0  0  0  0  0
  -19.4231   10.4550  -16.9869 N   0  0  0  0  0  0  0  0  0  0  0  0
  -18.4516   18.1668  -21.8238 S   0  0  0  0  0  0  0  0  0  0  0  0
  -17.3090   18.3258  -20.8472 O   0  0  0  0  0  0  0  0  0  0  0  0
  -18.4897   19.2769  -22.8134 O   0  0  0  0  0  0  0  0  0  0  0  0
  -19.8891   18.0168  -20.9207 N   0  0  0  0  0  0  0  0  0  0  0  0
  -20.3754   17.1344  -21.2570 H   0  0  0  0  0  0  0  0  0  0  0  0
  -19.6483   17.9295  -19.4947 C   0  0  0  0  0  0  0  0  0  0  0  0
  -19.7163   16.5266  -18.9851 C   0  0  0  0  0  0  0  0  0  0  0  0
  -21.0863   15.9377  -19.0385 C   0  0  0  0  0  0  0  0  0  0  0  0
  -21.2553   14.8169  -20.0125 C   0  0  0  0  0  0  0  0  0  0  0  0
  -21.4626   15.4462  -17.6620 C   0  0  0  0  0  0  0  0  0  0  0  0
  -22.0006   16.9380  -19.3746 O   0  0  0  0  0  0  0  0  0  0  0  0
  -22.8499   16.8340  -18.9006 H   0  0  0  0  0  0  0  0  0  0  0  0
 17 18  1  0  0  0
 18 19  1  0  0  0
 19 20  2  0  0  0
 20  8  1  0  0  0
  8  9  2  0  0  0
  9 10  1  0  0  0
 10  1  1  0  0  0
  1  2  2  0  0  0
  2  3  1  0  0  0
  3 23  1  0  0  0
 23 24  2  0  0  0
 23 25  2  0  0  0
 23 26  1  0  0  0
 26 28  1  0  0  0
 28 29  1  0  0  0
 29 30  1  0  0  0
 30 31  1  0  0  0
 30 32  1  0  0  0
 30 33  1  0  0  0
  3  4  2  0  0  0
  4  5  1  0  0  0
  5  6  2  0  0  0
  6  7  1  0  0  0
 10 11  2  0  0  0
 11 12  1  0  0  0
 12 13  2  0  0  0
 13 14  1  0  0  0
 20 21  1  0  0  0
 21 22  1  0  0  0
 22 18  2  0  0  0
 13  8  1  0  0  0
  6  1  1  0  0  0
 26 27  1  0  0  0
 33 34  1  0  0  0
 14 15  1  0  0  0
 14 16  1  0  0  0
M  END
> <minimizedAffinity>
-7.85293

> <CNNscore>
0.5056350827

> <CNNaffinity>
6.9304642677

> <CNN_VS>
3.5042858124

> <CNNaffinity_variance>
0.2639852762

$$$$
[H]OC(C([H])([H])[H])(C([H])([H])[H])C([H])([H])C([H])([H])N([H])S(=O)(=O)c1c([H])c([H])c(C([H])([H])[H])c(-c2c([H])nc(N([H])[H])c(-c3onc(C([H])([H])[H])c3[H])c2[H])c1[H]


 34 36  0  0  0  0  0  0  0  0999 V2000
  -18.3658   13.4021  -20.7826 C   0  0  0  0  0  0  0  0  0  0  0  0
  -19.2108   14.4867  -20.5188 C   0  0  0  0  0  0  0  0  0  0  0  0
  -19.2896   15.5690  -21.3695 C   0  0  0  0  0  0  0  0  0  0  0  0
  -18.5308   15.6093  -22.5110 C   0  0  0  0  0  0  0  0  0  0  0  0
  -17.6912   14.5543  -22.7941 C   0  0  0  0  0  0  0  0  0  0  0  0
  -17.6143   13.4512  -21.9227 C   0  0  0  0  0  0  0  0  0  0  0  0
  -16.7140   12.3167  -22.2615 C   0  0  0  0  0  0  0  0  0  0  0  0
  -18.9947   11.1736  -17.8645 C   0  0  0  0  0  0  0  0  0  0  0  0
  -19.1015   12.2571  -18.7484 C   0  0  0  0  0  0  0  0  0  0  0  0
  -18.2854   12.2757  -19.8596 C   0  0  0  0  0  0  0  0  0  0  0  0
  -17.4044   11.2284  -20.0468 C   0  0  0  0  0  0  0  0  0  0  0  0
  -17.3147   10.2018  -19.1943 N   0  0  0  0  0  0  0  0  0  0  0  0
  -18.1151   10.1686  -18.0907 C   0  0  0  0  0  0  0  0  0  0  0  0
  -17.9868    9.0660  -17.2180 N   0  0  0  0  0  0  0  0  0  0  0  0
  -17.3182    9.0419  -16.4137 H   0  0  0  0  0  0  0  0  0  0  0  0
  -18.5706    8.2232  -17.3553 H   0  0  0  0  0  0  0  0  0  0  0  0
  -22.5625   10.2590  -14.3736 C   0  0  0  0  0  0  0  0  0  0  0  0
  -21.4361   10.8496  -15.1579 C   0  0  0  0  0  0  0  0  0  0  0  0
  -20.8897   10.3569  -16.3585 C   0  0  0  0  0  0  0  0  0  0  0  0
  -19.8918   11.2146  -16.7017 C   0  0  0  0  0  0  0  0  0  0  0  0
  -19.8367   12.1610  -15.7741 O   0  0  0  0  0  0  0  0  0  0  0  0
  -20.7270   11.9486  -14.8863 N   0  0  0  0  0  0  0  0  0  0  0  0
  -20.3747   16.9049  -20.9801 S   0  0  0  0  0  0  0  0  0  0  0  0
  -20.6993   17.5970  -22.2840 O   0  0  0  0  0  0  0  0  0  0  0  0
  -21.5962   16.3692  -20.3212 O   0  0  0  0  0  0  0  0  0  0  0  0
  -19.5110   18.0070  -20.0085 N   0  0  0  0  0  0  0  0  0  0  0  0
  -20.2170   18.7027  -19.6268 H   0  0  0  0  0  0  0  0  0  0  0  0
  -18.8171   17.3627  -18.9120 C   0  0  0  0  0  0  0  0  0  0  0  0
  -19.5680   17.4542  -17.6235 C   0  0  0  0  0  0  0  0  0  0  0  0
  -19.5486   16.1907  -16.8301 C   0  0  0  0  0  0  0  0  0  0  0  0
  -20.7360   15.3041  -17.0235 C   0  0  0  0  0  0  0  0  0  0  0  0
  -18.3011   15.4143  -17.1750 C   0  0  0  0  0  0  0  0  0  0  0  0
  -19.4664   16.5054  -15.4722 O   0  0  0  0  0  0  0  0  0  0  0  0
  -18.9043   15.8727  -14.9817 H   0  0  0  0  0  0  0  0  0  0  0  0
 17 18  1  0  0  0
 18 19  1  0  0  0
 19 20  2  0  0  0
 20  8  1  0  0  0
  8  9  2  0  0  0
  9 10  1  0  0  0
 10  1  1  0  0  0
  1  2  2  0  0  0
  2  3  1  0  0  0
  3 23  1  0  0  0
 23 24  2  0  0  0
 23 25  2  0  0  0
 23 26  1  0  0  0
 26 28  1  0  0  0
 28 29  1  0  0  0
 29 30  1  0  0  0
 30 31  1  0  0  0
 30 32  1  0  0  0
 30 33  1  0  0  0
  3  4  2  0  0  0
  4  5  1  0  0  0
  5  6  2  0  0  0
  6  7  1  0  0  0
 10 11  2  0  0  0
 11 12  1  0  0  0
 12 13  2  0  0  0
 13 14  1  0  0  0
 20 21  1  0  0  0
 21 22  1  0  0  0
 22 18  2  0  0  0
 13  8  1  0  0  0
  6  1  1  0  0  0
 26 27  1  0  0  0
 33 34  1  0  0  0
 14 15  1  0  0  0
 14 16  1  0  0  0
M  END
> <minimizedAffinity>
-7.85497

> <CNNscore>
0.4884403944

> <CNNaffinity>
6.7116980553

> <CNN_VS>
3.2782645226

> <CNNaffinity_variance>
0.0602677874

$$$$
[H]OC(C([H])([H])[H])(C([H])([H])[H])C([H])([H])C([H])([H])N([H])S(=O)(=O)c1c([H])c([H])c(C([H])([H])[H])c(-c2c([H])nc(N([H])[H])c(-c3onc(C([H])([H])[H])c3[H])c2[H])c1[H]


 34 36  0  0  0  0  0  0  0  0999 V2000
  -17.6999   14.1952  -22.6710 C   0  0  0  0  0  0  0  0  0  0  0  0
  -18.0182   15.4945  -22.2582 C   0  0  0  0  0  0  0  0  0  0  0  0
  -18.1849   16.5227  -23.1618 C   0  0  0  0  0  0  0  0  0  0  0  0
  -18.0408   16.2935  -24.5061 C   0  0  0  0  0  0  0  0  0  0  0  0
  -17.7280   15.0234  -24.9386 C   0  0  0  0  0  0  0  0  0  0  0  0
  -17.5590   13.9766  -24.0124 C   0  0  0  0  0  0  0  0  0  0  0  0
  -17.2404   12.6106  -24.5072 C   0  0  0  0  0  0  0  0  0  0  0  0
  -17.9021   12.2001  -19.5316 C   0  0  0  0  0  0  0  0  0  0  0  0
  -18.1122   13.2300  -20.4600 C   0  0  0  0  0  0  0  0  0  0  0  0
  -17.5107   13.1268  -21.6964 C   0  0  0  0  0  0  0  0  0  0  0  0
  -16.7320   12.0165  -21.9589 C   0  0  0  0  0  0  0  0  0  0  0  0
  -16.5415   11.0425  -21.0625 N   0  0  0  0  0  0  0  0  0  0  0  0
  -17.1296   11.1296  -19.8353 C   0  0  0  0  0  0  0  0  0  0  0  0
  -16.9013   10.0787  -18.9202 N   0  0  0  0  0  0  0  0  0  0  0  0
  -16.1004   10.0637  -18.2474 H   0  0  0  0  0  0  0  0  0  0  0  0
  -17.5421    9.2672  -18.8896 H   0  0  0  0  0  0  0  0  0  0  0  0
  -20.8700   11.7756  -15.4374 C   0  0  0  0  0  0  0  0  0  0  0  0
  -19.8466   12.2190  -16.4316 C   0  0  0  0  0  0  0  0  0  0  0  0
  -19.5731   11.6356  -17.6837 C   0  0  0  0  0  0  0  0  0  0  0  0
  -18.5707   12.3710  -18.2346 C   0  0  0  0  0  0  0  0  0  0  0  0
  -18.2580   13.3330  -17.3766 O   0  0  0  0  0  0  0  0  0  0  0  0
  -18.9941   13.2432  -16.3393 N   0  0  0  0  0  0  0  0  0  0  0  0
  -18.5857   18.1387  -22.5772 S   0  0  0  0  0  0  0  0  0  0  0  0
  -17.5613   18.4867  -21.5218 O   0  0  0  0  0  0  0  0  0  0  0  0
  -18.5512   19.0954  -23.7159 O   0  0  0  0  0  0  0  0  0  0  0  0
  -20.1072   18.0505  -21.8144 N   0  0  0  0  0  0  0  0  0  0  0  0
  -20.4018   17.0301  -21.8280 H   0  0  0  0  0  0  0  0  0  0  0  0
  -20.0779   18.5330  -20.4486 C   0  0  0  0  0  0  0  0  0  0  0  0
  -20.0585   17.4241  -19.4475 C   0  0  0  0  0  0  0  0  0  0  0  0
  -18.9575   17.5418  -18.4474 C   0  0  0  0  0  0  0  0  0  0  0  0
  -19.3929   17.4914  -17.0186 C   0  0  0  0  0  0  0  0  0  0  0  0
  -17.9555   16.4392  -18.6892 C   0  0  0  0  0  0  0  0  0  0  0  0
  -18.2858   18.7495  -18.6475 O   0  0  0  0  0  0  0  0  0  0  0  0
  -17.3229   18.6636  -18.4981 H   0  0  0  0  0  0  0  0  0  0  0  0
 17 18  1  0  0  0
 18 19  1  0  0  0
 19 20  2  0  0  0
 20  8  1  0  0  0
  8  9  2  0  0  0
  9 10  1  0  0  0
 10  1  1  0  0  0
  1  2  2  0  0  0
  2  3  1  0  0  0
  3 23  1  0  0  0
 23 24  2  0  0  0
 23 25  2  0  0  0
 23 26  1  0  0  0
 26 28  1  0  0  0
 28 29  1  0  0  0
 29 30  1  0  0  0
 30 31  1  0  0  0
 30 32  1  0  0  0
 30 33  1  0  0  0
  3  4  2  0  0  0
  4  5  1  0  0  0
  5  6  2  0  0  0
  6  7  1  0  0  0
 10 11  2  0  0  0
 11 12  1  0  0  0
 12 13  2  0  0  0
 13 14  1  0  0  0
 20 21  1  0  0  0
 21 22  1  0  0  0
 22 18  2  0  0  0
 13  8  1  0  0  0
  6  1  1  0  0  0
 26 27  1  0  0  0
 33 34  1  0  0  0
 14 15  1  0  0  0
 14 16  1  0  0  0
M  END
> <minimizedAffinity>
-8.07317

> <CNNscore>
0.4613524377

> <CNNaffinity>
6.9377832413

> <CNN_VS>
3.2007632256

> <CNNaffinity_variance>
0.2949724197

$$$$
[H]OC(C([H])([H])[H])(C([H])([H])[H])C([H])([H])C([H])([H])N([H])S(=O)(=O)c1c([H])c([H])c(C([H])([H])[H])c(-c2c([H])nc(N([H])[H])c(-c3onc(C([H])([H])[H])c3[H])c2[H])c1[H]


 34 36  0  0  0  0  0  0  0  0999 V2000
  -17.2647   12.0582  -20.6996 C   0  0  0  0  0  0  0  0  0  0  0  0
  -18.1991   12.4611  -19.7382 C   0  0  0  0  0  0  0  0  0  0  0  0
  -18.4328   11.7211  -18.5984 C   0  0  0  0  0  0  0  0  0  0  0  0
  -17.7451   10.5556  -18.3763 C   0  0  0  0  0  0  0  0  0  0  0  0
  -16.8195   10.1370  -19.3069 C   0  0  0  0  0  0  0  0  0  0  0  0
  -16.5840   10.8960  -20.4690 C   0  0  0  0  0  0  0  0  0  0  0  0
  -15.5655   10.4316  -21.4485 C   0  0  0  0  0  0  0  0  0  0  0  0
  -17.2540   14.8989  -23.1095 C   0  0  0  0  0  0  0  0  0  0  0  0
  -17.4568   14.1636  -21.9327 C   0  0  0  0  0  0  0  0  0  0  0  0
  -17.0465   12.8475  -21.9065 C   0  0  0  0  0  0  0  0  0  0  0  0
  -16.4574   12.3191  -23.0387 C   0  0  0  0  0  0  0  0  0  0  0  0
  -16.2708   13.0338  -24.1536 N   0  0  0  0  0  0  0  0  0  0  0  0
  -16.6709   14.3367  -24.1954 C   0  0  0  0  0  0  0  0  0  0  0  0
  -16.4543   15.0533  -25.3927 N   0  0  0  0  0  0  0  0  0  0  0  0
  -17.1452   15.0872  -26.1775 H   0  0  0  0  0  0  0  0  0  0  0  0
  -15.5761   15.5823  -25.5306 H   0  0  0  0  0  0  0  0  0  0  0  0
  -18.4040   19.6611  -21.7867 C   0  0  0  0  0  0  0  0  0  0  0  0
  -18.2304   18.3781  -22.5325 C   0  0  0  0  0  0  0  0  0  0  0  0
  -17.6571   17.1869  -22.0474 C   0  0  0  0  0  0  0  0  0  0  0  0
  -17.7131   16.2939  -23.0714 C   0  0  0  0  0  0  0  0  0  0  0  0
  -18.2804   16.9011  -24.1053 O   0  0  0  0  0  0  0  0  0  0  0  0
  -18.5773   18.1010  -23.7923 N   0  0  0  0  0  0  0  0  0  0  0  0
  -19.6243   12.2835  -17.4246 S   0  0  0  0  0  0  0  0  0  0  0  0
  -18.8702   13.0829  -16.3870 O   0  0  0  0  0  0  0  0  0  0  0  0
  -20.6473   13.1094  -18.1207 O   0  0  0  0  0  0  0  0  0  0  0  0
  -20.2756   10.9119  -16.6505 N   0  0  0  0  0  0  0  0  0  0  0  0
  -19.8580   10.0597  -17.1274 H   0  0  0  0  0  0  0  0  0  0  0  0
  -19.9776   10.8744  -15.2332 C   0  0  0  0  0  0  0  0  0  0  0  0
  -20.5491    9.6707  -14.5572 C   0  0  0  0  0  0  0  0  0  0  0  0
  -19.5560    8.5776  -14.3444 C   0  0  0  0  0  0  0  0  0  0  0  0
  -19.0132    8.4780  -12.9555 C   0  0  0  0  0  0  0  0  0  0  0  0
  -20.1914    7.2592  -14.7135 C   0  0  0  0  0  0  0  0  0  0  0  0
  -18.4784    8.7641  -15.2124 O   0  0  0  0  0  0  0  0  0  0  0  0
  -18.1308    7.9161  -15.5542 H   0  0  0  0  0  0  0  0  0  0  0  0
 17 18  1  0  0  0
 18 19  1  0  0  0
 19 20  2  0  0  0
 20  8  1  0  0  0
  8  9  2  0  0  0
  9 10  1  0  0  0
 10  1  1  0  0  0
  1  2  2  0  0  0
  2  3  1  0  0  0
  3 23  1  0  0  0
 23 24  2  0  0  0
 23 25  2  0  0  0
 23 26  1  0  0  0
 26 28  1  0  0  0
 28 29  1  0  0  0
 29 30  1  0  0  0
 30 31  1  0  0  0
 30 32  1  0  0  0
 30 33  1  0  0  0
  3  4  2  0  0  0
  4  5  1  0  0  0
  5  6  2  0  0  0
  6  7  1  0  0  0
 10 11  2  0  0  0
 11 12  1  0  0  0
 12 13  2  0  0  0
 13 14  1  0  0  0
 20 21  1  0  0  0
 21 22  1  0  0  0
 22 18  2  0  0  0
 13  8  1  0  0  0
  6  1  1  0  0  0
 26 27  1  0  0  0
 33 34  1  0  0  0
 14 15  1  0  0  0
 14 16  1  0  0  0
M  END
> <minimizedAffinity>
-8.46656

> <CNNscore>
0.3112653494

> <CNNaffinity>
6.6641645432

> <CNN_VS>
2.0743234158

> <CNNaffinity_variance>
0.1423980445

$$$$
[H]OC(C([H])([H])[H])(C([H])([H])[H])C([H])([H])C([H])([H])N([H])S(=O)(=O)c1c([H])c([H])c(C([H])([H])[H])c(-c2c([H])nc(N([H])[H])c(-c3onc(C([H])([H])[H])c3[H])c2[H])c1[H]


 34 36  0  0  0  0  0  0  0  0999 V2000
  -17.4152   12.1636  -20.6160 C   0  0  0  0  0  0  0  0  0  0  0  0
  -18.3361   12.7115  -19.7150 C   0  0  0  0  0  0  0  0  0  0  0  0
  -18.6689   12.0729  -18.5390 C   0  0  0  0  0  0  0  0  0  0  0  0
  -18.0971   10.8681  -18.2194 C   0  0  0  0  0  0  0  0  0  0  0  0
  -17.1874   10.3075  -19.0890 C   0  0  0  0  0  0  0  0  0  0  0  0
  -16.8505   10.9633  -20.2884 C   0  0  0  0  0  0  0  0  0  0  0  0
  -15.8511   10.3455  -21.2005 C   0  0  0  0  0  0  0  0  0  0  0  0
  -17.2516   14.7615  -23.2808 C   0  0  0  0  0  0  0  0  0  0  0  0
  -17.5592   14.1288  -22.0676 C   0  0  0  0  0  0  0  0  0  0  0  0
  -17.0915   12.8481  -21.8625 C   0  0  0  0  0  0  0  0  0  0  0  0
  -16.3449   12.2524  -22.8603 C   0  0  0  0  0  0  0  0  0  0  0  0
  -16.0599   12.8694  -24.0122 N   0  0  0  0  0  0  0  0  0  0  0  0
  -16.5149   14.1362  -24.2302 C   0  0  0  0  0  0  0  0  0  0  0  0
  -16.1903   14.7492  -25.4602 N   0  0  0  0  0  0  0  0  0  0  0  0
  -16.7821   14.6678  -26.3190 H   0  0  0  0  0  0  0  0  0  0  0  0
  -15.3287   15.3149  -25.5479 H   0  0  0  0  0  0  0  0  0  0  0  0
  -20.1426   18.9307  -23.3879 C   0  0  0  0  0  0  0  0  0  0  0  0
  -19.0080   17.9645  -23.4969 C   0  0  0  0  0  0  0  0  0  0  0  0
  -19.0302   16.5924  -23.1811 C   0  0  0  0  0  0  0  0  0  0  0  0
  -17.7794   16.1238  -23.4360 C   0  0  0  0  0  0  0  0  0  0  0  0
  -17.0496   17.1405  -23.8754 O   0  0  0  0  0  0  0  0  0  0  0  0
  -17.7595   18.1992  -23.9096 N   0  0  0  0  0  0  0  0  0  0  0  0
  -19.8371   12.8164  -17.4454 S   0  0  0  0  0  0  0  0  0  0  0  0
  -20.8471   13.5354  -18.3100 O   0  0  0  0  0  0  0  0  0  0  0  0
  -20.4750   11.7591  -16.6157 O   0  0  0  0  0  0  0  0  0  0  0  0
  -19.0114   13.9903  -16.5263 N   0  0  0  0  0  0  0  0  0  0  0  0
  -17.9836   13.7225  -16.5334 H   0  0  0  0  0  0  0  0  0  0  0  0
  -19.1715   15.3298  -17.0548 C   0  0  0  0  0  0  0  0  0  0  0  0
  -17.9577   15.8097  -17.7818 C   0  0  0  0  0  0  0  0  0  0  0  0
  -18.2567   16.8103  -18.8476 C   0  0  0  0  0  0  0  0  0  0  0  0
  -17.1735   16.9990  -19.8598 C   0  0  0  0  0  0  0  0  0  0  0  0
  -19.5229   16.4031  -19.5610 C   0  0  0  0  0  0  0  0  0  0  0  0
  -18.5077   18.0489  -18.2538 O   0  0  0  0  0  0  0  0  0  0  0  0
  -19.2132   18.5426  -18.7177 H   0  0  0  0  0  0  0  0  0  0  0  0
 17 18  1  0  0  0
 18 19  1  0  0  0
 19 20  2  0  0  0
 20  8  1  0  0  0
  8  9  2  0  0  0
  9 10  1  0  0  0
 10  1  1  0  0  0
  1  2  2  0  0  0
  2  3  1  0  0  0
  3 23  1  0  0  0
 23 24  2  0  0  0
 23 25  2  0  0  0
 23 26  1  0  0  0
 26 28  1  0  0  0
 28 29  1  0  0  0
 29 30  1  0  0  0
 30 31  1  0  0  0
 30 32  1  0  0  0
 30 33  1  0  0  0
  3  4  2  0  0  0
  4  5  1  0  0  0
  5  6  2  0  0  0
  6  7  1  0  0  0
 10 11  2  0  0  0
 11 12  1  0  0  0
 12 13  2  0  0  0
 13 14  1  0  0  0
 20 21  1  0  0  0
 21 22  1  0  0  0
 22 18  2  0  0  0
 13  8  1  0  0  0
  6  1  1  0  0  0
 26 27  1  0  0  0
 33 34  1  0  0  0
 14 15  1  0  0  0
 14 16  1  0  0  0
M  END
> <minimizedAffinity>
-8.82602

> <CNNscore>
0.3098275959

> <CNNaffinity>
6.7959313393

> <CNN_VS>
2.1055669785

> <CNNaffinity_variance>
0.1466916502

$$$$
[H]OC(C([H])([H])[H])(C([H])([H])[H])C([H])([H])C([H])([H])N([H])S(=O)(=O)c1c([H])c([H])c(C([H])([H])[H])c(-c2c([H])nc(N([H])[H])c(-c3onc(C([H])([H])[H])c3[H])c2[H])c1[H]


 34 36  0  0  0  0  0  0  0  0999 V2000
  -17.9316   14.5298  -22.3917 C   0  0  0  0  0  0  0  0  0  0  0  0
  -18.1747   15.7277  -21.7092 C   0  0  0  0  0  0  0  0  0  0  0  0
  -18.4637   16.8984  -22.3782 C   0  0  0  0  0  0  0  0  0  0  0  0
  -18.5207   16.9171  -23.7482 C   0  0  0  0  0  0  0  0  0  0  0  0
  -18.2858   15.7513  -24.4437 C   0  0  0  0  0  0  0  0  0  0  0  0
  -17.9914   14.5584  -23.7564 C   0  0  0  0  0  0  0  0  0  0  0  0
  -17.7607   13.3095  -24.5307 C   0  0  0  0  0  0  0  0  0  0  0  0
  -17.9546   11.8463  -19.8079 C   0  0  0  0  0  0  0  0  0  0  0  0
  -18.2922   13.0177  -20.5012 C   0  0  0  0  0  0  0  0  0  0  0  0
  -17.6104   13.3072  -21.6641 C   0  0  0  0  0  0  0  0  0  0  0  0
  -16.6300   12.4312  -22.0877 C   0  0  0  0  0  0  0  0  0  0  0  0
  -16.3198   11.3177  -21.4150 N   0  0  0  0  0  0  0  0  0  0  0  0
  -16.9851   11.0171  -20.2633 C   0  0  0  0  0  0  0  0  0  0  0  0
  -16.6250    9.8317  -19.5858 N   0  0  0  0  0  0  0  0  0  0  0  0
  -15.8756    9.7889  -18.8572 H   0  0  0  0  0  0  0  0  0  0  0  0
  -17.1095    8.9430  -19.7992 H   0  0  0  0  0  0  0  0  0  0  0  0
  -20.8645   12.2187  -15.6672 C   0  0  0  0  0  0  0  0  0  0  0  0
  -19.9816   11.7183  -16.7638 C   0  0  0  0  0  0  0  0  0  0  0  0
  -19.4612   12.4635  -17.8393 C   0  0  0  0  0  0  0  0  0  0  0  0
  -18.7182   11.5965  -18.5779 C   0  0  0  0  0  0  0  0  0  0  0  0
  -18.7836   10.4086  -17.9914 O   0  0  0  0  0  0  0  0  0  0  0  0
  -19.5117   10.4815  -16.9471 N   0  0  0  0  0  0  0  0  0  0  0  0
  -18.7603   18.3753  -21.4594 S   0  0  0  0  0  0  0  0  0  0  0  0
  -17.8721   18.3145  -20.2379 O   0  0  0  0  0  0  0  0  0  0  0  0
  -18.4471   19.5545  -22.3107 O   0  0  0  0  0  0  0  0  0  0  0  0
  -20.3787   18.3372  -20.9265 N   0  0  0  0  0  0  0  0  0  0  0  0
  -20.3561   18.3694  -19.8651 H   0  0  0  0  0  0  0  0  0  0  0  0
  -21.1614   19.4463  -21.4329 C   0  0  0  0  0  0  0  0  0  0  0  0
  -22.3641   18.9990  -22.1983 C   0  0  0  0  0  0  0  0  0  0  0  0
  -22.2322   19.1752  -23.6741 C   0  0  0  0  0  0  0  0  0  0  0  0
  -22.5281   17.9557  -24.4856 C   0  0  0  0  0  0  0  0  0  0  0  0
  -23.1488   20.2890  -24.1187 C   0  0  0  0  0  0  0  0  0  0  0  0
  -20.9295   19.5809  -23.9710 O   0  0  0  0  0  0  0  0  0  0  0  0
  -20.9042   20.2278  -24.7042 H   0  0  0  0  0  0  0  0  0  0  0  0
 17 18  1  0  0  0
 18 19  1  0  0  0
 19 20  2  0  0  0
 20  8  1  0  0  0
  8  9  2  0  0  0
  9 10  1  0  0  0
 10  1  1  0  0  0
  1  2  2  0  0  0
  2  3  1  0  0  0
  3 23  1  0  0  0
 23 24  2  0  0  0
 23 25  2  0  0  0
 23 26  1  0  0  0
 26 28  1  0  0  0
 28 29  1  0  0  0
 29 30  1  0  0  0
 30 31  1  0  0  0
 30 32  1  0  0  0
 30 33  1  0  0  0
  3  4  2  0  0  0
  4  5  1  0  0  0
  5  6  2  0  0  0
  6  7  1  0  0  0
 10 11  2  0  0  0
 11 12  1  0  0  0
 12 13  2  0  0  0
 13 14  1  0  0  0
 20 21  1  0  0  0
 21 22  1  0  0  0
 22 18  2  0  0  0
 13  8  1  0  0  0
  6  1  1  0  0  0
 26 27  1  0  0  0
 33 34  1  0  0  0
 14 15  1  0  0  0
 14 16  1  0  0  0
M  END
> <minimizedAffinity>
-7.88420

> <CNNscore>
0.3037894964

> <CNNaffinity>
6.6544599533

> <CNN_VS>
2.0215549469

> <CNNaffinity_variance>
0.2790437639

$$$$
[H]/C(=C(/[H])c1c([H])c(OC([H])([H])[H])c([H])c(OC([H])([H])[H])c1[H])c1c([H])c([H])c(OC([H])([H])C([H])([H])[H])c([H])c1[H]


 21 22  0  0  0  0  0  0  0  0999 V2000
  -17.6315   12.0488  -19.5295 C   0  0  0  0  0  0  0  0  0  0  0  0
  -18.2476   12.5044  -20.5948 C   0  0  0  0  0  0  0  0  0  0  0  0
  -19.5670    9.7491  -16.5006 C   0  0  0  0  0  0  0  0  0  0  0  0
  -19.9424   11.0451  -16.7670 C   0  0  0  0  0  0  0  0  0  0  0  0
  -19.2997   11.7748  -17.7562 C   0  0  0  0  0  0  0  0  0  0  0  0
  -18.2753   11.2362  -18.4986 C   0  0  0  0  0  0  0  0  0  0  0  0
  -17.8998    9.9424  -18.2332 C   0  0  0  0  0  0  0  0  0  0  0  0
  -18.5430    9.2035  -17.2390 C   0  0  0  0  0  0  0  0  0  0  0  0
  -20.1806    8.9783  -15.5198 O   0  0  0  0  0  0  0  0  0  0  0  0
  -19.2360    9.5670  -13.3931 C   0  0  0  0  0  0  0  0  0  0  0  0
  -19.4007    8.4950  -14.4519 C   0  0  0  0  0  0  0  0  0  0  0  0
  -17.5738   13.3110  -21.6009 C   0  0  0  0  0  0  0  0  0  0  0  0
  -17.3068   12.7190  -22.8390 C   0  0  0  0  0  0  0  0  0  0  0  0
  -16.6759   13.3848  -23.8636 C   0  0  0  0  0  0  0  0  0  0  0  0
  -16.2860   14.6929  -23.6710 C   0  0  0  0  0  0  0  0  0  0  0  0
  -16.5467   15.2774  -22.4561 C   0  0  0  0  0  0  0  0  0  0  0  0
  -17.1831   14.6052  -21.4234 C   0  0  0  0  0  0  0  0  0  0  0  0
  -16.4637   12.6991  -25.0455 O   0  0  0  0  0  0  0  0  0  0  0  0
  -17.4139   12.5510  -26.0650 C   0  0  0  0  0  0  0  0  0  0  0  0
  -16.1450   16.5969  -22.2840 O   0  0  0  0  0  0  0  0  0  0  0  0
  -16.3420   17.3336  -21.1116 C   0  0  0  0  0  0  0  0  0  0  0  0
 10 11  1  0  0  0
 11  9  1  0  0  0
  9  3  1  0  0  0
  3  4  2  0  0  0
  4  5  1  0  0  0
  5  6  2  0  0  0
  6  1  1  0  0  0
  1  2  2  0  0  0
  2 12  1  0  0  0
 12 13  2  0  0  0
 13 14  1  0  0  0
 14 18  1  0  0  0
 18 19  1  0  0  0
 14 15  2  0  0  0
 15 16  1  0  0  0
 16 20  1  0  0  0
 20 21  1  0  0  0
 16 17  2  0  0  0
  6  7  1  0  0  0
  7  8  2  0  0  0
  8  3  1  0  0  0
 17 12  1  0  0  0
M  END
> <minimizedAffinity>
-7.28997

> <CNNscore>
0.4601515532

> <CNNaffinity>
5.4099435806

> <CNN_VS>
2.4893939495

> <CNNaffinity_variance>
0.1673861891

$$$$
[H]/C(=C(/[H])c1c([H])c(OC([H])([H])[H])c([H])c(OC([H])([H])[H])c1[H])c1c([H])c([H])c(OC([H])([H])C([H])([H])[H])c([H])c1[H]


 21 22  0  0  0  0  0  0  0  0999 V2000
  -17.4737   13.3756  -21.3806 C   0  0  0  0  0  0  0  0  0  0  0  0
  -17.1686   13.1249  -22.6319 C   0  0  0  0  0  0  0  0  0  0  0  0
  -18.0887   10.4160  -18.3687 C   0  0  0  0  0  0  0  0  0  0  0  0
  -18.7654   11.6132  -18.3466 C   0  0  0  0  0  0  0  0  0  0  0  0
  -18.5503   12.5615  -19.3359 C   0  0  0  0  0  0  0  0  0  0  0  0
  -17.6631   12.3427  -20.3632 C   0  0  0  0  0  0  0  0  0  0  0  0
  -16.9871   11.1477  -20.3860 C   0  0  0  0  0  0  0  0  0  0  0  0
  -17.1995   10.1900  -19.3933 C   0  0  0  0  0  0  0  0  0  0  0  0
  -18.2704    9.4352  -17.4003 O   0  0  0  0  0  0  0  0  0  0  0  0
  -19.6549    8.2488  -15.8392 C   0  0  0  0  0  0  0  0  0  0  0  0
  -19.3215    9.5835  -16.4753 C   0  0  0  0  0  0  0  0  0  0  0  0
  -16.9876   14.1797  -23.6176 C   0  0  0  0  0  0  0  0  0  0  0  0
  -17.7059   15.3662  -23.4415 C   0  0  0  0  0  0  0  0  0  0  0  0
  -17.6140   16.4294  -24.3089 C   0  0  0  0  0  0  0  0  0  0  0  0
  -16.7801   16.3304  -25.4022 C   0  0  0  0  0  0  0  0  0  0  0  0
  -16.0733   15.1664  -25.5780 C   0  0  0  0  0  0  0  0  0  0  0  0
  -16.1665   14.0946  -24.7028 C   0  0  0  0  0  0  0  0  0  0  0  0
  -18.3713   17.5535  -24.0353 O   0  0  0  0  0  0  0  0  0  0  0  0
  -19.5910   17.5467  -23.3451 C   0  0  0  0  0  0  0  0  0  0  0  0
  -15.2387   15.0885  -26.6869 O   0  0  0  0  0  0  0  0  0  0  0  0
  -15.5993   15.4988  -27.9743 C   0  0  0  0  0  0  0  0  0  0  0  0
 10 11  1  0  0  0
 11  9  1  0  0  0
  9  3  1  0  0  0
  3  4  2  0  0  0
  4  5  1  0  0  0
  5  6  2  0  0  0
  6  1  1  0  0  0
  1  2  2  0  0  0
  2 12  1  0  0  0
 12 13  2  0  0  0
 13 14  1  0  0  0
 14 18  1  0  0  0
 18 19  1  0  0  0
 14 15  2  0  0  0
 15 16  1  0  0  0
 16 20  1  0  0  0
 20 21  1  0  0  0
 16 17  2  0  0  0
  6  7  1  0  0  0
  7  8  2  0  0  0
  8  3  1  0  0  0
 17 12  1  0  0  0
M  END
> <minimizedAffinity>
-7.16421

> <CNNscore>
0.4505252540

> <CNNaffinity>
5.7015466690

> <CNN_VS>
2.5686907768

> <CNNaffinity_variance>
0.2020019293

$$$$
[H]/C(=C(/[H])c1c([H])c(OC([H])([H])[H])c([H])c(OC([H])([H])[H])c1[H])c1c([H])c([H])c(OC([H])([H])C([H])([H])[H])c([H])c1[H]


 21 22  0  0  0  0  0  0  0  0999 V2000
  -17.5359   11.6826  -20.5268 C   0  0  0  0  0  0  0  0  0  0  0  0
  -17.7755   12.8320  -21.1129 C   0  0  0  0  0  0  0  0  0  0  0  0
  -19.2090   10.4195  -16.8101 C   0  0  0  0  0  0  0  0  0  0  0  0
  -18.3354    9.6217  -17.5114 C   0  0  0  0  0  0  0  0  0  0  0  0
  -17.8032   10.0519  -18.7179 C   0  0  0  0  0  0  0  0  0  0  0  0
  -18.1252   11.2775  -19.2516 C   0  0  0  0  0  0  0  0  0  0  0  0
  -18.9974   12.0746  -18.5520 C   0  0  0  0  0  0  0  0  0  0  0  0
  -19.5360   11.6469  -17.3376 C   0  0  0  0  0  0  0  0  0  0  0  0
  -19.7681   10.0323  -15.5976 O   0  0  0  0  0  0  0  0  0  0  0  0
  -19.9240    7.7961  -14.7392 C   0  0  0  0  0  0  0  0  0  0  0  0
  -20.5826    8.8843  -15.5634 C   0  0  0  0  0  0  0  0  0  0  0  0
  -17.1703   13.2014  -22.3834 C   0  0  0  0  0  0  0  0  0  0  0  0
  -17.7655   12.7197  -23.5532 C   0  0  0  0  0  0  0  0  0  0  0  0
  -17.2808   13.0040  -24.8083 C   0  0  0  0  0  0  0  0  0  0  0  0
  -16.1599   13.7975  -24.9285 C   0  0  0  0  0  0  0  0  0  0  0  0
  -15.5729   14.2722  -23.7814 C   0  0  0  0  0  0  0  0  0  0  0  0
  -16.0624   13.9850  -22.5160 C   0  0  0  0  0  0  0  0  0  0  0  0
  -17.9508   12.4729  -25.8950 O   0  0  0  0  0  0  0  0  0  0  0  0
  -17.3765   12.2403  -27.1521 C   0  0  0  0  0  0  0  0  0  0  0  0
  -14.4440   15.0702  -23.9261 O   0  0  0  0  0  0  0  0  0  0  0  0
  -13.6499   15.1100  -25.0766 C   0  0  0  0  0  0  0  0  0  0  0  0
 10 11  1  0  0  0
 11  9  1  0  0  0
  9  3  1  0  0  0
  3  4  2  0  0  0
  4  5  1  0  0  0
  5  6  2  0  0  0
  6  1  1  0  0  0
  1  2  2  0  0  0
  2 12  1  0  0  0
 12 13  2  0  0  0
 13 14  1  0  0  0
 14 18  1  0  0  0
 18 19  1  0  0  0
 14 15  2  0  0  0
 15 16  1  0  0  0
 16 20  1  0  0  0
 20 21  1  0  0  0
 16 17  2  0  0  0
  6  7  1  0  0  0
  7  8  2  0  0  0
  8  3  1  0  0  0
 17 12  1  0  0  0
M  END
> <minimizedAffinity>
-6.11930

> <CNNscore>
0.4460599124

> <CNNaffinity>
5.5469870567

> <CNN_VS>
2.4742884636

> <CNNaffinity_variance>
0.1544168442

$$$$
[H]/C(=C(/[H])c1c([H])c(OC([H])([H])[H])c([H])c(OC([H])([H])[H])c1[H])c1c([H])c([H])c(OC([H])([H])C([H])([H])[H])c([H])c1[H]


 21 22  0  0  0  0  0  0  0  0999 V2000
  -17.6970   11.8766  -19.4469 C   0  0  0  0  0  0  0  0  0  0  0  0
  -18.3227   12.4489  -20.4484 C   0  0  0  0  0  0  0  0  0  0  0  0
  -19.7080    9.7574  -16.3366 C   0  0  0  0  0  0  0  0  0  0  0  0
  -20.0350   11.0567  -16.6467 C   0  0  0  0  0  0  0  0  0  0  0  0
  -19.3684   11.7272  -17.6618 C   0  0  0  0  0  0  0  0  0  0  0  0
  -18.3677   11.1249  -18.3873 C   0  0  0  0  0  0  0  0  0  0  0  0
  -18.0406    9.8276  -18.0782 C   0  0  0  0  0  0  0  0  0  0  0  0
  -18.7079    9.1482  -17.0579 C   0  0  0  0  0  0  0  0  0  0  0  0
  -20.3471    9.0445  -15.3286 O   0  0  0  0  0  0  0  0  0  0  0  0
  -19.3155    9.6140  -13.2374 C   0  0  0  0  0  0  0  0  0  0  0  0
  -19.5759    8.5330  -14.2675 C   0  0  0  0  0  0  0  0  0  0  0  0
  -17.6213   13.1897  -21.4858 C   0  0  0  0  0  0  0  0  0  0  0  0
  -17.2289   14.5005  -21.1983 C   0  0  0  0  0  0  0  0  0  0  0  0
  -16.5609   15.2940  -22.1012 C   0  0  0  0  0  0  0  0  0  0  0  0
  -16.2607   14.7838  -23.3462 C   0  0  0  0  0  0  0  0  0  0  0  0
  -16.6447   13.4967  -23.6317 C   0  0  0  0  0  0  0  0  0  0  0  0
  -17.3184   12.6971  -22.7205 C   0  0  0  0  0  0  0  0  0  0  0  0
  -16.2221   16.5757  -21.7080 O   0  0  0  0  0  0  0  0  0  0  0  0
  -16.3153   17.0598  -20.3960 C   0  0  0  0  0  0  0  0  0  0  0  0
  -16.3317   13.0028  -24.8927 O   0  0  0  0  0  0  0  0  0  0  0  0
  -17.2302   12.9500  -25.9631 C   0  0  0  0  0  0  0  0  0  0  0  0
 10 11  1  0  0  0
 11  9  1  0  0  0
  9  3  1  0  0  0
  3  4  2  0  0  0
  4  5  1  0  0  0
  5  6  2  0  0  0
  6  1  1  0  0  0
  1  2  2  0  0  0
  2 12  1  0  0  0
 12 13  2  0  0  0
 13 14  1  0  0  0
 14 18  1  0  0  0
 18 19  1  0  0  0
 14 15  2  0  0  0
 15 16  1  0  0  0
 16 20  1  0  0  0
 20 21  1  0  0  0
 16 17  2  0  0  0
  6  7  1  0  0  0
  7  8  2  0  0  0
  8  3  1  0  0  0
 17 12  1  0  0  0
M  END
> <minimizedAffinity>
-7.18473

> <CNNscore>
0.4410218000

> <CNNaffinity>
5.3926119804

> <CNN_VS>
2.3782594204

> <CNNaffinity_variance>
0.1685094684

$$$$
[H]/C(=C(/[H])c1c([H])c(OC([H])([H])[H])c([H])c(OC([H])([H])[H])c1[H])c1c([H])c([H])c(OC([H])([H])C([H])([H])[H])c([H])c1[H]


 21 22  0  0  0  0  0  0  0  0999 V2000
  -17.9679   12.7994  -21.2463 C   0  0  0  0  0  0  0  0  0  0  0  0
  -17.4238   11.9664  -20.3907 C   0  0  0  0  0  0  0  0  0  0  0  0
  -15.9098   14.2283  -24.7006 C   0  0  0  0  0  0  0  0  0  0  0  0
  -15.3512   13.2825  -23.8729 C   0  0  0  0  0  0  0  0  0  0  0  0
  -16.0378   12.8319  -22.7550 C   0  0  0  0  0  0  0  0  0  0  0  0
  -17.2876   13.3081  -22.4363 C   0  0  0  0  0  0  0  0  0  0  0  0
  -17.8460   14.2524  -23.2621 C   0  0  0  0  0  0  0  0  0  0  0  0
  -17.1598   14.7095  -24.3882 C   0  0  0  0  0  0  0  0  0  0  0  0
  -15.2612   14.7105  -25.8316 O   0  0  0  0  0  0  0  0  0  0  0  0
  -15.9581   15.4478  -28.0070 C   0  0  0  0  0  0  0  0  0  0  0  0
  -15.8360   15.7865  -26.5347 C   0  0  0  0  0  0  0  0  0  0  0  0
  -18.1320   11.4809  -19.2161 C   0  0  0  0  0  0  0  0  0  0  0  0
  -19.0940   12.3179  -18.6430 C   0  0  0  0  0  0  0  0  0  0  0  0
  -19.8241   11.9643  -17.5325 C   0  0  0  0  0  0  0  0  0  0  0  0
  -19.6050   10.7331  -16.9523 C   0  0  0  0  0  0  0  0  0  0  0  0
  -18.6608    9.9086  -17.5129 C   0  0  0  0  0  0  0  0  0  0  0  0
  -17.9250   10.2660  -18.6328 C   0  0  0  0  0  0  0  0  0  0  0  0
  -20.7492   12.8725  -17.0516 O   0  0  0  0  0  0  0  0  0  0  0  0
  -21.0897   14.0766  -17.6830 C   0  0  0  0  0  0  0  0  0  0  0  0
  -18.4564    8.6721  -16.9117 O   0  0  0  0  0  0  0  0  0  0  0  0
  -19.0400    8.2778  -15.7034 C   0  0  0  0  0  0  0  0  0  0  0  0
 10 11  1  0  0  0
 11  9  1  0  0  0
  9  3  1  0  0  0
  3  4  2  0  0  0
  4  5  1  0  0  0
  5  6  2  0  0  0
  6  1  1  0  0  0
  1  2  2  0  0  0
  2 12  1  0  0  0
 12 13  2  0  0  0
 13 14  1  0  0  0
 14 18  1  0  0  0
 18 19  1  0  0  0
 14 15  2  0  0  0
 15 16  1  0  0  0
 16 20  1  0  0  0
 20 21  1  0  0  0
 16 17  2  0  0  0
  6  7  1  0  0  0
  7  8  2  0  0  0
  8  3  1  0  0  0
 17 12  1  0  0  0
M  END
> <minimizedAffinity>
-7.33522

> <CNNscore>
0.4061660469

> <CNNaffinity>
5.4407057762

> <CNN_VS>
2.2098300457

> <CNNaffinity_variance>
0.1717999876

$$$$
[H]/C(=C(/[H])c1c([H])c(OC([H])([H])[H])c([H])c(OC([H])([H])[H])c1[H])c1c([H])c([H])c(OC([H])([H])C([H])([H])[H])c([H])c1[H]


 21 22  0  0  0  0  0  0  0  0999 V2000
  -19.1585   15.9986  -18.6440 C   0  0  0  0  0  0  0  0  0  0  0  0
  -19.0746   14.6992  -18.4810 C   0  0  0  0  0  0  0  0  0  0  0  0
  -20.9779   18.6031  -15.7953 C   0  0  0  0  0  0  0  0  0  0  0  0
  -19.9404   17.7707  -15.4459 C   0  0  0  0  0  0  0  0  0  0  0  0
  -19.3633   16.9318  -16.3880 C   0  0  0  0  0  0  0  0  0  0  0  0
  -19.8017   16.9015  -17.6908 C   0  0  0  0  0  0  0  0  0  0  0  0
  -20.8376   17.7323  -18.0404 C   0  0  0  0  0  0  0  0  0  0  0  0
  -21.4220   18.5784  -17.0967 C   0  0  0  0  0  0  0  0  0  0  0  0
  -21.5880   19.4609  -14.8872 O   0  0  0  0  0  0  0  0  0  0  0  0
  -20.4611   21.2034  -13.6809 C   0  0  0  0  0  0  0  0  0  0  0  0
  -21.2533   20.8282  -14.9174 C   0  0  0  0  0  0  0  0  0  0  0  0
  -18.4262   13.8310  -19.4520 C   0  0  0  0  0  0  0  0  0  0  0  0
  -18.1346   12.5205  -19.0619 C   0  0  0  0  0  0  0  0  0  0  0  0
  -17.5241   11.6127  -19.8951 C   0  0  0  0  0  0  0  0  0  0  0  0
  -17.1810   12.0024  -21.1721 C   0  0  0  0  0  0  0  0  0  0  0  0
  -17.4661   13.2889  -21.5584 C   0  0  0  0  0  0  0  0  0  0  0  0
  -18.0818   14.2038  -20.7175 C   0  0  0  0  0  0  0  0  0  0  0  0
  -17.2841   10.3432  -19.4021 O   0  0  0  0  0  0  0  0  0  0  0  0
  -17.8196    9.8341  -18.2112 C   0  0  0  0  0  0  0  0  0  0  0  0
  -17.1116   13.6601  -22.8501 O   0  0  0  0  0  0  0  0  0  0  0  0
  -16.2415   12.9321  -23.6680 C   0  0  0  0  0  0  0  0  0  0  0  0
 10 11  1  0  0  0
 11  9  1  0  0  0
  9  3  1  0  0  0
  3  4  2  0  0  0
  4  5  1  0  0  0
  5  6  2  0  0  0
  6  1  1  0  0  0
  1  2  2  0  0  0
  2 12  1  0  0  0
 12 13  2  0  0  0
 13 14  1  0  0  0
 14 18  1  0  0  0
 18 19  1  0  0  0
 14 15  2  0  0  0
 15 16  1  0  0  0
 16 20  1  0  0  0
 20 21  1  0  0  0
 16 17  2  0  0  0
  6  7  1  0  0  0
  7  8  2  0  0  0
  8  3  1  0  0  0
 17 12  1  0  0  0
M  END
> <minimizedAffinity>
-4.90184

> <CNNscore>
0.4023697674

> <CNNaffinity>
5.1007609367

> <CNN_VS>
2.0523920059

> <CNNaffinity_variance>
0.3127136230

$$$$
[H]/C(=C(/[H])c1c([H])c(OC([H])([H])[H])c([H])c(OC([H])([H])[H])c1[H])c1c([H])c([H])c(OC([H])([H])C([H])([H])[H])c([H])c1[H]


 21 22  0  0  0  0  0  0  0  0999 V2000
  -17.7904   11.9795  -19.2641 C   0  0  0  0  0  0  0  0  0  0  0  0
  -18.4048   12.6708  -20.1950 C   0  0  0  0  0  0  0  0  0  0  0  0
  -19.7468    9.5822  -16.3256 C   0  0  0  0  0  0  0  0  0  0  0  0
  -18.7359    9.0749  -17.1081 C   0  0  0  0  0  0  0  0  0  0  0  0
  -18.1134    9.8718  -18.0575 C   0  0  0  0  0  0  0  0  0  0  0  0
  -18.4792   11.1831  -18.2497 C   0  0  0  0  0  0  0  0  0  0  0  0
  -19.4884   11.6905  -17.4689 C   0  0  0  0  0  0  0  0  0  0  0  0
  -20.1183   10.8932  -16.5120 C   0  0  0  0  0  0  0  0  0  0  0  0
  -20.4003    8.8232  -15.3615 O   0  0  0  0  0  0  0  0  0  0  0  0
  -20.9879    6.4982  -15.2563 C   0  0  0  0  0  0  0  0  0  0  0  0
  -19.9050    7.5403  -15.0594 C   0  0  0  0  0  0  0  0  0  0  0  0
  -17.6855   13.4526  -21.1892 C   0  0  0  0  0  0  0  0  0  0  0  0
  -17.3836   12.8377  -22.4080 C   0  0  0  0  0  0  0  0  0  0  0  0
  -16.7085   13.4790  -23.4199 C   0  0  0  0  0  0  0  0  0  0  0  0
  -16.3080   14.7849  -23.2339 C   0  0  0  0  0  0  0  0  0  0  0  0
  -16.6030   15.3918  -22.0380 C   0  0  0  0  0  0  0  0  0  0  0  0
  -17.2839   14.7443  -21.0180 C   0  0  0  0  0  0  0  0  0  0  0  0
  -16.4646   12.7720  -24.5830 O   0  0  0  0  0  0  0  0  0  0  0  0
  -17.3302   12.7220  -25.6841 C   0  0  0  0  0  0  0  0  0  0  0  0
  -16.1897   16.7086  -21.8722 O   0  0  0  0  0  0  0  0  0  0  0  0
  -16.2518   17.4070  -20.6622 C   0  0  0  0  0  0  0  0  0  0  0  0
 10 11  1  0  0  0
 11  9  1  0  0  0
  9  3  1  0  0  0
  3  4  2  0  0  0
  4  5  1  0  0  0
  5  6  2  0  0  0
  6  1  1  0  0  0
  1  2  2  0  0  0
  2 12  1  0  0  0
 12 13  2  0  0  0
 13 14  1  0  0  0
 14 18  1  0  0  0
 18 19  1  0  0  0
 14 15  2  0  0  0
 15 16  1  0  0  0
 16 20  1  0  0  0
 20 21  1  0  0  0
 16 17  2  0  0  0
  6  7  1  0  0  0
  7  8  2  0  0  0
  8  3  1  0  0  0
 17 12  1  0  0  0
M  END
> <minimizedAffinity>
-7.11818

> <CNNscore>
0.3922583461

> <CNNaffinity>
5.3163938522

> <CNN_VS>
2.0853998661

> <CNNaffinity_variance>
0.2083363980

$$$$
[H]/C(=C(/[H])c1c([H])c(OC([H])([H])[H])c([H])c(OC([H])([H])[H])c1[H])c1c([H])c([H])c(OC([H])([H])C([H])([H])[H])c([H])c1[H]


 21 22  0  0  0  0  0  0  0  0999 V2000
  -17.7797   13.4512  -20.9492 C   0  0  0  0  0  0  0  0  0  0  0  0
  -17.7324   12.2566  -20.4081 C   0  0  0  0  0  0  0  0  0  0  0  0
  -15.7783   14.4428  -24.5851 C   0  0  0  0  0  0  0  0  0  0  0  0
  -16.5142   13.2873  -24.4636 C   0  0  0  0  0  0  0  0  0  0  0  0
  -17.1569   12.9843  -23.2723 C   0  0  0  0  0  0  0  0  0  0  0  0
  -17.0832   13.8178  -22.1813 C   0  0  0  0  0  0  0  0  0  0  0  0
  -16.3486   14.9717  -22.3018 C   0  0  0  0  0  0  0  0  0  0  0  0
  -15.6998   15.2816  -23.4981 C   0  0  0  0  0  0  0  0  0  0  0  0
  -15.1168   14.7895  -25.7577 O   0  0  0  0  0  0  0  0  0  0  0  0
  -16.0423   15.2623  -27.9214 C   0  0  0  0  0  0  0  0  0  0  0  0
  -15.6560   15.8113  -26.5625 C   0  0  0  0  0  0  0  0  0  0  0  0
  -18.4394   11.9277  -19.1797 C   0  0  0  0  0  0  0  0  0  0  0  0
  -18.2191   10.6661  -18.6189 C   0  0  0  0  0  0  0  0  0  0  0  0
  -18.8319   10.2471  -17.4614 C   0  0  0  0  0  0  0  0  0  0  0  0
  -19.7028   11.1010  -16.8188 C   0  0  0  0  0  0  0  0  0  0  0  0
  -19.9213   12.3409  -17.3670 C   0  0  0  0  0  0  0  0  0  0  0  0
  -19.3029   12.7626  -18.5345 C   0  0  0  0  0  0  0  0  0  0  0  0
  -18.5388    8.9775  -16.9984 O   0  0  0  0  0  0  0  0  0  0  0  0
  -18.8991    8.4840  -15.7371 C   0  0  0  0  0  0  0  0  0  0  0  0
  -20.8031   13.1854  -16.7025 O   0  0  0  0  0  0  0  0  0  0  0  0
  -21.4722   12.8528  -15.5204 C   0  0  0  0  0  0  0  0  0  0  0  0
 10 11  1  0  0  0
 11  9  1  0  0  0
  9  3  1  0  0  0
  3  4  2  0  0  0
  4  5  1  0  0  0
  5  6  2  0  0  0
  6  1  1  0  0  0
  1  2  2  0  0  0
  2 12  1  0  0  0
 12 13  2  0  0  0
 13 14  1  0  0  0
 14 18  1  0  0  0
 18 19  1  0  0  0
 14 15  2  0  0  0
 15 16  1  0  0  0
 16 20  1  0  0  0
 20 21  1  0  0  0
 16 17  2  0  0  0
  6  7  1  0  0  0
  7  8  2  0  0  0
  8  3  1  0  0  0
 17 12  1  0  0  0
M  END
> <minimizedAffinity>
-7.05700

> <CNNscore>
0.3781036735

> <CNNaffinity>
5.4499235153

> <CNN_VS>
2.0606360435

> <CNNaffinity_variance>
0.2332619876

$$$$
[H]/C(=C(/[H])c1c([H])c(OC([H])([H])[H])c([H])c(OC([H])([H])[H])c1[H])c1c([H])c([H])c(OC([H])([H])C([H])([H])[H])c([H])c1[H]


 21 22  0  0  0  0  0  0  0  0999 V2000
  -17.9955   12.2919  -19.1134 C   0  0  0  0  0  0  0  0  0  0  0  0
  -17.9507   12.1132  -20.4127 C   0  0  0  0  0  0  0  0  0  0  0  0
  -19.7279    9.4740  -16.4177 C   0  0  0  0  0  0  0  0  0  0  0  0
  -18.6820    9.1291  -17.2414 C   0  0  0  0  0  0  0  0  0  0  0  0
  -18.1336   10.0609  -18.1104 C   0  0  0  0  0  0  0  0  0  0  0  0
  -18.6095   11.3490  -18.1799 C   0  0  0  0  0  0  0  0  0  0  0  0
  -19.6538   11.6942  -17.3578 C   0  0  0  0  0  0  0  0  0  0  0  0
  -20.2095   10.7607  -16.4816 C   0  0  0  0  0  0  0  0  0  0  0  0
  -20.3102    8.5758  -15.5307 O   0  0  0  0  0  0  0  0  0  0  0  0
  -19.0870    8.7712  -13.4747 C   0  0  0  0  0  0  0  0  0  0  0  0
  -20.4208    8.9385  -14.1748 C   0  0  0  0  0  0  0  0  0  0  0  0
  -17.3305   13.0743  -21.3119 C   0  0  0  0  0  0  0  0  0  0  0  0
  -17.3895   14.4265  -20.9615 C   0  0  0  0  0  0  0  0  0  0  0  0
  -16.8387   15.4219  -21.7341 C   0  0  0  0  0  0  0  0  0  0  0  0
  -16.1985   15.0815  -22.9066 C   0  0  0  0  0  0  0  0  0  0  0  0
  -16.1387   13.7542  -23.2535 C   0  0  0  0  0  0  0  0  0  0  0  0
  -16.6946   12.7510  -22.4738 C   0  0  0  0  0  0  0  0  0  0  0  0
  -16.9576   16.7256  -21.2889 O   0  0  0  0  0  0  0  0  0  0  0  0
  -16.2164   17.2817  -20.2374 C   0  0  0  0  0  0  0  0  0  0  0  0
  -15.4885   13.4339  -24.4395 O   0  0  0  0  0  0  0  0  0  0  0  0
  -14.5728   14.2700  -25.0864 C   0  0  0  0  0  0  0  0  0  0  0  0
 10 11  1  0  0  0
 11  9  1  0  0  0
  9  3  1  0  0  0
  3  4  2  0  0  0
  4  5  1  0  0  0
  5  6  2  0  0  0
  6  1  1  0  0  0
  1  2  2  0  0  0
  2 12  1  0  0  0
 12 13  2  0  0  0
 13 14  1  0  0  0
 14 18  1  0  0  0
 18 19  1  0  0  0
 14 15  2  0  0  0
 15 16  1  0  0  0
 16 20  1  0  0  0
 20 21  1  0  0  0
 16 17  2  0  0  0
  6  7  1  0  0  0
  7  8  2  0  0  0
  8  3  1  0  0  0
 17 12  1  0  0  0
M  END
> <minimizedAffinity>
-7.04499

> <CNNscore>
0.3584348261

> <CNNaffinity>
5.3429398537

> <CNN_VS>
1.9150956869

> <CNNaffinity_variance>
0.1758192629

$$$$
[H]/C(C(=O)N(C([H])([H])[H])C([H])([H])c1sc2c([H])c([H])c([H])c([H])c2c1C([H])([H])[H])=C(/[H])c1c([H])nc2c(c1[H])C([H])([H])N([H])C([H])([H])C([H])([H])N2[H]


 30 33  0  0  0  0  0  0  0  0999 V2000
  -17.4742   12.4423  -21.3490 N   0  0  0  0  0  0  0  0  0  0  0  0
  -18.2742   13.5282  -20.8511 C   0  0  0  0  0  0  0  0  0  0  0  0
  -17.0406   11.4465  -20.3559 C   0  0  0  0  0  0  0  0  0  0  0  0
  -16.1077   10.6706  -20.5628 O   0  0  0  0  0  0  0  0  0  0  0  0
  -17.8093   11.3671  -19.1194 C   0  0  0  0  0  0  0  0  0  0  0  0
  -17.9257   10.1353  -18.5978 C   0  0  0  0  0  0  0  0  0  0  0  0
  -18.6829    9.8837  -17.3574 C   0  0  0  0  0  0  0  0  0  0  0  0
  -18.4626    8.7172  -16.6597 C   0  0  0  0  0  0  0  0  0  0  0  0
  -19.2367    8.3365  -15.5886 N   0  0  0  0  0  0  0  0  0  0  0  0
  -20.2437    9.1465  -15.2225 C   0  0  0  0  0  0  0  0  0  0  0  0
  -20.4659   10.3251  -15.9083 C   0  0  0  0  0  0  0  0  0  0  0  0
  -19.6969   10.7075  -16.9780 C   0  0  0  0  0  0  0  0  0  0  0  0
  -21.5485   11.3016  -15.5546 C   0  0  0  0  0  0  0  0  0  0  0  0
  -22.7621   10.5600  -15.7543 N   0  0  0  0  0  0  0  0  0  0  0  0
  -23.2329    9.7954  -14.6733 C   0  0  0  0  0  0  0  0  0  0  0  0
  -22.3546    9.0671  -13.7668 C   0  0  0  0  0  0  0  0  0  0  0  0
  -21.0716    8.6205  -14.1621 N   0  0  0  0  0  0  0  0  0  0  0  0
  -22.6597   10.0467  -16.6620 H   0  0  0  0  0  0  0  0  0  0  0  0
  -20.6634    7.7972  -13.6727 H   0  0  0  0  0  0  0  0  0  0  0  0
  -17.0122   12.2750  -22.6272 C   0  0  0  0  0  0  0  0  0  0  0  0
  -15.5453   15.0642  -22.9588 C   0  0  0  0  0  0  0  0  0  0  0  0
  -16.2157   14.2602  -24.0978 C   0  0  0  0  0  0  0  0  0  0  0  0
  -17.0037   13.2140  -23.7455 C   0  0  0  0  0  0  0  0  0  0  0  0
  -17.6652   12.7646  -25.3474 S   0  0  0  0  0  0  0  0  0  0  0  0
  -16.8648   13.9238  -26.2996 C   0  0  0  0  0  0  0  0  0  0  0  0
  -16.8076   14.1834  -27.6798 C   0  0  0  0  0  0  0  0  0  0  0  0
  -16.0092   15.1734  -28.1927 C   0  0  0  0  0  0  0  0  0  0  0  0
  -15.2784   15.8880  -27.2597 C   0  0  0  0  0  0  0  0  0  0  0  0
  -15.3258   15.6467  -25.9429 C   0  0  0  0  0  0  0  0  0  0  0  0
  -16.1355   14.6262  -25.3920 C   0  0  0  0  0  0  0  0  0  0  0  0
 21 22  1  0  0  0
 22 23  2  0  0  0
 23 20  1  0  0  0
 20  1  1  0  0  0
  1  2  1  0  0  0
  1  3  1  0  0  0
  3  4  2  0  0  0
  3  5  1  0  0  0
  5  6  2  0  0  0
  6  7  1  0  0  0
  7  8  2  0  0  0
  8  9  1  0  0  0
  9 10  2  0  0  0
 10 11  1  0  0  0
 11 12  2  0  0  0
 11 13  1  0  0  0
 13 14  1  0  0  0
 14 15  1  0  0  0
 15 16  1  0  0  0
 16 17  1  0  0  0
 23 24  1  0  0  0
 24 25  1  0  0  0
 25 26  2  0  0  0
 26 27  1  0  0  0
 27 28  2  0  0  0
 28 29  1  0  0  0
 29 30  2  0  0  0
 30 22  1  0  0  0
 12  7  1  0  0  0
 30 25  1  0  0  0
 17 10  1  0  0  0
 14 18  1  0  0  0
 17 19  1  0  0  0
M  END
> <minimizedAffinity>
-9.39896

> <CNNscore>
0.7420895100

> <CNNaffinity>
6.6002831459

> <CNN_VS>
4.8980007172

> <CNNaffinity_variance>
0.0257909186

$$$$
[H]/C(C(=O)N(C([H])([H])[H])C([H])([H])c1sc2c([H])c([H])c([H])c([H])c2c1C([H])([H])[H])=C(/[H])c1c([H])nc2c(c1[H])C([H])([H])N([H])C([H])([H])C([H])([H])N2[H]


 30 33  0  0  0  0  0  0  0  0999 V2000
  -17.5254   12.6923  -21.4062 N   0  0  0  0  0  0  0  0  0  0  0  0
  -18.2340   13.8519  -20.9371 C   0  0  0  0  0  0  0  0  0  0  0  0
  -17.2742   11.6379  -20.4108 C   0  0  0  0  0  0  0  0  0  0  0  0
  -16.4200   10.7665  -20.5731 O   0  0  0  0  0  0  0  0  0  0  0  0
  -18.1313   11.6239  -19.2312 C   0  0  0  0  0  0  0  0  0  0  0  0
  -18.1609   10.4607  -18.5610 C   0  0  0  0  0  0  0  0  0  0  0  0
  -18.9888   10.2787  -17.3541 C   0  0  0  0  0  0  0  0  0  0  0  0
  -19.6460   11.3639  -16.8191 C   0  0  0  0  0  0  0  0  0  0  0  0
  -20.3041   11.3114  -15.6126 N   0  0  0  0  0  0  0  0  0  0  0  0
  -20.2948   10.1472  -14.9427 C   0  0  0  0  0  0  0  0  0  0  0  0
  -19.6484    9.0488  -15.4763 C   0  0  0  0  0  0  0  0  0  0  0  0
  -18.9898    9.0977  -16.6786 C   0  0  0  0  0  0  0  0  0  0  0  0
  -19.6080    7.7041  -14.8123 C   0  0  0  0  0  0  0  0  0  0  0  0
  -18.9055    7.9461  -13.5833 N   0  0  0  0  0  0  0  0  0  0  0  0
  -19.6684    8.3605  -12.4783 C   0  0  0  0  0  0  0  0  0  0  0  0
  -20.8010    9.2712  -12.5853 C   0  0  0  0  0  0  0  0  0  0  0  0
  -20.9132   10.2090  -13.6388 N   0  0  0  0  0  0  0  0  0  0  0  0
  -18.0813    8.5493  -13.8170 H   0  0  0  0  0  0  0  0  0  0  0  0
  -21.4732   11.0711  -13.4743 H   0  0  0  0  0  0  0  0  0  0  0  0
  -16.9966   12.4961  -22.6541 C   0  0  0  0  0  0  0  0  0  0  0  0
  -15.4616   15.2334  -23.0925 C   0  0  0  0  0  0  0  0  0  0  0  0
  -16.1564   14.4053  -24.1991 C   0  0  0  0  0  0  0  0  0  0  0  0
  -16.9689   13.3928  -23.8062 C   0  0  0  0  0  0  0  0  0  0  0  0
  -17.6478   12.9017  -25.3884 S   0  0  0  0  0  0  0  0  0  0  0  0
  -16.8223   14.0047  -26.3851 C   0  0  0  0  0  0  0  0  0  0  0  0
  -16.7641   14.2120  -27.7741 C   0  0  0  0  0  0  0  0  0  0  0  0
  -15.9432   15.1620  -28.3255 C   0  0  0  0  0  0  0  0  0  0  0  0
  -15.1911   15.8918  -27.4215 C   0  0  0  0  0  0  0  0  0  0  0  0
  -15.2393   15.7002  -26.0967 C   0  0  0  0  0  0  0  0  0  0  0  0
  -16.0721   14.7213  -25.5061 C   0  0  0  0  0  0  0  0  0  0  0  0
 21 22  1  0  0  0
 22 23  2  0  0  0
 23 20  1  0  0  0
 20  1  1  0  0  0
  1  2  1  0  0  0
  1  3  1  0  0  0
  3  4  2  0  0  0
  3  5  1  0  0  0
  5  6  2  0  0  0
  6  7  1  0  0  0
  7  8  2  0  0  0
  8  9  1  0  0  0
  9 10  2  0  0  0
 10 11  1  0  0  0
 11 12  2  0  0  0
 11 13  1  0  0  0
 13 14  1  0  0  0
 14 15  1  0  0  0
 15 16  1  0  0  0
 16 17  1  0  0  0
 23 24  1  0  0  0
 24 25  1  0  0  0
 25 26  2  0  0  0
 26 27  1  0  0  0
 27 28  2  0  0  0
 28 29  1  0  0  0
 29 30  2  0  0  0
 30 22  1  0  0  0
 12  7  1  0  0  0
 30 25  1  0  0  0
 17 10  1  0  0  0
 14 18  1  0  0  0
 17 19  1  0  0  0
M  END
> <minimizedAffinity>
-9.13550

> <CNNscore>
0.6081605554

> <CNNaffinity>
6.4091200829

> <CNN_VS>
3.8977739811

> <CNNaffinity_variance>
0.0619704798

$$$$
[H]/C(C(=O)N(C([H])([H])[H])C([H])([H])c1sc2c([H])c([H])c([H])c([H])c2c1C([H])([H])[H])=C(/[H])c1c([H])nc2c(c1[H])C([H])([H])N([H])C([H])([H])C([H])([H])N2[H]


 30 33  0  0  0  0  0  0  0  0999 V2000
  -17.2611   12.4589  -21.4244 N   0  0  0  0  0  0  0  0  0  0  0  0
  -16.5197   11.2341  -21.5564 C   0  0  0  0  0  0  0  0  0  0  0  0
  -18.2469   12.5068  -20.3328 C   0  0  0  0  0  0  0  0  0  0  0  0
  -19.1590   13.3329  -20.3026 O   0  0  0  0  0  0  0  0  0  0  0  0
  -18.0652   11.5641  -19.2353 C   0  0  0  0  0  0  0  0  0  0  0  0
  -19.1181   11.4370  -18.4118 C   0  0  0  0  0  0  0  0  0  0  0  0
  -19.0900   10.5341  -17.2461 C   0  0  0  0  0  0  0  0  0  0  0  0
  -18.3244    9.3908  -17.2989 C   0  0  0  0  0  0  0  0  0  0  0  0
  -18.3691    8.4227  -16.3231 N   0  0  0  0  0  0  0  0  0  0  0  0
  -19.1985    8.6163  -15.2844 C   0  0  0  0  0  0  0  0  0  0  0  0
  -19.9622    9.7656  -15.2156 C   0  0  0  0  0  0  0  0  0  0  0  0
  -19.9214   10.7327  -16.1877 C   0  0  0  0  0  0  0  0  0  0  0  0
  -20.8947   10.0778  -14.0827 C   0  0  0  0  0  0  0  0  0  0  0  0
  -21.8709    9.0258  -14.1382 N   0  0  0  0  0  0  0  0  0  0  0  0
  -21.5781    7.8405  -13.4422 C   0  0  0  0  0  0  0  0  0  0  0  0
  -20.2405    7.2673  -13.3672 C   0  0  0  0  0  0  0  0  0  0  0  0
  -19.2650    7.5049  -14.3641 N   0  0  0  0  0  0  0  0  0  0  0  0
  -22.1338    8.9069  -15.1454 H   0  0  0  0  0  0  0  0  0  0  0  0
  -18.5128    6.7975  -14.4969 H   0  0  0  0  0  0  0  0  0  0  0  0
  -17.2024   13.5527  -22.2462 C   0  0  0  0  0  0  0  0  0  0  0  0
  -18.2295   12.6556  -25.1066 C   0  0  0  0  0  0  0  0  0  0  0  0
  -17.0438   13.6118  -24.8365 C   0  0  0  0  0  0  0  0  0  0  0  0
  -16.5868   13.6977  -23.5624 C   0  0  0  0  0  0  0  0  0  0  0  0
  -15.1509   14.7376  -23.8123 S   0  0  0  0  0  0  0  0  0  0  0  0
  -15.2858   14.9771  -25.4903 C   0  0  0  0  0  0  0  0  0  0  0  0
  -14.5684   15.7384  -26.4292 C   0  0  0  0  0  0  0  0  0  0  0  0
  -14.9454   15.7967  -27.7464 C   0  0  0  0  0  0  0  0  0  0  0  0
  -16.0677   15.0565  -28.0746 C   0  0  0  0  0  0  0  0  0  0  0  0
  -16.7581   14.3294  -27.1864 C   0  0  0  0  0  0  0  0  0  0  0  0
  -16.3928   14.2604  -25.8217 C   0  0  0  0  0  0  0  0  0  0  0  0
 21 22  1  0  0  0
 22 23  2  0  0  0
 23 20  1  0  0  0
 20  1  1  0  0  0
  1  2  1  0  0  0
  1  3  1  0  0  0
  3  4  2  0  0  0
  3  5  1  0  0  0
  5  6  2  0  0  0
  6  7  1  0  0  0
  7  8  2  0  0  0
  8  9  1  0  0  0
  9 10  2  0  0  0
 10 11  1  0  0  0
 11 12  2  0  0  0
 11 13  1  0  0  0
 13 14  1  0  0  0
 14 15  1  0  0  0
 15 16  1  0  0  0
 16 17  1  0  0  0
 23 24  1  0  0  0
 24 25  1  0  0  0
 25 26  2  0  0  0
 26 27  1  0  0  0
 27 28  2  0  0  0
 28 29  1  0  0  0
 29 30  2  0  0  0
 30 22  1  0  0  0
 12  7  1  0  0  0
 30 25  1  0  0  0
 17 10  1  0  0  0
 14 18  1  0  0  0
 17 19  1  0  0  0
M  END
> <minimizedAffinity>
-9.03441

> <CNNscore>
0.3444108367

> <CNNaffinity>
6.0679955482

> <CNN_VS>
2.0898833275

> <CNNaffinity_variance>
0.0862178653

$$$$
[H]/C(C(=O)N(C([H])([H])[H])C([H])([H])c1sc2c([H])c([H])c([H])c([H])c2c1C([H])([H])[H])=C(/[H])c1c([H])nc2c(c1[H])C([H])([H])N([H])C([H])([H])C([H])([H])N2[H]


 30 33  0  0  0  0  0  0  0  0999 V2000
  -19.2228   10.3481  -17.2411 N   0  0  0  0  0  0  0  0  0  0  0  0
  -18.3846    9.2832  -17.7211 C   0  0  0  0  0  0  0  0  0  0  0  0
  -18.9166   11.6949  -17.7492 C   0  0  0  0  0  0  0  0  0  0  0  0
  -19.3181   12.7173  -17.1934 O   0  0  0  0  0  0  0  0  0  0  0  0
  -18.1595   11.7767  -18.9926 C   0  0  0  0  0  0  0  0  0  0  0  0
  -18.5426   12.7530  -19.8310 C   0  0  0  0  0  0  0  0  0  0  0  0
  -17.8868   12.9605  -21.1356 C   0  0  0  0  0  0  0  0  0  0  0  0
  -17.0577   11.9813  -21.6352 C   0  0  0  0  0  0  0  0  0  0  0  0
  -16.2885   12.1640  -22.7605 N   0  0  0  0  0  0  0  0  0  0  0  0
  -16.3610   13.3513  -23.3843 C   0  0  0  0  0  0  0  0  0  0  0  0
  -17.1989   14.3366  -22.8983 C   0  0  0  0  0  0  0  0  0  0  0  0
  -17.9665   14.1585  -21.7754 C   0  0  0  0  0  0  0  0  0  0  0  0
  -17.3633   15.6810  -23.5434 C   0  0  0  0  0  0  0  0  0  0  0  0
  -16.0574   16.2714  -23.4504 N   0  0  0  0  0  0  0  0  0  0  0  0
  -15.1513   15.9927  -24.4878 C   0  0  0  0  0  0  0  0  0  0  0  0
  -15.0586   14.6932  -25.1406 C   0  0  0  0  0  0  0  0  0  0  0  0
  -15.4424   13.4970  -24.4895 N   0  0  0  0  0  0  0  0  0  0  0  0
  -15.7072   16.0855  -22.4806 H   0  0  0  0  0  0  0  0  0  0  0  0
  -15.0038   12.6048  -24.7981 H   0  0  0  0  0  0  0  0  0  0  0  0
  -20.2229   10.2565  -16.3100 C   0  0  0  0  0  0  0  0  0  0  0  0
  -19.7276    7.4562  -14.9122 C   0  0  0  0  0  0  0  0  0  0  0  0
  -19.6774    8.8332  -14.2089 C   0  0  0  0  0  0  0  0  0  0  0  0
  -20.1494    9.9038  -14.8950 C   0  0  0  0  0  0  0  0  0  0  0  0
  -20.0529   11.1602  -13.6231 S   0  0  0  0  0  0  0  0  0  0  0  0
  -19.4068   10.2156  -12.3656 C   0  0  0  0  0  0  0  0  0  0  0  0
  -18.9807   10.4931  -11.0552 C   0  0  0  0  0  0  0  0  0  0  0  0
  -18.4275    9.5236  -10.2585 C   0  0  0  0  0  0  0  0  0  0  0  0
  -18.3263    8.2696  -10.8351 C   0  0  0  0  0  0  0  0  0  0  0  0
  -18.7285    7.9965  -12.0833 C   0  0  0  0  0  0  0  0  0  0  0  0
  -19.2944    8.9817  -12.9258 C   0  0  0  0  0  0  0  0  0  0  0  0
 21 22  1  0  0  0
 22 23  2  0  0  0
 23 20  1  0  0  0
 20  1  1  0  0  0
  1  2  1  0  0  0
  1  3  1  0  0  0
  3  4  2  0  0  0
  3  5  1  0  0  0
  5  6  2  0  0  0
  6  7  1  0  0  0
  7  8  2  0  0  0
  8  9  1  0  0  0
  9 10  2  0  0  0
 10 11  1  0  0  0
 11 12  2  0  0  0
 11 13  1  0  0  0
 13 14  1  0  0  0
 14 15  1  0  0  0
 15 16  1  0  0  0
 16 17  1  0  0  0
 23 24  1  0  0  0
 24 25  1  0  0  0
 25 26  2  0  0  0
 26 27  1  0  0  0
 27 28  2  0  0  0
 28 29  1  0  0  0
 29 30  2  0  0  0
 30 22  1  0  0  0
 12  7  1  0  0  0
 30 25  1  0  0  0
 17 10  1  0  0  0
 14 18  1  0  0  0
 17 19  1  0  0  0
M  END
> <minimizedAffinity>
-8.56748

> <CNNscore>
0.2963886857

> <CNNaffinity>
6.3103871346

> <CNN_VS>
1.8703273535

> <CNNaffinity_variance>
0.3203495443

$$$$
[H]/C(C(=O)N(C([H])([H])[H])C([H])([H])c1sc2c([H])c([H])c([H])c([H])c2c1C([H])([H])[H])=C(/[H])c1c([H])nc2c(c1[H])C([H])([H])N([H])C([H])([H])C([H])([H])N2[H]


 30 33  0  0  0  0  0  0  0  0999 V2000
  -19.3961   15.2683  -18.3315 N   0  0  0  0  0  0  0  0  0  0  0  0
  -18.1764   15.9431  -17.9791 C   0  0  0  0  0  0  0  0  0  0  0  0
  -19.8785   15.4746  -19.7064 C   0  0  0  0  0  0  0  0  0  0  0  0
  -21.0400   15.2411  -20.0406 O   0  0  0  0  0  0  0  0  0  0  0  0
  -18.8984   15.9141  -20.6925 C   0  0  0  0  0  0  0  0  0  0  0  0
  -18.2946   14.9284  -21.3756 C   0  0  0  0  0  0  0  0  0  0  0  0
  -17.2694   15.2053  -22.3990 C   0  0  0  0  0  0  0  0  0  0  0  0
  -16.5545   16.3804  -22.3344 C   0  0  0  0  0  0  0  0  0  0  0  0
  -15.6994   16.7840  -23.3332 N   0  0  0  0  0  0  0  0  0  0  0  0
  -15.5690   15.9883  -24.4074 C   0  0  0  0  0  0  0  0  0  0  0  0
  -16.2726   14.8012  -24.4768 C   0  0  0  0  0  0  0  0  0  0  0  0
  -17.1274   14.3960  -23.4834 C   0  0  0  0  0  0  0  0  0  0  0  0
  -16.1698   13.8395  -25.6236 C   0  0  0  0  0  0  0  0  0  0  0  0
  -16.6577   14.5883  -26.7479 N   0  0  0  0  0  0  0  0  0  0  0  0
  -15.7269   15.3732  -27.4496 C   0  0  0  0  0  0  0  0  0  0  0  0
  -14.6494   16.1077  -26.7993 C   0  0  0  0  0  0  0  0  0  0  0  0
  -14.7389   16.5374  -25.4542 N   0  0  0  0  0  0  0  0  0  0  0  0
  -17.5227   15.0867  -26.4298 H   0  0  0  0  0  0  0  0  0  0  0  0
  -14.1781   17.3645  -25.1622 H   0  0  0  0  0  0  0  0  0  0  0  0
  -20.1927   14.5182  -17.5080 C   0  0  0  0  0  0  0  0  0  0  0  0
  -18.7149   12.2024  -19.0874 C   0  0  0  0  0  0  0  0  0  0  0  0
  -19.5119   12.0273  -17.7732 C   0  0  0  0  0  0  0  0  0  0  0  0
  -20.2796   13.0678  -17.3635 C   0  0  0  0  0  0  0  0  0  0  0  0
  -21.1079   12.3166  -15.9652 S   0  0  0  0  0  0  0  0  0  0  0  0
  -20.3863   10.7780  -16.0248 C   0  0  0  0  0  0  0  0  0  0  0  0
  -20.4640    9.6307  -15.2165 C   0  0  0  0  0  0  0  0  0  0  0  0
  -19.7032    8.5187  -15.4715 C   0  0  0  0  0  0  0  0  0  0  0  0
  -18.8686    8.6115  -16.5716 C   0  0  0  0  0  0  0  0  0  0  0  0
  -18.7872    9.7011  -17.3465 C   0  0  0  0  0  0  0  0  0  0  0  0
  -19.5560   10.8621  -17.0983 C   0  0  0  0  0  0  0  0  0  0  0  0
 21 22  1  0  0  0
 22 23  2  0  0  0
 23 20  1  0  0  0
 20  1  1  0  0  0
  1  2  1  0  0  0
  1  3  1  0  0  0
  3  4  2  0  0  0
  3  5  1  0  0  0
  5  6  2  0  0  0
  6  7  1  0  0  0
  7  8  2  0  0  0
  8  9  1  0  0  0
  9 10  2  0  0  0
 10 11  1  0  0  0
 11 12  2  0  0  0
 11 13  1  0  0  0
 13 14  1  0  0  0
 14 15  1  0  0  0
 15 16  1  0  0  0
 16 17  1  0  0  0
 23 24  1  0  0  0
 24 25  1  0  0  0
 25 26  2  0  0  0
 26 27  1  0  0  0
 27 28  2  0  0  0
 28 29  1  0  0  0
 29 30  2  0  0  0
 30 22  1  0  0  0
 12  7  1  0  0  0
 30 25  1  0  0  0
 17 10  1  0  0  0
 14 18  1  0  0  0
 17 19  1  0  0  0
M  END
> <minimizedAffinity>
-8.76129

> <CNNscore>
0.2957128882

> <CNNaffinity>
6.4955787659

> <CNN_VS>
1.9208263159

> <CNNaffinity_variance>
0.0592850447

$$$$
[H]/C(C(=O)N(C([H])([H])[H])C([H])([H])c1sc2c([H])c([H])c([H])c([H])c2c1C([H])([H])[H])=C(/[H])c1c([H])nc2c(c1[H])C([H])([H])N([H])C([H])([H])C([H])([H])N2[H]


 30 33  0  0  0  0  0  0  0  0999 V2000
  -17.5927   12.7402  -21.3668 N   0  0  0  0  0  0  0  0  0  0  0  0
  -18.2491   14.0190  -21.3376 C   0  0  0  0  0  0  0  0  0  0  0  0
  -17.4028   12.0779  -20.0664 C   0  0  0  0  0  0  0  0  0  0  0  0
  -16.5901   11.1682  -19.9013 O   0  0  0  0  0  0  0  0  0  0  0  0
  -18.2713   12.5021  -18.9747 C   0  0  0  0  0  0  0  0  0  0  0  0
  -18.9256   11.5112  -18.3480 C   0  0  0  0  0  0  0  0  0  0  0  0
  -19.8527   11.7747  -17.2316 C   0  0  0  0  0  0  0  0  0  0  0  0
  -20.4555   13.0089  -17.1347 C   0  0  0  0  0  0  0  0  0  0  0  0
  -21.2031   13.3854  -16.0435 N   0  0  0  0  0  0  0  0  0  0  0  0
  -21.3398   12.5017  -15.0413 C   0  0  0  0  0  0  0  0  0  0  0  0
  -20.7491   11.2561  -15.1337 C   0  0  0  0  0  0  0  0  0  0  0  0
  -20.0016   10.8775  -16.2198 C   0  0  0  0  0  0  0  0  0  0  0  0
  -20.8696   10.1982  -14.0768 C   0  0  0  0  0  0  0  0  0  0  0  0
  -20.2422   10.7856  -12.9262 N   0  0  0  0  0  0  0  0  0  0  0  0
  -21.0478   11.5762  -12.0889 C   0  0  0  0  0  0  0  0  0  0  0  0
  -22.0899   12.4639  -12.5883 C   0  0  0  0  0  0  0  0  0  0  0  0
  -22.0458   13.0154  -13.8905 N   0  0  0  0  0  0  0  0  0  0  0  0
  -19.3559   11.2348  -13.2584 H   0  0  0  0  0  0  0  0  0  0  0  0
  -22.5429   13.9137  -14.0630 H   0  0  0  0  0  0  0  0  0  0  0  0
  -17.0615   12.1091  -22.4599 C   0  0  0  0  0  0  0  0  0  0  0  0
  -18.1727   12.3979  -25.4134 C   0  0  0  0  0  0  0  0  0  0  0  0
  -16.9101   13.0964  -24.8558 C   0  0  0  0  0  0  0  0  0  0  0  0
  -16.4418   12.6766  -23.6541 C   0  0  0  0  0  0  0  0  0  0  0  0
  -14.9251   13.6233  -23.5590 S   0  0  0  0  0  0  0  0  0  0  0  0
  -15.0470   14.4678  -25.0298 C   0  0  0  0  0  0  0  0  0  0  0  0
  -14.2726   15.4620  -25.6524 C   0  0  0  0  0  0  0  0  0  0  0  0
  -14.6493   16.0253  -26.8446 C   0  0  0  0  0  0  0  0  0  0  0  0
  -15.8310   15.5435  -27.3802 C   0  0  0  0  0  0  0  0  0  0  0  0
  -16.5758   14.5975  -26.7933 C   0  0  0  0  0  0  0  0  0  0  0  0
  -16.2115   14.0080  -25.5602 C   0  0  0  0  0  0  0  0  0  0  0  0
 21 22  1  0  0  0
 22 23  2  0  0  0
 23 20  1  0  0  0
 20  1  1  0  0  0
  1  2  1  0  0  0
  1  3  1  0  0  0
  3  4  2  0  0  0
  3  5  1  0  0  0
  5  6  2  0  0  0
  6  7  1  0  0  0
  7  8  2  0  0  0
  8  9  1  0  0  0
  9 10  2  0  0  0
 10 11  1  0  0  0
 11 12  2  0  0  0
 11 13  1  0  0  0
 13 14  1  0  0  0
 14 15  1  0  0  0
 15 16  1  0  0  0
 16 17  1  0  0  0
 23 24  1  0  0  0
 24 25  1  0  0  0
 25 26  2  0  0  0
 26 27  1  0  0  0
 27 28  2  0  0  0
 28 29  1  0  0  0
 29 30  2  0  0  0
 30 22  1  0  0  0
 12  7  1  0  0  0
 30 25  1  0  0  0
 17 10  1  0  0  0
 14 18  1  0  0  0
 17 19  1  0  0  0
M  END
> <minimizedAffinity>
-8.87154

> <CNNscore>
0.2828817666

> <CNNaffinity>
6.2537970543

> <CNN_VS>
1.7690851688

> <CNNaffinity_variance>
0.1757253259

$$$$
[H]/C(C(=O)N(C([H])([H])[H])C([H])([H])c1sc2c([H])c([H])c([H])c([H])c2c1C([H])([H])[H])=C(/[H])c1c([H])nc2c(c1[H])C([H])([H])N([H])C([H])([H])C([H])([H])N2[H]


 30 33  0  0  0  0  0  0  0  0999 V2000
  -17.4506   12.8216  -21.3240 N   0  0  0  0  0  0  0  0  0  0  0  0
  -17.6406   14.2106  -21.0051 C   0  0  0  0  0  0  0  0  0  0  0  0
  -17.3320   11.9031  -20.1803 C   0  0  0  0  0  0  0  0  0  0  0  0
  -16.8504   10.7752  -20.2865 O   0  0  0  0  0  0  0  0  0  0  0  0
  -17.8723   12.3605  -18.9055 C   0  0  0  0  0  0  0  0  0  0  0  0
  -19.0664   11.8440  -18.5735 C   0  0  0  0  0  0  0  0  0  0  0  0
  -19.7543   12.2150  -17.3228 C   0  0  0  0  0  0  0  0  0  0  0  0
  -19.8970   11.2733  -16.3285 C   0  0  0  0  0  0  0  0  0  0  0  0
  -20.6604   11.4905  -15.2053 N   0  0  0  0  0  0  0  0  0  0  0  0
  -21.2850   12.6741  -15.0903 C   0  0  0  0  0  0  0  0  0  0  0  0
  -21.1389   13.6306  -16.0766 C   0  0  0  0  0  0  0  0  0  0  0  0
  -20.3795   13.4170  -17.1989 C   0  0  0  0  0  0  0  0  0  0  0  0
  -21.7770   14.9872  -16.0203 C   0  0  0  0  0  0  0  0  0  0  0  0
  -23.1856   14.7075  -16.0263 N   0  0  0  0  0  0  0  0  0  0  0  0
  -23.7995   14.4745  -14.7839 C   0  0  0  0  0  0  0  0  0  0  0  0
  -23.1571   13.7428  -13.6996 C   0  0  0  0  0  0  0  0  0  0  0  0
  -22.1504   12.7778  -13.9384 N   0  0  0  0  0  0  0  0  0  0  0  0
  -23.3476   13.9738  -16.7566 H   0  0  0  0  0  0  0  0  0  0  0  0
  -22.0155   12.0214  -13.2360 H   0  0  0  0  0  0  0  0  0  0  0  0
  -17.2945   12.2738  -22.5693 C   0  0  0  0  0  0  0  0  0  0  0  0
  -18.1634   12.4015  -25.6140 C   0  0  0  0  0  0  0  0  0  0  0  0
  -16.9615   13.1495  -24.9901 C   0  0  0  0  0  0  0  0  0  0  0  0
  -16.5874   12.7959  -23.7353 C   0  0  0  0  0  0  0  0  0  0  0  0
  -15.0981   13.7747  -23.5632 S   0  0  0  0  0  0  0  0  0  0  0  0
  -15.1113   14.5463  -25.0784 C   0  0  0  0  0  0  0  0  0  0  0  0
  -14.3035   15.5245  -25.6836 C   0  0  0  0  0  0  0  0  0  0  0  0
  -14.5893   16.0235  -26.9285 C   0  0  0  0  0  0  0  0  0  0  0  0
  -15.7156   15.4947  -27.5343 C   0  0  0  0  0  0  0  0  0  0  0  0
  -16.4918   14.5634  -26.9647 C   0  0  0  0  0  0  0  0  0  0  0  0
  -16.2212   14.0399  -25.6789 C   0  0  0  0  0  0  0  0  0  0  0  0
 21 22  1  0  0  0
 22 23  2  0  0  0
 23 20  1  0  0  0
 20  1  1  0  0  0
  1  2  1  0  0  0
  1  3  1  0  0  0
  3  4  2  0  0  0
  3  5  1  0  0  0
  5  6  2  0  0  0
  6  7  1  0  0  0
  7  8  2  0  0  0
  8  9  1  0  0  0
  9 10  2  0  0  0
 10 11  1  0  0  0
 11 12  2  0  0  0
 11 13  1  0  0  0
 13 14  1  0  0  0
 14 15  1  0  0  0
 15 16  1  0  0  0
 16 17  1  0  0  0
 23 24  1  0  0  0
 24 25  1  0  0  0
 25 26  2  0  0  0
 26 27  1  0  0  0
 27 28  2  0  0  0
 28 29  1  0  0  0
 29 30  2  0  0  0
 30 22  1  0  0  0
 12  7  1  0  0  0
 30 25  1  0  0  0
 17 10  1  0  0  0
 14 18  1  0  0  0
 17 19  1  0  0  0
M  END
> <minimizedAffinity>
-8.70333

> <CNNscore>
0.2828398347

> <CNNaffinity>
6.3498954773

> <CNN_VS>
1.7960033417

> <CNNaffinity_variance>
0.2069630623

$$$$
[H]/C(C(=O)N(C([H])([H])[H])C([H])([H])c1sc2c([H])c([H])c([H])c([H])c2c1C([H])([H])[H])=C(/[H])c1c([H])nc2c(c1[H])C([H])([H])N([H])C([H])([H])C([H])([H])N2[H]


 30 33  0  0  0  0  0  0  0  0999 V2000
  -18.4118   12.7563  -19.9375 N   0  0  0  0  0  0  0  0  0  0  0  0
  -19.0093   13.8144  -19.1691 C   0  0  0  0  0  0  0  0  0  0  0  0
  -18.0434   11.5413  -19.1932 C   0  0  0  0  0  0  0  0  0  0  0  0
  -17.2479   10.7122  -19.6349 O   0  0  0  0  0  0  0  0  0  0  0  0
  -18.7135   11.3182  -17.9176 C   0  0  0  0  0  0  0  0  0  0  0  0
  -18.9216   10.0303  -17.5999 C   0  0  0  0  0  0  0  0  0  0  0  0
  -19.5989    9.6365  -16.3503 C   0  0  0  0  0  0  0  0  0  0  0  0
  -20.2287   10.5995  -15.5941 C   0  0  0  0  0  0  0  0  0  0  0  0
  -20.7421   10.3426  -14.3443 N   0  0  0  0  0  0  0  0  0  0  0  0
  -20.6147    9.0973  -13.8573 C   0  0  0  0  0  0  0  0  0  0  0  0
  -19.9951    8.1205  -14.6128 C   0  0  0  0  0  0  0  0  0  0  0  0
  -19.4805    8.3733  -15.8591 C   0  0  0  0  0  0  0  0  0  0  0  0
  -19.8312    6.6992  -14.1615 C   0  0  0  0  0  0  0  0  0  0  0  0
  -19.0016    6.8006  -12.9935 N   0  0  0  0  0  0  0  0  0  0  0  0
  -19.6472    7.0143  -11.7637 C   0  0  0  0  0  0  0  0  0  0  0  0
  -20.8162    7.8711  -11.6130 C   0  0  0  0  0  0  0  0  0  0  0  0
  -21.0816    8.9416  -12.4993 N   0  0  0  0  0  0  0  0  0  0  0  0
  -18.2316    7.4726  -13.2240 H   0  0  0  0  0  0  0  0  0  0  0  0
  -21.6493    9.7416  -12.1506 H   0  0  0  0  0  0  0  0  0  0  0  0
  -18.0823   12.7850  -21.2664 C   0  0  0  0  0  0  0  0  0  0  0  0
  -15.4132   11.8541  -22.6984 C   0  0  0  0  0  0  0  0  0  0  0  0
  -16.0562   13.2559  -22.8192 C   0  0  0  0  0  0  0  0  0  0  0  0
  -17.0561   13.5623  -21.9556 C   0  0  0  0  0  0  0  0  0  0  0  0
  -17.3088   15.2868  -22.3654 S   0  0  0  0  0  0  0  0  0  0  0  0
  -16.1468   15.4396  -23.5974 C   0  0  0  0  0  0  0  0  0  0  0  0
  -15.7770   16.4794  -24.4678 C   0  0  0  0  0  0  0  0  0  0  0  0
  -14.8202   16.3021  -25.4341 C   0  0  0  0  0  0  0  0  0  0  0  0
  -14.2537   15.0404  -25.4823 C   0  0  0  0  0  0  0  0  0  0  0  0
  -14.6008   14.0434  -24.6578 C   0  0  0  0  0  0  0  0  0  0  0  0
  -15.5901   14.2006  -23.6592 C   0  0  0  0  0  0  0  0  0  0  0  0
 21 22  1  0  0  0
 22 23  2  0  0  0
 23 20  1  0  0  0
 20  1  1  0  0  0
  1  2  1  0  0  0
  1  3  1  0  0  0
  3  4  2  0  0  0
  3  5  1  0  0  0
  5  6  2  0  0  0
  6  7  1  0  0  0
  7  8  2  0  0  0
  8  9  1  0  0  0
  9 10  2  0  0  0
 10 11  1  0  0  0
 11 12  2  0  0  0
 11 13  1  0  0  0
 13 14  1  0  0  0
 14 15  1  0  0  0
 15 16  1  0  0  0
 16 17  1  0  0  0
 23 24  1  0  0  0
 24 25  1  0  0  0
 25 26  2  0  0  0
 26 27  1  0  0  0
 27 28  2  0  0  0
 28 29  1  0  0  0
 29 30  2  0  0  0
 30 22  1  0  0  0
 12  7  1  0  0  0
 30 25  1  0  0  0
 17 10  1  0  0  0
 14 18  1  0  0  0
 17 19  1  0  0  0
M  END
> <minimizedAffinity>
-7.92067

> <CNNscore>
0.2788296640

> <CNNaffinity>
6.1080713272

> <CNN_VS>
1.7031115294

> <CNNaffinity_variance>
0.1436078548

$$$$
[H]/C(C(=O)N(C([H])([H])[H])C([H])([H])c1sc2c([H])c([H])c([H])c([H])c2c1C([H])([H])[H])=C(/[H])c1c([H])nc2c(c1[H])C([H])([H])N([H])C([H])([H])C([H])([H])N2[H]


 30 33  0  0  0  0  0  0  0  0999 V2000
  -17.5400   12.8744  -21.3914 N   0  0  0  0  0  0  0  0  0  0  0  0
  -17.2772   12.0639  -20.2334 C   0  0  0  0  0  0  0  0  0  0  0  0
  -18.3194   14.1015  -21.1620 C   0  0  0  0  0  0  0  0  0  0  0  0
  -18.8882   14.7025  -22.0733 O   0  0  0  0  0  0  0  0  0  0  0  0
  -18.3432   14.6255  -19.8014 C   0  0  0  0  0  0  0  0  0  0  0  0
  -18.8093   15.8790  -19.6807 C   0  0  0  0  0  0  0  0  0  0  0  0
  -18.8856   16.5585  -18.3740 C   0  0  0  0  0  0  0  0  0  0  0  0
  -18.7562   15.8166  -17.2212 C   0  0  0  0  0  0  0  0  0  0  0  0
  -18.9734   16.3458  -15.9706 N   0  0  0  0  0  0  0  0  0  0  0  0
  -19.3255   17.6394  -15.8889 C   0  0  0  0  0  0  0  0  0  0  0  0
  -19.4464   18.3960  -17.0386 C   0  0  0  0  0  0  0  0  0  0  0  0
  -19.2320   17.8714  -18.2879 C   0  0  0  0  0  0  0  0  0  0  0  0
  -19.8091   19.8517  -17.0419 C   0  0  0  0  0  0  0  0  0  0  0  0
  -21.1294   19.8805  -16.4776 N   0  0  0  0  0  0  0  0  0  0  0  0
  -21.2281   19.9590  -15.0779 C   0  0  0  0  0  0  0  0  0  0  0  0
  -20.3210   19.2656  -14.1726 C   0  0  0  0  0  0  0  0  0  0  0  0
  -19.6400   18.0846  -14.5512 N   0  0  0  0  0  0  0  0  0  0  0  0
  -21.6701   19.1039  -16.9273 H   0  0  0  0  0  0  0  0  0  0  0  0
  -19.3479   17.4221  -13.8031 H   0  0  0  0  0  0  0  0  0  0  0  0
  -17.2089   12.5920  -22.6898 C   0  0  0  0  0  0  0  0  0  0  0  0
  -15.3574   15.1348  -23.0741 C   0  0  0  0  0  0  0  0  0  0  0  0
  -16.1282   14.4057  -24.1999 C   0  0  0  0  0  0  0  0  0  0  0  0
  -17.0594   13.4915  -23.8303 C   0  0  0  0  0  0  0  0  0  0  0  0
  -17.7678   13.1002  -25.4274 S   0  0  0  0  0  0  0  0  0  0  0  0
  -16.8042   14.1093  -26.3993 C   0  0  0  0  0  0  0  0  0  0  0  0
  -16.7016   14.3229  -27.7848 C   0  0  0  0  0  0  0  0  0  0  0  0
  -15.7671   15.1759  -28.3135 C   0  0  0  0  0  0  0  0  0  0  0  0
  -14.9480   15.8027  -27.3907 C   0  0  0  0  0  0  0  0  0  0  0  0
  -15.0378   15.6042  -26.0690 C   0  0  0  0  0  0  0  0  0  0  0  0
  -15.9882   14.7235  -25.5017 C   0  0  0  0  0  0  0  0  0  0  0  0
 21 22  1  0  0  0
 22 23  2  0  0  0
 23 20  1  0  0  0
 20  1  1  0  0  0
  1  2  1  0  0  0
  1  3  1  0  0  0
  3  4  2  0  0  0
  3  5  1  0  0  0
  5  6  2  0  0  0
  6  7  1  0  0  0
  7  8  2  0  0  0
  8  9  1  0  0  0
  9 10  2  0  0  0
 10 11  1  0  0  0
 11 12  2  0  0  0
 11 13  1  0  0  0
 13 14  1  0  0  0
 14 15  1  0  0  0
 15 16  1  0  0  0
 16 17  1  0  0  0
 23 24  1  0  0  0
 24 25  1  0  0  0
 25 26  2  0  0  0
 26 27  1  0  0  0
 27 28  2  0  0  0
 28 29  1  0  0  0
 29 30  2  0  0  0
 30 22  1  0  0  0
 12  7  1  0  0  0
 30 25  1  0  0  0
 17 10  1  0  0  0
 14 18  1  0  0  0
 17 19  1  0  0  0
M  END
> <minimizedAffinity>
-8.01164

> <CNNscore>
0.2380814254

> <CNNaffinity>
5.8668060303

> <CNN_VS>
1.3967775106

> <CNNaffinity_variance>
0.1829836071

$$$$
[H]c1c([H])c([H])c(C([H])([H])N(C([H])([H])[H])C([H])([H])C([H])([H])OC(=O)C2=C(C([H])([H])[H])N=C(C([H])([H])[H])C([H])(C(=O)OC([H])([H])[H])C2([H])c2c([H])c([H])c([H])c([N+](=O)[O-])c2[H])c([H])c1[H]


 35 37  0  0  0  0  0  0  0  0999 V2000
  -17.0603   13.6202  -23.2039 C   0  0  0  0  0  0  0  0  0  0  0  0
  -17.6774   14.1005  -24.4445 C   0  0  0  0  0  0  0  0  0  0  0  0
  -17.4561   13.2451  -25.6814 C   0  0  0  0  0  0  0  0  0  0  0  0
  -18.3663   15.1445  -24.5727 N   0  0  0  0  0  0  0  0  0  0  0  0
  -18.6215   15.9910  -23.4689 C   0  0  0  0  0  0  0  0  0  0  0  0
  -19.4379   17.2301  -23.7264 C   0  0  0  0  0  0  0  0  0  0  0  0
  -18.1349   15.6815  -22.2855 C   0  0  0  0  0  0  0  0  0  0  0  0
  -17.3400   14.4382  -22.0316 C   0  0  0  0  0  0  0  0  0  0  0  0
  -18.0219   13.6826  -20.9375 C   0  0  0  0  0  0  0  0  0  0  0  0
  -19.3214   13.9047  -20.5740 C   0  0  0  0  0  0  0  0  0  0  0  0
  -19.9281   13.1743  -19.5723 C   0  0  0  0  0  0  0  0  0  0  0  0
  -19.2032   12.1868  -18.9136 C   0  0  0  0  0  0  0  0  0  0  0  0
  -17.8860   11.9549  -19.2753 C   0  0  0  0  0  0  0  0  0  0  0  0
  -17.3136   12.7077  -20.2838 C   0  0  0  0  0  0  0  0  0  0  0  0
  -17.1668   10.9422  -18.5897 N   0  0  0  0  0  0  0  0  0  0  0  0
  -15.9266   10.9794  -18.6147 O   0  0  0  0  0  0  0  0  0  0  0  0
  -17.7773    9.9299  -17.9048 O   0  0  0  0  0  0  0  0  0  0  0  0
  -15.5802   13.5180  -23.5005 C   0  0  0  0  0  0  0  0  0  0  0  0
  -14.9834   12.4417  -23.5062 O   0  0  0  0  0  0  0  0  0  0  0  0
  -14.0470   14.7826  -24.9068 C   0  0  0  0  0  0  0  0  0  0  0  0
  -14.9006   14.6878  -23.7707 O   0  0  0  0  0  0  0  0  0  0  0  0
  -18.3927   16.5505  -21.1483 C   0  0  0  0  0  0  0  0  0  0  0  0
  -17.3837   17.1859  -20.6579 O   0  0  0  0  0  0  0  0  0  0  0  0
  -19.5839   16.7987  -20.5072 O   0  0  0  0  0  0  0  0  0  0  0  0
  -20.0121   18.1668  -20.3927 C   0  0  0  0  0  0  0  0  0  0  0  0
  -21.4355   18.3562  -20.7328 C   0  0  0  0  0  0  0  0  0  0  0  0
  -21.7919   19.2490  -21.7592 N   0  0  0  0  0  0  0  0  0  0  0  0
  -21.4696   20.6024  -21.6837 C   0  0  0  0  0  0  0  0  0  0  0  0
  -23.1494   18.9987  -22.1585 C   0  0  0  0  0  0  0  0  0  0  0  0
  -23.3351   18.8118  -23.6105 C   0  0  0  0  0  0  0  0  0  0  0  0
  -23.5978   19.8402  -24.4969 C   0  0  0  0  0  0  0  0  0  0  0  0
  -23.7647   19.6231  -25.8476 C   0  0  0  0  0  0  0  0  0  0  0  0
  -23.6663   18.3339  -26.3338 C   0  0  0  0  0  0  0  0  0  0  0  0
  -23.4051   17.2960  -25.4663 C   0  0  0  0  0  0  0  0  0  0  0  0
  -23.2440   17.5371  -24.1329 C   0  0  0  0  0  0  0  0  0  0  0  0
 20 21  1  0  0  0
 21 18  1  0  0  0
 18 19  2  0  0  0
 18  1  1  0  0  0
  1  2  1  0  0  0
  2  3  1  0  0  0
  2  4  2  0  0  0
  4  5  1  0  0  0
  5  6  1  0  0  0
  5  7  2  0  0  0
  7 22  1  0  0  0
 22 23  2  0  0  0
 22 24  1  0  0  0
 24 25  1  0  0  0
 25 26  1  0  0  0
 26 27  1  0  0  0
 27 28  1  0  0  0
 27 29  1  0  0  0
 29 30  1  0  0  0
 30 31  2  0  0  0
 31 32  1  0  0  0
 32 33  2  0  0  0
 33 34  1  0  0  0
 34 35  2  0  0  0
  7  8  1  0  0  0
  8  9  1  0  0  0
  9 10  2  0  0  0
 10 11  1  0  0  0
 11 12  2  0  0  0
 12 13  1  0  0  0
 13 15  1  0  0  0
 15 16  2  0  0  0
 15 17  1  0  0  0
 13 14  2  0  0  0
  8  1  1  0  0  0
 14  9  1  0  0  0
 35 30  1  0  0  0
M  CHG 1  15   1
M  CHG 1  17  -1
M  END
> <minimizedAffinity>
-8.52481

> <CNNscore>
0.4636211097

> <CNNaffinity>
6.7346868515

> <CNN_VS>
3.1223430634

> <CNNaffinity_variance>
0.0702243522

$$$$
[H]c1c([H])c([H])c(C([H])([H])N(C([H])([H])[H])C([H])([H])C([H])([H])OC(=O)C2=C(C([H])([H])[H])N=C(C([H])([H])[H])C([H])(C(=O)OC([H])([H])[H])C2([H])c2c([H])c([H])c([H])c([N+](=O)[O-])c2[H])c([H])c1[H]


 35 37  0  0  0  0  0  0  0  0999 V2000
  -19.0986   14.9408  -20.4772 C   0  0  0  0  0  0  0  0  0  0  0  0
  -18.4261   15.4177  -19.2643 C   0  0  0  0  0  0  0  0  0  0  0  0
  -18.7940   14.7121  -17.9690 C   0  0  0  0  0  0  0  0  0  0  0  0
  -17.5811   16.3467  -19.2030 N   0  0  0  0  0  0  0  0  0  0  0  0
  -17.1826   17.0490  -20.3640 C   0  0  0  0  0  0  0  0  0  0  0  0
  -16.1820   18.1605  -20.1863 C   0  0  0  0  0  0  0  0  0  0  0  0
  -17.6997   16.7243  -21.5303 C   0  0  0  0  0  0  0  0  0  0  0  0
  -18.6798   15.6056  -21.7036 C   0  0  0  0  0  0  0  0  0  0  0  0
  -18.1153   14.6648  -22.7181 C   0  0  0  0  0  0  0  0  0  0  0  0
  -18.4615   14.6969  -24.0407 C   0  0  0  0  0  0  0  0  0  0  0  0
  -17.9054   13.8265  -24.9561 C   0  0  0  0  0  0  0  0  0  0  0  0
  -16.9691   12.8918  -24.5270 C   0  0  0  0  0  0  0  0  0  0  0  0
  -16.6123   12.8521  -23.1889 C   0  0  0  0  0  0  0  0  0  0  0  0
  -17.1917   13.7407  -22.3023 C   0  0  0  0  0  0  0  0  0  0  0  0
  -15.6549   11.8905  -22.7745 N   0  0  0  0  0  0  0  0  0  0  0  0
  -14.5529   11.8713  -23.3448 O   0  0  0  0  0  0  0  0  0  0  0  0
  -15.8917   10.9864  -21.7781 O   0  0  0  0  0  0  0  0  0  0  0  0
  -20.5792   15.0982  -20.2082 C   0  0  0  0  0  0  0  0  0  0  0  0
  -21.3351   14.1326  -20.1045 O   0  0  0  0  0  0  0  0  0  0  0  0
  -22.4074   16.6846  -20.4703 C   0  0  0  0  0  0  0  0  0  0  0  0
  -21.0721   16.3803  -20.0792 O   0  0  0  0  0  0  0  0  0  0  0  0
  -17.2947   17.4456  -22.7263 C   0  0  0  0  0  0  0  0  0  0  0  0
  -16.1216   17.1878  -23.1950 O   0  0  0  0  0  0  0  0  0  0  0  0
  -17.9984   18.3828  -23.4462 O   0  0  0  0  0  0  0  0  0  0  0  0
  -18.5982   19.4722  -22.7239 C   0  0  0  0  0  0  0  0  0  0  0  0
  -19.5592   20.2431  -23.5362 C   0  0  0  0  0  0  0  0  0  0  0  0
  -20.8701   20.4356  -23.0649 N   0  0  0  0  0  0  0  0  0  0  0  0
  -21.1245   21.2025  -21.9298 C   0  0  0  0  0  0  0  0  0  0  0  0
  -21.5731   19.1825  -23.0863 C   0  0  0  0  0  0  0  0  0  0  0  0
  -22.3131   18.9178  -24.3353 C   0  0  0  0  0  0  0  0  0  0  0  0
  -22.6311   19.8880  -25.2680 C   0  0  0  0  0  0  0  0  0  0  0  0
  -23.3245   19.5989  -26.4236 C   0  0  0  0  0  0  0  0  0  0  0  0
  -23.7157   18.2952  -26.6590 C   0  0  0  0  0  0  0  0  0  0  0  0
  -23.4080   17.3146  -25.7415 C   0  0  0  0  0  0  0  0  0  0  0  0
  -22.7206   17.6266  -24.6048 C   0  0  0  0  0  0  0  0  0  0  0  0
 20 21  1  0  0  0
 21 18  1  0  0  0
 18 19  2  0  0  0
 18  1  1  0  0  0
  1  2  1  0  0  0
  2  3  1  0  0  0
  2  4  2  0  0  0
  4  5  1  0  0  0
  5  6  1  0  0  0
  5  7  2  0  0  0
  7 22  1  0  0  0
 22 23  2  0  0  0
 22 24  1  0  0  0
 24 25  1  0  0  0
 25 26  1  0  0  0
 26 27  1  0  0  0
 27 28  1  0  0  0
 27 29  1  0  0  0
 29 30  1  0  0  0
 30 31  2  0  0  0
 31 32  1  0  0  0
 32 33  2  0  0  0
 33 34  1  0  0  0
 34 35  2  0  0  0
  7  8  1  0  0  0
  8  9  1  0  0  0
  9 10  2  0  0  0
 10 11  1  0  0  0
 11 12  2  0  0  0
 12 13  1  0  0  0
 13 15  1  0  0  0
 15 16  2  0  0  0
 15 17  1  0  0  0
 13 14  2  0  0  0
  8  1  1  0  0  0
 14  9  1  0  0  0
 35 30  1  0  0  0
M  CHG 1  15   1
M  CHG 1  17  -1
M  END
> <minimizedAffinity>
-7.93984

> <CNNscore>
0.4337256551

> <CNNaffinity>
6.3273615837

> <CNN_VS>
2.7443389893

> <CNNaffinity_variance>
0.4157968462

$$$$
[H]c1c([H])c([H])c(C([H])([H])N(C([H])([H])[H])C([H])([H])C([H])([H])OC(=O)C2=C(C([H])([H])[H])N=C(C([H])([H])[H])C([H])(C(=O)OC([H])([H])[H])C2([H])c2c([H])c([H])c([H])c([N+](=O)[O-])c2[H])c([H])c1[H]


 35 37  0  0  0  0  0  0  0  0999 V2000
  -18.2597   14.6222  -20.6813 C   0  0  0  0  0  0  0  0  0  0  0  0
  -18.0391   15.4637  -19.5005 C   0  0  0  0  0  0  0  0  0  0  0  0
  -17.9266   14.7389  -18.1691 C   0  0  0  0  0  0  0  0  0  0  0  0
  -17.9346   16.7166  -19.4935 N   0  0  0  0  0  0  0  0  0  0  0  0
  -18.0234   17.4635  -20.6912 C   0  0  0  0  0  0  0  0  0  0  0  0
  -17.9086   18.9608  -20.5784 C   0  0  0  0  0  0  0  0  0  0  0  0
  -18.2142   16.8392  -21.8345 C   0  0  0  0  0  0  0  0  0  0  0  0
  -18.3083   15.3488  -21.9427 C   0  0  0  0  0  0  0  0  0  0  0  0
  -17.2689   14.9011  -22.9186 C   0  0  0  0  0  0  0  0  0  0  0  0
  -15.9265   14.9890  -22.6728 C   0  0  0  0  0  0  0  0  0  0  0  0
  -14.9924   14.5468  -23.5876 C   0  0  0  0  0  0  0  0  0  0  0  0
  -15.4228   13.9973  -24.7906 C   0  0  0  0  0  0  0  0  0  0  0  0
  -16.7810   13.9043  -25.0481 C   0  0  0  0  0  0  0  0  0  0  0  0
  -17.6858   14.3584  -24.1066 C   0  0  0  0  0  0  0  0  0  0  0  0
  -17.1963   13.3399  -26.2817 N   0  0  0  0  0  0  0  0  0  0  0  0
  -16.9010   13.9328  -27.3311 O   0  0  0  0  0  0  0  0  0  0  0  0
  -17.9057   12.1753  -26.3657 O   0  0  0  0  0  0  0  0  0  0  0  0
  -19.5356   13.8584  -20.4020 C   0  0  0  0  0  0  0  0  0  0  0  0
  -19.5572   12.6331  -20.2893 O   0  0  0  0  0  0  0  0  0  0  0  0
  -21.4058   14.6103  -19.0364 C   0  0  0  0  0  0  0  0  0  0  0  0
  -20.7006   14.5862  -20.2736 O   0  0  0  0  0  0  0  0  0  0  0  0
  -18.3087   17.6035  -23.0681 C   0  0  0  0  0  0  0  0  0  0  0  0
  -17.2003   17.9784  -23.6095 O   0  0  0  0  0  0  0  0  0  0  0  0
  -19.4345   17.9915  -23.7563 O   0  0  0  0  0  0  0  0  0  0  0  0
  -19.9617   19.3038  -23.4952 C   0  0  0  0  0  0  0  0  0  0  0  0
  -20.9644   19.3177  -22.4125 C   0  0  0  0  0  0  0  0  0  0  0  0
  -22.1804   19.9987  -22.6004 N   0  0  0  0  0  0  0  0  0  0  0  0
  -22.5995   20.9873  -21.7125 C   0  0  0  0  0  0  0  0  0  0  0  0
  -23.2079   19.0540  -22.9418 C   0  0  0  0  0  0  0  0  0  0  0  0
  -23.3188   18.7661  -24.3849 C   0  0  0  0  0  0  0  0  0  0  0  0
  -23.4501   17.4950  -24.9136 C   0  0  0  0  0  0  0  0  0  0  0  0
  -23.5509   17.2685  -26.2693 C   0  0  0  0  0  0  0  0  0  0  0  0
  -23.5199   18.3480  -27.1306 C   0  0  0  0  0  0  0  0  0  0  0  0
  -23.3897   19.6221  -26.6228 C   0  0  0  0  0  0  0  0  0  0  0  0
  -23.2914   19.8199  -25.2763 C   0  0  0  0  0  0  0  0  0  0  0  0
 20 21  1  0  0  0
 21 18  1  0  0  0
 18 19  2  0  0  0
 18  1  1  0  0  0
  1  2  1  0  0  0
  2  3  1  0  0  0
  2  4  2  0  0  0
  4  5  1  0  0  0
  5  6  1  0  0  0
  5  7  2  0  0  0
  7 22  1  0  0  0
 22 23  2  0  0  0
 22 24  1  0  0  0
 24 25  1  0  0  0
 25 26  1  0  0  0
 26 27  1  0  0  0
 27 28  1  0  0  0
 27 29  1  0  0  0
 29 30  1  0  0  0
 30 31  2  0  0  0
 31 32  1  0  0  0
 32 33  2  0  0  0
 33 34  1  0  0  0
 34 35  2  0  0  0
  7  8  1  0  0  0
  8  9  1  0  0  0
  9 10  2  0  0  0
 10 11  1  0  0  0
 11 12  2  0  0  0
 12 13  1  0  0  0
 13 15  1  0  0  0
 15 16  2  0  0  0
 15 17  1  0  0  0
 13 14  2  0  0  0
  8  1  1  0  0  0
 14  9  1  0  0  0
 35 30  1  0  0  0
M  CHG 1  15   1
M  CHG 1  17  -1
M  END
> <minimizedAffinity>
-7.84807

> <CNNscore>
0.4260877669

> <CNNaffinity>
6.5577497482

> <CNN_VS>
2.7941770554

> <CNNaffinity_variance>
0.1736611426

$$$$
[H]c1c([H])c([H])c(C([H])([H])N(C([H])([H])[H])C([H])([H])C([H])([H])OC(=O)C2=C(C([H])([H])[H])N=C(C([H])([H])[H])C([H])(C(=O)OC([H])([H])[H])C2([H])c2c([H])c([H])c([H])c([N+](=O)[O-])c2[H])c([H])c1[H]


 35 37  0  0  0  0  0  0  0  0999 V2000
  -16.4775   14.5359  -23.8547 C   0  0  0  0  0  0  0  0  0  0  0  0
  -15.2319   13.7874  -24.0522 C   0  0  0  0  0  0  0  0  0  0  0  0
  -14.2733   14.3390  -25.0951 C   0  0  0  0  0  0  0  0  0  0  0  0
  -14.8911   12.7429  -23.4408 N   0  0  0  0  0  0  0  0  0  0  0  0
  -15.7253   12.1698  -22.4531 C   0  0  0  0  0  0  0  0  0  0  0  0
  -15.2411   10.9063  -21.7921 C   0  0  0  0  0  0  0  0  0  0  0  0
  -16.8765   12.7392  -22.1636 C   0  0  0  0  0  0  0  0  0  0  0  0
  -17.3439   14.0061  -22.8105 C   0  0  0  0  0  0  0  0  0  0  0  0
  -17.6223   14.9919  -21.7225 C   0  0  0  0  0  0  0  0  0  0  0  0
  -16.6360   15.6324  -21.0246 C   0  0  0  0  0  0  0  0  0  0  0  0
  -16.9276   16.5536  -20.0390 C   0  0  0  0  0  0  0  0  0  0  0  0
  -18.2565   16.8405  -19.7452 C   0  0  0  0  0  0  0  0  0  0  0  0
  -19.2623   16.1963  -20.4472 C   0  0  0  0  0  0  0  0  0  0  0  0
  -18.9299   15.2796  -21.4274 C   0  0  0  0  0  0  0  0  0  0  0  0
  -20.6103   16.5054  -20.1304 N   0  0  0  0  0  0  0  0  0  0  0  0
  -21.3755   16.8237  -21.0540 O   0  0  0  0  0  0  0  0  0  0  0  0
  -21.1023   16.4688  -18.8564 O   0  0  0  0  0  0  0  0  0  0  0  0
  -17.1519   14.5652  -25.2089 C   0  0  0  0  0  0  0  0  0  0  0  0
  -16.9892   15.4897  -26.0047 O   0  0  0  0  0  0  0  0  0  0  0  0
  -17.5035   12.4645  -26.3885 C   0  0  0  0  0  0  0  0  0  0  0  0
  -17.9722   13.5056  -25.5369 O   0  0  0  0  0  0  0  0  0  0  0  0
  -17.7386   12.1518  -21.1505 C   0  0  0  0  0  0  0  0  0  0  0  0
  -18.5410   11.2189  -21.5354 O   0  0  0  0  0  0  0  0  0  0  0  0
  -17.8226   12.4537  -19.8113 O   0  0  0  0  0  0  0  0  0  0  0  0
  -17.0953   11.6236  -18.8892 C   0  0  0  0  0  0  0  0  0  0  0  0
  -17.7587   10.3312  -18.6299 C   0  0  0  0  0  0  0  0  0  0  0  0
  -18.4500   10.1352  -17.4210 N   0  0  0  0  0  0  0  0  0  0  0  0
  -18.7482    8.8551  -16.9586 C   0  0  0  0  0  0  0  0  0  0  0  0
  -19.5575   11.0482  -17.3519 C   0  0  0  0  0  0  0  0  0  0  0  0
  -20.3227   10.9870  -16.0916 C   0  0  0  0  0  0  0  0  0  0  0  0
  -19.8821   11.5134  -14.8912 C   0  0  0  0  0  0  0  0  0  0  0  0
  -20.6283   11.4353  -13.7351 C   0  0  0  0  0  0  0  0  0  0  0  0
  -21.8592   10.8097  -13.7760 C   0  0  0  0  0  0  0  0  0  0  0  0
  -22.3154   10.2791  -14.9628 C   0  0  0  0  0  0  0  0  0  0  0  0
  -21.5573   10.3693  -16.0938 C   0  0  0  0  0  0  0  0  0  0  0  0
 20 21  1  0  0  0
 21 18  1  0  0  0
 18 19  2  0  0  0
 18  1  1  0  0  0
  1  2  1  0  0  0
  2  3  1  0  0  0
  2  4  2  0  0  0
  4  5  1  0  0  0
  5  6  1  0  0  0
  5  7  2  0  0  0
  7 22  1  0  0  0
 22 23  2  0  0  0
 22 24  1  0  0  0
 24 25  1  0  0  0
 25 26  1  0  0  0
 26 27  1  0  0  0
 27 28  1  0  0  0
 27 29  1  0  0  0
 29 30  1  0  0  0
 30 31  2  0  0  0
 31 32  1  0  0  0
 32 33  2  0  0  0
 33 34  1  0  0  0
 34 35  2  0  0  0
  7  8  1  0  0  0
  8  9  1  0  0  0
  9 10  2  0  0  0
 10 11  1  0  0  0
 11 12  2  0  0  0
 12 13  1  0  0  0
 13 15  1  0  0  0
 15 16  2  0  0  0
 15 17  1  0  0  0
 13 14  2  0  0  0
  8  1  1  0  0  0
 14  9  1  0  0  0
 35 30  1  0  0  0
M  CHG 1  15   1
M  CHG 1  17  -1
M  END
> <minimizedAffinity>
-7.47523

> <CNNscore>
0.3719842732

> <CNNaffinity>
6.8165373802

> <CNN_VS>
2.5356447697

> <CNNaffinity_variance>
0.1618810147

$$$$
[H]c1c([H])c([H])c(C([H])([H])N(C([H])([H])[H])C([H])([H])C([H])([H])OC(=O)C2=C(C([H])([H])[H])N=C(C([H])([H])[H])C([H])(C(=O)OC([H])([H])[H])C2([H])c2c([H])c([H])c([H])c([N+](=O)[O-])c2[H])c([H])c1[H]


 35 37  0  0  0  0  0  0  0  0999 V2000
  -16.7540   13.9470  -23.1237 C   0  0  0  0  0  0  0  0  0  0  0  0
  -16.2492   12.6815  -22.5808 C   0  0  0  0  0  0  0  0  0  0  0  0
  -15.0820   12.0492  -23.3215 C   0  0  0  0  0  0  0  0  0  0  0  0
  -16.6911   12.0819  -21.5679 N   0  0  0  0  0  0  0  0  0  0  0  0
  -17.7717   12.6073  -20.8219 C   0  0  0  0  0  0  0  0  0  0  0  0
  -18.2448   11.8054  -19.6382 C   0  0  0  0  0  0  0  0  0  0  0  0
  -18.3234   13.7448  -21.1890 C   0  0  0  0  0  0  0  0  0  0  0  0
  -17.8362   14.5472  -22.3555 C   0  0  0  0  0  0  0  0  0  0  0  0
  -17.5119   15.9177  -21.8561 C   0  0  0  0  0  0  0  0  0  0  0  0
  -16.6005   16.1551  -20.8646 C   0  0  0  0  0  0  0  0  0  0  0  0
  -16.3086   17.4357  -20.4407 C   0  0  0  0  0  0  0  0  0  0  0  0
  -16.9553   18.5146  -21.0342 C   0  0  0  0  0  0  0  0  0  0  0  0
  -17.8802   18.2836  -22.0395 C   0  0  0  0  0  0  0  0  0  0  0  0
  -18.1455   16.9861  -22.4365 C   0  0  0  0  0  0  0  0  0  0  0  0
  -18.5269   19.3997  -22.6304 N   0  0  0  0  0  0  0  0  0  0  0  0
  -18.8298   19.3380  -23.8322 O   0  0  0  0  0  0  0  0  0  0  0  0
  -18.8300   20.5369  -21.9367 O   0  0  0  0  0  0  0  0  0  0  0  0
  -17.1537   13.6448  -24.5513 C   0  0  0  0  0  0  0  0  0  0  0  0
  -18.0712   12.8728  -24.8279 O   0  0  0  0  0  0  0  0  0  0  0  0
  -16.2354   15.6786  -25.5251 C   0  0  0  0  0  0  0  0  0  0  0  0
  -16.4482   14.2707  -25.5582 O   0  0  0  0  0  0  0  0  0  0  0  0
  -19.4364   14.2873  -20.4263 C   0  0  0  0  0  0  0  0  0  0  0  0
  -20.5827   13.7174  -20.5796 O   0  0  0  0  0  0  0  0  0  0  0  0
  -19.4426   15.3431  -19.5449 O   0  0  0  0  0  0  0  0  0  0  0  0
  -20.6446   15.5822  -18.7925 C   0  0  0  0  0  0  0  0  0  0  0  0
  -20.4367   15.5061  -17.3335 C   0  0  0  0  0  0  0  0  0  0  0  0
  -19.9652   14.3117  -16.7602 N   0  0  0  0  0  0  0  0  0  0  0  0
  -18.6091   13.9919  -16.7694 C   0  0  0  0  0  0  0  0  0  0  0  0
  -20.8190   13.2248  -17.1534 C   0  0  0  0  0  0  0  0  0  0  0  0
  -20.8139   12.0769  -16.2261 C   0  0  0  0  0  0  0  0  0  0  0  0
  -21.2308   12.1427  -14.9092 C   0  0  0  0  0  0  0  0  0  0  0  0
  -21.2103   11.0457  -14.0750 C   0  0  0  0  0  0  0  0  0  0  0  0
  -20.7578    9.8384  -14.5707 C   0  0  0  0  0  0  0  0  0  0  0  0
  -20.3383    9.7530  -15.8802 C   0  0  0  0  0  0  0  0  0  0  0  0
  -20.3683   10.8538  -16.6860 C   0  0  0  0  0  0  0  0  0  0  0  0
 20 21  1  0  0  0
 21 18  1  0  0  0
 18 19  2  0  0  0
 18  1  1  0  0  0
  1  2  1  0  0  0
  2  3  1  0  0  0
  2  4  2  0  0  0
  4  5  1  0  0  0
  5  6  1  0  0  0
  5  7  2  0  0  0
  7 22  1  0  0  0
 22 23  2  0  0  0
 22 24  1  0  0  0
 24 25  1  0  0  0
 25 26  1  0  0  0
 26 27  1  0  0  0
 27 28  1  0  0  0
 27 29  1  0  0  0
 29 30  1  0  0  0
 30 31  2  0  0  0
 31 32  1  0  0  0
 32 33  2  0  0  0
 33 34  1  0  0  0
 34 35  2  0  0  0
  7  8  1  0  0  0
  8  9  1  0  0  0
  9 10  2  0  0  0
 10 11  1  0  0  0
 11 12  2  0  0  0
 12 13  1  0  0  0
 13 15  1  0  0  0
 15 16  2  0  0  0
 15 17  1  0  0  0
 13 14  2  0  0  0
  8  1  1  0  0  0
 14  9  1  0  0  0
 35 30  1  0  0  0
M  CHG 1  15   1
M  CHG 1  17  -1
M  END
> <minimizedAffinity>
-6.77190

> <CNNscore>
0.3618371189

> <CNNaffinity>
6.5864744186

> <CNN_VS>
2.3832309246

> <CNNaffinity_variance>
0.1894913316

$$$$
[H]c1c([H])c([H])c(C([H])([H])N(C([H])([H])[H])C([H])([H])C([H])([H])OC(=O)C2=C(C([H])([H])[H])N=C(C([H])([H])[H])C([H])(C(=O)OC([H])([H])[H])C2([H])c2c([H])c([H])c([H])c([N+](=O)[O-])c2[H])c([H])c1[H]


 35 37  0  0  0  0  0  0  0  0999 V2000
  -17.0288   13.0717  -23.2384 C   0  0  0  0  0  0  0  0  0  0  0  0
  -17.6821   13.6017  -24.4397 C   0  0  0  0  0  0  0  0  0  0  0  0
  -17.7223   12.6787  -25.6468 C   0  0  0  0  0  0  0  0  0  0  0  0
  -18.2067   14.7383  -24.5566 N   0  0  0  0  0  0  0  0  0  0  0  0
  -18.2144   15.6534  -23.4783 C   0  0  0  0  0  0  0  0  0  0  0  0
  -18.8463   16.9985  -23.7219 C   0  0  0  0  0  0  0  0  0  0  0  0
  -17.6679   15.3109  -22.3306 C   0  0  0  0  0  0  0  0  0  0  0  0
  -17.0582   13.9650  -22.0883 C   0  0  0  0  0  0  0  0  0  0  0  0
  -17.7391   13.3689  -20.8992 C   0  0  0  0  0  0  0  0  0  0  0  0
  -17.1830   12.3772  -20.1392 C   0  0  0  0  0  0  0  0  0  0  0  0
  -17.8301   11.8627  -19.0340 C   0  0  0  0  0  0  0  0  0  0  0  0
  -19.0791   12.3625  -18.6809 C   0  0  0  0  0  0  0  0  0  0  0  0
  -19.6501   13.3672  -19.4450 C   0  0  0  0  0  0  0  0  0  0  0  0
  -18.9705   13.8566  -20.5451 C   0  0  0  0  0  0  0  0  0  0  0  0
  -20.9246   13.8615  -19.0653 N   0  0  0  0  0  0  0  0  0  0  0  0
  -21.2655   13.7627  -17.8761 O   0  0  0  0  0  0  0  0  0  0  0  0
  -21.7916   14.4400  -19.9485 O   0  0  0  0  0  0  0  0  0  0  0  0
  -15.6201   12.7205  -23.6646 C   0  0  0  0  0  0  0  0  0  0  0  0
  -15.0220   11.7427  -23.2167 O   0  0  0  0  0  0  0  0  0  0  0  0
  -14.2442   14.6662  -24.1637 C   0  0  0  0  0  0  0  0  0  0  0  0
  -15.0089   13.5423  -24.5889 O   0  0  0  0  0  0  0  0  0  0  0  0
  -17.6713   16.2497  -21.2200 C   0  0  0  0  0  0  0  0  0  0  0  0
  -16.5234   16.6246  -20.7683 O   0  0  0  0  0  0  0  0  0  0  0  0
  -18.7459   16.8085  -20.5684 O   0  0  0  0  0  0  0  0  0  0  0  0
  -18.5274   18.0268  -19.8361 C   0  0  0  0  0  0  0  0  0  0  0  0
  -19.5758   19.0380  -20.0726 C   0  0  0  0  0  0  0  0  0  0  0  0
  -19.7825   19.5337  -21.3722 N   0  0  0  0  0  0  0  0  0  0  0  0
  -18.8522   20.3727  -21.9820 C   0  0  0  0  0  0  0  0  0  0  0  0
  -21.1405   19.9860  -21.4994 C   0  0  0  0  0  0  0  0  0  0  0  0
  -21.9914   19.1340  -22.3526 C   0  0  0  0  0  0  0  0  0  0  0  0
  -21.9219   19.1052  -23.7334 C   0  0  0  0  0  0  0  0  0  0  0  0
  -22.7357   18.2940  -24.4946 C   0  0  0  0  0  0  0  0  0  0  0  0
  -23.6527   17.4812  -23.8569 C   0  0  0  0  0  0  0  0  0  0  0  0
  -23.7367   17.4960  -22.4818 C   0  0  0  0  0  0  0  0  0  0  0  0
  -22.9198   18.3083  -21.7507 C   0  0  0  0  0  0  0  0  0  0  0  0
 20 21  1  0  0  0
 21 18  1  0  0  0
 18 19  2  0  0  0
 18  1  1  0  0  0
  1  2  1  0  0  0
  2  3  1  0  0  0
  2  4  2  0  0  0
  4  5  1  0  0  0
  5  6  1  0  0  0
  5  7  2  0  0  0
  7 22  1  0  0  0
 22 23  2  0  0  0
 22 24  1  0  0  0
 24 25  1  0  0  0
 25 26  1  0  0  0
 26 27  1  0  0  0
 27 28  1  0  0  0
 27 29  1  0  0  0
 29 30  1  0  0  0
 30 31  2  0  0  0
 31 32  1  0  0  0
 32 33  2  0  0  0
 33 34  1  0  0  0
 34 35  2  0  0  0
  7  8  1  0  0  0
  8  9  1  0  0  0
  9 10  2  0  0  0
 10 11  1  0  0  0
 11 12  2  0  0  0
 12 13  1  0  0  0
 13 15  1  0  0  0
 15 16  2  0  0  0
 15 17  1  0  0  0
 13 14  2  0  0  0
  8  1  1  0  0  0
 14  9  1  0  0  0
 35 30  1  0  0  0
M  CHG 1  15   1
M  CHG 1  17  -1
M  END
> <minimizedAffinity>
-8.23766

> <CNNscore>
0.3386312425

> <CNNaffinity>
6.5852332115

> <CNN_VS>
2.2299656868

> <CNNaffinity_variance>
0.2840421498

$$$$
[H]c1c([H])c([H])c(C([H])([H])N(C([H])([H])[H])C([H])([H])C([H])([H])OC(=O)C2=C(C([H])([H])[H])N=C(C([H])([H])[H])C([H])(C(=O)OC([H])([H])[H])C2([H])c2c([H])c([H])c([H])c([N+](=O)[O-])c2[H])c([H])c1[H]


 35 37  0  0  0  0  0  0  0  0999 V2000
  -17.1133   13.6609  -23.2473 C   0  0  0  0  0  0  0  0  0  0  0  0
  -17.7163   14.1523  -24.4906 C   0  0  0  0  0  0  0  0  0  0  0  0
  -17.4926   13.3007  -25.7297 C   0  0  0  0  0  0  0  0  0  0  0  0
  -18.3951   15.2027  -24.6193 N   0  0  0  0  0  0  0  0  0  0  0  0
  -18.6518   16.0464  -23.5136 C   0  0  0  0  0  0  0  0  0  0  0  0
  -19.4554   17.2936  -23.7718 C   0  0  0  0  0  0  0  0  0  0  0  0
  -18.1772   15.7272  -22.3279 C   0  0  0  0  0  0  0  0  0  0  0  0
  -17.3951   14.4759  -22.0735 C   0  0  0  0  0  0  0  0  0  0  0  0
  -18.0923   13.7212  -20.9884 C   0  0  0  0  0  0  0  0  0  0  0  0
  -19.4069   13.9182  -20.6674 C   0  0  0  0  0  0  0  0  0  0  0  0
  -20.0266   13.1891  -19.6728 C   0  0  0  0  0  0  0  0  0  0  0  0
  -19.2994   12.2290  -18.9771 C   0  0  0  0  0  0  0  0  0  0  0  0
  -17.9669   12.0226  -19.2956 C   0  0  0  0  0  0  0  0  0  0  0  0
  -17.3817   12.7732  -20.2984 C   0  0  0  0  0  0  0  0  0  0  0  0
  -17.2456   11.0377  -18.5728 N   0  0  0  0  0  0  0  0  0  0  0  0
  -17.8819   10.1250  -18.0231 O   0  0  0  0  0  0  0  0  0  0  0  0
  -15.8846   11.0493  -18.4549 O   0  0  0  0  0  0  0  0  0  0  0  0
  -15.6318   13.5472  -23.5328 C   0  0  0  0  0  0  0  0  0  0  0  0
  -15.0493   12.4635  -23.5638 O   0  0  0  0  0  0  0  0  0  0  0  0
  -14.1292   14.8590  -24.9289 C   0  0  0  0  0  0  0  0  0  0  0  0
  -14.9342   14.7150  -23.7627 O   0  0  0  0  0  0  0  0  0  0  0  0
  -18.4365   16.5931  -21.1887 C   0  0  0  0  0  0  0  0  0  0  0  0
  -19.6037   17.1367  -21.1216 O   0  0  0  0  0  0  0  0  0  0  0  0
  -17.5983   16.9223  -20.1491 O   0  0  0  0  0  0  0  0  0  0  0  0
  -18.0453   16.6406  -18.8116 C   0  0  0  0  0  0  0  0  0  0  0  0
  -18.7551   17.7751  -18.1897 C   0  0  0  0  0  0  0  0  0  0  0  0
  -19.8067   17.5275  -17.2895 N   0  0  0  0  0  0  0  0  0  0  0  0
  -19.5566   17.1268  -15.9787 C   0  0  0  0  0  0  0  0  0  0  0  0
  -20.8247   16.7550  -17.9467 C   0  0  0  0  0  0  0  0  0  0  0  0
  -21.9562   17.5486  -18.4639 C   0  0  0  0  0  0  0  0  0  0  0  0
  -22.3850   18.7401  -17.9083 C   0  0  0  0  0  0  0  0  0  0  0  0
  -23.4476   19.4517  -18.4224 C   0  0  0  0  0  0  0  0  0  0  0  0
  -24.1075   18.9583  -19.5311 C   0  0  0  0  0  0  0  0  0  0  0  0
  -23.6950   17.7727  -20.0987 C   0  0  0  0  0  0  0  0  0  0  0  0
  -22.6401   17.0869  -19.5706 C   0  0  0  0  0  0  0  0  0  0  0  0
 20 21  1  0  0  0
 21 18  1  0  0  0
 18 19  2  0  0  0
 18  1  1  0  0  0
  1  2  1  0  0  0
  2  3  1  0  0  0
  2  4  2  0  0  0
  4  5  1  0  0  0
  5  6  1  0  0  0
  5  7  2  0  0  0
  7 22  1  0  0  0
 22 23  2  0  0  0
 22 24  1  0  0  0
 24 25  1  0  0  0
 25 26  1  0  0  0
 26 27  1  0  0  0
 27 28  1  0  0  0
 27 29  1  0  0  0
 29 30  1  0  0  0
 30 31  2  0  0  0
 31 32  1  0  0  0
 32 33  2  0  0  0
 33 34  1  0  0  0
 34 35  2  0  0  0
  7  8  1  0  0  0
  8  9  1  0  0  0
  9 10  2  0  0  0
 10 11  1  0  0  0
 11 12  2  0  0  0
 12 13  1  0  0  0
 13 15  1  0  0  0
 15 16  2  0  0  0
 15 17  1  0  0  0
 13 14  2  0  0  0
  8  1  1  0  0  0
 14  9  1  0  0  0
 35 30  1  0  0  0
M  CHG 1  15   1
M  CHG 1  17  -1
M  END
> <minimizedAffinity>
-7.41282

> <CNNscore>
0.2836385667

> <CNNaffinity>
6.5756745338

> <CNN_VS>
1.8651149273

> <CNNaffinity_variance>
0.0737431049

$$$$
[H]c1c([H])c([H])c(C([H])([H])N(C([H])([H])[H])C([H])([H])C([H])([H])OC(=O)C2=C(C([H])([H])[H])N=C(C([H])([H])[H])C([H])(C(=O)OC([H])([H])[H])C2([H])c2c([H])c([H])c([H])c([N+](=O)[O-])c2[H])c([H])c1[H]


 35 37  0  0  0  0  0  0  0  0999 V2000
  -16.7422   14.3390  -23.1710 C   0  0  0  0  0  0  0  0  0  0  0  0
  -16.1480   13.0413  -22.8339 C   0  0  0  0  0  0  0  0  0  0  0  0
  -15.0406   12.5492  -23.7516 C   0  0  0  0  0  0  0  0  0  0  0  0
  -16.4696   12.3097  -21.8632 N   0  0  0  0  0  0  0  0  0  0  0  0
  -17.4871   12.6987  -20.9613 C   0  0  0  0  0  0  0  0  0  0  0  0
  -17.8167   11.7453  -19.8431 C   0  0  0  0  0  0  0  0  0  0  0  0
  -18.1068   13.8471  -21.1356 C   0  0  0  0  0  0  0  0  0  0  0  0
  -17.7615   14.7996  -22.2381 C   0  0  0  0  0  0  0  0  0  0  0  0
  -17.4316   16.1151  -21.6105 C   0  0  0  0  0  0  0  0  0  0  0  0
  -16.4382   16.2724  -20.6839 C   0  0  0  0  0  0  0  0  0  0  0  0
  -16.1451   17.5060  -20.1388 C   0  0  0  0  0  0  0  0  0  0  0  0
  -16.8760   18.6196  -20.5391 C   0  0  0  0  0  0  0  0  0  0  0  0
  -17.8844   18.4696  -21.4774 C   0  0  0  0  0  0  0  0  0  0  0  0
  -18.1479   17.2172  -22.0003 C   0  0  0  0  0  0  0  0  0  0  0  0
  -18.6161   19.6198  -21.8706 N   0  0  0  0  0  0  0  0  0  0  0  0
  -18.9370   19.7356  -23.0638 O   0  0  0  0  0  0  0  0  0  0  0  0
  -18.9821   20.6036  -20.9963 O   0  0  0  0  0  0  0  0  0  0  0  0
  -17.2710   14.1888  -24.5806 C   0  0  0  0  0  0  0  0  0  0  0  0
  -17.1224   15.0617  -25.4353 O   0  0  0  0  0  0  0  0  0  0  0  0
  -17.7037   12.3624  -26.1313 C   0  0  0  0  0  0  0  0  0  0  0  0
  -17.9390   13.0223  -24.8913 O   0  0  0  0  0  0  0  0  0  0  0  0
  -19.1555   14.2498  -20.2121 C   0  0  0  0  0  0  0  0  0  0  0  0
  -20.3654   13.9382  -20.5301 O   0  0  0  0  0  0  0  0  0  0  0  0
  -19.0401   14.9289  -19.0217 O   0  0  0  0  0  0  0  0  0  0  0  0
  -20.0510   14.7089  -18.0228 C   0  0  0  0  0  0  0  0  0  0  0  0
  -20.2080   15.8498  -17.1000 C   0  0  0  0  0  0  0  0  0  0  0  0
  -21.4177   16.5667  -17.0809 N   0  0  0  0  0  0  0  0  0  0  0  0
  -22.1795   16.6678  -15.9187 C   0  0  0  0  0  0  0  0  0  0  0  0
  -22.1859   16.2364  -18.2496 C   0  0  0  0  0  0  0  0  0  0  0  0
  -22.1938   17.2812  -19.2916 C   0  0  0  0  0  0  0  0  0  0  0  0
  -22.5849   18.5897  -19.0740 C   0  0  0  0  0  0  0  0  0  0  0  0
  -22.5775   19.5364  -20.0757 C   0  0  0  0  0  0  0  0  0  0  0  0
  -22.1652   19.1663  -21.3410 C   0  0  0  0  0  0  0  0  0  0  0  0
  -21.7717   17.8673  -21.5774 C   0  0  0  0  0  0  0  0  0  0  0  0
  -21.7883   16.9485  -20.5686 C   0  0  0  0  0  0  0  0  0  0  0  0
 20 21  1  0  0  0
 21 18  1  0  0  0
 18 19  2  0  0  0
 18  1  1  0  0  0
  1  2  1  0  0  0
  2  3  1  0  0  0
  2  4  2  0  0  0
  4  5  1  0  0  0
  5  6  1  0  0  0
  5  7  2  0  0  0
  7 22  1  0  0  0
 22 23  2  0  0  0
 22 24  1  0  0  0
 24 25  1  0  0  0
 25 26  1  0  0  0
 26 27  1  0  0  0
 27 28  1  0  0  0
 27 29  1  0  0  0
 29 30  1  0  0  0
 30 31  2  0  0  0
 31 32  1  0  0  0
 32 33  2  0  0  0
 33 34  1  0  0  0
 34 35  2  0  0  0
  7  8  1  0  0  0
  8  9  1  0  0  0
  9 10  2  0  0  0
 10 11  1  0  0  0
 11 12  2  0  0  0
 12 13  1  0  0  0
 13 15  1  0  0  0
 15 16  2  0  0  0
 15 17  1  0  0  0
 13 14  2  0  0  0
  8  1  1  0  0  0
 14  9  1  0  0  0
 35 30  1  0  0  0
M  CHG 1  15   1
M  CHG 1  17  -1
M  END
> <minimizedAffinity>
-6.24283

> <CNNscore>
0.2792445719

> <CNNaffinity>
6.3744244576

> <CNN_VS>
1.7800234556

> <CNNaffinity_variance>
0.2650738657

$$$$
[H]c1c([H])c([H])c(C([H])([H])N(C([H])([H])[H])C([H])([H])C([H])([H])OC(=O)C2=C(C([H])([H])[H])N=C(C([H])([H])[H])C([H])(C(=O)OC([H])([H])[H])C2([H])c2c([H])c([H])c([H])c([N+](=O)[O-])c2[H])c([H])c1[H]


 35 37  0  0  0  0  0  0  0  0999 V2000
  -17.1364   14.6915  -23.1057 C   0  0  0  0  0  0  0  0  0  0  0  0
  -16.7245   13.3230  -22.7765 C   0  0  0  0  0  0  0  0  0  0  0  0
  -15.6416   12.7164  -23.6541 C   0  0  0  0  0  0  0  0  0  0  0  0
  -17.1821   12.6167  -21.8424 N   0  0  0  0  0  0  0  0  0  0  0  0
  -18.1877   13.1101  -20.9791 C   0  0  0  0  0  0  0  0  0  0  0  0
  -18.6881   12.1816  -19.9041 C   0  0  0  0  0  0  0  0  0  0  0  0
  -18.6515   14.3302  -21.1510 C   0  0  0  0  0  0  0  0  0  0  0  0
  -18.1365   15.2555  -22.2096 C   0  0  0  0  0  0  0  0  0  0  0  0
  -17.6788   16.5060  -21.5315 C   0  0  0  0  0  0  0  0  0  0  0  0
  -16.5066   16.5903  -20.8322 C   0  0  0  0  0  0  0  0  0  0  0  0
  -16.1028   17.7671  -20.2349 C   0  0  0  0  0  0  0  0  0  0  0  0
  -16.9050   18.8980  -20.3445 C   0  0  0  0  0  0  0  0  0  0  0  0
  -18.0943   18.8219  -21.0511 C   0  0  0  0  0  0  0  0  0  0  0  0
  -18.4645   17.6247  -21.6354 C   0  0  0  0  0  0  0  0  0  0  0  0
  -18.8959   19.9883  -21.1499 N   0  0  0  0  0  0  0  0  0  0  0  0
  -18.6569   20.7929  -22.0640 O   0  0  0  0  0  0  0  0  0  0  0  0
  -19.9167   20.2649  -20.2851 O   0  0  0  0  0  0  0  0  0  0  0  0
  -17.6084   14.6382  -24.5423 C   0  0  0  0  0  0  0  0  0  0  0  0
  -18.5293   13.9070  -24.9052 O   0  0  0  0  0  0  0  0  0  0  0  0
  -15.9584   16.3605  -25.0311 C   0  0  0  0  0  0  0  0  0  0  0  0
  -16.9662   15.4481  -25.4560 O   0  0  0  0  0  0  0  0  0  0  0  0
  -19.6874   14.8407  -20.2673 C   0  0  0  0  0  0  0  0  0  0  0  0
  -19.3176   15.2219  -19.0925 O   0  0  0  0  0  0  0  0  0  0  0  0
  -21.0342   14.9796  -20.5096 O   0  0  0  0  0  0  0  0  0  0  0  0
  -21.6561   16.2250  -20.1487 C   0  0  0  0  0  0  0  0  0  0  0  0
  -21.8880   17.1107  -21.3060 C   0  0  0  0  0  0  0  0  0  0  0  0
  -23.1287   17.7573  -21.4485 N   0  0  0  0  0  0  0  0  0  0  0  0
  -23.9215   18.0516  -20.3412 C   0  0  0  0  0  0  0  0  0  0  0  0
  -23.8534   17.1631  -22.5378 C   0  0  0  0  0  0  0  0  0  0  0  0
  -23.7355   17.8875  -23.8180 C   0  0  0  0  0  0  0  0  0  0  0  0
  -23.7881   19.2643  -23.9371 C   0  0  0  0  0  0  0  0  0  0  0  0
  -23.6736   19.9028  -25.1531 C   0  0  0  0  0  0  0  0  0  0  0  0
  -23.5003   19.1421  -26.2929 C   0  0  0  0  0  0  0  0  0  0  0  0
  -23.4454   17.7690  -26.1946 C   0  0  0  0  0  0  0  0  0  0  0  0
  -23.5615   17.1606  -24.9787 C   0  0  0  0  0  0  0  0  0  0  0  0
 20 21  1  0  0  0
 21 18  1  0  0  0
 18 19  2  0  0  0
 18  1  1  0  0  0
  1  2  1  0  0  0
  2  3  1  0  0  0
  2  4  2  0  0  0
  4  5  1  0  0  0
  5  6  1  0  0  0
  5  7  2  0  0  0
  7 22  1  0  0  0
 22 23  2  0  0  0
 22 24  1  0  0  0
 24 25  1  0  0  0
 25 26  1  0  0  0
 26 27  1  0  0  0
 27 28  1  0  0  0
 27 29  1  0  0  0
 29 30  1  0  0  0
 30 31  2  0  0  0
 31 32  1  0  0  0
 32 33  2  0  0  0
 33 34  1  0  0  0
 34 35  2  0  0  0
  7  8  1  0  0  0
  8  9  1  0  0  0
  9 10  2  0  0  0
 10 11  1  0  0  0
 11 12  2  0  0  0
 12 13  1  0  0  0
 13 15  1  0  0  0
 15 16  2  0  0  0
 15 17  1  0  0  0
 13 14  2  0  0  0
  8  1  1  0  0  0
 14  9  1  0  0  0
 35 30  1  0  0  0
M  CHG 1  15   1
M  CHG 1  17  -1
M  END
> <minimizedAffinity>
-7.29199

> <CNNscore>
0.2540045977

> <CNNaffinity>
6.1375870705

> <CNN_VS>
1.5589753389

> <CNNaffinity_variance>
0.3509628475

$$$$
[H]/C(=C(\[H])C([H])([H])C([H])([H])C([H])([H])C([H])([H])C([H])([H])C([H])([H])C([H])([H])C([H])([H])[H])C([H])([H])C([H])([H])C([H])([H])C([H])([H])C([H])([H])C([H])([H])C([H])([H])C(=O)c1nc2c([H])c([H])c([H])nc2o1


 28 29  0  0  0  0  0  0  0  0999 V2000
  -19.0826   16.2910  -21.0645 C   0  0  0  0  0  0  0  0  0  0  0  0
  -20.2313   16.9977  -21.6042 C   0  0  0  0  0  0  0  0  0  0  0  0
  -21.3143   17.5636  -20.8029 C   0  0  0  0  0  0  0  0  0  0  0  0
  -22.6427   16.8771  -20.8102 C   0  0  0  0  0  0  0  0  0  0  0  0
  -23.6727   17.7503  -21.4860 C   0  0  0  0  0  0  0  0  0  0  0  0
  -24.6341   18.1695  -20.8094 O   0  0  0  0  0  0  0  0  0  0  0  0
  -23.5533   18.0930  -22.8755 C   0  0  0  0  0  0  0  0  0  0  0  0
  -23.1654   19.2978  -23.3633 N   0  0  0  0  0  0  0  0  0  0  0  0
  -23.1669   19.2647  -24.7088 C   0  0  0  0  0  0  0  0  0  0  0  0
  -22.8809   20.1392  -25.7206 C   0  0  0  0  0  0  0  0  0  0  0  0
  -23.0006   19.7361  -27.0262 C   0  0  0  0  0  0  0  0  0  0  0  0
  -23.4112   18.4436  -27.2929 C   0  0  0  0  0  0  0  0  0  0  0  0
  -23.6986   17.5641  -26.2956 N   0  0  0  0  0  0  0  0  0  0  0  0
  -23.5778   17.9698  -25.0219 C   0  0  0  0  0  0  0  0  0  0  0  0
  -23.7951   17.3126  -23.9009 O   0  0  0  0  0  0  0  0  0  0  0  0
  -18.7334   14.9167  -21.4645 C   0  0  0  0  0  0  0  0  0  0  0  0
  -17.3943   14.4447  -21.0131 C   0  0  0  0  0  0  0  0  0  0  0  0
  -16.7748   13.3663  -21.8895 C   0  0  0  0  0  0  0  0  0  0  0  0
  -17.4044   11.1139  -21.2115 C   0  0  0  0  0  0  0  0  0  0  0  0
  -17.6618   12.1967  -21.9026 C   0  0  0  0  0  0  0  0  0  0  0  0
  -16.2434   10.9371  -20.3684 C   0  0  0  0  0  0  0  0  0  0  0  0
  -16.5676   11.0216  -18.8783 C   0  0  0  0  0  0  0  0  0  0  0  0
  -17.9528   10.5780  -18.5846 C   0  0  0  0  0  0  0  0  0  0  0  0
  -18.7492   11.5265  -17.6889 C   0  0  0  0  0  0  0  0  0  0  0  0
  -19.3768   12.6270  -18.4559 C   0  0  0  0  0  0  0  0  0  0  0  0
  -20.6317   13.2342  -17.9728 C   0  0  0  0  0  0  0  0  0  0  0  0
  -20.7686   15.6889  -17.6193 C   0  0  0  0  0  0  0  0  0  0  0  0
  -21.0772   14.5366  -18.5138 C   0  0  0  0  0  0  0  0  0  0  0  0
 27 28  1  0  0  0
 28 26  1  0  0  0
 26 25  1  0  0  0
 25 24  1  0  0  0
 24 23  1  0  0  0
 23 22  1  0  0  0
 22 21  1  0  0  0
 21 19  1  0  0  0
 19 20  2  0  0  0
 20 18  1  0  0  0
 18 17  1  0  0  0
 17 16  1  0  0  0
 16  1  1  0  0  0
  1  2  1  0  0  0
  2  3  1  0  0  0
  3  4  1  0  0  0
  4  5  1  0  0  0
  5  6  2  0  0  0
  5  7  1  0  0  0
  7  8  2  0  0  0
  8  9  1  0  0  0
  9 10  2  0  0  0
 10 11  1  0  0  0
 11 12  2  0  0  0
 12 13  1  0  0  0
 13 14  2  0  0  0
 14 15  1  0  0  0
 15  7  1  0  0  0
 14  9  1  0  0  0
M  END
> <minimizedAffinity>
-5.88711

> <CNNscore>
0.3254759908

> <CNNaffinity>
5.9105482101

> <CNN_VS>
1.9237415791

> <CNNaffinity_variance>
0.3909076154

$$$$
[H]/C(=C(\[H])C([H])([H])C([H])([H])C([H])([H])C([H])([H])C([H])([H])C([H])([H])C([H])([H])C([H])([H])[H])C([H])([H])C([H])([H])C([H])([H])C([H])([H])C([H])([H])C([H])([H])C([H])([H])C(=O)c1nc2c([H])c([H])c([H])nc2o1


 28 29  0  0  0  0  0  0  0  0999 V2000
  -18.0660   16.3653  -23.9117 C   0  0  0  0  0  0  0  0  0  0  0  0
  -18.4259   15.0879  -24.5025 C   0  0  0  0  0  0  0  0  0  0  0  0
  -17.5826   14.3270  -25.4219 C   0  0  0  0  0  0  0  0  0  0  0  0
  -17.2478   12.9108  -25.0785 C   0  0  0  0  0  0  0  0  0  0  0  0
  -16.2097   12.8756  -23.9825 C   0  0  0  0  0  0  0  0  0  0  0  0
  -15.0735   13.3322  -24.2237 O   0  0  0  0  0  0  0  0  0  0  0  0
  -16.5181   12.3297  -22.6905 C   0  0  0  0  0  0  0  0  0  0  0  0
  -17.5146   12.7488  -21.8712 N   0  0  0  0  0  0  0  0  0  0  0  0
  -17.5137   12.0150  -20.7429 C   0  0  0  0  0  0  0  0  0  0  0  0
  -18.2498   11.9696  -19.5913 C   0  0  0  0  0  0  0  0  0  0  0  0
  -17.9451   11.0486  -18.6215 C   0  0  0  0  0  0  0  0  0  0  0  0
  -16.8916   10.1790  -18.8315 C   0  0  0  0  0  0  0  0  0  0  0  0
  -16.1517   10.2139  -19.9726 N   0  0  0  0  0  0  0  0  0  0  0  0
  -16.4591   11.1194  -20.9144 C   0  0  0  0  0  0  0  0  0  0  0  0
  -15.8990   11.3451  -22.0853 O   0  0  0  0  0  0  0  0  0  0  0  0
  -16.6943   16.9016  -23.9493 C   0  0  0  0  0  0  0  0  0  0  0  0
  -15.8290   16.5140  -22.8001 C   0  0  0  0  0  0  0  0  0  0  0  0
  -16.5812   16.2337  -21.5077 C   0  0  0  0  0  0  0  0  0  0  0  0
  -17.0489   18.3032  -20.3129 C   0  0  0  0  0  0  0  0  0  0  0  0
  -16.2580   17.2821  -20.5324 C   0  0  0  0  0  0  0  0  0  0  0  0
  -18.3094   18.5223  -20.9860 C   0  0  0  0  0  0  0  0  0  0  0  0
  -19.4527   18.8430  -20.0254 C   0  0  0  0  0  0  0  0  0  0  0  0
  -20.5185   17.8114  -20.0653 C   0  0  0  0  0  0  0  0  0  0  0  0
  -20.3147   16.7251  -21.1212 C   0  0  0  0  0  0  0  0  0  0  0  0
  -19.9762   15.4150  -20.5194 C   0  0  0  0  0  0  0  0  0  0  0  0
  -19.9098   15.2779  -19.0519 C   0  0  0  0  0  0  0  0  0  0  0  0
  -18.4651   16.3428  -17.3348 C   0  0  0  0  0  0  0  0  0  0  0  0
  -18.5977   15.2774  -18.3695 C   0  0  0  0  0  0  0  0  0  0  0  0
 27 28  1  0  0  0
 28 26  1  0  0  0
 26 25  1  0  0  0
 25 24  1  0  0  0
 24 23  1  0  0  0
 23 22  1  0  0  0
 22 21  1  0  0  0
 21 19  1  0  0  0
 19 20  2  0  0  0
 20 18  1  0  0  0
 18 17  1  0  0  0
 17 16  1  0  0  0
 16  1  1  0  0  0
  1  2  1  0  0  0
  2  3  1  0  0  0
  3  4  1  0  0  0
  4  5  1  0  0  0
  5  6  2  0  0  0
  5  7  1  0  0  0
  7  8  2  0  0  0
  8  9  1  0  0  0
  9 10  2  0  0  0
 10 11  1  0  0  0
 11 12  2  0  0  0
 12 13  1  0  0  0
 13 14  2  0  0  0
 14 15  1  0  0  0
 15  7  1  0  0  0
 14  9  1  0  0  0
M  END
> <minimizedAffinity>
-5.96109

> <CNNscore>
0.3193146288

> <CNNaffinity>
6.8185243607

> <CNN_VS>
2.1772546768

> <CNNaffinity_variance>
0.1584871113

$$$$
[H]/C(=C(\[H])C([H])([H])C([H])([H])C([H])([H])C([H])([H])C([H])([H])C([H])([H])C([H])([H])C([H])([H])[H])C([H])([H])C([H])([H])C([H])([H])C([H])([H])C([H])([H])C([H])([H])C([H])([H])C(=O)c1nc2c([H])c([H])c([H])nc2o1


 28 29  0  0  0  0  0  0  0  0999 V2000
  -19.2200   14.9347  -20.6414 C   0  0  0  0  0  0  0  0  0  0  0  0
  -18.3875   15.7945  -19.8180 C   0  0  0  0  0  0  0  0  0  0  0  0
  -17.0961   16.3436  -20.2254 C   0  0  0  0  0  0  0  0  0  0  0  0
  -17.0306   17.7755  -20.6511 C   0  0  0  0  0  0  0  0  0  0  0  0
  -17.5516   17.9206  -22.0609 C   0  0  0  0  0  0  0  0  0  0  0  0
  -18.5859   18.5938  -22.2472 O   0  0  0  0  0  0  0  0  0  0  0  0
  -16.8759   17.2995  -23.1656 C   0  0  0  0  0  0  0  0  0  0  0  0
  -17.3297   17.2468  -24.4427 N   0  0  0  0  0  0  0  0  0  0  0  0
  -16.4431   16.5892  -25.2129 C   0  0  0  0  0  0  0  0  0  0  0  0
  -16.3494   16.2320  -26.5296 C   0  0  0  0  0  0  0  0  0  0  0  0
  -15.2527   15.5374  -26.9727 C   0  0  0  0  0  0  0  0  0  0  0  0
  -14.2576   15.2110  -26.0707 C   0  0  0  0  0  0  0  0  0  0  0  0
  -14.3389   15.5606  -24.7584 N   0  0  0  0  0  0  0  0  0  0  0  0
  -15.4167   16.2401  -24.3364 C   0  0  0  0  0  0  0  0  0  0  0  0
  -15.7191   16.6834  -23.1332 O   0  0  0  0  0  0  0  0  0  0  0  0
  -19.7570   13.6497  -20.1612 C   0  0  0  0  0  0  0  0  0  0  0  0
  -19.5249   13.3640  -18.7175 C   0  0  0  0  0  0  0  0  0  0  0  0
  -19.0232   11.9581  -18.4232 C   0  0  0  0  0  0  0  0  0  0  0  0
  -16.7148   11.1970  -18.5698 C   0  0  0  0  0  0  0  0  0  0  0  0
  -17.5995   12.0251  -18.0718 C   0  0  0  0  0  0  0  0  0  0  0  0
  -17.0199   10.1382  -19.5057 C   0  0  0  0  0  0  0  0  0  0  0  0
  -16.4780   10.4052  -20.9084 C   0  0  0  0  0  0  0  0  0  0  0  0
  -17.0751   11.6217  -21.5130 C   0  0  0  0  0  0  0  0  0  0  0  0
  -16.1631   12.3598  -22.4926 C   0  0  0  0  0  0  0  0  0  0  0  0
  -16.8627   13.4666  -23.1844 C   0  0  0  0  0  0  0  0  0  0  0  0
  -18.0568   13.1810  -24.0026 C   0  0  0  0  0  0  0  0  0  0  0  0
  -17.4422   12.2818  -26.2349 C   0  0  0  0  0  0  0  0  0  0  0  0
  -18.0245   13.4165  -25.4623 C   0  0  0  0  0  0  0  0  0  0  0  0
 27 28  1  0  0  0
 28 26  1  0  0  0
 26 25  1  0  0  0
 25 24  1  0  0  0
 24 23  1  0  0  0
 23 22  1  0  0  0
 22 21  1  0  0  0
 21 19  1  0  0  0
 19 20  2  0  0  0
 20 18  1  0  0  0
 18 17  1  0  0  0
 17 16  1  0  0  0
 16  1  1  0  0  0
  1  2  1  0  0  0
  2  3  1  0  0  0
  3  4  1  0  0  0
  4  5  1  0  0  0
  5  6  2  0  0  0
  5  7  1  0  0  0
  7  8  2  0  0  0
  8  9  1  0  0  0
  9 10  2  0  0  0
 10 11  1  0  0  0
 11 12  2  0  0  0
 12 13  1  0  0  0
 13 14  2  0  0  0
 14 15  1  0  0  0
 15  7  1  0  0  0
 14  9  1  0  0  0
M  END
> <minimizedAffinity>
-6.21401

> <CNNscore>
0.2608492970

> <CNNaffinity>
6.7675514221

> <CNN_VS>
1.7653110027

> <CNNaffinity_variance>
0.3201071322

$$$$
[H]/C(=C(\[H])C([H])([H])C([H])([H])C([H])([H])C([H])([H])C([H])([H])C([H])([H])C([H])([H])C([H])([H])[H])C([H])([H])C([H])([H])C([H])([H])C([H])([H])C([H])([H])C([H])([H])C([H])([H])C(=O)c1nc2c([H])c([H])c([H])nc2o1


 28 29  0  0  0  0  0  0  0  0999 V2000
  -19.0476   13.2169  -19.1926 C   0  0  0  0  0  0  0  0  0  0  0  0
  -18.3254   11.9576  -19.1400 C   0  0  0  0  0  0  0  0  0  0  0  0
  -17.3216   11.5305  -20.1124 C   0  0  0  0  0  0  0  0  0  0  0  0
  -17.5651   11.8106  -21.5608 C   0  0  0  0  0  0  0  0  0  0  0  0
  -16.2607   11.7776  -22.3207 C   0  0  0  0  0  0  0  0  0  0  0  0
  -15.4011   10.9346  -21.9916 O   0  0  0  0  0  0  0  0  0  0  0  0
  -16.0101   12.6936  -23.3980 C   0  0  0  0  0  0  0  0  0  0  0  0
  -14.8335   13.3214  -23.6458 N   0  0  0  0  0  0  0  0  0  0  0  0
  -14.9575   14.1058  -24.7326 C   0  0  0  0  0  0  0  0  0  0  0  0
  -14.1480   14.9495  -25.4417 C   0  0  0  0  0  0  0  0  0  0  0  0
  -14.6406   15.6058  -26.5408 C   0  0  0  0  0  0  0  0  0  0  0  0
  -15.9561   15.3981  -26.9107 C   0  0  0  0  0  0  0  0  0  0  0  0
  -16.7716   14.5615  -26.2138 N   0  0  0  0  0  0  0  0  0  0  0  0
  -16.2785   13.9247  -25.1401 C   0  0  0  0  0  0  0  0  0  0  0  0
  -16.8625   13.0780  -24.3170 O   0  0  0  0  0  0  0  0  0  0  0  0
  -20.2262   13.4944  -18.3534 C   0  0  0  0  0  0  0  0  0  0  0  0
  -19.9680   14.3424  -17.1560 C   0  0  0  0  0  0  0  0  0  0  0  0
  -18.6587   15.1161  -17.1988 C   0  0  0  0  0  0  0  0  0  0  0  0
  -19.0785   17.3579  -18.0519 C   0  0  0  0  0  0  0  0  0  0  0  0
  -18.9458   16.5461  -17.0322 C   0  0  0  0  0  0  0  0  0  0  0  0
  -18.9626   16.9592  -19.4366 C   0  0  0  0  0  0  0  0  0  0  0  0
  -17.5622   17.1763  -20.0064 C   0  0  0  0  0  0  0  0  0  0  0  0
  -16.9156   15.8985  -20.3948 C   0  0  0  0  0  0  0  0  0  0  0  0
  -16.3371   15.8813  -21.8095 C   0  0  0  0  0  0  0  0  0  0  0  0
  -16.5071   17.1801  -22.5004 C   0  0  0  0  0  0  0  0  0  0  0  0
  -17.2319   17.2378  -23.7842 C   0  0  0  0  0  0  0  0  0  0  0  0
  -19.6309   17.4834  -23.1895 C   0  0  0  0  0  0  0  0  0  0  0  0
  -18.5941   16.6713  -23.8885 C   0  0  0  0  0  0  0  0  0  0  0  0
 27 28  1  0  0  0
 28 26  1  0  0  0
 26 25  1  0  0  0
 25 24  1  0  0  0
 24 23  1  0  0  0
 23 22  1  0  0  0
 22 21  1  0  0  0
 21 19  1  0  0  0
 19 20  2  0  0  0
 20 18  1  0  0  0
 18 17  1  0  0  0
 17 16  1  0  0  0
 16  1  1  0  0  0
  1  2  1  0  0  0
  2  3  1  0  0  0
  3  4  1  0  0  0
  4  5  1  0  0  0
  5  6  2  0  0  0
  5  7  1  0  0  0
  7  8  2  0  0  0
  8  9  1  0  0  0
  9 10  2  0  0  0
 10 11  1  0  0  0
 11 12  2  0  0  0
 12 13  1  0  0  0
 13 14  2  0  0  0
 14 15  1  0  0  0
 15  7  1  0  0  0
 14  9  1  0  0  0
M  END
> <minimizedAffinity>
-6.23364

> <CNNscore>
0.2363294661

> <CNNaffinity>
6.9185891151

> <CNN_VS>
1.6350665092

> <CNNaffinity_variance>
0.1509523690

$$$$
[H]/C(=C(\[H])C([H])([H])C([H])([H])C([H])([H])C([H])([H])C([H])([H])C([H])([H])C([H])([H])C([H])([H])[H])C([H])([H])C([H])([H])C([H])([H])C([H])([H])C([H])([H])C([H])([H])C([H])([H])C(=O)c1nc2c([H])c([H])c([H])nc2o1


 28 29  0  0  0  0  0  0  0  0999 V2000
  -17.7513   12.6843  -18.3743 C   0  0  0  0  0  0  0  0  0  0  0  0
  -17.9710   11.4565  -19.1189 C   0  0  0  0  0  0  0  0  0  0  0  0
  -17.2716   11.0903  -20.3486 C   0  0  0  0  0  0  0  0  0  0  0  0
  -17.3874   11.9953  -21.5332 C   0  0  0  0  0  0  0  0  0  0  0  0
  -16.1525   11.8808  -22.3945 C   0  0  0  0  0  0  0  0  0  0  0  0
  -15.3195   10.9910  -22.1258 O   0  0  0  0  0  0  0  0  0  0  0  0
  -15.9368   12.7734  -23.4987 C   0  0  0  0  0  0  0  0  0  0  0  0
  -14.7856   13.4395  -23.7650 N   0  0  0  0  0  0  0  0  0  0  0  0
  -14.9390   14.1856  -24.8747 C   0  0  0  0  0  0  0  0  0  0  0  0
  -14.1623   15.0390  -25.6086 C   0  0  0  0  0  0  0  0  0  0  0  0
  -14.6790   15.6423  -26.7269 C   0  0  0  0  0  0  0  0  0  0  0  0
  -15.9847   15.3719  -27.0907 C   0  0  0  0  0  0  0  0  0  0  0  0
  -16.7676   14.5249  -26.3692 N   0  0  0  0  0  0  0  0  0  0  0  0
  -16.2512   13.9405  -25.2768 C   0  0  0  0  0  0  0  0  0  0  0  0
  -16.8025   13.0962  -24.4289 O   0  0  0  0  0  0  0  0  0  0  0  0
  -18.6153   13.8688  -18.5195 C   0  0  0  0  0  0  0  0  0  0  0  0
  -19.8151   13.6779  -19.3819 C   0  0  0  0  0  0  0  0  0  0  0  0
  -19.9753   14.7163  -20.4822 C   0  0  0  0  0  0  0  0  0  0  0  0
  -20.0594   17.1475  -20.5916 C   0  0  0  0  0  0  0  0  0  0  0  0
  -20.0050   16.0523  -19.8746 C   0  0  0  0  0  0  0  0  0  0  0  0
  -20.0965   17.1794  -22.0365 C   0  0  0  0  0  0  0  0  0  0  0  0
  -19.5640   18.4866  -22.6198 C   0  0  0  0  0  0  0  0  0  0  0  0
  -18.3452   18.2742  -23.4390 C   0  0  0  0  0  0  0  0  0  0  0  0
  -17.8888   16.8187  -23.5369 C   0  0  0  0  0  0  0  0  0  0  0  0
  -16.5961   16.5894  -22.8519 C   0  0  0  0  0  0  0  0  0  0  0  0
  -16.5605   15.8241  -21.5910 C   0  0  0  0  0  0  0  0  0  0  0  0
  -16.1357   17.9898  -20.4514 C   0  0  0  0  0  0  0  0  0  0  0  0
  -16.4187   16.5335  -20.3011 C   0  0  0  0  0  0  0  0  0  0  0  0
 27 28  1  0  0  0
 28 26  1  0  0  0
 26 25  1  0  0  0
 25 24  1  0  0  0
 24 23  1  0  0  0
 23 22  1  0  0  0
 22 21  1  0  0  0
 21 19  1  0  0  0
 19 20  2  0  0  0
 20 18  1  0  0  0
 18 17  1  0  0  0
 17 16  1  0  0  0
 16  1  1  0  0  0
  1  2  1  0  0  0
  2  3  1  0  0  0
  3  4  1  0  0  0
  4  5  1  0  0  0
  5  6  2  0  0  0
  5  7  1  0  0  0
  7  8  2  0  0  0
  8  9  1  0  0  0
  9 10  2  0  0  0
 10 11  1  0  0  0
 11 12  2  0  0  0
 12 13  1  0  0  0
 13 14  2  0  0  0
 14 15  1  0  0  0
 15  7  1  0  0  0
 14  9  1  0  0  0
M  END
> <minimizedAffinity>
-6.23567

> <CNNscore>
0.2289804220

> <CNNaffinity>
6.8955626488

> <CNN_VS>
1.5789488554

> <CNNaffinity_variance>
0.1685165465

$$$$
[H]/C(=C(\[H])C([H])([H])C([H])([H])C([H])([H])C([H])([H])C([H])([H])C([H])([H])C([H])([H])C([H])([H])[H])C([H])([H])C([H])([H])C([H])([H])C([H])([H])C([H])([H])C([H])([H])C([H])([H])C(=O)c1nc2c([H])c([H])c([H])nc2o1


 28 29  0  0  0  0  0  0  0  0999 V2000
  -18.3666   13.0473  -18.3449 C   0  0  0  0  0  0  0  0  0  0  0  0
  -17.9772   11.6521  -18.2350 C   0  0  0  0  0  0  0  0  0  0  0  0
  -16.8740   11.0339  -18.9671 C   0  0  0  0  0  0  0  0  0  0  0  0
  -17.1560   10.4221  -20.3020 C   0  0  0  0  0  0  0  0  0  0  0  0
  -16.0162   10.7037  -21.2515 C   0  0  0  0  0  0  0  0  0  0  0  0
  -14.9552   10.0606  -21.1156 O   0  0  0  0  0  0  0  0  0  0  0  0
  -16.1452   11.6884  -22.2888 C   0  0  0  0  0  0  0  0  0  0  0  0
  -17.2896   12.3297  -22.6338 N   0  0  0  0  0  0  0  0  0  0  0  0
  -17.0446   13.1834  -23.6452 C   0  0  0  0  0  0  0  0  0  0  0  0
  -17.7719   14.0705  -24.3897 C   0  0  0  0  0  0  0  0  0  0  0  0
  -17.1581   14.7977  -25.3776 C   0  0  0  0  0  0  0  0  0  0  0  0
  -15.8063   14.6165  -25.6008 C   0  0  0  0  0  0  0  0  0  0  0  0
  -15.0717   13.7373  -24.8672 N   0  0  0  0  0  0  0  0  0  0  0  0
  -15.6830   13.0311  -23.9032 C   0  0  0  0  0  0  0  0  0  0  0  0
  -15.1931   12.1333  -23.0728 O   0  0  0  0  0  0  0  0  0  0  0  0
  -18.3244   13.7877  -19.6179 C   0  0  0  0  0  0  0  0  0  0  0  0
  -19.5990   13.7981  -20.3892 C   0  0  0  0  0  0  0  0  0  0  0  0
  -20.8401   14.0840  -19.5570 C   0  0  0  0  0  0  0  0  0  0  0  0
  -21.0677   16.4792  -19.1821 C   0  0  0  0  0  0  0  0  0  0  0  0
  -21.3454   15.4189  -19.8999 C   0  0  0  0  0  0  0  0  0  0  0  0
  -20.2486   16.4702  -17.9909 C   0  0  0  0  0  0  0  0  0  0  0  0
  -19.0782   17.4489  -18.0624 C   0  0  0  0  0  0  0  0  0  0  0  0
  -18.7167   17.7821  -19.4623 C   0  0  0  0  0  0  0  0  0  0  0  0
  -17.3607   17.2420  -19.9162 C   0  0  0  0  0  0  0  0  0  0  0  0
  -17.3470   16.9014  -21.3573 C   0  0  0  0  0  0  0  0  0  0  0  0
  -18.6187   16.7990  -22.0983 C   0  0  0  0  0  0  0  0  0  0  0  0
  -17.5633   18.0651  -23.9564 C   0  0  0  0  0  0  0  0  0  0  0  0
  -18.8311   17.6121  -23.3153 C   0  0  0  0  0  0  0  0  0  0  0  0
 27 28  1  0  0  0
 28 26  1  0  0  0
 26 25  1  0  0  0
 25 24  1  0  0  0
 24 23  1  0  0  0
 23 22  1  0  0  0
 22 21  1  0  0  0
 21 19  1  0  0  0
 19 20  2  0  0  0
 20 18  1  0  0  0
 18 17  1  0  0  0
 17 16  1  0  0  0
 16  1  1  0  0  0
  1  2  1  0  0  0
  2  3  1  0  0  0
  3  4  1  0  0  0
  4  5  1  0  0  0
  5  6  2  0  0  0
  5  7  1  0  0  0
  7  8  2  0  0  0
  8  9  1  0  0  0
  9 10  2  0  0  0
 10 11  1  0  0  0
 11 12  2  0  0  0
 12 13  1  0  0  0
 13 14  2  0  0  0
 14 15  1  0  0  0
 15  7  1  0  0  0
 14  9  1  0  0  0
M  END
> <minimizedAffinity>
-5.95741

> <CNNscore>
0.2233776599

> <CNNaffinity>
6.6858301163

> <CNN_VS>
1.4934650660

> <CNNaffinity_variance>
0.2306291610

$$$$
[H]/C(=C(\[H])C([H])([H])C([H])([H])C([H])([H])C([H])([H])C([H])([H])C([H])([H])C([H])([H])C([H])([H])[H])C([H])([H])C([H])([H])C([H])([H])C([H])([H])C([H])([H])C([H])([H])C([H])([H])C(=O)c1nc2c([H])c([H])c([H])nc2o1


 28 29  0  0  0  0  0  0  0  0999 V2000
  -18.7241   10.4803  -17.8778 C   0  0  0  0  0  0  0  0  0  0  0  0
  -17.5567   11.1602  -18.4119 C   0  0  0  0  0  0  0  0  0  0  0  0
  -16.8448   10.7665  -19.6258 C   0  0  0  0  0  0  0  0  0  0  0  0
  -17.2585   11.3766  -20.9266 C   0  0  0  0  0  0  0  0  0  0  0  0
  -16.1062   11.3462  -21.9021 C   0  0  0  0  0  0  0  0  0  0  0  0
  -15.2570   10.4382  -21.7923 O   0  0  0  0  0  0  0  0  0  0  0  0
  -15.9859   12.3375  -22.9342 C   0  0  0  0  0  0  0  0  0  0  0  0
  -14.8227   12.8499  -23.4079 N   0  0  0  0  0  0  0  0  0  0  0  0
  -15.0836   13.7550  -24.3694 C   0  0  0  0  0  0  0  0  0  0  0  0
  -14.3501   14.5719  -25.1849 C   0  0  0  0  0  0  0  0  0  0  0  0
  -14.9866   15.3938  -26.0797 C   0  0  0  0  0  0  0  0  0  0  0  0
  -16.3674   15.3783  -26.1381 C   0  0  0  0  0  0  0  0  0  0  0  0
  -17.1084   14.5705  -25.3325 N   0  0  0  0  0  0  0  0  0  0  0  0
  -16.4747   13.7704  -24.4608 C   0  0  0  0  0  0  0  0  0  0  0  0
  -16.9651   12.9127  -23.5894 O   0  0  0  0  0  0  0  0  0  0  0  0
  -19.8430   11.1987  -17.2435 C   0  0  0  0  0  0  0  0  0  0  0  0
  -19.4581   12.3979  -16.4476 C   0  0  0  0  0  0  0  0  0  0  0  0
  -19.7276   13.7277  -17.1360 C   0  0  0  0  0  0  0  0  0  0  0  0
  -18.4183   15.7429  -17.5285 C   0  0  0  0  0  0  0  0  0  0  0  0
  -18.4620   14.4595  -17.2685 C   0  0  0  0  0  0  0  0  0  0  0  0
  -19.5815   16.5812  -17.7131 C   0  0  0  0  0  0  0  0  0  0  0  0
  -19.6284   17.2449  -19.0878 C   0  0  0  0  0  0  0  0  0  0  0  0
  -20.2199   16.3534  -20.1159 C   0  0  0  0  0  0  0  0  0  0  0  0
  -19.7740   16.6482  -21.5479 C   0  0  0  0  0  0  0  0  0  0  0  0
  -18.7913   15.6576  -22.0441 C   0  0  0  0  0  0  0  0  0  0  0  0
  -17.7337   15.1602  -21.1436 C   0  0  0  0  0  0  0  0  0  0  0  0
  -16.2282   16.7938  -22.2545 C   0  0  0  0  0  0  0  0  0  0  0  0
  -16.3632   15.7073  -21.2423 C   0  0  0  0  0  0  0  0  0  0  0  0
 27 28  1  0  0  0
 28 26  1  0  0  0
 26 25  1  0  0  0
 25 24  1  0  0  0
 24 23  1  0  0  0
 23 22  1  0  0  0
 22 21  1  0  0  0
 21 19  1  0  0  0
 19 20  2  0  0  0
 20 18  1  0  0  0
 18 17  1  0  0  0
 17 16  1  0  0  0
 16  1  1  0  0  0
  1  2  1  0  0  0
  2  3  1  0  0  0
  3  4  1  0  0  0
  4  5  1  0  0  0
  5  6  2  0  0  0
  5  7  1  0  0  0
  7  8  2  0  0  0
  8  9  1  0  0  0
  9 10  2  0  0  0
 10 11  1  0  0  0
 11 12  2  0  0  0
 12 13  1  0  0  0
 13 14  2  0  0  0
 14 15  1  0  0  0
 15  7  1  0  0  0
 14  9  1  0  0  0
M  END
> <minimizedAffinity>
-5.98559

> <CNNscore>
0.2093212008

> <CNNaffinity>
6.8814363480

> <CNN_VS>
1.4404305220

> <CNNaffinity_variance>
0.0779384598

$$$$
[H]/C(=C(\[H])C([H])([H])C([H])([H])C([H])([H])C([H])([H])C([H])([H])C([H])([H])C([H])([H])C([H])([H])[H])C([H])([H])C([H])([H])C([H])([H])C([H])([H])C([H])([H])C([H])([H])C([H])([H])C(=O)c1nc2c([H])c([H])c([H])nc2o1


 28 29  0  0  0  0  0  0  0  0999 V2000
  -18.3609   14.8322  -17.6398 C   0  0  0  0  0  0  0  0  0  0  0  0
  -19.4575   15.7613  -17.4289 C   0  0  0  0  0  0  0  0  0  0  0  0
  -20.8584   15.3764  -17.2723 C   0  0  0  0  0  0  0  0  0  0  0  0
  -21.8522   15.8734  -18.2729 C   0  0  0  0  0  0  0  0  0  0  0  0
  -21.4154   15.4950  -19.6680 C   0  0  0  0  0  0  0  0  0  0  0  0
  -21.4774   14.2953  -20.0065 O   0  0  0  0  0  0  0  0  0  0  0  0
  -20.9383   16.4894  -20.5877 C   0  0  0  0  0  0  0  0  0  0  0  0
  -19.6374   16.8012  -20.8120 N   0  0  0  0  0  0  0  0  0  0  0  0
  -19.5571   17.7771  -21.7355 C   0  0  0  0  0  0  0  0  0  0  0  0
  -18.5567   18.4799  -22.3482 C   0  0  0  0  0  0  0  0  0  0  0  0
  -18.8664   19.4397  -23.2779 C   0  0  0  0  0  0  0  0  0  0  0  0
  -20.1945   19.6774  -23.5778 C   0  0  0  0  0  0  0  0  0  0  0  0
  -21.1989   18.9852  -22.9754 N   0  0  0  0  0  0  0  0  0  0  0  0
  -20.8837   18.0485  -22.0672 C   0  0  0  0  0  0  0  0  0  0  0  0
  -21.6663   17.2591  -21.3601 O   0  0  0  0  0  0  0  0  0  0  0  0
  -18.4445   13.4067  -17.2775 C   0  0  0  0  0  0  0  0  0  0  0  0
  -19.0093   12.5159  -18.3298 C   0  0  0  0  0  0  0  0  0  0  0  0
  -18.4674   11.0943  -18.3134 C   0  0  0  0  0  0  0  0  0  0  0  0
  -16.3211   10.9142  -19.4494 C   0  0  0  0  0  0  0  0  0  0  0  0
  -17.0008   11.1440  -18.3532 C   0  0  0  0  0  0  0  0  0  0  0  0
  -16.9136   10.5907  -20.7278 C   0  0  0  0  0  0  0  0  0  0  0  0
  -16.6362   11.6433  -21.7991 C   0  0  0  0  0  0  0  0  0  0  0  0
  -17.5374   12.8154  -21.6736 C   0  0  0  0  0  0  0  0  0  0  0  0
  -17.5673   13.7302  -22.8978 C   0  0  0  0  0  0  0  0  0  0  0  0
  -17.0094   15.0713  -22.6090 C   0  0  0  0  0  0  0  0  0  0  0  0
  -15.6611   15.4239  -23.0934 C   0  0  0  0  0  0  0  0  0  0  0  0
  -14.1192   14.8513  -24.9547 C   0  0  0  0  0  0  0  0  0  0  0  0
  -14.8063   14.3891  -23.7147 C   0  0  0  0  0  0  0  0  0  0  0  0
 27 28  1  0  0  0
 28 26  1  0  0  0
 26 25  1  0  0  0
 25 24  1  0  0  0
 24 23  1  0  0  0
 23 22  1  0  0  0
 22 21  1  0  0  0
 21 19  1  0  0  0
 19 20  2  0  0  0
 20 18  1  0  0  0
 18 17  1  0  0  0
 17 16  1  0  0  0
 16  1  1  0  0  0
  1  2  1  0  0  0
  2  3  1  0  0  0
  3  4  1  0  0  0
  4  5  1  0  0  0
  5  6  2  0  0  0
  5  7  1  0  0  0
  7  8  2  0  0  0
  8  9  1  0  0  0
  9 10  2  0  0  0
 10 11  1  0  0  0
 11 12  2  0  0  0
 12 13  1  0  0  0
 13 14  2  0  0  0
 14 15  1  0  0  0
 15  7  1  0  0  0
 14  9  1  0  0  0
M  END
> <minimizedAffinity>
-5.60020

> <CNNscore>
0.1956358850

> <CNNaffinity>
6.2019848824

> <CNN_VS>
1.2133307457

> <CNNaffinity_variance>
0.4283683896

$$$$
[H]/C(=C(\[H])C([H])([H])C([H])([H])C([H])([H])C([H])([H])C([H])([H])C([H])([H])C([H])([H])C([H])([H])[H])C([H])([H])C([H])([H])C([H])([H])C([H])([H])C([H])([H])C([H])([H])C([H])([H])C(=O)c1nc2c([H])c([H])c([H])nc2o1


 28 29  0  0  0  0  0  0  0  0999 V2000
  -20.0179   16.2319  -21.1113 C   0  0  0  0  0  0  0  0  0  0  0  0
  -20.1874   16.6014  -19.7167 C   0  0  0  0  0  0  0  0  0  0  0  0
  -20.9836   15.8532  -18.7464 C   0  0  0  0  0  0  0  0  0  0  0  0
  -20.3062   15.3221  -17.5238 C   0  0  0  0  0  0  0  0  0  0  0  0
  -20.3272   13.8123  -17.5351 C   0  0  0  0  0  0  0  0  0  0  0  0
  -21.2213   13.2244  -16.8926 O   0  0  0  0  0  0  0  0  0  0  0  0
  -19.3426   13.0654  -18.2666 C   0  0  0  0  0  0  0  0  0  0  0  0
  -19.3092   12.9061  -19.6132 N   0  0  0  0  0  0  0  0  0  0  0  0
  -18.2509   12.1476  -19.9546 C   0  0  0  0  0  0  0  0  0  0  0  0
  -17.7141   11.6628  -21.1151 C   0  0  0  0  0  0  0  0  0  0  0  0
  -16.5804   10.8917  -21.0736 C   0  0  0  0  0  0  0  0  0  0  0  0
  -16.0004   10.6194  -19.8490 C   0  0  0  0  0  0  0  0  0  0  0  0
  -16.5245   11.0958  -18.6875 N   0  0  0  0  0  0  0  0  0  0  0  0
  -17.6341   11.8492  -18.7404 C   0  0  0  0  0  0  0  0  0  0  0  0
  -18.3186   12.4160  -17.7679 O   0  0  0  0  0  0  0  0  0  0  0  0
  -20.2441   17.1771  -22.2185 C   0  0  0  0  0  0  0  0  0  0  0  0
  -19.9633   18.6055  -21.9016 C   0  0  0  0  0  0  0  0  0  0  0  0
  -18.5308   19.0432  -22.1679 C   0  0  0  0  0  0  0  0  0  0  0  0
  -16.8490   18.4041  -20.5270 C   0  0  0  0  0  0  0  0  0  0  0  0
  -17.8328   19.1918  -20.8851 C   0  0  0  0  0  0  0  0  0  0  0  0
  -16.3379   17.3155  -21.3293 C   0  0  0  0  0  0  0  0  0  0  0  0
  -16.7653   15.9420  -20.8159 C   0  0  0  0  0  0  0  0  0  0  0  0
  -16.2704   14.8452  -21.6841 C   0  0  0  0  0  0  0  0  0  0  0  0
  -17.0454   14.6668  -22.9895 C   0  0  0  0  0  0  0  0  0  0  0  0
  -16.2951   13.8625  -23.9812 C   0  0  0  0  0  0  0  0  0  0  0  0
  -14.8473   14.0835  -24.1593 C   0  0  0  0  0  0  0  0  0  0  0  0
  -14.9344   16.1464  -25.5400 C   0  0  0  0  0  0  0  0  0  0  0  0
  -14.3507   14.7859  -25.3624 C   0  0  0  0  0  0  0  0  0  0  0  0
 27 28  1  0  0  0
 28 26  1  0  0  0
 26 25  1  0  0  0
 25 24  1  0  0  0
 24 23  1  0  0  0
 23 22  1  0  0  0
 22 21  1  0  0  0
 21 19  1  0  0  0
 19 20  2  0  0  0
 20 18  1  0  0  0
 18 17  1  0  0  0
 17 16  1  0  0  0
 16  1  1  0  0  0
  1  2  1  0  0  0
  2  3  1  0  0  0
  3  4  1  0  0  0
  4  5  1  0  0  0
  5  6  2  0  0  0
  5  7  1  0  0  0
  7  8  2  0  0  0
  8  9  1  0  0  0
  9 10  2  0  0  0
 10 11  1  0  0  0
 11 12  2  0  0  0
 12 13  1  0  0  0
 13 14  2  0  0  0
 14 15  1  0  0  0
 15  7  1  0  0  0
 14  9  1  0  0  0
M  END
> <minimizedAffinity>
-5.32656

> <CNNscore>
0.1830236465

> <CNNaffinity>
6.5655899048

> <CNN_VS>
1.2016582489

> <CNNaffinity_variance>
0.3081552386

$$$$
[H]c1c([H])c([H])c(C([H])([H])C([H])([H])C([H])([H])[H])c(OC([H])(C2=NC([H])([H])C([H])([H])N2[H])C([H])([H])[H])c1[H]


 18 19  0  0  0  0  0  0  0  0999 V2000
  -18.3811   10.8814  -18.2130 C   0  0  0  0  0  0  0  0  0  0  0  0
  -18.2905    9.5761  -17.7837 C   0  0  0  0  0  0  0  0  0  0  0  0
  -19.1050    9.0705  -16.7926 C   0  0  0  0  0  0  0  0  0  0  0  0
  -20.0520    9.8734  -16.1918 C   0  0  0  0  0  0  0  0  0  0  0  0
  -20.1587   11.1826  -16.6074 C   0  0  0  0  0  0  0  0  0  0  0  0
  -19.3457   11.6886  -17.5968 C   0  0  0  0  0  0  0  0  0  0  0  0
  -17.5310   11.4576  -19.2586 C   0  0  0  0  0  0  0  0  0  0  0  0
  -16.0476   10.1635  -20.7862 C   0  0  0  0  0  0  0  0  0  0  0  0
  -16.1927   10.7587  -19.3801 C   0  0  0  0  0  0  0  0  0  0  0  0
  -19.4231   12.9749  -18.0328 O   0  0  0  0  0  0  0  0  0  0  0  0
  -20.5409   13.7688  -18.2039 C   0  0  0  0  0  0  0  0  0  0  0  0
  -20.9019   14.0268  -19.6329 C   0  0  0  0  0  0  0  0  0  0  0  0
  -20.4006   15.0939  -17.4893 C   0  0  0  0  0  0  0  0  0  0  0  0
  -21.1346   16.1062  -17.7680 N   0  0  0  0  0  0  0  0  0  0  0  0
  -20.7918   17.2273  -16.9455 C   0  0  0  0  0  0  0  0  0  0  0  0
  -19.5106   16.8273  -16.2491 C   0  0  0  0  0  0  0  0  0  0  0  0
  -19.4855   15.4024  -16.4580 N   0  0  0  0  0  0  0  0  0  0  0  0
  -18.8845   14.7015  -15.9300 H   0  0  0  0  0  0  0  0  0  0  0  0
  8  9  1  0  0  0
  9  7  1  0  0  0
  7  1  1  0  0  0
  1  2  2  0  0  0
  2  3  1  0  0  0
  3  4  2  0  0  0
  4  5  1  0  0  0
  5  6  2  0  0  0
  6 10  1  0  0  0
 10 11  1  0  0  0
 11 12  1  0  0  0
 11 13  1  0  0  0
 13 14  2  0  0  0
 14 15  1  0  0  0
 15 16  1  0  0  0
 16 17  1  0  0  0
  6  1  1  0  0  0
 17 13  1  0  0  0
 17 18  1  0  0  0
M  END
> <minimizedAffinity>
-5.85659

> <CNNscore>
0.5287406445

> <CNNaffinity>
4.4511423111

> <CNN_VS>
2.3534998894

> <CNNaffinity_variance>
0.3690343201

$$$$
[H]c1c([H])c([H])c(C([H])([H])C([H])([H])C([H])([H])[H])c(OC([H])(C2=NC([H])([H])C([H])([H])N2[H])C([H])([H])[H])c1[H]


 18 19  0  0  0  0  0  0  0  0999 V2000
  -17.9300   13.2705  -21.4909 C   0  0  0  0  0  0  0  0  0  0  0  0
  -18.4401   13.9587  -20.4127 C   0  0  0  0  0  0  0  0  0  0  0  0
  -18.8934   15.2568  -20.5175 C   0  0  0  0  0  0  0  0  0  0  0  0
  -18.8481   15.9150  -21.7287 C   0  0  0  0  0  0  0  0  0  0  0  0
  -18.3414   15.2435  -22.8198 C   0  0  0  0  0  0  0  0  0  0  0  0
  -17.8883   13.9474  -22.7163 C   0  0  0  0  0  0  0  0  0  0  0  0
  -17.4336   11.8933  -21.4193 C   0  0  0  0  0  0  0  0  0  0  0  0
  -16.1766   10.2983  -19.9755 C   0  0  0  0  0  0  0  0  0  0  0  0
  -17.2270   11.4157  -19.9968 C   0  0  0  0  0  0  0  0  0  0  0  0
  -17.3826   13.2535  -23.7714 O   0  0  0  0  0  0  0  0  0  0  0  0
  -17.3416   13.6088  -25.1060 C   0  0  0  0  0  0  0  0  0  0  0  0
  -17.5786   12.4757  -26.0541 C   0  0  0  0  0  0  0  0  0  0  0  0
  -16.0359   14.2811  -25.4659 C   0  0  0  0  0  0  0  0  0  0  0  0
  -14.9348   14.0066  -24.8713 N   0  0  0  0  0  0  0  0  0  0  0  0
  -13.8581   14.7853  -25.4056 C   0  0  0  0  0  0  0  0  0  0  0  0
  -14.5200   15.8142  -26.2943 C   0  0  0  0  0  0  0  0  0  0  0  0
  -15.8406   15.2642  -26.4616 N   0  0  0  0  0  0  0  0  0  0  0  0
  -16.5481   15.5461  -27.2040 H   0  0  0  0  0  0  0  0  0  0  0  0
  8  9  1  0  0  0
  9  7  1  0  0  0
  7  1  1  0  0  0
  1  2  2  0  0  0
  2  3  1  0  0  0
  3  4  2  0  0  0
  4  5  1  0  0  0
  5  6  2  0  0  0
  6 10  1  0  0  0
 10 11  1  0  0  0
 11 12  1  0  0  0
 11 13  1  0  0  0
 13 14  2  0  0  0
 14 15  1  0  0  0
 15 16  1  0  0  0
 16 17  1  0  0  0
  6  1  1  0  0  0
 17 13  1  0  0  0
 17 18  1  0  0  0
M  END
> <minimizedAffinity>
-6.64614

> <CNNscore>
0.4806353748

> <CNNaffinity>
5.5242648125

> <CNN_VS>
2.6551570892

> <CNNaffinity_variance>
0.1251030415

$$$$
[H]c1c([H])c([H])c(C([H])([H])C([H])([H])C([H])([H])[H])c(OC([H])(C2=NC([H])([H])C([H])([H])N2[H])C([H])([H])[H])c1[H]


 18 19  0  0  0  0  0  0  0  0999 V2000
  -17.6488   13.6798  -22.2738 C   0  0  0  0  0  0  0  0  0  0  0  0
  -17.9522   14.9743  -22.6327 C   0  0  0  0  0  0  0  0  0  0  0  0
  -18.7913   15.7680  -21.8794 C   0  0  0  0  0  0  0  0  0  0  0  0
  -19.3609   15.2783  -20.7226 C   0  0  0  0  0  0  0  0  0  0  0  0
  -19.0696   13.9855  -20.3461 C   0  0  0  0  0  0  0  0  0  0  0  0
  -18.2321   13.1920  -21.0977 C   0  0  0  0  0  0  0  0  0  0  0  0
  -16.7669   12.8033  -23.0496 C   0  0  0  0  0  0  0  0  0  0  0  0
  -17.6855   12.6667  -25.3618 C   0  0  0  0  0  0  0  0  0  0  0  0
  -16.5847   13.2686  -24.4795 C   0  0  0  0  0  0  0  0  0  0  0  0
  -17.9216   11.9122  -20.7567 O   0  0  0  0  0  0  0  0  0  0  0  0
  -17.1470   11.4559  -19.7075 C   0  0  0  0  0  0  0  0  0  0  0  0
  -16.0419   10.5318  -20.1123 C   0  0  0  0  0  0  0  0  0  0  0  0
  -17.9851   10.7788  -18.6466 C   0  0  0  0  0  0  0  0  0  0  0  0
  -18.9462   11.3757  -18.0454 N   0  0  0  0  0  0  0  0  0  0  0  0
  -19.5691   10.5078  -17.0917 C   0  0  0  0  0  0  0  0  0  0  0  0
  -18.6587    9.3038  -17.0018 C   0  0  0  0  0  0  0  0  0  0  0  0
  -17.8437    9.4528  -18.1799 N   0  0  0  0  0  0  0  0  0  0  0  0
  -17.2396    8.6986  -18.6243 H   0  0  0  0  0  0  0  0  0  0  0  0
  8  9  1  0  0  0
  9  7  1  0  0  0
  7  1  1  0  0  0
  1  2  2  0  0  0
  2  3  1  0  0  0
  3  4  2  0  0  0
  4  5  1  0  0  0
  5  6  2  0  0  0
  6 10  1  0  0  0
 10 11  1  0  0  0
 11 12  1  0  0  0
 11 13  1  0  0  0
 13 14  2  0  0  0
 14 15  1  0  0  0
 15 16  1  0  0  0
 16 17  1  0  0  0
  6  1  1  0  0  0
 17 13  1  0  0  0
 17 18  1  0  0  0
M  END
> <minimizedAffinity>
-6.28189

> <CNNscore>
0.4574501514

> <CNNaffinity>
5.2153396606

> <CNN_VS>
2.3857579231

> <CNNaffinity_variance>
0.0729575977

$$$$
[H]c1c([H])c([H])c(C([H])([H])C([H])([H])C([H])([H])[H])c(OC([H])(C2=NC([H])([H])C([H])([H])N2[H])C([H])([H])[H])c1[H]


 18 19  0  0  0  0  0  0  0  0999 V2000
  -18.1028   10.5896  -18.1550 C   0  0  0  0  0  0  0  0  0  0  0  0
  -18.1322    9.3462  -17.5639 C   0  0  0  0  0  0  0  0  0  0  0  0
  -19.1056    8.9874  -16.6555 C   0  0  0  0  0  0  0  0  0  0  0  0
  -20.0967    9.8810  -16.3070 C   0  0  0  0  0  0  0  0  0  0  0  0
  -20.0851   11.1303  -16.8876 C   0  0  0  0  0  0  0  0  0  0  0  0
  -19.1135   11.4897  -17.7945 C   0  0  0  0  0  0  0  0  0  0  0  0
  -17.0831   11.0107  -19.1198 C   0  0  0  0  0  0  0  0  0  0  0  0
  -15.6637   10.3999  -21.0746 C   0  0  0  0  0  0  0  0  0  0  0  0
  -16.9050   10.0244  -20.2556 C   0  0  0  0  0  0  0  0  0  0  0  0
  -19.0708   12.7131  -18.3879 O   0  0  0  0  0  0  0  0  0  0  0  0
  -19.9043   13.2388  -19.3565 C   0  0  0  0  0  0  0  0  0  0  0  0
  -19.1925   13.7754  -20.5583 C   0  0  0  0  0  0  0  0  0  0  0  0
  -20.7999   14.3207  -18.7965 C   0  0  0  0  0  0  0  0  0  0  0  0
  -20.8737   15.4893  -19.3163 N   0  0  0  0  0  0  0  0  0  0  0  0
  -21.7923   16.3140  -18.5905 C   0  0  0  0  0  0  0  0  0  0  0  0
  -22.1127   15.5350  -17.3347 C   0  0  0  0  0  0  0  0  0  0  0  0
  -21.6487   14.2139  -17.6721 N   0  0  0  0  0  0  0  0  0  0  0  0
  -21.8992   13.3127  -17.1658 H   0  0  0  0  0  0  0  0  0  0  0  0
  8  9  1  0  0  0
  9  7  1  0  0  0
  7  1  1  0  0  0
  1  2  2  0  0  0
  2  3  1  0  0  0
  3  4  2  0  0  0
  4  5  1  0  0  0
  5  6  2  0  0  0
  6 10  1  0  0  0
 10 11  1  0  0  0
 11 12  1  0  0  0
 11 13  1  0  0  0
 13 14  2  0  0  0
 14 15  1  0  0  0
 15 16  1  0  0  0
 16 17  1  0  0  0
  6  1  1  0  0  0
 17 13  1  0  0  0
 17 18  1  0  0  0
M  END
> <minimizedAffinity>
-5.74506

> <CNNscore>
0.4459306896

> <CNNaffinity>
4.4726929665

> <CNN_VS>
1.9945110083

> <CNNaffinity_variance>
0.2775122523

$$$$
[H]c1c([H])c([H])c(C([H])([H])C([H])([H])C([H])([H])[H])c(OC([H])(C2=NC([H])([H])C([H])([H])N2[H])C([H])([H])[H])c1[H]


 18 19  0  0  0  0  0  0  0  0999 V2000
  -17.8294   10.8819  -18.2653 C   0  0  0  0  0  0  0  0  0  0  0  0
  -18.2234    9.6572  -17.7742 C   0  0  0  0  0  0  0  0  0  0  0  0
  -19.3432    9.5086  -16.9833 C   0  0  0  0  0  0  0  0  0  0  0  0
  -20.1153   10.6037  -16.6560 C   0  0  0  0  0  0  0  0  0  0  0  0
  -19.7379   11.8380  -17.1378 C   0  0  0  0  0  0  0  0  0  0  0  0
  -18.6198   11.9875  -17.9273 C   0  0  0  0  0  0  0  0  0  0  0  0
  -16.6439   11.0819  -19.1035 C   0  0  0  0  0  0  0  0  0  0  0  0
  -17.0745   11.4565  -21.5290 C   0  0  0  0  0  0  0  0  0  0  0  0
  -16.7586   10.4079  -20.4552 C   0  0  0  0  0  0  0  0  0  0  0  0
  -18.2176   13.1896  -18.4211 O   0  0  0  0  0  0  0  0  0  0  0  0
  -18.9386   14.1141  -19.1522 C   0  0  0  0  0  0  0  0  0  0  0  0
  -19.7958   13.5197  -20.2250 C   0  0  0  0  0  0  0  0  0  0  0  0
  -18.0405   15.1620  -19.7700 C   0  0  0  0  0  0  0  0  0  0  0  0
  -17.2742   14.9101  -20.7653 N   0  0  0  0  0  0  0  0  0  0  0  0
  -16.5349   16.0754  -21.1481 C   0  0  0  0  0  0  0  0  0  0  0  0
  -16.7764   17.0760  -20.0405 C   0  0  0  0  0  0  0  0  0  0  0  0
  -17.9152   16.5096  -19.3647 N   0  0  0  0  0  0  0  0  0  0  0  0
  -18.5532   17.0145  -18.6797 H   0  0  0  0  0  0  0  0  0  0  0  0
  8  9  1  0  0  0
  9  7  1  0  0  0
  7  1  1  0  0  0
  1  2  2  0  0  0
  2  3  1  0  0  0
  3  4  2  0  0  0
  4  5  1  0  0  0
  5  6  2  0  0  0
  6 10  1  0  0  0
 10 11  1  0  0  0
 11 12  1  0  0  0
 11 13  1  0  0  0
 13 14  2  0  0  0
 14 15  1  0  0  0
 15 16  1  0  0  0
 16 17  1  0  0  0
  6  1  1  0  0  0
 17 13  1  0  0  0
 17 18  1  0  0  0
M  END
> <minimizedAffinity>
-5.92792

> <CNNscore>
0.4229620397

> <CNNaffinity>
4.6704301834

> <CNN_VS>
1.9754146338

> <CNNaffinity_variance>
0.3919434547

$$$$
[H]c1c([H])c([H])c(C([H])([H])C([H])([H])C([H])([H])[H])c(OC([H])(C2=NC([H])([H])C([H])([H])N2[H])C([H])([H])[H])c1[H]


 18 19  0  0  0  0  0  0  0  0999 V2000
  -18.1073   12.5182  -20.1530 C   0  0  0  0  0  0  0  0  0  0  0  0
  -17.2030   11.4980  -20.3476 C   0  0  0  0  0  0  0  0  0  0  0  0
  -17.0622   10.4601  -19.4507 C   0  0  0  0  0  0  0  0  0  0  0  0
  -17.8384   10.4135  -18.3115 C   0  0  0  0  0  0  0  0  0  0  0  0
  -18.7495   11.4248  -18.0986 C   0  0  0  0  0  0  0  0  0  0  0  0
  -18.8908   12.4618  -18.9935 C   0  0  0  0  0  0  0  0  0  0  0  0
  -18.2831   13.6406  -21.0789 C   0  0  0  0  0  0  0  0  0  0  0  0
  -16.6016   15.2491  -21.9702 C   0  0  0  0  0  0  0  0  0  0  0  0
  -17.1168   13.8057  -22.0312 C   0  0  0  0  0  0  0  0  0  0  0  0
  -19.7796   13.4763  -18.8166 O   0  0  0  0  0  0  0  0  0  0  0  0
  -19.6777   14.5894  -18.0044 C   0  0  0  0  0  0  0  0  0  0  0  0
  -18.4402   14.6292  -17.1641 C   0  0  0  0  0  0  0  0  0  0  0  0
  -20.8836   14.7374  -17.1044 C   0  0  0  0  0  0  0  0  0  0  0  0
  -21.9592   15.3189  -17.4866 N   0  0  0  0  0  0  0  0  0  0  0  0
  -22.9379   15.3209  -16.4410 C   0  0  0  0  0  0  0  0  0  0  0  0
  -22.1974   14.8535  -15.2082 C   0  0  0  0  0  0  0  0  0  0  0  0
  -21.0024   14.2809  -15.7727 N   0  0  0  0  0  0  0  0  0  0  0  0
  -20.3252   13.6276  -15.2768 H   0  0  0  0  0  0  0  0  0  0  0  0
  8  9  1  0  0  0
  9  7  1  0  0  0
  7  1  1  0  0  0
  1  2  2  0  0  0
  2  3  1  0  0  0
  3  4  2  0  0  0
  4  5  1  0  0  0
  5  6  2  0  0  0
  6 10  1  0  0  0
 10 11  1  0  0  0
 11 12  1  0  0  0
 11 13  1  0  0  0
 13 14  2  0  0  0
 14 15  1  0  0  0
 15 16  1  0  0  0
 16 17  1  0  0  0
  6  1  1  0  0  0
 17 13  1  0  0  0
 17 18  1  0  0  0
M  END
> <minimizedAffinity>
-5.43849

> <CNNscore>
0.4130205214

> <CNNaffinity>
4.5180716515

> <CNN_VS>
1.8660563231

> <CNNaffinity_variance>
0.1772759855

$$$$
[H]c1c([H])c([H])c(C([H])([H])C([H])([H])C([H])([H])[H])c(OC([H])(C2=NC([H])([H])C([H])([H])N2[H])C([H])([H])[H])c1[H]


 18 19  0  0  0  0  0  0  0  0999 V2000
  -17.1691   12.1963  -21.1429 C   0  0  0  0  0  0  0  0  0  0  0  0
  -16.7700   10.8791  -21.0962 C   0  0  0  0  0  0  0  0  0  0  0  0
  -16.7699   10.1526  -19.9242 C   0  0  0  0  0  0  0  0  0  0  0  0
  -17.1779   10.7359  -18.7428 C   0  0  0  0  0  0  0  0  0  0  0  0
  -17.5813   12.0530  -18.7685 C   0  0  0  0  0  0  0  0  0  0  0  0
  -17.5815   12.7794  -19.9381 C   0  0  0  0  0  0  0  0  0  0  0  0
  -17.1783   13.0034  -22.3662 C   0  0  0  0  0  0  0  0  0  0  0  0
  -15.2240   13.9209  -23.6101 C   0  0  0  0  0  0  0  0  0  0  0  0
  -16.0417   12.6594  -23.3065 C   0  0  0  0  0  0  0  0  0  0  0  0
  -17.9735   14.0806  -20.0014 O   0  0  0  0  0  0  0  0  0  0  0  0
  -19.0775   14.6844  -19.4309 C   0  0  0  0  0  0  0  0  0  0  0  0
  -20.3892   14.2122  -19.9745 C   0  0  0  0  0  0  0  0  0  0  0  0
  -19.0145   16.1906  -19.5483 C   0  0  0  0  0  0  0  0  0  0  0  0
  -19.9305   16.8736  -20.1277 N   0  0  0  0  0  0  0  0  0  0  0  0
  -19.6208   18.2716  -20.0982 C   0  0  0  0  0  0  0  0  0  0  0  0
  -18.1911   18.3476  -19.6115 C   0  0  0  0  0  0  0  0  0  0  0  0
  -17.9886   17.0316  -19.0623 N   0  0  0  0  0  0  0  0  0  0  0  0
  -17.2050   16.7400  -18.4050 H   0  0  0  0  0  0  0  0  0  0  0  0
  8  9  1  0  0  0
  9  7  1  0  0  0
  7  1  1  0  0  0
  1  2  2  0  0  0
  2  3  1  0  0  0
  3  4  2  0  0  0
  4  5  1  0  0  0
  5  6  2  0  0  0
  6 10  1  0  0  0
 10 11  1  0  0  0
 11 12  1  0  0  0
 11 13  1  0  0  0
 13 14  2  0  0  0
 14 15  1  0  0  0
 15 16  1  0  0  0
 16 17  1  0  0  0
  6  1  1  0  0  0
 17 13  1  0  0  0
 17 18  1  0  0  0
M  END
> <minimizedAffinity>
-5.86958

> <CNNscore>
0.4066521823

> <CNNaffinity>
5.0241379738

> <CNN_VS>
2.0430767536

> <CNNaffinity_variance>
0.1235103607

$$$$
[H]c1c([H])c([H])c(C([H])([H])C([H])([H])C([H])([H])[H])c(OC([H])(C2=NC([H])([H])C([H])([H])N2[H])C([H])([H])[H])c1[H]


 18 19  0  0  0  0  0  0  0  0999 V2000
  -17.2141   14.2491  -21.6910 C   0  0  0  0  0  0  0  0  0  0  0  0
  -16.6856   15.1845  -22.5525 C   0  0  0  0  0  0  0  0  0  0  0  0
  -15.8795   14.8324  -23.6144 C   0  0  0  0  0  0  0  0  0  0  0  0
  -15.5743   13.5078  -23.8484 C   0  0  0  0  0  0  0  0  0  0  0  0
  -16.0936   12.5565  -22.9978 C   0  0  0  0  0  0  0  0  0  0  0  0
  -16.8984   12.9070  -21.9370 C   0  0  0  0  0  0  0  0  0  0  0  0
  -18.0697   14.5831  -20.5488 C   0  0  0  0  0  0  0  0  0  0  0  0
  -20.4970   14.2266  -20.1131 C   0  0  0  0  0  0  0  0  0  0  0  0
  -19.4700   14.9874  -20.9611 C   0  0  0  0  0  0  0  0  0  0  0  0
  -17.4291   11.9956  -21.0776 O   0  0  0  0  0  0  0  0  0  0  0  0
  -16.7937   11.2393  -20.1116 C   0  0  0  0  0  0  0  0  0  0  0  0
  -16.2196    9.9521  -20.6140 C   0  0  0  0  0  0  0  0  0  0  0  0
  -17.7064   10.9433  -18.9430 C   0  0  0  0  0  0  0  0  0  0  0  0
  -17.8251    9.7694  -18.4438 N   0  0  0  0  0  0  0  0  0  0  0  0
  -18.7516    9.7703  -17.3517 C   0  0  0  0  0  0  0  0  0  0  0  0
  -19.4143   11.1287  -17.3991 C   0  0  0  0  0  0  0  0  0  0  0  0
  -18.5260   11.8683  -18.2583 N   0  0  0  0  0  0  0  0  0  0  0  0
  -18.4899   12.9262  -18.3619 H   0  0  0  0  0  0  0  0  0  0  0  0
  8  9  1  0  0  0
  9  7  1  0  0  0
  7  1  1  0  0  0
  1  2  2  0  0  0
  2  3  1  0  0  0
  3  4  2  0  0  0
  4  5  1  0  0  0
  5  6  2  0  0  0
  6 10  1  0  0  0
 10 11  1  0  0  0
 11 12  1  0  0  0
 11 13  1  0  0  0
 13 14  2  0  0  0
 14 15  1  0  0  0
 15 16  1  0  0  0
 16 17  1  0  0  0
  6  1  1  0  0  0
 17 13  1  0  0  0
 17 18  1  0  0  0
M  END
> <minimizedAffinity>
-5.95433

> <CNNscore>
0.4003185630

> <CNNaffinity>
5.1372394562

> <CNN_VS>
2.0565323830

> <CNNaffinity_variance>
0.0749434978

$$$$
[H]c1c([H])c([H])c(C([H])([H])C([H])([H])C([H])([H])[H])c(OC([H])(C2=NC([H])([H])C([H])([H])N2[H])C([H])([H])[H])c1[H]


 18 19  0  0  0  0  0  0  0  0999 V2000
  -17.9426   12.6539  -19.9416 C   0  0  0  0  0  0  0  0  0  0  0  0
  -17.8102   11.8458  -18.8344 C   0  0  0  0  0  0  0  0  0  0  0  0
  -17.0795   10.6767  -18.8614 C   0  0  0  0  0  0  0  0  0  0  0  0
  -16.4482   10.2762  -20.0204 C   0  0  0  0  0  0  0  0  0  0  0  0
  -16.5683   11.0711  -21.1393 C   0  0  0  0  0  0  0  0  0  0  0  0
  -17.2978   12.2386  -21.1135 C   0  0  0  0  0  0  0  0  0  0  0  0
  -18.7141   13.8999  -19.9550 C   0  0  0  0  0  0  0  0  0  0  0  0
  -20.9326   14.0265  -18.8274 C   0  0  0  0  0  0  0  0  0  0  0  0
  -20.2012   13.6691  -20.1274 C   0  0  0  0  0  0  0  0  0  0  0  0
  -17.4376   13.0482  -22.1977 O   0  0  0  0  0  0  0  0  0  0  0  0
  -16.4626   13.7061  -22.9227 C   0  0  0  0  0  0  0  0  0  0  0  0
  -16.2406   15.1274  -22.5108 C   0  0  0  0  0  0  0  0  0  0  0  0
  -16.7473   13.6671  -24.4072 C   0  0  0  0  0  0  0  0  0  0  0  0
  -17.0582   12.5855  -25.0191 N   0  0  0  0  0  0  0  0  0  0  0  0
  -17.2731   12.8314  -26.4135 C   0  0  0  0  0  0  0  0  0  0  0  0
  -16.7878   14.2450  -26.6430 C   0  0  0  0  0  0  0  0  0  0  0  0
  -16.7155   14.7613  -25.3004 N   0  0  0  0  0  0  0  0  0  0  0  0
  -16.6498   15.7866  -25.0253 H   0  0  0  0  0  0  0  0  0  0  0  0
  8  9  1  0  0  0
  9  7  1  0  0  0
  7  1  1  0  0  0
  1  2  2  0  0  0
  2  3  1  0  0  0
  3  4  2  0  0  0
  4  5  1  0  0  0
  5  6  2  0  0  0
  6 10  1  0  0  0
 10 11  1  0  0  0
 11 12  1  0  0  0
 11 13  1  0  0  0
 13 14  2  0  0  0
 14 15  1  0  0  0
 15 16  1  0  0  0
 16 17  1  0  0  0
  6  1  1  0  0  0
 17 13  1  0  0  0
 17 18  1  0  0  0
M  END
> <minimizedAffinity>
-6.42920

> <CNNscore>
0.3935411870

> <CNNaffinity>
5.4037237167

> <CNN_VS>
2.1265878677

> <CNNaffinity_variance>
0.0527907424

$$$$
[H]C1=C2C([H])([H])C([H])([H])C([H])([H])C([H])([H])[C@]2([H])/C(=C(\[H])C([H])([H])C2([H])C([H])([H])C([H])([H])C(C([H])([H])[H])(C([H])([H])[H])[N+]2(C([H])([H])[H])C([H])([H])[H])[C@]2([H])[C@@]1([H])C(=O)O[C@@]2([H])C([H])([H])[H]


 26 29  0  0  0  0  0  0  0  0999 V2000
  -16.0811   11.2608  -18.3759 C   0  0  0  0  0  0  0  0  0  0  0  0
  -17.4455   11.7253  -18.9592 C   0  0  0  0  0  0  0  0  0  0  0  0
  -17.9769   10.5557  -19.5289 O   0  0  0  0  0  0  0  0  0  0  0  0
  -17.2376   10.3767  -20.6962 C   0  0  0  0  0  0  0  0  0  0  0  0
  -17.3251    9.3725  -21.4379 O   0  0  0  0  0  0  0  0  0  0  0  0
  -16.3601   11.5558  -20.8874 C   0  0  0  0  0  0  0  0  0  0  0  0
  -16.0518   11.9164  -22.2438 C   0  0  0  0  0  0  0  0  0  0  0  0
  -16.5478   12.9085  -22.9013 C   0  0  0  0  0  0  0  0  0  0  0  0
  -16.1725   13.2126  -24.3028 C   0  0  0  0  0  0  0  0  0  0  0  0
  -16.2405   14.7253  -24.4653 C   0  0  0  0  0  0  0  0  0  0  0  0
  -15.9332   15.4428  -23.1902 C   0  0  0  0  0  0  0  0  0  0  0  0
  -16.8118   15.1179  -22.0322 C   0  0  0  0  0  0  0  0  0  0  0  0
  -17.5191   13.7871  -22.2766 C   0  0  0  0  0  0  0  0  0  0  0  0
  -18.0569   13.2842  -20.9384 C   0  0  0  0  0  0  0  0  0  0  0  0
  -19.2969   13.6234  -20.7645 C   0  0  0  0  0  0  0  0  0  0  0  0
  -17.1750   12.6016  -20.0786 C   0  0  0  0  0  0  0  0  0  0  0  0
  -20.1166   13.3139  -19.6223 C   0  0  0  0  0  0  0  0  0  0  0  0
  -19.9584   14.5220  -18.6399 C   0  0  0  0  0  0  0  0  0  0  0  0
  -20.9513   15.5933  -18.9966 C   0  0  0  0  0  0  0  0  0  0  0  0
  -22.0019   15.3951  -17.9032 C   0  0  0  0  0  0  0  0  0  0  0  0
  -21.0902   15.1074  -16.7200 C   0  0  0  0  0  0  0  0  0  0  0  0
  -20.4216   16.4126  -16.3508 C   0  0  0  0  0  0  0  0  0  0  0  0
  -21.8298   14.5903  -15.5290 C   0  0  0  0  0  0  0  0  0  0  0  0
  -20.1654   14.1495  -17.2874 N   0  0  0  0  0  0  0  0  0  0  0  0
  -18.8919   14.3606  -16.5772 C   0  0  0  0  0  0  0  0  0  0  0  0
  -20.5444   12.7924  -17.0457 C   0  0  0  0  0  0  0  0  0  0  0  0
  1  2  1  0  0  0
  2  3  1  0  0  0
  3  4  1  0  0  0
  4  5  2  0  0  0
  4  6  1  0  0  0
  6  7  1  0  0  0
  7  8  2  0  0  0
  8  9  1  0  0  0
  9 10  1  0  0  0
 10 11  1  0  0  0
 11 12  1  0  0  0
 12 13  1  0  0  0
 13 14  1  0  0  0
 14 15  2  0  0  0
 15 17  1  0  0  0
 17 18  1  0  0  0
 18 19  1  0  0  0
 19 20  1  0  0  0
 20 21  1  0  0  0
 21 22  1  0  0  0
 21 23  1  0  0  0
 21 24  1  0  0  0
 24 25  1  0  0  0
 24 26  1  0  0  0
 14 16  1  0  0  0
 16  2  1  0  0  0
 16  6  1  0  0  0
 13  8  1  0  0  0
 24 18  1  0  0  0
M  CHG 1  24   1
M  END
> <minimizedAffinity>
-6.92904

> <CNNscore>
0.3215579093

> <CNNaffinity>
6.2274847031

> <CNN_VS>
2.0024969578

> <CNNaffinity_variance>
0.1224446148

$$$$
[H]C1=C2C([H])([H])C([H])([H])C([H])([H])C([H])([H])[C@]2([H])/C(=C(\[H])C([H])([H])C2([H])C([H])([H])C([H])([H])C(C([H])([H])[H])(C([H])([H])[H])[N+]2(C([H])([H])[H])C([H])([H])[H])[C@]2([H])[C@@]1([H])C(=O)O[C@@]2([H])C([H])([H])[H]


 26 29  0  0  0  0  0  0  0  0999 V2000
  -18.0133   11.7043  -23.2807 C   0  0  0  0  0  0  0  0  0  0  0  0
  -17.4981   12.7198  -22.2219 C   0  0  0  0  0  0  0  0  0  0  0  0
  -16.1377   12.3946  -22.0864 O   0  0  0  0  0  0  0  0  0  0  0  0
  -16.1395   11.2159  -21.3433 C   0  0  0  0  0  0  0  0  0  0  0  0
  -15.1186   10.5328  -21.1042 O   0  0  0  0  0  0  0  0  0  0  0  0
  -17.5271   10.9335  -20.9054 C   0  0  0  0  0  0  0  0  0  0  0  0
  -17.6799   10.2389  -19.6567 C   0  0  0  0  0  0  0  0  0  0  0  0
  -18.0516   10.7568  -18.5360 C   0  0  0  0  0  0  0  0  0  0  0  0
  -18.1861    9.9654  -17.2896 C   0  0  0  0  0  0  0  0  0  0  0  0
  -19.3239   10.5839  -16.4883 C   0  0  0  0  0  0  0  0  0  0  0  0
  -20.3575   11.2094  -17.3690 C   0  0  0  0  0  0  0  0  0  0  0  0
  -19.8727   12.2819  -18.2818 C   0  0  0  0  0  0  0  0  0  0  0  0
  -18.3592   12.1723  -18.4509 C   0  0  0  0  0  0  0  0  0  0  0  0
  -17.9611   12.9804  -19.6844 C   0  0  0  0  0  0  0  0  0  0  0  0
  -17.5856   14.1810  -19.3677 C   0  0  0  0  0  0  0  0  0  0  0  0
  -18.0969   12.3775  -20.9497 C   0  0  0  0  0  0  0  0  0  0  0  0
  -17.1422   15.2063  -20.2755 C   0  0  0  0  0  0  0  0  0  0  0  0
  -18.4273   15.9965  -20.6924 C   0  0  0  0  0  0  0  0  0  0  0  0
  -19.1038   16.5398  -19.4644 C   0  0  0  0  0  0  0  0  0  0  0  0
  -18.6966   18.0122  -19.5325 C   0  0  0  0  0  0  0  0  0  0  0  0
  -18.8151   18.2425  -21.0315 C   0  0  0  0  0  0  0  0  0  0  0  0
  -20.2911   18.2568  -21.3601 C   0  0  0  0  0  0  0  0  0  0  0  0
  -18.2105   19.5366  -21.4700 C   0  0  0  0  0  0  0  0  0  0  0  0
  -18.1382   17.0784  -21.5622 N   0  0  0  0  0  0  0  0  0  0  0  0
  -18.7957   16.7911  -22.8490 C   0  0  0  0  0  0  0  0  0  0  0  0
  -16.7593   17.3161  -21.8555 C   0  0  0  0  0  0  0  0  0  0  0  0
  1  2  1  0  0  0
  2  3  1  0  0  0
  3  4  1  0  0  0
  4  5  2  0  0  0
  4  6  1  0  0  0
  6  7  1  0  0  0
  7  8  2  0  0  0
  8  9  1  0  0  0
  9 10  1  0  0  0
 10 11  1  0  0  0
 11 12  1  0  0  0
 12 13  1  0  0  0
 13 14  1  0  0  0
 14 15  2  0  0  0
 15 17  1  0  0  0
 17 18  1  0  0  0
 18 19  1  0  0  0
 19 20  1  0  0  0
 20 21  1  0  0  0
 21 22  1  0  0  0
 21 23  1  0  0  0
 21 24  1  0  0  0
 24 25  1  0  0  0
 24 26  1  0  0  0
 14 16  1  0  0  0
 16  2  1  0  0  0
 16  6  1  0  0  0
 13  8  1  0  0  0
 24 18  1  0  0  0
M  CHG 1  24   1
M  END
> <minimizedAffinity>
-5.62141

> <CNNscore>
0.2974199355

> <CNNaffinity>
6.3506093025

> <CNN_VS>
1.8887977600

> <CNNaffinity_variance>
0.3192412853

$$$$
[H]C1=C2C([H])([H])C([H])([H])C([H])([H])C([H])([H])[C@]2([H])/C(=C(\[H])C([H])([H])C2([H])C([H])([H])C([H])([H])C(C([H])([H])[H])(C([H])([H])[H])[N+]2(C([H])([H])[H])C([H])([H])[H])[C@]2([H])[C@@]1([H])C(=O)O[C@@]2([H])C([H])([H])[H]


 26 29  0  0  0  0  0  0  0  0999 V2000
  -17.9377   16.7969  -18.5887 C   0  0  0  0  0  0  0  0  0  0  0  0
  -18.2920   15.9609  -19.8510 C   0  0  0  0  0  0  0  0  0  0  0  0
  -19.6920   16.0547  -19.9275 O   0  0  0  0  0  0  0  0  0  0  0  0
  -20.1477   15.2121  -18.9159 C   0  0  0  0  0  0  0  0  0  0  0  0
  -21.3474   15.1048  -18.5760 O   0  0  0  0  0  0  0  0  0  0  0  0
  -18.9872   14.4929  -18.3390 C   0  0  0  0  0  0  0  0  0  0  0  0
  -19.2375   13.1755  -17.8224 C   0  0  0  0  0  0  0  0  0  0  0  0
  -18.9086   12.0613  -18.3817 C   0  0  0  0  0  0  0  0  0  0  0  0
  -19.2040   10.7401  -17.7777 C   0  0  0  0  0  0  0  0  0  0  0  0
  -18.0732    9.8024  -18.1792 C   0  0  0  0  0  0  0  0  0  0  0  0
  -16.7795   10.5282  -18.3656 C   0  0  0  0  0  0  0  0  0  0  0  0
  -16.7845   11.6179  -19.3809 C   0  0  0  0  0  0  0  0  0  0  0  0
  -18.2194   12.0597  -19.6587 C   0  0  0  0  0  0  0  0  0  0  0  0
  -18.1700   13.4201  -20.3514 C   0  0  0  0  0  0  0  0  0  0  0  0
  -18.2240   13.3007  -21.6420 C   0  0  0  0  0  0  0  0  0  0  0  0
  -18.0222   14.5706  -19.5532 C   0  0  0  0  0  0  0  0  0  0  0  0
  -18.2044   14.3730  -22.6021 C   0  0  0  0  0  0  0  0  0  0  0  0
  -16.7265   14.4701  -23.1081 C   0  0  0  0  0  0  0  0  0  0  0  0
  -16.3056   13.1479  -23.6873 C   0  0  0  0  0  0  0  0  0  0  0  0
  -16.3855   13.4453  -25.1852 C   0  0  0  0  0  0  0  0  0  0  0  0
  -15.8332   14.8626  -25.1956 C   0  0  0  0  0  0  0  0  0  0  0  0
  -14.3494   14.7597  -24.9229 C   0  0  0  0  0  0  0  0  0  0  0  0
  -16.0366   15.5558  -26.5036 C   0  0  0  0  0  0  0  0  0  0  0  0
  -16.5593   15.4692  -24.1003 N   0  0  0  0  0  0  0  0  0  0  0  0
  -15.6547   16.4900  -23.5432 C   0  0  0  0  0  0  0  0  0  0  0  0
  -17.7383   16.1590  -24.5223 C   0  0  0  0  0  0  0  0  0  0  0  0
  1  2  1  0  0  0
  2  3  1  0  0  0
  3  4  1  0  0  0
  4  5  2  0  0  0
  4  6  1  0  0  0
  6  7  1  0  0  0
  7  8  2  0  0  0
  8  9  1  0  0  0
  9 10  1  0  0  0
 10 11  1  0  0  0
 11 12  1  0  0  0
 12 13  1  0  0  0
 13 14  1  0  0  0
 14 15  2  0  0  0
 15 17  1  0  0  0
 17 18  1  0  0  0
 18 19  1  0  0  0
 19 20  1  0  0  0
 20 21  1  0  0  0
 21 22  1  0  0  0
 21 23  1  0  0  0
 21 24  1  0  0  0
 24 25  1  0  0  0
 24 26  1  0  0  0
 14 16  1  0  0  0
 16  2  1  0  0  0
 16  6  1  0  0  0
 13  8  1  0  0  0
 24 18  1  0  0  0
M  CHG 1  24   1
M  END
> <minimizedAffinity>
-9.12260

> <CNNscore>
0.2855493128

> <CNNaffinity>
6.5402922630

> <CNN_VS>
1.8675760031

> <CNNaffinity_variance>
0.0647103339

$$$$
[H]C1=C2C([H])([H])C([H])([H])C([H])([H])C([H])([H])[C@]2([H])/C(=C(\[H])C([H])([H])C2([H])C([H])([H])C([H])([H])C(C([H])([H])[H])(C([H])([H])[H])[N+]2(C([H])([H])[H])C([H])([H])[H])[C@]2([H])[C@@]1([H])C(=O)O[C@@]2([H])C([H])([H])[H]


 26 29  0  0  0  0  0  0  0  0999 V2000
  -19.3774   12.2303  -20.7752 C   0  0  0  0  0  0  0  0  0  0  0  0
  -19.4680   13.1328  -19.5123 C   0  0  0  0  0  0  0  0  0  0  0  0
  -18.1239   13.3718  -19.1795 O   0  0  0  0  0  0  0  0  0  0  0  0
  -17.6917   12.1726  -18.6170 C   0  0  0  0  0  0  0  0  0  0  0  0
  -16.5067   11.9335  -18.2933 O   0  0  0  0  0  0  0  0  0  0  0  0
  -18.8565   11.2665  -18.4791 C   0  0  0  0  0  0  0  0  0  0  0  0
  -18.8224   10.3352  -17.3852 C   0  0  0  0  0  0  0  0  0  0  0  0
  -19.4971   10.4199  -16.2897 C   0  0  0  0  0  0  0  0  0  0  0  0
  -19.4044    9.4104  -15.2080 C   0  0  0  0  0  0  0  0  0  0  0  0
  -20.7749    9.3357  -14.5481 C   0  0  0  0  0  0  0  0  0  0  0  0
  -21.8790    9.6469  -15.5068 C   0  0  0  0  0  0  0  0  0  0  0  0
  -21.8152   10.9830  -16.1621 C   0  0  0  0  0  0  0  0  0  0  0  0
  -20.3957   11.5377  -16.0690 C   0  0  0  0  0  0  0  0  0  0  0  0
  -20.2612   12.6671  -17.0884 C   0  0  0  0  0  0  0  0  0  0  0  0
  -20.4795   13.8261  -16.5483 C   0  0  0  0  0  0  0  0  0  0  0  0
  -19.9885   12.3284  -18.4277 C   0  0  0  0  0  0  0  0  0  0  0  0
  -20.4328   15.1023  -17.2126 C   0  0  0  0  0  0  0  0  0  0  0  0
  -20.0991   16.1531  -16.1017 C   0  0  0  0  0  0  0  0  0  0  0  0
  -18.8144   16.8554  -16.4436 C   0  0  0  0  0  0  0  0  0  0  0  0
  -19.3408   18.1977  -16.9533 C   0  0  0  0  0  0  0  0  0  0  0  0
  -20.4731   18.4226  -15.9628 C   0  0  0  0  0  0  0  0  0  0  0  0
  -19.8357   18.7617  -14.6340 C   0  0  0  0  0  0  0  0  0  0  0  0
  -21.3807   19.5404  -16.3619 C   0  0  0  0  0  0  0  0  0  0  0  0
  -21.1191   17.1274  -15.9555 N   0  0  0  0  0  0  0  0  0  0  0  0
  -21.6793   16.9724  -14.6016 C   0  0  0  0  0  0  0  0  0  0  0  0
  -22.2211   17.0447  -16.8623 C   0  0  0  0  0  0  0  0  0  0  0  0
  1  2  1  0  0  0
  2  3  1  0  0  0
  3  4  1  0  0  0
  4  5  2  0  0  0
  4  6  1  0  0  0
  6  7  1  0  0  0
  7  8  2  0  0  0
  8  9  1  0  0  0
  9 10  1  0  0  0
 10 11  1  0  0  0
 11 12  1  0  0  0
 12 13  1  0  0  0
 13 14  1  0  0  0
 14 15  2  0  0  0
 15 17  1  0  0  0
 17 18  1  0  0  0
 18 19  1  0  0  0
 19 20  1  0  0  0
 20 21  1  0  0  0
 21 22  1  0  0  0
 21 23  1  0  0  0
 21 24  1  0  0  0
 24 25  1  0  0  0
 24 26  1  0  0  0
 14 16  1  0  0  0
 16  2  1  0  0  0
 16  6  1  0  0  0
 13  8  1  0  0  0
 24 18  1  0  0  0
M  CHG 1  24   1
M  END
> <minimizedAffinity>
-5.36605

> <CNNscore>
0.2800790966

> <CNNaffinity>
5.6677346230

> <CNN_VS>
1.5874140263

> <CNNaffinity_variance>
0.1507031620

$$$$
[H]C1=C2C([H])([H])C([H])([H])C([H])([H])C([H])([H])[C@]2([H])/C(=C(\[H])C([H])([H])C2([H])C([H])([H])C([H])([H])C(C([H])([H])[H])(C([H])([H])[H])[N+]2(C([H])([H])[H])C([H])([H])[H])[C@]2([H])[C@@]1([H])C(=O)O[C@@]2([H])C([H])([H])[H]


 26 29  0  0  0  0  0  0  0  0999 V2000
  -17.3627    9.2520  -20.7664 C   0  0  0  0  0  0  0  0  0  0  0  0
  -16.9016   10.6788  -21.1780 C   0  0  0  0  0  0  0  0  0  0  0  0
  -15.7138   10.8651  -20.4505 O   0  0  0  0  0  0  0  0  0  0  0  0
  -16.1438   11.0927  -19.1449 C   0  0  0  0  0  0  0  0  0  0  0  0
  -15.3795   11.1901  -18.1588 O   0  0  0  0  0  0  0  0  0  0  0  0
  -17.6226   11.1939  -19.1434 C   0  0  0  0  0  0  0  0  0  0  0  0
  -18.2090   12.0479  -18.1475 C   0  0  0  0  0  0  0  0  0  0  0  0
  -18.7108   13.2189  -18.3459 C   0  0  0  0  0  0  0  0  0  0  0  0
  -19.3002   14.0362  -17.2586 C   0  0  0  0  0  0  0  0  0  0  0  0
  -20.4321   14.8485  -17.8736 C   0  0  0  0  0  0  0  0  0  0  0  0
  -21.0712   14.1412  -19.0253 C   0  0  0  0  0  0  0  0  0  0  0  0
  -20.1666   13.7844  -20.1535 C   0  0  0  0  0  0  0  0  0  0  0  0
  -18.7160   13.7960  -19.6773 C   0  0  0  0  0  0  0  0  0  0  0  0
  -17.8761   13.0331  -20.6997 C   0  0  0  0  0  0  0  0  0  0  0  0
  -17.3343   13.8335  -21.5649 C   0  0  0  0  0  0  0  0  0  0  0  0
  -17.8401   11.6277  -20.6186 C   0  0  0  0  0  0  0  0  0  0  0  0
  -16.4804   13.4575  -22.6610 C   0  0  0  0  0  0  0  0  0  0  0  0
  -16.0452   14.7960  -23.3456 C   0  0  0  0  0  0  0  0  0  0  0  0
  -14.5656   14.7668  -23.6115 C   0  0  0  0  0  0  0  0  0  0  0  0
  -14.5435   14.4900  -25.1153 C   0  0  0  0  0  0  0  0  0  0  0  0
  -15.7104   15.3615  -25.5542 C   0  0  0  0  0  0  0  0  0  0  0  0
  -15.2544   16.7988  -25.4412 C   0  0  0  0  0  0  0  0  0  0  0  0
  -16.1341   15.0989  -26.9628 C   0  0  0  0  0  0  0  0  0  0  0  0
  -16.7184   15.0189  -24.5736 N   0  0  0  0  0  0  0  0  0  0  0  0
  -17.5375   16.2323  -24.4078 C   0  0  0  0  0  0  0  0  0  0  0  0
  -17.6049   13.9884  -25.0163 C   0  0  0  0  0  0  0  0  0  0  0  0
  1  2  1  0  0  0
  2  3  1  0  0  0
  3  4  1  0  0  0
  4  5  2  0  0  0
  4  6  1  0  0  0
  6  7  1  0  0  0
  7  8  2  0  0  0
  8  9  1  0  0  0
  9 10  1  0  0  0
 10 11  1  0  0  0
 11 12  1  0  0  0
 12 13  1  0  0  0
 13 14  1  0  0  0
 14 15  2  0  0  0
 15 17  1  0  0  0
 17 18  1  0  0  0
 18 19  1  0  0  0
 19 20  1  0  0  0
 20 21  1  0  0  0
 21 22  1  0  0  0
 21 23  1  0  0  0
 21 24  1  0  0  0
 24 25  1  0  0  0
 24 26  1  0  0  0
 14 16  1  0  0  0
 16  2  1  0  0  0
 16  6  1  0  0  0
 13  8  1  0  0  0
 24 18  1  0  0  0
M  CHG 1  24   1
M  END
> <minimizedAffinity>
-8.43488

> <CNNscore>
0.2768864930

> <CNNaffinity>
6.5316381454

> <CNN_VS>
1.8085223436

> <CNNaffinity_variance>
0.0783266425

$$$$
[H]C1=C2C([H])([H])C([H])([H])C([H])([H])C([H])([H])[C@]2([H])/C(=C(\[H])C([H])([H])C2([H])C([H])([H])C([H])([H])C(C([H])([H])[H])(C([H])([H])[H])[N+]2(C([H])([H])[H])C([H])([H])[H])[C@]2([H])[C@@]1([H])C(=O)O[C@@]2([H])C([H])([H])[H]


 26 29  0  0  0  0  0  0  0  0999 V2000
  -18.5192   12.3229  -21.0893 C   0  0  0  0  0  0  0  0  0  0  0  0
  -18.2417   13.0640  -19.7508 C   0  0  0  0  0  0  0  0  0  0  0  0
  -16.9027   12.7452  -19.4678 O   0  0  0  0  0  0  0  0  0  0  0  0
  -16.9499   11.4225  -19.0327 C   0  0  0  0  0  0  0  0  0  0  0  0
  -15.9399   10.7241  -18.7914 O   0  0  0  0  0  0  0  0  0  0  0  0
  -18.3694   11.0128  -18.9136 C   0  0  0  0  0  0  0  0  0  0  0  0
  -18.6754   10.0345  -17.9065 C   0  0  0  0  0  0  0  0  0  0  0  0
  -19.2512   10.2586  -16.7748 C   0  0  0  0  0  0  0  0  0  0  0  0
  -19.5328    9.1874  -15.7895 C   0  0  0  0  0  0  0  0  0  0  0  0
  -20.8191    9.5696  -15.0694 C   0  0  0  0  0  0  0  0  0  0  0  0
  -21.7364   10.3664  -15.9405 C   0  0  0  0  0  0  0  0  0  0  0  0
  -21.1797   11.6376  -16.4815 C   0  0  0  0  0  0  0  0  0  0  0  0
  -19.6547   11.6049  -16.4138 C   0  0  0  0  0  0  0  0  0  0  0  0
  -19.1165   12.6950  -17.3384 C   0  0  0  0  0  0  0  0  0  0  0  0
  -18.8704   13.7916  -16.6907 C   0  0  0  0  0  0  0  0  0  0  0  0
  -19.0125   12.4121  -18.7139 C   0  0  0  0  0  0  0  0  0  0  0  0
  -18.3524   15.0150  -17.2450 C   0  0  0  0  0  0  0  0  0  0  0  0
  -19.5993   15.9105  -17.5499 C   0  0  0  0  0  0  0  0  0  0  0  0
  -19.9511   16.7149  -16.3293 C   0  0  0  0  0  0  0  0  0  0  0  0
  -19.4051   18.0897  -16.7168 C   0  0  0  0  0  0  0  0  0  0  0  0
  -19.7956   18.1164  -18.1867 C   0  0  0  0  0  0  0  0  0  0  0  0
  -21.2967   18.2916  -18.2411 C   0  0  0  0  0  0  0  0  0  0  0  0
  -19.1516   19.2354  -18.9387 C   0  0  0  0  0  0  0  0  0  0  0  0
  -19.3724   16.8042  -18.6272 N   0  0  0  0  0  0  0  0  0  0  0  0
  -20.3024   16.4305  -19.7071 C   0  0  0  0  0  0  0  0  0  0  0  0
  -18.0627   16.8000  -19.2004 C   0  0  0  0  0  0  0  0  0  0  0  0
  1  2  1  0  0  0
  2  3  1  0  0  0
  3  4  1  0  0  0
  4  5  2  0  0  0
  4  6  1  0  0  0
  6  7  1  0  0  0
  7  8  2  0  0  0
  8  9  1  0  0  0
  9 10  1  0  0  0
 10 11  1  0  0  0
 11 12  1  0  0  0
 12 13  1  0  0  0
 13 14  1  0  0  0
 14 15  2  0  0  0
 15 17  1  0  0  0
 17 18  1  0  0  0
 18 19  1  0  0  0
 19 20  1  0  0  0
 20 21  1  0  0  0
 21 22  1  0  0  0
 21 23  1  0  0  0
 21 24  1  0  0  0
 24 25  1  0  0  0
 24 26  1  0  0  0
 14 16  1  0  0  0
 16  2  1  0  0  0
 16  6  1  0  0  0
 13  8  1  0  0  0
 24 18  1  0  0  0
M  CHG 1  24   1
M  END
> <minimizedAffinity>
-7.42916

> <CNNscore>
0.2738609612

> <CNNaffinity>
5.9057817459

> <CNN_VS>
1.6173630953

> <CNNaffinity_variance>
0.0398870334

$$$$
[H]C1=C2C([H])([H])C([H])([H])C([H])([H])C([H])([H])[C@]2([H])/C(=C(\[H])C([H])([H])C2([H])C([H])([H])C([H])([H])C(C([H])([H])[H])(C([H])([H])[H])[N+]2(C([H])([H])[H])C([H])([H])[H])[C@]2([H])[C@@]1([H])C(=O)O[C@@]2([H])C([H])([H])[H]


 26 29  0  0  0  0  0  0  0  0999 V2000
  -17.8144   12.8271  -18.1566 C   0  0  0  0  0  0  0  0  0  0  0  0
  -17.9159   14.2521  -18.7704 C   0  0  0  0  0  0  0  0  0  0  0  0
  -19.2955   14.4280  -18.9717 O   0  0  0  0  0  0  0  0  0  0  0  0
  -19.5826   13.6399  -20.0842 C   0  0  0  0  0  0  0  0  0  0  0  0
  -20.7371   13.4303  -20.5195 O   0  0  0  0  0  0  0  0  0  0  0  0
  -18.3104   13.1156  -20.6351 C   0  0  0  0  0  0  0  0  0  0  0  0
  -18.2686   12.8854  -22.0530 C   0  0  0  0  0  0  0  0  0  0  0  0
  -17.6690   13.6187  -22.9278 C   0  0  0  0  0  0  0  0  0  0  0  0
  -17.6735   13.3075  -24.3772 C   0  0  0  0  0  0  0  0  0  0  0  0
  -16.3414   13.7843  -24.9406 C   0  0  0  0  0  0  0  0  0  0  0  0
  -15.2448   13.7168  -23.9267 C   0  0  0  0  0  0  0  0  0  0  0  0
  -15.4627   14.5002  -22.6787 C   0  0  0  0  0  0  0  0  0  0  0  0
  -16.9489   14.8088  -22.5143 C   0  0  0  0  0  0  0  0  0  0  0  0
  -17.1891   15.2200  -21.0630 C   0  0  0  0  0  0  0  0  0  0  0  0
  -17.1637   16.5092  -20.9219 C   0  0  0  0  0  0  0  0  0  0  0  0
  -17.3432   14.2056  -20.0986 C   0  0  0  0  0  0  0  0  0  0  0  0
  -17.3558   17.2399  -19.6965 C   0  0  0  0  0  0  0  0  0  0  0  0
  -18.4566   18.3097  -20.0021 C   0  0  0  0  0  0  0  0  0  0  0  0
  -19.3088   17.8408  -21.1486 C   0  0  0  0  0  0  0  0  0  0  0  0
  -20.5670   17.3820  -20.4102 C   0  0  0  0  0  0  0  0  0  0  0  0
  -20.6634   18.4789  -19.3608 C   0  0  0  0  0  0  0  0  0  0  0  0
  -21.0994   19.7373  -20.0770 C   0  0  0  0  0  0  0  0  0  0  0  0
  -21.6529   18.1684  -18.2851 C   0  0  0  0  0  0  0  0  0  0  0  0
  -19.2979   18.5533  -18.8868 N   0  0  0  0  0  0  0  0  0  0  0  0
  -19.0944   19.9562  -18.4854 C   0  0  0  0  0  0  0  0  0  0  0  0
  -19.0645   17.7599  -17.7207 C   0  0  0  0  0  0  0  0  0  0  0  0
  1  2  1  0  0  0
  2  3  1  0  0  0
  3  4  1  0  0  0
  4  5  2  0  0  0
  4  6  1  0  0  0
  6  7  1  0  0  0
  7  8  2  0  0  0
  8  9  1  0  0  0
  9 10  1  0  0  0
 10 11  1  0  0  0
 11 12  1  0  0  0
 12 13  1  0  0  0
 13 14  1  0  0  0
 14 15  2  0  0  0
 15 17  1  0  0  0
 17 18  1  0  0  0
 18 19  1  0  0  0
 19 20  1  0  0  0
 20 21  1  0  0  0
 21 22  1  0  0  0
 21 23  1  0  0  0
 21 24  1  0  0  0
 24 25  1  0  0  0
 24 26  1  0  0  0
 14 16  1  0  0  0
 16  2  1  0  0  0
 16  6  1  0  0  0
 13  8  1  0  0  0
 24 18  1  0  0  0
M  CHG 1  24   1
M  END
> <minimizedAffinity>
-6.34206

> <CNNscore>
0.2606356740

> <CNNaffinity>
6.0760145187

> <CNN_VS>
1.5836261511

> <CNNaffinity_variance>
0.1108401790

$$$$
[H]C1=C2C([H])([H])C([H])([H])C([H])([H])C([H])([H])[C@]2([H])/C(=C(\[H])C([H])([H])C2([H])C([H])([H])C([H])([H])C(C([H])([H])[H])(C([H])([H])[H])[N+]2(C([H])([H])[H])C([H])([H])[H])[C@]2([H])[C@@]1([H])C(=O)O[C@@]2([H])C([H])([H])[H]


 26 29  0  0  0  0  0  0  0  0999 V2000
  -17.2184    9.5946  -21.0659 C   0  0  0  0  0  0  0  0  0  0  0  0
  -16.7280   11.0642  -21.1983 C   0  0  0  0  0  0  0  0  0  0  0  0
  -15.6623   11.1407  -20.2856 O   0  0  0  0  0  0  0  0  0  0  0  0
  -16.2818   11.1801  -19.0381 C   0  0  0  0  0  0  0  0  0  0  0  0
  -15.6709   11.1329  -17.9469 O   0  0  0  0  0  0  0  0  0  0  0  0
  -17.7465   11.2846  -19.2391 C   0  0  0  0  0  0  0  0  0  0  0  0
  -18.4869   11.9889  -18.2287 C   0  0  0  0  0  0  0  0  0  0  0  0
  -18.9754   13.1778  -18.3300 C   0  0  0  0  0  0  0  0  0  0  0  0
  -19.7314   13.8327  -17.2357 C   0  0  0  0  0  0  0  0  0  0  0  0
  -20.7762   14.7282  -17.8882 C   0  0  0  0  0  0  0  0  0  0  0  0
  -21.2281   14.1953  -19.2099 C   0  0  0  0  0  0  0  0  0  0  0  0
  -20.1627   14.0010  -20.2325 C   0  0  0  0  0  0  0  0  0  0  0  0
  -18.7973   13.9398  -19.5520 C   0  0  0  0  0  0  0  0  0  0  0  0
  -17.8040   13.3286  -20.5383 C   0  0  0  0  0  0  0  0  0  0  0  0
  -17.1565   14.2431  -21.1920 C   0  0  0  0  0  0  0  0  0  0  0  0
  -17.7548   11.9261  -20.6534 C   0  0  0  0  0  0  0  0  0  0  0  0
  -16.1455   14.0254  -22.1932 C   0  0  0  0  0  0  0  0  0  0  0  0
  -16.6887   14.6871  -23.5035 C   0  0  0  0  0  0  0  0  0  0  0  0
  -16.7945   16.1742  -23.3092 C   0  0  0  0  0  0  0  0  0  0  0  0
  -15.5679   16.6590  -24.0832 C   0  0  0  0  0  0  0  0  0  0  0  0
  -15.6225   15.7107  -25.2713 C   0  0  0  0  0  0  0  0  0  0  0  0
  -16.7899   16.1451  -26.1288 C   0  0  0  0  0  0  0  0  0  0  0  0
  -14.3783   15.7429  -26.0980 C   0  0  0  0  0  0  0  0  0  0  0  0
  -15.8527   14.4381  -24.6215 N   0  0  0  0  0  0  0  0  0  0  0  0
  -16.6347   13.6395  -25.5815 C   0  0  0  0  0  0  0  0  0  0  0  0
  -14.6485   13.7087  -24.3733 C   0  0  0  0  0  0  0  0  0  0  0  0
  1  2  1  0  0  0
  2  3  1  0  0  0
  3  4  1  0  0  0
  4  5  2  0  0  0
  4  6  1  0  0  0
  6  7  1  0  0  0
  7  8  2  0  0  0
  8  9  1  0  0  0
  9 10  1  0  0  0
 10 11  1  0  0  0
 11 12  1  0  0  0
 12 13  1  0  0  0
 13 14  1  0  0  0
 14 15  2  0  0  0
 15 17  1  0  0  0
 17 18  1  0  0  0
 18 19  1  0  0  0
 19 20  1  0  0  0
 20 21  1  0  0  0
 21 22  1  0  0  0
 21 23  1  0  0  0
 21 24  1  0  0  0
 24 25  1  0  0  0
 24 26  1  0  0  0
 14 16  1  0  0  0
 16  2  1  0  0  0
 16  6  1  0  0  0
 13  8  1  0  0  0
 24 18  1  0  0  0
M  CHG 1  24   1
M  END
> <minimizedAffinity>
-8.13025

> <CNNscore>
0.2446904629

> <CNNaffinity>
6.5461716652

> <CNN_VS>
1.6017857790

> <CNNaffinity_variance>
0.1502259076

$$$$
[H]C1=C2C([H])([H])C([H])([H])C([H])([H])C([H])([H])[C@]2([H])/C(=C(\[H])C([H])([H])C2([H])C([H])([H])C([H])([H])C(C([H])([H])[H])(C([H])([H])[H])[N+]2(C([H])([H])[H])C([H])([H])[H])[C@]2([H])[C@@]1([H])C(=O)O[C@@]2([H])C([H])([H])[H]


 26 29  0  0  0  0  0  0  0  0999 V2000
  -16.8086   12.1477  -18.8711 C   0  0  0  0  0  0  0  0  0  0  0  0
  -17.9499   12.9559  -19.5507 C   0  0  0  0  0  0  0  0  0  0  0  0
  -18.7731   11.9620  -20.1068 O   0  0  0  0  0  0  0  0  0  0  0  0
  -18.0659   11.5152  -21.2210 C   0  0  0  0  0  0  0  0  0  0  0  0
  -18.4088   10.5418  -21.9287 O   0  0  0  0  0  0  0  0  0  0  0  0
  -16.8746   12.3780  -21.4039 C   0  0  0  0  0  0  0  0  0  0  0  0
  -16.4130   12.5618  -22.7523 C   0  0  0  0  0  0  0  0  0  0  0  0
  -16.5673   13.6189  -23.4743 C   0  0  0  0  0  0  0  0  0  0  0  0
  -16.0561   13.7270  -24.8616 C   0  0  0  0  0  0  0  0  0  0  0  0
  -15.6721   15.1838  -25.0839 C   0  0  0  0  0  0  0  0  0  0  0  0
  -15.2271   15.8478  -23.8205 C   0  0  0  0  0  0  0  0  0  0  0  0
  -16.2141   15.8528  -22.7050 C   0  0  0  0  0  0  0  0  0  0  0  0
  -17.2672   14.7728  -22.9410 C   0  0  0  0  0  0  0  0  0  0  0  0
  -17.9887   14.5184  -21.6190 C   0  0  0  0  0  0  0  0  0  0  0  0
  -19.0823   15.2107  -21.5312 C   0  0  0  0  0  0  0  0  0  0  0  0
  -17.3847   13.6560  -20.6840 C   0  0  0  0  0  0  0  0  0  0  0  0
  -20.0077   15.2126  -20.4287 C   0  0  0  0  0  0  0  0  0  0  0  0
  -19.5102   16.3297  -19.4518 C   0  0  0  0  0  0  0  0  0  0  0  0
  -20.0921   17.6534  -19.8638 C   0  0  0  0  0  0  0  0  0  0  0  0
  -21.1937   17.8277  -18.8175 C   0  0  0  0  0  0  0  0  0  0  0  0
  -20.4706   17.2918  -17.5913 C   0  0  0  0  0  0  0  0  0  0  0  0
  -19.4342   18.3230  -17.2047 C   0  0  0  0  0  0  0  0  0  0  0  0
  -21.3839   17.0669  -16.4303 C   0  0  0  0  0  0  0  0  0  0  0  0
  -19.8797   16.0752  -18.1066 N   0  0  0  0  0  0  0  0  0  0  0  0
  -18.6353   15.8848  -17.3412 C   0  0  0  0  0  0  0  0  0  0  0  0
  -20.6830   14.9167  -17.8693 C   0  0  0  0  0  0  0  0  0  0  0  0
  1  2  1  0  0  0
  2  3  1  0  0  0
  3  4  1  0  0  0
  4  5  2  0  0  0
  4  6  1  0  0  0
  6  7  1  0  0  0
  7  8  2  0  0  0
  8  9  1  0  0  0
  9 10  1  0  0  0
 10 11  1  0  0  0
 11 12  1  0  0  0
 12 13  1  0  0  0
 13 14  1  0  0  0
 14 15  2  0  0  0
 15 17  1  0  0  0
 17 18  1  0  0  0
 18 19  1  0  0  0
 19 20  1  0  0  0
 20 21  1  0  0  0
 21 22  1  0  0  0
 21 23  1  0  0  0
 21 24  1  0  0  0
 24 25  1  0  0  0
 24 26  1  0  0  0
 14 16  1  0  0  0
 16  2  1  0  0  0
 16  6  1  0  0  0
 13  8  1  0  0  0
 24 18  1  0  0  0
M  CHG 1  24   1
M  END
> <minimizedAffinity>
-6.64375

> <CNNscore>
0.2303093076

> <CNNaffinity>
6.0395703316

> <CNN_VS>
1.3909692764

> <CNNaffinity_variance>
0.0817686170

$$$$
[H]c1c([H])c([H])c(C([H])([H])N2C([H])([H])C([H])([H])C([H])(C([H])([H])C([H])([H])N([H])C(=O)c3c([H])c([H])c([H])c([N+](=O)[O-])c3[H])C([H])([H])C2([H])[H])c([H])c1[H]


 28 30  0  0  0  0  0  0  0  0999 V2000
  -19.6450   16.1277  -18.2574 C   0  0  0  0  0  0  0  0  0  0  0  0
  -18.1368   14.2946  -16.7729 O   0  0  0  0  0  0  0  0  0  0  0  0
  -18.5862   13.9122  -17.8819 C   0  0  0  0  0  0  0  0  0  0  0  0
  -19.3456   14.7896  -18.6695 N   0  0  0  0  0  0  0  0  0  0  0  0
  -19.7224   14.4897  -19.5941 H   0  0  0  0  0  0  0  0  0  0  0  0
  -18.2661   12.5425  -18.2631 C   0  0  0  0  0  0  0  0  0  0  0  0
  -18.7851   11.4792  -17.5628 C   0  0  0  0  0  0  0  0  0  0  0  0
  -18.4767   10.1625  -17.9299 C   0  0  0  0  0  0  0  0  0  0  0  0
  -17.6476    9.9238  -18.9999 C   0  0  0  0  0  0  0  0  0  0  0  0
  -17.1052   10.9702  -19.7303 C   0  0  0  0  0  0  0  0  0  0  0  0
  -17.4425   12.2560  -19.3250 C   0  0  0  0  0  0  0  0  0  0  0  0
  -16.2488   10.7574  -20.8356 N   0  0  0  0  0  0  0  0  0  0  0  0
  -15.4600    9.8078  -20.8115 O   0  0  0  0  0  0  0  0  0  0  0  0
  -16.2882   11.5839  -21.9146 O   0  0  0  0  0  0  0  0  0  0  0  0
  -18.9995   17.1095  -19.1905 C   0  0  0  0  0  0  0  0  0  0  0  0
  -18.5272   16.3152  -20.3995 C   0  0  0  0  0  0  0  0  0  0  0  0
  -17.0424   16.4644  -20.6041 C   0  0  0  0  0  0  0  0  0  0  0  0
  -16.6623   15.4877  -21.7222 C   0  0  0  0  0  0  0  0  0  0  0  0
  -17.3489   15.8104  -22.9191 N   0  0  0  0  0  0  0  0  0  0  0  0
  -18.3039   16.8608  -22.8371 C   0  0  0  0  0  0  0  0  0  0  0  0
  -19.2358   16.7559  -21.6582 C   0  0  0  0  0  0  0  0  0  0  0  0
  -16.4197   16.0862  -23.9810 C   0  0  0  0  0  0  0  0  0  0  0  0
  -16.5848   15.2611  -25.1785 C   0  0  0  0  0  0  0  0  0  0  0  0
  -16.0781   15.7746  -26.3646 C   0  0  0  0  0  0  0  0  0  0  0  0
  -16.1601   15.0926  -27.5602 C   0  0  0  0  0  0  0  0  0  0  0  0
  -16.7716   13.8639  -27.5412 C   0  0  0  0  0  0  0  0  0  0  0  0
  -17.2752   13.3493  -26.3732 C   0  0  0  0  0  0  0  0  0  0  0  0
  -17.1887   14.0340  -25.1918 C   0  0  0  0  0  0  0  0  0  0  0  0
  2  3  2  0  0  0
  3  4  1  0  0  0
  4  1  1  0  0  0
  1 15  1  0  0  0
 15 16  1  0  0  0
 16 17  1  0  0  0
 17 18  1  0  0  0
 18 19  1  0  0  0
 19 22  1  0  0  0
 22 23  1  0  0  0
 23 24  2  0  0  0
 24 25  1  0  0  0
 25 26  2  0  0  0
 26 27  1  0  0  0
 27 28  2  0  0  0
 19 20  1  0  0  0
 20 21  1  0  0  0
  3  6  1  0  0  0
  6  7  2  0  0  0
  7  8  1  0  0  0
  8  9  2  0  0  0
  9 10  1  0  0  0
 10 12  1  0  0  0
 12 13  2  0  0  0
 12 14  1  0  0  0
 10 11  2  0  0  0
 21 16  1  0  0  0
 11  6  1  0  0  0
 28 23  1  0  0  0
  4  5  1  0  0  0
M  CHG 1  12   1
M  CHG 1  14  -1
M  END
> <minimizedAffinity>
-8.23713

> <CNNscore>
0.5300037861

> <CNNaffinity>
6.6019430161

> <CNN_VS>
3.4990549088

> <CNNaffinity_variance>
0.0910222530

$$$$
[H]c1c([H])c([H])c(C([H])([H])N2C([H])([H])C([H])([H])C([H])(C([H])([H])C([H])([H])N([H])C(=O)c3c([H])c([H])c([H])c([N+](=O)[O-])c3[H])C([H])([H])C2([H])[H])c([H])c1[H]


 28 30  0  0  0  0  0  0  0  0999 V2000
  -17.8496   11.7967  -18.9018 C   0  0  0  0  0  0  0  0  0  0  0  0
  -16.7812   11.4251  -21.4629 O   0  0  0  0  0  0  0  0  0  0  0  0
  -17.4352   12.4772  -21.2546 C   0  0  0  0  0  0  0  0  0  0  0  0
  -17.9904   12.7171  -19.9893 N   0  0  0  0  0  0  0  0  0  0  0  0
  -18.5324   13.5871  -19.7983 H   0  0  0  0  0  0  0  0  0  0  0  0
  -17.5622   13.3854  -22.3872 C   0  0  0  0  0  0  0  0  0  0  0  0
  -17.8466   14.7163  -22.1917 C   0  0  0  0  0  0  0  0  0  0  0  0
  -17.9686   15.5888  -23.2814 C   0  0  0  0  0  0  0  0  0  0  0  0
  -17.8036   15.1166  -24.5616 C   0  0  0  0  0  0  0  0  0  0  0  0
  -17.5159   13.7810  -24.7984 C   0  0  0  0  0  0  0  0  0  0  0  0
  -17.4055   12.9583  -23.6838 C   0  0  0  0  0  0  0  0  0  0  0  0
  -17.3410   13.2645  -26.1035 N   0  0  0  0  0  0  0  0  0  0  0  0
  -17.6985   12.1079  -26.3457 O   0  0  0  0  0  0  0  0  0  0  0  0
  -16.7871   14.0266  -27.0840 O   0  0  0  0  0  0  0  0  0  0  0  0
  -18.8180   12.1404  -17.8085 C   0  0  0  0  0  0  0  0  0  0  0  0
  -19.4837   10.8371  -17.3912 C   0  0  0  0  0  0  0  0  0  0  0  0
  -19.9465   10.8952  -15.9590 C   0  0  0  0  0  0  0  0  0  0  0  0
  -20.7517    9.6142  -15.7152 C   0  0  0  0  0  0  0  0  0  0  0  0
  -19.9386    8.4706  -15.9132 N   0  0  0  0  0  0  0  0  0  0  0  0
  -18.6195    8.7069  -16.3889 C   0  0  0  0  0  0  0  0  0  0  0  0
  -18.5450    9.6648  -17.5492 C   0  0  0  0  0  0  0  0  0  0  0  0
  -19.8841    7.6713  -14.7194 C   0  0  0  0  0  0  0  0  0  0  0  0
  -20.7650    6.5025  -14.7156 C   0  0  0  0  0  0  0  0  0  0  0  0
  -21.3464    6.1556  -15.9275 C   0  0  0  0  0  0  0  0  0  0  0  0
  -22.1871    5.0708  -16.0605 C   0  0  0  0  0  0  0  0  0  0  0  0
  -22.4371    4.3286  -14.9332 C   0  0  0  0  0  0  0  0  0  0  0  0
  -21.8666    4.6648  -13.7315 C   0  0  0  0  0  0  0  0  0  0  0  0
  -21.0335    5.7434  -13.6100 C   0  0  0  0  0  0  0  0  0  0  0  0
  2  3  2  0  0  0
  3  4  1  0  0  0
  4  1  1  0  0  0
  1 15  1  0  0  0
 15 16  1  0  0  0
 16 17  1  0  0  0
 17 18  1  0  0  0
 18 19  1  0  0  0
 19 22  1  0  0  0
 22 23  1  0  0  0
 23 24  2  0  0  0
 24 25  1  0  0  0
 25 26  2  0  0  0
 26 27  1  0  0  0
 27 28  2  0  0  0
 19 20  1  0  0  0
 20 21  1  0  0  0
  3  6  1  0  0  0
  6  7  2  0  0  0
  7  8  1  0  0  0
  8  9  2  0  0  0
  9 10  1  0  0  0
 10 12  1  0  0  0
 12 13  2  0  0  0
 12 14  1  0  0  0
 10 11  2  0  0  0
 21 16  1  0  0  0
 11  6  1  0  0  0
 28 23  1  0  0  0
  4  5  1  0  0  0
M  CHG 1  12   1
M  CHG 1  14  -1
M  END
> <minimizedAffinity>
-7.65440

> <CNNscore>
0.4835310280

> <CNNaffinity>
5.8749475479

> <CNN_VS>
2.8407194614

> <CNNaffinity_variance>
0.0969596356

$$$$
[H]c1c([H])c([H])c(C([H])([H])N2C([H])([H])C([H])([H])C([H])(C([H])([H])C([H])([H])N([H])C(=O)c3c([H])c([H])c([H])c([N+](=O)[O-])c3[H])C([H])([H])C2([H])[H])c([H])c1[H]


 28 30  0  0  0  0  0  0  0  0999 V2000
  -15.5439   11.7732  -22.6370 C   0  0  0  0  0  0  0  0  0  0  0  0
  -15.7319   10.0358  -20.4495 O   0  0  0  0  0  0  0  0  0  0  0  0
  -16.5741   10.9648  -20.5261 C   0  0  0  0  0  0  0  0  0  0  0  0
  -16.5294   11.8629  -21.6023 N   0  0  0  0  0  0  0  0  0  0  0  0
  -17.2233   12.6368  -21.6833 H   0  0  0  0  0  0  0  0  0  0  0  0
  -17.5562   11.0271  -19.4512 C   0  0  0  0  0  0  0  0  0  0  0  0
  -18.3138   12.1579  -19.2569 C   0  0  0  0  0  0  0  0  0  0  0  0
  -19.2579   12.2170  -18.2230 C   0  0  0  0  0  0  0  0  0  0  0  0
  -19.4338   11.1374  -17.3907 C   0  0  0  0  0  0  0  0  0  0  0  0
  -18.6886    9.9798  -17.5556 C   0  0  0  0  0  0  0  0  0  0  0  0
  -17.7664    9.9729  -18.5953 C   0  0  0  0  0  0  0  0  0  0  0  0
  -18.8458    8.8526  -16.7158 N   0  0  0  0  0  0  0  0  0  0  0  0
  -19.6331    7.9609  -17.0467 O   0  0  0  0  0  0  0  0  0  0  0  0
  -18.1420    8.7455  -15.5573 O   0  0  0  0  0  0  0  0  0  0  0  0
  -15.9189   12.6660  -23.7830 C   0  0  0  0  0  0  0  0  0  0  0  0
  -16.3268   14.0018  -23.1788 C   0  0  0  0  0  0  0  0  0  0  0  0
  -17.6216   14.4950  -23.7694 C   0  0  0  0  0  0  0  0  0  0  0  0
  -18.0166   15.7367  -22.9625 C   0  0  0  0  0  0  0  0  0  0  0  0
  -17.0222   16.7399  -23.0750 N   0  0  0  0  0  0  0  0  0  0  0  0
  -15.8443   16.3860  -23.7889 C   0  0  0  0  0  0  0  0  0  0  0  0
  -15.2639   15.0520  -23.3977 C   0  0  0  0  0  0  0  0  0  0  0  0
  -17.5757   17.9464  -23.6273 C   0  0  0  0  0  0  0  0  0  0  0  0
  -18.4550   18.6934  -22.7269 C   0  0  0  0  0  0  0  0  0  0  0  0
  -19.7328   18.9726  -23.1923 C   0  0  0  0  0  0  0  0  0  0  0  0
  -20.6605   19.6599  -22.4383 C   0  0  0  0  0  0  0  0  0  0  0  0
  -20.2732   20.0686  -21.1865 C   0  0  0  0  0  0  0  0  0  0  0  0
  -19.0122   19.7968  -20.7191 C   0  0  0  0  0  0  0  0  0  0  0  0
  -18.0988   19.1140  -21.4751 C   0  0  0  0  0  0  0  0  0  0  0  0
  2  3  2  0  0  0
  3  4  1  0  0  0
  4  1  1  0  0  0
  1 15  1  0  0  0
 15 16  1  0  0  0
 16 17  1  0  0  0
 17 18  1  0  0  0
 18 19  1  0  0  0
 19 22  1  0  0  0
 22 23  1  0  0  0
 23 24  2  0  0  0
 24 25  1  0  0  0
 25 26  2  0  0  0
 26 27  1  0  0  0
 27 28  2  0  0  0
 19 20  1  0  0  0
 20 21  1  0  0  0
  3  6  1  0  0  0
  6  7  2  0  0  0
  7  8  1  0  0  0
  8  9  2  0  0  0
  9 10  1  0  0  0
 10 12  1  0  0  0
 12 13  2  0  0  0
 12 14  1  0  0  0
 10 11  2  0  0  0
 21 16  1  0  0  0
 11  6  1  0  0  0
 28 23  1  0  0  0
  4  5  1  0  0  0
M  CHG 1  12   1
M  CHG 1  14  -1
M  END
> <minimizedAffinity>
-7.40875

> <CNNscore>
0.4774385393

> <CNNaffinity>
6.2340836525

> <CNN_VS>
2.9763917923

> <CNNaffinity_variance>
0.0998904482

$$$$
[H]c1c([H])c([H])c(C([H])([H])N2C([H])([H])C([H])([H])C([H])(C([H])([H])C([H])([H])N([H])C(=O)c3c([H])c([H])c([H])c([N+](=O)[O-])c3[H])C([H])([H])C2([H])[H])c([H])c1[H]


 28 30  0  0  0  0  0  0  0  0999 V2000
  -21.7800   14.8207  -17.2164 C   0  0  0  0  0  0  0  0  0  0  0  0
  -20.9346   12.6772  -15.6259 O   0  0  0  0  0  0  0  0  0  0  0  0
  -20.5353   12.7085  -16.8166 C   0  0  0  0  0  0  0  0  0  0  0  0
  -20.9248   13.7608  -17.6580 N   0  0  0  0  0  0  0  0  0  0  0  0
  -20.5991   13.8042  -18.6474 H   0  0  0  0  0  0  0  0  0  0  0  0
  -19.6726   11.6092  -17.2303 C   0  0  0  0  0  0  0  0  0  0  0  0
  -19.7749   10.3741  -16.6350 C   0  0  0  0  0  0  0  0  0  0  0  0
  -18.9449    9.3176  -17.0333 C   0  0  0  0  0  0  0  0  0  0  0  0
  -18.0167    9.5107  -18.0286 C   0  0  0  0  0  0  0  0  0  0  0  0
  -17.8843   10.7419  -18.6523 C   0  0  0  0  0  0  0  0  0  0  0  0
  -18.7311   11.7557  -18.2203 C   0  0  0  0  0  0  0  0  0  0  0  0
  -16.9389   10.9723  -19.6788 N   0  0  0  0  0  0  0  0  0  0  0  0
  -17.0157   12.0083  -20.3461 O   0  0  0  0  0  0  0  0  0  0  0  0
  -15.9550   10.0689  -19.9331 O   0  0  0  0  0  0  0  0  0  0  0  0
  -21.4722   16.0789  -17.9737 C   0  0  0  0  0  0  0  0  0  0  0  0
  -20.5676   15.6804  -19.1306 C   0  0  0  0  0  0  0  0  0  0  0  0
  -19.1582   16.1649  -18.9131 C   0  0  0  0  0  0  0  0  0  0  0  0
  -18.3151   15.5538  -20.0375 C   0  0  0  0  0  0  0  0  0  0  0  0
  -18.7842   15.9872  -21.3025 N   0  0  0  0  0  0  0  0  0  0  0  0
  -19.9640   16.7810  -21.3018 C   0  0  0  0  0  0  0  0  0  0  0  0
  -21.0734   16.2356  -20.4408 C   0  0  0  0  0  0  0  0  0  0  0  0
  -17.7451   16.6696  -22.0248 C   0  0  0  0  0  0  0  0  0  0  0  0
  -17.1875   15.9279  -23.1565 C   0  0  0  0  0  0  0  0  0  0  0  0
  -15.8765   16.2192  -23.5083 C   0  0  0  0  0  0  0  0  0  0  0  0
  -15.2316   15.5841  -24.5485 C   0  0  0  0  0  0  0  0  0  0  0  0
  -15.9411   14.6345  -25.2406 C   0  0  0  0  0  0  0  0  0  0  0  0
  -17.2372   14.3408  -24.8994 C   0  0  0  0  0  0  0  0  0  0  0  0
  -17.8683   14.9767  -23.8654 C   0  0  0  0  0  0  0  0  0  0  0  0
  2  3  2  0  0  0
  3  4  1  0  0  0
  4  1  1  0  0  0
  1 15  1  0  0  0
 15 16  1  0  0  0
 16 17  1  0  0  0
 17 18  1  0  0  0
 18 19  1  0  0  0
 19 22  1  0  0  0
 22 23  1  0  0  0
 23 24  2  0  0  0
 24 25  1  0  0  0
 25 26  2  0  0  0
 26 27  1  0  0  0
 27 28  2  0  0  0
 19 20  1  0  0  0
 20 21  1  0  0  0
  3  6  1  0  0  0
  6  7  2  0  0  0
  7  8  1  0  0  0
  8  9  2  0  0  0
  9 10  1  0  0  0
 10 12  1  0  0  0
 12 13  2  0  0  0
 12 14  1  0  0  0
 10 11  2  0  0  0
 21 16  1  0  0  0
 11  6  1  0  0  0
 28 23  1  0  0  0
  4  5  1  0  0  0
M  CHG 1  12   1
M  CHG 1  14  -1
M  END
> <minimizedAffinity>
-7.30767

> <CNNscore>
0.3544796407

> <CNNaffinity>
6.0411610603

> <CNN_VS>
2.1414685249

> <CNNaffinity_variance>
0.0546610840

$$$$
[H]c1c([H])c([H])c(C([H])([H])N2C([H])([H])C([H])([H])C([H])(C([H])([H])C([H])([H])N([H])C(=O)c3c([H])c([H])c([H])c([N+](=O)[O-])c3[H])C([H])([H])C2([H])[H])c([H])c1[H]


 28 30  0  0  0  0  0  0  0  0999 V2000
  -15.9956   12.8612  -23.5153 C   0  0  0  0  0  0  0  0  0  0  0  0
  -15.9434   10.9131  -21.5050 O   0  0  0  0  0  0  0  0  0  0  0  0
  -16.7870   11.8374  -21.3948 C   0  0  0  0  0  0  0  0  0  0  0  0
  -16.8601   12.8386  -22.3742 N   0  0  0  0  0  0  0  0  0  0  0  0
  -17.5570   13.6104  -22.3002 H   0  0  0  0  0  0  0  0  0  0  0  0
  -17.6437   11.7835  -20.2171 C   0  0  0  0  0  0  0  0  0  0  0  0
  -17.4857   10.7913  -19.2786 C   0  0  0  0  0  0  0  0  0  0  0  0
  -18.3100   10.7401  -18.1465 C   0  0  0  0  0  0  0  0  0  0  0  0
  -19.2886   11.6882  -17.9658 C   0  0  0  0  0  0  0  0  0  0  0  0
  -19.4780   12.7041  -18.8903 C   0  0  0  0  0  0  0  0  0  0  0  0
  -18.6344   12.7094  -19.9947 C   0  0  0  0  0  0  0  0  0  0  0  0
  -20.4761   13.6938  -18.7331 N   0  0  0  0  0  0  0  0  0  0  0  0
  -21.2824   13.8859  -19.6483 O   0  0  0  0  0  0  0  0  0  0  0  0
  -20.5530   14.4281  -17.5913 O   0  0  0  0  0  0  0  0  0  0  0  0
  -16.8079   12.9437  -24.7741 C   0  0  0  0  0  0  0  0  0  0  0  0
  -17.0874   14.4199  -25.0157 C   0  0  0  0  0  0  0  0  0  0  0  0
  -16.1151   15.2896  -24.2627 C   0  0  0  0  0  0  0  0  0  0  0  0
  -16.3780   16.7272  -24.7241 C   0  0  0  0  0  0  0  0  0  0  0  0
  -17.7068   17.1126  -24.4180 N   0  0  0  0  0  0  0  0  0  0  0  0
  -18.5467   16.1057  -23.8676 C   0  0  0  0  0  0  0  0  0  0  0  0
  -18.4909   14.7894  -24.5982 C   0  0  0  0  0  0  0  0  0  0  0  0
  -17.7180   18.2690  -23.5636 C   0  0  0  0  0  0  0  0  0  0  0  0
  -17.7336   17.9792  -22.1291 C   0  0  0  0  0  0  0  0  0  0  0  0
  -18.9389   18.1700  -21.4672 C   0  0  0  0  0  0  0  0  0  0  0  0
  -19.0890   17.9237  -20.1188 C   0  0  0  0  0  0  0  0  0  0  0  0
  -17.9861   17.4746  -19.4363 C   0  0  0  0  0  0  0  0  0  0  0  0
  -16.7911   17.2836  -20.0830 C   0  0  0  0  0  0  0  0  0  0  0  0
  -16.6525   17.5309  -21.4215 C   0  0  0  0  0  0  0  0  0  0  0  0
  2  3  2  0  0  0
  3  4  1  0  0  0
  4  1  1  0  0  0
  1 15  1  0  0  0
 15 16  1  0  0  0
 16 17  1  0  0  0
 17 18  1  0  0  0
 18 19  1  0  0  0
 19 22  1  0  0  0
 22 23  1  0  0  0
 23 24  2  0  0  0
 24 25  1  0  0  0
 25 26  2  0  0  0
 26 27  1  0  0  0
 27 28  2  0  0  0
 19 20  1  0  0  0
 20 21  1  0  0  0
  3  6  1  0  0  0
  6  7  2  0  0  0
  7  8  1  0  0  0
  8  9  2  0  0  0
  9 10  1  0  0  0
 10 12  1  0  0  0
 12 13  2  0  0  0
 12 14  1  0  0  0
 10 11  2  0  0  0
 21 16  1  0  0  0
 11  6  1  0  0  0
 28 23  1  0  0  0
  4  5  1  0  0  0
M  CHG 1  12   1
M  CHG 1  14  -1
M  END
> <minimizedAffinity>
-7.68541

> <CNNscore>
0.3278198540

> <CNNaffinity>
6.2972388268

> <CNN_VS>
2.0643599033

> <CNNaffinity_variance>
0.1365423948

$$$$
[H]c1c([H])c([H])c(C([H])([H])N2C([H])([H])C([H])([H])C([H])(C([H])([H])C([H])([H])N([H])C(=O)c3c([H])c([H])c([H])c([N+](=O)[O-])c3[H])C([H])([H])C2([H])[H])c([H])c1[H]


 28 30  0  0  0  0  0  0  0  0999 V2000
  -16.0487   12.0049  -22.5728 C   0  0  0  0  0  0  0  0  0  0  0  0
  -15.7695   10.2275  -20.4276 O   0  0  0  0  0  0  0  0  0  0  0  0
  -16.7487   11.0142  -20.4050 C   0  0  0  0  0  0  0  0  0  0  0  0
  -16.9398   11.9240  -21.4550 N   0  0  0  0  0  0  0  0  0  0  0  0
  -17.7494   12.5809  -21.4540 H   0  0  0  0  0  0  0  0  0  0  0  0
  -17.6286   10.9061  -19.2483 C   0  0  0  0  0  0  0  0  0  0  0  0
  -17.8224    9.6965  -18.6241 C   0  0  0  0  0  0  0  0  0  0  0  0
  -18.6688    9.5934  -17.5120 C   0  0  0  0  0  0  0  0  0  0  0  0
  -19.3151   10.7086  -17.0348 C   0  0  0  0  0  0  0  0  0  0  0  0
  -19.1444   11.9456  -17.6377 C   0  0  0  0  0  0  0  0  0  0  0  0
  -18.2949   11.9933  -18.7365 C   0  0  0  0  0  0  0  0  0  0  0  0
  -19.7955   13.1112  -17.1708 N   0  0  0  0  0  0  0  0  0  0  0  0
  -19.1155   14.0739  -16.8032 O   0  0  0  0  0  0  0  0  0  0  0  0
  -21.1529   13.1779  -17.1248 O   0  0  0  0  0  0  0  0  0  0  0  0
  -16.4346   13.1550  -23.4557 C   0  0  0  0  0  0  0  0  0  0  0  0
  -16.3922   14.4039  -22.5871 C   0  0  0  0  0  0  0  0  0  0  0  0
  -17.7794   14.9142  -22.2973 C   0  0  0  0  0  0  0  0  0  0  0  0
  -17.6163   16.0481  -21.2794 C   0  0  0  0  0  0  0  0  0  0  0  0
  -16.8220   17.0903  -21.8190 N   0  0  0  0  0  0  0  0  0  0  0  0
  -16.2554   16.8546  -23.1018 C   0  0  0  0  0  0  0  0  0  0  0  0
  -15.5991   15.5064  -23.2474 C   0  0  0  0  0  0  0  0  0  0  0  0
  -17.5501   18.3300  -21.8346 C   0  0  0  0  0  0  0  0  0  0  0  0
  -19.0026   18.1939  -21.9514 C   0  0  0  0  0  0  0  0  0  0  0  0
  -19.5192   18.1013  -23.2366 C   0  0  0  0  0  0  0  0  0  0  0  0
  -20.8686   17.9599  -23.4826 C   0  0  0  0  0  0  0  0  0  0  0  0
  -21.7034   17.9129  -22.3941 C   0  0  0  0  0  0  0  0  0  0  0  0
  -21.2010   18.0039  -21.1206 C   0  0  0  0  0  0  0  0  0  0  0  0
  -19.8601   18.1440  -20.8871 C   0  0  0  0  0  0  0  0  0  0  0  0
  2  3  2  0  0  0
  3  4  1  0  0  0
  4  1  1  0  0  0
  1 15  1  0  0  0
 15 16  1  0  0  0
 16 17  1  0  0  0
 17 18  1  0  0  0
 18 19  1  0  0  0
 19 22  1  0  0  0
 22 23  1  0  0  0
 23 24  2  0  0  0
 24 25  1  0  0  0
 25 26  2  0  0  0
 26 27  1  0  0  0
 27 28  2  0  0  0
 19 20  1  0  0  0
 20 21  1  0  0  0
  3  6  1  0  0  0
  6  7  2  0  0  0
  7  8  1  0  0  0
  8  9  2  0  0  0
  9 10  1  0  0  0
 10 12  1  0  0  0
 12 13  2  0  0  0
 12 14  1  0  0  0
 10 11  2  0  0  0
 21 16  1  0  0  0
 11  6  1  0  0  0
 28 23  1  0  0  0
  4  5  1  0  0  0
M  CHG 1  12   1
M  CHG 1  14  -1
M  END
> <minimizedAffinity>
-7.16901

> <CNNscore>
0.3145829737

> <CNNaffinity>
6.2939729691

> <CNN_VS>
1.9799767733

> <CNNaffinity_variance>
0.1164840311

$$$$
[H]c1c([H])c([H])c(C([H])([H])N2C([H])([H])C([H])([H])C([H])(C([H])([H])C([H])([H])N([H])C(=O)c3c([H])c([H])c([H])c([N+](=O)[O-])c3[H])C([H])([H])C2([H])[H])c([H])c1[H]


 28 30  0  0  0  0  0  0  0  0999 V2000
  -20.0971   15.7798  -19.6977 C   0  0  0  0  0  0  0  0  0  0  0  0
  -18.8144   13.9327  -21.3656 O   0  0  0  0  0  0  0  0  0  0  0  0
  -18.9115   13.6436  -20.1469 C   0  0  0  0  0  0  0  0  0  0  0  0
  -19.5472   14.5305  -19.2658 N   0  0  0  0  0  0  0  0  0  0  0  0
  -19.6401   14.3041  -18.2524 H   0  0  0  0  0  0  0  0  0  0  0  0
  -18.3341   12.3674  -19.7449 C   0  0  0  0  0  0  0  0  0  0  0  0
  -17.2753   11.8270  -20.4358 C   0  0  0  0  0  0  0  0  0  0  0  0
  -16.7208   10.5997  -20.0487 C   0  0  0  0  0  0  0  0  0  0  0  0
  -17.2354    9.9235  -18.9684 C   0  0  0  0  0  0  0  0  0  0  0  0
  -18.3025   10.4367  -18.2469 C   0  0  0  0  0  0  0  0  0  0  0  0
  -18.8153   11.6564  -18.6721 C   0  0  0  0  0  0  0  0  0  0  0  0
  -18.8546    9.7650  -17.1314 N   0  0  0  0  0  0  0  0  0  0  0  0
  -19.7408   10.3186  -16.4738 O   0  0  0  0  0  0  0  0  0  0  0  0
  -18.4199    8.5249  -16.7818 O   0  0  0  0  0  0  0  0  0  0  0  0
  -19.3844   16.9155  -19.0241 C   0  0  0  0  0  0  0  0  0  0  0  0
  -18.3508   17.4299  -20.0155 C   0  0  0  0  0  0  0  0  0  0  0  0
  -18.8032   17.2152  -21.4360 C   0  0  0  0  0  0  0  0  0  0  0  0
  -17.7794   17.9286  -22.3256 C   0  0  0  0  0  0  0  0  0  0  0  0
  -16.4885   17.3739  -22.1416 N   0  0  0  0  0  0  0  0  0  0  0  0
  -16.3647   16.3809  -21.1312 C   0  0  0  0  0  0  0  0  0  0  0  0
  -17.0174   16.7472  -19.8238 C   0  0  0  0  0  0  0  0  0  0  0  0
  -15.9708   16.8651  -23.3827 C   0  0  0  0  0  0  0  0  0  0  0  0
  -16.4014   15.5086  -23.7239 C   0  0  0  0  0  0  0  0  0  0  0  0
  -17.5577   15.3937  -24.4835 C   0  0  0  0  0  0  0  0  0  0  0  0
  -18.0636   14.1737  -24.8799 C   0  0  0  0  0  0  0  0  0  0  0  0
  -17.3741   13.0522  -24.4916 C   0  0  0  0  0  0  0  0  0  0  0  0
  -16.2306   13.1571  -23.7406 C   0  0  0  0  0  0  0  0  0  0  0  0
  -15.7366   14.3725  -23.3524 C   0  0  0  0  0  0  0  0  0  0  0  0
  2  3  2  0  0  0
  3  4  1  0  0  0
  4  1  1  0  0  0
  1 15  1  0  0  0
 15 16  1  0  0  0
 16 17  1  0  0  0
 17 18  1  0  0  0
 18 19  1  0  0  0
 19 22  1  0  0  0
 22 23  1  0  0  0
 23 24  2  0  0  0
 24 25  1  0  0  0
 25 26  2  0  0  0
 26 27  1  0  0  0
 27 28  2  0  0  0
 19 20  1  0  0  0
 20 21  1  0  0  0
  3  6  1  0  0  0
  6  7  2  0  0  0
  7  8  1  0  0  0
  8  9  2  0  0  0
  9 10  1  0  0  0
 10 12  1  0  0  0
 12 13  2  0  0  0
 12 14  1  0  0  0
 10 11  2  0  0  0
 21 16  1  0  0  0
 11  6  1  0  0  0
 28 23  1  0  0  0
  4  5  1  0  0  0
M  CHG 1  12   1
M  CHG 1  14  -1
M  END
> <minimizedAffinity>
-7.78855

> <CNNscore>
0.2528109550

> <CNNaffinity>
5.9414463043

> <CNN_VS>
1.5020626783

> <CNNaffinity_variance>
0.1919605434

$$$$
[H]c1c([H])c([H])c(C([H])([H])N2C([H])([H])C([H])([H])C([H])(C([H])([H])C([H])([H])N([H])C(=O)c3c([H])c([H])c([H])c([N+](=O)[O-])c3[H])C([H])([H])C2([H])[H])c([H])c1[H]


 28 30  0  0  0  0  0  0  0  0999 V2000
  -17.5143   11.5573  -19.0885 C   0  0  0  0  0  0  0  0  0  0  0  0
  -16.3429   11.4559  -21.6295 O   0  0  0  0  0  0  0  0  0  0  0  0
  -17.1867   12.3617  -21.4158 C   0  0  0  0  0  0  0  0  0  0  0  0
  -17.8028   12.4621  -20.1600 N   0  0  0  0  0  0  0  0  0  0  0  0
  -18.5020   13.2103  -19.9646 H   0  0  0  0  0  0  0  0  0  0  0  0
  -17.4583   13.2581  -22.5322 C   0  0  0  0  0  0  0  0  0  0  0  0
  -17.9521   14.5225  -22.3135 C   0  0  0  0  0  0  0  0  0  0  0  0
  -18.2131   15.3838  -23.3876 C   0  0  0  0  0  0  0  0  0  0  0  0
  -17.9756   14.9672  -24.6757 C   0  0  0  0  0  0  0  0  0  0  0  0
  -17.4778   13.6995  -24.9359 C   0  0  0  0  0  0  0  0  0  0  0  0
  -17.2362   12.8851  -23.8359 C   0  0  0  0  0  0  0  0  0  0  0  0
  -17.2234   13.2413  -26.2496 N   0  0  0  0  0  0  0  0  0  0  0  0
  -17.4405   12.0579  -26.5267 O   0  0  0  0  0  0  0  0  0  0  0  0
  -16.7459   14.0878  -27.2006 O   0  0  0  0  0  0  0  0  0  0  0  0
  -18.6140   11.6007  -18.0687 C   0  0  0  0  0  0  0  0  0  0  0  0
  -19.1714   13.0166  -18.0897 C   0  0  0  0  0  0  0  0  0  0  0  0
  -18.4482   13.9022  -17.1091 C   0  0  0  0  0  0  0  0  0  0  0  0
  -18.9668   15.3239  -17.3504 C   0  0  0  0  0  0  0  0  0  0  0  0
  -20.3635   15.3895  -17.1202 N   0  0  0  0  0  0  0  0  0  0  0  0
  -21.0156   14.1591  -16.8315 C   0  0  0  0  0  0  0  0  0  0  0  0
  -20.6451   13.0324  -17.7604 C   0  0  0  0  0  0  0  0  0  0  0  0
  -20.6660   16.3476  -16.0918 C   0  0  0  0  0  0  0  0  0  0  0  0
  -21.4999   17.4721  -16.5187 C   0  0  0  0  0  0  0  0  0  0  0  0
  -22.7036   17.6456  -15.8492 C   0  0  0  0  0  0  0  0  0  0  0  0
  -23.5747   18.6718  -16.1483 C   0  0  0  0  0  0  0  0  0  0  0  0
  -23.2073   19.5350  -17.1503 C   0  0  0  0  0  0  0  0  0  0  0  0
  -22.0194   19.3704  -17.8170 C   0  0  0  0  0  0  0  0  0  0  0  0
  -21.1618   18.3487  -17.5126 C   0  0  0  0  0  0  0  0  0  0  0  0
  2  3  2  0  0  0
  3  4  1  0  0  0
  4  1  1  0  0  0
  1 15  1  0  0  0
 15 16  1  0  0  0
 16 17  1  0  0  0
 17 18  1  0  0  0
 18 19  1  0  0  0
 19 22  1  0  0  0
 22 23  1  0  0  0
 23 24  2  0  0  0
 24 25  1  0  0  0
 25 26  2  0  0  0
 26 27  1  0  0  0
 27 28  2  0  0  0
 19 20  1  0  0  0
 20 21  1  0  0  0
  3  6  1  0  0  0
  6  7  2  0  0  0
  7  8  1  0  0  0
  8  9  2  0  0  0
  9 10  1  0  0  0
 10 12  1  0  0  0
 12 13  2  0  0  0
 12 14  1  0  0  0
 10 11  2  0  0  0
 21 16  1  0  0  0
 11  6  1  0  0  0
 28 23  1  0  0  0
  4  5  1  0  0  0
M  CHG 1  12   1
M  CHG 1  14  -1
M  END
> <minimizedAffinity>
-6.82604

> <CNNscore>
0.2499364913

> <CNNaffinity>
5.8857831955

> <CNN_VS>
1.4710719585

> <CNNaffinity_variance>
0.2896375656

$$$$
[H]c1c([H])c([H])c(C([H])([H])N2C([H])([H])C([H])([H])C([H])(C([H])([H])C([H])([H])N([H])C(=O)c3c([H])c([H])c([H])c([N+](=O)[O-])c3[H])C([H])([H])C2([H])[H])c([H])c1[H]


 28 30  0  0  0  0  0  0  0  0999 V2000
  -16.1766   12.4582  -22.8230 C   0  0  0  0  0  0  0  0  0  0  0  0
  -16.2114   10.6975  -20.6463 O   0  0  0  0  0  0  0  0  0  0  0  0
  -17.0668   11.6174  -20.6616 C   0  0  0  0  0  0  0  0  0  0  0  0
  -17.0979   12.5265  -21.7291 N   0  0  0  0  0  0  0  0  0  0  0  0
  -17.8038   13.2930  -21.7595 H   0  0  0  0  0  0  0  0  0  0  0  0
  -17.9819   11.6579  -19.5282 C   0  0  0  0  0  0  0  0  0  0  0  0
  -18.7660   12.7635  -19.2978 C   0  0  0  0  0  0  0  0  0  0  0  0
  -19.6456   12.8016  -18.2076 C   0  0  0  0  0  0  0  0  0  0  0  0
  -19.7307   11.7264  -17.3556 C   0  0  0  0  0  0  0  0  0  0  0  0
  -18.9562   10.5938  -17.5556 C   0  0  0  0  0  0  0  0  0  0  0  0
  -18.1006   10.6071  -18.6507 C   0  0  0  0  0  0  0  0  0  0  0  0
  -19.0205    9.4719  -16.6968 N   0  0  0  0  0  0  0  0  0  0  0  0
  -18.0081    8.7860  -16.5261 O   0  0  0  0  0  0  0  0  0  0  0  0
  -20.1791    9.1468  -16.0636 O   0  0  0  0  0  0  0  0  0  0  0  0
  -16.8445   12.9141  -24.0868 C   0  0  0  0  0  0  0  0  0  0  0  0
  -16.8691   14.4350  -24.0419 C   0  0  0  0  0  0  0  0  0  0  0  0
  -16.0508   14.9601  -22.8916 C   0  0  0  0  0  0  0  0  0  0  0  0
  -16.0025   16.4828  -23.0582 C   0  0  0  0  0  0  0  0  0  0  0  0
  -17.3088   17.0299  -23.0102 N   0  0  0  0  0  0  0  0  0  0  0  0
  -18.3819   16.1000  -22.9334 C   0  0  0  0  0  0  0  0  0  0  0  0
  -18.2796   14.9586  -23.9113 C   0  0  0  0  0  0  0  0  0  0  0  0
  -17.4221   17.9852  -21.9417 C   0  0  0  0  0  0  0  0  0  0  0  0
  -17.9717   17.4557  -20.6929 C   0  0  0  0  0  0  0  0  0  0  0  0
  -19.2918   17.7760  -20.4069 C   0  0  0  0  0  0  0  0  0  0  0  0
  -19.9304   17.3318  -19.2683 C   0  0  0  0  0  0  0  0  0  0  0  0
  -19.2048   16.5464  -18.4077 C   0  0  0  0  0  0  0  0  0  0  0  0
  -17.8995   16.2254  -18.6829 C   0  0  0  0  0  0  0  0  0  0  0  0
  -17.2748   16.6712  -19.8156 C   0  0  0  0  0  0  0  0  0  0  0  0
  2  3  2  0  0  0
  3  4  1  0  0  0
  4  1  1  0  0  0
  1 15  1  0  0  0
 15 16  1  0  0  0
 16 17  1  0  0  0
 17 18  1  0  0  0
 18 19  1  0  0  0
 19 22  1  0  0  0
 22 23  1  0  0  0
 23 24  2  0  0  0
 24 25  1  0  0  0
 25 26  2  0  0  0
 26 27  1  0  0  0
 27 28  2  0  0  0
 19 20  1  0  0  0
 20 21  1  0  0  0
  3  6  1  0  0  0
  6  7  2  0  0  0
  7  8  1  0  0  0
  8  9  2  0  0  0
  9 10  1  0  0  0
 10 12  1  0  0  0
 12 13  2  0  0  0
 12 14  1  0  0  0
 10 11  2  0  0  0
 21 16  1  0  0  0
 11  6  1  0  0  0
 28 23  1  0  0  0
  4  5  1  0  0  0
M  CHG 1  12   1
M  CHG 1  14  -1
M  END
> <minimizedAffinity>
-7.26660

> <CNNscore>
0.2300747335

> <CNNaffinity>
6.1850061417

> <CNN_VS>
1.4230136871

> <CNNaffinity_variance>
0.1488943547

$$$$
[H]OC(=O)c1c([H])c([H])c(OC2([H])C([H])([H])SC2([H])[H])c([H])c1[H]


 15 16  0  0  0  0  0  0  0  0999 V2000
  -20.6737   18.6789  -19.9789 C   0  0  0  0  0  0  0  0  0  0  0  0
  -20.9445   19.7361  -19.1219 C   0  0  0  0  0  0  0  0  0  0  0  0
  -20.4340   19.7150  -17.8288 C   0  0  0  0  0  0  0  0  0  0  0  0
  -19.6629   18.6785  -17.3564 C   0  0  0  0  0  0  0  0  0  0  0  0
  -19.3989   17.6266  -18.2232 C   0  0  0  0  0  0  0  0  0  0  0  0
  -19.9007   17.6271  -19.5244 C   0  0  0  0  0  0  0  0  0  0  0  0
  -21.4304   17.6232  -21.9468 O   0  0  0  0  0  0  0  0  0  0  0  0
  -21.2122   18.7026  -21.3412 C   0  0  0  0  0  0  0  0  0  0  0  0
  -21.4795   19.9121  -21.9587 O   0  0  0  0  0  0  0  0  0  0  0  0
  -20.7871   20.2805  -22.6122 H   0  0  0  0  0  0  0  0  0  0  0  0
  -19.1722   18.6484  -16.1277 O   0  0  0  0  0  0  0  0  0  0  0  0
  -19.5402   18.5447  -14.8569 C   0  0  0  0  0  0  0  0  0  0  0  0
  -20.2417   19.7359  -14.1886 C   0  0  0  0  0  0  0  0  0  0  0  0
  -20.5332   18.5921  -12.8013 S   0  0  0  0  0  0  0  0  0  0  0  0
  -20.6906   17.7134  -14.4024 C   0  0  0  0  0  0  0  0  0  0  0  0
  7  8  2  0  0  0
  8  9  1  0  0  0
  8  1  1  0  0  0
  1  2  2  0  0  0
  2  3  1  0  0  0
  3  4  2  0  0  0
  4 11  1  0  0  0
 11 12  1  0  0  0
 12 13  1  0  0  0
 13 14  1  0  0  0
 14 15  1  0  0  0
  4  5  1  0  0  0
  5  6  2  0  0  0
  6  1  1  0  0  0
 15 12  1  0  0  0
  9 10  1  0  0  0
M  END
> <minimizedAffinity>
-2.62561

> <CNNscore>
0.6243589520

> <CNNaffinity>
3.7287285328

> <CNN_VS>
2.3280651569

> <CNNaffinity_variance>
0.4376083314

$$$$
[H]OC(=O)c1c([H])c([H])c(OC2([H])C([H])([H])SC2([H])[H])c([H])c1[H]


 15 16  0  0  0  0  0  0  0  0999 V2000
  -17.1213   11.2133  -20.1876 C   0  0  0  0  0  0  0  0  0  0  0  0
  -17.3026   10.4127  -19.0689 C   0  0  0  0  0  0  0  0  0  0  0  0
  -18.2701   10.7577  -18.1318 C   0  0  0  0  0  0  0  0  0  0  0  0
  -19.0650   11.8720  -18.2673 C   0  0  0  0  0  0  0  0  0  0  0  0
  -18.8741   12.6651  -19.3909 C   0  0  0  0  0  0  0  0  0  0  0  0
  -17.9095   12.3379  -20.3435 C   0  0  0  0  0  0  0  0  0  0  0  0
  -15.3902    9.8288  -20.9913 O   0  0  0  0  0  0  0  0  0  0  0  0
  -16.1015   10.8485  -21.1743 C   0  0  0  0  0  0  0  0  0  0  0  0
  -15.9231   11.6265  -22.3050 O   0  0  0  0  0  0  0  0  0  0  0  0
  -15.1625   12.3074  -22.3038 H   0  0  0  0  0  0  0  0  0  0  0  0
  -19.9885   12.2095  -17.3816 O   0  0  0  0  0  0  0  0  0  0  0  0
  -20.4620   11.8789  -16.1868 C   0  0  0  0  0  0  0  0  0  0  0  0
  -21.4265   12.8416  -15.4791 C   0  0  0  0  0  0  0  0  0  0  0  0
  -21.6550   11.4906  -14.2790 S   0  0  0  0  0  0  0  0  0  0  0  0
  -21.4898   10.8203  -15.9772 C   0  0  0  0  0  0  0  0  0  0  0  0
  7  8  2  0  0  0
  8  9  1  0  0  0
  8  1  1  0  0  0
  1  2  2  0  0  0
  2  3  1  0  0  0
  3  4  2  0  0  0
  4 11  1  0  0  0
 11 12  1  0  0  0
 12 13  1  0  0  0
 13 14  1  0  0  0
 14 15  1  0  0  0
  4  5  1  0  0  0
  5  6  2  0  0  0
  6  1  1  0  0  0
 15 12  1  0  0  0
  9 10  1  0  0  0
M  END
> <minimizedAffinity>
-5.19009

> <CNNscore>
0.5471062660

> <CNNaffinity>
3.9518730640

> <CNN_VS>
2.1620945930

> <CNNaffinity_variance>
0.0695126802

$$$$
[H]OC(=O)c1c([H])c([H])c(OC2([H])C([H])([H])SC2([H])[H])c([H])c1[H]


 15 16  0  0  0  0  0  0  0  0999 V2000
  -19.9099   17.8068  -21.4901 C   0  0  0  0  0  0  0  0  0  0  0  0
  -20.9926   17.4622  -20.6937 C   0  0  0  0  0  0  0  0  0  0  0  0
  -20.8248   17.3679  -19.3166 C   0  0  0  0  0  0  0  0  0  0  0  0
  -19.6171   17.6042  -18.7022 C   0  0  0  0  0  0  0  0  0  0  0  0
  -18.5413   17.9482  -19.5098 C   0  0  0  0  0  0  0  0  0  0  0  0
  -18.6870   18.0485  -20.8931 C   0  0  0  0  0  0  0  0  0  0  0  0
  -19.2264   17.4142  -23.7124 O   0  0  0  0  0  0  0  0  0  0  0  0
  -20.0881   17.9058  -22.9410 C   0  0  0  0  0  0  0  0  0  0  0  0
  -21.2040   18.5398  -23.4593 O   0  0  0  0  0  0  0  0  0  0  0  0
  -21.1057   19.5078  -23.7680 H   0  0  0  0  0  0  0  0  0  0  0  0
  -19.4464   17.5172  -17.3928 O   0  0  0  0  0  0  0  0  0  0  0  0
  -19.4786   18.2447  -16.2833 C   0  0  0  0  0  0  0  0  0  0  0  0
  -20.5862   19.2952  -16.1173 C   0  0  0  0  0  0  0  0  0  0  0  0
  -19.9748   19.4499  -14.4085 S   0  0  0  0  0  0  0  0  0  0  0  0
  -19.9025   17.7035  -14.9610 C   0  0  0  0  0  0  0  0  0  0  0  0
  7  8  2  0  0  0
  8  9  1  0  0  0
  8  1  1  0  0  0
  1  2  2  0  0  0
  2  3  1  0  0  0
  3  4  2  0  0  0
  4 11  1  0  0  0
 11 12  1  0  0  0
 12 13  1  0  0  0
 13 14  1  0  0  0
 14 15  1  0  0  0
  4  5  1  0  0  0
  5  6  2  0  0  0
  6  1  1  0  0  0
 15 12  1  0  0  0
  9 10  1  0  0  0
M  END
> <minimizedAffinity>
-2.87660

> <CNNscore>
0.5169487596

> <CNNaffinity>
3.7435450554

> <CNN_VS>
1.9352209568

> <CNNaffinity_variance>
0.3848867416

$$$$
[H]OC(=O)c1c([H])c([H])c(OC2([H])C([H])([H])SC2([H])[H])c([H])c1[H]


 15 16  0  0  0  0  0  0  0  0999 V2000
  -16.9999   12.2332  -21.5677 C   0  0  0  0  0  0  0  0  0  0  0  0
  -17.6816   13.4417  -21.5656 C   0  0  0  0  0  0  0  0  0  0  0  0
  -17.3658   14.4056  -22.5166 C   0  0  0  0  0  0  0  0  0  0  0  0
  -16.3947   14.2106  -23.4711 C   0  0  0  0  0  0  0  0  0  0  0  0
  -15.7196   12.9974  -23.4629 C   0  0  0  0  0  0  0  0  0  0  0  0
  -16.0202   12.0164  -22.5183 C   0  0  0  0  0  0  0  0  0  0  0  0
  -18.0420   11.5272  -19.5739 O   0  0  0  0  0  0  0  0  0  0  0  0
  -17.3338   11.2184  -20.5650 C   0  0  0  0  0  0  0  0  0  0  0  0
  -16.8693    9.9227  -20.7106 O   0  0  0  0  0  0  0  0  0  0  0  0
  -16.0376    9.6494  -20.1855 H   0  0  0  0  0  0  0  0  0  0  0  0
  -16.0863   15.1211  -24.3806 O   0  0  0  0  0  0  0  0  0  0  0  0
  -16.1632   15.3668  -25.6824 C   0  0  0  0  0  0  0  0  0  0  0  0
  -14.8653   15.4570  -26.4980 C   0  0  0  0  0  0  0  0  0  0  0  0
  -15.9605   15.4992  -27.9529 S   0  0  0  0  0  0  0  0  0  0  0  0
  -16.6272   14.3612  -26.6797 C   0  0  0  0  0  0  0  0  0  0  0  0
  7  8  2  0  0  0
  8  9  1  0  0  0
  8  1  1  0  0  0
  1  2  2  0  0  0
  2  3  1  0  0  0
  3  4  2  0  0  0
  4 11  1  0  0  0
 11 12  1  0  0  0
 12 13  1  0  0  0
 13 14  1  0  0  0
 14 15  1  0  0  0
  4  5  1  0  0  0
  5  6  2  0  0  0
  6  1  1  0  0  0
 15 12  1  0  0  0
  9 10  1  0  0  0
M  END
> <minimizedAffinity>
-5.38776

> <CNNscore>
0.4415225685

> <CNNaffinity>
4.3506498337

> <CNN_VS>
1.9209101200

> <CNNaffinity_variance>
0.2297438085

$$$$
[H]OC(=O)c1c([H])c([H])c(OC2([H])C([H])([H])SC2([H])[H])c([H])c1[H]


 15 16  0  0  0  0  0  0  0  0999 V2000
  -17.7508   10.6617  -19.0515 C   0  0  0  0  0  0  0  0  0  0  0  0
  -18.2839   11.8220  -19.5946 C   0  0  0  0  0  0  0  0  0  0  0  0
  -17.7573   12.3265  -20.7784 C   0  0  0  0  0  0  0  0  0  0  0  0
  -16.7179   11.7178  -21.4425 C   0  0  0  0  0  0  0  0  0  0  0  0
  -16.1930   10.5576  -20.8892 C   0  0  0  0  0  0  0  0  0  0  0  0
  -16.7058   10.0339  -19.7027 C   0  0  0  0  0  0  0  0  0  0  0  0
  -19.3488   10.6381  -17.3179 O   0  0  0  0  0  0  0  0  0  0  0  0
  -18.3067   10.1312  -17.8041 C   0  0  0  0  0  0  0  0  0  0  0  0
  -17.6842    9.0738  -17.1636 O   0  0  0  0  0  0  0  0  0  0  0  0
  -17.0680    9.2847  -16.3775 H   0  0  0  0  0  0  0  0  0  0  0  0
  -16.2093   12.1894  -22.5695 O   0  0  0  0  0  0  0  0  0  0  0  0
  -16.2849   13.2222  -23.3995 C   0  0  0  0  0  0  0  0  0  0  0  0
  -14.9903   13.7816  -24.0070 C   0  0  0  0  0  0  0  0  0  0  0  0
  -16.0932   14.7881  -25.0503 S   0  0  0  0  0  0  0  0  0  0  0  0
  -16.8004   13.1163  -24.7939 C   0  0  0  0  0  0  0  0  0  0  0  0
  7  8  2  0  0  0
  8  9  1  0  0  0
  8  1  1  0  0  0
  1  2  2  0  0  0
  2  3  1  0  0  0
  3  4  2  0  0  0
  4 11  1  0  0  0
 11 12  1  0  0  0
 12 13  1  0  0  0
 13 14  1  0  0  0
 14 15  1  0  0  0
  4  5  1  0  0  0
  5  6  2  0  0  0
  6  1  1  0  0  0
 15 12  1  0  0  0
  9 10  1  0  0  0
M  END
> <minimizedAffinity>
-5.91955

> <CNNscore>
0.3966495395

> <CNNaffinity>
4.0439901352

> <CNN_VS>
1.6040468216

> <CNNaffinity_variance>
0.2274241894

$$$$
[H]OC(=O)c1c([H])c([H])c(OC2([H])C([H])([H])SC2([H])[H])c([H])c1[H]


 15 16  0  0  0  0  0  0  0  0999 V2000
  -18.2838   18.0316  -22.1871 C   0  0  0  0  0  0  0  0  0  0  0  0
  -19.5357   17.6032  -21.7691 C   0  0  0  0  0  0  0  0  0  0  0  0
  -19.7001   17.1409  -20.4681 C   0  0  0  0  0  0  0  0  0  0  0  0
  -18.6626   17.0892  -19.5664 C   0  0  0  0  0  0  0  0  0  0  0  0
  -17.4149   17.5205  -19.9965 C   0  0  0  0  0  0  0  0  0  0  0  0
  -17.2274   17.9881  -21.2970 C   0  0  0  0  0  0  0  0  0  0  0  0
  -17.4414   17.8465  -24.3815 O   0  0  0  0  0  0  0  0  0  0  0  0
  -18.1122   18.5184  -23.5582 C   0  0  0  0  0  0  0  0  0  0  0  0
  -18.6882   19.7162  -23.9444 O   0  0  0  0  0  0  0  0  0  0  0  0
  -18.0988   20.5496  -23.9584 H   0  0  0  0  0  0  0  0  0  0  0  0
  -18.8080   16.6511  -18.3262 O   0  0  0  0  0  0  0  0  0  0  0  0
  -19.0008   17.0746  -17.0833 C   0  0  0  0  0  0  0  0  0  0  0  0
  -19.4856   18.5139  -16.8572 C   0  0  0  0  0  0  0  0  0  0  0  0
  -19.6846   18.0130  -15.1172 S   0  0  0  0  0  0  0  0  0  0  0  0
  -20.1487   16.6390  -16.2384 C   0  0  0  0  0  0  0  0  0  0  0  0
  7  8  2  0  0  0
  8  9  1  0  0  0
  8  1  1  0  0  0
  1  2  2  0  0  0
  2  3  1  0  0  0
  3  4  2  0  0  0
  4 11  1  0  0  0
 11 12  1  0  0  0
 12 13  1  0  0  0
 13 14  1  0  0  0
 14 15  1  0  0  0
  4  5  1  0  0  0
  5  6  2  0  0  0
  6  1  1  0  0  0
 15 12  1  0  0  0
  9 10  1  0  0  0
M  END
> <minimizedAffinity>
-3.87512

> <CNNscore>
0.3871133327

> <CNNaffinity>
3.8096795082

> <CNN_VS>
1.4747776985

> <CNNaffinity_variance>
0.4179165959

$$$$
[H]OC(=O)c1c([H])c([H])c(OC2([H])C([H])([H])SC2([H])[H])c([H])c1[H]


 15 16  0  0  0  0  0  0  0  0999 V2000
  -18.3161   10.2358  -18.0417 C   0  0  0  0  0  0  0  0  0  0  0  0
  -17.3336    9.8487  -18.9419 C   0  0  0  0  0  0  0  0  0  0  0  0
  -16.9838   10.7043  -19.9806 C   0  0  0  0  0  0  0  0  0  0  0  0
  -17.5770   11.9327  -20.1567 C   0  0  0  0  0  0  0  0  0  0  0  0
  -18.5586   12.3087  -19.2496 C   0  0  0  0  0  0  0  0  0  0  0  0
  -18.9251   11.4663  -18.2003 C   0  0  0  0  0  0  0  0  0  0  0  0
  -19.8132    9.4340  -16.4059 O   0  0  0  0  0  0  0  0  0  0  0  0
  -18.6837    9.3333  -16.9476 C   0  0  0  0  0  0  0  0  0  0  0  0
  -17.7875    8.3723  -16.5127 O   0  0  0  0  0  0  0  0  0  0  0  0
  -17.2342    8.5746  -15.6791 H   0  0  0  0  0  0  0  0  0  0  0  0
  -17.2517   12.7545  -21.1417 O   0  0  0  0  0  0  0  0  0  0  0  0
  -17.2539   12.8534  -22.4651 C   0  0  0  0  0  0  0  0  0  0  0  0
  -17.6127   14.2012  -23.1073 C   0  0  0  0  0  0  0  0  0  0  0  0
  -17.0844   13.4264  -24.6689 S   0  0  0  0  0  0  0  0  0  0  0  0
  -16.0105   12.8825  -23.2863 C   0  0  0  0  0  0  0  0  0  0  0  0
  7  8  2  0  0  0
  8  9  1  0  0  0
  8  1  1  0  0  0
  1  2  2  0  0  0
  2  3  1  0  0  0
  3  4  2  0  0  0
  4 11  1  0  0  0
 11 12  1  0  0  0
 12 13  1  0  0  0
 13 14  1  0  0  0
 14 15  1  0  0  0
  4  5  1  0  0  0
  5  6  2  0  0  0
  6  1  1  0  0  0
 15 12  1  0  0  0
  9 10  1  0  0  0
M  END
> <minimizedAffinity>
-5.98081

> <CNNscore>
0.3659902811

> <CNNaffinity>
4.0164136887

> <CNN_VS>
1.4699683189

> <CNNaffinity_variance>
0.1521021277

$$$$
[H]OC(=O)c1c([H])c([H])c(OC2([H])C([H])([H])SC2([H])[H])c([H])c1[H]


 15 16  0  0  0  0  0  0  0  0999 V2000
  -17.3797   11.4636  -20.2404 C   0  0  0  0  0  0  0  0  0  0  0  0
  -17.8075   11.1868  -18.9498 C   0  0  0  0  0  0  0  0  0  0  0  0
  -18.8813   11.8937  -18.4200 C   0  0  0  0  0  0  0  0  0  0  0  0
  -19.5457   12.8676  -19.1285 C   0  0  0  0  0  0  0  0  0  0  0  0
  -19.1083   13.1354  -20.4188 C   0  0  0  0  0  0  0  0  0  0  0  0
  -18.0334   12.4385  -20.9701 C   0  0  0  0  0  0  0  0  0  0  0  0
  -15.8405    9.6774  -20.2225 O   0  0  0  0  0  0  0  0  0  0  0  0
  -16.2482   10.7179  -20.7974 C   0  0  0  0  0  0  0  0  0  0  0  0
  -15.6305   11.1599  -21.9546 O   0  0  0  0  0  0  0  0  0  0  0  0
  -14.7668   11.6962  -21.8626 H   0  0  0  0  0  0  0  0  0  0  0  0
  -20.5685   13.5462  -18.6340 O   0  0  0  0  0  0  0  0  0  0  0  0
  -20.8619   14.5338  -17.7975 C   0  0  0  0  0  0  0  0  0  0  0  0
  -21.3133   14.1880  -16.3712 C   0  0  0  0  0  0  0  0  0  0  0  0
  -21.1694   15.9759  -16.0541 S   0  0  0  0  0  0  0  0  0  0  0  0
  -19.8321   15.4124  -17.1741 C   0  0  0  0  0  0  0  0  0  0  0  0
  7  8  2  0  0  0
  8  9  1  0  0  0
  8  1  1  0  0  0
  1  2  2  0  0  0
  2  3  1  0  0  0
  3  4  2  0  0  0
  4 11  1  0  0  0
 11 12  1  0  0  0
 12 13  1  0  0  0
 13 14  1  0  0  0
 14 15  1  0  0  0
  4  5  1  0  0  0
  5  6  2  0  0  0
  6  1  1  0  0  0
 15 12  1  0  0  0
  9 10  1  0  0  0
M  END
> <minimizedAffinity>
-4.97355

> <CNNscore>
0.3509941697

> <CNNaffinity>
3.7546706200

> <CNN_VS>
1.3178675175

> <CNNaffinity_variance>
0.0955397412

$$$$
[H]OC(=O)c1c([H])c([H])c(OC2([H])C([H])([H])SC2([H])[H])c([H])c1[H]


 15 16  0  0  0  0  0  0  0  0999 V2000
  -17.6880   16.9220  -23.0015 C   0  0  0  0  0  0  0  0  0  0  0  0
  -16.4931   16.3259  -22.6242 C   0  0  0  0  0  0  0  0  0  0  0  0
  -16.5140   15.2578  -21.7342 C   0  0  0  0  0  0  0  0  0  0  0  0
  -17.6822   14.7604  -21.2051 C   0  0  0  0  0  0  0  0  0  0  0  0
  -18.8711   15.3652  -21.5902 C   0  0  0  0  0  0  0  0  0  0  0  0
  -18.8736   16.4378  -22.4816 C   0  0  0  0  0  0  0  0  0  0  0  0
  -18.4837   18.9909  -23.8052 O   0  0  0  0  0  0  0  0  0  0  0  0
  -17.6646   18.0473  -23.9393 C   0  0  0  0  0  0  0  0  0  0  0  0
  -16.7414   18.0697  -24.9704 O   0  0  0  0  0  0  0  0  0  0  0  0
  -17.0496   17.7716  -25.8968 H   0  0  0  0  0  0  0  0  0  0  0  0
  -17.7133   13.7446  -20.3575 O   0  0  0  0  0  0  0  0  0  0  0  0
  -17.2401   12.5178  -20.1775 C   0  0  0  0  0  0  0  0  0  0  0  0
  -17.9419   11.5924  -19.1732 C   0  0  0  0  0  0  0  0  0  0  0  0
  -16.8547   10.2925  -19.8411 S   0  0  0  0  0  0  0  0  0  0  0  0
  -17.3992   11.4238  -21.1769 C   0  0  0  0  0  0  0  0  0  0  0  0
  7  8  2  0  0  0
  8  9  1  0  0  0
  8  1  1  0  0  0
  1  2  2  0  0  0
  2  3  1  0  0  0
  3  4  2  0  0  0
  4 11  1  0  0  0
 11 12  1  0  0  0
 12 13  1  0  0  0
 13 14  1  0  0  0
 14 15  1  0  0  0
  4  5  1  0  0  0
  5  6  2  0  0  0
  6  1  1  0  0  0
 15 12  1  0  0  0
  9 10  1  0  0  0
M  END
> <minimizedAffinity>
-5.16223

> <CNNscore>
0.3476991355

> <CNNaffinity>
4.2017545700

> <CNN_VS>
1.4609464407

> <CNNaffinity_variance>
0.1908008158

$$$$
[H]C([H])=C([H])C(=O)N([H])C([H])([H])C([H])([H])C([H])([H])C([H])([H])[C@@]([H])(C(=O)N1C([H])([H])C([H])([H])N(c2c([H])c([H])c([H])c(C([H])([H])[H])c2[H])C([H])([H])C1([H])[H])N([H])C(=O)C([H])([H])c1c([H])c([H])c([H])c([H])c1[H]


 37 39  0  0  0  0  0  0  0  0999 V2000
  -18.1906   11.5540  -18.3644 C   0  0  0  0  0  0  0  0  0  0  0  0
  -17.5662   11.0886  -19.6128 C   0  0  0  0  0  0  0  0  0  0  0  0
  -17.3497    9.8314  -19.7376 O   0  0  0  0  0  0  0  0  0  0  0  0
  -17.1991   11.9423  -20.6716 N   0  0  0  0  0  0  0  0  0  0  0  0
  -17.4262   13.3574  -20.6310 C   0  0  0  0  0  0  0  0  0  0  0  0
  -17.7565   13.8356  -22.0411 C   0  0  0  0  0  0  0  0  0  0  0  0
  -16.5951   13.5588  -22.8650 N   0  0  0  0  0  0  0  0  0  0  0  0
  -15.6997   12.5119  -22.4744 C   0  0  0  0  0  0  0  0  0  0  0  0
  -16.5675   11.4062  -21.8734 C   0  0  0  0  0  0  0  0  0  0  0  0
  -16.3551   14.3086  -24.0453 C   0  0  0  0  0  0  0  0  0  0  0  0
  -15.7531   15.5569  -23.9148 C   0  0  0  0  0  0  0  0  0  0  0  0
  -15.5052   16.2996  -25.0409 C   0  0  0  0  0  0  0  0  0  0  0  0
  -15.8326   15.8493  -26.2915 C   0  0  0  0  0  0  0  0  0  0  0  0
  -16.4279   14.6205  -26.4481 C   0  0  0  0  0  0  0  0  0  0  0  0
  -16.7963   14.1033  -27.7759 C   0  0  0  0  0  0  0  0  0  0  0  0
  -16.6760   13.8740  -25.3087 C   0  0  0  0  0  0  0  0  0  0  0  0
  -18.9687   12.7896  -18.6271 N   0  0  0  0  0  0  0  0  0  0  0  0
  -19.0940   13.7812  -17.6375 C   0  0  0  0  0  0  0  0  0  0  0  0
  -18.5380   13.6083  -16.5250 O   0  0  0  0  0  0  0  0  0  0  0  0
  -19.4010   12.8843  -19.5439 H   0  0  0  0  0  0  0  0  0  0  0  0
  -19.8673   14.9949  -17.9202 C   0  0  0  0  0  0  0  0  0  0  0  0
  -19.2696   15.8519  -18.9455 C   0  0  0  0  0  0  0  0  0  0  0  0
  -20.0247   16.1209  -20.0768 C   0  0  0  0  0  0  0  0  0  0  0  0
  -19.5411   16.9178  -21.0970 C   0  0  0  0  0  0  0  0  0  0  0  0
  -18.2901   17.4735  -21.0255 C   0  0  0  0  0  0  0  0  0  0  0  0
  -17.5277   17.2174  -19.9109 C   0  0  0  0  0  0  0  0  0  0  0  0
  -18.0174   16.4145  -18.8851 C   0  0  0  0  0  0  0  0  0  0  0  0
  -19.2455   10.5864  -17.8430 C   0  0  0  0  0  0  0  0  0  0  0  0
  -18.9543   10.0449  -16.4830 C   0  0  0  0  0  0  0  0  0  0  0  0
  -20.1596   10.0396  -15.5551 C   0  0  0  0  0  0  0  0  0  0  0  0
  -19.9811   10.9795  -14.4136 C   0  0  0  0  0  0  0  0  0  0  0  0
  -21.8567   12.5407  -13.9422 C   0  0  0  0  0  0  0  0  0  0  0  0
  -22.3401   11.7288  -13.0720 O   0  0  0  0  0  0  0  0  0  0  0  0
  -20.6763   12.2262  -14.6438 N   0  0  0  0  0  0  0  0  0  0  0  0
  -20.2703   12.8967  -15.3576 H   0  0  0  0  0  0  0  0  0  0  0  0
  -22.3260   14.5525  -15.2001 C   0  0  0  0  0  0  0  0  0  0  0  0
  -22.5614   13.7715  -14.1700 C   0  0  0  0  0  0  0  0  0  0  0  0
 36 37  2  0  0  0
 37 32  1  0  0  0
 32 33  2  0  0  0
 32 34  1  0  0  0
 34 31  1  0  0  0
 31 30  1  0  0  0
 30 29  1  0  0  0
 29 28  1  0  0  0
 28  1  1  0  0  0
  1 17  1  0  0  0
 17 18  1  0  0  0
 18 19  2  0  0  0
 18 21  1  0  0  0
 21 22  1  0  0  0
 22 23  2  0  0  0
 23 24  1  0  0  0
 24 25  2  0  0  0
 25 26  1  0  0  0
 26 27  2  0  0  0
  1  2  1  0  0  0
  2  3  2  0  0  0
  2  4  1  0  0  0
  4  5  1  0  0  0
  5  6  1  0  0  0
  6  7  1  0  0  0
  7 10  1  0  0  0
 10 11  2  0  0  0
 11 12  1  0  0  0
 12 13  2  0  0  0
 13 14  1  0  0  0
 14 15  1  0  0  0
 14 16  2  0  0  0
  7  8  1  0  0  0
  8  9  1  0  0  0
 27 22  1  0  0  0
  9  4  1  0  0  0
 16 10  1  0  0  0
 34 35  1  0  0  0
 17 20  1  0  0  0
M  END
> <minimizedAffinity>
-6.91270

> <CNNscore>
0.3740618229

> <CNNaffinity>
7.0989379883

> <CNN_VS>
2.6554417610

> <CNNaffinity_variance>
0.4223335683

$$$$
[H]C([H])=C([H])C(=O)N([H])C([H])([H])C([H])([H])C([H])([H])C([H])([H])[C@@]([H])(C(=O)N1C([H])([H])C([H])([H])N(c2c([H])c([H])c([H])c(C([H])([H])[H])c2[H])C([H])([H])C1([H])[H])N([H])C(=O)C([H])([H])c1c([H])c([H])c([H])c([H])c1[H]


 37 39  0  0  0  0  0  0  0  0999 V2000
  -17.9232   11.0851  -18.3846 C   0  0  0  0  0  0  0  0  0  0  0  0
  -17.5618   11.1143  -19.8105 C   0  0  0  0  0  0  0  0  0  0  0  0
  -17.4062    9.9913  -20.4085 O   0  0  0  0  0  0  0  0  0  0  0  0
  -17.3816   12.3001  -20.5497 N   0  0  0  0  0  0  0  0  0  0  0  0
  -17.5596   13.5999  -19.9713 C   0  0  0  0  0  0  0  0  0  0  0  0
  -18.1409   14.5272  -21.0335 C   0  0  0  0  0  0  0  0  0  0  0  0
  -17.1662   14.6073  -22.1049 N   0  0  0  0  0  0  0  0  0  0  0  0
  -16.2405   13.5298  -22.2841 C   0  0  0  0  0  0  0  0  0  0  0  0
  -17.0060   12.2471  -21.9591 C   0  0  0  0  0  0  0  0  0  0  0  0
  -17.1369   15.7329  -22.9681 C   0  0  0  0  0  0  0  0  0  0  0  0
  -16.2975   15.6834  -24.0775 C   0  0  0  0  0  0  0  0  0  0  0  0
  -16.2546   16.7564  -24.9308 C   0  0  0  0  0  0  0  0  0  0  0  0
  -17.0139   17.8764  -24.7238 C   0  0  0  0  0  0  0  0  0  0  0  0
  -17.8509   17.9510  -23.6362 C   0  0  0  0  0  0  0  0  0  0  0  0
  -18.6809   19.1390  -23.3792 C   0  0  0  0  0  0  0  0  0  0  0  0
  -17.8912   16.8655  -22.7777 C   0  0  0  0  0  0  0  0  0  0  0  0
  -19.2948   11.6222  -18.2073 N   0  0  0  0  0  0  0  0  0  0  0  0
  -19.5295   12.7240  -17.3651 C   0  0  0  0  0  0  0  0  0  0  0  0
  -18.5613   13.2499  -16.7626 O   0  0  0  0  0  0  0  0  0  0  0  0
  -20.0469   11.1624  -18.7166 H   0  0  0  0  0  0  0  0  0  0  0  0
  -20.8936   13.2384  -17.2060 C   0  0  0  0  0  0  0  0  0  0  0  0
  -21.1357   14.5001  -17.9076 C   0  0  0  0  0  0  0  0  0  0  0  0
  -21.2702   14.4518  -19.2868 C   0  0  0  0  0  0  0  0  0  0  0  0
  -21.4982   15.5929  -20.0321 C   0  0  0  0  0  0  0  0  0  0  0  0
  -21.6002   16.8201  -19.4299 C   0  0  0  0  0  0  0  0  0  0  0  0
  -21.4697   16.8866  -18.0633 C   0  0  0  0  0  0  0  0  0  0  0  0
  -21.2400   15.7357  -17.3154 C   0  0  0  0  0  0  0  0  0  0  0  0
  -18.0351    9.6669  -17.8394 C   0  0  0  0  0  0  0  0  0  0  0  0
  -19.1644    9.4707  -16.8834 C   0  0  0  0  0  0  0  0  0  0  0  0
  -18.8845    8.4293  -15.8107 C   0  0  0  0  0  0  0  0  0  0  0  0
  -19.2557    8.9206  -14.4546 C   0  0  0  0  0  0  0  0  0  0  0  0
  -18.6600    8.4922  -12.0799 C   0  0  0  0  0  0  0  0  0  0  0  0
  -19.0779    9.6595  -11.7438 O   0  0  0  0  0  0  0  0  0  0  0  0
  -18.7264    8.0611  -13.4194 N   0  0  0  0  0  0  0  0  0  0  0  0
  -18.3892    7.0959  -13.6997 H   0  0  0  0  0  0  0  0  0  0  0  0
  -18.6912    7.5196   -9.8656 C   0  0  0  0  0  0  0  0  0  0  0  0
  -18.1267    7.6509  -11.0449 C   0  0  0  0  0  0  0  0  0  0  0  0
 36 37  2  0  0  0
 37 32  1  0  0  0
 32 33  2  0  0  0
 32 34  1  0  0  0
 34 31  1  0  0  0
 31 30  1  0  0  0
 30 29  1  0  0  0
 29 28  1  0  0  0
 28  1  1  0  0  0
  1 17  1  0  0  0
 17 18  1  0  0  0
 18 19  2  0  0  0
 18 21  1  0  0  0
 21 22  1  0  0  0
 22 23  2  0  0  0
 23 24  1  0  0  0
 24 25  2  0  0  0
 25 26  1  0  0  0
 26 27  2  0  0  0
  1  2  1  0  0  0
  2  3  2  0  0  0
  2  4  1  0  0  0
  4  5  1  0  0  0
  5  6  1  0  0  0
  6  7  1  0  0  0
  7 10  1  0  0  0
 10 11  2  0  0  0
 11 12  1  0  0  0
 12 13  2  0  0  0
 13 14  1  0  0  0
 14 15  1  0  0  0
 14 16  2  0  0  0
  7  8  1  0  0  0
  8  9  1  0  0  0
 27 22  1  0  0  0
  9  4  1  0  0  0
 16 10  1  0  0  0
 34 35  1  0  0  0
 17 20  1  0  0  0
M  END
> <minimizedAffinity>
-6.96018

> <CNNscore>
0.3615057766

> <CNNaffinity>
6.5958719254

> <CNN_VS>
2.3844459057

> <CNNaffinity_variance>
0.0706376880

$$$$
[H]C([H])=C([H])C(=O)N([H])C([H])([H])C([H])([H])C([H])([H])C([H])([H])[C@@]([H])(C(=O)N1C([H])([H])C([H])([H])N(c2c([H])c([H])c([H])c(C([H])([H])[H])c2[H])C([H])([H])C1([H])[H])N([H])C(=O)C([H])([H])c1c([H])c([H])c([H])c([H])c1[H]


 37 39  0  0  0  0  0  0  0  0999 V2000
  -18.0477   16.6213  -18.7636 C   0  0  0  0  0  0  0  0  0  0  0  0
  -19.1811   17.5436  -18.5919 C   0  0  0  0  0  0  0  0  0  0  0  0
  -19.8268   17.8955  -19.6418 O   0  0  0  0  0  0  0  0  0  0  0  0
  -19.5942   18.0549  -17.3459 N   0  0  0  0  0  0  0  0  0  0  0  0
  -18.9485   17.6968  -16.1168 C   0  0  0  0  0  0  0  0  0  0  0  0
  -20.0014   17.6416  -15.0148 C   0  0  0  0  0  0  0  0  0  0  0  0
  -20.5584   18.9756  -14.8941 N   0  0  0  0  0  0  0  0  0  0  0  0
  -20.5068   19.8548  -16.0230 C   0  0  0  0  0  0  0  0  0  0  0  0
  -20.7194   18.9805  -17.2587 C   0  0  0  0  0  0  0  0  0  0  0  0
  -21.1537   19.3993  -13.6780 C   0  0  0  0  0  0  0  0  0  0  0  0
  -21.2696   20.7676  -13.4496 C   0  0  0  0  0  0  0  0  0  0  0  0
  -21.8463   21.2036  -12.2840 C   0  0  0  0  0  0  0  0  0  0  0  0
  -22.3122   20.3319  -11.3369 C   0  0  0  0  0  0  0  0  0  0  0  0
  -22.2099   18.9761  -11.5376 C   0  0  0  0  0  0  0  0  0  0  0  0
  -22.6973   18.0081  -10.5417 C   0  0  0  0  0  0  0  0  0  0  0  0
  -21.6274   18.5405  -12.7157 C   0  0  0  0  0  0  0  0  0  0  0  0
  -18.5524   15.2733  -19.1235 N   0  0  0  0  0  0  0  0  0  0  0  0
  -18.5202   14.2230  -18.1886 C   0  0  0  0  0  0  0  0  0  0  0  0
  -18.0574   14.4398  -17.0415 O   0  0  0  0  0  0  0  0  0  0  0  0
  -18.9180   15.1466  -20.0652 H   0  0  0  0  0  0  0  0  0  0  0  0
  -19.0256   12.8992  -18.5665 C   0  0  0  0  0  0  0  0  0  0  0  0
  -18.1122   12.1391  -19.4214 C   0  0  0  0  0  0  0  0  0  0  0  0
  -17.2961   11.1985  -18.8116 C   0  0  0  0  0  0  0  0  0  0  0  0
  -16.4016   10.4364  -19.5388 C   0  0  0  0  0  0  0  0  0  0  0  0
  -16.2894   10.5848  -20.8969 C   0  0  0  0  0  0  0  0  0  0  0  0
  -17.0910   11.5127  -21.5179 C   0  0  0  0  0  0  0  0  0  0  0  0
  -17.9908   12.2787  -20.7830 C   0  0  0  0  0  0  0  0  0  0  0  0
  -17.1699   16.9896  -19.9531 C   0  0  0  0  0  0  0  0  0  0  0  0
  -17.0935   15.9314  -21.0028 C   0  0  0  0  0  0  0  0  0  0  0  0
  -16.2859   16.3392  -22.2256 C   0  0  0  0  0  0  0  0  0  0  0  0
  -17.1370   16.4276  -23.4445 C   0  0  0  0  0  0  0  0  0  0  0  0
  -16.8484   14.9326  -25.4089 C   0  0  0  0  0  0  0  0  0  0  0  0
  -16.3105   15.8862  -26.0807 O   0  0  0  0  0  0  0  0  0  0  0  0
  -17.2784   15.1383  -24.0833 N   0  0  0  0  0  0  0  0  0  0  0  0
  -17.7163   14.3520  -23.5231 H   0  0  0  0  0  0  0  0  0  0  0  0
  -17.7425   12.6916  -25.5783 C   0  0  0  0  0  0  0  0  0  0  0  0
  -16.9932   13.6589  -26.0572 C   0  0  0  0  0  0  0  0  0  0  0  0
 36 37  2  0  0  0
 37 32  1  0  0  0
 32 33  2  0  0  0
 32 34  1  0  0  0
 34 31  1  0  0  0
 31 30  1  0  0  0
 30 29  1  0  0  0
 29 28  1  0  0  0
 28  1  1  0  0  0
  1 17  1  0  0  0
 17 18  1  0  0  0
 18 19  2  0  0  0
 18 21  1  0  0  0
 21 22  1  0  0  0
 22 23  2  0  0  0
 23 24  1  0  0  0
 24 25  2  0  0  0
 25 26  1  0  0  0
 26 27  2  0  0  0
  1  2  1  0  0  0
  2  3  2  0  0  0
  2  4  1  0  0  0
  4  5  1  0  0  0
  5  6  1  0  0  0
  6  7  1  0  0  0
  7 10  1  0  0  0
 10 11  2  0  0  0
 11 12  1  0  0  0
 12 13  2  0  0  0
 13 14  1  0  0  0
 14 15  1  0  0  0
 14 16  2  0  0  0
  7  8  1  0  0  0
  8  9  1  0  0  0
 27 22  1  0  0  0
  9  4  1  0  0  0
 16 10  1  0  0  0
 34 35  1  0  0  0
 17 20  1  0  0  0
M  END
> <minimizedAffinity>
-7.67012

> <CNNscore>
0.3441645801

> <CNNaffinity>
6.1122126579

> <CNN_VS>
2.1036071777

> <CNNaffinity_variance>
0.3793836236

$$$$
[H]C([H])=C([H])C(=O)N([H])C([H])([H])C([H])([H])C([H])([H])C([H])([H])[C@@]([H])(C(=O)N1C([H])([H])C([H])([H])N(c2c([H])c([H])c([H])c(C([H])([H])[H])c2[H])C([H])([H])C1([H])[H])N([H])C(=O)C([H])([H])c1c([H])c([H])c([H])c([H])c1[H]


 37 39  0  0  0  0  0  0  0  0999 V2000
  -18.2753   17.9155  -21.9981 C   0  0  0  0  0  0  0  0  0  0  0  0
  -19.3486   17.0240  -21.5310 C   0  0  0  0  0  0  0  0  0  0  0  0
  -20.5556   17.3414  -21.8231 O   0  0  0  0  0  0  0  0  0  0  0  0
  -19.1237   15.8480  -20.7886 N   0  0  0  0  0  0  0  0  0  0  0  0
  -17.8072   15.4011  -20.4382 C   0  0  0  0  0  0  0  0  0  0  0  0
  -17.7913   13.8763  -20.4609 C   0  0  0  0  0  0  0  0  0  0  0  0
  -18.7347   13.4279  -19.4544 N   0  0  0  0  0  0  0  0  0  0  0  0
  -19.8094   14.2943  -19.0744 C   0  0  0  0  0  0  0  0  0  0  0  0
  -20.2437   15.0233  -20.3459 C   0  0  0  0  0  0  0  0  0  0  0  0
  -18.5994   12.1459  -18.8619 C   0  0  0  0  0  0  0  0  0  0  0  0
  -17.5820   11.3164  -19.3252 C   0  0  0  0  0  0  0  0  0  0  0  0
  -17.4263   10.0740  -18.7654 C   0  0  0  0  0  0  0  0  0  0  0  0
  -18.2430    9.6244  -17.7629 C   0  0  0  0  0  0  0  0  0  0  0  0
  -19.2551   10.4234  -17.2873 C   0  0  0  0  0  0  0  0  0  0  0  0
  -20.1545    9.9743  -16.2123 C   0  0  0  0  0  0  0  0  0  0  0  0
  -19.4083   11.6769  -17.8551 C   0  0  0  0  0  0  0  0  0  0  0  0
  -17.8907   17.5488  -23.3833 N   0  0  0  0  0  0  0  0  0  0  0  0
  -16.5890   17.0998  -23.6703 C   0  0  0  0  0  0  0  0  0  0  0  0
  -15.7529   17.0126  -22.7375 O   0  0  0  0  0  0  0  0  0  0  0  0
  -18.6030   17.6361  -24.1054 H   0  0  0  0  0  0  0  0  0  0  0  0
  -16.2319   16.7420  -25.0470 C   0  0  0  0  0  0  0  0  0  0  0  0
  -16.6378   15.3889  -25.4309 C   0  0  0  0  0  0  0  0  0  0  0  0
  -17.1383   14.5628  -24.4361 C   0  0  0  0  0  0  0  0  0  0  0  0
  -17.5438   13.2694  -24.7056 C   0  0  0  0  0  0  0  0  0  0  0  0
  -17.4651   12.7552  -25.9738 C   0  0  0  0  0  0  0  0  0  0  0  0
  -16.9714   13.5604  -26.9724 C   0  0  0  0  0  0  0  0  0  0  0  0
  -16.5637   14.8624  -26.6980 C   0  0  0  0  0  0  0  0  0  0  0  0
  -18.7364   19.3606  -22.1393 C   0  0  0  0  0  0  0  0  0  0  0  0
  -19.0447   19.7657  -23.5423 C   0  0  0  0  0  0  0  0  0  0  0  0
  -20.1866   20.7644  -23.6544 C   0  0  0  0  0  0  0  0  0  0  0  0
  -21.4916   20.1548  -23.2757 C   0  0  0  0  0  0  0  0  0  0  0  0
  -23.0861   18.4123  -24.0494 C   0  0  0  0  0  0  0  0  0  0  0  0
  -23.9233   18.7432  -23.1330 O   0  0  0  0  0  0  0  0  0  0  0  0
  -21.8541   19.0835  -24.1764 N   0  0  0  0  0  0  0  0  0  0  0  0
  -21.1635   18.8182  -24.9358 H   0  0  0  0  0  0  0  0  0  0  0  0
  -23.5284   17.4787  -26.2363 C   0  0  0  0  0  0  0  0  0  0  0  0
  -23.4525   17.3397  -24.9319 C   0  0  0  0  0  0  0  0  0  0  0  0
 36 37  2  0  0  0
 37 32  1  0  0  0
 32 33  2  0  0  0
 32 34  1  0  0  0
 34 31  1  0  0  0
 31 30  1  0  0  0
 30 29  1  0  0  0
 29 28  1  0  0  0
 28  1  1  0  0  0
  1 17  1  0  0  0
 17 18  1  0  0  0
 18 19  2  0  0  0
 18 21  1  0  0  0
 21 22  1  0  0  0
 22 23  2  0  0  0
 23 24  1  0  0  0
 24 25  2  0  0  0
 25 26  1  0  0  0
 26 27  2  0  0  0
  1  2  1  0  0  0
  2  3  2  0  0  0
  2  4  1  0  0  0
  4  5  1  0  0  0
  5  6  1  0  0  0
  6  7  1  0  0  0
  7 10  1  0  0  0
 10 11  2  0  0  0
 11 12  1  0  0  0
 12 13  2  0  0  0
 13 14  1  0  0  0
 14 15  1  0  0  0
 14 16  2  0  0  0
  7  8  1  0  0  0
  8  9  1  0  0  0
 27 22  1  0  0  0
  9  4  1  0  0  0
 16 10  1  0  0  0
 34 35  1  0  0  0
 17 20  1  0  0  0
M  END
> <minimizedAffinity>
-8.57076

> <CNNscore>
0.3060387373

> <CNNaffinity>
6.7690072060

> <CNN_VS>
2.0715785027

> <CNNaffinity_variance>
0.1938050687

$$$$
[H]C([H])=C([H])C(=O)N([H])C([H])([H])C([H])([H])C([H])([H])C([H])([H])[C@@]([H])(C(=O)N1C([H])([H])C([H])([H])N(c2c([H])c([H])c([H])c(C([H])([H])[H])c2[H])C([H])([H])C1([H])[H])N([H])C(=O)C([H])([H])c1c([H])c([H])c([H])c([H])c1[H]


 37 39  0  0  0  0  0  0  0  0999 V2000
  -20.3928   16.7407  -19.3516 C   0  0  0  0  0  0  0  0  0  0  0  0
  -19.1787   17.4136  -19.8397 C   0  0  0  0  0  0  0  0  0  0  0  0
  -18.7227   18.3931  -19.1502 O   0  0  0  0  0  0  0  0  0  0  0  0
  -18.4936   17.0409  -21.0129 N   0  0  0  0  0  0  0  0  0  0  0  0
  -18.9154   15.9427  -21.8325 C   0  0  0  0  0  0  0  0  0  0  0  0
  -17.6769   15.2669  -22.4117 C   0  0  0  0  0  0  0  0  0  0  0  0
  -17.0041   16.2518  -23.2372 N   0  0  0  0  0  0  0  0  0  0  0  0
  -17.2040   17.6425  -22.9617 C   0  0  0  0  0  0  0  0  0  0  0  0
  -17.3036   17.7695  -21.4415 C   0  0  0  0  0  0  0  0  0  0  0  0
  -16.1534   15.8425  -24.2963 C   0  0  0  0  0  0  0  0  0  0  0  0
  -14.9034   15.3258  -23.9675 C   0  0  0  0  0  0  0  0  0  0  0  0
  -14.0639   14.9179  -24.9725 C   0  0  0  0  0  0  0  0  0  0  0  0
  -14.4193   15.0037  -26.2917 C   0  0  0  0  0  0  0  0  0  0  0  0
  -15.6476   15.5100  -26.6436 C   0  0  0  0  0  0  0  0  0  0  0  0
  -16.0644   15.6199  -28.0509 C   0  0  0  0  0  0  0  0  0  0  0  0
  -16.4918   15.9203  -25.6258 C   0  0  0  0  0  0  0  0  0  0  0  0
  -20.0180   15.5044  -18.6221 N   0  0  0  0  0  0  0  0  0  0  0  0
  -20.6257   14.2753  -18.9359 C   0  0  0  0  0  0  0  0  0  0  0  0
  -21.4924   14.2362  -19.8436 O   0  0  0  0  0  0  0  0  0  0  0  0
  -19.3105   15.5865  -17.8947 H   0  0  0  0  0  0  0  0  0  0  0  0
  -20.2385   13.0661  -18.2020 C   0  0  0  0  0  0  0  0  0  0  0  0
  -19.1458   12.3191  -18.8272 C   0  0  0  0  0  0  0  0  0  0  0  0
  -18.5781   11.2839  -18.1001 C   0  0  0  0  0  0  0  0  0  0  0  0
  -17.5405   10.5261  -18.6091 C   0  0  0  0  0  0  0  0  0  0  0  0
  -17.0335   10.7730  -19.8584 C   0  0  0  0  0  0  0  0  0  0  0  0
  -17.5846   11.7955  -20.5933 C   0  0  0  0  0  0  0  0  0  0  0  0
  -18.6293   12.5569  -20.0781 C   0  0  0  0  0  0  0  0  0  0  0  0
  -21.1272   17.5557  -18.2945 C   0  0  0  0  0  0  0  0  0  0  0  0
  -22.4335   18.1116  -18.7548 C   0  0  0  0  0  0  0  0  0  0  0  0
  -23.0578   17.3360  -19.9048 C   0  0  0  0  0  0  0  0  0  0  0  0
  -23.8977   18.2113  -20.7689 C   0  0  0  0  0  0  0  0  0  0  0  0
  -23.5437   17.7092  -23.1772 C   0  0  0  0  0  0  0  0  0  0  0  0
  -24.4008   16.7538  -23.1245 O   0  0  0  0  0  0  0  0  0  0  0  0
  -23.2514   18.4791  -22.0342 N   0  0  0  0  0  0  0  0  0  0  0  0
  -22.5500   19.2729  -22.0753 H   0  0  0  0  0  0  0  0  0  0  0  0
  -23.5577   18.0614  -25.5700 C   0  0  0  0  0  0  0  0  0  0  0  0
  -22.9003   17.9594  -24.4369 C   0  0  0  0  0  0  0  0  0  0  0  0
 36 37  2  0  0  0
 37 32  1  0  0  0
 32 33  2  0  0  0
 32 34  1  0  0  0
 34 31  1  0  0  0
 31 30  1  0  0  0
 30 29  1  0  0  0
 29 28  1  0  0  0
 28  1  1  0  0  0
  1 17  1  0  0  0
 17 18  1  0  0  0
 18 19  2  0  0  0
 18 21  1  0  0  0
 21 22  1  0  0  0
 22 23  2  0  0  0
 23 24  1  0  0  0
 24 25  2  0  0  0
 25 26  1  0  0  0
 26 27  2  0  0  0
  1  2  1  0  0  0
  2  3  2  0  0  0
  2  4  1  0  0  0
  4  5  1  0  0  0
  5  6  1  0  0  0
  6  7  1  0  0  0
  7 10  1  0  0  0
 10 11  2  0  0  0
 11 12  1  0  0  0
 12 13  2  0  0  0
 13 14  1  0  0  0
 14 15  1  0  0  0
 14 16  2  0  0  0
  7  8  1  0  0  0
  8  9  1  0  0  0
 27 22  1  0  0  0
  9  4  1  0  0  0
 16 10  1  0  0  0
 34 35  1  0  0  0
 17 20  1  0  0  0
M  END
> <minimizedAffinity>
-8.48978

> <CNNscore>
0.2036880851

> <CNNaffinity>
6.2185111046

> <CNN_VS>
1.2666366100

> <CNNaffinity_variance>
0.6307278872

$$$$
[H]C([H])=C([H])C(=O)N([H])C([H])([H])C([H])([H])C([H])([H])C([H])([H])[C@@]([H])(C(=O)N1C([H])([H])C([H])([H])N(c2c([H])c([H])c([H])c(C([H])([H])[H])c2[H])C([H])([H])C1([H])[H])N([H])C(=O)C([H])([H])c1c([H])c([H])c([H])c([H])c1[H]


 37 39  0  0  0  0  0  0  0  0999 V2000
  -17.9420   16.6296  -19.0764 C   0  0  0  0  0  0  0  0  0  0  0  0
  -19.0750   17.5621  -18.9689 C   0  0  0  0  0  0  0  0  0  0  0  0
  -19.2525   18.1567  -17.8473 O   0  0  0  0  0  0  0  0  0  0  0  0
  -19.9669   17.8372  -20.0241 N   0  0  0  0  0  0  0  0  0  0  0  0
  -19.8311   17.2390  -21.3201 C   0  0  0  0  0  0  0  0  0  0  0  0
  -20.2710   18.2536  -22.3704 C   0  0  0  0  0  0  0  0  0  0  0  0
  -21.6700   18.5435  -22.1192 N   0  0  0  0  0  0  0  0  0  0  0  0
  -22.1924   18.3556  -20.7994 C   0  0  0  0  0  0  0  0  0  0  0  0
  -21.0791   18.7633  -19.8345 C   0  0  0  0  0  0  0  0  0  0  0  0
  -22.5059   19.0150  -23.1641 C   0  0  0  0  0  0  0  0  0  0  0  0
  -23.1650   20.2267  -22.9768 C   0  0  0  0  0  0  0  0  0  0  0  0
  -23.9750   20.7074  -23.9739 C   0  0  0  0  0  0  0  0  0  0  0  0
  -24.1547   20.0301  -25.1499 C   0  0  0  0  0  0  0  0  0  0  0  0
  -23.5157   18.8317  -25.3602 C   0  0  0  0  0  0  0  0  0  0  0  0
  -23.6857   18.0736  -26.6103 C   0  0  0  0  0  0  0  0  0  0  0  0
  -22.6989   18.3504  -24.3511 C   0  0  0  0  0  0  0  0  0  0  0  0
  -18.4007   15.3564  -19.6845 N   0  0  0  0  0  0  0  0  0  0  0  0
  -18.6669   14.2334  -18.8805 C   0  0  0  0  0  0  0  0  0  0  0  0
  -18.5113   14.3209  -17.6376 O   0  0  0  0  0  0  0  0  0  0  0  0
  -18.5121   15.3344  -20.6962 H   0  0  0  0  0  0  0  0  0  0  0  0
  -19.1203   12.9857  -19.5038 C   0  0  0  0  0  0  0  0  0  0  0  0
  -18.0398   12.1899  -20.0888 C   0  0  0  0  0  0  0  0  0  0  0  0
  -17.4921   11.1815  -19.3106 C   0  0  0  0  0  0  0  0  0  0  0  0
  -16.4673   10.3816  -19.7792 C   0  0  0  0  0  0  0  0  0  0  0  0
  -15.9535   10.5583  -21.0376 C   0  0  0  0  0  0  0  0  0  0  0  0
  -16.4848   11.5534  -21.8229 C   0  0  0  0  0  0  0  0  0  0  0  0
  -17.5167   12.3574  -21.3483 C   0  0  0  0  0  0  0  0  0  0  0  0
  -16.8774   17.1141  -20.0526 C   0  0  0  0  0  0  0  0  0  0  0  0
  -16.5264   16.1217  -21.1107 C   0  0  0  0  0  0  0  0  0  0  0  0
  -16.2326   16.7489  -22.4650 C   0  0  0  0  0  0  0  0  0  0  0  0
  -15.5220   15.8022  -23.3688 C   0  0  0  0  0  0  0  0  0  0  0  0
  -16.1447   14.0089  -24.9731 C   0  0  0  0  0  0  0  0  0  0  0  0
  -15.0967   13.3360  -24.6583 O   0  0  0  0  0  0  0  0  0  0  0  0
  -16.4167   15.2477  -24.3601 N   0  0  0  0  0  0  0  0  0  0  0  0
  -17.2841   15.8028  -24.6118 H   0  0  0  0  0  0  0  0  0  0  0  0
  -17.8319   12.4478  -25.7256 C   0  0  0  0  0  0  0  0  0  0  0  0
  -17.0209   13.4532  -25.9665 C   0  0  0  0  0  0  0  0  0  0  0  0
 36 37  2  0  0  0
 37 32  1  0  0  0
 32 33  2  0  0  0
 32 34  1  0  0  0
 34 31  1  0  0  0
 31 30  1  0  0  0
 30 29  1  0  0  0
 29 28  1  0  0  0
 28  1  1  0  0  0
  1 17  1  0  0  0
 17 18  1  0  0  0
 18 19  2  0  0  0
 18 21  1  0  0  0
 21 22  1  0  0  0
 22 23  2  0  0  0
 23 24  1  0  0  0
 24 25  2  0  0  0
 25 26  1  0  0  0
 26 27  2  0  0  0
  1  2  1  0  0  0
  2  3  2  0  0  0
  2  4  1  0  0  0
  4  5  1  0  0  0
  5  6  1  0  0  0
  6  7  1  0  0  0
  7 10  1  0  0  0
 10 11  2  0  0  0
 11 12  1  0  0  0
 12 13  2  0  0  0
 13 14  1  0  0  0
 14 15  1  0  0  0
 14 16  2  0  0  0
  7  8  1  0  0  0
  8  9  1  0  0  0
 27 22  1  0  0  0
  9  4  1  0  0  0
 16 10  1  0  0  0
 34 35  1  0  0  0
 17 20  1  0  0  0
M  END
> <minimizedAffinity>
-8.89281

> <CNNscore>
0.1880250424

> <CNNaffinity>
6.3758764267

> <CNN_VS>
1.1988244057

> <CNNaffinity_variance>
0.5462709665

$$$$
[H]C([H])=C([H])C(=O)N([H])C([H])([H])C([H])([H])C([H])([H])C([H])([H])[C@@]([H])(C(=O)N1C([H])([H])C([H])([H])N(c2c([H])c([H])c([H])c(C([H])([H])[H])c2[H])C([H])([H])C1([H])[H])N([H])C(=O)C([H])([H])c1c([H])c([H])c([H])c([H])c1[H]


 37 39  0  0  0  0  0  0  0  0999 V2000
  -18.9728   17.5008  -22.2191 C   0  0  0  0  0  0  0  0  0  0  0  0
  -18.9833   17.3907  -20.7519 C   0  0  0  0  0  0  0  0  0  0  0  0
  -18.8874   18.4735  -20.0728 O   0  0  0  0  0  0  0  0  0  0  0  0
  -19.0951   16.1697  -20.0581 N   0  0  0  0  0  0  0  0  0  0  0  0
  -19.2324   14.9124  -20.7335 C   0  0  0  0  0  0  0  0  0  0  0  0
  -20.1374   14.0112  -19.9000 C   0  0  0  0  0  0  0  0  0  0  0  0
  -19.4722   13.8031  -18.6279 N   0  0  0  0  0  0  0  0  0  0  0  0
  -18.5326   14.7803  -18.1671 C   0  0  0  0  0  0  0  0  0  0  0  0
  -19.0807   16.1405  -18.5988 C   0  0  0  0  0  0  0  0  0  0  0  0
  -19.7553   12.6524  -17.8477 C   0  0  0  0  0  0  0  0  0  0  0  0
  -20.7933   12.7293  -16.9234 C   0  0  0  0  0  0  0  0  0  0  0  0
  -21.0910   11.6291  -16.1604 C   0  0  0  0  0  0  0  0  0  0  0  0
  -20.3966   10.4556  -16.2808 C   0  0  0  0  0  0  0  0  0  0  0  0
  -19.3673   10.3530  -17.1857 C   0  0  0  0  0  0  0  0  0  0  0  0
  -18.5966    9.1089  -17.3425 C   0  0  0  0  0  0  0  0  0  0  0  0
  -19.0705   11.4659  -17.9541 C   0  0  0  0  0  0  0  0  0  0  0  0
  -20.0392   18.4352  -22.6561 N   0  0  0  0  0  0  0  0  0  0  0  0
  -21.3932   18.1400  -22.4154 C   0  0  0  0  0  0  0  0  0  0  0  0
  -21.6904   17.0727  -21.8243 O   0  0  0  0  0  0  0  0  0  0  0  0
  -19.7488   19.2874  -23.1313 H   0  0  0  0  0  0  0  0  0  0  0  0
  -22.4301   19.0791  -22.8556 C   0  0  0  0  0  0  0  0  0  0  0  0
  -22.7962   18.9377  -24.2658 C   0  0  0  0  0  0  0  0  0  0  0  0
  -23.1727   17.6785  -24.7077 C   0  0  0  0  0  0  0  0  0  0  0  0
  -23.5323   17.4506  -26.0224 C   0  0  0  0  0  0  0  0  0  0  0  0
  -23.5296   18.4679  -26.9410 C   0  0  0  0  0  0  0  0  0  0  0  0
  -23.1592   19.7229  -26.5202 C   0  0  0  0  0  0  0  0  0  0  0  0
  -22.7975   19.9494  -25.1957 C   0  0  0  0  0  0  0  0  0  0  0  0
  -17.7027   18.1563  -22.7466 C   0  0  0  0  0  0  0  0  0  0  0  0
  -16.8642   17.2604  -23.5961 C   0  0  0  0  0  0  0  0  0  0  0  0
  -16.1106   16.1992  -22.8088 C   0  0  0  0  0  0  0  0  0  0  0  0
  -15.2952   15.3270  -23.6991 C   0  0  0  0  0  0  0  0  0  0  0  0
  -16.1548   14.4529  -25.8612 C   0  0  0  0  0  0  0  0  0  0  0  0
  -16.3255   13.2888  -25.3454 O   0  0  0  0  0  0  0  0  0  0  0  0
  -15.6475   15.5160  -25.0886 N   0  0  0  0  0  0  0  0  0  0  0  0
  -15.5118   16.4799  -25.5085 H   0  0  0  0  0  0  0  0  0  0  0  0
  -15.8709   15.4632  -28.0403 C   0  0  0  0  0  0  0  0  0  0  0  0
  -16.4984   14.6262  -27.2451 C   0  0  0  0  0  0  0  0  0  0  0  0
 36 37  2  0  0  0
 37 32  1  0  0  0
 32 33  2  0  0  0
 32 34  1  0  0  0
 34 31  1  0  0  0
 31 30  1  0  0  0
 30 29  1  0  0  0
 29 28  1  0  0  0
 28  1  1  0  0  0
  1 17  1  0  0  0
 17 18  1  0  0  0
 18 19  2  0  0  0
 18 21  1  0  0  0
 21 22  1  0  0  0
 22 23  2  0  0  0
 23 24  1  0  0  0
 24 25  2  0  0  0
 25 26  1  0  0  0
 26 27  2  0  0  0
  1  2  1  0  0  0
  2  3  2  0  0  0
  2  4  1  0  0  0
  4  5  1  0  0  0
  5  6  1  0  0  0
  6  7  1  0  0  0
  7 10  1  0  0  0
 10 11  2  0  0  0
 11 12  1  0  0  0
 12 13  2  0  0  0
 13 14  1  0  0  0
 14 15  1  0  0  0
 14 16  2  0  0  0
  7  8  1  0  0  0
  8  9  1  0  0  0
 27 22  1  0  0  0
  9  4  1  0  0  0
 16 10  1  0  0  0
 34 35  1  0  0  0
 17 20  1  0  0  0
M  END
> <minimizedAffinity>
-8.37518

> <CNNscore>
0.1681489348

> <CNNaffinity>
6.3682351112

> <CNN_VS>
1.0708119869

> <CNNaffinity_variance>
0.2552905679

$$$$
[H]C([H])=C([H])C(=O)N([H])C([H])([H])C([H])([H])C([H])([H])C([H])([H])[C@@]([H])(C(=O)N1C([H])([H])C([H])([H])N(c2c([H])c([H])c([H])c(C([H])([H])[H])c2[H])C([H])([H])C1([H])[H])N([H])C(=O)C([H])([H])c1c([H])c([H])c([H])c([H])c1[H]


 37 39  0  0  0  0  0  0  0  0999 V2000
  -18.4779   12.5880  -19.4199 C   0  0  0  0  0  0  0  0  0  0  0  0
  -19.3474   13.7565  -19.6284 C   0  0  0  0  0  0  0  0  0  0  0  0
  -20.0758   13.7761  -20.6829 O   0  0  0  0  0  0  0  0  0  0  0  0
  -19.4246   14.8453  -18.7377 N   0  0  0  0  0  0  0  0  0  0  0  0
  -18.6666   14.8979  -17.5218 C   0  0  0  0  0  0  0  0  0  0  0  0
  -19.5027   15.6048  -16.4601 C   0  0  0  0  0  0  0  0  0  0  0  0
  -19.7401   16.9540  -16.9371 N   0  0  0  0  0  0  0  0  0  0  0  0
  -19.7007   17.2101  -18.3452 C   0  0  0  0  0  0  0  0  0  0  0  0
  -20.2999   15.9779  -19.0230 C   0  0  0  0  0  0  0  0  0  0  0  0
  -20.0161   18.0025  -16.0220 C   0  0  0  0  0  0  0  0  0  0  0  0
  -19.4158   17.9490  -14.7672 C   0  0  0  0  0  0  0  0  0  0  0  0
  -19.6620   18.9530  -13.8658 C   0  0  0  0  0  0  0  0  0  0  0  0
  -20.4818   20.0081  -14.1637 C   0  0  0  0  0  0  0  0  0  0  0  0
  -21.0868   20.0850  -15.3953 C   0  0  0  0  0  0  0  0  0  0  0  0
  -21.9760   21.2025  -15.7516 C   0  0  0  0  0  0  0  0  0  0  0  0
  -20.8352   19.0694  -16.3022 C   0  0  0  0  0  0  0  0  0  0  0  0
  -19.2009   11.5647  -18.6252 N   0  0  0  0  0  0  0  0  0  0  0  0
  -18.4947   10.5633  -17.9347 C   0  0  0  0  0  0  0  0  0  0  0  0
  -17.2408   10.5449  -17.9989 O   0  0  0  0  0  0  0  0  0  0  0  0
  -20.2171   11.6210  -18.6036 H   0  0  0  0  0  0  0  0  0  0  0  0
  -19.2306    9.5629  -17.1547 C   0  0  0  0  0  0  0  0  0  0  0  0
  -19.4665    9.9536  -15.7638 C   0  0  0  0  0  0  0  0  0  0  0  0
  -19.1501    9.0330  -14.7764 C   0  0  0  0  0  0  0  0  0  0  0  0
  -19.3413    9.3141  -13.4369 C   0  0  0  0  0  0  0  0  0  0  0  0
  -19.8534   10.5205  -13.0354 C   0  0  0  0  0  0  0  0  0  0  0  0
  -20.1725   11.4452  -14.0010 C   0  0  0  0  0  0  0  0  0  0  0  0
  -19.9789   11.1592  -15.3492 C   0  0  0  0  0  0  0  0  0  0  0  0
  -18.1617   11.8562  -20.7182 C   0  0  0  0  0  0  0  0  0  0  0  0
  -16.8273   12.1927  -21.2959 C   0  0  0  0  0  0  0  0  0  0  0  0
  -16.9021   13.0438  -22.5544 C   0  0  0  0  0  0  0  0  0  0  0  0
  -15.7713   12.7589  -23.4810 C   0  0  0  0  0  0  0  0  0  0  0  0
  -14.9812   14.5597  -25.0010 C   0  0  0  0  0  0  0  0  0  0  0  0
  -14.0232   14.8471  -24.1948 O   0  0  0  0  0  0  0  0  0  0  0  0
  -15.8866   13.5223  -24.7035 N   0  0  0  0  0  0  0  0  0  0  0  0
  -16.6742   13.2773  -25.3695 H   0  0  0  0  0  0  0  0  0  0  0  0
  -16.0621   15.1656  -27.0781 C   0  0  0  0  0  0  0  0  0  0  0  0
  -15.0920   15.3314  -26.2074 C   0  0  0  0  0  0  0  0  0  0  0  0
 36 37  2  0  0  0
 37 32  1  0  0  0
 32 33  2  0  0  0
 32 34  1  0  0  0
 34 31  1  0  0  0
 31 30  1  0  0  0
 30 29  1  0  0  0
 29 28  1  0  0  0
 28  1  1  0  0  0
  1 17  1  0  0  0
 17 18  1  0  0  0
 18 19  2  0  0  0
 18 21  1  0  0  0
 21 22  1  0  0  0
 22 23  2  0  0  0
 23 24  1  0  0  0
 24 25  2  0  0  0
 25 26  1  0  0  0
 26 27  2  0  0  0
  1  2  1  0  0  0
  2  3  2  0  0  0
  2  4  1  0  0  0
  4  5  1  0  0  0
  5  6  1  0  0  0
  6  7  1  0  0  0
  7 10  1  0  0  0
 10 11  2  0  0  0
 11 12  1  0  0  0
 12 13  2  0  0  0
 13 14  1  0  0  0
 14 15  1  0  0  0
 14 16  2  0  0  0
  7  8  1  0  0  0
  8  9  1  0  0  0
 27 22  1  0  0  0
  9  4  1  0  0  0
 16 10  1  0  0  0
 34 35  1  0  0  0
 17 20  1  0  0  0
M  END
> <minimizedAffinity>
-7.00917

> <CNNscore>
0.1669926643

> <CNNaffinity>
6.4165525436

> <CNN_VS>
1.0715172291

> <CNNaffinity_variance>
0.1239196882

$$$$
[H]C([H])=C([H])C(=O)N([H])C([H])([H])C([H])([H])C([H])([H])C([H])([H])[C@@]([H])(C(=O)N1C([H])([H])C([H])([H])N(c2c([H])c([H])c([H])c(C([H])([H])[H])c2[H])C([H])([H])C1([H])[H])N([H])C(=O)C([H])([H])c1c([H])c([H])c([H])c([H])c1[H]


 37 39  0  0  0  0  0  0  0  0999 V2000
  -17.8571   14.3579  -20.3741 C   0  0  0  0  0  0  0  0  0  0  0  0
  -19.1886   14.8446  -19.9802 C   0  0  0  0  0  0  0  0  0  0  0  0
  -20.2091   14.3002  -20.5328 O   0  0  0  0  0  0  0  0  0  0  0  0
  -19.4017   15.8663  -19.0340 N   0  0  0  0  0  0  0  0  0  0  0  0
  -18.3227   16.5141  -18.3472 C   0  0  0  0  0  0  0  0  0  0  0  0
  -18.7814   16.8498  -16.9320 C   0  0  0  0  0  0  0  0  0  0  0  0
  -19.8947   17.7716  -17.0553 N   0  0  0  0  0  0  0  0  0  0  0  0
  -20.6722   17.7652  -18.2575 C   0  0  0  0  0  0  0  0  0  0  0  0
  -20.7546   16.3068  -18.7082 C   0  0  0  0  0  0  0  0  0  0  0  0
  -20.2138   18.6600  -15.9961 C   0  0  0  0  0  0  0  0  0  0  0  0
  -20.4598   19.9929  -16.3135 C   0  0  0  0  0  0  0  0  0  0  0  0
  -20.7757   20.8713  -15.3086 C   0  0  0  0  0  0  0  0  0  0  0  0
  -20.8564   20.4758  -14.0006 C   0  0  0  0  0  0  0  0  0  0  0  0
  -20.6181   19.1658  -13.6601 C   0  0  0  0  0  0  0  0  0  0  0  0
  -20.6934   18.7034  -12.2649 C   0  0  0  0  0  0  0  0  0  0  0  0
  -20.2999   18.2825  -14.6778 C   0  0  0  0  0  0  0  0  0  0  0  0
  -17.4416   13.2572  -19.4701 N   0  0  0  0  0  0  0  0  0  0  0  0
  -17.7782   11.9235  -19.7635 C   0  0  0  0  0  0  0  0  0  0  0  0
  -18.4369   11.6738  -20.8030 O   0  0  0  0  0  0  0  0  0  0  0  0
  -16.9092   13.5094  -18.6399 H   0  0  0  0  0  0  0  0  0  0  0  0
  -17.3557   10.8519  -18.8557 C   0  0  0  0  0  0  0  0  0  0  0  0
  -18.3878   10.4441  -17.9010 C   0  0  0  0  0  0  0  0  0  0  0  0
  -19.3109   11.4006  -17.5067 C   0  0  0  0  0  0  0  0  0  0  0  0
  -20.3185   11.1066  -16.6078 C   0  0  0  0  0  0  0  0  0  0  0  0
  -20.4412    9.8511  -16.0716 C   0  0  0  0  0  0  0  0  0  0  0  0
  -19.5347    8.8903  -16.4515 C   0  0  0  0  0  0  0  0  0  0  0  0
  -18.5210    9.1894  -17.3568 C   0  0  0  0  0  0  0  0  0  0  0  0
  -17.8598   13.6950  -21.7458 C   0  0  0  0  0  0  0  0  0  0  0  0
  -16.8701   14.2729  -22.7019 C   0  0  0  0  0  0  0  0  0  0  0  0
  -15.9240   13.2432  -23.3006 C   0  0  0  0  0  0  0  0  0  0  0  0
  -14.7478   13.8863  -23.9495 C   0  0  0  0  0  0  0  0  0  0  0  0
  -15.1421   15.4113  -25.8722 C   0  0  0  0  0  0  0  0  0  0  0  0
  -15.0782   16.4350  -25.0989 O   0  0  0  0  0  0  0  0  0  0  0  0
  -14.9801   14.1094  -25.3591 N   0  0  0  0  0  0  0  0  0  0  0  0
  -15.0250   13.2624  -25.9950 H   0  0  0  0  0  0  0  0  0  0  0  0
  -16.2775   14.9770  -27.9632 C   0  0  0  0  0  0  0  0  0  0  0  0
  -15.3835   15.6443  -27.2689 C   0  0  0  0  0  0  0  0  0  0  0  0
 36 37  2  0  0  0
 37 32  1  0  0  0
 32 33  2  0  0  0
 32 34  1  0  0  0
 34 31  1  0  0  0
 31 30  1  0  0  0
 30 29  1  0  0  0
 29 28  1  0  0  0
 28  1  1  0  0  0
  1 17  1  0  0  0
 17 18  1  0  0  0
 18 19  2  0  0  0
 18 21  1  0  0  0
 21 22  1  0  0  0
 22 23  2  0  0  0
 23 24  1  0  0  0
 24 25  2  0  0  0
 25 26  1  0  0  0
 26 27  2  0  0  0
  1  2  1  0  0  0
  2  3  2  0  0  0
  2  4  1  0  0  0
  4  5  1  0  0  0
  5  6  1  0  0  0
  6  7  1  0  0  0
  7 10  1  0  0  0
 10 11  2  0  0  0
 11 12  1  0  0  0
 12 13  2  0  0  0
 13 14  1  0  0  0
 14 15  1  0  0  0
 14 16  2  0  0  0
  7  8  1  0  0  0
  8  9  1  0  0  0
 27 22  1  0  0  0
  9  4  1  0  0  0
 16 10  1  0  0  0
 34 35  1  0  0  0
 17 20  1  0  0  0
M  END
> <minimizedAffinity>
-7.96889

> <CNNscore>
0.1642948985

> <CNNaffinity>
6.2613396645

> <CNN_VS>
1.0287061930

> <CNNaffinity_variance>
0.2280409783

$$$$
[H]c1nc([H])c(N([H])c2c([H])c(-c3c([H])c([H])c4c([H])c(C#N)c([H])nn34)nc([H])c2C(=O)N([H])[C@]2([H])C([H])([H])C([H])([H])[C@@]([H])(N([H])C(=O)C3([H])C([H])([H])C3([H])[H])C([H])([H])C2([H])[H])c([H])c1[H]


 42 47  0  0  0  0  0  0  0  0999 V2000
  -18.4303   15.5487  -19.1667 C   0  0  0  0  0  0  0  0  0  0  0  0
  -18.5065   14.2613  -19.6077 C   0  0  0  0  0  0  0  0  0  0  0  0
  -18.8598   13.1463  -18.8529 C   0  0  0  0  0  0  0  0  0  0  0  0
  -19.1653   13.3878  -17.5096 C   0  0  0  0  0  0  0  0  0  0  0  0
  -19.0887   14.7079  -17.0416 C   0  0  0  0  0  0  0  0  0  0  0  0
  -18.7391   15.7176  -17.8428 N   0  0  0  0  0  0  0  0  0  0  0  0
  -19.8487   19.0175  -22.7795 C   0  0  0  0  0  0  0  0  0  0  0  0
  -20.5543   17.9709  -22.2450 C   0  0  0  0  0  0  0  0  0  0  0  0
  -19.9702   17.2119  -21.3158 N   0  0  0  0  0  0  0  0  0  0  0  0
  -18.7394   17.4053  -20.8699 N   0  0  0  0  0  0  0  0  0  0  0  0
  -18.0643   16.7159  -19.9578 C   0  0  0  0  0  0  0  0  0  0  0  0
  -16.8120   17.3374  -19.8644 C   0  0  0  0  0  0  0  0  0  0  0  0
  -16.7833   18.3945  -20.7393 C   0  0  0  0  0  0  0  0  0  0  0  0
  -18.0243   18.4233  -21.3741 C   0  0  0  0  0  0  0  0  0  0  0  0
  -18.5644   19.2451  -22.3350 C   0  0  0  0  0  0  0  0  0  0  0  0
  -20.9499   20.5029  -24.5922 N   0  0  0  0  0  0  0  0  0  0  0  0
  -20.4604   19.8360  -23.7805 C   0  0  0  0  0  0  0  0  0  0  0  0
  -19.6384   12.3471  -16.6351 C   0  0  0  0  0  0  0  0  0  0  0  0
  -19.6530   11.1356  -17.0479 O   0  0  0  0  0  0  0  0  0  0  0  0
  -20.0956   12.5738  -15.3234 N   0  0  0  0  0  0  0  0  0  0  0  0
  -20.0949   13.5359  -14.9388 H   0  0  0  0  0  0  0  0  0  0  0  0
  -20.5534   11.4343  -14.5430 C   0  0  0  0  0  0  0  0  0  0  0  0
  -19.4607   11.1617  -13.5045 C   0  0  0  0  0  0  0  0  0  0  0  0
  -19.9711   10.1143  -12.5215 C   0  0  0  0  0  0  0  0  0  0  0  0
  -21.0004   10.8487  -11.6495 C   0  0  0  0  0  0  0  0  0  0  0  0
  -21.6452   11.9647  -12.3956 C   0  0  0  0  0  0  0  0  0  0  0  0
  -21.8643   11.6034  -13.8743 C   0  0  0  0  0  0  0  0  0  0  0  0
  -21.9958    9.8612  -11.2584 N   0  0  0  0  0  0  0  0  0  0  0  0
  -22.0783    9.4525   -9.9112 C   0  0  0  0  0  0  0  0  0  0  0  0
  -21.2799    9.9424   -9.0469 O   0  0  0  0  0  0  0  0  0  0  0  0
  -22.6441    9.4599  -11.9568 H   0  0  0  0  0  0  0  0  0  0  0  0
  -23.0809    8.4597   -9.4845 C   0  0  0  0  0  0  0  0  0  0  0  0
  -24.2838    8.2283  -10.2863 C   0  0  0  0  0  0  0  0  0  0  0  0
  -24.4179    9.1237   -9.0986 C   0  0  0  0  0  0  0  0  0  0  0  0
  -18.7722   11.8699  -19.4103 N   0  0  0  0  0  0  0  0  0  0  0  0
  -19.5456   11.1803  -19.2926 H   0  0  0  0  0  0  0  0  0  0  0  0
  -17.6467   11.3905  -20.1110 C   0  0  0  0  0  0  0  0  0  0  0  0
  -17.1807   11.9245  -21.3196 C   0  0  0  0  0  0  0  0  0  0  0  0
  -16.0795   11.4142  -21.9572 C   0  0  0  0  0  0  0  0  0  0  0  0
  -15.4141   10.3498  -21.3967 C   0  0  0  0  0  0  0  0  0  0  0  0
  -15.8343    9.8125  -20.2389 N   0  0  0  0  0  0  0  0  0  0  0  0
  -16.9054   10.3125  -19.6219 C   0  0  0  0  0  0  0  0  0  0  0  0
 16 17  3  0  0  0
 17  7  1  0  0  0
  7  8  1  0  0  0
  8  9  2  0  0  0
  9 10  1  0  0  0
 10 11  1  0  0  0
 11  1  1  0  0  0
  1  2  2  0  0  0
  2  3  1  0  0  0
  3 35  1  0  0  0
 35 37  1  0  0  0
 37 38  2  0  0  0
 38 39  1  0  0  0
 39 40  2  0  0  0
 40 41  1  0  0  0
 41 42  2  0  0  0
  3  4  2  0  0  0
  4 18  1  0  0  0
 18 19  2  0  0  0
 18 20  1  0  0  0
 20 22  1  0  0  0
 22 23  1  0  0  0
 23 24  1  0  0  0
 24 25  1  0  0  0
 25 28  1  0  0  0
 28 29  1  0  0  0
 29 30  2  0  0  0
 29 32  1  0  0  0
 32 33  1  0  0  0
 33 34  1  0  0  0
 25 26  1  0  0  0
 26 27  1  0  0  0
  4  5  1  0  0  0
  5  6  2  0  0  0
 11 12  2  0  0  0
 12 13  1  0  0  0
 13 14  2  0  0  0
 14 15  1  0  0  0
 15  7  2  0  0  0
 14 10  1  0  0  0
  6  1  1  0  0  0
 42 37  1  0  0  0
 27 22  1  0  0  0
 34 32  1  0  0  0
 35 36  1  0  0  0
 20 21  1  0  0  0
 28 31  1  0  0  0
M  END
> <minimizedAffinity>
-7.50041

> <CNNscore>
0.4835238457

> <CNNaffinity>
7.1080985069

> <CNN_VS>
3.4369351864

> <CNNaffinity_variance>
0.1014212146

$$$$
[H]c1nc([H])c(N([H])c2c([H])c(-c3c([H])c([H])c4c([H])c(C#N)c([H])nn34)nc([H])c2C(=O)N([H])[C@]2([H])C([H])([H])C([H])([H])[C@@]([H])(N([H])C(=O)C3([H])C([H])([H])C3([H])[H])C([H])([H])C2([H])[H])c([H])c1[H]


 42 47  0  0  0  0  0  0  0  0999 V2000
  -19.5648   14.1269  -17.8799 C   0  0  0  0  0  0  0  0  0  0  0  0
  -18.6756   13.1948  -18.3249 C   0  0  0  0  0  0  0  0  0  0  0  0
  -18.6537   11.8439  -17.9896 C   0  0  0  0  0  0  0  0  0  0  0  0
  -19.6510   11.4155  -17.1076 C   0  0  0  0  0  0  0  0  0  0  0  0
  -20.5716   12.3648  -16.6399 C   0  0  0  0  0  0  0  0  0  0  0  0
  -20.5141   13.6443  -17.0181 N   0  0  0  0  0  0  0  0  0  0  0  0
  -19.0343   17.7240  -21.6050 C   0  0  0  0  0  0  0  0  0  0  0  0
  -18.9327   16.3593  -21.6840 C   0  0  0  0  0  0  0  0  0  0  0  0
  -19.1156   15.6376  -20.5767 N   0  0  0  0  0  0  0  0  0  0  0  0
  -19.3926   16.1584  -19.3922 N   0  0  0  0  0  0  0  0  0  0  0  0
  -19.5899   15.5398  -18.2340 C   0  0  0  0  0  0  0  0  0  0  0  0
  -19.8446   16.5544  -17.3018 C   0  0  0  0  0  0  0  0  0  0  0  0
  -19.7895   17.7642  -17.9478 C   0  0  0  0  0  0  0  0  0  0  0  0
  -19.4993   17.4922  -19.2842 C   0  0  0  0  0  0  0  0  0  0  0  0
  -19.3226   18.2964  -20.3853 C   0  0  0  0  0  0  0  0  0  0  0  0
  -18.6738   19.1537  -23.7337 N   0  0  0  0  0  0  0  0  0  0  0  0
  -18.8352   18.5105  -22.7832 C   0  0  0  0  0  0  0  0  0  0  0  0
  -19.8093   10.0307  -16.7485 C   0  0  0  0  0  0  0  0  0  0  0  0
  -19.1066    9.1414  -17.3431 O   0  0  0  0  0  0  0  0  0  0  0  0
  -20.7040    9.5747  -15.7623 N   0  0  0  0  0  0  0  0  0  0  0  0
  -21.2888   10.2560  -15.2453 H   0  0  0  0  0  0  0  0  0  0  0  0
  -20.7725    8.1457  -15.4971 C   0  0  0  0  0  0  0  0  0  0  0  0
  -19.9690    7.9107  -14.2142 C   0  0  0  0  0  0  0  0  0  0  0  0
  -20.1743    6.4681  -13.7663 C   0  0  0  0  0  0  0  0  0  0  0  0
  -21.6038    6.4202  -13.2065 C   0  0  0  0  0  0  0  0  0  0  0  0
  -22.4777    7.4309  -13.8643 C   0  0  0  0  0  0  0  0  0  0  0  0
  -22.1372    7.5870  -15.3559 C   0  0  0  0  0  0  0  0  0  0  0  0
  -22.1058    5.0775  -13.4593 N   0  0  0  0  0  0  0  0  0  0  0  0
  -22.6277    4.3175  -12.3921 C   0  0  0  0  0  0  0  0  0  0  0  0
  -22.6512    4.8049  -11.2147 O   0  0  0  0  0  0  0  0  0  0  0  0
  -22.0868    4.6776  -14.4126 H   0  0  0  0  0  0  0  0  0  0  0  0
  -23.1497    2.9578  -12.6193 C   0  0  0  0  0  0  0  0  0  0  0  0
  -23.7440    2.5969  -13.9077 C   0  0  0  0  0  0  0  0  0  0  0  0
  -24.6808    2.9539  -12.8007 C   0  0  0  0  0  0  0  0  0  0  0  0
  -17.6045   11.0336  -18.4256 N   0  0  0  0  0  0  0  0  0  0  0  0
  -17.1702   10.3314  -17.7884 H   0  0  0  0  0  0  0  0  0  0  0  0
  -17.0162   11.1239  -19.7036 C   0  0  0  0  0  0  0  0  0  0  0  0
  -17.4221   12.0220  -20.6995 C   0  0  0  0  0  0  0  0  0  0  0  0
  -16.8122   12.0628  -21.9267 C   0  0  0  0  0  0  0  0  0  0  0  0
  -15.7746   11.1996  -22.1882 C   0  0  0  0  0  0  0  0  0  0  0  0
  -15.3604   10.3247  -21.2562 N   0  0  0  0  0  0  0  0  0  0  0  0
  -15.9561   10.2890  -20.0638 C   0  0  0  0  0  0  0  0  0  0  0  0
 16 17  3  0  0  0
 17  7  1  0  0  0
  7  8  1  0  0  0
  8  9  2  0  0  0
  9 10  1  0  0  0
 10 11  1  0  0  0
 11  1  1  0  0  0
  1  2  2  0  0  0
  2  3  1  0  0  0
  3 35  1  0  0  0
 35 37  1  0  0  0
 37 38  2  0  0  0
 38 39  1  0  0  0
 39 40  2  0  0  0
 40 41  1  0  0  0
 41 42  2  0  0  0
  3  4  2  0  0  0
  4 18  1  0  0  0
 18 19  2  0  0  0
 18 20  1  0  0  0
 20 22  1  0  0  0
 22 23  1  0  0  0
 23 24  1  0  0  0
 24 25  1  0  0  0
 25 28  1  0  0  0
 28 29  1  0  0  0
 29 30  2  0  0  0
 29 32  1  0  0  0
 32 33  1  0  0  0
 33 34  1  0  0  0
 25 26  1  0  0  0
 26 27  1  0  0  0
  4  5  1  0  0  0
  5  6  2  0  0  0
 11 12  2  0  0  0
 12 13  1  0  0  0
 13 14  2  0  0  0
 14 15  1  0  0  0
 15  7  2  0  0  0
 14 10  1  0  0  0
  6  1  1  0  0  0
 42 37  1  0  0  0
 27 22  1  0  0  0
 34 32  1  0  0  0
 35 36  1  0  0  0
 20 21  1  0  0  0
 28 31  1  0  0  0
M  END
> <minimizedAffinity>
-7.30400

> <CNNscore>
0.4810500443

> <CNNaffinity>
7.2345147133

> <CNN_VS>
3.4801635742

> <CNNaffinity_variance>
0.3453195989

$$$$
[H]c1nc([H])c(N([H])c2c([H])c(-c3c([H])c([H])c4c([H])c(C#N)c([H])nn34)nc([H])c2C(=O)N([H])[C@]2([H])C([H])([H])C([H])([H])[C@@]([H])(N([H])C(=O)C3([H])C([H])([H])C3([H])[H])C([H])([H])C2([H])[H])c([H])c1[H]


 42 47  0  0  0  0  0  0  0  0999 V2000
  -18.1378   12.5013  -20.3544 C   0  0  0  0  0  0  0  0  0  0  0  0
  -19.0020   12.8854  -19.3731 C   0  0  0  0  0  0  0  0  0  0  0  0
  -19.3272   12.1657  -18.2267 C   0  0  0  0  0  0  0  0  0  0  0  0
  -18.6946   10.9268  -18.0815 C   0  0  0  0  0  0  0  0  0  0  0  0
  -17.8043   10.5178  -19.0852 C   0  0  0  0  0  0  0  0  0  0  0  0
  -17.5537   11.2784  -20.1539 N   0  0  0  0  0  0  0  0  0  0  0  0
  -18.3688   17.0401  -22.8927 C   0  0  0  0  0  0  0  0  0  0  0  0
  -18.8543   16.7020  -21.6562 C   0  0  0  0  0  0  0  0  0  0  0  0
  -18.6665   15.4579  -21.2118 N   0  0  0  0  0  0  0  0  0  0  0  0
  -18.0342   14.5168  -21.8941 N   0  0  0  0  0  0  0  0  0  0  0  0
  -17.7947   13.2563  -21.5521 C   0  0  0  0  0  0  0  0  0  0  0  0
  -17.0967   12.6978  -22.6310 C   0  0  0  0  0  0  0  0  0  0  0  0
  -16.9412   13.6615  -23.5959 C   0  0  0  0  0  0  0  0  0  0  0  0
  -17.5469   14.8187  -23.1079 C   0  0  0  0  0  0  0  0  0  0  0  0
  -17.7050   16.0819  -23.6274 C   0  0  0  0  0  0  0  0  0  0  0  0
  -18.7241   19.4439  -23.7873 N   0  0  0  0  0  0  0  0  0  0  0  0
  -18.5677   18.3687  -23.3840 C   0  0  0  0  0  0  0  0  0  0  0  0
  -18.8610   10.1183  -16.9024 C   0  0  0  0  0  0  0  0  0  0  0  0
  -18.1164    9.0911  -16.7327 O   0  0  0  0  0  0  0  0  0  0  0  0
  -19.8078   10.3863  -15.8960 N   0  0  0  0  0  0  0  0  0  0  0  0
  -20.4281   11.2117  -15.9817 H   0  0  0  0  0  0  0  0  0  0  0  0
  -19.8786    9.4867  -14.7546 C   0  0  0  0  0  0  0  0  0  0  0  0
  -19.4966   10.3219  -13.5286 C   0  0  0  0  0  0  0  0  0  0  0  0
  -19.7528    9.4943  -12.2743 C   0  0  0  0  0  0  0  0  0  0  0  0
  -21.2805    9.4622  -12.1185 C   0  0  0  0  0  0  0  0  0  0  0  0
  -21.9624    9.5750  -13.4376 C   0  0  0  0  0  0  0  0  0  0  0  0
  -21.1890    8.8305  -14.5389 C   0  0  0  0  0  0  0  0  0  0  0  0
  -21.6087    8.1923  -11.4873 N   0  0  0  0  0  0  0  0  0  0  0  0
  -22.1143    8.1798  -10.1709 C   0  0  0  0  0  0  0  0  0  0  0  0
  -22.2746    9.2754   -9.5397 O   0  0  0  0  0  0  0  0  0  0  0  0
  -21.4783    7.3010  -11.9952 H   0  0  0  0  0  0  0  0  0  0  0  0
  -22.4622    6.9095   -9.5088 C   0  0  0  0  0  0  0  0  0  0  0  0
  -22.6970    5.7004  -10.3002 C   0  0  0  0  0  0  0  0  0  0  0  0
  -23.8987    6.4617   -9.8454 C   0  0  0  0  0  0  0  0  0  0  0  0
  -20.3265   12.6307  -17.3708 N   0  0  0  0  0  0  0  0  0  0  0  0
  -20.9949   11.9695  -16.9195 H   0  0  0  0  0  0  0  0  0  0  0  0
  -20.5544   13.9935  -17.0906 C   0  0  0  0  0  0  0  0  0  0  0  0
  -21.8136   14.6072  -17.1194 C   0  0  0  0  0  0  0  0  0  0  0  0
  -21.9737   15.9396  -16.8390 C   0  0  0  0  0  0  0  0  0  0  0  0
  -20.8697   16.6947  -16.5214 C   0  0  0  0  0  0  0  0  0  0  0  0
  -19.6469   16.1385  -16.4855 N   0  0  0  0  0  0  0  0  0  0  0  0
  -19.4960   14.8421  -16.7582 C   0  0  0  0  0  0  0  0  0  0  0  0
 16 17  3  0  0  0
 17  7  1  0  0  0
  7  8  1  0  0  0
  8  9  2  0  0  0
  9 10  1  0  0  0
 10 11  1  0  0  0
 11  1  1  0  0  0
  1  2  2  0  0  0
  2  3  1  0  0  0
  3 35  1  0  0  0
 35 37  1  0  0  0
 37 38  2  0  0  0
 38 39  1  0  0  0
 39 40  2  0  0  0
 40 41  1  0  0  0
 41 42  2  0  0  0
  3  4  2  0  0  0
  4 18  1  0  0  0
 18 19  2  0  0  0
 18 20  1  0  0  0
 20 22  1  0  0  0
 22 23  1  0  0  0
 23 24  1  0  0  0
 24 25  1  0  0  0
 25 28  1  0  0  0
 28 29  1  0  0  0
 29 30  2  0  0  0
 29 32  1  0  0  0
 32 33  1  0  0  0
 33 34  1  0  0  0
 25 26  1  0  0  0
 26 27  1  0  0  0
  4  5  1  0  0  0
  5  6  2  0  0  0
 11 12  2  0  0  0
 12 13  1  0  0  0
 13 14  2  0  0  0
 14 15  1  0  0  0
 15  7  2  0  0  0
 14 10  1  0  0  0
  6  1  1  0  0  0
 42 37  1  0  0  0
 27 22  1  0  0  0
 34 32  1  0  0  0
 35 36  1  0  0  0
 20 21  1  0  0  0
 28 31  1  0  0  0
M  END
> <minimizedAffinity>
-7.02354

> <CNNscore>
0.2387602031

> <CNNaffinity>
7.0502090454

> <CNN_VS>
1.6833093166

> <CNNaffinity_variance>
0.4657226503

$$$$
[H]c1nc([H])c(N([H])c2c([H])c(-c3c([H])c([H])c4c([H])c(C#N)c([H])nn34)nc([H])c2C(=O)N([H])[C@]2([H])C([H])([H])C([H])([H])[C@@]([H])(N([H])C(=O)C3([H])C([H])([H])C3([H])[H])C([H])([H])C2([H])[H])c([H])c1[H]


 42 47  0  0  0  0  0  0  0  0999 V2000
  -18.5093   15.7344  -18.7931 C   0  0  0  0  0  0  0  0  0  0  0  0
  -18.5292   14.4096  -19.1125 C   0  0  0  0  0  0  0  0  0  0  0  0
  -19.0349   13.3758  -18.3293 C   0  0  0  0  0  0  0  0  0  0  0  0
  -19.5738   13.7504  -17.0943 C   0  0  0  0  0  0  0  0  0  0  0  0
  -19.5577   15.1104  -16.7516 C   0  0  0  0  0  0  0  0  0  0  0  0
  -19.0494   16.0348  -17.5705 N   0  0  0  0  0  0  0  0  0  0  0  0
  -19.5210   20.0127  -21.5805 C   0  0  0  0  0  0  0  0  0  0  0  0
  -20.3754   19.1999  -20.8817 C   0  0  0  0  0  0  0  0  0  0  0  0
  -19.8727   18.1477  -20.2331 N   0  0  0  0  0  0  0  0  0  0  0  0
  -18.5875   17.8328  -20.2192 N   0  0  0  0  0  0  0  0  0  0  0  0
  -17.9837   16.8166  -19.6146 C   0  0  0  0  0  0  0  0  0  0  0  0
  -16.6231   16.9474  -19.9228 C   0  0  0  0  0  0  0  0  0  0  0  0
  -16.4598   18.0567  -20.7142 C   0  0  0  0  0  0  0  0  0  0  0  0
  -17.7264   18.6110  -20.8938 C   0  0  0  0  0  0  0  0  0  0  0  0
  -18.1764   19.7115  -21.5845 C   0  0  0  0  0  0  0  0  0  0  0  0
  -20.4755   22.0581  -22.8495 N   0  0  0  0  0  0  0  0  0  0  0  0
  -20.0469   21.1411  -22.2850 C   0  0  0  0  0  0  0  0  0  0  0  0
  -20.2174   12.8025  -16.2230 C   0  0  0  0  0  0  0  0  0  0  0  0
  -21.4560   12.9504  -15.9364 O   0  0  0  0  0  0  0  0  0  0  0  0
  -19.5638   11.6948  -15.6514 N   0  0  0  0  0  0  0  0  0  0  0  0
  -18.5631   11.5255  -15.8598 H   0  0  0  0  0  0  0  0  0  0  0  0
  -20.3276   10.8131  -14.7817 C   0  0  0  0  0  0  0  0  0  0  0  0
  -20.7449    9.6186  -15.6452 C   0  0  0  0  0  0  0  0  0  0  0  0
  -21.3689    8.5588  -14.7446 C   0  0  0  0  0  0  0  0  0  0  0  0
  -20.1920    7.9418  -13.9743 C   0  0  0  0  0  0  0  0  0  0  0  0
  -19.0845    8.9221  -13.8002 C   0  0  0  0  0  0  0  0  0  0  0  0
  -19.6207   10.3446  -13.5672 C   0  0  0  0  0  0  0  0  0  0  0  0
  -20.7114    7.5312  -12.6780 N   0  0  0  0  0  0  0  0  0  0  0  0
  -20.2927    6.3071  -12.1167 C   0  0  0  0  0  0  0  0  0  0  0  0
  -19.4700    5.5655  -12.7473 O   0  0  0  0  0  0  0  0  0  0  0  0
  -21.3806    8.1289  -12.1640 H   0  0  0  0  0  0  0  0  0  0  0  0
  -20.7963    5.8688  -10.8025 C   0  0  0  0  0  0  0  0  0  0  0  0
  -21.3208    6.8450   -9.8457 C   0  0  0  0  0  0  0  0  0  0  0  0
  -19.9136    6.3853   -9.6485 C   0  0  0  0  0  0  0  0  0  0  0  0
  -18.8724   12.0501  -18.7339 N   0  0  0  0  0  0  0  0  0  0  0  0
  -19.4955   11.2985  -18.3672 H   0  0  0  0  0  0  0  0  0  0  0  0
  -17.8518   11.6091  -19.6007 C   0  0  0  0  0  0  0  0  0  0  0  0
  -17.7418   11.9811  -20.9470 C   0  0  0  0  0  0  0  0  0  0  0  0
  -16.7264   11.5178  -21.7432 C   0  0  0  0  0  0  0  0  0  0  0  0
  -15.7907   10.6651  -21.2073 C   0  0  0  0  0  0  0  0  0  0  0  0
  -15.8665   10.2870  -19.9200 N   0  0  0  0  0  0  0  0  0  0  0  0
  -16.8554   10.7406  -19.1492 C   0  0  0  0  0  0  0  0  0  0  0  0
 16 17  3  0  0  0
 17  7  1  0  0  0
  7  8  1  0  0  0
  8  9  2  0  0  0
  9 10  1  0  0  0
 10 11  1  0  0  0
 11  1  1  0  0  0
  1  2  2  0  0  0
  2  3  1  0  0  0
  3 35  1  0  0  0
 35 37  1  0  0  0
 37 38  2  0  0  0
 38 39  1  0  0  0
 39 40  2  0  0  0
 40 41  1  0  0  0
 41 42  2  0  0  0
  3  4  2  0  0  0
  4 18  1  0  0  0
 18 19  2  0  0  0
 18 20  1  0  0  0
 20 22  1  0  0  0
 22 23  1  0  0  0
 23 24  1  0  0  0
 24 25  1  0  0  0
 25 28  1  0  0  0
 28 29  1  0  0  0
 29 30  2  0  0  0
 29 32  1  0  0  0
 32 33  1  0  0  0
 33 34  1  0  0  0
 25 26  1  0  0  0
 26 27  1  0  0  0
  4  5  1  0  0  0
  5  6  2  0  0  0
 11 12  2  0  0  0
 12 13  1  0  0  0
 13 14  2  0  0  0
 14 15  1  0  0  0
 15  7  2  0  0  0
 14 10  1  0  0  0
  6  1  1  0  0  0
 42 37  1  0  0  0
 27 22  1  0  0  0
 34 32  1  0  0  0
 35 36  1  0  0  0
 20 21  1  0  0  0
 28 31  1  0  0  0
M  END
> <minimizedAffinity>
-7.35610

> <CNNscore>
0.2331519723

> <CNNaffinity>
6.9575004578

> <CNN_VS>
1.6221549511

> <CNNaffinity_variance>
0.0999459624

$$$$
[H]c1nc([H])c(N([H])c2c([H])c(-c3c([H])c([H])c4c([H])c(C#N)c([H])nn34)nc([H])c2C(=O)N([H])[C@]2([H])C([H])([H])C([H])([H])[C@@]([H])(N([H])C(=O)C3([H])C([H])([H])C3([H])[H])C([H])([H])C2([H])[H])c([H])c1[H]


 42 47  0  0  0  0  0  0  0  0999 V2000
  -20.6991   15.0570  -19.9197 C   0  0  0  0  0  0  0  0  0  0  0  0
  -19.8311   14.1931  -20.5177 C   0  0  0  0  0  0  0  0  0  0  0  0
  -19.2158   13.0938  -19.9255 C   0  0  0  0  0  0  0  0  0  0  0  0
  -19.5309   12.8658  -18.5820 C   0  0  0  0  0  0  0  0  0  0  0  0
  -20.4213   13.7486  -17.9532 C   0  0  0  0  0  0  0  0  0  0  0  0
  -20.9644   14.7803  -18.6045 N   0  0  0  0  0  0  0  0  0  0  0  0
  -20.2115   19.2412  -22.9777 C   0  0  0  0  0  0  0  0  0  0  0  0
  -19.2732   18.3138  -22.6057 C   0  0  0  0  0  0  0  0  0  0  0  0
  -19.6434   17.3130  -21.8044 N   0  0  0  0  0  0  0  0  0  0  0  0
  -20.8720   17.1542  -21.3394 N   0  0  0  0  0  0  0  0  0  0  0  0
  -21.3459   16.2051  -20.5409 C   0  0  0  0  0  0  0  0  0  0  0  0
  -22.7018   16.5073  -20.3574 C   0  0  0  0  0  0  0  0  0  0  0  0
  -22.9946   17.6460  -21.0655 C   0  0  0  0  0  0  0  0  0  0  0  0
  -21.8127   18.0463  -21.6876 C   0  0  0  0  0  0  0  0  0  0  0  0
  -21.5003   19.1026  -22.5104 C   0  0  0  0  0  0  0  0  0  0  0  0
  -19.5097   21.1987  -24.5207 N   0  0  0  0  0  0  0  0  0  0  0  0
  -19.8273   20.3224  -23.8320 C   0  0  0  0  0  0  0  0  0  0  0  0
  -19.0453   11.7139  -17.8687 C   0  0  0  0  0  0  0  0  0  0  0  0
  -17.8601   11.2866  -18.0945 O   0  0  0  0  0  0  0  0  0  0  0  0
  -19.8010   11.0076  -16.9142 N   0  0  0  0  0  0  0  0  0  0  0  0
  -20.7630   11.3191  -16.6886 H   0  0  0  0  0  0  0  0  0  0  0  0
  -19.1948    9.8543  -16.2666 C   0  0  0  0  0  0  0  0  0  0  0  0
  -19.5766    9.9467  -14.7859 C   0  0  0  0  0  0  0  0  0  0  0  0
  -19.1493    8.6596  -14.0898 C   0  0  0  0  0  0  0  0  0  0  0  0
  -20.1491    7.5946  -14.5643 C   0  0  0  0  0  0  0  0  0  0  0  0
  -20.6715    7.9085  -15.9231 C   0  0  0  0  0  0  0  0  0  0  0  0
  -19.5862    8.5350  -16.8147 C   0  0  0  0  0  0  0  0  0  0  0  0
  -19.4330    6.3274  -14.5789 N   0  0  0  0  0  0  0  0  0  0  0  0
  -19.6302    5.4047  -13.5308 C   0  0  0  0  0  0  0  0  0  0  0  0
  -20.4261    5.6859  -12.5759 O   0  0  0  0  0  0  0  0  0  0  0  0
  -18.7849    6.0962  -15.3507 H   0  0  0  0  0  0  0  0  0  0  0  0
  -18.9241    4.1107  -13.5226 C   0  0  0  0  0  0  0  0  0  0  0  0
  -18.6720    3.3952  -14.7748 C   0  0  0  0  0  0  0  0  0  0  0  0
  -19.8433    2.9528  -13.9607 C   0  0  0  0  0  0  0  0  0  0  0  0
  -18.2506   12.3715  -20.6283 N   0  0  0  0  0  0  0  0  0  0  0  0
  -18.1034   11.3556  -20.4447 H   0  0  0  0  0  0  0  0  0  0  0  0
  -17.3764   12.9392  -21.5776 C   0  0  0  0  0  0  0  0  0  0  0  0
  -17.0837   14.3066  -21.6653 C   0  0  0  0  0  0  0  0  0  0  0  0
  -16.2253   14.8017  -22.6126 C   0  0  0  0  0  0  0  0  0  0  0  0
  -15.6355   13.9341  -23.5011 C   0  0  0  0  0  0  0  0  0  0  0  0
  -15.8945   12.6166  -23.4461 N   0  0  0  0  0  0  0  0  0  0  0  0
  -16.7296   12.1395  -22.5226 C   0  0  0  0  0  0  0  0  0  0  0  0
 16 17  3  0  0  0
 17  7  1  0  0  0
  7  8  1  0  0  0
  8  9  2  0  0  0
  9 10  1  0  0  0
 10 11  1  0  0  0
 11  1  1  0  0  0
  1  2  2  0  0  0
  2  3  1  0  0  0
  3 35  1  0  0  0
 35 37  1  0  0  0
 37 38  2  0  0  0
 38 39  1  0  0  0
 39 40  2  0  0  0
 40 41  1  0  0  0
 41 42  2  0  0  0
  3  4  2  0  0  0
  4 18  1  0  0  0
 18 19  2  0  0  0
 18 20  1  0  0  0
 20 22  1  0  0  0
 22 23  1  0  0  0
 23 24  1  0  0  0
 24 25  1  0  0  0
 25 28  1  0  0  0
 28 29  1  0  0  0
 29 30  2  0  0  0
 29 32  1  0  0  0
 32 33  1  0  0  0
 33 34  1  0  0  0
 25 26  1  0  0  0
 26 27  1  0  0  0
  4  5  1  0  0  0
  5  6  2  0  0  0
 11 12  2  0  0  0
 12 13  1  0  0  0
 13 14  2  0  0  0
 14 15  1  0  0  0
 15  7  2  0  0  0
 14 10  1  0  0  0
  6  1  1  0  0  0
 42 37  1  0  0  0
 27 22  1  0  0  0
 34 32  1  0  0  0
 35 36  1  0  0  0
 20 21  1  0  0  0
 28 31  1  0  0  0
M  END
> <minimizedAffinity>
-7.75250

> <CNNscore>
0.1794454753

> <CNNaffinity>
7.0522127151

> <CNN_VS>
1.2654876709

> <CNNaffinity_variance>
0.2577588260

$$$$
[H]c1nc([H])c(N([H])c2c([H])c(-c3c([H])c([H])c4c([H])c(C#N)c([H])nn34)nc([H])c2C(=O)N([H])[C@]2([H])C([H])([H])C([H])([H])[C@@]([H])(N([H])C(=O)C3([H])C([H])([H])C3([H])[H])C([H])([H])C2([H])[H])c([H])c1[H]


 42 47  0  0  0  0  0  0  0  0999 V2000
  -17.7826   11.8391  -20.0526 C   0  0  0  0  0  0  0  0  0  0  0  0
  -18.7919   12.6925  -19.7200 C   0  0  0  0  0  0  0  0  0  0  0  0
  -19.6259   12.5969  -18.6095 C   0  0  0  0  0  0  0  0  0  0  0  0
  -19.3913   11.5116  -17.7591 C   0  0  0  0  0  0  0  0  0  0  0  0
  -18.3571   10.6240  -18.0905 C   0  0  0  0  0  0  0  0  0  0  0  0
  -17.6060   10.7969  -19.1812 N   0  0  0  0  0  0  0  0  0  0  0  0
  -16.6062   14.3672  -24.4482 C   0  0  0  0  0  0  0  0  0  0  0  0
  -17.6002   14.6110  -23.5365 C   0  0  0  0  0  0  0  0  0  0  0  0
  -17.7017   13.8151  -22.4703 N   0  0  0  0  0  0  0  0  0  0  0  0
  -16.8959   12.7930  -22.2314 N   0  0  0  0  0  0  0  0  0  0  0  0
  -16.9075   11.9415  -21.2127 C   0  0  0  0  0  0  0  0  0  0  0  0
  -15.8465   11.0568  -21.4472 C   0  0  0  0  0  0  0  0  0  0  0  0
  -15.2281   11.4178  -22.6181 C   0  0  0  0  0  0  0  0  0  0  0  0
  -15.9122   12.5303  -23.1063 C   0  0  0  0  0  0  0  0  0  0  0  0
  -15.7502   13.3102  -24.2270 C   0  0  0  0  0  0  0  0  0  0  0  0
  -16.3912   15.8964  -26.5268 N   0  0  0  0  0  0  0  0  0  0  0  0
  -16.4890   15.2091  -25.5988 C   0  0  0  0  0  0  0  0  0  0  0  0
  -20.1114   11.3393  -16.5248 C   0  0  0  0  0  0  0  0  0  0  0  0
  -20.0905   12.2714  -15.6478 O   0  0  0  0  0  0  0  0  0  0  0  0
  -20.8578   10.1890  -16.2075 N   0  0  0  0  0  0  0  0  0  0  0  0
  -20.9140    9.4098  -16.8880 H   0  0  0  0  0  0  0  0  0  0  0  0
  -21.5366   10.1370  -14.9216 C   0  0  0  0  0  0  0  0  0  0  0  0
  -23.0293    9.9893  -15.2326 C   0  0  0  0  0  0  0  0  0  0  0  0
  -23.7754    9.7193  -13.9310 C   0  0  0  0  0  0  0  0  0  0  0  0
  -23.4281    8.2695  -13.5614 C   0  0  0  0  0  0  0  0  0  0  0  0
  -22.0868    7.8840  -14.0812 C   0  0  0  0  0  0  0  0  0  0  0  0
  -21.0946    9.0569  -14.0092 C   0  0  0  0  0  0  0  0  0  0  0  0
  -23.4474    8.1936  -12.1079 N   0  0  0  0  0  0  0  0  0  0  0  0
  -24.1019    7.1161  -11.4761 C   0  0  0  0  0  0  0  0  0  0  0  0
  -24.6772    6.2207  -12.1775 O   0  0  0  0  0  0  0  0  0  0  0  0
  -22.9836    8.9190  -11.5352 H   0  0  0  0  0  0  0  0  0  0  0  0
  -24.1316    7.0091  -10.0063 C   0  0  0  0  0  0  0  0  0  0  0  0
  -23.1371    7.7092   -9.1912 C   0  0  0  0  0  0  0  0  0  0  0  0
  -22.8996    6.2596   -9.4606 C   0  0  0  0  0  0  0  0  0  0  0  0
  -20.7000   13.4761  -18.4657 N   0  0  0  0  0  0  0  0  0  0  0  0
  -21.6054   13.1532  -18.0613 H   0  0  0  0  0  0  0  0  0  0  0  0
  -20.6818   14.8203  -18.8907 C   0  0  0  0  0  0  0  0  0  0  0  0
  -21.3496   15.3003  -20.0249 C   0  0  0  0  0  0  0  0  0  0  0  0
  -21.2939   16.6205  -20.3905 C   0  0  0  0  0  0  0  0  0  0  0  0
  -20.5632   17.4975  -19.6245 C   0  0  0  0  0  0  0  0  0  0  0  0
  -19.9096   17.0708  -18.5306 N   0  0  0  0  0  0  0  0  0  0  0  0
  -19.9672   15.7861  -18.1785 C   0  0  0  0  0  0  0  0  0  0  0  0
 16 17  3  0  0  0
 17  7  1  0  0  0
  7  8  1  0  0  0
  8  9  2  0  0  0
  9 10  1  0  0  0
 10 11  1  0  0  0
 11  1  1  0  0  0
  1  2  2  0  0  0
  2  3  1  0  0  0
  3 35  1  0  0  0
 35 37  1  0  0  0
 37 38  2  0  0  0
 38 39  1  0  0  0
 39 40  2  0  0  0
 40 41  1  0  0  0
 41 42  2  0  0  0
  3  4  2  0  0  0
  4 18  1  0  0  0
 18 19  2  0  0  0
 18 20  1  0  0  0
 20 22  1  0  0  0
 22 23  1  0  0  0
 23 24  1  0  0  0
 24 25  1  0  0  0
 25 28  1  0  0  0
 28 29  1  0  0  0
 29 30  2  0  0  0
 29 32  1  0  0  0
 32 33  1  0  0  0
 33 34  1  0  0  0
 25 26  1  0  0  0
 26 27  1  0  0  0
  4  5  1  0  0  0
  5  6  2  0  0  0
 11 12  2  0  0  0
 12 13  1  0  0  0
 13 14  2  0  0  0
 14 15  1  0  0  0
 15  7  2  0  0  0
 14 10  1  0  0  0
  6  1  1  0  0  0
 42 37  1  0  0  0
 27 22  1  0  0  0
 34 32  1  0  0  0
 35 36  1  0  0  0
 20 21  1  0  0  0
 28 31  1  0  0  0
M  END
> <minimizedAffinity>
-7.15691

> <CNNscore>
0.1515771002

> <CNNaffinity>
6.8835868835

> <CNN_VS>
1.0433940887

> <CNNaffinity_variance>
0.2172899991

$$$$
[H]c1nc([H])c(N([H])c2c([H])c(-c3c([H])c([H])c4c([H])c(C#N)c([H])nn34)nc([H])c2C(=O)N([H])[C@]2([H])C([H])([H])C([H])([H])[C@@]([H])(N([H])C(=O)C3([H])C([H])([H])C3([H])[H])C([H])([H])C2([H])[H])c([H])c1[H]


 42 47  0  0  0  0  0  0  0  0999 V2000
  -20.0627   11.2933  -16.2233 C   0  0  0  0  0  0  0  0  0  0  0  0
  -19.4665   11.6625  -17.3920 C   0  0  0  0  0  0  0  0  0  0  0  0
  -19.7159   12.8231  -18.1191 C   0  0  0  0  0  0  0  0  0  0  0  0
  -20.6764   13.6870  -17.5832 C   0  0  0  0  0  0  0  0  0  0  0  0
  -21.2998   13.3184  -16.3819 C   0  0  0  0  0  0  0  0  0  0  0  0
  -20.9946   12.1805  -15.7530 N   0  0  0  0  0  0  0  0  0  0  0  0
  -18.9764    9.1737  -11.5947 C   0  0  0  0  0  0  0  0  0  0  0  0
  -19.1806   10.4868  -11.9308 C   0  0  0  0  0  0  0  0  0  0  0  0
  -19.4520   10.7886  -13.2020 N   0  0  0  0  0  0  0  0  0  0  0  0
  -19.5387    9.8929  -14.1721 N   0  0  0  0  0  0  0  0  0  0  0  0
  -19.7987   10.0806  -15.4606 C   0  0  0  0  0  0  0  0  0  0  0  0
  -19.7703    8.8060  -16.0418 C   0  0  0  0  0  0  0  0  0  0  0  0
  -19.4896    7.8862  -15.0626 C   0  0  0  0  0  0  0  0  0  0  0  0
  -19.3446    8.5987  -13.8730 C   0  0  0  0  0  0  0  0  0  0  0  0
  -19.0608    8.2171  -12.5829 C   0  0  0  0  0  0  0  0  0  0  0  0
  -18.4362    8.5698   -9.1354 N   0  0  0  0  0  0  0  0  0  0  0  0
  -18.6791    8.8363  -10.2368 C   0  0  0  0  0  0  0  0  0  0  0  0
  -20.9676   14.9664  -18.1749 C   0  0  0  0  0  0  0  0  0  0  0  0
  -22.1121   15.5050  -17.9796 O   0  0  0  0  0  0  0  0  0  0  0  0
  -20.0576   15.6861  -18.9718 N   0  0  0  0  0  0  0  0  0  0  0  0
  -19.1143   15.2975  -19.1521 H   0  0  0  0  0  0  0  0  0  0  0  0
  -20.4776   16.9684  -19.5161 C   0  0  0  0  0  0  0  0  0  0  0  0
  -19.2125   17.8271  -19.6100 C   0  0  0  0  0  0  0  0  0  0  0  0
  -19.5462   19.1080  -20.3661 C   0  0  0  0  0  0  0  0  0  0  0  0
  -19.6968   18.6812  -21.8338 C   0  0  0  0  0  0  0  0  0  0  0  0
  -20.1560   17.2688  -21.9433 C   0  0  0  0  0  0  0  0  0  0  0  0
  -21.1569   16.9123  -20.8314 C   0  0  0  0  0  0  0  0  0  0  0  0
  -20.6756   19.5781  -22.4307 N   0  0  0  0  0  0  0  0  0  0  0  0
  -20.3291   20.3226  -23.5771 C   0  0  0  0  0  0  0  0  0  0  0  0
  -19.1629   20.2125  -24.0797 O   0  0  0  0  0  0  0  0  0  0  0  0
  -21.6221   19.6719  -22.0249 H   0  0  0  0  0  0  0  0  0  0  0  0
  -21.3019   21.2333  -24.2073 C   0  0  0  0  0  0  0  0  0  0  0  0
  -22.7395   21.0222  -24.0284 C   0  0  0  0  0  0  0  0  0  0  0  0
  -22.1299   20.5233  -25.2971 C   0  0  0  0  0  0  0  0  0  0  0  0
  -19.1181   13.0072  -19.3666 N   0  0  0  0  0  0  0  0  0  0  0  0
  -19.4642   13.7398  -20.0230 H   0  0  0  0  0  0  0  0  0  0  0  0
  -18.0652   12.2112  -19.8621 C   0  0  0  0  0  0  0  0  0  0  0  0
  -17.2040   11.4503  -19.0606 C   0  0  0  0  0  0  0  0  0  0  0  0
  -16.1946   10.6955  -19.6000 C   0  0  0  0  0  0  0  0  0  0  0  0
  -16.0217   10.6845  -20.9638 C   0  0  0  0  0  0  0  0  0  0  0  0
  -16.8290   11.4034  -21.7622 N   0  0  0  0  0  0  0  0  0  0  0  0
  -17.8099   12.1354  -21.2332 C   0  0  0  0  0  0  0  0  0  0  0  0
 16 17  3  0  0  0
 17  7  1  0  0  0
  7  8  1  0  0  0
  8  9  2  0  0  0
  9 10  1  0  0  0
 10 11  1  0  0  0
 11  1  1  0  0  0
  1  2  2  0  0  0
  2  3  1  0  0  0
  3 35  1  0  0  0
 35 37  1  0  0  0
 37 38  2  0  0  0
 38 39  1  0  0  0
 39 40  2  0  0  0
 40 41  1  0  0  0
 41 42  2  0  0  0
  3  4  2  0  0  0
  4 18  1  0  0  0
 18 19  2  0  0  0
 18 20  1  0  0  0
 20 22  1  0  0  0
 22 23  1  0  0  0
 23 24  1  0  0  0
 24 25  1  0  0  0
 25 28  1  0  0  0
 28 29  1  0  0  0
 29 30  2  0  0  0
 29 32  1  0  0  0
 32 33  1  0  0  0
 33 34  1  0  0  0
 25 26  1  0  0  0
 26 27  1  0  0  0
  4  5  1  0  0  0
  5  6  2  0  0  0
 11 12  2  0  0  0
 12 13  1  0  0  0
 13 14  2  0  0  0
 14 15  1  0  0  0
 15  7  2  0  0  0
 14 10  1  0  0  0
  6  1  1  0  0  0
 42 37  1  0  0  0
 27 22  1  0  0  0
 34 32  1  0  0  0
 35 36  1  0  0  0
 20 21  1  0  0  0
 28 31  1  0  0  0
M  END
> <minimizedAffinity>
-8.16573

> <CNNscore>
0.1457769722

> <CNNaffinity>
6.7260169983

> <CNN_VS>
0.9804983735

> <CNNaffinity_variance>
0.0691468269

$$$$
[H]c1nc([H])c(N([H])c2c([H])c(-c3c([H])c([H])c4c([H])c(C#N)c([H])nn34)nc([H])c2C(=O)N([H])[C@]2([H])C([H])([H])C([H])([H])[C@@]([H])(N([H])C(=O)C3([H])C([H])([H])C3([H])[H])C([H])([H])C2([H])[H])c([H])c1[H]


 42 47  0  0  0  0  0  0  0  0999 V2000
  -20.8438   15.9826  -19.0900 C   0  0  0  0  0  0  0  0  0  0  0  0
  -19.7549   15.1676  -19.0036 C   0  0  0  0  0  0  0  0  0  0  0  0
  -19.5639   14.1336  -18.0913 C   0  0  0  0  0  0  0  0  0  0  0  0
  -20.6030   13.9218  -17.1794 C   0  0  0  0  0  0  0  0  0  0  0  0
  -21.7289   14.7548  -17.2554 C   0  0  0  0  0  0  0  0  0  0  0  0
  -21.8240   15.7251  -18.1682 N   0  0  0  0  0  0  0  0  0  0  0  0
  -19.6248   20.8258  -20.5577 C   0  0  0  0  0  0  0  0  0  0  0  0
  -19.1657   20.0903  -19.4960 C   0  0  0  0  0  0  0  0  0  0  0  0
  -19.6305   18.8512  -19.3256 N   0  0  0  0  0  0  0  0  0  0  0  0
  -20.5164   18.2776  -20.1239 N   0  0  0  0  0  0  0  0  0  0  0  0
  -21.0451   17.0621  -20.0473 C   0  0  0  0  0  0  0  0  0  0  0  0
  -21.9249   16.9631  -21.1333 C   0  0  0  0  0  0  0  0  0  0  0  0
  -21.8896   18.1438  -21.8323 C   0  0  0  0  0  0  0  0  0  0  0  0
  -20.9835   18.9732  -21.1727 C   0  0  0  0  0  0  0  0  0  0  0  0
  -20.5474   20.2558  -21.4077 C   0  0  0  0  0  0  0  0  0  0  0  0
  -18.7515   23.2392  -20.9014 N   0  0  0  0  0  0  0  0  0  0  0  0
  -19.1391   22.1576  -20.7494 C   0  0  0  0  0  0  0  0  0  0  0  0
  -20.5857   12.8292  -16.2425 C   0  0  0  0  0  0  0  0  0  0  0  0
  -19.4848   12.5003  -15.6786 O   0  0  0  0  0  0  0  0  0  0  0  0
  -21.7244   12.0796  -15.8924 N   0  0  0  0  0  0  0  0  0  0  0  0
  -22.6417   12.3123  -16.3141 H   0  0  0  0  0  0  0  0  0  0  0  0
  -21.5716   10.9948  -14.9349 C   0  0  0  0  0  0  0  0  0  0  0  0
  -22.9893   10.5882  -14.5209 C   0  0  0  0  0  0  0  0  0  0  0  0
  -22.9079    9.3197  -13.6794 C   0  0  0  0  0  0  0  0  0  0  0  0
  -22.5809    8.1968  -14.6750 C   0  0  0  0  0  0  0  0  0  0  0  0
  -21.8113    8.7130  -15.8408 C   0  0  0  0  0  0  0  0  0  0  0  0
  -20.8221    9.8136  -15.4221 C   0  0  0  0  0  0  0  0  0  0  0  0
  -21.7950    7.2106  -13.9479 N   0  0  0  0  0  0  0  0  0  0  0  0
  -21.9869    5.8381  -14.2091 C   0  0  0  0  0  0  0  0  0  0  0  0
  -22.8487    5.4684  -15.0723 O   0  0  0  0  0  0  0  0  0  0  0  0
  -21.0962    7.5062  -13.2454 H   0  0  0  0  0  0  0  0  0  0  0  0
  -21.2005    4.8171  -13.4935 C   0  0  0  0  0  0  0  0  0  0  0  0
  -19.9587    5.1821  -12.8092 C   0  0  0  0  0  0  0  0  0  0  0  0
  -19.8351    4.5694  -14.1655 C   0  0  0  0  0  0  0  0  0  0  0  0
  -18.3406   13.4639  -18.0415 N   0  0  0  0  0  0  0  0  0  0  0  0
  -17.6479   13.6700  -17.2897 H   0  0  0  0  0  0  0  0  0  0  0  0
  -17.9176   12.5210  -19.0005 C   0  0  0  0  0  0  0  0  0  0  0  0
  -17.9094   12.7481  -20.3831 C   0  0  0  0  0  0  0  0  0  0  0  0
  -17.4879   11.7908  -21.2693 C   0  0  0  0  0  0  0  0  0  0  0  0
  -17.0619   10.5749  -20.7896 C   0  0  0  0  0  0  0  0  0  0  0  0
  -17.0575   10.3230  -19.4696 N   0  0  0  0  0  0  0  0  0  0  0  0
  -17.4677   11.2573  -18.6113 C   0  0  0  0  0  0  0  0  0  0  0  0
 16 17  3  0  0  0
 17  7  1  0  0  0
  7  8  1  0  0  0
  8  9  2  0  0  0
  9 10  1  0  0  0
 10 11  1  0  0  0
 11  1  1  0  0  0
  1  2  2  0  0  0
  2  3  1  0  0  0
  3 35  1  0  0  0
 35 37  1  0  0  0
 37 38  2  0  0  0
 38 39  1  0  0  0
 39 40  2  0  0  0
 40 41  1  0  0  0
 41 42  2  0  0  0
  3  4  2  0  0  0
  4 18  1  0  0  0
 18 19  2  0  0  0
 18 20  1  0  0  0
 20 22  1  0  0  0
 22 23  1  0  0  0
 23 24  1  0  0  0
 24 25  1  0  0  0
 25 28  1  0  0  0
 28 29  1  0  0  0
 29 30  2  0  0  0
 29 32  1  0  0  0
 32 33  1  0  0  0
 33 34  1  0  0  0
 25 26  1  0  0  0
 26 27  1  0  0  0
  4  5  1  0  0  0
  5  6  2  0  0  0
 11 12  2  0  0  0
 12 13  1  0  0  0
 13 14  2  0  0  0
 14 15  1  0  0  0
 15  7  2  0  0  0
 14 10  1  0  0  0
  6  1  1  0  0  0
 42 37  1  0  0  0
 27 22  1  0  0  0
 34 32  1  0  0  0
 35 36  1  0  0  0
 20 21  1  0  0  0
 28 31  1  0  0  0
M  END
> <minimizedAffinity>
-6.82392

> <CNNscore>
0.1300940514

> <CNNaffinity>
6.7070894241

> <CNN_VS>
0.8725524545

> <CNNaffinity_variance>
0.1199088097

$$$$
[H]c1nc([H])c(N([H])c2c([H])c(-c3c([H])c([H])c4c([H])c(C#N)c([H])nn34)nc([H])c2C(=O)N([H])[C@]2([H])C([H])([H])C([H])([H])[C@@]([H])(N([H])C(=O)C3([H])C([H])([H])C3([H])[H])C([H])([H])C2([H])[H])c([H])c1[H]


 42 47  0  0  0  0  0  0  0  0999 V2000
  -20.2694   14.3037  -18.4977 C   0  0  0  0  0  0  0  0  0  0  0  0
  -19.1315   13.5833  -18.7065 C   0  0  0  0  0  0  0  0  0  0  0  0
  -18.7953   12.3727  -18.1071 C   0  0  0  0  0  0  0  0  0  0  0  0
  -19.7295   11.8566  -17.2032 C   0  0  0  0  0  0  0  0  0  0  0  0
  -20.9043   12.5889  -16.9770 C   0  0  0  0  0  0  0  0  0  0  0  0
  -21.1415   13.7457  -17.6006 N   0  0  0  0  0  0  0  0  0  0  0  0
  -19.7381   19.4818  -18.5385 C   0  0  0  0  0  0  0  0  0  0  0  0
  -19.1763   18.5500  -17.7049 C   0  0  0  0  0  0  0  0  0  0  0  0
  -19.4648   17.2613  -17.8966 N   0  0  0  0  0  0  0  0  0  0  0  0
  -20.2673   16.8174  -18.8505 N   0  0  0  0  0  0  0  0  0  0  0  0
  -20.6228   15.5686  -19.1280 C   0  0  0  0  0  0  0  0  0  0  0  0
  -21.4862   15.6567  -20.2281 C   0  0  0  0  0  0  0  0  0  0  0  0
  -21.6178   16.9782  -20.5746 C   0  0  0  0  0  0  0  0  0  0  0  0
  -20.8314   17.7067  -19.6830 C   0  0  0  0  0  0  0  0  0  0  0  0
  -20.5778   19.0507  -19.5424 C   0  0  0  0  0  0  0  0  0  0  0  0
  -19.1986   21.9900  -18.1876 N   0  0  0  0  0  0  0  0  0  0  0  0
  -19.4419   20.8673  -18.3411 C   0  0  0  0  0  0  0  0  0  0  0  0
  -19.5602   10.5694  -16.5818 C   0  0  0  0  0  0  0  0  0  0  0  0
  -19.0242    9.6151  -17.2453 O   0  0  0  0  0  0  0  0  0  0  0  0
  -19.9507   10.2799  -15.2609 N   0  0  0  0  0  0  0  0  0  0  0  0
  -20.3809   11.0212  -14.6787 H   0  0  0  0  0  0  0  0  0  0  0  0
  -19.7287    8.9349  -14.7523 C   0  0  0  0  0  0  0  0  0  0  0  0
  -19.2664    9.0984  -13.3010 C   0  0  0  0  0  0  0  0  0  0  0  0
  -19.2173    7.7228  -12.6458 C   0  0  0  0  0  0  0  0  0  0  0  0
  -20.6855    7.3307  -12.4228 C   0  0  0  0  0  0  0  0  0  0  0  0
  -21.5746    7.9585  -13.4392 C   0  0  0  0  0  0  0  0  0  0  0  0
  -20.8968    8.0263  -14.8181 C   0  0  0  0  0  0  0  0  0  0  0  0
  -20.7495    5.8800  -12.5230 N   0  0  0  0  0  0  0  0  0  0  0  0
  -21.6146    5.1613  -11.6721 C   0  0  0  0  0  0  0  0  0  0  0  0
  -22.3286    5.7820  -10.8181 O   0  0  0  0  0  0  0  0  0  0  0  0
  -20.1704    5.3724  -13.2131 H   0  0  0  0  0  0  0  0  0  0  0  0
  -21.7057    3.6925  -11.7557 C   0  0  0  0  0  0  0  0  0  0  0  0
  -21.4727    3.0059  -13.0276 C   0  0  0  0  0  0  0  0  0  0  0  0
  -22.8929    3.2401  -12.6295 C   0  0  0  0  0  0  0  0  0  0  0  0
  -17.5357   11.8124  -18.3242 N   0  0  0  0  0  0  0  0  0  0  0  0
  -16.9069   11.5834  -17.5245 H   0  0  0  0  0  0  0  0  0  0  0  0
  -16.9916   11.5652  -19.6011 C   0  0  0  0  0  0  0  0  0  0  0  0
  -16.1012   10.5237  -19.8934 C   0  0  0  0  0  0  0  0  0  0  0  0
  -15.6027   10.3333  -21.1563 C   0  0  0  0  0  0  0  0  0  0  0  0
  -15.9859   11.1869  -22.1635 C   0  0  0  0  0  0  0  0  0  0  0  0
  -16.8375   12.1971  -21.9180 N   0  0  0  0  0  0  0  0  0  0  0  0
  -17.3204   12.3779  -20.6884 C   0  0  0  0  0  0  0  0  0  0  0  0
 16 17  3  0  0  0
 17  7  1  0  0  0
  7  8  1  0  0  0
  8  9  2  0  0  0
  9 10  1  0  0  0
 10 11  1  0  0  0
 11  1  1  0  0  0
  1  2  2  0  0  0
  2  3  1  0  0  0
  3 35  1  0  0  0
 35 37  1  0  0  0
 37 38  2  0  0  0
 38 39  1  0  0  0
 39 40  2  0  0  0
 40 41  1  0  0  0
 41 42  2  0  0  0
  3  4  2  0  0  0
  4 18  1  0  0  0
 18 19  2  0  0  0
 18 20  1  0  0  0
 20 22  1  0  0  0
 22 23  1  0  0  0
 23 24  1  0  0  0
 24 25  1  0  0  0
 25 28  1  0  0  0
 28 29  1  0  0  0
 29 30  2  0  0  0
 29 32  1  0  0  0
 32 33  1  0  0  0
 33 34  1  0  0  0
 25 26  1  0  0  0
 26 27  1  0  0  0
  4  5  1  0  0  0
  5  6  2  0  0  0
 11 12  2  0  0  0
 12 13  1  0  0  0
 13 14  2  0  0  0
 14 15  1  0  0  0
 15  7  2  0  0  0
 14 10  1  0  0  0
  6  1  1  0  0  0
 42 37  1  0  0  0
 27 22  1  0  0  0
 34 32  1  0  0  0
 35 36  1  0  0  0
 20 21  1  0  0  0
 28 31  1  0  0  0
M  END
> <minimizedAffinity>
-6.93601

> <CNNscore>
0.1159202605

> <CNNaffinity>
6.6586236954

> <CNN_VS>
0.7718694210

> <CNNaffinity_variance>
0.0312325153

$$$$
[H]c1c([H])c([H])c(N2C(N3C([H])([H])C([H])([H])C([H])([H])C([H])([H])C3([H])[H])=Nc3c([H])c([H])c([H])c([H])c3C2([H])C([H])([H])C(=O)N([H])C([H])([H])c2c([H])c([H])c([H])c([H])c2[H])c([H])c1[H]


 34 38  0  0  0  0  0  0  0  0999 V2000
  -18.4787   13.8621  -20.4517 C   0  0  0  0  0  0  0  0  0  0  0  0
  -17.9342   12.5601  -20.0534 C   0  0  0  0  0  0  0  0  0  0  0  0
  -18.1642   11.9590  -18.8327 C   0  0  0  0  0  0  0  0  0  0  0  0
  -17.7116   10.6596  -18.6207 C   0  0  0  0  0  0  0  0  0  0  0  0
  -17.0402    9.9548  -19.5897 C   0  0  0  0  0  0  0  0  0  0  0  0
  -16.8012   10.5413  -20.8030 C   0  0  0  0  0  0  0  0  0  0  0  0
  -17.2511   11.8592  -21.0331 C   0  0  0  0  0  0  0  0  0  0  0  0
  -16.8138   12.5043  -22.2250 N   0  0  0  0  0  0  0  0  0  0  0  0
  -17.0359   13.7740  -22.4061 C   0  0  0  0  0  0  0  0  0  0  0  0
  -17.6500   14.5475  -21.3871 N   0  0  0  0  0  0  0  0  0  0  0  0
  -16.5785   14.3568  -23.6257 N   0  0  0  0  0  0  0  0  0  0  0  0
  -15.2431   14.8706  -23.6806 C   0  0  0  0  0  0  0  0  0  0  0  0
  -14.6008   14.5681  -25.0476 C   0  0  0  0  0  0  0  0  0  0  0  0
  -15.5325   15.1667  -26.0773 C   0  0  0  0  0  0  0  0  0  0  0  0
  -16.8082   14.3999  -26.0696 C   0  0  0  0  0  0  0  0  0  0  0  0
  -17.5038   14.3781  -24.7331 C   0  0  0  0  0  0  0  0  0  0  0  0
  -17.4322   15.9420  -21.3197 C   0  0  0  0  0  0  0  0  0  0  0  0
  -18.1761   16.8530  -22.0355 C   0  0  0  0  0  0  0  0  0  0  0  0
  -17.9293   18.2019  -21.9449 C   0  0  0  0  0  0  0  0  0  0  0  0
  -16.9360   18.7120  -21.1429 C   0  0  0  0  0  0  0  0  0  0  0  0
  -16.1942   17.7963  -20.4285 C   0  0  0  0  0  0  0  0  0  0  0  0
  -16.4248   16.4516  -20.5057 C   0  0  0  0  0  0  0  0  0  0  0  0
  -19.2055   14.6711  -19.4622 C   0  0  0  0  0  0  0  0  0  0  0  0
  -21.4350   14.0788  -20.0532 O   0  0  0  0  0  0  0  0  0  0  0  0
  -20.6040   14.9932  -19.8149 C   0  0  0  0  0  0  0  0  0  0  0  0
  -21.0699   16.3388  -19.9002 N   0  0  0  0  0  0  0  0  0  0  0  0
  -20.4343   17.1533  -19.7149 H   0  0  0  0  0  0  0  0  0  0  0  0
  -22.4420   16.6103  -20.2488 C   0  0  0  0  0  0  0  0  0  0  0  0
  -22.5897   17.1906  -21.6040 C   0  0  0  0  0  0  0  0  0  0  0  0
  -21.5302   17.8525  -22.1710 C   0  0  0  0  0  0  0  0  0  0  0  0
  -21.6174   18.4135  -23.4436 C   0  0  0  0  0  0  0  0  0  0  0  0
  -22.7941   18.3058  -24.1584 C   0  0  0  0  0  0  0  0  0  0  0  0
  -23.8673   17.6330  -23.5788 C   0  0  0  0  0  0  0  0  0  0  0  0
  -23.7628   17.0784  -22.3061 C   0  0  0  0  0  0  0  0  0  0  0  0
 24 25  2  0  0  0
 25 23  1  0  0  0
 23  1  1  0  0  0
  1  2  1  0  0  0
  2  3  2  0  0  0
  3  4  1  0  0  0
  4  5  2  0  0  0
  5  6  1  0  0  0
  6  7  2  0  0  0
  7  8  1  0  0  0
  8  9  2  0  0  0
  9 11  1  0  0  0
 11 12  1  0  0  0
 12 13  1  0  0  0
 13 14  1  0  0  0
 14 15  1  0  0  0
 15 16  1  0  0  0
  9 10  1  0  0  0
 10 17  1  0  0  0
 17 18  2  0  0  0
 18 19  1  0  0  0
 19 20  2  0  0  0
 20 21  1  0  0  0
 21 22  2  0  0  0
 25 26  1  0  0  0
 26 28  1  0  0  0
 28 29  1  0  0  0
 29 30  2  0  0  0
 30 31  1  0  0  0
 31 32  2  0  0  0
 32 33  1  0  0  0
 33 34  2  0  0  0
 10  1  1  0  0  0
 22 17  1  0  0  0
 34 29  1  0  0  0
  7  2  1  0  0  0
 16 11  1  0  0  0
 26 27  1  0  0  0
M  END
> <minimizedAffinity>
-9.69298

> <CNNscore>
0.6757176518

> <CNNaffinity>
7.3460283279

> <CNN_VS>
4.9638409615

> <CNNaffinity_variance>
0.0916668996

$$$$
[H]c1c([H])c([H])c(N2C(N3C([H])([H])C([H])([H])C([H])([H])C([H])([H])C3([H])[H])=Nc3c([H])c([H])c([H])c([H])c3C2([H])C([H])([H])C(=O)N([H])C([H])([H])c2c([H])c([H])c([H])c([H])c2[H])c([H])c1[H]


 34 38  0  0  0  0  0  0  0  0999 V2000
  -18.4584   13.8284  -20.4497 C   0  0  0  0  0  0  0  0  0  0  0  0
  -17.9065   12.5287  -20.0539 C   0  0  0  0  0  0  0  0  0  0  0  0
  -18.1362   11.9223  -18.8357 C   0  0  0  0  0  0  0  0  0  0  0  0
  -17.6758   10.6252  -18.6264 C   0  0  0  0  0  0  0  0  0  0  0  0
  -16.9969    9.9278  -19.5956 C   0  0  0  0  0  0  0  0  0  0  0  0
  -16.7581   10.5198  -20.8064 C   0  0  0  0  0  0  0  0  0  0  0  0
  -17.2159   11.8354  -21.0337 C   0  0  0  0  0  0  0  0  0  0  0  0
  -16.7792   12.4872  -22.2222 N   0  0  0  0  0  0  0  0  0  0  0  0
  -17.0091   13.7559  -22.4000 C   0  0  0  0  0  0  0  0  0  0  0  0
  -17.6313   14.5221  -21.3804 N   0  0  0  0  0  0  0  0  0  0  0  0
  -16.5519   14.3455  -23.6164 N   0  0  0  0  0  0  0  0  0  0  0  0
  -15.2145   14.8544  -23.6703 C   0  0  0  0  0  0  0  0  0  0  0  0
  -14.5762   14.5592  -25.0407 C   0  0  0  0  0  0  0  0  0  0  0  0
  -15.5076   15.1688  -26.0642 C   0  0  0  0  0  0  0  0  0  0  0  0
  -16.7863   14.4069  -26.0594 C   0  0  0  0  0  0  0  0  0  0  0  0
  -17.4793   14.3784  -24.7217 C   0  0  0  0  0  0  0  0  0  0  0  0
  -17.4228   15.9178  -21.3079 C   0  0  0  0  0  0  0  0  0  0  0  0
  -16.4316   16.4894  -20.5420 C   0  0  0  0  0  0  0  0  0  0  0  0
  -16.2646   17.8527  -20.4956 C   0  0  0  0  0  0  0  0  0  0  0  0
  -17.0695   18.7133  -21.2038 C   0  0  0  0  0  0  0  0  0  0  0  0
  -18.0600   18.1365  -21.9688 C   0  0  0  0  0  0  0  0  0  0  0  0
  -18.2415   16.7833  -22.0275 C   0  0  0  0  0  0  0  0  0  0  0  0
  -19.1933   14.6295  -19.4598 C   0  0  0  0  0  0  0  0  0  0  0  0
  -21.4207   14.0461  -20.0675 O   0  0  0  0  0  0  0  0  0  0  0  0
  -20.5879   14.9572  -19.8230 C   0  0  0  0  0  0  0  0  0  0  0  0
  -21.0478   16.3046  -19.9118 N   0  0  0  0  0  0  0  0  0  0  0  0
  -20.4103   17.1166  -19.7218 H   0  0  0  0  0  0  0  0  0  0  0  0
  -22.4161   16.5816  -20.2707 C   0  0  0  0  0  0  0  0  0  0  0  0
  -22.5443   17.6864  -21.2495 C   0  0  0  0  0  0  0  0  0  0  0  0
  -23.5655   18.5920  -21.1112 C   0  0  0  0  0  0  0  0  0  0  0  0
  -23.7278   19.6501  -22.0034 C   0  0  0  0  0  0  0  0  0  0  0  0
  -22.8447   19.7986  -23.0547 C   0  0  0  0  0  0  0  0  0  0  0  0
  -21.8093   18.8768  -23.1913 C   0  0  0  0  0  0  0  0  0  0  0  0
  -21.6620   17.8255  -22.2907 C   0  0  0  0  0  0  0  0  0  0  0  0
 24 25  2  0  0  0
 25 23  1  0  0  0
 23  1  1  0  0  0
  1  2  1  0  0  0
  2  3  2  0  0  0
  3  4  1  0  0  0
  4  5  2  0  0  0
  5  6  1  0  0  0
  6  7  2  0  0  0
  7  8  1  0  0  0
  8  9  2  0  0  0
  9 11  1  0  0  0
 11 12  1  0  0  0
 12 13  1  0  0  0
 13 14  1  0  0  0
 14 15  1  0  0  0
 15 16  1  0  0  0
  9 10  1  0  0  0
 10 17  1  0  0  0
 17 18  2  0  0  0
 18 19  1  0  0  0
 19 20  2  0  0  0
 20 21  1  0  0  0
 21 22  2  0  0  0
 25 26  1  0  0  0
 26 28  1  0  0  0
 28 29  1  0  0  0
 29 30  2  0  0  0
 30 31  1  0  0  0
 31 32  2  0  0  0
 32 33  1  0  0  0
 33 34  2  0  0  0
 10  1  1  0  0  0
 22 17  1  0  0  0
 34 29  1  0  0  0
  7  2  1  0  0  0
 16 11  1  0  0  0
 26 27  1  0  0  0
M  END
> <minimizedAffinity>
-9.32047

> <CNNscore>
0.5095303059

> <CNNaffinity>
7.1152482033

> <CNN_VS>
3.6254346371

> <CNNaffinity_variance>
0.1355445683

$$$$
[H]c1c([H])c([H])c(N2C(N3C([H])([H])C([H])([H])C([H])([H])C([H])([H])C3([H])[H])=Nc3c([H])c([H])c([H])c([H])c3C2([H])C([H])([H])C(=O)N([H])C([H])([H])c2c([H])c([H])c([H])c([H])c2[H])c([H])c1[H]


 34 38  0  0  0  0  0  0  0  0999 V2000
  -17.9225   13.6679  -20.6143 C   0  0  0  0  0  0  0  0  0  0  0  0
  -17.2049   12.4134  -20.3661 C   0  0  0  0  0  0  0  0  0  0  0  0
  -17.2021   11.7419  -19.1606 C   0  0  0  0  0  0  0  0  0  0  0  0
  -16.6016   10.4882  -19.0840 C   0  0  0  0  0  0  0  0  0  0  0  0
  -16.0085    9.8968  -20.1727 C   0  0  0  0  0  0  0  0  0  0  0  0
  -15.9999   10.5546  -21.3730 C   0  0  0  0  0  0  0  0  0  0  0  0
  -16.6021   11.8276  -21.4667 C   0  0  0  0  0  0  0  0  0  0  0  0
  -16.4007   12.5630  -22.6694 N   0  0  0  0  0  0  0  0  0  0  0  0
  -16.7670   13.8095  -22.7483 C   0  0  0  0  0  0  0  0  0  0  0  0
  -17.3032   14.4730  -21.6142 N   0  0  0  0  0  0  0  0  0  0  0  0
  -16.5436   14.4863  -23.9846 N   0  0  0  0  0  0  0  0  0  0  0  0
  -15.3608   15.2806  -24.1266 C   0  0  0  0  0  0  0  0  0  0  0  0
  -14.7760   15.1352  -25.5441 C   0  0  0  0  0  0  0  0  0  0  0  0
  -15.8928   15.5215  -26.4876 C   0  0  0  0  0  0  0  0  0  0  0  0
  -16.9660   14.4936  -26.4031 C   0  0  0  0  0  0  0  0  0  0  0  0
  -17.5343   14.3113  -25.0195 C   0  0  0  0  0  0  0  0  0  0  0  0
  -17.2129   15.8785  -21.5000 C   0  0  0  0  0  0  0  0  0  0  0  0
  -16.2066   16.5116  -20.8056 C   0  0  0  0  0  0  0  0  0  0  0  0
  -16.1572   17.8820  -20.7149 C   0  0  0  0  0  0  0  0  0  0  0  0
  -17.1000   18.6892  -21.3062 C   0  0  0  0  0  0  0  0  0  0  0  0
  -18.1052   18.0509  -21.9999 C   0  0  0  0  0  0  0  0  0  0  0  0
  -18.1710   16.6897  -22.1011 C   0  0  0  0  0  0  0  0  0  0  0  0
  -18.5772   14.3563  -19.4921 C   0  0  0  0  0  0  0  0  0  0  0  0
  -20.7510   13.3994  -19.6653 O   0  0  0  0  0  0  0  0  0  0  0  0
  -19.7621   13.6704  -18.9358 C   0  0  0  0  0  0  0  0  0  0  0  0
  -19.8380   13.2889  -17.5633 N   0  0  0  0  0  0  0  0  0  0  0  0
  -19.0520   13.4819  -16.8949 H   0  0  0  0  0  0  0  0  0  0  0  0
  -21.0129   12.6224  -17.0599 C   0  0  0  0  0  0  0  0  0  0  0  0
  -20.7407   11.2404  -16.6006 C   0  0  0  0  0  0  0  0  0  0  0  0
  -19.5553   10.6398  -16.9415 C   0  0  0  0  0  0  0  0  0  0  0  0
  -19.2505    9.3431  -16.5323 C   0  0  0  0  0  0  0  0  0  0  0  0
  -20.1571    8.6381  -15.7654 C   0  0  0  0  0  0  0  0  0  0  0  0
  -21.3595    9.2516  -15.4216 C   0  0  0  0  0  0  0  0  0  0  0  0
  -21.6476   10.5481  -15.8391 C   0  0  0  0  0  0  0  0  0  0  0  0
 24 25  2  0  0  0
 25 23  1  0  0  0
 23  1  1  0  0  0
  1  2  1  0  0  0
  2  3  2  0  0  0
  3  4  1  0  0  0
  4  5  2  0  0  0
  5  6  1  0  0  0
  6  7  2  0  0  0
  7  8  1  0  0  0
  8  9  2  0  0  0
  9 11  1  0  0  0
 11 12  1  0  0  0
 12 13  1  0  0  0
 13 14  1  0  0  0
 14 15  1  0  0  0
 15 16  1  0  0  0
  9 10  1  0  0  0
 10 17  1  0  0  0
 17 18  2  0  0  0
 18 19  1  0  0  0
 19 20  2  0  0  0
 20 21  1  0  0  0
 21 22  2  0  0  0
 25 26  1  0  0  0
 26 28  1  0  0  0
 28 29  1  0  0  0
 29 30  2  0  0  0
 30 31  1  0  0  0
 31 32  2  0  0  0
 32 33  1  0  0  0
 33 34  2  0  0  0
 10  1  1  0  0  0
 22 17  1  0  0  0
 34 29  1  0  0  0
  7  2  1  0  0  0
 16 11  1  0  0  0
 26 27  1  0  0  0
M  END
> <minimizedAffinity>
-9.50696

> <CNNscore>
0.4872151315

> <CNNaffinity>
7.0894112587

> <CNN_VS>
3.4540684223

> <CNNaffinity_variance>
0.1643200219

$$$$
[H]c1c([H])c([H])c(N2C(N3C([H])([H])C([H])([H])C([H])([H])C([H])([H])C3([H])[H])=Nc3c([H])c([H])c([H])c([H])c3C2([H])C([H])([H])C(=O)N([H])C([H])([H])c2c([H])c([H])c([H])c([H])c2[H])c([H])c1[H]


 34 38  0  0  0  0  0  0  0  0999 V2000
  -18.7038   13.3533  -21.1540 C   0  0  0  0  0  0  0  0  0  0  0  0
  -18.0627   12.2952  -20.3667 C   0  0  0  0  0  0  0  0  0  0  0  0
  -18.5003   11.8703  -19.1289 C   0  0  0  0  0  0  0  0  0  0  0  0
  -17.8968   10.7625  -18.5398 C   0  0  0  0  0  0  0  0  0  0  0  0
  -16.8755   10.0777  -19.1520 C   0  0  0  0  0  0  0  0  0  0  0  0
  -16.4288   10.4920  -20.3776 C   0  0  0  0  0  0  0  0  0  0  0  0
  -17.0282   11.6150  -20.9872 C   0  0  0  0  0  0  0  0  0  0  0  0
  -16.4099   12.1344  -22.1602 N   0  0  0  0  0  0  0  0  0  0  0  0
  -16.7983   13.2712  -22.6611 C   0  0  0  0  0  0  0  0  0  0  0  0
  -17.7908   14.0433  -22.0035 N   0  0  0  0  0  0  0  0  0  0  0  0
  -16.1423   13.7308  -23.8422 N   0  0  0  0  0  0  0  0  0  0  0  0
  -16.8485   13.6676  -25.0863 C   0  0  0  0  0  0  0  0  0  0  0  0
  -16.5456   14.9093  -25.9461 C   0  0  0  0  0  0  0  0  0  0  0  0
  -15.0411   14.9454  -26.0943 C   0  0  0  0  0  0  0  0  0  0  0  0
  -14.4375   15.2369  -24.7654 C   0  0  0  0  0  0  0  0  0  0  0  0
  -14.8006   14.2413  -23.6941 C   0  0  0  0  0  0  0  0  0  0  0  0
  -17.8515   15.4419  -22.1960 C   0  0  0  0  0  0  0  0  0  0  0  0
  -18.7438   16.0429  -23.0553 C   0  0  0  0  0  0  0  0  0  0  0  0
  -18.7677   17.4074  -23.2171 C   0  0  0  0  0  0  0  0  0  0  0  0
  -17.9109   18.2402  -22.5371 C   0  0  0  0  0  0  0  0  0  0  0  0
  -17.0198   17.6341  -21.6783 C   0  0  0  0  0  0  0  0  0  0  0  0
  -16.9811   16.2792  -21.5043 C   0  0  0  0  0  0  0  0  0  0  0  0
  -19.8015   14.1288  -20.5578 C   0  0  0  0  0  0  0  0  0  0  0  0
  -20.3210   14.2407  -18.2365 O   0  0  0  0  0  0  0  0  0  0  0  0
  -19.5649   14.5983  -19.1766 C   0  0  0  0  0  0  0  0  0  0  0  0
  -18.4819   15.4676  -18.8502 N   0  0  0  0  0  0  0  0  0  0  0  0
  -17.8102   15.8074  -19.5817 H   0  0  0  0  0  0  0  0  0  0  0  0
  -18.2867   15.9036  -17.4902 C   0  0  0  0  0  0  0  0  0  0  0  0
  -18.9327   17.2056  -17.2027 C   0  0  0  0  0  0  0  0  0  0  0  0
  -19.3396   17.4861  -15.9230 C   0  0  0  0  0  0  0  0  0  0  0  0
  -19.9495   18.6968  -15.6004 C   0  0  0  0  0  0  0  0  0  0  0  0
  -20.1533   19.6427  -16.5858 C   0  0  0  0  0  0  0  0  0  0  0  0
  -19.7387   19.3537  -17.8838 C   0  0  0  0  0  0  0  0  0  0  0  0
  -19.1309   18.1388  -18.1884 C   0  0  0  0  0  0  0  0  0  0  0  0
 24 25  2  0  0  0
 25 23  1  0  0  0
 23  1  1  0  0  0
  1  2  1  0  0  0
  2  3  2  0  0  0
  3  4  1  0  0  0
  4  5  2  0  0  0
  5  6  1  0  0  0
  6  7  2  0  0  0
  7  8  1  0  0  0
  8  9  2  0  0  0
  9 11  1  0  0  0
 11 12  1  0  0  0
 12 13  1  0  0  0
 13 14  1  0  0  0
 14 15  1  0  0  0
 15 16  1  0  0  0
  9 10  1  0  0  0
 10 17  1  0  0  0
 17 18  2  0  0  0
 18 19  1  0  0  0
 19 20  2  0  0  0
 20 21  1  0  0  0
 21 22  2  0  0  0
 25 26  1  0  0  0
 26 28  1  0  0  0
 28 29  1  0  0  0
 29 30  2  0  0  0
 30 31  1  0  0  0
 31 32  2  0  0  0
 32 33  1  0  0  0
 33 34  2  0  0  0
 10  1  1  0  0  0
 22 17  1  0  0  0
 34 29  1  0  0  0
  7  2  1  0  0  0
 16 11  1  0  0  0
 26 27  1  0  0  0
M  END
> <minimizedAffinity>
-9.24879

> <CNNscore>
0.4240042567

> <CNNaffinity>
7.0409379005

> <CNN_VS>
2.9853875637

> <CNNaffinity_variance>
0.1873208433

$$$$
[H]c1c([H])c([H])c(N2C(N3C([H])([H])C([H])([H])C([H])([H])C([H])([H])C3([H])[H])=Nc3c([H])c([H])c([H])c([H])c3C2([H])C([H])([H])C(=O)N([H])C([H])([H])c2c([H])c([H])c([H])c([H])c2[H])c([H])c1[H]


 34 38  0  0  0  0  0  0  0  0999 V2000
  -18.3147   13.2740  -21.5439 C   0  0  0  0  0  0  0  0  0  0  0  0
  -17.6155   12.1911  -20.8448 C   0  0  0  0  0  0  0  0  0  0  0  0
  -17.9925   11.6834  -19.6182 C   0  0  0  0  0  0  0  0  0  0  0  0
  -17.3373   10.5613  -19.1183 C   0  0  0  0  0  0  0  0  0  0  0  0
  -16.3235    9.9421  -19.8079 C   0  0  0  0  0  0  0  0  0  0  0  0
  -15.9366   10.4388  -21.0232 C   0  0  0  0  0  0  0  0  0  0  0  0
  -16.5889   11.5774  -21.5429 C   0  0  0  0  0  0  0  0  0  0  0  0
  -16.0313   12.1807  -22.7061 N   0  0  0  0  0  0  0  0  0  0  0  0
  -16.4688   13.3330  -23.1244 C   0  0  0  0  0  0  0  0  0  0  0  0
  -17.4545   14.0375  -22.3856 N   0  0  0  0  0  0  0  0  0  0  0  0
  -15.8724   13.8781  -24.3007 N   0  0  0  0  0  0  0  0  0  0  0  0
  -16.5885   13.7862  -25.5372 C   0  0  0  0  0  0  0  0  0  0  0  0
  -16.4066   15.0712  -26.3668 C   0  0  0  0  0  0  0  0  0  0  0  0
  -14.9132   15.2417  -26.5325 C   0  0  0  0  0  0  0  0  0  0  0  0
  -14.3177   15.5500  -25.2036 C   0  0  0  0  0  0  0  0  0  0  0  0
  -14.5777   14.4993  -24.1553 C   0  0  0  0  0  0  0  0  0  0  0  0
  -17.5594   15.4425  -22.4934 C   0  0  0  0  0  0  0  0  0  0  0  0
  -16.7970   16.3112  -21.7453 C   0  0  0  0  0  0  0  0  0  0  0  0
  -16.9326   17.6724  -21.8773 C   0  0  0  0  0  0  0  0  0  0  0  0
  -17.8279   18.2371  -22.7545 C   0  0  0  0  0  0  0  0  0  0  0  0
  -18.5887   17.3636  -23.5009 C   0  0  0  0  0  0  0  0  0  0  0  0
  -18.4680   16.0074  -23.3835 C   0  0  0  0  0  0  0  0  0  0  0  0
  -19.4079   13.9824  -20.8620 C   0  0  0  0  0  0  0  0  0  0  0  0
  -18.3154   14.7552  -18.8922 O   0  0  0  0  0  0  0  0  0  0  0  0
  -19.2653   14.1013  -19.3959 C   0  0  0  0  0  0  0  0  0  0  0  0
  -20.1865   13.4877  -18.4960 N   0  0  0  0  0  0  0  0  0  0  0  0
  -21.0030   12.9268  -18.8430 H   0  0  0  0  0  0  0  0  0  0  0  0
  -20.0108   13.6267  -17.0720 C   0  0  0  0  0  0  0  0  0  0  0  0
  -20.5388   12.4715  -16.3093 C   0  0  0  0  0  0  0  0  0  0  0  0
  -20.1540   11.2022  -16.6597 C   0  0  0  0  0  0  0  0  0  0  0  0
  -20.6200   10.0830  -15.9726 C   0  0  0  0  0  0  0  0  0  0  0  0
  -21.4902   10.2456  -14.9127 C   0  0  0  0  0  0  0  0  0  0  0  0
  -21.8784   11.5362  -14.5604 C   0  0  0  0  0  0  0  0  0  0  0  0
  -21.4029   12.6432  -15.2579 C   0  0  0  0  0  0  0  0  0  0  0  0
 24 25  2  0  0  0
 25 23  1  0  0  0
 23  1  1  0  0  0
  1  2  1  0  0  0
  2  3  2  0  0  0
  3  4  1  0  0  0
  4  5  2  0  0  0
  5  6  1  0  0  0
  6  7  2  0  0  0
  7  8  1  0  0  0
  8  9  2  0  0  0
  9 11  1  0  0  0
 11 12  1  0  0  0
 12 13  1  0  0  0
 13 14  1  0  0  0
 14 15  1  0  0  0
 15 16  1  0  0  0
  9 10  1  0  0  0
 10 17  1  0  0  0
 17 18  2  0  0  0
 18 19  1  0  0  0
 19 20  2  0  0  0
 20 21  1  0  0  0
 21 22  2  0  0  0
 25 26  1  0  0  0
 26 28  1  0  0  0
 28 29  1  0  0  0
 29 30  2  0  0  0
 30 31  1  0  0  0
 31 32  2  0  0  0
 32 33  1  0  0  0
 33 34  2  0  0  0
 10  1  1  0  0  0
 22 17  1  0  0  0
 34 29  1  0  0  0
  7  2  1  0  0  0
 16 11  1  0  0  0
 26 27  1  0  0  0
M  END
> <minimizedAffinity>
-9.44018

> <CNNscore>
0.3658551574

> <CNNaffinity>
6.9067926407

> <CNN_VS>
2.5268857479

> <CNNaffinity_variance>
0.2510669827

$$$$
[H]c1c([H])c([H])c(N2C(N3C([H])([H])C([H])([H])C([H])([H])C([H])([H])C3([H])[H])=Nc3c([H])c([H])c([H])c([H])c3C2([H])C([H])([H])C(=O)N([H])C([H])([H])c2c([H])c([H])c([H])c([H])c2[H])c([H])c1[H]


 34 38  0  0  0  0  0  0  0  0999 V2000
  -18.2961   13.2454  -21.5079 C   0  0  0  0  0  0  0  0  0  0  0  0
  -17.5676   12.1751  -20.8192 C   0  0  0  0  0  0  0  0  0  0  0  0
  -17.9054   11.6756  -19.5779 C   0  0  0  0  0  0  0  0  0  0  0  0
  -17.2263   10.5639  -19.0866 C   0  0  0  0  0  0  0  0  0  0  0  0
  -16.2268    9.9473  -19.7989 C   0  0  0  0  0  0  0  0  0  0  0  0
  -15.8788   10.4360  -21.0292 C   0  0  0  0  0  0  0  0  0  0  0  0
  -16.5557   11.5640  -21.5404 C   0  0  0  0  0  0  0  0  0  0  0  0
  -16.0365   12.1613  -22.7243 N   0  0  0  0  0  0  0  0  0  0  0  0
  -16.4960   13.3058  -23.1405 C   0  0  0  0  0  0  0  0  0  0  0  0
  -17.4668   14.0085  -22.3805 N   0  0  0  0  0  0  0  0  0  0  0  0
  -15.9379   13.8452  -24.3380 N   0  0  0  0  0  0  0  0  0  0  0  0
  -16.7390   13.8509  -25.5248 C   0  0  0  0  0  0  0  0  0  0  0  0
  -16.5130   15.1468  -26.3262 C   0  0  0  0  0  0  0  0  0  0  0  0
  -15.0251   15.2097  -26.5886 C   0  0  0  0  0  0  0  0  0  0  0  0
  -14.3211   15.4255  -25.2950 C   0  0  0  0  0  0  0  0  0  0  0  0
  -14.5922   14.3613  -24.2631 C   0  0  0  0  0  0  0  0  0  0  0  0
  -17.5873   15.4115  -22.4979 C   0  0  0  0  0  0  0  0  0  0  0  0
  -18.5738   16.0201  -23.2411 C   0  0  0  0  0  0  0  0  0  0  0  0
  -18.6538   17.3889  -23.3331 C   0  0  0  0  0  0  0  0  0  0  0  0
  -17.7626   18.2187  -22.6950 C   0  0  0  0  0  0  0  0  0  0  0  0
  -16.7771   17.6050  -21.9526 C   0  0  0  0  0  0  0  0  0  0  0  0
  -16.6815   16.2457  -21.8493 C   0  0  0  0  0  0  0  0  0  0  0  0
  -19.3759   13.9505  -20.8019 C   0  0  0  0  0  0  0  0  0  0  0  0
  -17.9729   14.7451  -19.0494 O   0  0  0  0  0  0  0  0  0  0  0  0
  -18.9328   14.9725  -19.8306 C   0  0  0  0  0  0  0  0  0  0  0  0
  -19.5652   16.2477  -19.7357 N   0  0  0  0  0  0  0  0  0  0  0  0
  -20.3719   16.5085  -20.3546 H   0  0  0  0  0  0  0  0  0  0  0  0
  -19.1031   17.2164  -18.7735 C   0  0  0  0  0  0  0  0  0  0  0  0
  -19.4631   18.6072  -19.1355 C   0  0  0  0  0  0  0  0  0  0  0  0
  -20.2623   18.8322  -20.2276 C   0  0  0  0  0  0  0  0  0  0  0  0
  -20.6315   20.1209  -20.6081 C   0  0  0  0  0  0  0  0  0  0  0  0
  -20.1870   21.2033  -19.8747 C   0  0  0  0  0  0  0  0  0  0  0  0
  -19.3756   20.9703  -18.7667 C   0  0  0  0  0  0  0  0  0  0  0  0
  -19.0165   19.6760  -18.4007 C   0  0  0  0  0  0  0  0  0  0  0  0
 24 25  2  0  0  0
 25 23  1  0  0  0
 23  1  1  0  0  0
  1  2  1  0  0  0
  2  3  2  0  0  0
  3  4  1  0  0  0
  4  5  2  0  0  0
  5  6  1  0  0  0
  6  7  2  0  0  0
  7  8  1  0  0  0
  8  9  2  0  0  0
  9 11  1  0  0  0
 11 12  1  0  0  0
 12 13  1  0  0  0
 13 14  1  0  0  0
 14 15  1  0  0  0
 15 16  1  0  0  0
  9 10  1  0  0  0
 10 17  1  0  0  0
 17 18  2  0  0  0
 18 19  1  0  0  0
 19 20  2  0  0  0
 20 21  1  0  0  0
 21 22  2  0  0  0
 25 26  1  0  0  0
 26 28  1  0  0  0
 28 29  1  0  0  0
 29 30  2  0  0  0
 30 31  1  0  0  0
 31 32  2  0  0  0
 32 33  1  0  0  0
 33 34  2  0  0  0
 10  1  1  0  0  0
 22 17  1  0  0  0
 34 29  1  0  0  0
  7  2  1  0  0  0
 16 11  1  0  0  0
 26 27  1  0  0  0
M  END
> <minimizedAffinity>
-9.03778

> <CNNscore>
0.3567328453

> <CNNaffinity>
6.9893250465

> <CNN_VS>
2.4933218956

> <CNNaffinity_variance>
0.2256112844

$$$$
[H]c1c([H])c([H])c(N2C(N3C([H])([H])C([H])([H])C([H])([H])C([H])([H])C3([H])[H])=Nc3c([H])c([H])c([H])c([H])c3C2([H])C([H])([H])C(=O)N([H])C([H])([H])c2c([H])c([H])c([H])c([H])c2[H])c([H])c1[H]


 34 38  0  0  0  0  0  0  0  0999 V2000
  -18.3493   13.8370  -20.2450 C   0  0  0  0  0  0  0  0  0  0  0  0
  -17.7684   12.5326  -19.9110 C   0  0  0  0  0  0  0  0  0  0  0  0
  -17.8716   11.9263  -18.6756 C   0  0  0  0  0  0  0  0  0  0  0  0
  -17.4015   10.6255  -18.5173 C   0  0  0  0  0  0  0  0  0  0  0  0
  -16.8351    9.9243  -19.5537 C   0  0  0  0  0  0  0  0  0  0  0  0
  -16.7222   10.5161  -20.7827 C   0  0  0  0  0  0  0  0  0  0  0  0
  -17.1914   11.8354  -20.9592 C   0  0  0  0  0  0  0  0  0  0  0  0
  -16.8790   12.4855  -22.1871 N   0  0  0  0  0  0  0  0  0  0  0  0
  -17.1168   13.7562  -22.3387 C   0  0  0  0  0  0  0  0  0  0  0  0
  -17.6209   14.5257  -21.2582 N   0  0  0  0  0  0  0  0  0  0  0  0
  -16.7873   14.3440  -23.5966 N   0  0  0  0  0  0  0  0  0  0  0  0
  -15.4926   14.9339  -23.7586 C   0  0  0  0  0  0  0  0  0  0  0  0
  -14.9374   14.6464  -25.1664 C   0  0  0  0  0  0  0  0  0  0  0  0
  -15.9774   15.1721  -26.1301 C   0  0  0  0  0  0  0  0  0  0  0  0
  -17.2010   14.3322  -26.0165 C   0  0  0  0  0  0  0  0  0  0  0  0
  -17.7923   14.2925  -24.6310 C   0  0  0  0  0  0  0  0  0  0  0  0
  -17.3951   15.9196  -21.2076 C   0  0  0  0  0  0  0  0  0  0  0  0
  -16.3138   16.4817  -20.5667 C   0  0  0  0  0  0  0  0  0  0  0  0
  -16.1326   17.8436  -20.5370 C   0  0  0  0  0  0  0  0  0  0  0  0
  -17.0118   18.7123  -21.1391 C   0  0  0  0  0  0  0  0  0  0  0  0
  -18.0924   18.1450  -21.7792 C   0  0  0  0  0  0  0  0  0  0  0  0
  -18.2893   16.7933  -21.8193 C   0  0  0  0  0  0  0  0  0  0  0  0
  -18.9684   14.6423  -19.1820 C   0  0  0  0  0  0  0  0  0  0  0  0
  -21.1551   13.6993  -19.1893 O   0  0  0  0  0  0  0  0  0  0  0  0
  -20.1385   14.0253  -18.5231 C   0  0  0  0  0  0  0  0  0  0  0  0
  -20.1686   13.7742  -17.1192 N   0  0  0  0  0  0  0  0  0  0  0  0
  -19.3576   14.0193  -16.4995 H   0  0  0  0  0  0  0  0  0  0  0  0
  -21.3303   13.1715  -16.5151 C   0  0  0  0  0  0  0  0  0  0  0  0
  -21.9532   14.0286  -15.4795 C   0  0  0  0  0  0  0  0  0  0  0  0
  -21.8881   15.3929  -15.6078 C   0  0  0  0  0  0  0  0  0  0  0  0
  -22.4601   16.2425  -14.6628 C   0  0  0  0  0  0  0  0  0  0  0  0
  -23.1098   15.7074  -13.5680 C   0  0  0  0  0  0  0  0  0  0  0  0
  -23.1734   14.3217  -13.4416 C   0  0  0  0  0  0  0  0  0  0  0  0
  -22.5963   13.4877  -14.3953 C   0  0  0  0  0  0  0  0  0  0  0  0
 24 25  2  0  0  0
 25 23  1  0  0  0
 23  1  1  0  0  0
  1  2  1  0  0  0
  2  3  2  0  0  0
  3  4  1  0  0  0
  4  5  2  0  0  0
  5  6  1  0  0  0
  6  7  2  0  0  0
  7  8  1  0  0  0
  8  9  2  0  0  0
  9 11  1  0  0  0
 11 12  1  0  0  0
 12 13  1  0  0  0
 13 14  1  0  0  0
 14 15  1  0  0  0
 15 16  1  0  0  0
  9 10  1  0  0  0
 10 17  1  0  0  0
 17 18  2  0  0  0
 18 19  1  0  0  0
 19 20  2  0  0  0
 20 21  1  0  0  0
 21 22  2  0  0  0
 25 26  1  0  0  0
 26 28  1  0  0  0
 28 29  1  0  0  0
 29 30  2  0  0  0
 30 31  1  0  0  0
 31 32  2  0  0  0
 32 33  1  0  0  0
 33 34  2  0  0  0
 10  1  1  0  0  0
 22 17  1  0  0  0
 34 29  1  0  0  0
  7  2  1  0  0  0
 16 11  1  0  0  0
 26 27  1  0  0  0
M  END
> <minimizedAffinity>
-8.71300

> <CNNscore>
0.3372257352

> <CNNaffinity>
6.8304390907

> <CNN_VS>
2.3033998013

> <CNNaffinity_variance>
0.1081313491

$$$$
[H]c1c([H])c([H])c(N2C(N3C([H])([H])C([H])([H])C([H])([H])C([H])([H])C3([H])[H])=Nc3c([H])c([H])c([H])c([H])c3C2([H])C([H])([H])C(=O)N([H])C([H])([H])c2c([H])c([H])c([H])c([H])c2[H])c([H])c1[H]


 34 38  0  0  0  0  0  0  0  0999 V2000
  -18.1696   14.0277  -20.6448 C   0  0  0  0  0  0  0  0  0  0  0  0
  -17.8981   12.6318  -20.2871 C   0  0  0  0  0  0  0  0  0  0  0  0
  -17.6497   11.6270  -21.1999 C   0  0  0  0  0  0  0  0  0  0  0  0
  -17.2654   10.3711  -20.7381 C   0  0  0  0  0  0  0  0  0  0  0  0
  -17.1266   10.0983  -19.3991 C   0  0  0  0  0  0  0  0  0  0  0  0
  -17.3750   11.0847  -18.4833 C   0  0  0  0  0  0  0  0  0  0  0  0
  -17.7681   12.3627  -18.9349 C   0  0  0  0  0  0  0  0  0  0  0  0
  -18.2082   13.2991  -17.9563 N   0  0  0  0  0  0  0  0  0  0  0  0
  -18.7579   14.4216  -18.3193 C   0  0  0  0  0  0  0  0  0  0  0  0
  -18.9935   14.6944  -19.6918 N   0  0  0  0  0  0  0  0  0  0  0  0
  -19.1695   15.3188  -17.2886 N   0  0  0  0  0  0  0  0  0  0  0  0
  -18.3763   16.4843  -17.0383 C   0  0  0  0  0  0  0  0  0  0  0  0
  -19.2747   17.6939  -16.7183 C   0  0  0  0  0  0  0  0  0  0  0  0
  -20.1290   17.2683  -15.5454 C   0  0  0  0  0  0  0  0  0  0  0  0
  -21.0623   16.2005  -15.9974 C   0  0  0  0  0  0  0  0  0  0  0  0
  -20.3763   14.9871  -16.5700 C   0  0  0  0  0  0  0  0  0  0  0  0
  -20.0131   15.5940  -20.0765 C   0  0  0  0  0  0  0  0  0  0  0  0
  -19.7622   16.8914  -20.4631 C   0  0  0  0  0  0  0  0  0  0  0  0
  -20.7834   17.7363  -20.8262 C   0  0  0  0  0  0  0  0  0  0  0  0
  -22.0992   17.3377  -20.8236 C   0  0  0  0  0  0  0  0  0  0  0  0
  -22.3452   16.0384  -20.4359 C   0  0  0  0  0  0  0  0  0  0  0  0
  -21.3431   15.1837  -20.0715 C   0  0  0  0  0  0  0  0  0  0  0  0
  -18.3335   14.3888  -22.0606 C   0  0  0  0  0  0  0  0  0  0  0  0
  -16.6488   15.9030  -22.7952 O   0  0  0  0  0  0  0  0  0  0  0  0
  -17.0840   14.7225  -22.7755 C   0  0  0  0  0  0  0  0  0  0  0  0
  -16.3234   13.7336  -23.4675 N   0  0  0  0  0  0  0  0  0  0  0  0
  -16.6242   12.7284  -23.4946 H   0  0  0  0  0  0  0  0  0  0  0  0
  -15.1102   14.1009  -24.1538 C   0  0  0  0  0  0  0  0  0  0  0  0
  -15.3490   14.5662  -25.5400 C   0  0  0  0  0  0  0  0  0  0  0  0
  -14.4748   15.4565  -26.1103 C   0  0  0  0  0  0  0  0  0  0  0  0
  -14.6535   15.9224  -27.4114 C   0  0  0  0  0  0  0  0  0  0  0  0
  -15.7333   15.4832  -28.1519 C   0  0  0  0  0  0  0  0  0  0  0  0
  -16.6185   14.5794  -27.5689 C   0  0  0  0  0  0  0  0  0  0  0  0
  -16.4247   14.1243  -26.2675 C   0  0  0  0  0  0  0  0  0  0  0  0
 24 25  2  0  0  0
 25 23  1  0  0  0
 23  1  1  0  0  0
  1  2  1  0  0  0
  2  3  2  0  0  0
  3  4  1  0  0  0
  4  5  2  0  0  0
  5  6  1  0  0  0
  6  7  2  0  0  0
  7  8  1  0  0  0
  8  9  2  0  0  0
  9 11  1  0  0  0
 11 12  1  0  0  0
 12 13  1  0  0  0
 13 14  1  0  0  0
 14 15  1  0  0  0
 15 16  1  0  0  0
  9 10  1  0  0  0
 10 17  1  0  0  0
 17 18  2  0  0  0
 18 19  1  0  0  0
 19 20  2  0  0  0
 20 21  1  0  0  0
 21 22  2  0  0  0
 25 26  1  0  0  0
 26 28  1  0  0  0
 28 29  1  0  0  0
 29 30  2  0  0  0
 30 31  1  0  0  0
 31 32  2  0  0  0
 32 33  1  0  0  0
 33 34  2  0  0  0
 10  1  1  0  0  0
 22 17  1  0  0  0
 34 29  1  0  0  0
  7  2  1  0  0  0
 16 11  1  0  0  0
 26 27  1  0  0  0
M  END
> <minimizedAffinity>
-8.89440

> <CNNscore>
0.3113072813

> <CNNaffinity>
6.8874878883

> <CNN_VS>
2.1441252232

> <CNNaffinity_variance>
0.0892415196

$$$$
[H]c1c([H])c([H])c(N2C(N3C([H])([H])C([H])([H])C([H])([H])C([H])([H])C3([H])[H])=Nc3c([H])c([H])c([H])c([H])c3C2([H])C([H])([H])C(=O)N([H])C([H])([H])c2c([H])c([H])c([H])c([H])c2[H])c([H])c1[H]


 34 38  0  0  0  0  0  0  0  0999 V2000
  -19.2596   13.1722  -18.6416 C   0  0  0  0  0  0  0  0  0  0  0  0
  -19.5876   12.2048  -17.5895 C   0  0  0  0  0  0  0  0  0  0  0  0
  -19.7525   10.8508  -17.7989 C   0  0  0  0  0  0  0  0  0  0  0  0
  -19.9226   10.0107  -16.7018 C   0  0  0  0  0  0  0  0  0  0  0  0
  -19.9332   10.4876  -15.4138 C   0  0  0  0  0  0  0  0  0  0  0  0
  -19.7758   11.8291  -15.1927 C   0  0  0  0  0  0  0  0  0  0  0  0
  -19.6049   12.6947  -16.2943 C   0  0  0  0  0  0  0  0  0  0  0  0
  -19.6443   14.0957  -16.0418 N   0  0  0  0  0  0  0  0  0  0  0  0
  -19.6815   14.9422  -17.0298 C   0  0  0  0  0  0  0  0  0  0  0  0
  -19.7586   14.4791  -18.3689 N   0  0  0  0  0  0  0  0  0  0  0  0
  -19.7117   16.3320  -16.7075 N   0  0  0  0  0  0  0  0  0  0  0  0
  -18.6621   17.1722  -17.2001 C   0  0  0  0  0  0  0  0  0  0  0  0
  -19.2193   18.5432  -17.6272 C   0  0  0  0  0  0  0  0  0  0  0  0
  -19.9264   19.0934  -16.4090 C   0  0  0  0  0  0  0  0  0  0  0  0
  -21.1256   18.2555  -16.1343 C   0  0  0  0  0  0  0  0  0  0  0  0
  -20.8175   16.7983  -15.9058 C   0  0  0  0  0  0  0  0  0  0  0  0
  -20.3153   15.2980  -19.3769 C   0  0  0  0  0  0  0  0  0  0  0  0
  -21.6659   15.5441  -19.4827 C   0  0  0  0  0  0  0  0  0  0  0  0
  -22.1679   16.3439  -20.4812 C   0  0  0  0  0  0  0  0  0  0  0  0
  -21.3581   16.9368  -21.4208 C   0  0  0  0  0  0  0  0  0  0  0  0
  -20.0072   16.6875  -21.3108 C   0  0  0  0  0  0  0  0  0  0  0  0
  -19.4897   15.8952  -20.3250 C   0  0  0  0  0  0  0  0  0  0  0  0
  -19.2344   12.7295  -20.0435 C   0  0  0  0  0  0  0  0  0  0  0  0
  -16.9133   12.2067  -19.9418 O   0  0  0  0  0  0  0  0  0  0  0  0
  -17.8883   12.5920  -20.6378 C   0  0  0  0  0  0  0  0  0  0  0  0
  -17.6360   12.8861  -22.0107 N   0  0  0  0  0  0  0  0  0  0  0  0
  -18.4000   13.2123  -22.6523 H   0  0  0  0  0  0  0  0  0  0  0  0
  -16.3077   12.7401  -22.5513 C   0  0  0  0  0  0  0  0  0  0  0  0
  -15.8602   13.9295  -23.3129 C   0  0  0  0  0  0  0  0  0  0  0  0
  -16.4584   15.1418  -23.0790 C   0  0  0  0  0  0  0  0  0  0  0  0
  -16.0721   16.2905  -23.7668 C   0  0  0  0  0  0  0  0  0  0  0  0
  -15.0643   16.2165  -24.7081 C   0  0  0  0  0  0  0  0  0  0  0  0
  -14.4597   14.9837  -24.9425 C   0  0  0  0  0  0  0  0  0  0  0  0
  -14.8583   13.8460  -24.2461 C   0  0  0  0  0  0  0  0  0  0  0  0
 24 25  2  0  0  0
 25 23  1  0  0  0
 23  1  1  0  0  0
  1  2  1  0  0  0
  2  3  2  0  0  0
  3  4  1  0  0  0
  4  5  2  0  0  0
  5  6  1  0  0  0
  6  7  2  0  0  0
  7  8  1  0  0  0
  8  9  2  0  0  0
  9 11  1  0  0  0
 11 12  1  0  0  0
 12 13  1  0  0  0
 13 14  1  0  0  0
 14 15  1  0  0  0
 15 16  1  0  0  0
  9 10  1  0  0  0
 10 17  1  0  0  0
 17 18  2  0  0  0
 18 19  1  0  0  0
 19 20  2  0  0  0
 20 21  1  0  0  0
 21 22  2  0  0  0
 25 26  1  0  0  0
 26 28  1  0  0  0
 28 29  1  0  0  0
 29 30  2  0  0  0
 30 31  1  0  0  0
 31 32  2  0  0  0
 32 33  1  0  0  0
 33 34  2  0  0  0
 10  1  1  0  0  0
 22 17  1  0  0  0
 34 29  1  0  0  0
  7  2  1  0  0  0
 16 11  1  0  0  0
 26 27  1  0  0  0
M  END
> <minimizedAffinity>
-7.10409

> <CNNscore>
0.2894112468

> <CNNaffinity>
6.6877884865

> <CNN_VS>
1.9355212450

> <CNNaffinity_variance>
0.3004278541

$$$$
[H]c1c([H])c([H])c(C([H])(N2C([H])([H])C([H])([H])N(C([H])([H])C#N)C([H])([H])C2([H])[H])C([H])([H])OC([H])([H])c2c([H])c(C(F)(F)F)c([H])c(C(F)(F)F)c2[H])c([H])c1[H]


 33 35  0  0  0  0  0  0  0  0999 V2000
  -19.6066   13.5764  -19.3396 C   0  0  0  0  0  0  0  0  0  0  0  0
  -20.5268   13.1793  -18.2352 C   0  0  0  0  0  0  0  0  0  0  0  0
  -20.9475   16.5666  -15.7733 N   0  0  0  0  0  0  0  0  0  0  0  0
  -22.1109   15.9593  -16.3103 C   0  0  0  0  0  0  0  0  0  0  0  0
  -21.7937   15.1523  -17.5663 C   0  0  0  0  0  0  0  0  0  0  0  0
  -20.7401   14.2363  -17.3323 N   0  0  0  0  0  0  0  0  0  0  0  0
  -19.5959   14.7012  -16.6302 C   0  0  0  0  0  0  0  0  0  0  0  0
  -19.7292   16.1827  -16.4006 C   0  0  0  0  0  0  0  0  0  0  0  0
  -21.0496   17.8957  -15.2988 C   0  0  0  0  0  0  0  0  0  0  0  0
  -19.2335   18.2904  -13.4101 N   0  0  0  0  0  0  0  0  0  0  0  0
  -20.0457   18.1072  -14.2437 C   0  0  0  0  0  0  0  0  0  0  0  0
  -20.0478   11.9117  -17.6293 C   0  0  0  0  0  0  0  0  0  0  0  0
  -18.9458   11.2140  -18.0716 C   0  0  0  0  0  0  0  0  0  0  0  0
  -18.5560   10.0163  -17.5035 C   0  0  0  0  0  0  0  0  0  0  0  0
  -19.2569    9.4588  -16.4603 C   0  0  0  0  0  0  0  0  0  0  0  0
  -20.3653   10.1463  -16.0000 C   0  0  0  0  0  0  0  0  0  0  0  0
  -20.7434   11.3439  -16.5800 C   0  0  0  0  0  0  0  0  0  0  0  0
  -18.8256   14.7021  -19.0901 O   0  0  0  0  0  0  0  0  0  0  0  0
  -18.5035   15.1682  -20.3903 C   0  0  0  0  0  0  0  0  0  0  0  0
  -17.9547   14.1526  -21.2666 C   0  0  0  0  0  0  0  0  0  0  0  0
  -17.4081   12.9721  -20.7164 C   0  0  0  0  0  0  0  0  0  0  0  0
  -16.8815   11.9770  -21.4818 C   0  0  0  0  0  0  0  0  0  0  0  0
  -16.8732   12.1096  -22.8482 C   0  0  0  0  0  0  0  0  0  0  0  0
  -17.4008   13.2525  -23.4008 C   0  0  0  0  0  0  0  0  0  0  0  0
  -17.9452   14.2820  -22.6295 C   0  0  0  0  0  0  0  0  0  0  0  0
  -16.3015   10.7292  -20.9004 C   0  0  0  0  0  0  0  0  0  0  0  0
  -15.2391   10.2833  -21.6100 F   0  0  0  0  0  0  0  0  0  0  0  0
  -17.3408    9.8105  -20.8581 F   0  0  0  0  0  0  0  0  0  0  0  0
  -15.9898   11.0125  -19.5797 F   0  0  0  0  0  0  0  0  0  0  0  0
  -17.3767   13.3402  -24.8958 C   0  0  0  0  0  0  0  0  0  0  0  0
  -17.5968   12.0723  -25.4502 F   0  0  0  0  0  0  0  0  0  0  0  0
  -18.4175   14.1531  -25.2629 F   0  0  0  0  0  0  0  0  0  0  0  0
  -16.1754   13.8044  -25.3895 F   0  0  0  0  0  0  0  0  0  0  0  0
 10 11  3  0  0  0
 11  9  1  0  0  0
  9  3  1  0  0  0
  3  4  1  0  0  0
  4  5  1  0  0  0
  5  6  1  0  0  0
  6  2  1  0  0  0
  2  1  1  0  0  0
  1 18  1  0  0  0
 18 19  1  0  0  0
 19 20  1  0  0  0
 20 21  2  0  0  0
 21 22  1  0  0  0
 22 26  1  0  0  0
 26 27  1  0  0  0
 26 28  1  0  0  0
 26 29  1  0  0  0
 22 23  2  0  0  0
 23 24  1  0  0  0
 24 30  1  0  0  0
 30 31  1  0  0  0
 30 32  1  0  0  0
 30 33  1  0  0  0
 24 25  2  0  0  0
  2 12  1  0  0  0
 12 13  2  0  0  0
 13 14  1  0  0  0
 14 15  2  0  0  0
 15 16  1  0  0  0
 16 17  2  0  0  0
  6  7  1  0  0  0
  7  8  1  0  0  0
  8  3  1  0  0  0
 25 20  1  0  0  0
 17 12  1  0  0  0
M  END
> <minimizedAffinity>
-8.17574

> <CNNscore>
0.3950527906

> <CNNaffinity>
6.3650617599

> <CNN_VS>
2.5145354271

> <CNNaffinity_variance>
0.2914022207

$$$$
[H]c1c([H])c([H])c(C([H])(N2C([H])([H])C([H])([H])N(C([H])([H])C#N)C([H])([H])C2([H])[H])C([H])([H])OC([H])([H])c2c([H])c(C(F)(F)F)c([H])c(C(F)(F)F)c2[H])c([H])c1[H]


 33 35  0  0  0  0  0  0  0  0999 V2000
  -19.9870   14.3990  -19.2937 C   0  0  0  0  0  0  0  0  0  0  0  0
  -20.6672   14.0542  -18.0121 C   0  0  0  0  0  0  0  0  0  0  0  0
  -20.0297   17.3093  -15.4217 N   0  0  0  0  0  0  0  0  0  0  0  0
  -21.3531   16.8422  -15.6246 C   0  0  0  0  0  0  0  0  0  0  0  0
  -21.4857   16.0880  -16.9449 C   0  0  0  0  0  0  0  0  0  0  0  0
  -20.5088   15.0691  -17.0514 N   0  0  0  0  0  0  0  0  0  0  0  0
  -19.1720   15.3864  -16.6896 C   0  0  0  0  0  0  0  0  0  0  0  0
  -19.0824   16.8571  -16.3826 C   0  0  0  0  0  0  0  0  0  0  0  0
  -19.8574   18.6109  -14.8942 C   0  0  0  0  0  0  0  0  0  0  0  0
  -20.9084   20.3629  -16.5813 N   0  0  0  0  0  0  0  0  0  0  0  0
  -20.4478   19.5875  -15.8233 C   0  0  0  0  0  0  0  0  0  0  0  0
  -20.2437   12.6984  -17.5811 C   0  0  0  0  0  0  0  0  0  0  0  0
  -19.2509   11.9687  -18.1968 C   0  0  0  0  0  0  0  0  0  0  0  0
  -18.9136   10.6928  -17.7876 C   0  0  0  0  0  0  0  0  0  0  0  0
  -19.5595   10.0853  -16.7368 C   0  0  0  0  0  0  0  0  0  0  0  0
  -20.5578   10.8034  -16.1038 C   0  0  0  0  0  0  0  0  0  0  0  0
  -20.8847   12.0796  -16.5259 C   0  0  0  0  0  0  0  0  0  0  0  0
  -18.6950   14.9031  -19.1671 O   0  0  0  0  0  0  0  0  0  0  0  0
  -18.3422   15.2306  -20.5011 C   0  0  0  0  0  0  0  0  0  0  0  0
  -17.8214   14.1169  -21.2686 C   0  0  0  0  0  0  0  0  0  0  0  0
  -17.8222   14.1760  -22.6798 C   0  0  0  0  0  0  0  0  0  0  0  0
  -17.3439   13.1684  -23.4603 C   0  0  0  0  0  0  0  0  0  0  0  0
  -16.8351   12.0395  -22.8674 C   0  0  0  0  0  0  0  0  0  0  0  0
  -16.8269   11.9648  -21.4947 C   0  0  0  0  0  0  0  0  0  0  0  0
  -17.3134   12.9899  -20.6802 C   0  0  0  0  0  0  0  0  0  0  0  0
  -17.3463   13.2295  -24.9529 C   0  0  0  0  0  0  0  0  0  0  0  0
  -17.7670   12.0698  -25.5088 F   0  0  0  0  0  0  0  0  0  0  0  0
  -16.0502   13.5610  -25.3220 F   0  0  0  0  0  0  0  0  0  0  0  0
  -18.1323   14.3155  -25.3058 F   0  0  0  0  0  0  0  0  0  0  0  0
  -16.2505   10.7166  -20.9006 C   0  0  0  0  0  0  0  0  0  0  0  0
  -17.1945    9.6826  -20.9577 F   0  0  0  0  0  0  0  0  0  0  0  0
  -15.1813   10.3619  -21.6816 F   0  0  0  0  0  0  0  0  0  0  0  0
  -15.8825   10.8680  -19.5800 F   0  0  0  0  0  0  0  0  0  0  0  0
 10 11  3  0  0  0
 11  9  1  0  0  0
  9  3  1  0  0  0
  3  4  1  0  0  0
  4  5  1  0  0  0
  5  6  1  0  0  0
  6  2  1  0  0  0
  2  1  1  0  0  0
  1 18  1  0  0  0
 18 19  1  0  0  0
 19 20  1  0  0  0
 20 21  2  0  0  0
 21 22  1  0  0  0
 22 26  1  0  0  0
 26 27  1  0  0  0
 26 28  1  0  0  0
 26 29  1  0  0  0
 22 23  2  0  0  0
 23 24  1  0  0  0
 24 30  1  0  0  0
 30 31  1  0  0  0
 30 32  1  0  0  0
 30 33  1  0  0  0
 24 25  2  0  0  0
  2 12  1  0  0  0
 12 13  2  0  0  0
 13 14  1  0  0  0
 14 15  2  0  0  0
 15 16  1  0  0  0
 16 17  2  0  0  0
  6  7  1  0  0  0
  7  8  1  0  0  0
  8  3  1  0  0  0
 25 20  1  0  0  0
 17 12  1  0  0  0
M  END
> <minimizedAffinity>
-7.99905

> <CNNscore>
0.3541830480

> <CNNaffinity>
6.0780320168

> <CNN_VS>
2.1527359486

> <CNNaffinity_variance>
0.4086050987

$$$$
[H]c1c([H])c([H])c(C([H])(N2C([H])([H])C([H])([H])N(C([H])([H])C#N)C([H])([H])C2([H])[H])C([H])([H])OC([H])([H])c2c([H])c(C(F)(F)F)c([H])c(C(F)(F)F)c2[H])c([H])c1[H]


 33 35  0  0  0  0  0  0  0  0999 V2000
  -17.7235   10.9115  -19.4443 C   0  0  0  0  0  0  0  0  0  0  0  0
  -18.3147   11.5776  -18.2480 C   0  0  0  0  0  0  0  0  0  0  0  0
  -20.4019    8.8914  -15.7701 N   0  0  0  0  0  0  0  0  0  0  0  0
  -20.9358   10.1881  -15.9804 C   0  0  0  0  0  0  0  0  0  0  0  0
  -19.8535   11.1795  -16.3991 C   0  0  0  0  0  0  0  0  0  0  0  0
  -19.1137   10.6918  -17.5030 N   0  0  0  0  0  0  0  0  0  0  0  0
  -18.6875    9.3369  -17.4740 C   0  0  0  0  0  0  0  0  0  0  0  0
  -19.0349    8.7415  -16.1360 C   0  0  0  0  0  0  0  0  0  0  0  0
  -20.8665    8.1535  -14.6558 C   0  0  0  0  0  0  0  0  0  0  0  0
  -20.3899    5.5798  -15.0683 N   0  0  0  0  0  0  0  0  0  0  0  0
  -20.6122    6.7227  -14.8878 C   0  0  0  0  0  0  0  0  0  0  0  0
  -18.9805   12.8367  -18.6663 C   0  0  0  0  0  0  0  0  0  0  0  0
  -19.9886   12.9013  -19.6026 C   0  0  0  0  0  0  0  0  0  0  0  0
  -20.5556   14.0996  -19.9923 C   0  0  0  0  0  0  0  0  0  0  0  0
  -20.1358   15.2955  -19.4592 C   0  0  0  0  0  0  0  0  0  0  0  0
  -19.1259   15.2508  -18.5151 C   0  0  0  0  0  0  0  0  0  0  0  0
  -18.5677   14.0431  -18.1361 C   0  0  0  0  0  0  0  0  0  0  0  0
  -16.7184   11.6270  -20.0901 O   0  0  0  0  0  0  0  0  0  0  0  0
  -17.1482   11.6426  -21.4416 C   0  0  0  0  0  0  0  0  0  0  0  0
  -16.9805   12.9209  -22.1038 C   0  0  0  0  0  0  0  0  0  0  0  0
  -16.7629   12.9651  -23.4987 C   0  0  0  0  0  0  0  0  0  0  0  0
  -16.6026   14.1308  -24.1834 C   0  0  0  0  0  0  0  0  0  0  0  0
  -16.6519   15.3235  -23.5052 C   0  0  0  0  0  0  0  0  0  0  0  0
  -16.8624   15.2991  -22.1469 C   0  0  0  0  0  0  0  0  0  0  0  0
  -17.0292   14.1118  -21.4302 C   0  0  0  0  0  0  0  0  0  0  0  0
  -16.3706   14.1782  -25.6583 C   0  0  0  0  0  0  0  0  0  0  0  0
  -16.8586   13.0829  -26.2854 F   0  0  0  0  0  0  0  0  0  0  0  0
  -15.0003   14.3235  -25.8231 F   0  0  0  0  0  0  0  0  0  0  0  0
  -16.9362   15.3592  -26.1129 F   0  0  0  0  0  0  0  0  0  0  0  0
  -16.9185   16.6284  -21.4591 C   0  0  0  0  0  0  0  0  0  0  0  0
  -16.4492   16.5041  -20.1447 F   0  0  0  0  0  0  0  0  0  0  0  0
  -16.0695   17.4632  -22.1383 F   0  0  0  0  0  0  0  0  0  0  0  0
  -18.1941   17.1491  -21.3952 F   0  0  0  0  0  0  0  0  0  0  0  0
 10 11  3  0  0  0
 11  9  1  0  0  0
  9  3  1  0  0  0
  3  4  1  0  0  0
  4  5  1  0  0  0
  5  6  1  0  0  0
  6  2  1  0  0  0
  2  1  1  0  0  0
  1 18  1  0  0  0
 18 19  1  0  0  0
 19 20  1  0  0  0
 20 21  2  0  0  0
 21 22  1  0  0  0
 22 26  1  0  0  0
 26 27  1  0  0  0
 26 28  1  0  0  0
 26 29  1  0  0  0
 22 23  2  0  0  0
 23 24  1  0  0  0
 24 30  1  0  0  0
 30 31  1  0  0  0
 30 32  1  0  0  0
 30 33  1  0  0  0
 24 25  2  0  0  0
  2 12  1  0  0  0
 12 13  2  0  0  0
 13 14  1  0  0  0
 14 15  2  0  0  0
 15 16  1  0  0  0
 16 17  2  0  0  0
  6  7  1  0  0  0
  7  8  1  0  0  0
  8  3  1  0  0  0
 25 20  1  0  0  0
 17 12  1  0  0  0
M  END
> <minimizedAffinity>
-7.79615

> <CNNscore>
0.3222195804

> <CNNaffinity>
6.4910392761

> <CNN_VS>
2.0915398598

> <CNNaffinity_variance>
0.2354668379

$$$$
[H]c1c([H])c([H])c(C([H])(N2C([H])([H])C([H])([H])N(C([H])([H])C#N)C([H])([H])C2([H])[H])C([H])([H])OC([H])([H])c2c([H])c(C(F)(F)F)c([H])c(C(F)(F)F)c2[H])c([H])c1[H]


 33 35  0  0  0  0  0  0  0  0999 V2000
  -17.7086   15.6965  -20.0369 C   0  0  0  0  0  0  0  0  0  0  0  0
  -18.7623   14.7631  -19.5442 C   0  0  0  0  0  0  0  0  0  0  0  0
  -20.3511   16.3619  -15.9901 N   0  0  0  0  0  0  0  0  0  0  0  0
  -21.0437   15.3082  -16.6388 C   0  0  0  0  0  0  0  0  0  0  0  0
  -20.6859   15.2301  -18.1205 C   0  0  0  0  0  0  0  0  0  0  0  0
  -19.2834   15.1766  -18.3050 N   0  0  0  0  0  0  0  0  0  0  0  0
  -18.4772   16.0736  -17.5541 C   0  0  0  0  0  0  0  0  0  0  0  0
  -19.3702   17.0132  -16.7892 C   0  0  0  0  0  0  0  0  0  0  0  0
  -21.0637   17.1500  -15.0557 C   0  0  0  0  0  0  0  0  0  0  0  0
  -19.3462   18.4515  -13.5139 N   0  0  0  0  0  0  0  0  0  0  0  0
  -20.1036   17.8750  -14.2081 C   0  0  0  0  0  0  0  0  0  0  0  0
  -18.2441   13.3727  -19.5846 C   0  0  0  0  0  0  0  0  0  0  0  0
  -17.9929   12.6109  -18.4649 C   0  0  0  0  0  0  0  0  0  0  0  0
  -17.4735   11.3330  -18.5454 C   0  0  0  0  0  0  0  0  0  0  0  0
  -17.1796   10.7563  -19.7585 C   0  0  0  0  0  0  0  0  0  0  0  0
  -17.4278   11.5048  -20.8948 C   0  0  0  0  0  0  0  0  0  0  0  0
  -17.9471   12.7833  -20.7976 C   0  0  0  0  0  0  0  0  0  0  0  0
  -17.9167   16.2111  -21.3140 O   0  0  0  0  0  0  0  0  0  0  0  0
  -16.6073   16.2765  -21.8549 C   0  0  0  0  0  0  0  0  0  0  0  0
  -16.4536   15.5928  -23.1237 C   0  0  0  0  0  0  0  0  0  0  0  0
  -15.4282   15.9852  -24.0123 C   0  0  0  0  0  0  0  0  0  0  0  0
  -15.2254   15.3829  -25.2162 C   0  0  0  0  0  0  0  0  0  0  0  0
  -16.0427   14.3483  -25.5989 C   0  0  0  0  0  0  0  0  0  0  0  0
  -17.0463   13.9536  -24.7464 C   0  0  0  0  0  0  0  0  0  0  0  0
  -17.2670   14.5608  -23.5080 C   0  0  0  0  0  0  0  0  0  0  0  0
  -14.1424   15.7988  -26.1573 C   0  0  0  0  0  0  0  0  0  0  0  0
  -13.9374   17.1362  -26.1379 F   0  0  0  0  0  0  0  0  0  0  0  0
  -14.5257   15.3340  -27.4075 F   0  0  0  0  0  0  0  0  0  0  0  0
  -13.0133   15.0730  -25.8110 F   0  0  0  0  0  0  0  0  0  0  0  0
  -17.9006   12.8134  -25.2084 C   0  0  0  0  0  0  0  0  0  0  0  0
  -17.3669   12.2641  -26.3817 F   0  0  0  0  0  0  0  0  0  0  0  0
  -17.8504   11.8568  -24.2280 F   0  0  0  0  0  0  0  0  0  0  0  0
  -19.1995   13.1888  -25.4812 F   0  0  0  0  0  0  0  0  0  0  0  0
 10 11  3  0  0  0
 11  9  1  0  0  0
  9  3  1  0  0  0
  3  4  1  0  0  0
  4  5  1  0  0  0
  5  6  1  0  0  0
  6  2  1  0  0  0
  2  1  1  0  0  0
  1 18  1  0  0  0
 18 19  1  0  0  0
 19 20  1  0  0  0
 20 21  2  0  0  0
 21 22  1  0  0  0
 22 26  1  0  0  0
 26 27  1  0  0  0
 26 28  1  0  0  0
 26 29  1  0  0  0
 22 23  2  0  0  0
 23 24  1  0  0  0
 24 30  1  0  0  0
 30 31  1  0  0  0
 30 32  1  0  0  0
 30 33  1  0  0  0
 24 25  2  0  0  0
  2 12  1  0  0  0
 12 13  2  0  0  0
 13 14  1  0  0  0
 14 15  2  0  0  0
 15 16  1  0  0  0
 16 17  2  0  0  0
  6  7  1  0  0  0
  7  8  1  0  0  0
  8  3  1  0  0  0
 25 20  1  0  0  0
 17 12  1  0  0  0
M  END
> <minimizedAffinity>
-7.63193

> <CNNscore>
0.2938222289

> <CNNaffinity>
6.3239412308

> <CNN_VS>
1.8581144810

> <CNNaffinity_variance>
0.1717456728

$$$$
[H]c1c([H])c([H])c(C([H])(N2C([H])([H])C([H])([H])N(C([H])([H])C#N)C([H])([H])C2([H])[H])C([H])([H])OC([H])([H])c2c([H])c(C(F)(F)F)c([H])c(C(F)(F)F)c2[H])c([H])c1[H]


 33 35  0  0  0  0  0  0  0  0999 V2000
  -18.7619   17.0721  -19.3963 C   0  0  0  0  0  0  0  0  0  0  0  0
  -19.9104   16.4568  -18.6707 C   0  0  0  0  0  0  0  0  0  0  0  0
  -20.6522   18.1562  -14.8926 N   0  0  0  0  0  0  0  0  0  0  0  0
  -19.6699   18.7444  -15.7292 C   0  0  0  0  0  0  0  0  0  0  0  0
  -19.1343   17.7470  -16.7527 C   0  0  0  0  0  0  0  0  0  0  0  0
  -20.1899   17.1359  -17.4711 N   0  0  0  0  0  0  0  0  0  0  0  0
  -21.3165   16.6754  -16.7383 C   0  0  0  0  0  0  0  0  0  0  0  0
  -21.0461   16.8410  -15.2669 C   0  0  0  0  0  0  0  0  0  0  0  0
  -20.6192   18.4621  -13.5115 C   0  0  0  0  0  0  0  0  0  0  0  0
  -22.3445   20.4162  -13.0365 N   0  0  0  0  0  0  0  0  0  0  0  0
  -21.5739   19.5480  -13.2374 C   0  0  0  0  0  0  0  0  0  0  0  0
  -19.6804   14.9965  -18.5364 C   0  0  0  0  0  0  0  0  0  0  0  0
  -20.3783   14.0385  -19.2381 C   0  0  0  0  0  0  0  0  0  0  0  0
  -20.1596   12.6866  -19.0548 C   0  0  0  0  0  0  0  0  0  0  0  0
  -19.2265   12.2293  -18.1544 C   0  0  0  0  0  0  0  0  0  0  0  0
  -18.5134   13.1765  -17.4421 C   0  0  0  0  0  0  0  0  0  0  0  0
  -18.7446   14.5265  -17.6362 C   0  0  0  0  0  0  0  0  0  0  0  0
  -18.6278   16.6954  -20.7302 O   0  0  0  0  0  0  0  0  0  0  0  0
  -17.3309   16.1232  -20.7771 C   0  0  0  0  0  0  0  0  0  0  0  0
  -17.2685   14.8479  -21.4630 C   0  0  0  0  0  0  0  0  0  0  0  0
  -17.4624   14.7932  -22.8611 C   0  0  0  0  0  0  0  0  0  0  0  0
  -17.4120   13.6305  -23.5675 C   0  0  0  0  0  0  0  0  0  0  0  0
  -17.1631   12.4517  -22.9092 C   0  0  0  0  0  0  0  0  0  0  0  0
  -16.9724   12.4865  -21.5482 C   0  0  0  0  0  0  0  0  0  0  0  0
  -17.0204   13.6709  -20.8094 C   0  0  0  0  0  0  0  0  0  0  0  0
  -17.6189   13.5716  -25.0457 C   0  0  0  0  0  0  0  0  0  0  0  0
  -16.5033   13.9162  -25.7296 F   0  0  0  0  0  0  0  0  0  0  0  0
  -18.6915   14.4107  -25.3133 F   0  0  0  0  0  0  0  0  0  0  0  0
  -18.0572   12.2890  -25.3359 F   0  0  0  0  0  0  0  0  0  0  0  0
  -16.6931   11.1741  -20.8825 C   0  0  0  0  0  0  0  0  0  0  0  0
  -15.5442   10.5946  -21.4369 F   0  0  0  0  0  0  0  0  0  0  0  0
  -16.4406   11.4441  -19.5626 F   0  0  0  0  0  0  0  0  0  0  0  0
  -17.7230   10.2676  -21.0242 F   0  0  0  0  0  0  0  0  0  0  0  0
 10 11  3  0  0  0
 11  9  1  0  0  0
  9  3  1  0  0  0
  3  4  1  0  0  0
  4  5  1  0  0  0
  5  6  1  0  0  0
  6  2  1  0  0  0
  2  1  1  0  0  0
  1 18  1  0  0  0
 18 19  1  0  0  0
 19 20  1  0  0  0
 20 21  2  0  0  0
 21 22  1  0  0  0
 22 26  1  0  0  0
 26 27  1  0  0  0
 26 28  1  0  0  0
 26 29  1  0  0  0
 22 23  2  0  0  0
 23 24  1  0  0  0
 24 30  1  0  0  0
 30 31  1  0  0  0
 30 32  1  0  0  0
 30 33  1  0  0  0
 24 25  2  0  0  0
  2 12  1  0  0  0
 12 13  2  0  0  0
 13 14  1  0  0  0
 14 15  2  0  0  0
 15 16  1  0  0  0
 16 17  2  0  0  0
  6  7  1  0  0  0
  7  8  1  0  0  0
  8  3  1  0  0  0
 25 20  1  0  0  0
 17 12  1  0  0  0
M  END
> <minimizedAffinity>
-6.92644

> <CNNscore>
0.2789011896

> <CNNaffinity>
5.9440279007

> <CNN_VS>
1.6577965021

> <CNNaffinity_variance>
0.3757400811

$$$$
[H]c1c([H])c([H])c(C([H])(N2C([H])([H])C([H])([H])N(C([H])([H])C#N)C([H])([H])C2([H])[H])C([H])([H])OC([H])([H])c2c([H])c(C(F)(F)F)c([H])c(C(F)(F)F)c2[H])c([H])c1[H]


 33 35  0  0  0  0  0  0  0  0999 V2000
  -18.7870   17.4659  -19.7290 C   0  0  0  0  0  0  0  0  0  0  0  0
  -20.0076   16.8681  -19.1149 C   0  0  0  0  0  0  0  0  0  0  0  0
  -21.3258   18.8839  -15.6637 N   0  0  0  0  0  0  0  0  0  0  0  0
  -20.2951   19.4638  -16.4460 C   0  0  0  0  0  0  0  0  0  0  0  0
  -19.5672   18.4145  -17.2818 C   0  0  0  0  0  0  0  0  0  0  0  0
  -20.4799   17.6425  -18.0400 N   0  0  0  0  0  0  0  0  0  0  0  0
  -21.6503   17.1658  -17.3910 C   0  0  0  0  0  0  0  0  0  0  0  0
  -21.5736   17.5076  -15.9272 C   0  0  0  0  0  0  0  0  0  0  0  0
  -21.4834   19.3346  -14.3317 C   0  0  0  0  0  0  0  0  0  0  0  0
  -19.5173   18.3361  -12.8626 N   0  0  0  0  0  0  0  0  0  0  0  0
  -20.3961   18.7841  -13.5068 C   0  0  0  0  0  0  0  0  0  0  0  0
  -19.7516   15.4391  -18.8054 C   0  0  0  0  0  0  0  0  0  0  0  0
  -20.4781   14.3941  -19.3320 C   0  0  0  0  0  0  0  0  0  0  0  0
  -20.2318   13.0789  -18.9874 C   0  0  0  0  0  0  0  0  0  0  0  0
  -19.2407   12.7481  -18.0937 C   0  0  0  0  0  0  0  0  0  0  0  0
  -18.4981   13.7837  -17.5561 C   0  0  0  0  0  0  0  0  0  0  0  0
  -18.7576   15.0955  -17.9103 C   0  0  0  0  0  0  0  0  0  0  0  0
  -18.5793   17.1533  -21.0700 O   0  0  0  0  0  0  0  0  0  0  0  0
  -17.2017   16.8193  -21.1158 C   0  0  0  0  0  0  0  0  0  0  0  0
  -16.9124   15.5855  -21.8192 C   0  0  0  0  0  0  0  0  0  0  0  0
  -17.1524   14.3451  -21.1875 C   0  0  0  0  0  0  0  0  0  0  0  0
  -16.9079   13.1502  -21.7924 C   0  0  0  0  0  0  0  0  0  0  0  0
  -16.4070   13.1313  -23.0705 C   0  0  0  0  0  0  0  0  0  0  0  0
  -16.1670   14.3295  -23.7002 C   0  0  0  0  0  0  0  0  0  0  0  0
  -16.4130   15.5635  -23.0937 C   0  0  0  0  0  0  0  0  0  0  0  0
  -17.1596   11.8381  -21.1242 C   0  0  0  0  0  0  0  0  0  0  0  0
  -18.4445   11.4363  -21.2601 F   0  0  0  0  0  0  0  0  0  0  0  0
  -16.7897   12.0098  -19.7976 F   0  0  0  0  0  0  0  0  0  0  0  0
  -16.2514   10.9379  -21.6593 F   0  0  0  0  0  0  0  0  0  0  0  0
  -15.6317   14.2507  -25.0968 C   0  0  0  0  0  0  0  0  0  0  0  0
  -15.6550   15.5211  -25.6876 F   0  0  0  0  0  0  0  0  0  0  0  0
  -14.3247   13.8493  -24.9992 F   0  0  0  0  0  0  0  0  0  0  0  0
  -16.3603   13.4047  -25.9066 F   0  0  0  0  0  0  0  0  0  0  0  0
 10 11  3  0  0  0
 11  9  1  0  0  0
  9  3  1  0  0  0
  3  4  1  0  0  0
  4  5  1  0  0  0
  5  6  1  0  0  0
  6  2  1  0  0  0
  2  1  1  0  0  0
  1 18  1  0  0  0
 18 19  1  0  0  0
 19 20  1  0  0  0
 20 21  2  0  0  0
 21 22  1  0  0  0
 22 26  1  0  0  0
 26 27  1  0  0  0
 26 28  1  0  0  0
 26 29  1  0  0  0
 22 23  2  0  0  0
 23 24  1  0  0  0
 24 30  1  0  0  0
 30 31  1  0  0  0
 30 32  1  0  0  0
 30 33  1  0  0  0
 24 25  2  0  0  0
  2 12  1  0  0  0
 12 13  2  0  0  0
 13 14  1  0  0  0
 14 15  2  0  0  0
 15 16  1  0  0  0
 16 17  2  0  0  0
  6  7  1  0  0  0
  7  8  1  0  0  0
  8  3  1  0  0  0
 25 20  1  0  0  0
 17 12  1  0  0  0
M  END
> <minimizedAffinity>
-6.85822

> <CNNscore>
0.2713050544

> <CNNaffinity>
5.9816951752

> <CNN_VS>
1.6228641272

> <CNNaffinity_variance>
0.4087159634

$$$$
[H]c1c([H])c([H])c(C([H])(N2C([H])([H])C([H])([H])N(C([H])([H])C#N)C([H])([H])C2([H])[H])C([H])([H])OC([H])([H])c2c([H])c(C(F)(F)F)c([H])c(C(F)(F)F)c2[H])c([H])c1[H]


 33 35  0  0  0  0  0  0  0  0999 V2000
  -17.6698   12.2549  -18.8902 C   0  0  0  0  0  0  0  0  0  0  0  0
  -19.0823   12.2314  -18.4119 C   0  0  0  0  0  0  0  0  0  0  0  0
  -19.9220   16.0431  -16.8380 N   0  0  0  0  0  0  0  0  0  0  0  0
  -20.9866   15.2669  -17.3622 C   0  0  0  0  0  0  0  0  0  0  0  0
  -20.4842   14.2256  -18.3585 C   0  0  0  0  0  0  0  0  0  0  0  0
  -19.4432   13.4454  -17.8004 N   0  0  0  0  0  0  0  0  0  0  0  0
  -18.4148   14.1177  -17.0870 C   0  0  0  0  0  0  0  0  0  0  0  0
  -18.6213   15.6033  -17.2119 C   0  0  0  0  0  0  0  0  0  0  0  0
  -20.1249   17.4354  -16.6883 C   0  0  0  0  0  0  0  0  0  0  0  0
  -19.3033   18.1550  -14.2741 N   0  0  0  0  0  0  0  0  0  0  0  0
  -19.6713   17.8454  -15.3496 C   0  0  0  0  0  0  0  0  0  0  0  0
  -19.3019   11.0149  -17.5901 C   0  0  0  0  0  0  0  0  0  0  0  0
  -20.3085   10.8851  -16.6589 C   0  0  0  0  0  0  0  0  0  0  0  0
  -20.4545    9.7489  -15.8864 C   0  0  0  0  0  0  0  0  0  0  0  0
  -19.5935    8.6843  -16.0114 C   0  0  0  0  0  0  0  0  0  0  0  0
  -18.5776    8.7947  -16.9436 C   0  0  0  0  0  0  0  0  0  0  0  0
  -18.4440    9.9393  -17.7089 C   0  0  0  0  0  0  0  0  0  0  0  0
  -17.4914   11.9590  -20.2392 O   0  0  0  0  0  0  0  0  0  0  0  0
  -18.2762   12.9423  -20.8937 C   0  0  0  0  0  0  0  0  0  0  0  0
  -17.5196   14.0776  -21.3829 C   0  0  0  0  0  0  0  0  0  0  0  0
  -16.6705   13.9253  -22.5014 C   0  0  0  0  0  0  0  0  0  0  0  0
  -15.9364   14.9504  -23.0149 C   0  0  0  0  0  0  0  0  0  0  0  0
  -16.0126   16.1918  -22.4336 C   0  0  0  0  0  0  0  0  0  0  0  0
  -16.8338   16.3579  -21.3436 C   0  0  0  0  0  0  0  0  0  0  0  0
  -17.5936   15.3167  -20.8054 C   0  0  0  0  0  0  0  0  0  0  0  0
  -15.0368   14.7895  -24.1965 C   0  0  0  0  0  0  0  0  0  0  0  0
  -15.4976   13.8584  -25.0636 F   0  0  0  0  0  0  0  0  0  0  0  0
  -13.7876   14.4709  -23.6828 F   0  0  0  0  0  0  0  0  0  0  0  0
  -14.9040   16.0445  -24.7700 F   0  0  0  0  0  0  0  0  0  0  0  0
  -16.8879   17.7345  -20.7560 C   0  0  0  0  0  0  0  0  0  0  0  0
  -17.4748   18.6193  -21.6703 F   0  0  0  0  0  0  0  0  0  0  0  0
  -17.6967   17.6635  -19.6516 F   0  0  0  0  0  0  0  0  0  0  0  0
  -15.6424   18.2344  -20.4380 F   0  0  0  0  0  0  0  0  0  0  0  0
 10 11  3  0  0  0
 11  9  1  0  0  0
  9  3  1  0  0  0
  3  4  1  0  0  0
  4  5  1  0  0  0
  5  6  1  0  0  0
  6  2  1  0  0  0
  2  1  1  0  0  0
  1 18  1  0  0  0
 18 19  1  0  0  0
 19 20  1  0  0  0
 20 21  2  0  0  0
 21 22  1  0  0  0
 22 26  1  0  0  0
 26 27  1  0  0  0
 26 28  1  0  0  0
 26 29  1  0  0  0
 22 23  2  0  0  0
 23 24  1  0  0  0
 24 30  1  0  0  0
 30 31  1  0  0  0
 30 32  1  0  0  0
 30 33  1  0  0  0
 24 25  2  0  0  0
  2 12  1  0  0  0
 12 13  2  0  0  0
 13 14  1  0  0  0
 14 15  2  0  0  0
 15 16  1  0  0  0
 16 17  2  0  0  0
  6  7  1  0  0  0
  7  8  1  0  0  0
  8  3  1  0  0  0
 25 20  1  0  0  0
 17 12  1  0  0  0
M  END
> <minimizedAffinity>
-8.50003

> <CNNscore>
0.2124830037

> <CNNaffinity>
6.0195775032

> <CNN_VS>
1.2790578604

> <CNNaffinity_variance>
0.4081419408

$$$$
[H]c1c([H])c([H])c(C([H])(N2C([H])([H])C([H])([H])N(C([H])([H])C#N)C([H])([H])C2([H])[H])C([H])([H])OC([H])([H])c2c([H])c(C(F)(F)F)c([H])c(C(F)(F)F)c2[H])c([H])c1[H]


 33 35  0  0  0  0  0  0  0  0999 V2000
  -18.2351   15.4063  -21.2102 C   0  0  0  0  0  0  0  0  0  0  0  0
  -18.8458   14.4433  -20.2489 C   0  0  0  0  0  0  0  0  0  0  0  0
  -19.4157   16.4704  -16.6050 N   0  0  0  0  0  0  0  0  0  0  0  0
  -20.1423   15.2771  -16.8479 C   0  0  0  0  0  0  0  0  0  0  0  0
  -20.2637   14.9883  -18.3416 C   0  0  0  0  0  0  0  0  0  0  0  0
  -18.9958   15.0109  -18.9708 N   0  0  0  0  0  0  0  0  0  0  0  0
  -18.1108   16.0749  -18.6499 C   0  0  0  0  0  0  0  0  0  0  0  0
  -18.8252   17.0560  -17.7597 C   0  0  0  0  0  0  0  0  0  0  0  0
  -19.8883   17.3433  -15.5967 C   0  0  0  0  0  0  0  0  0  0  0  0
  -22.3152   18.1911  -16.2391 N   0  0  0  0  0  0  0  0  0  0  0  0
  -21.2325   17.8172  -15.9633 C   0  0  0  0  0  0  0  0  0  0  0  0
  -18.0950   13.1636  -20.2927 C   0  0  0  0  0  0  0  0  0  0  0  0
  -17.9010   12.3459  -19.2014 C   0  0  0  0  0  0  0  0  0  0  0  0
  -17.1620   11.1808  -19.2766 C   0  0  0  0  0  0  0  0  0  0  0  0
  -16.5794   10.7791  -20.4554 C   0  0  0  0  0  0  0  0  0  0  0  0
  -16.7653   11.5858  -21.5634 C   0  0  0  0  0  0  0  0  0  0  0  0
  -17.5071   12.7499  -21.4718 C   0  0  0  0  0  0  0  0  0  0  0  0
  -19.1140   15.9655  -22.1343 O   0  0  0  0  0  0  0  0  0  0  0  0
  -18.2605   16.7221  -22.9772 C   0  0  0  0  0  0  0  0  0  0  0  0
  -17.5378   15.9323  -23.9543 C   0  0  0  0  0  0  0  0  0  0  0  0
  -18.0269   14.6614  -24.3294 C   0  0  0  0  0  0  0  0  0  0  0  0
  -17.4008   13.8708  -25.2438 C   0  0  0  0  0  0  0  0  0  0  0  0
  -16.2436   14.3117  -25.8367 C   0  0  0  0  0  0  0  0  0  0  0  0
  -15.7530   15.5463  -25.4830 C   0  0  0  0  0  0  0  0  0  0  0  0
  -16.3838   16.3693  -24.5472 C   0  0  0  0  0  0  0  0  0  0  0  0
  -17.9165   12.5259  -25.6394 C   0  0  0  0  0  0  0  0  0  0  0  0
  -19.2572   12.4292  -25.4839 F   0  0  0  0  0  0  0  0  0  0  0  0
  -17.2202   11.6086  -24.8650 F   0  0  0  0  0  0  0  0  0  0  0  0
  -17.5062   12.3104  -26.9459 F   0  0  0  0  0  0  0  0  0  0  0  0
  -14.4947   15.9825  -26.1684 C   0  0  0  0  0  0  0  0  0  0  0  0
  -13.4187   15.1986  -25.7316 F   0  0  0  0  0  0  0  0  0  0  0  0
  -14.6728   15.7545  -27.5082 F   0  0  0  0  0  0  0  0  0  0  0  0
  -14.1741   17.3006  -25.9191 F   0  0  0  0  0  0  0  0  0  0  0  0
 10 11  3  0  0  0
 11  9  1  0  0  0
  9  3  1  0  0  0
  3  4  1  0  0  0
  4  5  1  0  0  0
  5  6  1  0  0  0
  6  2  1  0  0  0
  2  1  1  0  0  0
  1 18  1  0  0  0
 18 19  1  0  0  0
 19 20  1  0  0  0
 20 21  2  0  0  0
 21 22  1  0  0  0
 22 26  1  0  0  0
 26 27  1  0  0  0
 26 28  1  0  0  0
 26 29  1  0  0  0
 22 23  2  0  0  0
 23 24  1  0  0  0
 24 30  1  0  0  0
 30 31  1  0  0  0
 30 32  1  0  0  0
 30 33  1  0  0  0
 24 25  2  0  0  0
  2 12  1  0  0  0
 12 13  2  0  0  0
 13 14  1  0  0  0
 14 15  2  0  0  0
 15 16  1  0  0  0
 16 17  2  0  0  0
  6  7  1  0  0  0
  7  8  1  0  0  0
  8  3  1  0  0  0
 25 20  1  0  0  0
 17 12  1  0  0  0
M  END
> <minimizedAffinity>
-7.42723

> <CNNscore>
0.2053664923

> <CNNaffinity>
6.3300275803

> <CNN_VS>
1.2999755144

> <CNNaffinity_variance>
0.2266262770

$$$$
[H]c1c([H])c([H])c(C([H])(N2C([H])([H])C([H])([H])N(C([H])([H])C#N)C([H])([H])C2([H])[H])C([H])([H])OC([H])([H])c2c([H])c(C(F)(F)F)c([H])c(C(F)(F)F)c2[H])c([H])c1[H]


 33 35  0  0  0  0  0  0  0  0999 V2000
  -17.7164   11.8872  -18.7239 C   0  0  0  0  0  0  0  0  0  0  0  0
  -19.1350   11.9331  -18.2659 C   0  0  0  0  0  0  0  0  0  0  0  0
  -19.8750   15.8324  -16.8659 N   0  0  0  0  0  0  0  0  0  0  0  0
  -20.9678   15.0395  -17.2994 C   0  0  0  0  0  0  0  0  0  0  0  0
  -20.5183   13.9410  -18.2589 C   0  0  0  0  0  0  0  0  0  0  0  0
  -19.4591   13.1819  -17.7059 N   0  0  0  0  0  0  0  0  0  0  0  0
  -18.3948   13.8816  -17.0765 C   0  0  0  0  0  0  0  0  0  0  0  0
  -18.5957   15.3603  -17.2728 C   0  0  0  0  0  0  0  0  0  0  0  0
  -20.0607   17.2327  -16.7833 C   0  0  0  0  0  0  0  0  0  0  0  0
  -19.3613   18.0745  -14.3702 N   0  0  0  0  0  0  0  0  0  0  0  0
  -19.6725   17.6899  -15.4395 C   0  0  0  0  0  0  0  0  0  0  0  0
  -19.4100   10.7577  -17.4021 C   0  0  0  0  0  0  0  0  0  0  0  0
  -20.4473   10.6911  -16.4984 C   0  0  0  0  0  0  0  0  0  0  0  0
  -20.6453    9.5920  -15.6848 C   0  0  0  0  0  0  0  0  0  0  0  0
  -19.8080    8.5028  -15.7390 C   0  0  0  0  0  0  0  0  0  0  0  0
  -18.7619    8.5498  -16.6425 C   0  0  0  0  0  0  0  0  0  0  0  0
  -18.5763    9.6579  -17.4496 C   0  0  0  0  0  0  0  0  0  0  0  0
  -17.5271   11.4722  -20.0397 O   0  0  0  0  0  0  0  0  0  0  0  0
  -18.2870   12.4076  -20.7874 C   0  0  0  0  0  0  0  0  0  0  0  0
  -17.5039   13.4795  -21.3693 C   0  0  0  0  0  0  0  0  0  0  0  0
  -17.4672   14.7432  -20.7394 C   0  0  0  0  0  0  0  0  0  0  0  0
  -16.7487   15.7907  -21.2293 C   0  0  0  0  0  0  0  0  0  0  0  0
  -16.0230   15.6296  -22.3835 C   0  0  0  0  0  0  0  0  0  0  0  0
  -16.0478   14.4062  -23.0102 C   0  0  0  0  0  0  0  0  0  0  0  0
  -16.7792   13.3219  -22.5201 C   0  0  0  0  0  0  0  0  0  0  0  0
  -16.7111   17.1279  -20.5646 C   0  0  0  0  0  0  0  0  0  0  0  0
  -15.6868   17.2309  -19.6865 F   0  0  0  0  0  0  0  0  0  0  0  0
  -17.9510   17.2882  -19.9622 F   0  0  0  0  0  0  0  0  0  0  0  0
  -16.6541   18.0741  -21.5761 F   0  0  0  0  0  0  0  0  0  0  0  0
  -15.2296   14.2824  -24.2586 C   0  0  0  0  0  0  0  0  0  0  0  0
  -14.2754   15.3074  -24.3056 F   0  0  0  0  0  0  0  0  0  0  0  0
  -14.5665   13.0852  -24.1818 F   0  0  0  0  0  0  0  0  0  0  0  0
  -15.9853   14.3678  -25.4093 F   0  0  0  0  0  0  0  0  0  0  0  0
 10 11  3  0  0  0
 11  9  1  0  0  0
  9  3  1  0  0  0
  3  4  1  0  0  0
  4  5  1  0  0  0
  5  6  1  0  0  0
  6  2  1  0  0  0
  2  1  1  0  0  0
  1 18  1  0  0  0
 18 19  1  0  0  0
 19 20  1  0  0  0
 20 21  2  0  0  0
 21 22  1  0  0  0
 22 26  1  0  0  0
 26 27  1  0  0  0
 26 28  1  0  0  0
 26 29  1  0  0  0
 22 23  2  0  0  0
 23 24  1  0  0  0
 24 30  1  0  0  0
 30 31  1  0  0  0
 30 32  1  0  0  0
 30 33  1  0  0  0
 24 25  2  0  0  0
  2 12  1  0  0  0
 12 13  2  0  0  0
 13 14  1  0  0  0
 14 15  2  0  0  0
 15 16  1  0  0  0
 16 17  2  0  0  0
  6  7  1  0  0  0
  7  8  1  0  0  0
  8  3  1  0  0  0
 25 20  1  0  0  0
 17 12  1  0  0  0
M  END
> <minimizedAffinity>
-8.51997

> <CNNscore>
0.2050800771

> <CNNaffinity>
6.0794229507

> <CNN_VS>
1.2467684746

> <CNNaffinity_variance>
0.3598407507

$$$$
[H]OC(=O)c1c([H])c([H])c([H])c(O[H])c1C(=O)c1c(O[H])c([H])c(C(=O)OC([H])([H])[C@]2([H])C([H])([H])C([H])([H])C([H])([H])[C@@]2([H])N([H])C(=O)c2c([H])c([H])c(O[H])c([H])c2[H])c([H])c1O[H]


 45 48  0  0  0  0  0  0  0  0999 V2000
  -17.7998   10.6167  -19.0335 C   0  0  0  0  0  0  0  0  0  0  0  0
  -18.7222   11.5595  -18.6908 C   0  0  0  0  0  0  0  0  0  0  0  0
  -19.4835   11.4425  -17.5195 C   0  0  0  0  0  0  0  0  0  0  0  0
  -20.3784   12.4543  -17.2714 O   0  0  0  0  0  0  0  0  0  0  0  0
  -19.3362   10.3728  -16.6646 C   0  0  0  0  0  0  0  0  0  0  0  0
  -18.3859    9.4073  -17.0256 C   0  0  0  0  0  0  0  0  0  0  0  0
  -18.1504    8.2660  -16.2370 O   0  0  0  0  0  0  0  0  0  0  0  0
  -17.6531    9.5499  -18.1799 C   0  0  0  0  0  0  0  0  0  0  0  0
  -20.9928   12.6133  -16.5295 H   0  0  0  0  0  0  0  0  0  0  0  0
  -17.4743    7.5978  -16.5111 H   0  0  0  0  0  0  0  0  0  0  0  0
  -16.9867   10.7289  -20.2659 C   0  0  0  0  0  0  0  0  0  0  0  0
  -16.1159    9.8702  -20.4567 O   0  0  0  0  0  0  0  0  0  0  0  0
  -17.1821   11.7060  -21.1269 O   0  0  0  0  0  0  0  0  0  0  0  0
  -17.0981   13.0384  -21.2863 C   0  0  0  0  0  0  0  0  0  0  0  0
  -16.7929   15.0489  -22.6080 C   0  0  0  0  0  0  0  0  0  0  0  0
  -15.5249   15.1029  -23.4251 C   0  0  0  0  0  0  0  0  0  0  0  0
  -15.4246   13.8482  -24.2232 C   0  0  0  0  0  0  0  0  0  0  0  0
  -16.5119   12.9042  -23.7277 C   0  0  0  0  0  0  0  0  0  0  0  0
  -17.2284   13.5802  -22.6585 C   0  0  0  0  0  0  0  0  0  0  0  0
  -17.2767   17.5243  -21.5658 O   0  0  0  0  0  0  0  0  0  0  0  0
  -18.0032   17.1942  -22.5485 C   0  0  0  0  0  0  0  0  0  0  0  0
  -17.8117   15.9362  -23.1338 N   0  0  0  0  0  0  0  0  0  0  0  0
  -18.4061   15.6380  -23.9504 H   0  0  0  0  0  0  0  0  0  0  0  0
  -18.9899   18.1289  -23.0152 C   0  0  0  0  0  0  0  0  0  0  0  0
  -18.6830   19.4602  -23.1503 C   0  0  0  0  0  0  0  0  0  0  0  0
  -19.6348   20.3782  -23.6012 C   0  0  0  0  0  0  0  0  0  0  0  0
  -20.8979   19.9402  -23.9145 C   0  0  0  0  0  0  0  0  0  0  0  0
  -21.8640   20.8419  -24.3672 O   0  0  0  0  0  0  0  0  0  0  0  0
  -21.2044   18.6021  -23.7780 C   0  0  0  0  0  0  0  0  0  0  0  0
  -20.2733   17.6907  -23.3346 C   0  0  0  0  0  0  0  0  0  0  0  0
  -21.9818   21.0442  -25.3426 H   0  0  0  0  0  0  0  0  0  0  0  0
  -20.1643   10.0767  -15.5416 C   0  0  0  0  0  0  0  0  0  0  0  0
  -19.6043   10.4110  -14.4010 O   0  0  0  0  0  0  0  0  0  0  0  0
  -21.4809    9.5054  -15.4266 C   0  0  0  0  0  0  0  0  0  0  0  0
  -22.5097   10.4768  -15.3197 C   0  0  0  0  0  0  0  0  0  0  0  0
  -22.1790   11.8243  -15.3465 O   0  0  0  0  0  0  0  0  0  0  0  0
  -23.8202   10.1351  -15.1907 C   0  0  0  0  0  0  0  0  0  0  0  0
  -24.1146    8.7942  -15.1675 C   0  0  0  0  0  0  0  0  0  0  0  0
  -23.1502    7.8413  -15.2641 C   0  0  0  0  0  0  0  0  0  0  0  0
  -21.7713    8.1868  -15.3956 C   0  0  0  0  0  0  0  0  0  0  0  0
  -22.9169   12.5023  -15.2703 H   0  0  0  0  0  0  0  0  0  0  0  0
  -20.8198    7.1065  -15.2647 C   0  0  0  0  0  0  0  0  0  0  0  0
  -20.6810    6.3216  -16.2640 O   0  0  0  0  0  0  0  0  0  0  0  0
  -20.0527    6.8115  -14.1941 O   0  0  0  0  0  0  0  0  0  0  0  0
  -19.5595    5.9593  -14.0159 H   0  0  0  0  0  0  0  0  0  0  0  0
 20 21  2  0  0  0
 21 22  1  0  0  0
 22 15  1  0  0  0
 15 16  1  0  0  0
 16 17  1  0  0  0
 17 18  1  0  0  0
 18 19  1  0  0  0
 19 14  1  0  0  0
 14 13  1  0  0  0
 13 11  1  0  0  0
 11 12  2  0  0  0
 11  1  1  0  0  0
  1  2  2  0  0  0
  2  3  1  0  0  0
  3  4  1  0  0  0
  3  5  2  0  0  0
  5 32  1  0  0  0
 32 33  2  0  0  0
 32 34  1  0  0  0
 34 35  2  0  0  0
 35 36  1  0  0  0
 35 37  1  0  0  0
 37 38  2  0  0  0
 38 39  1  0  0  0
 39 40  2  0  0  0
 40 42  1  0  0  0
 42 43  2  0  0  0
 42 44  1  0  0  0
  5  6  1  0  0  0
  6  7  1  0  0  0
  6  8  2  0  0  0
 21 24  1  0  0  0
 24 25  2  0  0  0
 25 26  1  0  0  0
 26 27  2  0  0  0
 27 28  1  0  0  0
 27 29  1  0  0  0
 29 30  2  0  0  0
 19 15  1  0  0  0
  8  1  1  0  0  0
 30 24  1  0  0  0
 40 34  1  0  0  0
 22 23  1  0  0  0
  4  9  1  0  0  0
 36 41  1  0  0  0
 44 45  1  0  0  0
  7 10  1  0  0  0
 28 31  1  0  0  0
M  END
> <minimizedAffinity>
-9.01133

> <CNNscore>
0.5990483165

> <CNNaffinity>
6.4156250954

> <CNN_VS>
3.8432693481

> <CNNaffinity_variance>
0.1014523953

$$$$
[H]OC(=O)c1c([H])c([H])c([H])c(O[H])c1C(=O)c1c(O[H])c([H])c(C(=O)OC([H])([H])[C@]2([H])C([H])([H])C([H])([H])C([H])([H])[C@@]2([H])N([H])C(=O)c2c([H])c([H])c(O[H])c([H])c2[H])c([H])c1O[H]


 45 48  0  0  0  0  0  0  0  0999 V2000
  -17.4078   10.7288  -19.3880 C   0  0  0  0  0  0  0  0  0  0  0  0
  -17.2905    9.6551  -18.5571 C   0  0  0  0  0  0  0  0  0  0  0  0
  -18.1217    9.5050  -17.4382 C   0  0  0  0  0  0  0  0  0  0  0  0
  -17.9182    8.3815  -16.6750 O   0  0  0  0  0  0  0  0  0  0  0  0
  -19.0909   10.4326  -17.1273 C   0  0  0  0  0  0  0  0  0  0  0  0
  -19.2038   11.5344  -17.9869 C   0  0  0  0  0  0  0  0  0  0  0  0
  -20.1511   12.5518  -17.7694 O   0  0  0  0  0  0  0  0  0  0  0  0
  -18.3753   11.6538  -19.0774 C   0  0  0  0  0  0  0  0  0  0  0  0
  -18.3709    8.0442  -15.8785 H   0  0  0  0  0  0  0  0  0  0  0  0
  -20.2133   13.3201  -18.3896 H   0  0  0  0  0  0  0  0  0  0  0  0
  -16.5388   10.8987  -20.5748 C   0  0  0  0  0  0  0  0  0  0  0  0
  -15.6109   10.0932  -20.7242 O   0  0  0  0  0  0  0  0  0  0  0  0
  -16.7449   11.8707  -21.4392 O   0  0  0  0  0  0  0  0  0  0  0  0
  -16.3695   12.3470  -22.6391 C   0  0  0  0  0  0  0  0  0  0  0  0
  -17.2183   14.5555  -23.1721 C   0  0  0  0  0  0  0  0  0  0  0  0
  -16.7379   15.1381  -24.4792 C   0  0  0  0  0  0  0  0  0  0  0  0
  -16.9746   14.1363  -25.5570 C   0  0  0  0  0  0  0  0  0  0  0  0
  -17.3878   12.8333  -24.8860 C   0  0  0  0  0  0  0  0  0  0  0  0
  -17.3853   13.0575  -23.4496 C   0  0  0  0  0  0  0  0  0  0  0  0
  -17.7812   15.0210  -20.5426 O   0  0  0  0  0  0  0  0  0  0  0  0
  -18.6761   15.3774  -21.3638 C   0  0  0  0  0  0  0  0  0  0  0  0
  -18.4561   15.1679  -22.7311 N   0  0  0  0  0  0  0  0  0  0  0  0
  -19.1874   15.4532  -23.4332 H   0  0  0  0  0  0  0  0  0  0  0  0
  -19.8753   15.9807  -20.8508 C   0  0  0  0  0  0  0  0  0  0  0  0
  -20.6716   15.3051  -19.9596 C   0  0  0  0  0  0  0  0  0  0  0  0
  -21.8406   15.8809  -19.4558 C   0  0  0  0  0  0  0  0  0  0  0  0
  -22.1977   17.1439  -19.8593 C   0  0  0  0  0  0  0  0  0  0  0  0
  -23.3625   17.7375  -19.3672 O   0  0  0  0  0  0  0  0  0  0  0  0
  -21.3962   17.8211  -20.7548 C   0  0  0  0  0  0  0  0  0  0  0  0
  -20.2430   17.2618  -21.2564 C   0  0  0  0  0  0  0  0  0  0  0  0
  -23.3597   18.2944  -18.5329 H   0  0  0  0  0  0  0  0  0  0  0  0
  -19.8745   10.4593  -15.9356 C   0  0  0  0  0  0  0  0  0  0  0  0
  -19.4191   11.3194  -15.0529 O   0  0  0  0  0  0  0  0  0  0  0  0
  -21.0579    9.7453  -15.5325 C   0  0  0  0  0  0  0  0  0  0  0  0
  -22.2344   10.5377  -15.5691 C   0  0  0  0  0  0  0  0  0  0  0  0
  -22.1518   11.8603  -15.9810 O   0  0  0  0  0  0  0  0  0  0  0  0
  -23.4521   10.0464  -15.2129 C   0  0  0  0  0  0  0  0  0  0  0  0
  -23.5005    8.7345  -14.8102 C   0  0  0  0  0  0  0  0  0  0  0  0
  -22.3897    7.9527  -14.7613 C   0  0  0  0  0  0  0  0  0  0  0  0
  -21.1059    8.4575  -15.1284 C   0  0  0  0  0  0  0  0  0  0  0  0
  -22.9923   12.4107  -16.0030 H   0  0  0  0  0  0  0  0  0  0  0  0
  -19.9706    7.6151  -14.8268 C   0  0  0  0  0  0  0  0  0  0  0  0
  -19.8801    6.5046  -15.4535 O   0  0  0  0  0  0  0  0  0  0  0  0
  -18.9809    7.8549  -13.9411 O   0  0  0  0  0  0  0  0  0  0  0  0
  -18.3205    7.1985  -13.5748 H   0  0  0  0  0  0  0  0  0  0  0  0
 20 21  2  0  0  0
 21 22  1  0  0  0
 22 15  1  0  0  0
 15 16  1  0  0  0
 16 17  1  0  0  0
 17 18  1  0  0  0
 18 19  1  0  0  0
 19 14  1  0  0  0
 14 13  1  0  0  0
 13 11  1  0  0  0
 11 12  2  0  0  0
 11  1  1  0  0  0
  1  2  2  0  0  0
  2  3  1  0  0  0
  3  4  1  0  0  0
  3  5  2  0  0  0
  5 32  1  0  0  0
 32 33  2  0  0  0
 32 34  1  0  0  0
 34 35  2  0  0  0
 35 36  1  0  0  0
 35 37  1  0  0  0
 37 38  2  0  0  0
 38 39  1  0  0  0
 39 40  2  0  0  0
 40 42  1  0  0  0
 42 43  2  0  0  0
 42 44  1  0  0  0
  5  6  1  0  0  0
  6  7  1  0  0  0
  6  8  2  0  0  0
 21 24  1  0  0  0
 24 25  2  0  0  0
 25 26  1  0  0  0
 26 27  2  0  0  0
 27 28  1  0  0  0
 27 29  1  0  0  0
 29 30  2  0  0  0
 19 15  1  0  0  0
  8  1  1  0  0  0
 30 24  1  0  0  0
 40 34  1  0  0  0
 22 23  1  0  0  0
  4  9  1  0  0  0
 36 41  1  0  0  0
 44 45  1  0  0  0
  7 10  1  0  0  0
 28 31  1  0  0  0
M  END
> <minimizedAffinity>
-9.13946

> <CNNscore>
0.4923434854

> <CNNaffinity>
6.4738931656

> <CNN_VS>
3.1873791218

> <CNNaffinity_variance>
0.0980014950

$$$$
[H]OC(=O)c1c([H])c([H])c([H])c(O[H])c1C(=O)c1c(O[H])c([H])c(C(=O)OC([H])([H])[C@]2([H])C([H])([H])C([H])([H])C([H])([H])[C@@]2([H])N([H])C(=O)c2c([H])c([H])c(O[H])c([H])c2[H])c([H])c1O[H]


 45 48  0  0  0  0  0  0  0  0999 V2000
  -18.0395   10.8754  -18.8502 C   0  0  0  0  0  0  0  0  0  0  0  0
  -18.9541   11.7334  -18.3169 C   0  0  0  0  0  0  0  0  0  0  0  0
  -19.6320   11.4297  -17.1280 C   0  0  0  0  0  0  0  0  0  0  0  0
  -20.5269   12.3702  -16.6801 O   0  0  0  0  0  0  0  0  0  0  0  0
  -19.4069   10.2540  -16.4470 C   0  0  0  0  0  0  0  0  0  0  0  0
  -18.4653    9.3769  -17.0034 C   0  0  0  0  0  0  0  0  0  0  0  0
  -18.1554    8.1423  -16.4037 O   0  0  0  0  0  0  0  0  0  0  0  0
  -17.8151    9.7028  -18.1700 C   0  0  0  0  0  0  0  0  0  0  0  0
  -21.0925   12.4047  -15.8851 H   0  0  0  0  0  0  0  0  0  0  0  0
  -17.4870    7.5392  -16.8138 H   0  0  0  0  0  0  0  0  0  0  0  0
  -17.3139   11.1847  -20.1035 C   0  0  0  0  0  0  0  0  0  0  0  0
  -16.6961   10.2614  -20.6493 O   0  0  0  0  0  0  0  0  0  0  0  0
  -17.3251   12.3967  -20.6182 O   0  0  0  0  0  0  0  0  0  0  0  0
  -17.4093   13.0791  -21.7735 C   0  0  0  0  0  0  0  0  0  0  0  0
  -17.7850   15.0373  -20.3928 C   0  0  0  0  0  0  0  0  0  0  0  0
  -16.9245   16.2348  -20.7157 C   0  0  0  0  0  0  0  0  0  0  0  0
  -17.0299   16.5106  -22.1765 C   0  0  0  0  0  0  0  0  0  0  0  0
  -17.7722   15.3413  -22.8093 C   0  0  0  0  0  0  0  0  0  0  0  0
  -18.0876   14.3955  -21.7513 C   0  0  0  0  0  0  0  0  0  0  0  0
  -17.9771   15.0206  -17.6705 O   0  0  0  0  0  0  0  0  0  0  0  0
  -19.0197   15.3847  -18.2891 C   0  0  0  0  0  0  0  0  0  0  0  0
  -18.9946   15.4163  -19.6892 N   0  0  0  0  0  0  0  0  0  0  0  0
  -19.8507   15.7128  -20.2259 H   0  0  0  0  0  0  0  0  0  0  0  0
  -20.1792   15.7485  -17.5220 C   0  0  0  0  0  0  0  0  0  0  0  0
  -20.0453   16.3538  -16.2971 C   0  0  0  0  0  0  0  0  0  0  0  0
  -21.1654   16.7100  -15.5418 C   0  0  0  0  0  0  0  0  0  0  0  0
  -22.4206   16.4501  -16.0342 C   0  0  0  0  0  0  0  0  0  0  0  0
  -23.5533   16.7986  -15.2947 O   0  0  0  0  0  0  0  0  0  0  0  0
  -22.5530   15.8418  -17.2652 C   0  0  0  0  0  0  0  0  0  0  0  0
  -21.4554   15.4874  -18.0162 C   0  0  0  0  0  0  0  0  0  0  0  0
  -23.9923   17.6953  -15.3919 H   0  0  0  0  0  0  0  0  0  0  0  0
  -20.1513    9.7780  -15.3272 C   0  0  0  0  0  0  0  0  0  0  0  0
  -20.9997    8.8292  -15.6532 O   0  0  0  0  0  0  0  0  0  0  0  0
  -20.1364   10.1248  -13.9299 C   0  0  0  0  0  0  0  0  0  0  0  0
  -19.3430    9.2523  -13.1408 C   0  0  0  0  0  0  0  0  0  0  0  0
  -18.6732    8.2017  -13.7519 O   0  0  0  0  0  0  0  0  0  0  0  0
  -19.2119    9.4073  -11.7956 C   0  0  0  0  0  0  0  0  0  0  0  0
  -19.8869   10.4560  -11.2211 C   0  0  0  0  0  0  0  0  0  0  0  0
  -20.6573   11.3054  -11.9508 C   0  0  0  0  0  0  0  0  0  0  0  0
  -20.8062   11.1510  -13.3621 C   0  0  0  0  0  0  0  0  0  0  0  0
  -18.1141    7.5912  -13.1821 H   0  0  0  0  0  0  0  0  0  0  0  0
  -21.8175   11.9653  -13.9975 C   0  0  0  0  0  0  0  0  0  0  0  0
  -22.9348   11.4077  -14.2705 O   0  0  0  0  0  0  0  0  0  0  0  0
  -21.7231   13.2634  -14.3547 O   0  0  0  0  0  0  0  0  0  0  0  0
  -22.3241   13.7685  -14.9752 H   0  0  0  0  0  0  0  0  0  0  0  0
 20 21  2  0  0  0
 21 22  1  0  0  0
 22 15  1  0  0  0
 15 16  1  0  0  0
 16 17  1  0  0  0
 17 18  1  0  0  0
 18 19  1  0  0  0
 19 14  1  0  0  0
 14 13  1  0  0  0
 13 11  1  0  0  0
 11 12  2  0  0  0
 11  1  1  0  0  0
  1  2  2  0  0  0
  2  3  1  0  0  0
  3  4  1  0  0  0
  3  5  2  0  0  0
  5 32  1  0  0  0
 32 33  2  0  0  0
 32 34  1  0  0  0
 34 35  2  0  0  0
 35 36  1  0  0  0
 35 37  1  0  0  0
 37 38  2  0  0  0
 38 39  1  0  0  0
 39 40  2  0  0  0
 40 42  1  0  0  0
 42 43  2  0  0  0
 42 44  1  0  0  0
  5  6  1  0  0  0
  6  7  1  0  0  0
  6  8  2  0  0  0
 21 24  1  0  0  0
 24 25  2  0  0  0
 25 26  1  0  0  0
 26 27  2  0  0  0
 27 28  1  0  0  0
 27 29  1  0  0  0
 29 30  2  0  0  0
 19 15  1  0  0  0
  8  1  1  0  0  0
 30 24  1  0  0  0
 40 34  1  0  0  0
 22 23  1  0  0  0
  4  9  1  0  0  0
 36 41  1  0  0  0
 44 45  1  0  0  0
  7 10  1  0  0  0
 28 31  1  0  0  0
M  END
> <minimizedAffinity>
-8.49284

> <CNNscore>
0.3031809032

> <CNNaffinity>
6.1565775871

> <CNN_VS>
1.8665567636

> <CNNaffinity_variance>
0.0777019709

$$$$
[H]OC(=O)c1c([H])c([H])c([H])c(O[H])c1C(=O)c1c(O[H])c([H])c(C(=O)OC([H])([H])[C@]2([H])C([H])([H])C([H])([H])C([H])([H])[C@@]2([H])N([H])C(=O)c2c([H])c([H])c(O[H])c([H])c2[H])c([H])c1O[H]


 45 48  0  0  0  0  0  0  0  0999 V2000
  -16.9928   12.2205  -21.6788 C   0  0  0  0  0  0  0  0  0  0  0  0
  -16.4408   11.4349  -20.7117 C   0  0  0  0  0  0  0  0  0  0  0  0
  -16.9826   11.3798  -19.4200 C   0  0  0  0  0  0  0  0  0  0  0  0
  -16.3480   10.5500  -18.5284 O   0  0  0  0  0  0  0  0  0  0  0  0
  -18.0930   12.1151  -19.0692 C   0  0  0  0  0  0  0  0  0  0  0  0
  -18.6537   12.9212  -20.0700 C   0  0  0  0  0  0  0  0  0  0  0  0
  -19.7845   13.7234  -19.8305 O   0  0  0  0  0  0  0  0  0  0  0  0
  -18.1010   12.9535  -21.3282 C   0  0  0  0  0  0  0  0  0  0  0  0
  -16.5400   10.3243  -17.5982 H   0  0  0  0  0  0  0  0  0  0  0  0
  -20.1637   14.2841  -20.5520 H   0  0  0  0  0  0  0  0  0  0  0  0
  -16.4329   12.2861  -23.0481 C   0  0  0  0  0  0  0  0  0  0  0  0
  -15.2892   11.8452  -23.2200 O   0  0  0  0  0  0  0  0  0  0  0  0
  -17.1257   12.7948  -24.0459 O   0  0  0  0  0  0  0  0  0  0  0  0
  -17.1082   13.0135  -25.3723 C   0  0  0  0  0  0  0  0  0  0  0  0
  -16.1774   15.1936  -24.8596 C   0  0  0  0  0  0  0  0  0  0  0  0
  -14.9628   15.5872  -25.6649 C   0  0  0  0  0  0  0  0  0  0  0  0
  -15.2752   15.4013  -27.1103 C   0  0  0  0  0  0  0  0  0  0  0  0
  -16.6064   14.6673  -27.1986 C   0  0  0  0  0  0  0  0  0  0  0  0
  -17.0627   14.4177  -25.8410 C   0  0  0  0  0  0  0  0  0  0  0  0
  -16.2289   15.7466  -22.1876 O   0  0  0  0  0  0  0  0  0  0  0  0
  -16.8417   16.5709  -22.9276 C   0  0  0  0  0  0  0  0  0  0  0  0
  -16.8584   16.3497  -24.3105 N   0  0  0  0  0  0  0  0  0  0  0  0
  -17.3643   17.0199  -24.9461 H   0  0  0  0  0  0  0  0  0  0  0  0
  -17.4904   17.6946  -22.3100 C   0  0  0  0  0  0  0  0  0  0  0  0
  -17.4148   17.8864  -20.9527 C   0  0  0  0  0  0  0  0  0  0  0  0
  -18.0432   18.9742  -20.3414 C   0  0  0  0  0  0  0  0  0  0  0  0
  -18.7476   19.8659  -21.1122 C   0  0  0  0  0  0  0  0  0  0  0  0
  -19.3829   20.9602  -20.5203 O   0  0  0  0  0  0  0  0  0  0  0  0
  -18.8224   19.6715  -22.4759 C   0  0  0  0  0  0  0  0  0  0  0  0
  -18.2067   18.6028  -23.0867 C   0  0  0  0  0  0  0  0  0  0  0  0
  -18.9172   21.8407  -20.4018 H   0  0  0  0  0  0  0  0  0  0  0  0
  -18.6243   12.2553  -17.7528 C   0  0  0  0  0  0  0  0  0  0  0  0
  -18.0253   13.2021  -17.0664 O   0  0  0  0  0  0  0  0  0  0  0  0
  -19.6846   11.5773  -17.0537 C   0  0  0  0  0  0  0  0  0  0  0  0
  -20.7013   12.4505  -16.5876 C   0  0  0  0  0  0  0  0  0  0  0  0
  -20.5999   13.8108  -16.8426 O   0  0  0  0  0  0  0  0  0  0  0  0
  -21.7821   12.0016  -15.8938 C   0  0  0  0  0  0  0  0  0  0  0  0
  -21.8532   10.6508  -15.6578 C   0  0  0  0  0  0  0  0  0  0  0  0
  -20.8927    9.7909  -16.0886 C   0  0  0  0  0  0  0  0  0  0  0  0
  -19.7519   10.2499  -16.8138 C   0  0  0  0  0  0  0  0  0  0  0  0
  -21.3267   14.4185  -16.5075 H   0  0  0  0  0  0  0  0  0  0  0  0
  -18.6921    9.2899  -17.0249 C   0  0  0  0  0  0  0  0  0  0  0  0
  -18.5675    8.8011  -18.1994 O   0  0  0  0  0  0  0  0  0  0  0  0
  -17.8073    8.8286  -16.1161 O   0  0  0  0  0  0  0  0  0  0  0  0
  -17.2196    8.0226  -16.1944 H   0  0  0  0  0  0  0  0  0  0  0  0
 20 21  2  0  0  0
 21 22  1  0  0  0
 22 15  1  0  0  0
 15 16  1  0  0  0
 16 17  1  0  0  0
 17 18  1  0  0  0
 18 19  1  0  0  0
 19 14  1  0  0  0
 14 13  1  0  0  0
 13 11  1  0  0  0
 11 12  2  0  0  0
 11  1  1  0  0  0
  1  2  2  0  0  0
  2  3  1  0  0  0
  3  4  1  0  0  0
  3  5  2  0  0  0
  5 32  1  0  0  0
 32 33  2  0  0  0
 32 34  1  0  0  0
 34 35  2  0  0  0
 35 36  1  0  0  0
 35 37  1  0  0  0
 37 38  2  0  0  0
 38 39  1  0  0  0
 39 40  2  0  0  0
 40 42  1  0  0  0
 42 43  2  0  0  0
 42 44  1  0  0  0
  5  6  1  0  0  0
  6  7  1  0  0  0
  6  8  2  0  0  0
 21 24  1  0  0  0
 24 25  2  0  0  0
 25 26  1  0  0  0
 26 27  2  0  0  0
 27 28  1  0  0  0
 27 29  1  0  0  0
 29 30  2  0  0  0
 19 15  1  0  0  0
  8  1  1  0  0  0
 30 24  1  0  0  0
 40 34  1  0  0  0
 22 23  1  0  0  0
  4  9  1  0  0  0
 36 41  1  0  0  0
 44 45  1  0  0  0
  7 10  1  0  0  0
 28 31  1  0  0  0
M  END
> <minimizedAffinity>
-9.86527

> <CNNscore>
0.2834106982

> <CNNaffinity>
6.5258140564

> <CNN_VS>
1.8494855165

> <CNNaffinity_variance>
0.1024375185

$$$$
[H]OC(=O)c1c([H])c([H])c([H])c(O[H])c1C(=O)c1c(O[H])c([H])c(C(=O)OC([H])([H])[C@]2([H])C([H])([H])C([H])([H])C([H])([H])[C@@]2([H])N([H])C(=O)c2c([H])c([H])c(O[H])c([H])c2[H])c([H])c1O[H]


 45 48  0  0  0  0  0  0  0  0999 V2000
  -20.2511   17.5490  -20.4107 C   0  0  0  0  0  0  0  0  0  0  0  0
  -20.2216   17.9864  -21.7010 C   0  0  0  0  0  0  0  0  0  0  0  0
  -19.1684   17.6470  -22.5618 C   0  0  0  0  0  0  0  0  0  0  0  0
  -19.2457   18.1387  -23.8419 O   0  0  0  0  0  0  0  0  0  0  0  0
  -18.1181   16.8598  -22.1448 C   0  0  0  0  0  0  0  0  0  0  0  0
  -18.1563   16.4153  -20.8157 C   0  0  0  0  0  0  0  0  0  0  0  0
  -17.1372   15.6118  -20.2720 O   0  0  0  0  0  0  0  0  0  0  0  0
  -19.2031   16.7633  -19.9954 C   0  0  0  0  0  0  0  0  0  0  0  0
  -18.6646   18.0281  -24.6185 H   0  0  0  0  0  0  0  0  0  0  0  0
  -17.1852   15.3091  -19.3313 H   0  0  0  0  0  0  0  0  0  0  0  0
  -21.3586   17.8971  -19.4914 C   0  0  0  0  0  0  0  0  0  0  0  0
  -22.4616   18.1478  -19.9940 O   0  0  0  0  0  0  0  0  0  0  0  0
  -21.1769   17.9389  -18.1878 O   0  0  0  0  0  0  0  0  0  0  0  0
  -21.6589   17.4921  -17.0150 C   0  0  0  0  0  0  0  0  0  0  0  0
  -21.4812   15.3301  -15.9304 C   0  0  0  0  0  0  0  0  0  0  0  0
  -22.4856   15.0685  -14.8344 C   0  0  0  0  0  0  0  0  0  0  0  0
  -23.8483   15.3546  -15.3659 C   0  0  0  0  0  0  0  0  0  0  0  0
  -23.6775   16.0215  -16.7241 C   0  0  0  0  0  0  0  0  0  0  0  0
  -22.2515   16.1351  -16.9828 C   0  0  0  0  0  0  0  0  0  0  0  0
  -18.9123   15.1077  -16.8244 O   0  0  0  0  0  0  0  0  0  0  0  0
  -19.6140   14.0579  -16.9133 C   0  0  0  0  0  0  0  0  0  0  0  0
  -20.9435   14.0985  -16.4745 N   0  0  0  0  0  0  0  0  0  0  0  0
  -21.5479   13.2387  -16.5413 H   0  0  0  0  0  0  0  0  0  0  0  0
  -19.0098   12.8746  -17.4610 C   0  0  0  0  0  0  0  0  0  0  0  0
  -17.9519   12.9685  -18.3309 C   0  0  0  0  0  0  0  0  0  0  0  0
  -17.3580   11.8250  -18.8710 C   0  0  0  0  0  0  0  0  0  0  0  0
  -17.8412   10.5872  -18.5248 C   0  0  0  0  0  0  0  0  0  0  0  0
  -17.2612    9.4316  -19.0535 O   0  0  0  0  0  0  0  0  0  0  0  0
  -18.9043   10.4950  -17.6505 C   0  0  0  0  0  0  0  0  0  0  0  0
  -19.4956   11.6159  -17.1136 C   0  0  0  0  0  0  0  0  0  0  0  0
  -16.4991    8.9665  -18.5964 H   0  0  0  0  0  0  0  0  0  0  0  0
  -16.9275   16.5904  -22.8828 C   0  0  0  0  0  0  0  0  0  0  0  0
  -15.8702   17.1711  -22.3621 O   0  0  0  0  0  0  0  0  0  0  0  0
  -16.6693   15.8032  -24.0602 C   0  0  0  0  0  0  0  0  0  0  0  0
  -16.5181   16.5816  -25.2369 C   0  0  0  0  0  0  0  0  0  0  0  0
  -16.6139   17.9637  -25.1558 O   0  0  0  0  0  0  0  0  0  0  0  0
  -16.2805   16.0203  -26.4533 C   0  0  0  0  0  0  0  0  0  0  0  0
  -16.1912   14.6509  -26.5002 C   0  0  0  0  0  0  0  0  0  0  0  0
  -16.3355   13.8794  -25.3905 C   0  0  0  0  0  0  0  0  0  0  0  0
  -16.5892   14.4559  -24.1094 C   0  0  0  0  0  0  0  0  0  0  0  0
  -16.5044   18.5036  -25.9963 H   0  0  0  0  0  0  0  0  0  0  0  0
  -16.9459   13.5407  -23.0489 C   0  0  0  0  0  0  0  0  0  0  0  0
  -18.1149   13.6533  -22.5442 O   0  0  0  0  0  0  0  0  0  0  0  0
  -16.1797   12.5704  -22.5077 O   0  0  0  0  0  0  0  0  0  0  0  0
  -16.3336   12.0830  -21.6475 H   0  0  0  0  0  0  0  0  0  0  0  0
 20 21  2  0  0  0
 21 22  1  0  0  0
 22 15  1  0  0  0
 15 16  1  0  0  0
 16 17  1  0  0  0
 17 18  1  0  0  0
 18 19  1  0  0  0
 19 14  1  0  0  0
 14 13  1  0  0  0
 13 11  1  0  0  0
 11 12  2  0  0  0
 11  1  1  0  0  0
  1  2  2  0  0  0
  2  3  1  0  0  0
  3  4  1  0  0  0
  3  5  2  0  0  0
  5 32  1  0  0  0
 32 33  2  0  0  0
 32 34  1  0  0  0
 34 35  2  0  0  0
 35 36  1  0  0  0
 35 37  1  0  0  0
 37 38  2  0  0  0
 38 39  1  0  0  0
 39 40  2  0  0  0
 40 42  1  0  0  0
 42 43  2  0  0  0
 42 44  1  0  0  0
  5  6  1  0  0  0
  6  7  1  0  0  0
  6  8  2  0  0  0
 21 24  1  0  0  0
 24 25  2  0  0  0
 25 26  1  0  0  0
 26 27  2  0  0  0
 27 28  1  0  0  0
 27 29  1  0  0  0
 29 30  2  0  0  0
 19 15  1  0  0  0
  8  1  1  0  0  0
 30 24  1  0  0  0
 40 34  1  0  0  0
 22 23  1  0  0  0
  4  9  1  0  0  0
 36 41  1  0  0  0
 44 45  1  0  0  0
  7 10  1  0  0  0
 28 31  1  0  0  0
M  END
> <minimizedAffinity>
-8.35780

> <CNNscore>
0.2629497945

> <CNNaffinity>
5.9481744766

> <CNN_VS>
1.5640712976

> <CNNaffinity_variance>
0.0308833532

$$$$
[H]OC(=O)c1c([H])c([H])c([H])c(O[H])c1C(=O)c1c(O[H])c([H])c(C(=O)OC([H])([H])[C@]2([H])C([H])([H])C([H])([H])C([H])([H])[C@@]2([H])N([H])C(=O)c2c([H])c([H])c(O[H])c([H])c2[H])c([H])c1O[H]


 45 48  0  0  0  0  0  0  0  0999 V2000
  -18.9372   18.5112  -20.1869 C   0  0  0  0  0  0  0  0  0  0  0  0
  -18.5582   17.2149  -20.0053 C   0  0  0  0  0  0  0  0  0  0  0  0
  -18.0936   16.4348  -21.0734 C   0  0  0  0  0  0  0  0  0  0  0  0
  -17.7337   15.1438  -20.7731 O   0  0  0  0  0  0  0  0  0  0  0  0
  -18.0002   16.9398  -22.3513 C   0  0  0  0  0  0  0  0  0  0  0  0
  -18.3932   18.2738  -22.5290 C   0  0  0  0  0  0  0  0  0  0  0  0
  -18.3500   18.8989  -23.7888 O   0  0  0  0  0  0  0  0  0  0  0  0
  -18.8433   19.0146  -21.4621 C   0  0  0  0  0  0  0  0  0  0  0  0
  -17.3669   14.4251  -21.3227 H   0  0  0  0  0  0  0  0  0  0  0  0
  -18.6318   19.8418  -23.8908 H   0  0  0  0  0  0  0  0  0  0  0  0
  -19.4269   19.3477  -19.0675 C   0  0  0  0  0  0  0  0  0  0  0  0
  -18.5833   19.8176  -18.2932 O   0  0  0  0  0  0  0  0  0  0  0  0
  -20.7119   19.5828  -18.9015 O   0  0  0  0  0  0  0  0  0  0  0  0
  -21.7387   20.3316  -19.3402 C   0  0  0  0  0  0  0  0  0  0  0  0
  -22.5154   18.3004  -20.4139 C   0  0  0  0  0  0  0  0  0  0  0  0
  -23.0606   17.2423  -19.4856 C   0  0  0  0  0  0  0  0  0  0  0  0
  -24.0811   17.8723  -18.6007 C   0  0  0  0  0  0  0  0  0  0  0  0
  -24.0055   19.3777  -18.8167 C   0  0  0  0  0  0  0  0  0  0  0  0
  -22.9610   19.6302  -19.7959 C   0  0  0  0  0  0  0  0  0  0  0  0
  -21.3341   19.4841  -22.5707 O   0  0  0  0  0  0  0  0  0  0  0  0
  -22.3509   18.7746  -22.8262 C   0  0  0  0  0  0  0  0  0  0  0  0
  -23.0096   18.1373  -21.7671 N   0  0  0  0  0  0  0  0  0  0  0  0
  -23.8596   17.5444  -21.9545 H   0  0  0  0  0  0  0  0  0  0  0  0
  -22.7788   18.6584  -24.1931 C   0  0  0  0  0  0  0  0  0  0  0  0
  -23.1153   17.4356  -24.7187 C   0  0  0  0  0  0  0  0  0  0  0  0
  -23.5307   17.3104  -26.0467 C   0  0  0  0  0  0  0  0  0  0  0  0
  -23.6036   18.4301  -26.8383 C   0  0  0  0  0  0  0  0  0  0  0  0
  -24.0169   18.3264  -28.1687 O   0  0  0  0  0  0  0  0  0  0  0  0
  -23.2651   19.6579  -26.3083 C   0  0  0  0  0  0  0  0  0  0  0  0
  -22.8548   19.7907  -25.0013 C   0  0  0  0  0  0  0  0  0  0  0  0
  -24.9822   18.4057  -28.4296 H   0  0  0  0  0  0  0  0  0  0  0  0
  -17.6967   16.1928  -23.5280 C   0  0  0  0  0  0  0  0  0  0  0  0
  -18.7541   15.9870  -24.2802 O   0  0  0  0  0  0  0  0  0  0  0  0
  -16.4691   15.6459  -24.0442 C   0  0  0  0  0  0  0  0  0  0  0  0
  -15.7735   16.5347  -24.9042 C   0  0  0  0  0  0  0  0  0  0  0  0
  -16.3006   17.7943  -25.1519 O   0  0  0  0  0  0  0  0  0  0  0  0
  -14.5985   16.1968  -25.5011 C   0  0  0  0  0  0  0  0  0  0  0  0
  -14.1034   14.9439  -25.2360 C   0  0  0  0  0  0  0  0  0  0  0  0
  -14.7493   14.0699  -24.4197 C   0  0  0  0  0  0  0  0  0  0  0  0
  -15.9848   14.4108  -23.7908 C   0  0  0  0  0  0  0  0  0  0  0  0
  -15.7981   18.4146  -25.7624 H   0  0  0  0  0  0  0  0  0  0  0  0
  -16.6911   13.3364  -23.1305 C   0  0  0  0  0  0  0  0  0  0  0  0
  -17.6158   12.7491  -23.7891 O   0  0  0  0  0  0  0  0  0  0  0  0
  -16.4990   12.8742  -21.8771 O   0  0  0  0  0  0  0  0  0  0  0  0
  -17.1111   12.2886  -21.3445 H   0  0  0  0  0  0  0  0  0  0  0  0
 20 21  2  0  0  0
 21 22  1  0  0  0
 22 15  1  0  0  0
 15 16  1  0  0  0
 16 17  1  0  0  0
 17 18  1  0  0  0
 18 19  1  0  0  0
 19 14  1  0  0  0
 14 13  1  0  0  0
 13 11  1  0  0  0
 11 12  2  0  0  0
 11  1  1  0  0  0
  1  2  2  0  0  0
  2  3  1  0  0  0
  3  4  1  0  0  0
  3  5  2  0  0  0
  5 32  1  0  0  0
 32 33  2  0  0  0
 32 34  1  0  0  0
 34 35  2  0  0  0
 35 36  1  0  0  0
 35 37  1  0  0  0
 37 38  2  0  0  0
 38 39  1  0  0  0
 39 40  2  0  0  0
 40 42  1  0  0  0
 42 43  2  0  0  0
 42 44  1  0  0  0
  5  6  1  0  0  0
  6  7  1  0  0  0
  6  8  2  0  0  0
 21 24  1  0  0  0
 24 25  2  0  0  0
 25 26  1  0  0  0
 26 27  2  0  0  0
 27 28  1  0  0  0
 27 29  1  0  0  0
 29 30  2  0  0  0
 19 15  1  0  0  0
  8  1  1  0  0  0
 30 24  1  0  0  0
 40 34  1  0  0  0
 22 23  1  0  0  0
  4  9  1  0  0  0
 36 41  1  0  0  0
 44 45  1  0  0  0
  7 10  1  0  0  0
 28 31  1  0  0  0
M  END
> <minimizedAffinity>
-8.52857

> <CNNscore>
0.2585802972

> <CNNaffinity>
5.8195285797

> <CNN_VS>
1.5048154593

> <CNNaffinity_variance>
0.2092423886

$$$$
[H]OC(=O)c1c([H])c([H])c([H])c(O[H])c1C(=O)c1c(O[H])c([H])c(C(=O)OC([H])([H])[C@]2([H])C([H])([H])C([H])([H])C([H])([H])[C@@]2([H])N([H])C(=O)c2c([H])c([H])c(O[H])c([H])c2[H])c([H])c1O[H]


 45 48  0  0  0  0  0  0  0  0999 V2000
  -17.8214   14.8568  -20.3636 C   0  0  0  0  0  0  0  0  0  0  0  0
  -17.1079   15.8445  -20.9740 C   0  0  0  0  0  0  0  0  0  0  0  0
  -16.4475   15.6216  -22.1903 C   0  0  0  0  0  0  0  0  0  0  0  0
  -15.7641   16.6903  -22.7169 O   0  0  0  0  0  0  0  0  0  0  0  0
  -16.4878   14.3985  -22.8220 C   0  0  0  0  0  0  0  0  0  0  0  0
  -17.2232   13.3880  -22.1864 C   0  0  0  0  0  0  0  0  0  0  0  0
  -17.3318   12.0949  -22.7302 O   0  0  0  0  0  0  0  0  0  0  0  0
  -17.8615   13.6368  -20.9946 C   0  0  0  0  0  0  0  0  0  0  0  0
  -15.2558   16.7950  -23.5437 H   0  0  0  0  0  0  0  0  0  0  0  0
  -17.8566   11.3974  -22.2645 H   0  0  0  0  0  0  0  0  0  0  0  0
  -18.5262   15.0790  -19.0805 C   0  0  0  0  0  0  0  0  0  0  0  0
  -18.3512   14.2476  -18.1804 O   0  0  0  0  0  0  0  0  0  0  0  0
  -19.3105   16.1219  -18.9035 O   0  0  0  0  0  0  0  0  0  0  0  0
  -20.3883   16.7588  -19.3938 C   0  0  0  0  0  0  0  0  0  0  0  0
  -21.5369   18.4752  -20.6653 C   0  0  0  0  0  0  0  0  0  0  0  0
  -21.6352   19.8241  -19.9950 C   0  0  0  0  0  0  0  0  0  0  0  0
  -20.2720   20.2293  -19.5493 C   0  0  0  0  0  0  0  0  0  0  0  0
  -19.3561   19.0266  -19.7316 C   0  0  0  0  0  0  0  0  0  0  0  0
  -20.1598   17.9372  -20.2614 C   0  0  0  0  0  0  0  0  0  0  0  0
  -23.8513   17.8452  -21.9672 O   0  0  0  0  0  0  0  0  0  0  0  0
  -22.8996   18.2369  -22.7043 C   0  0  0  0  0  0  0  0  0  0  0  0
  -21.6802   18.5763  -22.1045 N   0  0  0  0  0  0  0  0  0  0  0  0
  -20.8729   18.9018  -22.6973 H   0  0  0  0  0  0  0  0  0  0  0  0
  -23.1188   18.3140  -24.1224 C   0  0  0  0  0  0  0  0  0  0  0  0
  -23.3692   17.1795  -24.8537 C   0  0  0  0  0  0  0  0  0  0  0  0
  -23.5818   17.2423  -26.2332 C   0  0  0  0  0  0  0  0  0  0  0  0
  -23.5396   18.4598  -26.8667 C   0  0  0  0  0  0  0  0  0  0  0  0
  -23.7498   18.5442  -28.2452 O   0  0  0  0  0  0  0  0  0  0  0  0
  -23.2879   19.5987  -26.1300 C   0  0  0  0  0  0  0  0  0  0  0  0
  -23.0772   19.5464  -24.7709 C   0  0  0  0  0  0  0  0  0  0  0  0
  -24.6657   18.6746  -28.6328 H   0  0  0  0  0  0  0  0  0  0  0  0
  -15.7270   14.0211  -23.9681 C   0  0  0  0  0  0  0  0  0  0  0  0
  -14.7592   13.1820  -23.6759 O   0  0  0  0  0  0  0  0  0  0  0  0
  -15.8288   14.3685  -25.3615 C   0  0  0  0  0  0  0  0  0  0  0  0
  -14.8882   15.3501  -25.7681 C   0  0  0  0  0  0  0  0  0  0  0  0
  -13.9886   15.8562  -24.8406 O   0  0  0  0  0  0  0  0  0  0  0  0
  -14.8335   15.8187  -27.0442 C   0  0  0  0  0  0  0  0  0  0  0  0
  -15.7368   15.2981  -27.9378 C   0  0  0  0  0  0  0  0  0  0  0  0
  -16.6515   14.3601  -27.5763 C   0  0  0  0  0  0  0  0  0  0  0  0
  -16.7219   13.8634  -26.2398 C   0  0  0  0  0  0  0  0  0  0  0  0
  -13.3272   16.5505  -25.1412 H   0  0  0  0  0  0  0  0  0  0  0  0
  -17.8668   13.0428  -25.9155 C   0  0  0  0  0  0  0  0  0  0  0  0
  -18.8008   13.5822  -25.2294 O   0  0  0  0  0  0  0  0  0  0  0  0
  -18.0716   11.7499  -26.2443 O   0  0  0  0  0  0  0  0  0  0  0  0
  -18.7448   11.1221  -25.8522 H   0  0  0  0  0  0  0  0  0  0  0  0
 20 21  2  0  0  0
 21 22  1  0  0  0
 22 15  1  0  0  0
 15 16  1  0  0  0
 16 17  1  0  0  0
 17 18  1  0  0  0
 18 19  1  0  0  0
 19 14  1  0  0  0
 14 13  1  0  0  0
 13 11  1  0  0  0
 11 12  2  0  0  0
 11  1  1  0  0  0
  1  2  2  0  0  0
  2  3  1  0  0  0
  3  4  1  0  0  0
  3  5  2  0  0  0
  5 32  1  0  0  0
 32 33  2  0  0  0
 32 34  1  0  0  0
 34 35  2  0  0  0
 35 36  1  0  0  0
 35 37  1  0  0  0
 37 38  2  0  0  0
 38 39  1  0  0  0
 39 40  2  0  0  0
 40 42  1  0  0  0
 42 43  2  0  0  0
 42 44  1  0  0  0
  5  6  1  0  0  0
  6  7  1  0  0  0
  6  8  2  0  0  0
 21 24  1  0  0  0
 24 25  2  0  0  0
 25 26  1  0  0  0
 26 27  2  0  0  0
 27 28  1  0  0  0
 27 29  1  0  0  0
 29 30  2  0  0  0
 19 15  1  0  0  0
  8  1  1  0  0  0
 30 24  1  0  0  0
 40 34  1  0  0  0
 22 23  1  0  0  0
  4  9  1  0  0  0
 36 41  1  0  0  0
 44 45  1  0  0  0
  7 10  1  0  0  0
 28 31  1  0  0  0
M  END
> <minimizedAffinity>
-10.28519

> <CNNscore>
0.2429667562

> <CNNaffinity>
5.9945650101

> <CNN_VS>
1.4564800262

> <CNNaffinity_variance>
0.2716615498

$$$$
[H]OC(=O)c1c([H])c([H])c([H])c(O[H])c1C(=O)c1c(O[H])c([H])c(C(=O)OC([H])([H])[C@]2([H])C([H])([H])C([H])([H])C([H])([H])[C@@]2([H])N([H])C(=O)c2c([H])c([H])c(O[H])c([H])c2[H])c([H])c1O[H]


 45 48  0  0  0  0  0  0  0  0999 V2000
  -17.5968   17.5866  -19.8356 C   0  0  0  0  0  0  0  0  0  0  0  0
  -18.3793   18.6379  -19.4621 C   0  0  0  0  0  0  0  0  0  0  0  0
  -19.1936   18.5720  -18.3228 C   0  0  0  0  0  0  0  0  0  0  0  0
  -19.9350   19.6926  -18.0387 O   0  0  0  0  0  0  0  0  0  0  0  0
  -19.2413   17.4456  -17.5318 C   0  0  0  0  0  0  0  0  0  0  0  0
  -18.4339   16.3687  -17.9241 C   0  0  0  0  0  0  0  0  0  0  0  0
  -18.4027   15.1620  -17.2011 O   0  0  0  0  0  0  0  0  0  0  0  0
  -17.6446   16.4632  -19.0457 C   0  0  0  0  0  0  0  0  0  0  0  0
  -20.5463   19.9010  -17.3065 H   0  0  0  0  0  0  0  0  0  0  0  0
  -17.8248   14.4152  -17.4962 H   0  0  0  0  0  0  0  0  0  0  0  0
  -16.7298   17.6434  -21.0346 C   0  0  0  0  0  0  0  0  0  0  0  0
  -15.5731   18.0579  -20.8849 O   0  0  0  0  0  0  0  0  0  0  0  0
  -17.1726   17.2674  -22.2165 O   0  0  0  0  0  0  0  0  0  0  0  0
  -16.7934   16.7471  -23.3968 C   0  0  0  0  0  0  0  0  0  0  0  0
  -16.8528   14.3426  -23.7083 C   0  0  0  0  0  0  0  0  0  0  0  0
  -16.3660   13.8489  -25.0492 C   0  0  0  0  0  0  0  0  0  0  0  0
  -15.0272   14.4479  -25.3141 C   0  0  0  0  0  0  0  0  0  0  0  0
  -14.7796   15.5029  -24.2443 C   0  0  0  0  0  0  0  0  0  0  0  0
  -15.9458   15.5328  -23.3769 C   0  0  0  0  0  0  0  0  0  0  0  0
  -18.5907   14.2137  -21.6080 O   0  0  0  0  0  0  0  0  0  0  0  0
  -17.7111   13.3041  -21.6453 C   0  0  0  0  0  0  0  0  0  0  0  0
  -16.7839   13.3079  -22.6951 N   0  0  0  0  0  0  0  0  0  0  0  0
  -16.0409   12.5633  -22.7457 H   0  0  0  0  0  0  0  0  0  0  0  0
  -17.7085   12.3110  -20.6066 C   0  0  0  0  0  0  0  0  0  0  0  0
  -16.9459   11.1758  -20.7268 C   0  0  0  0  0  0  0  0  0  0  0  0
  -16.9371   10.2028  -19.7242 C   0  0  0  0  0  0  0  0  0  0  0  0
  -17.7042   10.3865  -18.6002 C   0  0  0  0  0  0  0  0  0  0  0  0
  -17.7091    9.4257  -17.5862 O   0  0  0  0  0  0  0  0  0  0  0  0
  -18.4697   11.5279  -18.4814 C   0  0  0  0  0  0  0  0  0  0  0  0
  -18.4847   12.4916  -19.4639 C   0  0  0  0  0  0  0  0  0  0  0  0
  -17.0593    9.4600  -16.8229 H   0  0  0  0  0  0  0  0  0  0  0  0
  -20.1466   17.2159  -16.4537 C   0  0  0  0  0  0  0  0  0  0  0  0
  -19.5350   17.1172  -15.2951 O   0  0  0  0  0  0  0  0  0  0  0  0
  -21.5796   17.0900  -16.3959 C   0  0  0  0  0  0  0  0  0  0  0  0
  -22.2250   18.2342  -15.8596 C   0  0  0  0  0  0  0  0  0  0  0  0
  -21.4620   19.3255  -15.4686 O   0  0  0  0  0  0  0  0  0  0  0  0
  -23.5757   18.3038  -15.7124 C   0  0  0  0  0  0  0  0  0  0  0  0
  -24.3023   17.2081  -16.1085 C   0  0  0  0  0  0  0  0  0  0  0  0
  -23.7115   16.0970  -16.6220 C   0  0  0  0  0  0  0  0  0  0  0  0
  -22.2951   16.0100  -16.7776 C   0  0  0  0  0  0  0  0  0  0  0  0
  -21.9311   20.1299  -15.0907 H   0  0  0  0  0  0  0  0  0  0  0  0
  -21.7619   14.7107  -17.1195 C   0  0  0  0  0  0  0  0  0  0  0  0
  -21.3286   14.5485  -18.3111 O   0  0  0  0  0  0  0  0  0  0  0  0
  -21.6725   13.6234  -16.3249 O   0  0  0  0  0  0  0  0  0  0  0  0
  -21.5078   12.6772  -16.6055 H   0  0  0  0  0  0  0  0  0  0  0  0
 20 21  2  0  0  0
 21 22  1  0  0  0
 22 15  1  0  0  0
 15 16  1  0  0  0
 16 17  1  0  0  0
 17 18  1  0  0  0
 18 19  1  0  0  0
 19 14  1  0  0  0
 14 13  1  0  0  0
 13 11  1  0  0  0
 11 12  2  0  0  0
 11  1  1  0  0  0
  1  2  2  0  0  0
  2  3  1  0  0  0
  3  4  1  0  0  0
  3  5  2  0  0  0
  5 32  1  0  0  0
 32 33  2  0  0  0
 32 34  1  0  0  0
 34 35  2  0  0  0
 35 36  1  0  0  0
 35 37  1  0  0  0
 37 38  2  0  0  0
 38 39  1  0  0  0
 39 40  2  0  0  0
 40 42  1  0  0  0
 42 43  2  0  0  0
 42 44  1  0  0  0
  5  6  1  0  0  0
  6  7  1  0  0  0
  6  8  2  0  0  0
 21 24  1  0  0  0
 24 25  2  0  0  0
 25 26  1  0  0  0
 26 27  2  0  0  0
 27 28  1  0  0  0
 27 29  1  0  0  0
 29 30  2  0  0  0
 19 15  1  0  0  0
  8  1  1  0  0  0
 30 24  1  0  0  0
 40 34  1  0  0  0
 22 23  1  0  0  0
  4  9  1  0  0  0
 36 41  1  0  0  0
 44 45  1  0  0  0
  7 10  1  0  0  0
 28 31  1  0  0  0
M  END
> <minimizedAffinity>
-8.77715

> <CNNscore>
0.2238195091

> <CNNaffinity>
6.0540800095

> <CNN_VS>
1.3550212383

> <CNNaffinity_variance>
0.3567032218

$$$$
[H]OC(=O)c1c([H])c([H])c([H])c(O[H])c1C(=O)c1c(O[H])c([H])c(C(=O)OC([H])([H])[C@]2([H])C([H])([H])C([H])([H])C([H])([H])[C@@]2([H])N([H])C(=O)c2c([H])c([H])c(O[H])c([H])c2[H])c([H])c1O[H]


 45 48  0  0  0  0  0  0  0  0999 V2000
  -17.9759   16.7689  -19.8796 C   0  0  0  0  0  0  0  0  0  0  0  0
  -19.2174   17.0542  -20.3635 C   0  0  0  0  0  0  0  0  0  0  0  0
  -20.3744   16.7111  -19.6502 C   0  0  0  0  0  0  0  0  0  0  0  0
  -21.5714   17.0526  -20.2307 O   0  0  0  0  0  0  0  0  0  0  0  0
  -20.3105   16.0711  -18.4324 C   0  0  0  0  0  0  0  0  0  0  0  0
  -19.0293   15.7805  -17.9428 C   0  0  0  0  0  0  0  0  0  0  0  0
  -18.8355   15.1228  -16.7141 O   0  0  0  0  0  0  0  0  0  0  0  0
  -17.9128   16.1306  -18.6643 C   0  0  0  0  0  0  0  0  0  0  0  0
  -22.4944   16.9472  -19.9308 H   0  0  0  0  0  0  0  0  0  0  0  0
  -17.9220   14.9284  -16.3878 H   0  0  0  0  0  0  0  0  0  0  0  0
  -16.7453   17.1280  -20.6208 C   0  0  0  0  0  0  0  0  0  0  0  0
  -15.6854   17.1705  -19.9829 O   0  0  0  0  0  0  0  0  0  0  0  0
  -16.7771   17.3929  -21.9104 O   0  0  0  0  0  0  0  0  0  0  0  0
  -16.3462   16.9690  -23.1112 C   0  0  0  0  0  0  0  0  0  0  0  0
  -16.8407   14.6012  -23.2888 C   0  0  0  0  0  0  0  0  0  0  0  0
  -16.6970   14.0093  -24.6700 C   0  0  0  0  0  0  0  0  0  0  0  0
  -15.3541   14.3757  -25.2024 C   0  0  0  0  0  0  0  0  0  0  0  0
  -14.7478   15.3959  -24.2482 C   0  0  0  0  0  0  0  0  0  0  0  0
  -15.7118   15.6328  -23.1861 C   0  0  0  0  0  0  0  0  0  0  0  0
  -18.9136   13.9993  -21.6188 O   0  0  0  0  0  0  0  0  0  0  0  0
  -17.8535   13.3322  -21.4355 C   0  0  0  0  0  0  0  0  0  0  0  0
  -16.7473   13.5886  -22.2556 N   0  0  0  0  0  0  0  0  0  0  0  0
  -15.8534   13.0485  -22.1201 H   0  0  0  0  0  0  0  0  0  0  0  0
  -17.8385   12.3431  -20.3932 C   0  0  0  0  0  0  0  0  0  0  0  0
  -18.6516   12.4727  -19.2947 C   0  0  0  0  0  0  0  0  0  0  0  0
  -18.6439   11.5184  -18.2744 C   0  0  0  0  0  0  0  0  0  0  0  0
  -17.8089   10.4328  -18.3734 C   0  0  0  0  0  0  0  0  0  0  0  0
  -17.7863    9.4672  -17.3642 O   0  0  0  0  0  0  0  0  0  0  0  0
  -16.9926   10.3043  -19.4781 C   0  0  0  0  0  0  0  0  0  0  0  0
  -16.9935   11.2395  -20.4879 C   0  0  0  0  0  0  0  0  0  0  0  0
  -18.3909    8.6671  -17.3851 H   0  0  0  0  0  0  0  0  0  0  0  0
  -21.4165   15.5380  -17.7062 C   0  0  0  0  0  0  0  0  0  0  0  0
  -21.7492   14.3325  -18.1090 O   0  0  0  0  0  0  0  0  0  0  0  0
  -22.2117   16.0572  -16.6242 C   0  0  0  0  0  0  0  0  0  0  0  0
  -22.0732   15.3212  -15.4190 C   0  0  0  0  0  0  0  0  0  0  0  0
  -21.2183   14.2287  -15.3830 O   0  0  0  0  0  0  0  0  0  0  0  0
  -22.7524   15.6482  -14.2864 C   0  0  0  0  0  0  0  0  0  0  0  0
  -23.5901   16.7341  -14.3545 C   0  0  0  0  0  0  0  0  0  0  0  0
  -23.7459   17.4555  -15.4958 C   0  0  0  0  0  0  0  0  0  0  0  0
  -23.0422   17.1201  -16.6918 C   0  0  0  0  0  0  0  0  0  0  0  0
  -21.1287   13.7161  -14.5233 H   0  0  0  0  0  0  0  0  0  0  0  0
  -23.4496   17.8095  -17.8952 C   0  0  0  0  0  0  0  0  0  0  0  0
  -22.8663   18.9143  -18.1654 O   0  0  0  0  0  0  0  0  0  0  0  0
  -24.3947   17.4296  -18.7807 O   0  0  0  0  0  0  0  0  0  0  0  0
  -24.8271   17.9913  -19.4868 H   0  0  0  0  0  0  0  0  0  0  0  0
 20 21  2  0  0  0
 21 22  1  0  0  0
 22 15  1  0  0  0
 15 16  1  0  0  0
 16 17  1  0  0  0
 17 18  1  0  0  0
 18 19  1  0  0  0
 19 14  1  0  0  0
 14 13  1  0  0  0
 13 11  1  0  0  0
 11 12  2  0  0  0
 11  1  1  0  0  0
  1  2  2  0  0  0
  2  3  1  0  0  0
  3  4  1  0  0  0
  3  5  2  0  0  0
  5 32  1  0  0  0
 32 33  2  0  0  0
 32 34  1  0  0  0
 34 35  2  0  0  0
 35 36  1  0  0  0
 35 37  1  0  0  0
 37 38  2  0  0  0
 38 39  1  0  0  0
 39 40  2  0  0  0
 40 42  1  0  0  0
 42 43  2  0  0  0
 42 44  1  0  0  0
  5  6  1  0  0  0
  6  7  1  0  0  0
  6  8  2  0  0  0
 21 24  1  0  0  0
 24 25  2  0  0  0
 25 26  1  0  0  0
 26 27  2  0  0  0
 27 28  1  0  0  0
 27 29  1  0  0  0
 29 30  2  0  0  0
 19 15  1  0  0  0
  8  1  1  0  0  0
 30 24  1  0  0  0
 40 34  1  0  0  0
 22 23  1  0  0  0
  4  9  1  0  0  0
 36 41  1  0  0  0
 44 45  1  0  0  0
  7 10  1  0  0  0
 28 31  1  0  0  0
M  END
> <minimizedAffinity>
-8.44905

> <CNNscore>
0.2098788023

> <CNNaffinity>
5.9562377930

> <CNN_VS>
1.2500880957

> <CNNaffinity_variance>
0.3535269499

$$$$
[H]OC(=O)C([H])([H])C([H])([H])c1c2c(n([H])c1C([H])=C1C(=O)N([H])c3c([H])c([H])c(S(=O)(=O)N([H])C([H])([H])[H])c([H])c31)C([H])([H])C([H])([H])C([H])([H])C2=O


 35 38  0  0  0  0  0  0  0  0999 V2000
  -16.6205   14.5278  -23.5328 C   0  0  0  0  0  0  0  0  0  0  0  0
  -15.6024   13.9216  -24.2371 C   0  0  0  0  0  0  0  0  0  0  0  0
  -15.0787   12.7162  -23.8375 C   0  0  0  0  0  0  0  0  0  0  0  0
  -15.5535   12.0500  -22.7007 C   0  0  0  0  0  0  0  0  0  0  0  0
  -16.5699   12.6505  -21.9934 C   0  0  0  0  0  0  0  0  0  0  0  0
  -17.0773   13.8743  -22.4278 C   0  0  0  0  0  0  0  0  0  0  0  0
  -16.9534   11.8193  -20.8333 C   0  0  0  0  0  0  0  0  0  0  0  0
  -17.9022   12.0885  -19.9739 C   0  0  0  0  0  0  0  0  0  0  0  0
  -16.0608   10.6754  -20.9348 C   0  0  0  0  0  0  0  0  0  0  0  0
  -16.0092    9.6834  -20.1635 O   0  0  0  0  0  0  0  0  0  0  0  0
  -15.2065   10.8281  -22.0833 N   0  0  0  0  0  0  0  0  0  0  0  0
  -14.4695   10.1787  -22.4148 H   0  0  0  0  0  0  0  0  0  0  0  0
  -18.2964   11.2947  -18.8269 C   0  0  0  0  0  0  0  0  0  0  0  0
  -18.0553   10.0382  -18.4584 N   0  0  0  0  0  0  0  0  0  0  0  0
  -18.6712    9.7407  -17.2979 C   0  0  0  0  0  0  0  0  0  0  0  0
  -19.3561   10.8593  -16.8741 C   0  0  0  0  0  0  0  0  0  0  0  0
  -19.1204   11.8244  -17.8280 C   0  0  0  0  0  0  0  0  0  0  0  0
  -20.1031   10.7750  -15.6319 C   0  0  0  0  0  0  0  0  0  0  0  0
  -20.2636   11.8334  -14.9768 O   0  0  0  0  0  0  0  0  0  0  0  0
  -20.6722    9.4948  -15.1249 C   0  0  0  0  0  0  0  0  0  0  0  0
  -20.2498    8.3723  -16.0828 C   0  0  0  0  0  0  0  0  0  0  0  0
  -18.7631    8.5303  -16.4253 C   0  0  0  0  0  0  0  0  0  0  0  0
  -17.4712    9.3561  -18.9507 H   0  0  0  0  0  0  0  0  0  0  0  0
  -19.6633   13.1815  -17.7653 C   0  0  0  0  0  0  0  0  0  0  0  0
  -18.7628   14.1749  -17.0662 C   0  0  0  0  0  0  0  0  0  0  0  0
  -18.7573   15.4076  -17.8823 C   0  0  0  0  0  0  0  0  0  0  0  0
  -19.6238   15.6080  -18.7543 O   0  0  0  0  0  0  0  0  0  0  0  0
  -17.7747   16.3547  -17.6754 O   0  0  0  0  0  0  0  0  0  0  0  0
  -16.7844   16.1686  -17.7620 H   0  0  0  0  0  0  0  0  0  0  0  0
  -17.3108   16.0501  -24.0186 S   0  0  0  0  0  0  0  0  0  0  0  0
  -18.7915   15.8397  -24.1681 O   0  0  0  0  0  0  0  0  0  0  0  0
  -16.7713   16.4937  -25.3313 O   0  0  0  0  0  0  0  0  0  0  0  0
  -18.0553   18.3571  -22.9954 C   0  0  0  0  0  0  0  0  0  0  0  0
  -17.0786   17.2927  -22.8575 N   0  0  0  0  0  0  0  0  0  0  0  0
  -16.1163   17.6301  -22.7876 H   0  0  0  0  0  0  0  0  0  0  0  0
 33 34  1  0  0  0
 34 30  1  0  0  0
 30 31  2  0  0  0
 30 32  2  0  0  0
 30  1  1  0  0  0
  1  2  2  0  0  0
  2  3  1  0  0  0
  3  4  2  0  0  0
  4  5  1  0  0  0
  5  6  2  0  0  0
  5  7  1  0  0  0
  7  8  2  0  0  0
  8 13  1  0  0  0
 13 14  1  0  0  0
 14 15  1  0  0  0
 15 16  2  0  0  0
 16 17  1  0  0  0
 17 24  1  0  0  0
 24 25  1  0  0  0
 25 26  1  0  0  0
 26 27  2  0  0  0
 26 28  1  0  0  0
 16 18  1  0  0  0
 18 19  2  0  0  0
 18 20  1  0  0  0
 20 21  1  0  0  0
 21 22  1  0  0  0
  7  9  1  0  0  0
  9 10  2  0  0  0
  9 11  1  0  0  0
  6  1  1  0  0  0
 17 13  2  0  0  0
 11  4  1  0  0  0
 22 15  1  0  0  0
 34 35  1  0  0  0
 14 23  1  0  0  0
 28 29  1  0  0  0
 11 12  1  0  0  0
M  END
> <minimizedAffinity>
-8.64797

> <CNNscore>
0.8903209567

> <CNNaffinity>
7.0750894547

> <CNN_VS>
6.2991003990

> <CNNaffinity_variance>
0.1550732553

$$$$
[H]OC(=O)C([H])([H])C([H])([H])c1c2c(n([H])c1C([H])=C1C(=O)N([H])c3c([H])c([H])c(S(=O)(=O)N([H])C([H])([H])[H])c([H])c31)C([H])([H])C([H])([H])C([H])([H])C2=O


 35 38  0  0  0  0  0  0  0  0999 V2000
  -16.0847   14.4965  -23.4156 C   0  0  0  0  0  0  0  0  0  0  0  0
  -15.2219   13.5901  -23.9935 C   0  0  0  0  0  0  0  0  0  0  0  0
  -15.0654   12.3265  -23.4781 C   0  0  0  0  0  0  0  0  0  0  0  0
  -15.7728   11.9024  -22.3461 C   0  0  0  0  0  0  0  0  0  0  0  0
  -16.6357   12.8031  -21.7647 C   0  0  0  0  0  0  0  0  0  0  0  0
  -16.7694   14.0773  -22.3145 C   0  0  0  0  0  0  0  0  0  0  0  0
  -17.3008   12.1983  -20.5918 C   0  0  0  0  0  0  0  0  0  0  0  0
  -18.1969   12.7751  -19.8330 C   0  0  0  0  0  0  0  0  0  0  0  0
  -16.7409   10.8567  -20.5476 C   0  0  0  0  0  0  0  0  0  0  0  0
  -17.0054    9.9519  -19.7151 O   0  0  0  0  0  0  0  0  0  0  0  0
  -15.8046   10.6868  -21.6278 N   0  0  0  0  0  0  0  0  0  0  0  0
  -15.2477    9.8427  -21.8559 H   0  0  0  0  0  0  0  0  0  0  0  0
  -18.8614   12.2080  -18.6764 C   0  0  0  0  0  0  0  0  0  0  0  0
  -18.7884   11.0258  -18.0684 N   0  0  0  0  0  0  0  0  0  0  0  0
  -19.6361   10.9582  -17.0238 C   0  0  0  0  0  0  0  0  0  0  0  0
  -20.3061   12.1595  -16.9339 C   0  0  0  0  0  0  0  0  0  0  0  0
  -19.8212   12.9349  -17.9637 C   0  0  0  0  0  0  0  0  0  0  0  0
  -21.2823   12.3210  -15.8713 C   0  0  0  0  0  0  0  0  0  0  0  0
  -21.4880   13.4824  -15.4421 O   0  0  0  0  0  0  0  0  0  0  0  0
  -22.0305   11.1715  -15.2894 C   0  0  0  0  0  0  0  0  0  0  0  0
  -21.5149    9.8843  -15.9478 C   0  0  0  0  0  0  0  0  0  0  0  0
  -19.9826    9.9217  -16.0037 C   0  0  0  0  0  0  0  0  0  0  0  0
  -18.1719   10.2462  -18.3156 H   0  0  0  0  0  0  0  0  0  0  0  0
  -20.2653   14.3027  -18.2324 C   0  0  0  0  0  0  0  0  0  0  0  0
  -21.3048   14.4106  -19.3252 C   0  0  0  0  0  0  0  0  0  0  0  0
  -20.9990   15.6332  -20.0983 C   0  0  0  0  0  0  0  0  0  0  0  0
  -21.8441   16.5376  -20.2361 O   0  0  0  0  0  0  0  0  0  0  0  0
  -19.7548   15.7763  -20.6785 O   0  0  0  0  0  0  0  0  0  0  0  0
  -19.3683   15.1284  -21.3520 H   0  0  0  0  0  0  0  0  0  0  0  0
  -16.3114   16.1014  -24.0502 S   0  0  0  0  0  0  0  0  0  0  0  0
  -15.7961   17.0650  -23.0182 O   0  0  0  0  0  0  0  0  0  0  0  0
  -17.7514   16.3937  -24.2785 O   0  0  0  0  0  0  0  0  0  0  0  0
  -16.0781   15.7673  -26.6498 C   0  0  0  0  0  0  0  0  0  0  0  0
  -15.4365   16.3788  -25.5007 N   0  0  0  0  0  0  0  0  0  0  0  0
  -14.4372   16.1742  -25.4360 H   0  0  0  0  0  0  0  0  0  0  0  0
 33 34  1  0  0  0
 34 30  1  0  0  0
 30 31  2  0  0  0
 30 32  2  0  0  0
 30  1  1  0  0  0
  1  2  2  0  0  0
  2  3  1  0  0  0
  3  4  2  0  0  0
  4  5  1  0  0  0
  5  6  2  0  0  0
  5  7  1  0  0  0
  7  8  2  0  0  0
  8 13  1  0  0  0
 13 14  1  0  0  0
 14 15  1  0  0  0
 15 16  2  0  0  0
 16 17  1  0  0  0
 17 24  1  0  0  0
 24 25  1  0  0  0
 25 26  1  0  0  0
 26 27  2  0  0  0
 26 28  1  0  0  0
 16 18  1  0  0  0
 18 19  2  0  0  0
 18 20  1  0  0  0
 20 21  1  0  0  0
 21 22  1  0  0  0
  7  9  1  0  0  0
  9 10  2  0  0  0
  9 11  1  0  0  0
  6  1  1  0  0  0
 17 13  2  0  0  0
 11  4  1  0  0  0
 22 15  1  0  0  0
 34 35  1  0  0  0
 14 23  1  0  0  0
 28 29  1  0  0  0
 11 12  1  0  0  0
M  END
> <minimizedAffinity>
-8.27653

> <CNNscore>
0.7050324678

> <CNNaffinity>
6.8787865639

> <CNN_VS>
4.8497676849

> <CNNaffinity_variance>
0.1255502254

$$$$
[H]OC(=O)C([H])([H])C([H])([H])c1c2c(n([H])c1C([H])=C1C(=O)N([H])c3c([H])c([H])c(S(=O)(=O)N([H])C([H])([H])[H])c([H])c31)C([H])([H])C([H])([H])C([H])([H])C2=O


 35 38  0  0  0  0  0  0  0  0999 V2000
  -19.9329   10.9676  -16.6929 C   0  0  0  0  0  0  0  0  0  0  0  0
  -19.3427    9.7588  -16.3922 C   0  0  0  0  0  0  0  0  0  0  0  0
  -18.3361    9.2435  -17.1721 C   0  0  0  0  0  0  0  0  0  0  0  0
  -17.8649    9.9201  -18.3042 C   0  0  0  0  0  0  0  0  0  0  0  0
  -18.4504   11.1275  -18.6095 C   0  0  0  0  0  0  0  0  0  0  0  0
  -19.4697   11.6202  -17.7958 C   0  0  0  0  0  0  0  0  0  0  0  0
  -17.8374   11.7070  -19.8228 C   0  0  0  0  0  0  0  0  0  0  0  0
  -18.1445   12.8568  -20.3660 C   0  0  0  0  0  0  0  0  0  0  0  0
  -16.8370   10.7187  -20.1939 C   0  0  0  0  0  0  0  0  0  0  0  0
  -16.0482   10.7688  -21.1722 O   0  0  0  0  0  0  0  0  0  0  0  0
  -16.8633    9.6271  -19.2559 N   0  0  0  0  0  0  0  0  0  0  0  0
  -16.2701    8.7768  -19.2572 H   0  0  0  0  0  0  0  0  0  0  0  0
  -17.5634   13.4467  -21.5557 C   0  0  0  0  0  0  0  0  0  0  0  0
  -17.3461   12.9929  -22.7884 N   0  0  0  0  0  0  0  0  0  0  0  0
  -16.7446   13.9232  -23.5546 C   0  0  0  0  0  0  0  0  0  0  0  0
  -16.5538   15.0540  -22.7898 C   0  0  0  0  0  0  0  0  0  0  0  0
  -17.0647   14.7539  -21.5466 C   0  0  0  0  0  0  0  0  0  0  0  0
  -15.9153   16.2008  -23.4108 C   0  0  0  0  0  0  0  0  0  0  0  0
  -16.2038   17.3385  -22.9661 O   0  0  0  0  0  0  0  0  0  0  0  0
  -14.9484   16.0672  -24.5363 C   0  0  0  0  0  0  0  0  0  0  0  0
  -14.8581   14.5821  -24.9140 C   0  0  0  0  0  0  0  0  0  0  0  0
  -16.2704   13.9865  -24.9710 C   0  0  0  0  0  0  0  0  0  0  0  0
  -17.6007   12.0717  -23.1564 H   0  0  0  0  0  0  0  0  0  0  0  0
  -17.0691   15.6878  -20.4205 C   0  0  0  0  0  0  0  0  0  0  0  0
  -18.3069   16.5527  -20.3408 C   0  0  0  0  0  0  0  0  0  0  0  0
  -17.8693   17.9026  -19.9256 C   0  0  0  0  0  0  0  0  0  0  0  0
  -18.6710   18.7166  -19.4299 O   0  0  0  0  0  0  0  0  0  0  0  0
  -16.5486   18.2687  -20.0897 O   0  0  0  0  0  0  0  0  0  0  0  0
  -16.0712   18.2747  -20.9813 H   0  0  0  0  0  0  0  0  0  0  0  0
  -21.2038   11.6510  -15.7195 S   0  0  0  0  0  0  0  0  0  0  0  0
  -20.6592   11.8155  -14.3282 O   0  0  0  0  0  0  0  0  0  0  0  0
  -22.3800   10.7438  -15.6520 O   0  0  0  0  0  0  0  0  0  0  0  0
  -22.1168   14.0565  -15.1684 C   0  0  0  0  0  0  0  0  0  0  0  0
  -21.7080   13.1984  -16.2649 N   0  0  0  0  0  0  0  0  0  0  0  0
  -22.3788   13.1759  -17.0358 H   0  0  0  0  0  0  0  0  0  0  0  0
 33 34  1  0  0  0
 34 30  1  0  0  0
 30 31  2  0  0  0
 30 32  2  0  0  0
 30  1  1  0  0  0
  1  2  2  0  0  0
  2  3  1  0  0  0
  3  4  2  0  0  0
  4  5  1  0  0  0
  5  6  2  0  0  0
  5  7  1  0  0  0
  7  8  2  0  0  0
  8 13  1  0  0  0
 13 14  1  0  0  0
 14 15  1  0  0  0
 15 16  2  0  0  0
 16 17  1  0  0  0
 17 24  1  0  0  0
 24 25  1  0  0  0
 25 26  1  0  0  0
 26 27  2  0  0  0
 26 28  1  0  0  0
 16 18  1  0  0  0
 18 19  2  0  0  0
 18 20  1  0  0  0
 20 21  1  0  0  0
 21 22  1  0  0  0
  7  9  1  0  0  0
  9 10  2  0  0  0
  9 11  1  0  0  0
  6  1  1  0  0  0
 17 13  2  0  0  0
 11  4  1  0  0  0
 22 15  1  0  0  0
 34 35  1  0  0  0
 14 23  1  0  0  0
 28 29  1  0  0  0
 11 12  1  0  0  0
M  END
> <minimizedAffinity>
-9.40819

> <CNNscore>
0.6532238126

> <CNNaffinity>
7.0299124718

> <CNN_VS>
4.5921063423

> <CNNaffinity_variance>
0.3024326563

$$$$
[H]OC(=O)C([H])([H])C([H])([H])c1c2c(n([H])c1C([H])=C1C(=O)N([H])c3c([H])c([H])c(S(=O)(=O)N([H])C([H])([H])[H])c([H])c31)C([H])([H])C([H])([H])C([H])([H])C2=O


 35 38  0  0  0  0  0  0  0  0999 V2000
  -16.7788   16.3484  -22.4617 C   0  0  0  0  0  0  0  0  0  0  0  0
  -16.4789   17.5574  -21.8715 C   0  0  0  0  0  0  0  0  0  0  0  0
  -16.7204   17.7786  -20.5375 C   0  0  0  0  0  0  0  0  0  0  0  0
  -17.2801   16.7896  -19.7187 C   0  0  0  0  0  0  0  0  0  0  0  0
  -17.5817   15.5805  -20.3025 C   0  0  0  0  0  0  0  0  0  0  0  0
  -17.3233   15.3910  -21.6594 C   0  0  0  0  0  0  0  0  0  0  0  0
  -18.1567   14.6542  -19.3049 C   0  0  0  0  0  0  0  0  0  0  0  0
  -18.5257   13.4185  -19.5251 C   0  0  0  0  0  0  0  0  0  0  0  0
  -18.1598   15.4424  -18.0827 C   0  0  0  0  0  0  0  0  0  0  0  0
  -18.5597   15.0788  -16.9471 O   0  0  0  0  0  0  0  0  0  0  0  0
  -17.6206   16.7504  -18.3486 N   0  0  0  0  0  0  0  0  0  0  0  0
  -17.4956   17.5318  -17.6787 H   0  0  0  0  0  0  0  0  0  0  0  0
  -19.0951   12.4906  -18.5682 C   0  0  0  0  0  0  0  0  0  0  0  0
  -20.2186   12.4888  -17.8538 N   0  0  0  0  0  0  0  0  0  0  0  0
  -20.2987   11.3975  -17.0683 C   0  0  0  0  0  0  0  0  0  0  0  0
  -19.1689   10.6348  -17.2734 C   0  0  0  0  0  0  0  0  0  0  0  0
  -18.4224   11.3180  -18.2077 C   0  0  0  0  0  0  0  0  0  0  0  0
  -19.0335    9.3971  -16.5264 C   0  0  0  0  0  0  0  0  0  0  0  0
  -18.3594    8.4748  -17.0464 O   0  0  0  0  0  0  0  0  0  0  0  0
  -19.6586    9.1962  -15.1890 C   0  0  0  0  0  0  0  0  0  0  0  0
  -20.4782   10.4496  -14.8523 C   0  0  0  0  0  0  0  0  0  0  0  0
  -21.2915   10.8696  -16.0830 C   0  0  0  0  0  0  0  0  0  0  0  0
  -20.9615   13.1935  -17.8774 H   0  0  0  0  0  0  0  0  0  0  0  0
  -17.1335   10.8521  -18.7193 C   0  0  0  0  0  0  0  0  0  0  0  0
  -17.2335   10.0184  -19.9768 C   0  0  0  0  0  0  0  0  0  0  0  0
  -16.3144   10.6150  -20.9695 C   0  0  0  0  0  0  0  0  0  0  0  0
  -16.6165   11.6545  -21.5853 O   0  0  0  0  0  0  0  0  0  0  0  0
  -15.0992   10.0099  -21.2194 O   0  0  0  0  0  0  0  0  0  0  0  0
  -14.9993    9.0575  -21.5449 H   0  0  0  0  0  0  0  0  0  0  0  0
  -16.4766   16.0346  -24.1470 S   0  0  0  0  0  0  0  0  0  0  0  0
  -17.1597   17.1197  -24.9312 O   0  0  0  0  0  0  0  0  0  0  0  0
  -17.0519   14.7288  -24.5651 O   0  0  0  0  0  0  0  0  0  0  0  0
  -14.2530   14.7466  -24.7132 C   0  0  0  0  0  0  0  0  0  0  0  0
  -14.8082   16.0771  -24.5483 N   0  0  0  0  0  0  0  0  0  0  0  0
  -14.2450   16.6813  -23.9463 H   0  0  0  0  0  0  0  0  0  0  0  0
 33 34  1  0  0  0
 34 30  1  0  0  0
 30 31  2  0  0  0
 30 32  2  0  0  0
 30  1  1  0  0  0
  1  2  2  0  0  0
  2  3  1  0  0  0
  3  4  2  0  0  0
  4  5  1  0  0  0
  5  6  2  0  0  0
  5  7  1  0  0  0
  7  8  2  0  0  0
  8 13  1  0  0  0
 13 14  1  0  0  0
 14 15  1  0  0  0
 15 16  2  0  0  0
 16 17  1  0  0  0
 17 24  1  0  0  0
 24 25  1  0  0  0
 25 26  1  0  0  0
 26 27  2  0  0  0
 26 28  1  0  0  0
 16 18  1  0  0  0
 18 19  2  0  0  0
 18 20  1  0  0  0
 20 21  1  0  0  0
 21 22  1  0  0  0
  7  9  1  0  0  0
  9 10  2  0  0  0
  9 11  1  0  0  0
  6  1  1  0  0  0
 17 13  2  0  0  0
 11  4  1  0  0  0
 22 15  1  0  0  0
 34 35  1  0  0  0
 14 23  1  0  0  0
 28 29  1  0  0  0
 11 12  1  0  0  0
M  END
> <minimizedAffinity>
-9.59998

> <CNNscore>
0.4575712383

> <CNNaffinity>
6.6485595703

> <CNN_VS>
3.0421895981

> <CNNaffinity_variance>
0.0375731476

$$$$
[H]OC(=O)C([H])([H])C([H])([H])c1c2c(n([H])c1C([H])=C1C(=O)N([H])c3c([H])c([H])c(S(=O)(=O)N([H])C([H])([H])[H])c([H])c31)C([H])([H])C([H])([H])C([H])([H])C2=O


 35 38  0  0  0  0  0  0  0  0999 V2000
  -19.4064   15.4342  -19.5622 C   0  0  0  0  0  0  0  0  0  0  0  0
  -20.4262   15.1451  -20.4434 C   0  0  0  0  0  0  0  0  0  0  0  0
  -21.7423   15.3268  -20.0947 C   0  0  0  0  0  0  0  0  0  0  0  0
  -22.1073   15.8124  -18.8327 C   0  0  0  0  0  0  0  0  0  0  0  0
  -21.0934   16.1026  -17.9486 C   0  0  0  0  0  0  0  0  0  0  0  0
  -19.7687   15.9059  -18.3363 C   0  0  0  0  0  0  0  0  0  0  0  0
  -21.6473   16.6052  -16.6741 C   0  0  0  0  0  0  0  0  0  0  0  0
  -20.9550   16.9954  -15.6349 C   0  0  0  0  0  0  0  0  0  0  0  0
  -23.0833   16.5796  -16.9029 C   0  0  0  0  0  0  0  0  0  0  0  0
  -23.9857   16.9232  -16.0970 O   0  0  0  0  0  0  0  0  0  0  0  0
  -23.3537   16.0911  -18.2298 N   0  0  0  0  0  0  0  0  0  0  0  0
  -24.2784   15.9600  -18.6799 H   0  0  0  0  0  0  0  0  0  0  0  0
  -21.4711   17.4881  -14.3732 C   0  0  0  0  0  0  0  0  0  0  0  0
  -22.1328   16.9151  -13.3700 N   0  0  0  0  0  0  0  0  0  0  0  0
  -22.4244   17.8060  -12.4026 C   0  0  0  0  0  0  0  0  0  0  0  0
  -21.9290   19.0344  -12.7841 C   0  0  0  0  0  0  0  0  0  0  0  0
  -21.3362   18.8327  -14.0108 C   0  0  0  0  0  0  0  0  0  0  0  0
  -22.1263   20.1603  -11.8888 C   0  0  0  0  0  0  0  0  0  0  0  0
  -21.2810   21.0874  -11.9253 O   0  0  0  0  0  0  0  0  0  0  0  0
  -23.2792   20.2437  -10.9489 C   0  0  0  0  0  0  0  0  0  0  0  0
  -24.0875   18.9443  -11.0687 C   0  0  0  0  0  0  0  0  0  0  0  0
  -23.1267   17.7488  -11.0840 C   0  0  0  0  0  0  0  0  0  0  0  0
  -22.3930   15.9277  -13.2918 H   0  0  0  0  0  0  0  0  0  0  0  0
  -20.6753   19.8875  -14.7795 C   0  0  0  0  0  0  0  0  0  0  0  0
  -21.6213   20.9188  -15.3522 C   0  0  0  0  0  0  0  0  0  0  0  0
  -21.7338   20.6498  -16.8016 C   0  0  0  0  0  0  0  0  0  0  0  0
  -20.8717   19.9813  -17.4025 O   0  0  0  0  0  0  0  0  0  0  0  0
  -22.8133   21.1478  -17.5030 O   0  0  0  0  0  0  0  0  0  0  0  0
  -23.0430   22.1310  -17.5619 H   0  0  0  0  0  0  0  0  0  0  0  0
  -17.7292   15.2232  -19.9774 S   0  0  0  0  0  0  0  0  0  0  0  0
  -17.6213   15.3495  -21.4713 O   0  0  0  0  0  0  0  0  0  0  0  0
  -17.2426   13.8724  -19.5907 O   0  0  0  0  0  0  0  0  0  0  0  0
  -15.9693   17.1546  -20.2875 C   0  0  0  0  0  0  0  0  0  0  0  0
  -16.7108   16.4169  -19.2816 N   0  0  0  0  0  0  0  0  0  0  0  0
  -16.1278   16.0781  -18.5134 H   0  0  0  0  0  0  0  0  0  0  0  0
 33 34  1  0  0  0
 34 30  1  0  0  0
 30 31  2  0  0  0
 30 32  2  0  0  0
 30  1  1  0  0  0
  1  2  2  0  0  0
  2  3  1  0  0  0
  3  4  2  0  0  0
  4  5  1  0  0  0
  5  6  2  0  0  0
  5  7  1  0  0  0
  7  8  2  0  0  0
  8 13  1  0  0  0
 13 14  1  0  0  0
 14 15  1  0  0  0
 15 16  2  0  0  0
 16 17  1  0  0  0
 17 24  1  0  0  0
 24 25  1  0  0  0
 25 26  1  0  0  0
 26 27  2  0  0  0
 26 28  1  0  0  0
 16 18  1  0  0  0
 18 19  2  0  0  0
 18 20  1  0  0  0
 20 21  1  0  0  0
 21 22  1  0  0  0
  7  9  1  0  0  0
  9 10  2  0  0  0
  9 11  1  0  0  0
  6  1  1  0  0  0
 17 13  2  0  0  0
 11  4  1  0  0  0
 22 15  1  0  0  0
 34 35  1  0  0  0
 14 23  1  0  0  0
 28 29  1  0  0  0
 11 12  1  0  0  0
M  END
> <minimizedAffinity>
-3.08125

> <CNNscore>
0.3727900982

> <CNNaffinity>
5.5411286354

> <CNN_VS>
2.0656778812

> <CNNaffinity_variance>
0.5329025984

$$$$
[H]OC(=O)C([H])([H])C([H])([H])c1c2c(n([H])c1C([H])=C1C(=O)N([H])c3c([H])c([H])c(S(=O)(=O)N([H])C([H])([H])[H])c([H])c31)C([H])([H])C([H])([H])C([H])([H])C2=O


 35 38  0  0  0  0  0  0  0  0999 V2000
  -16.7222   12.5257  -22.1824 C   0  0  0  0  0  0  0  0  0  0  0  0
  -15.8605   11.4520  -22.2526 C   0  0  0  0  0  0  0  0  0  0  0  0
  -15.8266   10.4996  -21.2634 C   0  0  0  0  0  0  0  0  0  0  0  0
  -16.6629   10.5750  -20.1424 C   0  0  0  0  0  0  0  0  0  0  0  0
  -17.5253   11.6448  -20.0669 C   0  0  0  0  0  0  0  0  0  0  0  0
  -17.5327   12.5928  -21.0891 C   0  0  0  0  0  0  0  0  0  0  0  0
  -18.3339   11.5705  -18.8321 C   0  0  0  0  0  0  0  0  0  0  0  0
  -19.2648   12.4153  -18.4700 C   0  0  0  0  0  0  0  0  0  0  0  0
  -17.8580   10.3521  -18.1963 C   0  0  0  0  0  0  0  0  0  0  0  0
  -18.2526    9.8611  -17.1077 O   0  0  0  0  0  0  0  0  0  0  0  0
  -16.8330    9.7504  -19.0085 N   0  0  0  0  0  0  0  0  0  0  0  0
  -16.3055    8.8783  -18.8187 H   0  0  0  0  0  0  0  0  0  0  0  0
  -20.0690   12.3691  -17.2649 C   0  0  0  0  0  0  0  0  0  0  0  0
  -20.3522   11.4051  -16.3913 N   0  0  0  0  0  0  0  0  0  0  0  0
  -21.1824   11.8460  -15.4264 C   0  0  0  0  0  0  0  0  0  0  0  0
  -21.4638   13.1727  -15.6729 C   0  0  0  0  0  0  0  0  0  0  0  0
  -20.7690   13.4948  -16.8176 C   0  0  0  0  0  0  0  0  0  0  0  0
  -22.3483   13.8670  -14.7543 C   0  0  0  0  0  0  0  0  0  0  0  0
  -22.1987   15.1068  -14.6281 O   0  0  0  0  0  0  0  0  0  0  0  0
  -23.4055   13.1639  -13.9748 C   0  0  0  0  0  0  0  0  0  0  0  0
  -23.2967   11.6616  -14.2703 C   0  0  0  0  0  0  0  0  0  0  0  0
  -21.8229   11.2400  -14.2191 C   0  0  0  0  0  0  0  0  0  0  0  0
  -19.9960   10.4449  -16.4008 H   0  0  0  0  0  0  0  0  0  0  0  0
  -20.7850   14.8215  -17.4340 C   0  0  0  0  0  0  0  0  0  0  0  0
  -19.7112   15.7538  -16.9200 C   0  0  0  0  0  0  0  0  0  0  0  0
  -18.8625   16.1195  -18.0741 C   0  0  0  0  0  0  0  0  0  0  0  0
  -19.2916   16.0418  -19.2407 O   0  0  0  0  0  0  0  0  0  0  0  0
  -17.5710   16.5551  -17.8564 O   0  0  0  0  0  0  0  0  0  0  0  0
  -16.8655   16.0117  -17.3769 H   0  0  0  0  0  0  0  0  0  0  0  0
  -16.7950   13.7438  -23.4237 S   0  0  0  0  0  0  0  0  0  0  0  0
  -15.7624   14.7831  -23.0883 O   0  0  0  0  0  0  0  0  0  0  0  0
  -18.1260   14.4061  -23.4534 O   0  0  0  0  0  0  0  0  0  0  0  0
  -17.5991   12.5926  -25.6490 C   0  0  0  0  0  0  0  0  0  0  0  0
  -16.4273   13.1329  -24.9851 N   0  0  0  0  0  0  0  0  0  0  0  0
  -15.6190   12.5080  -25.0138 H   0  0  0  0  0  0  0  0  0  0  0  0
 33 34  1  0  0  0
 34 30  1  0  0  0
 30 31  2  0  0  0
 30 32  2  0  0  0
 30  1  1  0  0  0
  1  2  2  0  0  0
  2  3  1  0  0  0
  3  4  2  0  0  0
  4  5  1  0  0  0
  5  6  2  0  0  0
  5  7  1  0  0  0
  7  8  2  0  0  0
  8 13  1  0  0  0
 13 14  1  0  0  0
 14 15  1  0  0  0
 15 16  2  0  0  0
 16 17  1  0  0  0
 17 24  1  0  0  0
 24 25  1  0  0  0
 25 26  1  0  0  0
 26 27  2  0  0  0
 26 28  1  0  0  0
 16 18  1  0  0  0
 18 19  2  0  0  0
 18 20  1  0  0  0
 20 21  1  0  0  0
 21 22  1  0  0  0
  7  9  1  0  0  0
  9 10  2  0  0  0
  9 11  1  0  0  0
  6  1  1  0  0  0
 17 13  2  0  0  0
 11  4  1  0  0  0
 22 15  1  0  0  0
 34 35  1  0  0  0
 14 23  1  0  0  0
 28 29  1  0  0  0
 11 12  1  0  0  0
M  END
> <minimizedAffinity>
-8.26005

> <CNNscore>
0.2066579312

> <CNNaffinity>
6.0572257042

> <CNN_VS>
1.2517737150

> <CNNaffinity_variance>
0.1753888875

$$$$
[H]OC(=O)C([H])([H])C([H])([H])c1c2c(n([H])c1C([H])=C1C(=O)N([H])c3c([H])c([H])c(S(=O)(=O)N([H])C([H])([H])[H])c([H])c31)C([H])([H])C([H])([H])C([H])([H])C2=O


 35 38  0  0  0  0  0  0  0  0999 V2000
  -17.0302   12.1132  -20.8723 C   0  0  0  0  0  0  0  0  0  0  0  0
  -16.9328   12.6192  -22.1507 C   0  0  0  0  0  0  0  0  0  0  0  0
  -17.2787   13.9187  -22.4312 C   0  0  0  0  0  0  0  0  0  0  0  0
  -17.7442   14.7860  -21.4348 C   0  0  0  0  0  0  0  0  0  0  0  0
  -17.8436   14.2863  -20.1564 C   0  0  0  0  0  0  0  0  0  0  0  0
  -17.4840   12.9624  -19.9081 C   0  0  0  0  0  0  0  0  0  0  0  0
  -18.3431   15.3260  -19.2327 C   0  0  0  0  0  0  0  0  0  0  0  0
  -18.5265   15.1873  -17.9448 C   0  0  0  0  0  0  0  0  0  0  0  0
  -18.5243   16.4804  -20.0986 C   0  0  0  0  0  0  0  0  0  0  0  0
  -18.9356   17.6212  -19.7649 O   0  0  0  0  0  0  0  0  0  0  0  0
  -18.1545   16.1374  -21.4468 N   0  0  0  0  0  0  0  0  0  0  0  0
  -18.1764   16.7483  -22.2841 H   0  0  0  0  0  0  0  0  0  0  0  0
  -19.0180   16.1869  -17.0172 C   0  0  0  0  0  0  0  0  0  0  0  0
  -18.5395   17.3551  -16.5941 N   0  0  0  0  0  0  0  0  0  0  0  0
  -19.3618   17.9239  -15.6914 C   0  0  0  0  0  0  0  0  0  0  0  0
  -20.4431   17.0890  -15.5069 C   0  0  0  0  0  0  0  0  0  0  0  0
  -20.2258   16.0093  -16.3338 C   0  0  0  0  0  0  0  0  0  0  0  0
  -21.4722   17.4990  -14.5683 C   0  0  0  0  0  0  0  0  0  0  0  0
  -22.6401   17.0848  -14.7682 O   0  0  0  0  0  0  0  0  0  0  0  0
  -21.1865   18.3782  -13.3999 C   0  0  0  0  0  0  0  0  0  0  0  0
  -19.7082   18.7871  -13.4608 C   0  0  0  0  0  0  0  0  0  0  0  0
  -19.3521   19.1904  -14.8971 C   0  0  0  0  0  0  0  0  0  0  0  0
  -17.6740   17.8098  -16.8988 H   0  0  0  0  0  0  0  0  0  0  0  0
  -21.1433   14.8759  -16.4518 C   0  0  0  0  0  0  0  0  0  0  0  0
  -22.3876   15.1707  -17.2588 C   0  0  0  0  0  0  0  0  0  0  0  0
  -21.9628   15.3553  -18.6629 C   0  0  0  0  0  0  0  0  0  0  0  0
  -21.9811   16.4787  -19.2001 O   0  0  0  0  0  0  0  0  0  0  0  0
  -21.5380   14.2636  -19.3930 O   0  0  0  0  0  0  0  0  0  0  0  0
  -22.1047   13.4433  -19.5631 H   0  0  0  0  0  0  0  0  0  0  0  0
  -16.5913   10.4742  -20.4836 S   0  0  0  0  0  0  0  0  0  0  0  0
  -15.2004   10.2500  -21.0073 O   0  0  0  0  0  0  0  0  0  0  0  0
  -17.4983    9.5003  -21.1467 O   0  0  0  0  0  0  0  0  0  0  0  0
  -17.8836    9.8601  -18.2754 C   0  0  0  0  0  0  0  0  0  0  0  0
  -16.5644   10.1697  -18.7946 N   0  0  0  0  0  0  0  0  0  0  0  0
  -16.0667   10.8747  -18.2469 H   0  0  0  0  0  0  0  0  0  0  0  0
 33 34  1  0  0  0
 34 30  1  0  0  0
 30 31  2  0  0  0
 30 32  2  0  0  0
 30  1  1  0  0  0
  1  2  2  0  0  0
  2  3  1  0  0  0
  3  4  2  0  0  0
  4  5  1  0  0  0
  5  6  2  0  0  0
  5  7  1  0  0  0
  7  8  2  0  0  0
  8 13  1  0  0  0
 13 14  1  0  0  0
 14 15  1  0  0  0
 15 16  2  0  0  0
 16 17  1  0  0  0
 17 24  1  0  0  0
 24 25  1  0  0  0
 25 26  1  0  0  0
 26 27  2  0  0  0
 26 28  1  0  0  0
 16 18  1  0  0  0
 18 19  2  0  0  0
 18 20  1  0  0  0
 20 21  1  0  0  0
 21 22  1  0  0  0
  7  9  1  0  0  0
  9 10  2  0  0  0
  9 11  1  0  0  0
  6  1  1  0  0  0
 17 13  2  0  0  0
 11  4  1  0  0  0
 22 15  1  0  0  0
 34 35  1  0  0  0
 14 23  1  0  0  0
 28 29  1  0  0  0
 11 12  1  0  0  0
M  END
> <minimizedAffinity>
-7.16130

> <CNNscore>
0.1788024157

> <CNNaffinity>
5.7691535950

> <CNN_VS>
1.0315386057

> <CNNaffinity_variance>
0.2939928174

$$$$
[H]OC(=O)C([H])([H])C([H])([H])c1c2c(n([H])c1C([H])=C1C(=O)N([H])c3c([H])c([H])c(S(=O)(=O)N([H])C([H])([H])[H])c([H])c31)C([H])([H])C([H])([H])C([H])([H])C2=O


 35 38  0  0  0  0  0  0  0  0999 V2000
  -16.6665   12.4960  -21.8414 C   0  0  0  0  0  0  0  0  0  0  0  0
  -15.9828   12.6139  -23.0325 C   0  0  0  0  0  0  0  0  0  0  0  0
  -15.8522   13.8277  -23.6622 C   0  0  0  0  0  0  0  0  0  0  0  0
  -16.4053   14.9969  -23.1249 C   0  0  0  0  0  0  0  0  0  0  0  0
  -17.0891   14.8853  -21.9358 C   0  0  0  0  0  0  0  0  0  0  0  0
  -17.2021   13.6374  -21.3246 C   0  0  0  0  0  0  0  0  0  0  0  0
  -17.6014   16.2040  -21.5087 C   0  0  0  0  0  0  0  0  0  0  0  0
  -18.2698   16.4512  -20.4116 C   0  0  0  0  0  0  0  0  0  0  0  0
  -17.1484   17.0946  -22.5655 C   0  0  0  0  0  0  0  0  0  0  0  0
  -17.3408   18.3348  -22.6461 O   0  0  0  0  0  0  0  0  0  0  0  0
  -16.4165   16.3432  -23.5514 N   0  0  0  0  0  0  0  0  0  0  0  0
  -15.9726   16.6998  -24.4179 H   0  0  0  0  0  0  0  0  0  0  0  0
  -18.7868   17.7315  -19.9704 C   0  0  0  0  0  0  0  0  0  0  0  0
  -18.2337   18.7823  -19.3683 N   0  0  0  0  0  0  0  0  0  0  0  0
  -19.1429   19.7482  -19.1342 C   0  0  0  0  0  0  0  0  0  0  0  0
  -20.3632   19.3153  -19.6069 C   0  0  0  0  0  0  0  0  0  0  0  0
  -20.1377   18.0601  -20.1268 C   0  0  0  0  0  0  0  0  0  0  0  0
  -21.5060   20.1994  -19.4628 C   0  0  0  0  0  0  0  0  0  0  0  0
  -22.4310   20.0962  -20.3048 O   0  0  0  0  0  0  0  0  0  0  0  0
  -21.6087   21.2035  -18.3669 C   0  0  0  0  0  0  0  0  0  0  0  0
  -20.3084   21.1556  -17.5525 C   0  0  0  0  0  0  0  0  0  0  0  0
  -19.1114   21.1065  -18.5102 C   0  0  0  0  0  0  0  0  0  0  0  0
  -17.2482   18.8941  -19.1127 H   0  0  0  0  0  0  0  0  0  0  0  0
  -21.1770   17.2344  -20.7419 C   0  0  0  0  0  0  0  0  0  0  0  0
  -21.8447   17.8730  -21.9389 C   0  0  0  0  0  0  0  0  0  0  0  0
  -20.7749   18.2360  -22.8926 C   0  0  0  0  0  0  0  0  0  0  0  0
  -20.4501   19.4242  -23.0762 O   0  0  0  0  0  0  0  0  0  0  0  0
  -20.1233   17.2410  -23.5931 O   0  0  0  0  0  0  0  0  0  0  0  0
  -20.5889   16.5838  -24.2048 H   0  0  0  0  0  0  0  0  0  0  0  0
  -16.8415   10.9740  -21.0150 S   0  0  0  0  0  0  0  0  0  0  0  0
  -15.5081   10.2824  -21.0690 O   0  0  0  0  0  0  0  0  0  0  0  0
  -17.8416   10.1048  -21.6896 O   0  0  0  0  0  0  0  0  0  0  0  0
  -16.1086   11.0672  -18.4895 C   0  0  0  0  0  0  0  0  0  0  0  0
  -17.2654   11.1537  -19.3614 N   0  0  0  0  0  0  0  0  0  0  0  0
  -18.0466   10.5674  -19.0602 H   0  0  0  0  0  0  0  0  0  0  0  0
 33 34  1  0  0  0
 34 30  1  0  0  0
 30 31  2  0  0  0
 30 32  2  0  0  0
 30  1  1  0  0  0
  1  2  2  0  0  0
  2  3  1  0  0  0
  3  4  2  0  0  0
  4  5  1  0  0  0
  5  6  2  0  0  0
  5  7  1  0  0  0
  7  8  2  0  0  0
  8 13  1  0  0  0
 13 14  1  0  0  0
 14 15  1  0  0  0
 15 16  2  0  0  0
 16 17  1  0  0  0
 17 24  1  0  0  0
 24 25  1  0  0  0
 25 26  1  0  0  0
 26 27  2  0  0  0
 26 28  1  0  0  0
 16 18  1  0  0  0
 18 19  2  0  0  0
 18 20  1  0  0  0
 20 21  1  0  0  0
 21 22  1  0  0  0
  7  9  1  0  0  0
  9 10  2  0  0  0
  9 11  1  0  0  0
  6  1  1  0  0  0
 17 13  2  0  0  0
 11  4  1  0  0  0
 22 15  1  0  0  0
 34 35  1  0  0  0
 14 23  1  0  0  0
 28 29  1  0  0  0
 11 12  1  0  0  0
M  END
> <minimizedAffinity>
-6.12424

> <CNNscore>
0.1752305329

> <CNNaffinity>
6.1631164551

> <CNN_VS>
1.0799661875

> <CNNaffinity_variance>
0.1975217760

$$$$
[H]OC(=O)C([H])([H])C([H])([H])c1c2c(n([H])c1C([H])=C1C(=O)N([H])c3c([H])c([H])c(S(=O)(=O)N([H])C([H])([H])[H])c([H])c31)C([H])([H])C([H])([H])C([H])([H])C2=O


 35 38  0  0  0  0  0  0  0  0999 V2000
  -19.8663   13.9604  -18.1611 C   0  0  0  0  0  0  0  0  0  0  0  0
  -20.9316   14.8065  -18.3832 C   0  0  0  0  0  0  0  0  0  0  0  0
  -21.9603   14.9099  -17.4788 C   0  0  0  0  0  0  0  0  0  0  0  0
  -21.9741   14.1633  -16.2938 C   0  0  0  0  0  0  0  0  0  0  0  0
  -20.9131   13.3167  -16.0667 C   0  0  0  0  0  0  0  0  0  0  0  0
  -19.8864   13.2370  -17.0065 C   0  0  0  0  0  0  0  0  0  0  0  0
  -21.0808   12.6122  -14.7785 C   0  0  0  0  0  0  0  0  0  0  0  0
  -20.2401   11.7586  -14.2532 C   0  0  0  0  0  0  0  0  0  0  0  0
  -22.3434   13.1321  -14.2775 C   0  0  0  0  0  0  0  0  0  0  0  0
  -22.9128   12.8294  -13.1978 O   0  0  0  0  0  0  0  0  0  0  0  0
  -22.8823   14.0820  -15.2153 N   0  0  0  0  0  0  0  0  0  0  0  0
  -23.7666   14.6175  -15.1365 H   0  0  0  0  0  0  0  0  0  0  0  0
  -20.3808   11.0513  -12.9958 C   0  0  0  0  0  0  0  0  0  0  0  0
  -20.9201   11.3724  -11.8217 N   0  0  0  0  0  0  0  0  0  0  0  0
  -20.7838   10.3726  -10.9294 C   0  0  0  0  0  0  0  0  0  0  0  0
  -20.1196    9.3332  -11.5447 C   0  0  0  0  0  0  0  0  0  0  0  0
  -19.8707    9.7590  -12.8306 C   0  0  0  0  0  0  0  0  0  0  0  0
  -19.8565    8.1343  -10.7691 C   0  0  0  0  0  0  0  0  0  0  0  0
  -19.7667    7.0475  -11.3906 O   0  0  0  0  0  0  0  0  0  0  0  0
  -19.6932    8.1580   -9.2884 C   0  0  0  0  0  0  0  0  0  0  0  0
  -19.9342    9.5947   -8.8047 C   0  0  0  0  0  0  0  0  0  0  0  0
  -21.1764   10.1631   -9.5021 C   0  0  0  0  0  0  0  0  0  0  0  0
  -21.4011   12.2454  -11.5860 H   0  0  0  0  0  0  0  0  0  0  0  0
  -19.1806    8.9518  -13.8368 C   0  0  0  0  0  0  0  0  0  0  0  0
  -20.0808    8.4334  -14.9356 C   0  0  0  0  0  0  0  0  0  0  0  0
  -19.3731    8.6474  -16.2160 C   0  0  0  0  0  0  0  0  0  0  0  0
  -18.5255    9.5512  -16.3415 O   0  0  0  0  0  0  0  0  0  0  0  0
  -19.6559    7.8314  -17.2928 O   0  0  0  0  0  0  0  0  0  0  0  0
  -20.5768    7.7317  -17.6988 H   0  0  0  0  0  0  0  0  0  0  0  0
  -18.5438   13.8140  -19.2833 S   0  0  0  0  0  0  0  0  0  0  0  0
  -17.6832   12.6759  -18.8107 O   0  0  0  0  0  0  0  0  0  0  0  0
  -17.7122   15.0465  -19.3021 O   0  0  0  0  0  0  0  0  0  0  0  0
  -18.1181   13.9275  -21.8774 C   0  0  0  0  0  0  0  0  0  0  0  0
  -19.0565   13.4477  -20.8799 N   0  0  0  0  0  0  0  0  0  0  0  0
  -20.0267   13.6996  -21.0795 H   0  0  0  0  0  0  0  0  0  0  0  0
 33 34  1  0  0  0
 34 30  1  0  0  0
 30 31  2  0  0  0
 30 32  2  0  0  0
 30  1  1  0  0  0
  1  2  2  0  0  0
  2  3  1  0  0  0
  3  4  2  0  0  0
  4  5  1  0  0  0
  5  6  2  0  0  0
  5  7  1  0  0  0
  7  8  2  0  0  0
  8 13  1  0  0  0
 13 14  1  0  0  0
 14 15  1  0  0  0
 15 16  2  0  0  0
 16 17  1  0  0  0
 17 24  1  0  0  0
 24 25  1  0  0  0
 25 26  1  0  0  0
 26 27  2  0  0  0
 26 28  1  0  0  0
 16 18  1  0  0  0
 18 19  2  0  0  0
 18 20  1  0  0  0
 20 21  1  0  0  0
 21 22  1  0  0  0
  7  9  1  0  0  0
  9 10  2  0  0  0
  9 11  1  0  0  0
  6  1  1  0  0  0
 17 13  2  0  0  0
 11  4  1  0  0  0
 22 15  1  0  0  0
 34 35  1  0  0  0
 14 23  1  0  0  0
 28 29  1  0  0  0
 11 12  1  0  0  0
M  END
> <minimizedAffinity>
-4.89439

> <CNNscore>
0.1673872769

> <CNNaffinity>
5.3199014664

> <CNN_VS>
0.8904837966

> <CNNaffinity_variance>
0.1192199960

$$$$
[H]c1nc(OC([H])([H])[H])c(N([H])S(=O)(=O)c2c([H])c([H])c(F)c([H])c2F)c([H])c1-c1nc([H])c2nc(N([H])[H])c(-c3c([H])c([H])c([H])c([H])c3[H])c([H])c2c1[H]


 40 44  0  0  0  0  0  0  0  0999 V2000
  -21.8112   12.3498  -15.1911 C   0  0  0  0  0  0  0  0  0  0  0  0
  -21.5134   11.0879  -15.5322 N   0  0  0  0  0  0  0  0  0  0  0  0
  -20.5765   10.7731  -16.4807 C   0  0  0  0  0  0  0  0  0  0  0  0
  -19.8848   11.7582  -17.1395 C   0  0  0  0  0  0  0  0  0  0  0  0
  -20.1869   13.0644  -16.7927 C   0  0  0  0  0  0  0  0  0  0  0  0
  -21.1423   13.3707  -15.8257 C   0  0  0  0  0  0  0  0  0  0  0  0
  -18.8707   11.4851  -18.1639 C   0  0  0  0  0  0  0  0  0  0  0  0
  -18.7193   12.2810  -19.2491 C   0  0  0  0  0  0  0  0  0  0  0  0
  -17.7473   12.0111  -20.2216 C   0  0  0  0  0  0  0  0  0  0  0  0
  -17.6119   12.8363  -21.3186 C   0  0  0  0  0  0  0  0  0  0  0  0
  -16.6264   12.5208  -22.2579 C   0  0  0  0  0  0  0  0  0  0  0  0
  -15.8240   11.4057  -22.0661 C   0  0  0  0  0  0  0  0  0  0  0  0
  -14.8345   11.1376  -23.0471 N   0  0  0  0  0  0  0  0  0  0  0  0
  -15.9802   10.6125  -20.9780 N   0  0  0  0  0  0  0  0  0  0  0  0
  -16.9268   10.9127  -20.0728 C   0  0  0  0  0  0  0  0  0  0  0  0
  -17.1083   10.1144  -18.9458 C   0  0  0  0  0  0  0  0  0  0  0  0
  -18.0480   10.4077  -18.0414 N   0  0  0  0  0  0  0  0  0  0  0  0
  -14.2628   11.9329  -23.3911 H   0  0  0  0  0  0  0  0  0  0  0  0
  -14.6795   10.1917  -23.4128 H   0  0  0  0  0  0  0  0  0  0  0  0
  -16.4995   13.3798  -23.3981 C   0  0  0  0  0  0  0  0  0  0  0  0
  -17.2742   13.1887  -24.5177 C   0  0  0  0  0  0  0  0  0  0  0  0
  -17.1711   13.9861  -25.6246 C   0  0  0  0  0  0  0  0  0  0  0  0
  -16.2673   15.0192  -25.6363 C   0  0  0  0  0  0  0  0  0  0  0  0
  -15.4720   15.2443  -24.5344 C   0  0  0  0  0  0  0  0  0  0  0  0
  -15.5996   14.4174  -23.4252 C   0  0  0  0  0  0  0  0  0  0  0  0
  -22.5450   12.4412  -12.8470 C   0  0  0  0  0  0  0  0  0  0  0  0
  -22.7845   12.6061  -14.2081 O   0  0  0  0  0  0  0  0  0  0  0  0
  -21.4561   14.7060  -15.4742 N   0  0  0  0  0  0  0  0  0  0  0  0
  -21.5516   14.9169  -14.4397 H   0  0  0  0  0  0  0  0  0  0  0  0
  -21.6874   15.9762  -16.6254 S   0  0  0  0  0  0  0  0  0  0  0  0
  -23.0636   15.8510  -17.2400 O   0  0  0  0  0  0  0  0  0  0  0  0
  -21.6747   17.2894  -15.9003 O   0  0  0  0  0  0  0  0  0  0  0  0
  -20.4767   15.9974  -17.8596 C   0  0  0  0  0  0  0  0  0  0  0  0
  -20.7944   15.7598  -19.1760 C   0  0  0  0  0  0  0  0  0  0  0  0
  -19.7967   15.7922  -20.1306 C   0  0  0  0  0  0  0  0  0  0  0  0
  -18.4935   16.0584  -19.7823 C   0  0  0  0  0  0  0  0  0  0  0  0
  -17.4917   16.0947  -20.7146 F   0  0  0  0  0  0  0  0  0  0  0  0
  -18.1515   16.3012  -18.4589 C   0  0  0  0  0  0  0  0  0  0  0  0
  -19.1704   16.2616  -17.5299 C   0  0  0  0  0  0  0  0  0  0  0  0
  -18.8751   16.4934  -16.2290 F   0  0  0  0  0  0  0  0  0  0  0  0
 26 27  1  0  0  0
 27  1  1  0  0  0
  1  2  2  0  0  0
  2  3  1  0  0  0
  3  4  2  0  0  0
  4  7  1  0  0  0
  7  8  2  0  0  0
  8  9  1  0  0  0
  9 10  2  0  0  0
 10 11  1  0  0  0
 11 20  1  0  0  0
 20 21  2  0  0  0
 21 22  1  0  0  0
 22 23  2  0  0  0
 23 24  1  0  0  0
 24 25  2  0  0  0
 11 12  2  0  0  0
 12 13  1  0  0  0
 12 14  1  0  0  0
 14 15  2  0  0  0
 15 16  1  0  0  0
 16 17  2  0  0  0
  4  5  1  0  0  0
  5  6  2  0  0  0
  6 28  1  0  0  0
 28 30  1  0  0  0
 30 31  2  0  0  0
 30 32  2  0  0  0
 30 33  1  0  0  0
 33 34  2  0  0  0
 34 35  1  0  0  0
 35 36  2  0  0  0
 36 37  1  0  0  0
 36 38  1  0  0  0
 38 39  2  0  0  0
 39 40  1  0  0  0
  6  1  1  0  0  0
 39 33  1  0  0  0
 17  7  1  0  0  0
 15  9  1  0  0  0
 25 20  1  0  0  0
 13 18  1  0  0  0
 13 19  1  0  0  0
 28 29  1  0  0  0
M  END
> <minimizedAffinity>
-9.72876

> <CNNscore>
0.6914160252

> <CNNaffinity>
7.7764739990

> <CNN_VS>
5.3767786026

> <CNNaffinity_variance>
0.0933723673

$$$$
[H]c1nc(OC([H])([H])[H])c(N([H])S(=O)(=O)c2c([H])c([H])c(F)c([H])c2F)c([H])c1-c1nc([H])c2nc(N([H])[H])c(-c3c([H])c([H])c([H])c([H])c3[H])c([H])c2c1[H]


 40 44  0  0  0  0  0  0  0  0999 V2000
  -16.2629   14.3936  -24.8216 C   0  0  0  0  0  0  0  0  0  0  0  0
  -15.4114   13.4278  -24.4482 N   0  0  0  0  0  0  0  0  0  0  0  0
  -15.6200   12.6323  -23.3527 C   0  0  0  0  0  0  0  0  0  0  0  0
  -16.7358   12.7921  -22.5702 C   0  0  0  0  0  0  0  0  0  0  0  0
  -17.6203   13.7880  -22.9495 C   0  0  0  0  0  0  0  0  0  0  0  0
  -17.3959   14.5901  -24.0666 C   0  0  0  0  0  0  0  0  0  0  0  0
  -17.0151   11.9726  -21.3858 C   0  0  0  0  0  0  0  0  0  0  0  0
  -17.9879   12.3014  -20.5030 C   0  0  0  0  0  0  0  0  0  0  0  0
  -18.2464   11.5114  -19.3749 C   0  0  0  0  0  0  0  0  0  0  0  0
  -19.2427   11.8666  -18.4895 C   0  0  0  0  0  0  0  0  0  0  0  0
  -19.4581   11.0431  -17.3812 C   0  0  0  0  0  0  0  0  0  0  0  0
  -18.6784    9.9098  -17.2033 C   0  0  0  0  0  0  0  0  0  0  0  0
  -18.9462    9.1058  -16.0651 N   0  0  0  0  0  0  0  0  0  0  0  0
  -17.7059    9.5857  -18.0902 N   0  0  0  0  0  0  0  0  0  0  0  0
  -17.4958   10.3753  -19.1571 C   0  0  0  0  0  0  0  0  0  0  0  0
  -16.5030   10.0651  -20.0837 C   0  0  0  0  0  0  0  0  0  0  0  0
  -16.2891   10.8462  -21.1472 N   0  0  0  0  0  0  0  0  0  0  0  0
  -19.9376    8.8948  -15.8412 H   0  0  0  0  0  0  0  0  0  0  0  0
  -18.1921    8.7388  -15.4743 H   0  0  0  0  0  0  0  0  0  0  0  0
  -20.4900   11.4256  -16.4630 C   0  0  0  0  0  0  0  0  0  0  0  0
  -21.4370   10.5205  -16.0457 C   0  0  0  0  0  0  0  0  0  0  0  0
  -22.4388   10.8566  -15.1768 C   0  0  0  0  0  0  0  0  0  0  0  0
  -22.5177   12.1391  -14.6936 C   0  0  0  0  0  0  0  0  0  0  0  0
  -21.5882   13.0763  -15.0873 C   0  0  0  0  0  0  0  0  0  0  0  0
  -20.5824   12.7049  -15.9710 C   0  0  0  0  0  0  0  0  0  0  0  0
  -14.7091   15.6089  -26.2880 C   0  0  0  0  0  0  0  0  0  0  0  0
  -15.9903   15.1767  -25.9582 O   0  0  0  0  0  0  0  0  0  0  0  0
  -18.2967   15.6124  -24.4522 N   0  0  0  0  0  0  0  0  0  0  0  0
  -18.8067   15.4767  -25.3716 H   0  0  0  0  0  0  0  0  0  0  0  0
  -18.5940   17.0373  -23.5176 S   0  0  0  0  0  0  0  0  0  0  0  0
  -17.7279   18.1647  -24.0335 O   0  0  0  0  0  0  0  0  0  0  0  0
  -20.0133   17.4694  -23.7395 O   0  0  0  0  0  0  0  0  0  0  0  0
  -18.3303   16.8017  -21.8252 C   0  0  0  0  0  0  0  0  0  0  0  0
  -19.3681   16.4981  -20.9760 C   0  0  0  0  0  0  0  0  0  0  0  0
  -19.1118   16.3123  -19.6316 C   0  0  0  0  0  0  0  0  0  0  0  0
  -17.8356   16.4267  -19.1328 C   0  0  0  0  0  0  0  0  0  0  0  0
  -17.5627   16.2460  -17.8036 F   0  0  0  0  0  0  0  0  0  0  0  0
  -16.7737   16.7325  -19.9731 C   0  0  0  0  0  0  0  0  0  0  0  0
  -17.0625   16.9120  -21.3100 C   0  0  0  0  0  0  0  0  0  0  0  0
  -16.0522   17.2116  -22.1601 F   0  0  0  0  0  0  0  0  0  0  0  0
 26 27  1  0  0  0
 27  1  1  0  0  0
  1  2  2  0  0  0
  2  3  1  0  0  0
  3  4  2  0  0  0
  4  7  1  0  0  0
  7  8  2  0  0  0
  8  9  1  0  0  0
  9 10  2  0  0  0
 10 11  1  0  0  0
 11 20  1  0  0  0
 20 21  2  0  0  0
 21 22  1  0  0  0
 22 23  2  0  0  0
 23 24  1  0  0  0
 24 25  2  0  0  0
 11 12  2  0  0  0
 12 13  1  0  0  0
 12 14  1  0  0  0
 14 15  2  0  0  0
 15 16  1  0  0  0
 16 17  2  0  0  0
  4  5  1  0  0  0
  5  6  2  0  0  0
  6 28  1  0  0  0
 28 30  1  0  0  0
 30 31  2  0  0  0
 30 32  2  0  0  0
 30 33  1  0  0  0
 33 34  2  0  0  0
 34 35  1  0  0  0
 35 36  2  0  0  0
 36 37  1  0  0  0
 36 38  1  0  0  0
 38 39  2  0  0  0
 39 40  1  0  0  0
  6  1  1  0  0  0
 39 33  1  0  0  0
 17  7  1  0  0  0
 15  9  1  0  0  0
 25 20  1  0  0  0
 13 18  1  0  0  0
 13 19  1  0  0  0
 28 29  1  0  0  0
M  END
> <minimizedAffinity>
-10.41691

> <CNNscore>
0.5764750838

> <CNNaffinity>
8.0313673019

> <CNN_VS>
4.6298832893

> <CNNaffinity_variance>
0.1487458944

$$$$
[H]c1nc(OC([H])([H])[H])c(N([H])S(=O)(=O)c2c([H])c([H])c(F)c([H])c2F)c([H])c1-c1nc([H])c2nc(N([H])[H])c(-c3c([H])c([H])c([H])c([H])c3[H])c([H])c2c1[H]


 40 44  0  0  0  0  0  0  0  0999 V2000
  -21.7568   12.9339  -15.1359 C   0  0  0  0  0  0  0  0  0  0  0  0
  -20.8547   11.9688  -14.9077 N   0  0  0  0  0  0  0  0  0  0  0  0
  -19.9207   11.5869  -15.8342 C   0  0  0  0  0  0  0  0  0  0  0  0
  -19.8655   12.1890  -17.0660 C   0  0  0  0  0  0  0  0  0  0  0  0
  -20.7944   13.1869  -17.3093 C   0  0  0  0  0  0  0  0  0  0  0  0
  -21.7391   13.5657  -16.3577 C   0  0  0  0  0  0  0  0  0  0  0  0
  -18.8899   11.8246  -18.0993 C   0  0  0  0  0  0  0  0  0  0  0  0
  -18.7148   12.5754  -19.2128 C   0  0  0  0  0  0  0  0  0  0  0  0
  -17.7799   12.2183  -20.1936 C   0  0  0  0  0  0  0  0  0  0  0  0
  -17.6193   12.9988  -21.3195 C   0  0  0  0  0  0  0  0  0  0  0  0
  -16.6730   12.5964  -22.2658 C   0  0  0  0  0  0  0  0  0  0  0  0
  -15.9327   11.4431  -22.0521 C   0  0  0  0  0  0  0  0  0  0  0  0
  -14.9804   11.0865  -23.0418 N   0  0  0  0  0  0  0  0  0  0  0  0
  -16.1123   10.6954  -20.9358 N   0  0  0  0  0  0  0  0  0  0  0  0
  -17.0215   11.0791  -20.0237 C   0  0  0  0  0  0  0  0  0  0  0  0
  -17.2258   10.3291  -18.8678 C   0  0  0  0  0  0  0  0  0  0  0  0
  -18.1285   10.7054  -17.9565 N   0  0  0  0  0  0  0  0  0  0  0  0
  -14.3707   11.8357  -23.4223 H   0  0  0  0  0  0  0  0  0  0  0  0
  -14.8877   10.1220  -23.3788 H   0  0  0  0  0  0  0  0  0  0  0  0
  -16.5198   13.4098  -23.4358 C   0  0  0  0  0  0  0  0  0  0  0  0
  -17.3251   13.2270  -24.5351 C   0  0  0  0  0  0  0  0  0  0  0  0
  -17.1986   13.9814  -25.6694 C   0  0  0  0  0  0  0  0  0  0  0  0
  -16.2386   14.9607  -25.7309 C   0  0  0  0  0  0  0  0  0  0  0  0
  -15.4112   15.1756  -24.6508 C   0  0  0  0  0  0  0  0  0  0  0  0
  -15.5638   14.3933  -23.5128 C   0  0  0  0  0  0  0  0  0  0  0  0
  -23.7447   12.4484  -13.7743 C   0  0  0  0  0  0  0  0  0  0  0  0
  -22.6903   13.2793  -14.1416 O   0  0  0  0  0  0  0  0  0  0  0  0
  -22.6930   14.5821  -16.6073 N   0  0  0  0  0  0  0  0  0  0  0  0
  -23.7052   14.3483  -16.3964 H   0  0  0  0  0  0  0  0  0  0  0  0
  -22.2935   16.1469  -17.2271 S   0  0  0  0  0  0  0  0  0  0  0  0
  -21.7457   16.0055  -18.6297 O   0  0  0  0  0  0  0  0  0  0  0  0
  -23.5545   16.9496  -17.3530 O   0  0  0  0  0  0  0  0  0  0  0  0
  -21.1729   17.0032  -16.2268 C   0  0  0  0  0  0  0  0  0  0  0  0
  -20.0078   17.5215  -16.7409 C   0  0  0  0  0  0  0  0  0  0  0  0
  -19.1435   18.2038  -15.9073 C   0  0  0  0  0  0  0  0  0  0  0  0
  -19.4325   18.3712  -14.5735 C   0  0  0  0  0  0  0  0  0  0  0  0
  -18.5880   19.0444  -13.7323 F   0  0  0  0  0  0  0  0  0  0  0  0
  -20.6035   17.8559  -14.0344 C   0  0  0  0  0  0  0  0  0  0  0  0
  -21.4454   17.1798  -14.8928 C   0  0  0  0  0  0  0  0  0  0  0  0
  -22.5970   16.6630  -14.4030 F   0  0  0  0  0  0  0  0  0  0  0  0
 26 27  1  0  0  0
 27  1  1  0  0  0
  1  2  2  0  0  0
  2  3  1  0  0  0
  3  4  2  0  0  0
  4  7  1  0  0  0
  7  8  2  0  0  0
  8  9  1  0  0  0
  9 10  2  0  0  0
 10 11  1  0  0  0
 11 20  1  0  0  0
 20 21  2  0  0  0
 21 22  1  0  0  0
 22 23  2  0  0  0
 23 24  1  0  0  0
 24 25  2  0  0  0
 11 12  2  0  0  0
 12 13  1  0  0  0
 12 14  1  0  0  0
 14 15  2  0  0  0
 15 16  1  0  0  0
 16 17  2  0  0  0
  4  5  1  0  0  0
  5  6  2  0  0  0
  6 28  1  0  0  0
 28 30  1  0  0  0
 30 31  2  0  0  0
 30 32  2  0  0  0
 30 33  1  0  0  0
 33 34  2  0  0  0
 34 35  1  0  0  0
 35 36  2  0  0  0
 36 37  1  0  0  0
 36 38  1  0  0  0
 38 39  2  0  0  0
 39 40  1  0  0  0
  6  1  1  0  0  0
 39 33  1  0  0  0
 17  7  1  0  0  0
 15  9  1  0  0  0
 25 20  1  0  0  0
 13 18  1  0  0  0
 13 19  1  0  0  0
 28 29  1  0  0  0
M  END
> <minimizedAffinity>
-9.36968

> <CNNscore>
0.5061528087

> <CNNaffinity>
7.3933854103

> <CNN_VS>
3.7421827316

> <CNNaffinity_variance>
0.0472952239

$$$$
[H]c1nc(OC([H])([H])[H])c(N([H])S(=O)(=O)c2c([H])c([H])c(F)c([H])c2F)c([H])c1-c1nc([H])c2nc(N([H])[H])c(-c3c([H])c([H])c([H])c([H])c3[H])c([H])c2c1[H]


 40 44  0  0  0  0  0  0  0  0999 V2000
  -16.5012   14.9891  -24.7733 C   0  0  0  0  0  0  0  0  0  0  0  0
  -15.6663   13.9601  -24.5699 N   0  0  0  0  0  0  0  0  0  0  0  0
  -15.8132   13.0739  -23.5356 C   0  0  0  0  0  0  0  0  0  0  0  0
  -16.8454   13.2028  -22.6407 C   0  0  0  0  0  0  0  0  0  0  0  0
  -17.7121   14.2637  -22.8442 C   0  0  0  0  0  0  0  0  0  0  0  0
  -17.5512   15.1578  -23.9007 C   0  0  0  0  0  0  0  0  0  0  0  0
  -17.0557   12.2873  -21.5139 C   0  0  0  0  0  0  0  0  0  0  0  0
  -18.0177   12.5057  -20.5860 C   0  0  0  0  0  0  0  0  0  0  0  0
  -18.2101   11.6245  -19.5136 C   0  0  0  0  0  0  0  0  0  0  0  0
  -19.1965   11.8680  -18.5807 C   0  0  0  0  0  0  0  0  0  0  0  0
  -19.3450   10.9569  -17.5315 C   0  0  0  0  0  0  0  0  0  0  0  0
  -18.5114    9.8508  -17.4567 C   0  0  0  0  0  0  0  0  0  0  0  0
  -18.7121    8.9545  -16.3751 N   0  0  0  0  0  0  0  0  0  0  0  0
  -17.5501    9.6373  -18.3883 N   0  0  0  0  0  0  0  0  0  0  0  0
  -17.4043   10.5113  -19.3986 C   0  0  0  0  0  0  0  0  0  0  0  0
  -16.4245   10.3155  -20.3691 C   0  0  0  0  0  0  0  0  0  0  0  0
  -16.2744   11.1811  -21.3767 N   0  0  0  0  0  0  0  0  0  0  0  0
  -19.6868    8.6823  -16.1437 H   0  0  0  0  0  0  0  0  0  0  0  0
  -17.9268    8.5805  -15.8313 H   0  0  0  0  0  0  0  0  0  0  0  0
  -20.3673   11.2235  -16.5630 C   0  0  0  0  0  0  0  0  0  0  0  0
  -20.4060   12.4195  -15.8860 C   0  0  0  0  0  0  0  0  0  0  0  0
  -21.3637   12.7009  -14.9504 C   0  0  0  0  0  0  0  0  0  0  0  0
  -22.3288   11.7679  -14.6638 C   0  0  0  0  0  0  0  0  0  0  0  0
  -22.3252   10.5568  -15.3200 C   0  0  0  0  0  0  0  0  0  0  0  0
  -21.3396   10.3000  -16.2650 C   0  0  0  0  0  0  0  0  0  0  0  0
  -15.9257   15.4240  -27.1230 C   0  0  0  0  0  0  0  0  0  0  0  0
  -16.2949   15.8643  -25.8554 O   0  0  0  0  0  0  0  0  0  0  0  0
  -18.4335   16.2461  -24.1067 N   0  0  0  0  0  0  0  0  0  0  0  0
  -19.0201   16.2239  -24.9893 H   0  0  0  0  0  0  0  0  0  0  0  0
  -18.5924   17.5774  -23.0137 S   0  0  0  0  0  0  0  0  0  0  0  0
  -17.4028   17.6043  -22.0803 O   0  0  0  0  0  0  0  0  0  0  0  0
  -18.5321   18.8536  -23.7998 O   0  0  0  0  0  0  0  0  0  0  0  0
  -20.0658   17.5365  -22.1099 C   0  0  0  0  0  0  0  0  0  0  0  0
  -20.0819   17.1638  -20.7865 C   0  0  0  0  0  0  0  0  0  0  0  0
  -21.2806   17.1508  -20.1005 C   0  0  0  0  0  0  0  0  0  0  0  0
  -22.4548   17.5049  -20.7221 C   0  0  0  0  0  0  0  0  0  0  0  0
  -23.6519   17.4980  -20.0583 F   0  0  0  0  0  0  0  0  0  0  0  0
  -22.4605   17.8843  -22.0576 C   0  0  0  0  0  0  0  0  0  0  0  0
  -21.2476   17.8870  -22.7146 C   0  0  0  0  0  0  0  0  0  0  0  0
  -21.2137   18.2514  -24.0181 F   0  0  0  0  0  0  0  0  0  0  0  0
 26 27  1  0  0  0
 27  1  1  0  0  0
  1  2  2  0  0  0
  2  3  1  0  0  0
  3  4  2  0  0  0
  4  7  1  0  0  0
  7  8  2  0  0  0
  8  9  1  0  0  0
  9 10  2  0  0  0
 10 11  1  0  0  0
 11 20  1  0  0  0
 20 21  2  0  0  0
 21 22  1  0  0  0
 22 23  2  0  0  0
 23 24  1  0  0  0
 24 25  2  0  0  0
 11 12  2  0  0  0
 12 13  1  0  0  0
 12 14  1  0  0  0
 14 15  2  0  0  0
 15 16  1  0  0  0
 16 17  2  0  0  0
  4  5  1  0  0  0
  5  6  2  0  0  0
  6 28  1  0  0  0
 28 30  1  0  0  0
 30 31  2  0  0  0
 30 32  2  0  0  0
 30 33  1  0  0  0
 33 34  2  0  0  0
 34 35  1  0  0  0
 35 36  2  0  0  0
 36 37  1  0  0  0
 36 38  1  0  0  0
 38 39  2  0  0  0
 39 40  1  0  0  0
  6  1  1  0  0  0
 39 33  1  0  0  0
 17  7  1  0  0  0
 15  9  1  0  0  0
 25 20  1  0  0  0
 13 18  1  0  0  0
 13 19  1  0  0  0
 28 29  1  0  0  0
M  END
> <minimizedAffinity>
-9.68128

> <CNNscore>
0.4125768542

> <CNNaffinity>
7.6709451675

> <CNN_VS>
3.1648545265

> <CNNaffinity_variance>
0.1288844347

$$$$
[H]c1nc(OC([H])([H])[H])c(N([H])S(=O)(=O)c2c([H])c([H])c(F)c([H])c2F)c([H])c1-c1nc([H])c2nc(N([H])[H])c(-c3c([H])c([H])c([H])c([H])c3[H])c([H])c2c1[H]


 40 44  0  0  0  0  0  0  0  0999 V2000
  -22.1317   14.5928  -16.1290 C   0  0  0  0  0  0  0  0  0  0  0  0
  -21.4590   13.4927  -15.7623 N   0  0  0  0  0  0  0  0  0  0  0  0
  -20.5062   12.9037  -16.5509 C   0  0  0  0  0  0  0  0  0  0  0  0
  -20.1905   13.4255  -17.7801 C   0  0  0  0  0  0  0  0  0  0  0  0
  -20.8814   14.5620  -18.1661 C   0  0  0  0  0  0  0  0  0  0  0  0
  -21.8482   15.1511  -17.3539 C   0  0  0  0  0  0  0  0  0  0  0  0
  -19.1809   12.8410  -18.6697 C   0  0  0  0  0  0  0  0  0  0  0  0
  -18.7493   13.4844  -19.7805 C   0  0  0  0  0  0  0  0  0  0  0  0
  -17.7843   12.9171  -20.6234 C   0  0  0  0  0  0  0  0  0  0  0  0
  -17.3603   13.5915  -21.7495 C   0  0  0  0  0  0  0  0  0  0  0  0
  -16.3961   12.9797  -22.5550 C   0  0  0  0  0  0  0  0  0  0  0  0
  -15.8990   11.7323  -22.2075 C   0  0  0  0  0  0  0  0  0  0  0  0
  -14.9158   11.1620  -23.0570 N   0  0  0  0  0  0  0  0  0  0  0  0
  -16.3348   11.0929  -21.0945 N   0  0  0  0  0  0  0  0  0  0  0  0
  -17.2620   11.6780  -20.3175 C   0  0  0  0  0  0  0  0  0  0  0  0
  -17.7269   11.0427  -19.1683 C   0  0  0  0  0  0  0  0  0  0  0  0
  -18.6490   11.6195  -18.3911 N   0  0  0  0  0  0  0  0  0  0  0  0
  -14.1445   11.7735  -23.3870 H   0  0  0  0  0  0  0  0  0  0  0  0
  -14.9552   10.1776  -23.3430 H   0  0  0  0  0  0  0  0  0  0  0  0
  -15.9685   13.6851  -23.7271 C   0  0  0  0  0  0  0  0  0  0  0  0
  -16.7569   13.7309  -24.8524 C   0  0  0  0  0  0  0  0  0  0  0  0
  -16.3736   14.3888  -25.9891 C   0  0  0  0  0  0  0  0  0  0  0  0
  -15.1615   15.0319  -26.0262 C   0  0  0  0  0  0  0  0  0  0  0  0
  -14.3416   15.0097  -24.9196 C   0  0  0  0  0  0  0  0  0  0  0  0
  -14.7584   14.3332  -23.7798 C   0  0  0  0  0  0  0  0  0  0  0  0
  -22.7694   15.8962  -14.1450 C   0  0  0  0  0  0  0  0  0  0  0  0
  -23.0990   15.1492  -15.2721 O   0  0  0  0  0  0  0  0  0  0  0  0
  -22.5592   16.3100  -17.7497 N   0  0  0  0  0  0  0  0  0  0  0  0
  -23.6174   16.2499  -17.7308 H   0  0  0  0  0  0  0  0  0  0  0  0
  -21.8003   17.7809  -18.2523 S   0  0  0  0  0  0  0  0  0  0  0  0
  -22.8254   18.6717  -18.9180 O   0  0  0  0  0  0  0  0  0  0  0  0
  -21.3355   18.5220  -17.0336 O   0  0  0  0  0  0  0  0  0  0  0  0
  -20.4544   17.5204  -19.3060 C   0  0  0  0  0  0  0  0  0  0  0  0
  -19.1697   17.8050  -18.9075 C   0  0  0  0  0  0  0  0  0  0  0  0
  -18.1231   17.5761  -19.7793 C   0  0  0  0  0  0  0  0  0  0  0  0
  -18.3489   17.0686  -21.0370 C   0  0  0  0  0  0  0  0  0  0  0  0
  -17.3243   16.8353  -21.9144 F   0  0  0  0  0  0  0  0  0  0  0  0
  -19.6384   16.7745  -21.4591 C   0  0  0  0  0  0  0  0  0  0  0  0
  -20.6614   17.0142  -20.5653 C   0  0  0  0  0  0  0  0  0  0  0  0
  -21.9327   16.7396  -20.9416 F   0  0  0  0  0  0  0  0  0  0  0  0
 26 27  1  0  0  0
 27  1  1  0  0  0
  1  2  2  0  0  0
  2  3  1  0  0  0
  3  4  2  0  0  0
  4  7  1  0  0  0
  7  8  2  0  0  0
  8  9  1  0  0  0
  9 10  2  0  0  0
 10 11  1  0  0  0
 11 20  1  0  0  0
 20 21  2  0  0  0
 21 22  1  0  0  0
 22 23  2  0  0  0
 23 24  1  0  0  0
 24 25  2  0  0  0
 11 12  2  0  0  0
 12 13  1  0  0  0
 12 14  1  0  0  0
 14 15  2  0  0  0
 15 16  1  0  0  0
 16 17  2  0  0  0
  4  5  1  0  0  0
  5  6  2  0  0  0
  6 28  1  0  0  0
 28 30  1  0  0  0
 30 31  2  0  0  0
 30 32  2  0  0  0
 30 33  1  0  0  0
 33 34  2  0  0  0
 34 35  1  0  0  0
 35 36  2  0  0  0
 36 37  1  0  0  0
 36 38  1  0  0  0
 38 39  2  0  0  0
 39 40  1  0  0  0
  6  1  1  0  0  0
 39 33  1  0  0  0
 17  7  1  0  0  0
 15  9  1  0  0  0
 25 20  1  0  0  0
 13 18  1  0  0  0
 13 19  1  0  0  0
 28 29  1  0  0  0
M  END
> <minimizedAffinity>
-9.12652

> <CNNscore>
0.3897470236

> <CNNaffinity>
7.6286873817

> <CNN_VS>
2.9732582569

> <CNNaffinity_variance>
0.1801881343

$$$$
[H]c1nc(OC([H])([H])[H])c(N([H])S(=O)(=O)c2c([H])c([H])c(F)c([H])c2F)c([H])c1-c1nc([H])c2nc(N([H])[H])c(-c3c([H])c([H])c([H])c([H])c3[H])c([H])c2c1[H]


 40 44  0  0  0  0  0  0  0  0999 V2000
  -16.6403   15.1647  -23.7240 C   0  0  0  0  0  0  0  0  0  0  0  0
  -16.2556   13.8960  -23.9230 N   0  0  0  0  0  0  0  0  0  0  0  0
  -16.4588   12.9021  -23.0024 C   0  0  0  0  0  0  0  0  0  0  0  0
  -17.0797   13.1668  -21.8077 C   0  0  0  0  0  0  0  0  0  0  0  0
  -17.4799   14.4754  -21.5948 C   0  0  0  0  0  0  0  0  0  0  0  0
  -17.2671   15.4768  -22.5399 C   0  0  0  0  0  0  0  0  0  0  0  0
  -17.3257   12.1465  -20.7826 C   0  0  0  0  0  0  0  0  0  0  0  0
  -18.2265   12.3349  -19.7890 C   0  0  0  0  0  0  0  0  0  0  0  0
  -18.4539   11.3536  -18.8150 C   0  0  0  0  0  0  0  0  0  0  0  0
  -19.3766   11.5683  -17.8124 C   0  0  0  0  0  0  0  0  0  0  0  0
  -19.5638   10.5563  -16.8669 C   0  0  0  0  0  0  0  0  0  0  0  0
  -18.8300    9.3829  -16.9596 C   0  0  0  0  0  0  0  0  0  0  0  0
  -19.0666    8.3863  -15.9777 N   0  0  0  0  0  0  0  0  0  0  0  0
  -17.9296    9.1999  -17.9562 N   0  0  0  0  0  0  0  0  0  0  0  0
  -17.7467   10.1708  -18.8671 C   0  0  0  0  0  0  0  0  0  0  0  0
  -16.8279   10.0083  -19.9013 C   0  0  0  0  0  0  0  0  0  0  0  0
  -16.6414   10.9702  -20.8107 N   0  0  0  0  0  0  0  0  0  0  0  0
  -20.0517    8.1718  -15.7301 H   0  0  0  0  0  0  0  0  0  0  0  0
  -18.2967    7.8865  -15.5196 H   0  0  0  0  0  0  0  0  0  0  0  0
  -20.5187   10.7928  -15.8247 C   0  0  0  0  0  0  0  0  0  0  0  0
  -21.8088   10.3292  -15.9285 C   0  0  0  0  0  0  0  0  0  0  0  0
  -22.7455   10.5453  -14.9550 C   0  0  0  0  0  0  0  0  0  0  0  0
  -22.4034   11.2484  -13.8268 C   0  0  0  0  0  0  0  0  0  0  0  0
  -21.1209   11.7303  -13.6842 C   0  0  0  0  0  0  0  0  0  0  0  0
  -20.1918   11.4948  -14.6901 C   0  0  0  0  0  0  0  0  0  0  0  0
  -16.2448   15.8276  -26.0576 C   0  0  0  0  0  0  0  0  0  0  0  0
  -16.4018   16.1393  -24.7103 O   0  0  0  0  0  0  0  0  0  0  0  0
  -17.6710   16.8163  -22.3211 N   0  0  0  0  0  0  0  0  0  0  0  0
  -18.0034   17.3587  -23.1691 H   0  0  0  0  0  0  0  0  0  0  0  0
  -17.6453   17.5896  -20.7740 S   0  0  0  0  0  0  0  0  0  0  0  0
  -16.2121   17.8536  -20.3694 O   0  0  0  0  0  0  0  0  0  0  0  0
  -18.2958   18.9356  -20.8993 O   0  0  0  0  0  0  0  0  0  0  0  0
  -18.4580   16.6781  -19.5501 C   0  0  0  0  0  0  0  0  0  0  0  0
  -17.8071   16.2770  -18.4074 C   0  0  0  0  0  0  0  0  0  0  0  0
  -18.4962   15.5553  -17.4525 C   0  0  0  0  0  0  0  0  0  0  0  0
  -19.8213   15.2336  -17.6294 C   0  0  0  0  0  0  0  0  0  0  0  0
  -20.5203   14.5192  -16.6940 F   0  0  0  0  0  0  0  0  0  0  0  0
  -20.4971   15.6289  -18.7758 C   0  0  0  0  0  0  0  0  0  0  0  0
  -19.7811   16.3481  -19.7101 C   0  0  0  0  0  0  0  0  0  0  0  0
  -20.4068   16.7510  -20.8412 F   0  0  0  0  0  0  0  0  0  0  0  0
 26 27  1  0  0  0
 27  1  1  0  0  0
  1  2  2  0  0  0
  2  3  1  0  0  0
  3  4  2  0  0  0
  4  7  1  0  0  0
  7  8  2  0  0  0
  8  9  1  0  0  0
  9 10  2  0  0  0
 10 11  1  0  0  0
 11 20  1  0  0  0
 20 21  2  0  0  0
 21 22  1  0  0  0
 22 23  2  0  0  0
 23 24  1  0  0  0
 24 25  2  0  0  0
 11 12  2  0  0  0
 12 13  1  0  0  0
 12 14  1  0  0  0
 14 15  2  0  0  0
 15 16  1  0  0  0
 16 17  2  0  0  0
  4  5  1  0  0  0
  5  6  2  0  0  0
  6 28  1  0  0  0
 28 30  1  0  0  0
 30 31  2  0  0  0
 30 32  2  0  0  0
 30 33  1  0  0  0
 33 34  2  0  0  0
 34 35  1  0  0  0
 35 36  2  0  0  0
 36 37  1  0  0  0
 36 38  1  0  0  0
 38 39  2  0  0  0
 39 40  1  0  0  0
  6  1  1  0  0  0
 39 33  1  0  0  0
 17  7  1  0  0  0
 15  9  1  0  0  0
 25 20  1  0  0  0
 13 18  1  0  0  0
 13 19  1  0  0  0
 28 29  1  0  0  0
M  END
> <minimizedAffinity>
-9.31519

> <CNNscore>
0.3473394215

> <CNNaffinity>
7.6940817833

> <CNN_VS>
2.6724579334

> <CNNaffinity_variance>
0.1876127273

$$$$
[H]c1nc(OC([H])([H])[H])c(N([H])S(=O)(=O)c2c([H])c([H])c(F)c([H])c2F)c([H])c1-c1nc([H])c2nc(N([H])[H])c(-c3c([H])c([H])c([H])c([H])c3[H])c([H])c2c1[H]


 40 44  0  0  0  0  0  0  0  0999 V2000
  -16.9049   12.2052  -21.9354 C   0  0  0  0  0  0  0  0  0  0  0  0
  -16.5518   11.2024  -21.1187 N   0  0  0  0  0  0  0  0  0  0  0  0
  -17.1356   10.9950  -19.8969 C   0  0  0  0  0  0  0  0  0  0  0  0
  -18.1308   11.8238  -19.4436 C   0  0  0  0  0  0  0  0  0  0  0  0
  -18.5011   12.8623  -20.2818 C   0  0  0  0  0  0  0  0  0  0  0  0
  -17.8991   13.0617  -21.5225 C   0  0  0  0  0  0  0  0  0  0  0  0
  -18.7939   11.6540  -18.1460 C   0  0  0  0  0  0  0  0  0  0  0  0
  -19.0531   10.4285  -17.6312 C   0  0  0  0  0  0  0  0  0  0  0  0
  -19.6869   10.2777  -16.3906 C   0  0  0  0  0  0  0  0  0  0  0  0
  -19.9404    9.0190  -15.8867 C   0  0  0  0  0  0  0  0  0  0  0  0
  -20.5750    8.9262  -14.6450 C   0  0  0  0  0  0  0  0  0  0  0  0
  -20.9272   10.0819  -13.9635 C   0  0  0  0  0  0  0  0  0  0  0  0
  -21.5616    9.9285  -12.7036 N   0  0  0  0  0  0  0  0  0  0  0  0
  -20.6654   11.3059  -14.4838 N   0  0  0  0  0  0  0  0  0  0  0  0
  -20.0555   11.3991  -15.6775 C   0  0  0  0  0  0  0  0  0  0  0  0
  -19.7749   12.6445  -16.2347 C   0  0  0  0  0  0  0  0  0  0  0  0
  -19.1681   12.7440  -17.4217 N   0  0  0  0  0  0  0  0  0  0  0  0
  -21.1682    9.2311  -12.0428 H   0  0  0  0  0  0  0  0  0  0  0  0
  -22.3838   10.4835  -12.4423 H   0  0  0  0  0  0  0  0  0  0  0  0
  -20.8413    7.6139  -14.1343 C   0  0  0  0  0  0  0  0  0  0  0  0
  -19.9568    6.9922  -13.2850 C   0  0  0  0  0  0  0  0  0  0  0  0
  -20.1783    5.7373  -12.7870 C   0  0  0  0  0  0  0  0  0  0  0  0
  -21.3192    5.0589  -13.1368 C   0  0  0  0  0  0  0  0  0  0  0  0
  -22.2309    5.6466  -13.9857 C   0  0  0  0  0  0  0  0  0  0  0  0
  -21.9780    6.9221  -14.4753 C   0  0  0  0  0  0  0  0  0  0  0  0
  -14.8892   12.5260  -23.3049 C   0  0  0  0  0  0  0  0  0  0  0  0
  -16.2657   12.3636  -23.1787 O   0  0  0  0  0  0  0  0  0  0  0  0
  -18.2729   14.1264  -22.3779 N   0  0  0  0  0  0  0  0  0  0  0  0
  -19.2119   14.0416  -22.8625 H   0  0  0  0  0  0  0  0  0  0  0  0
  -17.2920   15.5223  -22.6636 S   0  0  0  0  0  0  0  0  0  0  0  0
  -18.1275   16.7689  -22.4753 O   0  0  0  0  0  0  0  0  0  0  0  0
  -16.2204   15.5787  -21.6153 O   0  0  0  0  0  0  0  0  0  0  0  0
  -16.5562   15.5216  -24.2282 C   0  0  0  0  0  0  0  0  0  0  0  0
  -15.3152   16.0765  -24.4342 C   0  0  0  0  0  0  0  0  0  0  0  0
  -14.7618   16.0490  -25.6994 C   0  0  0  0  0  0  0  0  0  0  0  0
  -15.4341   15.4753  -26.7526 C   0  0  0  0  0  0  0  0  0  0  0  0
  -14.9015   15.4388  -28.0132 F   0  0  0  0  0  0  0  0  0  0  0  0
  -16.6881   14.9095  -26.5661 C   0  0  0  0  0  0  0  0  0  0  0  0
  -17.2131   14.9530  -25.2913 C   0  0  0  0  0  0  0  0  0  0  0  0
  -18.4342   14.4112  -25.0709 F   0  0  0  0  0  0  0  0  0  0  0  0
 26 27  1  0  0  0
 27  1  1  0  0  0
  1  2  2  0  0  0
  2  3  1  0  0  0
  3  4  2  0  0  0
  4  7  1  0  0  0
  7  8  2  0  0  0
  8  9  1  0  0  0
  9 10  2  0  0  0
 10 11  1  0  0  0
 11 20  1  0  0  0
 20 21  2  0  0  0
 21 22  1  0  0  0
 22 23  2  0  0  0
 23 24  1  0  0  0
 24 25  2  0  0  0
 11 12  2  0  0  0
 12 13  1  0  0  0
 12 14  1  0  0  0
 14 15  2  0  0  0
 15 16  1  0  0  0
 16 17  2  0  0  0
  4  5  1  0  0  0
  5  6  2  0  0  0
  6 28  1  0  0  0
 28 30  1  0  0  0
 30 31  2  0  0  0
 30 32  2  0  0  0
 30 33  1  0  0  0
 33 34  2  0  0  0
 34 35  1  0  0  0
 35 36  2  0  0  0
 36 37  1  0  0  0
 36 38  1  0  0  0
 38 39  2  0  0  0
 39 40  1  0  0  0
  6  1  1  0  0  0
 39 33  1  0  0  0
 17  7  1  0  0  0
 15  9  1  0  0  0
 25 20  1  0  0  0
 13 18  1  0  0  0
 13 19  1  0  0  0
 28 29  1  0  0  0
M  END
> <minimizedAffinity>
-9.28582

> <CNNscore>
0.3359953165

> <CNNaffinity>
7.2581062317

> <CNN_VS>
2.4386897087

> <CNNaffinity_variance>
0.2243829072

$$$$
[H]c1nc(OC([H])([H])[H])c(N([H])S(=O)(=O)c2c([H])c([H])c(F)c([H])c2F)c([H])c1-c1nc([H])c2nc(N([H])[H])c(-c3c([H])c([H])c([H])c([H])c3[H])c([H])c2c1[H]


 40 44  0  0  0  0  0  0  0  0999 V2000
  -16.3120   11.5962  -21.8785 C   0  0  0  0  0  0  0  0  0  0  0  0
  -15.7915   10.6954  -21.0330 N   0  0  0  0  0  0  0  0  0  0  0  0
  -16.4059   10.3263  -19.8656 C   0  0  0  0  0  0  0  0  0  0  0  0
  -17.6097   10.8747  -19.5010 C   0  0  0  0  0  0  0  0  0  0  0  0
  -18.1539   11.8062  -20.3694 C   0  0  0  0  0  0  0  0  0  0  0  0
  -17.5182   12.1726  -21.5540 C   0  0  0  0  0  0  0  0  0  0  0  0
  -18.3165   10.5209  -18.2650 C   0  0  0  0  0  0  0  0  0  0  0  0
  -19.0984   11.4113  -17.6093 C   0  0  0  0  0  0  0  0  0  0  0  0
  -19.7691   11.0627  -16.4295 C   0  0  0  0  0  0  0  0  0  0  0  0
  -20.5601   11.9869  -15.7792 C   0  0  0  0  0  0  0  0  0  0  0  0
  -21.2063   11.5863  -14.6066 C   0  0  0  0  0  0  0  0  0  0  0  0
  -21.0386   10.2925  -14.1354 C   0  0  0  0  0  0  0  0  0  0  0  0
  -21.7247    9.9378  -12.9451 N   0  0  0  0  0  0  0  0  0  0  0  0
  -20.2546    9.4056  -14.7958 N   0  0  0  0  0  0  0  0  0  0  0  0
  -19.6316    9.7872  -15.9236 C   0  0  0  0  0  0  0  0  0  0  0  0
  -18.8203    8.8956  -16.6216 C   0  0  0  0  0  0  0  0  0  0  0  0
  -18.1980    9.2689  -17.7442 N   0  0  0  0  0  0  0  0  0  0  0  0
  -22.7181   10.2246  -12.8525 H   0  0  0  0  0  0  0  0  0  0  0  0
  -21.2643    9.4143  -12.1925 H   0  0  0  0  0  0  0  0  0  0  0  0
  -22.0190   12.5566  -13.9342 C   0  0  0  0  0  0  0  0  0  0  0  0
  -22.1642   12.5328  -12.5673 C   0  0  0  0  0  0  0  0  0  0  0  0
  -22.9390   13.4396  -11.8970 C   0  0  0  0  0  0  0  0  0  0  0  0
  -23.6029   14.4156  -12.5977 C   0  0  0  0  0  0  0  0  0  0  0  0
  -23.4838   14.4739  -13.9687 C   0  0  0  0  0  0  0  0  0  0  0  0
  -22.6898   13.5390  -14.6212 C   0  0  0  0  0  0  0  0  0  0  0  0
  -14.3727   12.5286  -23.0663 C   0  0  0  0  0  0  0  0  0  0  0  0
  -15.6301   11.9320  -23.0624 O   0  0  0  0  0  0  0  0  0  0  0  0
  -18.0708   13.1290  -22.4400 N   0  0  0  0  0  0  0  0  0  0  0  0
  -18.8567   12.7976  -23.0696 H   0  0  0  0  0  0  0  0  0  0  0  0
  -17.5349   14.7705  -22.5419 S   0  0  0  0  0  0  0  0  0  0  0  0
  -18.7142   15.6960  -22.3419 O   0  0  0  0  0  0  0  0  0  0  0  0
  -16.5972   15.0409  -21.4025 O   0  0  0  0  0  0  0  0  0  0  0  0
  -16.7351   15.1282  -24.0324 C   0  0  0  0  0  0  0  0  0  0  0  0
  -15.5807   15.8745  -24.0625 C   0  0  0  0  0  0  0  0  0  0  0  0
  -14.9711   16.1317  -25.2749 C   0  0  0  0  0  0  0  0  0  0  0  0
  -15.5023   15.6523  -26.4490 C   0  0  0  0  0  0  0  0  0  0  0  0
  -14.9122   15.8971  -27.6596 F   0  0  0  0  0  0  0  0  0  0  0  0
  -16.6670   14.8968  -26.4407 C   0  0  0  0  0  0  0  0  0  0  0  0
  -17.2514   14.6575  -25.2143 C   0  0  0  0  0  0  0  0  0  0  0  0
  -18.3887   13.9244  -25.1666 F   0  0  0  0  0  0  0  0  0  0  0  0
 26 27  1  0  0  0
 27  1  1  0  0  0
  1  2  2  0  0  0
  2  3  1  0  0  0
  3  4  2  0  0  0
  4  7  1  0  0  0
  7  8  2  0  0  0
  8  9  1  0  0  0
  9 10  2  0  0  0
 10 11  1  0  0  0
 11 20  1  0  0  0
 20 21  2  0  0  0
 21 22  1  0  0  0
 22 23  2  0  0  0
 23 24  1  0  0  0
 24 25  2  0  0  0
 11 12  2  0  0  0
 12 13  1  0  0  0
 12 14  1  0  0  0
 14 15  2  0  0  0
 15 16  1  0  0  0
 16 17  2  0  0  0
  4  5  1  0  0  0
  5  6  2  0  0  0
  6 28  1  0  0  0
 28 30  1  0  0  0
 30 31  2  0  0  0
 30 32  2  0  0  0
 30 33  1  0  0  0
 33 34  2  0  0  0
 34 35  1  0  0  0
 35 36  2  0  0  0
 36 37  1  0  0  0
 36 38  1  0  0  0
 38 39  2  0  0  0
 39 40  1  0  0  0
  6  1  1  0  0  0
 39 33  1  0  0  0
 17  7  1  0  0  0
 15  9  1  0  0  0
 25 20  1  0  0  0
 13 18  1  0  0  0
 13 19  1  0  0  0
 28 29  1  0  0  0
M  END
> <minimizedAffinity>
-8.91087

> <CNNscore>
0.3235783279

> <CNNaffinity>
7.2136855125

> <CNN_VS>
2.3341922760

> <CNNaffinity_variance>
0.1401372403

$$$$
[H]c1nc(OC([H])([H])[H])c(N([H])S(=O)(=O)c2c([H])c([H])c(F)c([H])c2F)c([H])c1-c1nc([H])c2nc(N([H])[H])c(-c3c([H])c([H])c([H])c([H])c3[H])c([H])c2c1[H]


 40 44  0  0  0  0  0  0  0  0999 V2000
  -16.3930   11.1728  -21.1168 C   0  0  0  0  0  0  0  0  0  0  0  0
  -16.4403   10.6510  -19.8828 N   0  0  0  0  0  0  0  0  0  0  0  0
  -17.2979   11.1026  -18.9147 C   0  0  0  0  0  0  0  0  0  0  0  0
  -18.1670   12.1331  -19.1706 C   0  0  0  0  0  0  0  0  0  0  0  0
  -18.1240   12.6774  -20.4433 C   0  0  0  0  0  0  0  0  0  0  0  0
  -17.2467   12.2083  -21.4189 C   0  0  0  0  0  0  0  0  0  0  0  0
  -19.1083   12.6606  -18.1766 C   0  0  0  0  0  0  0  0  0  0  0  0
  -19.1421   13.9749  -17.8519 C   0  0  0  0  0  0  0  0  0  0  0  0
  -20.0454   14.4683  -16.9011 C   0  0  0  0  0  0  0  0  0  0  0  0
  -20.0611   15.8113  -16.5867 C   0  0  0  0  0  0  0  0  0  0  0  0
  -20.9822   16.2496  -15.6315 C   0  0  0  0  0  0  0  0  0  0  0  0
  -21.8419   15.3390  -15.0350 C   0  0  0  0  0  0  0  0  0  0  0  0
  -22.7619   15.8406  -14.0783 N   0  0  0  0  0  0  0  0  0  0  0  0
  -21.8035   14.0245  -15.3639 N   0  0  0  0  0  0  0  0  0  0  0  0
  -20.9189   13.5993  -16.2818 C   0  0  0  0  0  0  0  0  0  0  0  0
  -20.8587   12.2540  -16.6380 C   0  0  0  0  0  0  0  0  0  0  0  0
  -19.9813   11.8247  -17.5505 N   0  0  0  0  0  0  0  0  0  0  0  0
  -23.2722   16.7154  -14.3065 H   0  0  0  0  0  0  0  0  0  0  0  0
  -22.9263   15.3628  -13.1855 H   0  0  0  0  0  0  0  0  0  0  0  0
  -20.9847   17.6454  -15.3061 C   0  0  0  0  0  0  0  0  0  0  0  0
  -20.2128   18.1337  -14.2785 C   0  0  0  0  0  0  0  0  0  0  0  0
  -20.1993   19.4587  -13.9382 C   0  0  0  0  0  0  0  0  0  0  0  0
  -20.9782   20.3477  -14.6363 C   0  0  0  0  0  0  0  0  0  0  0  0
  -21.7663   19.8988  -15.6730 C   0  0  0  0  0  0  0  0  0  0  0  0
  -21.7588   18.5472  -15.9950 C   0  0  0  0  0  0  0  0  0  0  0  0
  -14.2304   11.2174  -22.2841 C   0  0  0  0  0  0  0  0  0  0  0  0
  -15.4884   10.6632  -22.0662 O   0  0  0  0  0  0  0  0  0  0  0  0
  -17.1979   12.7677  -22.7188 N   0  0  0  0  0  0  0  0  0  0  0  0
  -17.2388   12.0888  -23.5319 H   0  0  0  0  0  0  0  0  0  0  0  0
  -17.0752   14.4642  -23.0335 S   0  0  0  0  0  0  0  0  0  0  0  0
  -18.4294   15.1092  -22.8392 O   0  0  0  0  0  0  0  0  0  0  0  0
  -16.1715   15.0789  -22.0059 O   0  0  0  0  0  0  0  0  0  0  0  0
  -16.4621   14.8156  -24.6115 C   0  0  0  0  0  0  0  0  0  0  0  0
  -15.3384   15.5884  -24.7855 C   0  0  0  0  0  0  0  0  0  0  0  0
  -14.8796   15.8395  -26.0638 C   0  0  0  0  0  0  0  0  0  0  0  0
  -15.5303   15.3278  -27.1616 C   0  0  0  0  0  0  0  0  0  0  0  0
  -15.0902   15.5660  -28.4358 F   0  0  0  0  0  0  0  0  0  0  0  0
  -16.6666   14.5450  -27.0079 C   0  0  0  0  0  0  0  0  0  0  0  0
  -17.0992   14.3128  -25.7189 C   0  0  0  0  0  0  0  0  0  0  0  0
  -18.2043   13.5537  -25.5295 F   0  0  0  0  0  0  0  0  0  0  0  0
 26 27  1  0  0  0
 27  1  1  0  0  0
  1  2  2  0  0  0
  2  3  1  0  0  0
  3  4  2  0  0  0
  4  7  1  0  0  0
  7  8  2  0  0  0
  8  9  1  0  0  0
  9 10  2  0  0  0
 10 11  1  0  0  0
 11 20  1  0  0  0
 20 21  2  0  0  0
 21 22  1  0  0  0
 22 23  2  0  0  0
 23 24  1  0  0  0
 24 25  2  0  0  0
 11 12  2  0  0  0
 12 13  1  0  0  0
 12 14  1  0  0  0
 14 15  2  0  0  0
 15 16  1  0  0  0
 16 17  2  0  0  0
  4  5  1  0  0  0
  5  6  2  0  0  0
  6 28  1  0  0  0
 28 30  1  0  0  0
 30 31  2  0  0  0
 30 32  2  0  0  0
 30 33  1  0  0  0
 33 34  2  0  0  0
 34 35  1  0  0  0
 35 36  2  0  0  0
 36 37  1  0  0  0
 36 38  1  0  0  0
 38 39  2  0  0  0
 39 40  1  0  0  0
  6  1  1  0  0  0
 39 33  1  0  0  0
 17  7  1  0  0  0
 15  9  1  0  0  0
 25 20  1  0  0  0
 13 18  1  0  0  0
 13 19  1  0  0  0
 28 29  1  0  0  0
M  END
> <minimizedAffinity>
-8.74142

> <CNNscore>
0.3033436537

> <CNNaffinity>
7.2876138687

> <CNN_VS>
2.2106513977

> <CNNaffinity_variance>
0.1112873927

$$$$
[H]c1c([H])c(S(=O)(=O)C([H])([H])C([H])([H])C([H])([H])C([H])([H])C([H])([H])C([H])([H])[H])c(Cl)c(Cl)c1C(=O)C([H])([H])C([H])([H])N1C([H])([H])C1([H])C([H])([H])[H]


 25 26  0  0  0  0  0  0  0  0999 V2000
  -16.9821   12.8642  -21.9020 C   0  0  0  0  0  0  0  0  0  0  0  0
  -17.8388   13.9205  -21.6438 C   0  0  0  0  0  0  0  0  0  0  0  0
  -18.5808   13.9625  -20.4939 C   0  0  0  0  0  0  0  0  0  0  0  0
  -18.5089   12.9758  -19.5553 C   0  0  0  0  0  0  0  0  0  0  0  0
  -17.6508   11.8947  -19.7965 C   0  0  0  0  0  0  0  0  0  0  0  0
  -17.5569   10.6115  -18.5908 Cl  0  0  0  0  0  0  0  0  0  0  0  0
  -16.9135   11.8637  -20.9583 C   0  0  0  0  0  0  0  0  0  0  0  0
  -15.8545   10.5084  -21.2624 Cl  0  0  0  0  0  0  0  0  0  0  0  0
  -15.9837   12.8791  -23.3387 S   0  0  0  0  0  0  0  0  0  0  0  0
  -16.8883   12.4386  -24.4913 O   0  0  0  0  0  0  0  0  0  0  0  0
  -14.8110   11.9924  -23.2097 O   0  0  0  0  0  0  0  0  0  0  0  0
  -15.5264   14.5775  -23.5999 C   0  0  0  0  0  0  0  0  0  0  0  0
  -14.1819   14.7243  -24.2208 C   0  0  0  0  0  0  0  0  0  0  0  0
  -14.4175   15.0067  -25.7134 C   0  0  0  0  0  0  0  0  0  0  0  0
  -15.7768   15.6218  -25.8940 C   0  0  0  0  0  0  0  0  0  0  0  0
  -15.5324   15.4632  -28.2958 C   0  0  0  0  0  0  0  0  0  0  0  0
  -16.4998   15.2522  -27.1378 C   0  0  0  0  0  0  0  0  0  0  0  0
  -19.2025   13.0629  -18.2420 C   0  0  0  0  0  0  0  0  0  0  0  0
  -20.2498   12.5075  -18.0738 O   0  0  0  0  0  0  0  0  0  0  0  0
  -18.5054   13.8644  -17.2391 C   0  0  0  0  0  0  0  0  0  0  0  0
  -18.9175   15.2711  -17.0536 C   0  0  0  0  0  0  0  0  0  0  0  0
  -20.1929   15.6190  -16.6308 N   0  0  0  0  0  0  0  0  0  0  0  0
  -21.1468   16.5424  -17.0188 C   0  0  0  0  0  0  0  0  0  0  0  0
  -20.2702   16.8375  -15.8000 C   0  0  0  0  0  0  0  0  0  0  0  0
  -19.2128   17.8775  -16.0097 C   0  0  0  0  0  0  0  0  0  0  0  0
 16 17  1  0  0  0
 17 15  1  0  0  0
 15 14  1  0  0  0
 14 13  1  0  0  0
 13 12  1  0  0  0
 12  9  1  0  0  0
  9 10  2  0  0  0
  9 11  2  0  0  0
  9  1  1  0  0  0
  1  2  2  0  0  0
  2  3  1  0  0  0
  3  4  2  0  0  0
  4 18  1  0  0  0
 18 19  2  0  0  0
 18 20  1  0  0  0
 20 21  1  0  0  0
 21 22  1  0  0  0
 22 23  1  0  0  0
 23 24  1  0  0  0
 24 25  1  0  0  0
  4  5  1  0  0  0
  5  6  1  0  0  0
  5  7  2  0  0  0
  7  8  1  0  0  0
  7  1  1  0  0  0
 24 22  1  0  0  0
M  END
> <minimizedAffinity>
-7.01198

> <CNNscore>
0.6151608229

> <CNNaffinity>
6.8658571243

> <CNN_VS>
4.2236061096

> <CNNaffinity_variance>
0.0950737149

$$$$
[H]c1c([H])c(S(=O)(=O)C([H])([H])C([H])([H])C([H])([H])C([H])([H])C([H])([H])C([H])([H])[H])c(Cl)c(Cl)c1C(=O)C([H])([H])C([H])([H])N1C([H])([H])C1([H])C([H])([H])[H]


 25 26  0  0  0  0  0  0  0  0999 V2000
  -17.1851   13.1212  -21.5916 C   0  0  0  0  0  0  0  0  0  0  0  0
  -17.7352   14.3313  -21.2050 C   0  0  0  0  0  0  0  0  0  0  0  0
  -18.3430   14.4730  -19.9863 C   0  0  0  0  0  0  0  0  0  0  0  0
  -18.4310   13.4385  -19.1021 C   0  0  0  0  0  0  0  0  0  0  0  0
  -17.8840   12.2030  -19.4729 C   0  0  0  0  0  0  0  0  0  0  0  0
  -17.9995   10.8586  -18.3379 Cl  0  0  0  0  0  0  0  0  0  0  0  0
  -17.2793   12.0739  -20.7025 C   0  0  0  0  0  0  0  0  0  0  0  0
  -16.6098   10.5290  -21.1674 Cl  0  0  0  0  0  0  0  0  0  0  0  0
  -16.3406   12.9927  -23.1184 S   0  0  0  0  0  0  0  0  0  0  0  0
  -17.3946   12.6048  -24.1574 O   0  0  0  0  0  0  0  0  0  0  0  0
  -15.2487   12.0010  -23.0678 O   0  0  0  0  0  0  0  0  0  0  0  0
  -15.7557   14.6293  -23.4942 C   0  0  0  0  0  0  0  0  0  0  0  0
  -14.3445   14.6436  -23.9663 C   0  0  0  0  0  0  0  0  0  0  0  0
  -14.3950   14.8270  -25.4918 C   0  0  0  0  0  0  0  0  0  0  0  0
  -15.6835   15.5029  -25.8683 C   0  0  0  0  0  0  0  0  0  0  0  0
  -15.8145   15.5223  -28.2841 C   0  0  0  0  0  0  0  0  0  0  0  0
  -16.4145   14.9172  -27.0211 C   0  0  0  0  0  0  0  0  0  0  0  0
  -18.9669   13.6020  -17.7238 C   0  0  0  0  0  0  0  0  0  0  0  0
  -18.2350   13.8907  -16.8213 O   0  0  0  0  0  0  0  0  0  0  0  0
  -20.4047   13.3752  -17.6004 C   0  0  0  0  0  0  0  0  0  0  0  0
  -20.8999   12.6289  -16.4253 C   0  0  0  0  0  0  0  0  0  0  0  0
  -21.1053   11.2564  -16.4531 N   0  0  0  0  0  0  0  0  0  0  0  0
  -21.8428   10.3508  -15.7122 C   0  0  0  0  0  0  0  0  0  0  0  0
  -20.3410   10.4851  -15.4522 C   0  0  0  0  0  0  0  0  0  0  0  0
  -19.9725   11.1879  -14.1818 C   0  0  0  0  0  0  0  0  0  0  0  0
 16 17  1  0  0  0
 17 15  1  0  0  0
 15 14  1  0  0  0
 14 13  1  0  0  0
 13 12  1  0  0  0
 12  9  1  0  0  0
  9 10  2  0  0  0
  9 11  2  0  0  0
  9  1  1  0  0  0
  1  2  2  0  0  0
  2  3  1  0  0  0
  3  4  2  0  0  0
  4 18  1  0  0  0
 18 19  2  0  0  0
 18 20  1  0  0  0
 20 21  1  0  0  0
 21 22  1  0  0  0
 22 23  1  0  0  0
 23 24  1  0  0  0
 24 25  1  0  0  0
  4  5  1  0  0  0
  5  6  1  0  0  0
  5  7  2  0  0  0
  7  8  1  0  0  0
  7  1  1  0  0  0
 24 22  1  0  0  0
M  END
> <minimizedAffinity>
-7.14340

> <CNNscore>
0.5693969727

> <CNNaffinity>
6.6547484398

> <CNN_VS>
3.7891936302

> <CNNaffinity_variance>
0.1062218770

$$$$
[H]c1c([H])c(S(=O)(=O)C([H])([H])C([H])([H])C([H])([H])C([H])([H])C([H])([H])C([H])([H])[H])c(Cl)c(Cl)c1C(=O)C([H])([H])C([H])([H])N1C([H])([H])C1([H])C([H])([H])[H]


 25 26  0  0  0  0  0  0  0  0999 V2000
  -17.8275   13.9637  -20.8853 C   0  0  0  0  0  0  0  0  0  0  0  0
  -18.5036   14.1100  -19.6861 C   0  0  0  0  0  0  0  0  0  0  0  0
  -18.6592   13.0528  -18.8302 C   0  0  0  0  0  0  0  0  0  0  0  0
  -18.1567   11.8173  -19.1146 C   0  0  0  0  0  0  0  0  0  0  0  0
  -17.4712   11.6445  -20.3244 C   0  0  0  0  0  0  0  0  0  0  0  0
  -16.8241   10.0485  -20.7026 Cl  0  0  0  0  0  0  0  0  0  0  0  0
  -17.3255   12.7150  -21.1770 C   0  0  0  0  0  0  0  0  0  0  0  0
  -16.4819   12.4935  -22.6903 Cl  0  0  0  0  0  0  0  0  0  0  0  0
  -17.5707   15.3515  -21.9192 S   0  0  0  0  0  0  0  0  0  0  0  0
  -16.0586   15.5824  -21.9554 O   0  0  0  0  0  0  0  0  0  0  0  0
  -18.2833   16.5480  -21.4305 O   0  0  0  0  0  0  0  0  0  0  0  0
  -18.1036   14.8585  -23.5424 C   0  0  0  0  0  0  0  0  0  0  0  0
  -17.9906   15.9532  -24.5442 C   0  0  0  0  0  0  0  0  0  0  0  0
  -16.7445   15.6455  -25.3902 C   0  0  0  0  0  0  0  0  0  0  0  0
  -16.9033   14.2980  -26.0365 C   0  0  0  0  0  0  0  0  0  0  0  0
  -15.9314   15.5386  -27.8723 C   0  0  0  0  0  0  0  0  0  0  0  0
  -16.6305   14.2384  -27.4954 C   0  0  0  0  0  0  0  0  0  0  0  0
  -18.1974   10.6897  -18.1449 C   0  0  0  0  0  0  0  0  0  0  0  0
  -17.2636    9.9474  -18.0419 O   0  0  0  0  0  0  0  0  0  0  0  0
  -19.4385   10.5903  -17.3808 C   0  0  0  0  0  0  0  0  0  0  0  0
  -19.5299    9.5665  -16.3194 C   0  0  0  0  0  0  0  0  0  0  0  0
  -19.6760    9.9002  -14.9800 N   0  0  0  0  0  0  0  0  0  0  0  0
  -19.4027    9.2858  -13.7714 C   0  0  0  0  0  0  0  0  0  0  0  0
  -20.8377    9.2901  -14.3023 C   0  0  0  0  0  0  0  0  0  0  0  0
  -21.3274    7.9772  -14.8317 C   0  0  0  0  0  0  0  0  0  0  0  0
 16 17  1  0  0  0
 17 15  1  0  0  0
 15 14  1  0  0  0
 14 13  1  0  0  0
 13 12  1  0  0  0
 12  9  1  0  0  0
  9 10  2  0  0  0
  9 11  2  0  0  0
  9  1  1  0  0  0
  1  2  2  0  0  0
  2  3  1  0  0  0
  3  4  2  0  0  0
  4 18  1  0  0  0
 18 19  2  0  0  0
 18 20  1  0  0  0
 20 21  1  0  0  0
 21 22  1  0  0  0
 22 23  1  0  0  0
 23 24  1  0  0  0
 24 25  1  0  0  0
  4  5  1  0  0  0
  5  6  1  0  0  0
  5  7  2  0  0  0
  7  8  1  0  0  0
  7  1  1  0  0  0
 24 22  1  0  0  0
M  END
> <minimizedAffinity>
-6.45920

> <CNNscore>
0.5319299698

> <CNNaffinity>
6.7064108849

> <CNN_VS>
3.5673408508

> <CNNaffinity_variance>
0.2711111903

$$$$
[H]c1c([H])c(S(=O)(=O)C([H])([H])C([H])([H])C([H])([H])C([H])([H])C([H])([H])C([H])([H])[H])c(Cl)c(Cl)c1C(=O)C([H])([H])C([H])([H])N1C([H])([H])C1([H])C([H])([H])[H]


 25 26  0  0  0  0  0  0  0  0999 V2000
  -17.1260   13.1150  -21.8059 C   0  0  0  0  0  0  0  0  0  0  0  0
  -17.6561   14.3345  -21.4209 C   0  0  0  0  0  0  0  0  0  0  0  0
  -18.2389   14.4944  -20.1924 C   0  0  0  0  0  0  0  0  0  0  0  0
  -18.3206   13.4695  -19.2964 C   0  0  0  0  0  0  0  0  0  0  0  0
  -17.7936   12.2248  -19.6654 C   0  0  0  0  0  0  0  0  0  0  0  0
  -17.9012   10.8928  -18.5151 Cl  0  0  0  0  0  0  0  0  0  0  0  0
  -17.2139   12.0774  -20.9050 C   0  0  0  0  0  0  0  0  0  0  0  0
  -16.5695   10.5212  -21.3672 Cl  0  0  0  0  0  0  0  0  0  0  0  0
  -16.3123   12.9628  -23.3473 S   0  0  0  0  0  0  0  0  0  0  0  0
  -17.3703   12.4821  -24.3425 O   0  0  0  0  0  0  0  0  0  0  0  0
  -15.1727   12.0271  -23.2840 O   0  0  0  0  0  0  0  0  0  0  0  0
  -15.8165   14.6081  -23.8042 C   0  0  0  0  0  0  0  0  0  0  0  0
  -14.3414   14.7491  -23.9420 C   0  0  0  0  0  0  0  0  0  0  0  0
  -14.0611   14.9766  -25.4363 C   0  0  0  0  0  0  0  0  0  0  0  0
  -15.1717   15.7963  -26.0307 C   0  0  0  0  0  0  0  0  0  0  0  0
  -16.5522   14.4816  -27.5205 C   0  0  0  0  0  0  0  0  0  0  0  0
  -15.4677   15.5503  -27.4654 C   0  0  0  0  0  0  0  0  0  0  0  0
  -18.8283   13.6519  -17.9099 C   0  0  0  0  0  0  0  0  0  0  0  0
  -18.0973   14.0413  -17.0452 O   0  0  0  0  0  0  0  0  0  0  0  0
  -20.2380   13.3137  -17.7299 C   0  0  0  0  0  0  0  0  0  0  0  0
  -21.2562   14.2924  -18.1642 C   0  0  0  0  0  0  0  0  0  0  0  0
  -21.1948   15.6321  -17.8065 N   0  0  0  0  0  0  0  0  0  0  0  0
  -22.0757   16.6984  -17.8084 C   0  0  0  0  0  0  0  0  0  0  0  0
  -21.0431   16.5776  -18.9309 C   0  0  0  0  0  0  0  0  0  0  0  0
  -21.5899   16.1545  -20.2597 C   0  0  0  0  0  0  0  0  0  0  0  0
 16 17  1  0  0  0
 17 15  1  0  0  0
 15 14  1  0  0  0
 14 13  1  0  0  0
 13 12  1  0  0  0
 12  9  1  0  0  0
  9 10  2  0  0  0
  9 11  2  0  0  0
  9  1  1  0  0  0
  1  2  2  0  0  0
  2  3  1  0  0  0
  3  4  2  0  0  0
  4 18  1  0  0  0
 18 19  2  0  0  0
 18 20  1  0  0  0
 20 21  1  0  0  0
 21 22  1  0  0  0
 22 23  1  0  0  0
 23 24  1  0  0  0
 24 25  1  0  0  0
  4  5  1  0  0  0
  5  6  1  0  0  0
  5  7  2  0  0  0
  7  8  1  0  0  0
  7  1  1  0  0  0
 24 22  1  0  0  0
M  END
> <minimizedAffinity>
-6.92319

> <CNNscore>
0.5229172111

> <CNNaffinity>
6.8098106384

> <CNN_VS>
3.5609672070

> <CNNaffinity_variance>
0.1661689579

$$$$
[H]c1c([H])c(S(=O)(=O)C([H])([H])C([H])([H])C([H])([H])C([H])([H])C([H])([H])C([H])([H])[H])c(Cl)c(Cl)c1C(=O)C([H])([H])C([H])([H])N1C([H])([H])C1([H])C([H])([H])[H]


 25 26  0  0  0  0  0  0  0  0999 V2000
  -17.0709   13.2843  -21.6281 C   0  0  0  0  0  0  0  0  0  0  0  0
  -17.5123   14.5377  -21.2399 C   0  0  0  0  0  0  0  0  0  0  0  0
  -18.1382   14.7240  -20.0366 C   0  0  0  0  0  0  0  0  0  0  0  0
  -18.3514   13.6931  -19.1697 C   0  0  0  0  0  0  0  0  0  0  0  0
  -17.9160   12.4145  -19.5425 C   0  0  0  0  0  0  0  0  0  0  0  0
  -18.1937   11.0750  -18.4301 Cl  0  0  0  0  0  0  0  0  0  0  0  0
  -17.2915   12.2411  -20.7568 C   0  0  0  0  0  0  0  0  0  0  0  0
  -16.7617   10.6439  -21.2246 Cl  0  0  0  0  0  0  0  0  0  0  0  0
  -16.1993   13.0916  -23.1328 S   0  0  0  0  0  0  0  0  0  0  0  0
  -15.3310   11.8429  -22.9658 O   0  0  0  0  0  0  0  0  0  0  0  0
  -15.3785   14.2750  -23.4551 O   0  0  0  0  0  0  0  0  0  0  0  0
  -17.4297   12.7595  -24.3727 C   0  0  0  0  0  0  0  0  0  0  0  0
  -17.6333   13.9020  -25.3044 C   0  0  0  0  0  0  0  0  0  0  0  0
  -17.1620   13.4275  -26.6886 C   0  0  0  0  0  0  0  0  0  0  0  0
  -16.5093   14.5728  -27.4104 C   0  0  0  0  0  0  0  0  0  0  0  0
  -14.5665   15.6986  -26.5093 C   0  0  0  0  0  0  0  0  0  0  0  0
  -16.0889   15.7207  -26.5667 C   0  0  0  0  0  0  0  0  0  0  0  0
  -18.9083   13.8923  -17.8045 C   0  0  0  0  0  0  0  0  0  0  0  0
  -18.1768   13.9860  -16.8613 O   0  0  0  0  0  0  0  0  0  0  0  0
  -20.3669   13.9493  -17.7461 C   0  0  0  0  0  0  0  0  0  0  0  0
  -21.0031   15.2012  -17.2866 C   0  0  0  0  0  0  0  0  0  0  0  0
  -22.3809   15.3688  -17.2716 N   0  0  0  0  0  0  0  0  0  0  0  0
  -23.2476   16.4188  -17.0281 C   0  0  0  0  0  0  0  0  0  0  0  0
  -22.9988   15.3825  -15.9303 C   0  0  0  0  0  0  0  0  0  0  0  0
  -22.1486   15.8513  -14.7896 C   0  0  0  0  0  0  0  0  0  0  0  0
 16 17  1  0  0  0
 17 15  1  0  0  0
 15 14  1  0  0  0
 14 13  1  0  0  0
 13 12  1  0  0  0
 12  9  1  0  0  0
  9 10  2  0  0  0
  9 11  2  0  0  0
  9  1  1  0  0  0
  1  2  2  0  0  0
  2  3  1  0  0  0
  3  4  2  0  0  0
  4 18  1  0  0  0
 18 19  2  0  0  0
 18 20  1  0  0  0
 20 21  1  0  0  0
 21 22  1  0  0  0
 22 23  1  0  0  0
 23 24  1  0  0  0
 24 25  1  0  0  0
  4  5  1  0  0  0
  5  6  1  0  0  0
  5  7  2  0  0  0
  7  8  1  0  0  0
  7  1  1  0  0  0
 24 22  1  0  0  0
M  END
> <minimizedAffinity>
-6.49617

> <CNNscore>
0.4900638163

> <CNNaffinity>
6.7885041237

> <CNN_VS>
3.3268003464

> <CNNaffinity_variance>
0.3412310481

$$$$
[H]c1c([H])c(S(=O)(=O)C([H])([H])C([H])([H])C([H])([H])C([H])([H])C([H])([H])C([H])([H])[H])c(Cl)c(Cl)c1C(=O)C([H])([H])C([H])([H])N1C([H])([H])C1([H])C([H])([H])[H]


 25 26  0  0  0  0  0  0  0  0999 V2000
  -17.5729   13.9379  -22.0071 C   0  0  0  0  0  0  0  0  0  0  0  0
  -18.1625   14.0952  -20.7645 C   0  0  0  0  0  0  0  0  0  0  0  0
  -18.0000   13.1554  -19.7822 C   0  0  0  0  0  0  0  0  0  0  0  0
  -17.2532   12.0314  -19.9789 C   0  0  0  0  0  0  0  0  0  0  0  0
  -16.6493   11.8490  -21.2300 C   0  0  0  0  0  0  0  0  0  0  0  0
  -15.6875   10.3951  -21.4945 Cl  0  0  0  0  0  0  0  0  0  0  0  0
  -16.8241   12.8001  -22.2094 C   0  0  0  0  0  0  0  0  0  0  0  0
  -16.0809   12.5637  -23.7723 Cl  0  0  0  0  0  0  0  0  0  0  0  0
  -17.7277   15.1952  -23.2139 S   0  0  0  0  0  0  0  0  0  0  0  0
  -18.4918   14.5718  -24.3837 O   0  0  0  0  0  0  0  0  0  0  0  0
  -16.4158   15.7141  -23.6473 O   0  0  0  0  0  0  0  0  0  0  0  0
  -18.7485   16.4538  -22.4820 C   0  0  0  0  0  0  0  0  0  0  0  0
  -19.5171   17.2324  -23.4908 C   0  0  0  0  0  0  0  0  0  0  0  0
  -20.1771   18.3970  -22.7349 C   0  0  0  0  0  0  0  0  0  0  0  0
  -21.5828   18.0153  -22.3643 C   0  0  0  0  0  0  0  0  0  0  0  0
  -23.8273   17.3316  -22.9544 C   0  0  0  0  0  0  0  0  0  0  0  0
  -22.5756   18.0314  -23.4690 C   0  0  0  0  0  0  0  0  0  0  0  0
  -16.9538   11.0638  -18.8891 C   0  0  0  0  0  0  0  0  0  0  0  0
  -15.9181   11.1282  -18.2917 O   0  0  0  0  0  0  0  0  0  0  0  0
  -18.0030   10.0763  -18.6485 C   0  0  0  0  0  0  0  0  0  0  0  0
  -18.9440   10.3087  -17.5332 C   0  0  0  0  0  0  0  0  0  0  0  0
  -18.9932    9.4790  -16.4215 N   0  0  0  0  0  0  0  0  0  0  0  0
  -19.7597    8.3976  -16.0268 C   0  0  0  0  0  0  0  0  0  0  0  0
  -20.0687    9.7832  -15.4562 C   0  0  0  0  0  0  0  0  0  0  0  0
  -21.3065   10.4340  -15.9929 C   0  0  0  0  0  0  0  0  0  0  0  0
 16 17  1  0  0  0
 17 15  1  0  0  0
 15 14  1  0  0  0
 14 13  1  0  0  0
 13 12  1  0  0  0
 12  9  1  0  0  0
  9 10  2  0  0  0
  9 11  2  0  0  0
  9  1  1  0  0  0
  1  2  2  0  0  0
  2  3  1  0  0  0
  3  4  2  0  0  0
  4 18  1  0  0  0
 18 19  2  0  0  0
 18 20  1  0  0  0
 20 21  1  0  0  0
 21 22  1  0  0  0
 22 23  1  0  0  0
 23 24  1  0  0  0
 24 25  1  0  0  0
  4  5  1  0  0  0
  5  6  1  0  0  0
  5  7  2  0  0  0
  7  8  1  0  0  0
  7  1  1  0  0  0
 24 22  1  0  0  0
M  END
> <minimizedAffinity>
-6.06007

> <CNNscore>
0.4869083762

> <CNNaffinity>
6.5761451721

> <CNN_VS>
3.2019801140

> <CNNaffinity_variance>
0.1702905148

$$$$
[H]c1c([H])c(S(=O)(=O)C([H])([H])C([H])([H])C([H])([H])C([H])([H])C([H])([H])C([H])([H])[H])c(Cl)c(Cl)c1C(=O)C([H])([H])C([H])([H])N1C([H])([H])C1([H])C([H])([H])[H]


 25 26  0  0  0  0  0  0  0  0999 V2000
  -18.5057   10.6006  -17.8794 C   0  0  0  0  0  0  0  0  0  0  0  0
  -18.6664    9.2859  -17.4767 C   0  0  0  0  0  0  0  0  0  0  0  0
  -19.5863    8.9481  -16.5205 C   0  0  0  0  0  0  0  0  0  0  0  0
  -20.3831    9.8824  -15.9274 C   0  0  0  0  0  0  0  0  0  0  0  0
  -20.2360   11.2204  -16.3166 C   0  0  0  0  0  0  0  0  0  0  0  0
  -21.2580   12.4355  -15.5497 Cl  0  0  0  0  0  0  0  0  0  0  0  0
  -19.3048   11.5461  -17.2763 C   0  0  0  0  0  0  0  0  0  0  0  0
  -19.1146   13.2165  -17.7501 Cl  0  0  0  0  0  0  0  0  0  0  0  0
  -17.3828   10.9909  -19.1630 S   0  0  0  0  0  0  0  0  0  0  0  0
  -17.0441    9.6668  -19.8507 O   0  0  0  0  0  0  0  0  0  0  0  0
  -16.1674   11.6564  -18.6549 O   0  0  0  0  0  0  0  0  0  0  0  0
  -18.2845   12.0065  -20.3108 C   0  0  0  0  0  0  0  0  0  0  0  0
  -17.4442   13.0714  -20.9228 C   0  0  0  0  0  0  0  0  0  0  0  0
  -17.4007   12.7815  -22.4319 C   0  0  0  0  0  0  0  0  0  0  0  0
  -17.2726   14.0770  -23.1830 C   0  0  0  0  0  0  0  0  0  0  0  0
  -17.5385   12.8538  -25.2535 C   0  0  0  0  0  0  0  0  0  0  0  0
  -17.9304   14.1268  -24.5138 C   0  0  0  0  0  0  0  0  0  0  0  0
  -21.4776    9.5248  -14.9853 C   0  0  0  0  0  0  0  0  0  0  0  0
  -21.3071    9.6042  -13.8029 O   0  0  0  0  0  0  0  0  0  0  0  0
  -22.7124    9.0825  -15.6286 C   0  0  0  0  0  0  0  0  0  0  0  0
  -22.9607    7.6310  -15.7493 C   0  0  0  0  0  0  0  0  0  0  0  0
  -22.4742    6.7176  -14.8243 N   0  0  0  0  0  0  0  0  0  0  0  0
  -21.2421    6.1568  -14.5410 C   0  0  0  0  0  0  0  0  0  0  0  0
  -22.2671    5.3493  -15.3399 C   0  0  0  0  0  0  0  0  0  0  0  0
  -21.9696    5.2058  -16.8009 C   0  0  0  0  0  0  0  0  0  0  0  0
 16 17  1  0  0  0
 17 15  1  0  0  0
 15 14  1  0  0  0
 14 13  1  0  0  0
 13 12  1  0  0  0
 12  9  1  0  0  0
  9 10  2  0  0  0
  9 11  2  0  0  0
  9  1  1  0  0  0
  1  2  2  0  0  0
  2  3  1  0  0  0
  3  4  2  0  0  0
  4 18  1  0  0  0
 18 19  2  0  0  0
 18 20  1  0  0  0
 20 21  1  0  0  0
 21 22  1  0  0  0
 22 23  1  0  0  0
 23 24  1  0  0  0
 24 25  1  0  0  0
  4  5  1  0  0  0
  5  6  1  0  0  0
  5  7  2  0  0  0
  7  8  1  0  0  0
  7  1  1  0  0  0
 24 22  1  0  0  0
M  END
> <minimizedAffinity>
-5.80626

> <CNNscore>
0.4690070152

> <CNNaffinity>
6.0522184372

> <CNN_VS>
2.8385329247

> <CNNaffinity_variance>
0.0807649121

$$$$
[H]c1c([H])c(S(=O)(=O)C([H])([H])C([H])([H])C([H])([H])C([H])([H])C([H])([H])C([H])([H])[H])c(Cl)c(Cl)c1C(=O)C([H])([H])C([H])([H])N1C([H])([H])C1([H])C([H])([H])[H]


 25 26  0  0  0  0  0  0  0  0999 V2000
  -17.8986   13.8880  -21.7701 C   0  0  0  0  0  0  0  0  0  0  0  0
  -18.8459   14.6541  -21.1127 C   0  0  0  0  0  0  0  0  0  0  0  0
  -19.2326   14.3539  -19.8340 C   0  0  0  0  0  0  0  0  0  0  0  0
  -18.7047   13.2972  -19.1525 C   0  0  0  0  0  0  0  0  0  0  0  0
  -17.7463   12.5054  -19.7989 C   0  0  0  0  0  0  0  0  0  0  0  0
  -17.0637   11.1333  -18.9270 Cl  0  0  0  0  0  0  0  0  0  0  0  0
  -17.3697   12.8165  -21.0857 C   0  0  0  0  0  0  0  0  0  0  0  0
  -16.1845   11.8199  -21.8937 Cl  0  0  0  0  0  0  0  0  0  0  0  0
  -17.3623   14.3453  -23.3714 S   0  0  0  0  0  0  0  0  0  0  0  0
  -15.8821   14.7089  -23.2378 O   0  0  0  0  0  0  0  0  0  0  0  0
  -18.1429   15.4722  -23.9182 O   0  0  0  0  0  0  0  0  0  0  0  0
  -17.4938   12.8796  -24.3694 C   0  0  0  0  0  0  0  0  0  0  0  0
  -17.8192   13.1765  -25.7910 C   0  0  0  0  0  0  0  0  0  0  0  0
  -16.5012   13.5921  -26.4642 C   0  0  0  0  0  0  0  0  0  0  0  0
  -16.8053   14.3382  -27.7329 C   0  0  0  0  0  0  0  0  0  0  0  0
  -14.9928   15.6692  -26.8404 C   0  0  0  0  0  0  0  0  0  0  0  0
  -15.9466   15.5161  -28.0185 C   0  0  0  0  0  0  0  0  0  0  0  0
  -19.0097   13.0300  -17.7210 C   0  0  0  0  0  0  0  0  0  0  0  0
  -18.3601   13.5469  -16.8582 O   0  0  0  0  0  0  0  0  0  0  0  0
  -20.1234   12.1112  -17.4987 C   0  0  0  0  0  0  0  0  0  0  0  0
  -20.0552   11.1910  -16.3446 C   0  0  0  0  0  0  0  0  0  0  0  0
  -19.1662   10.1260  -16.2989 N   0  0  0  0  0  0  0  0  0  0  0  0
  -19.0683    8.8914  -16.9145 C   0  0  0  0  0  0  0  0  0  0  0  0
  -19.6042    8.9750  -15.4838 C   0  0  0  0  0  0  0  0  0  0  0  0
  -21.0795    8.7597  -15.3401 C   0  0  0  0  0  0  0  0  0  0  0  0
 16 17  1  0  0  0
 17 15  1  0  0  0
 15 14  1  0  0  0
 14 13  1  0  0  0
 13 12  1  0  0  0
 12  9  1  0  0  0
  9 10  2  0  0  0
  9 11  2  0  0  0
  9  1  1  0  0  0
  1  2  2  0  0  0
  2  3  1  0  0  0
  3  4  2  0  0  0
  4 18  1  0  0  0
 18 19  2  0  0  0
 18 20  1  0  0  0
 20 21  1  0  0  0
 21 22  1  0  0  0
 22 23  1  0  0  0
 23 24  1  0  0  0
 24 25  1  0  0  0
  4  5  1  0  0  0
  5  6  1  0  0  0
  5  7  2  0  0  0
  7  8  1  0  0  0
  7  1  1  0  0  0
 24 22  1  0  0  0
M  END
> <minimizedAffinity>
-6.38997

> <CNNscore>
0.3468246460

> <CNNaffinity>
6.5843439102

> <CNN_VS>
2.2836127281

> <CNNaffinity_variance>
0.1045962125

$$$$
[H]c1c([H])c(S(=O)(=O)C([H])([H])C([H])([H])C([H])([H])C([H])([H])C([H])([H])C([H])([H])[H])c(Cl)c(Cl)c1C(=O)C([H])([H])C([H])([H])N1C([H])([H])C1([H])C([H])([H])[H]


 25 26  0  0  0  0  0  0  0  0999 V2000
  -18.1722   13.9703  -19.6046 C   0  0  0  0  0  0  0  0  0  0  0  0
  -18.0408   14.8652  -20.6526 C   0  0  0  0  0  0  0  0  0  0  0  0
  -17.4552   14.4898  -21.8319 C   0  0  0  0  0  0  0  0  0  0  0  0
  -16.9812   13.2264  -22.0292 C   0  0  0  0  0  0  0  0  0  0  0  0
  -17.1004   12.3040  -20.9813 C   0  0  0  0  0  0  0  0  0  0  0  0
  -16.4840   10.6703  -21.2261 Cl  0  0  0  0  0  0  0  0  0  0  0  0
  -17.6878   12.6961  -19.7999 C   0  0  0  0  0  0  0  0  0  0  0  0
  -17.8232   11.5479  -18.4907 Cl  0  0  0  0  0  0  0  0  0  0  0  0
  -19.0003   14.4532  -18.1411 S   0  0  0  0  0  0  0  0  0  0  0  0
  -19.3704   15.9261  -18.3266 O   0  0  0  0  0  0  0  0  0  0  0  0
  -18.1652   14.2584  -16.9399 O   0  0  0  0  0  0  0  0  0  0  0  0
  -20.4996   13.4986  -18.0887 C   0  0  0  0  0  0  0  0  0  0  0  0
  -20.9278   13.1721  -16.7013 C   0  0  0  0  0  0  0  0  0  0  0  0
  -20.8076   11.6467  -16.5536 C   0  0  0  0  0  0  0  0  0  0  0  0
  -20.0951   11.3268  -15.2696 C   0  0  0  0  0  0  0  0  0  0  0  0
  -19.4834    9.2335  -16.3173 C   0  0  0  0  0  0  0  0  0  0  0  0
  -19.8636    9.8857  -14.9939 C   0  0  0  0  0  0  0  0  0  0  0  0
  -16.4626   12.7580  -23.3427 C   0  0  0  0  0  0  0  0  0  0  0  0
  -15.3826   12.2466  -23.4182 O   0  0  0  0  0  0  0  0  0  0  0  0
  -17.3649   12.9868  -24.4685 C   0  0  0  0  0  0  0  0  0  0  0  0
  -16.9039   13.8525  -25.5736 C   0  0  0  0  0  0  0  0  0  0  0  0
  -16.1619   15.0043  -25.3511 N   0  0  0  0  0  0  0  0  0  0  0  0
  -16.3447   16.3574  -25.5714 C   0  0  0  0  0  0  0  0  0  0  0  0
  -15.4768   15.5511  -26.5396 C   0  0  0  0  0  0  0  0  0  0  0  0
  -16.0965   15.2743  -27.8749 C   0  0  0  0  0  0  0  0  0  0  0  0
 16 17  1  0  0  0
 17 15  1  0  0  0
 15 14  1  0  0  0
 14 13  1  0  0  0
 13 12  1  0  0  0
 12  9  1  0  0  0
  9 10  2  0  0  0
  9 11  2  0  0  0
  9  1  1  0  0  0
  1  2  2  0  0  0
  2  3  1  0  0  0
  3  4  2  0  0  0
  4 18  1  0  0  0
 18 19  2  0  0  0
 18 20  1  0  0  0
 20 21  1  0  0  0
 21 22  1  0  0  0
 22 23  1  0  0  0
 23 24  1  0  0  0
 24 25  1  0  0  0
  4  5  1  0  0  0
  5  6  1  0  0  0
  5  7  2  0  0  0
  7  8  1  0  0  0
  7  1  1  0  0  0
 24 22  1  0  0  0
M  END
> <minimizedAffinity>
-6.81217

> <CNNscore>
0.3389084637

> <CNNaffinity>
6.7781677246

> <CNN_VS>
2.2971785069

> <CNNaffinity_variance>
0.0502739660

$$$$
[H]OC([H])([H])C([H])([H])N1C([H])([H])C([H])([H])N(c2c(Cl)c([H])c3nc(SC(C([H])([H])[H])(C([H])([H])[H])C([H])([H])[H])n([H])c3c2[H])[C@]([H])(C([H])([H])[H])C1([H])[H]


 27 29  0  0  0  0  0  0  0  0999 V2000
  -18.3634   14.3701  -20.1142 C   0  0  0  0  0  0  0  0  0  0  0  0
  -18.3932   14.9951  -21.3729 C   0  0  0  0  0  0  0  0  0  0  0  0
  -17.8850   14.4002  -22.5024 C   0  0  0  0  0  0  0  0  0  0  0  0
  -17.8179   14.8238  -23.7779 N   0  0  0  0  0  0  0  0  0  0  0  0
  -17.2194   13.8376  -24.4689 C   0  0  0  0  0  0  0  0  0  0  0  0
  -16.9194   12.8213  -23.6440 N   0  0  0  0  0  0  0  0  0  0  0  0
  -17.3158   13.1241  -22.4007 C   0  0  0  0  0  0  0  0  0  0  0  0
  -17.2786   12.4968  -21.1729 C   0  0  0  0  0  0  0  0  0  0  0  0
  -17.7975   13.1141  -20.0384 C   0  0  0  0  0  0  0  0  0  0  0  0
  -17.6757   12.2384  -18.5238 Cl  0  0  0  0  0  0  0  0  0  0  0  0
  -18.1740   15.7456  -24.1187 H   0  0  0  0  0  0  0  0  0  0  0  0
  -21.3018   14.2514  -19.1271 C   0  0  0  0  0  0  0  0  0  0  0  0
  -20.1694   14.7737  -18.3548 C   0  0  0  0  0  0  0  0  0  0  0  0
  -20.6474   16.1222  -17.8006 C   0  0  0  0  0  0  0  0  0  0  0  0
  -19.9214   16.3867  -16.5945 N   0  0  0  0  0  0  0  0  0  0  0  0
  -18.5518   16.1265  -16.8339 C   0  0  0  0  0  0  0  0  0  0  0  0
  -18.2223   16.0953  -18.3498 C   0  0  0  0  0  0  0  0  0  0  0  0
  -18.9318   15.0250  -19.0155 N   0  0  0  0  0  0  0  0  0  0  0  0
  -20.2735   17.6880  -16.1333 C   0  0  0  0  0  0  0  0  0  0  0  0
  -19.3793   18.2919  -15.1066 C   0  0  0  0  0  0  0  0  0  0  0  0
  -19.6253   17.6299  -13.8871 O   0  0  0  0  0  0  0  0  0  0  0  0
  -20.1736   16.8236  -14.0059 H   0  0  0  0  0  0  0  0  0  0  0  0
  -16.8911   13.9076  -26.2196 S   0  0  0  0  0  0  0  0  0  0  0  0
  -15.7704   15.3171  -26.5013 C   0  0  0  0  0  0  0  0  0  0  0  0
  -16.3736   16.5188  -25.8192 C   0  0  0  0  0  0  0  0  0  0  0  0
  -14.4470   15.0277  -25.8200 C   0  0  0  0  0  0  0  0  0  0  0  0
  -15.6152   15.4888  -27.9815 C   0  0  0  0  0  0  0  0  0  0  0  0
 12 13  1  0  0  0
 13 14  1  0  0  0
 14 15  1  0  0  0
 15 19  1  0  0  0
 19 20  1  0  0  0
 20 21  1  0  0  0
 15 16  1  0  0  0
 16 17  1  0  0  0
 17 18  1  0  0  0
 18  1  1  0  0  0
  1  2  2  0  0  0
  2  3  1  0  0  0
  3  4  1  0  0  0
  4  5  1  0  0  0
  5 23  1  0  0  0
 23 24  1  0  0  0
 24 25  1  0  0  0
 24 26  1  0  0  0
 24 27  1  0  0  0
  5  6  2  0  0  0
  6  7  1  0  0  0
  7  8  1  0  0  0
  8  9  2  0  0  0
  9 10  1  0  0  0
 18 13  1  0  0  0
  9  1  1  0  0  0
  7  3  2  0  0  0
 21 22  1  0  0  0
  4 11  1  0  0  0
M  END
> <minimizedAffinity>
-7.51210

> <CNNscore>
0.5423942208

> <CNNaffinity>
6.7704772949

> <CNN_VS>
3.6722676754

> <CNNaffinity_variance>
0.0849534422

$$$$
[H]OC([H])([H])C([H])([H])N1C([H])([H])C([H])([H])N(c2c(Cl)c([H])c3nc(SC(C([H])([H])[H])(C([H])([H])[H])C([H])([H])[H])n([H])c3c2[H])[C@]([H])(C([H])([H])[H])C1([H])[H]


 27 29  0  0  0  0  0  0  0  0999 V2000
  -18.8684   14.0805  -19.9312 C   0  0  0  0  0  0  0  0  0  0  0  0
  -18.9186   14.6998  -21.1921 C   0  0  0  0  0  0  0  0  0  0  0  0
  -18.2335   14.2129  -22.2790 C   0  0  0  0  0  0  0  0  0  0  0  0
  -18.1517   14.6513  -23.5486 N   0  0  0  0  0  0  0  0  0  0  0  0
  -17.3399   13.7920  -24.1898 C   0  0  0  0  0  0  0  0  0  0  0  0
  -16.9242   12.8388  -23.3402 N   0  0  0  0  0  0  0  0  0  0  0  0
  -17.4558   13.0571  -22.1301 C   0  0  0  0  0  0  0  0  0  0  0  0
  -17.3958   12.4372  -20.8995 C   0  0  0  0  0  0  0  0  0  0  0  0
  -18.0956   12.9441  -19.8084 C   0  0  0  0  0  0  0  0  0  0  0  0
  -17.9290   12.0925  -18.2843 Cl  0  0  0  0  0  0  0  0  0  0  0  0
  -18.6403   15.4978  -23.9190 H   0  0  0  0  0  0  0  0  0  0  0  0
  -17.9746   16.1493  -17.7996 C   0  0  0  0  0  0  0  0  0  0  0  0
  -19.3628   15.7655  -18.0775 C   0  0  0  0  0  0  0  0  0  0  0  0
  -19.9862   15.4854  -16.7038 C   0  0  0  0  0  0  0  0  0  0  0  0
  -21.3953   15.7236  -16.8010 N   0  0  0  0  0  0  0  0  0  0  0  0
  -21.8725   15.0943  -17.9745 C   0  0  0  0  0  0  0  0  0  0  0  0
  -20.8840   14.0208  -18.5016 C   0  0  0  0  0  0  0  0  0  0  0  0
  -19.6210   14.6160  -18.8795 N   0  0  0  0  0  0  0  0  0  0  0  0
  -22.0003   15.3564  -15.5644 C   0  0  0  0  0  0  0  0  0  0  0  0
  -22.6795   16.4460  -14.8095 C   0  0  0  0  0  0  0  0  0  0  0  0
  -21.8744   16.7561  -13.6953 O   0  0  0  0  0  0  0  0  0  0  0  0
  -20.9870   16.3385  -13.7501 H   0  0  0  0  0  0  0  0  0  0  0  0
  -16.9050   13.9323  -25.9129 S   0  0  0  0  0  0  0  0  0  0  0  0
  -15.6893   15.2829  -26.0530 C   0  0  0  0  0  0  0  0  0  0  0  0
  -15.4507   15.5272  -27.5215 C   0  0  0  0  0  0  0  0  0  0  0  0
  -16.2999   16.5463  -25.4782 C   0  0  0  0  0  0  0  0  0  0  0  0
  -14.4561   14.8665  -25.3112 C   0  0  0  0  0  0  0  0  0  0  0  0
 12 13  1  0  0  0
 13 14  1  0  0  0
 14 15  1  0  0  0
 15 19  1  0  0  0
 19 20  1  0  0  0
 20 21  1  0  0  0
 15 16  1  0  0  0
 16 17  1  0  0  0
 17 18  1  0  0  0
 18  1  1  0  0  0
  1  2  2  0  0  0
  2  3  1  0  0  0
  3  4  1  0  0  0
  4  5  1  0  0  0
  5 23  1  0  0  0
 23 24  1  0  0  0
 24 25  1  0  0  0
 24 26  1  0  0  0
 24 27  1  0  0  0
  5  6  2  0  0  0
  6  7  1  0  0  0
  7  8  1  0  0  0
  8  9  2  0  0  0
  9 10  1  0  0  0
 18 13  1  0  0  0
  9  1  1  0  0  0
  7  3  2  0  0  0
 21 22  1  0  0  0
  4 11  1  0  0  0
M  END
> <minimizedAffinity>
-6.98717

> <CNNscore>
0.5093741417

> <CNNaffinity>
6.7638435364

> <CNN_VS>
3.4453270435

> <CNNaffinity_variance>
0.1880304068

$$$$
[H]OC([H])([H])C([H])([H])N1C([H])([H])C([H])([H])N(c2c(Cl)c([H])c3nc(SC(C([H])([H])[H])(C([H])([H])[H])C([H])([H])[H])n([H])c3c2[H])[C@]([H])(C([H])([H])[H])C1([H])[H]


 27 29  0  0  0  0  0  0  0  0999 V2000
  -17.7441   12.2225  -20.1015 C   0  0  0  0  0  0  0  0  0  0  0  0
  -18.8061   12.3631  -19.1914 C   0  0  0  0  0  0  0  0  0  0  0  0
  -19.0847   11.4182  -18.2336 C   0  0  0  0  0  0  0  0  0  0  0  0
  -20.0385   11.3662  -17.2858 N   0  0  0  0  0  0  0  0  0  0  0  0
  -19.8458   10.2116  -16.6237 C   0  0  0  0  0  0  0  0  0  0  0  0
  -18.7958    9.5575  -17.1460 N   0  0  0  0  0  0  0  0  0  0  0  0
  -18.2837   10.2713  -18.1574 C   0  0  0  0  0  0  0  0  0  0  0  0
  -17.2375   10.1177  -19.0430 C   0  0  0  0  0  0  0  0  0  0  0  0
  -16.9694   11.0846  -20.0077 C   0  0  0  0  0  0  0  0  0  0  0  0
  -15.6316   10.7773  -21.0992 Cl  0  0  0  0  0  0  0  0  0  0  0  0
  -20.7652   12.1014  -17.1314 H   0  0  0  0  0  0  0  0  0  0  0  0
  -17.8778   15.2879  -19.6457 C   0  0  0  0  0  0  0  0  0  0  0  0
  -17.2570   14.6296  -20.8002 C   0  0  0  0  0  0  0  0  0  0  0  0
  -17.7996   15.3729  -22.0278 C   0  0  0  0  0  0  0  0  0  0  0  0
  -16.8341   15.2537  -23.0792 N   0  0  0  0  0  0  0  0  0  0  0  0
  -16.4213   13.9027  -23.1524 C   0  0  0  0  0  0  0  0  0  0  0  0
  -17.4188   12.9506  -22.4411 C   0  0  0  0  0  0  0  0  0  0  0  0
  -17.5012   13.2439  -21.0271 N   0  0  0  0  0  0  0  0  0  0  0  0
  -17.3775   15.8409  -24.2581 C   0  0  0  0  0  0  0  0  0  0  0  0
  -16.4495   16.6753  -25.0712 C   0  0  0  0  0  0  0  0  0  0  0  0
  -16.8401   18.0202  -24.9144 O   0  0  0  0  0  0  0  0  0  0  0  0
  -17.4937   18.1355  -24.1902 H   0  0  0  0  0  0  0  0  0  0  0  0
  -20.8565    9.6667  -15.2602 S   0  0  0  0  0  0  0  0  0  0  0  0
  -20.7907   10.9692  -13.9871 C   0  0  0  0  0  0  0  0  0  0  0  0
  -21.5380   10.4612  -12.7801 C   0  0  0  0  0  0  0  0  0  0  0  0
  -19.3460   11.1695  -13.5726 C   0  0  0  0  0  0  0  0  0  0  0  0
  -21.3848   12.2128  -14.5746 C   0  0  0  0  0  0  0  0  0  0  0  0
 12 13  1  0  0  0
 13 14  1  0  0  0
 14 15  1  0  0  0
 15 19  1  0  0  0
 19 20  1  0  0  0
 20 21  1  0  0  0
 15 16  1  0  0  0
 16 17  1  0  0  0
 17 18  1  0  0  0
 18  1  1  0  0  0
  1  2  2  0  0  0
  2  3  1  0  0  0
  3  4  1  0  0  0
  4  5  1  0  0  0
  5 23  1  0  0  0
 23 24  1  0  0  0
 24 25  1  0  0  0
 24 26  1  0  0  0
 24 27  1  0  0  0
  5  6  2  0  0  0
  6  7  1  0  0  0
  7  8  1  0  0  0
  8  9  2  0  0  0
  9 10  1  0  0  0
 18 13  1  0  0  0
  9  1  1  0  0  0
  7  3  2  0  0  0
 21 22  1  0  0  0
  4 11  1  0  0  0
M  END
> <minimizedAffinity>
-7.23437

> <CNNscore>
0.3965730071

> <CNNaffinity>
6.3794088364

> <CNN_VS>
2.5299012661

> <CNNaffinity_variance>
0.1206637174

$$$$
[H]OC([H])([H])C([H])([H])N1C([H])([H])C([H])([H])N(c2c(Cl)c([H])c3nc(SC(C([H])([H])[H])(C([H])([H])[H])C([H])([H])[H])n([H])c3c2[H])[C@]([H])(C([H])([H])[H])C1([H])[H]


 27 29  0  0  0  0  0  0  0  0999 V2000
  -17.8737   12.4511  -20.0009 C   0  0  0  0  0  0  0  0  0  0  0  0
  -18.2927   13.1936  -21.1186 C   0  0  0  0  0  0  0  0  0  0  0  0
  -17.6434   13.1330  -22.3280 C   0  0  0  0  0  0  0  0  0  0  0  0
  -17.8818   13.7535  -23.4980 N   0  0  0  0  0  0  0  0  0  0  0  0
  -16.9329   13.3250  -24.3491 C   0  0  0  0  0  0  0  0  0  0  0  0
  -16.1205   12.4569  -23.7251 N   0  0  0  0  0  0  0  0  0  0  0  0
  -16.5228   12.3022  -22.4567 C   0  0  0  0  0  0  0  0  0  0  0  0
  -16.0984   11.5669  -21.3696 C   0  0  0  0  0  0  0  0  0  0  0  0
  -16.7675   11.6405  -20.1514 C   0  0  0  0  0  0  0  0  0  0  0  0
  -16.1285   10.6835  -18.8278 Cl  0  0  0  0  0  0  0  0  0  0  0  0
  -18.6625   14.4279  -23.6662 H   0  0  0  0  0  0  0  0  0  0  0  0
  -18.3567   14.9535  -18.2325 C   0  0  0  0  0  0  0  0  0  0  0  0
  -19.1021   13.6937  -18.1390 C   0  0  0  0  0  0  0  0  0  0  0  0
  -19.1245   13.3489  -16.6441 C   0  0  0  0  0  0  0  0  0  0  0  0
  -20.2902   12.5558  -16.3909 N   0  0  0  0  0  0  0  0  0  0  0  0
  -20.3697   11.5526  -17.3849 C   0  0  0  0  0  0  0  0  0  0  0  0
  -19.0134   11.3423  -18.1085 C   0  0  0  0  0  0  0  0  0  0  0  0
  -18.6067   12.5391  -18.8118 N   0  0  0  0  0  0  0  0  0  0  0  0
  -20.2607   12.1337  -15.0304 C   0  0  0  0  0  0  0  0  0  0  0  0
  -21.5593   12.1553  -14.3014 C   0  0  0  0  0  0  0  0  0  0  0  0
  -22.4683   12.9036  -15.0757 O   0  0  0  0  0  0  0  0  0  0  0  0
  -22.1252   13.0873  -15.9775 H   0  0  0  0  0  0  0  0  0  0  0  0
  -16.8069   13.8550  -26.0465 S   0  0  0  0  0  0  0  0  0  0  0  0
  -15.7000   15.3026  -26.0778 C   0  0  0  0  0  0  0  0  0  0  0  0
  -14.4056   14.8975  -25.4193 C   0  0  0  0  0  0  0  0  0  0  0  0
  -15.3857   15.6413  -27.5220 C   0  0  0  0  0  0  0  0  0  0  0  0
  -16.3982   16.4269  -25.3756 C   0  0  0  0  0  0  0  0  0  0  0  0
 12 13  1  0  0  0
 13 14  1  0  0  0
 14 15  1  0  0  0
 15 19  1  0  0  0
 19 20  1  0  0  0
 20 21  1  0  0  0
 15 16  1  0  0  0
 16 17  1  0  0  0
 17 18  1  0  0  0
 18  1  1  0  0  0
  1  2  2  0  0  0
  2  3  1  0  0  0
  3  4  1  0  0  0
  4  5  1  0  0  0
  5 23  1  0  0  0
 23 24  1  0  0  0
 24 25  1  0  0  0
 24 26  1  0  0  0
 24 27  1  0  0  0
  5  6  2  0  0  0
  6  7  1  0  0  0
  7  8  1  0  0  0
  8  9  2  0  0  0
  9 10  1  0  0  0
 18 13  1  0  0  0
  9  1  1  0  0  0
  7  3  2  0  0  0
 21 22  1  0  0  0
  4 11  1  0  0  0
M  END
> <minimizedAffinity>
-6.92852

> <CNNscore>
0.3321833014

> <CNNaffinity>
6.5938391685

> <CNN_VS>
2.1903631687

> <CNNaffinity_variance>
0.0327404700

$$$$
[H]OC([H])([H])C([H])([H])N1C([H])([H])C([H])([H])N(c2c(Cl)c([H])c3nc(SC(C([H])([H])[H])(C([H])([H])[H])C([H])([H])[H])n([H])c3c2[H])[C@]([H])(C([H])([H])[H])C1([H])[H]


 27 29  0  0  0  0  0  0  0  0999 V2000
  -18.6387   12.3304  -19.0359 C   0  0  0  0  0  0  0  0  0  0  0  0
  -18.9859   13.4114  -19.8646 C   0  0  0  0  0  0  0  0  0  0  0  0
  -18.4092   13.6099  -21.0958 C   0  0  0  0  0  0  0  0  0  0  0  0
  -18.5997   14.5654  -22.0240 N   0  0  0  0  0  0  0  0  0  0  0  0
  -17.7691   14.2713  -23.0399 C   0  0  0  0  0  0  0  0  0  0  0  0
  -17.0756   13.1579  -22.7528 N   0  0  0  0  0  0  0  0  0  0  0  0
  -17.4397   12.7043  -21.5460 C   0  0  0  0  0  0  0  0  0  0  0  0
  -17.0875   11.6381  -20.7451 C   0  0  0  0  0  0  0  0  0  0  0  0
  -17.6812   11.4521  -19.5000 C   0  0  0  0  0  0  0  0  0  0  0  0
  -17.1414   10.0784  -18.5527 Cl  0  0  0  0  0  0  0  0  0  0  0  0
  -19.2717   15.3605  -21.9309 H   0  0  0  0  0  0  0  0  0  0  0  0
  -18.9216   14.4004  -16.7430 C   0  0  0  0  0  0  0  0  0  0  0  0
  -19.7056   13.1675  -16.8724 C   0  0  0  0  0  0  0  0  0  0  0  0
  -19.6501   12.5075  -15.4884 C   0  0  0  0  0  0  0  0  0  0  0  0
  -20.8265   11.7051  -15.3338 N   0  0  0  0  0  0  0  0  0  0  0  0
  -21.0028   10.9432  -16.5125 C   0  0  0  0  0  0  0  0  0  0  0  0
  -19.7015   10.8639  -17.3537 C   0  0  0  0  0  0  0  0  0  0  0  0
  -19.2946   12.1751  -17.8092 N   0  0  0  0  0  0  0  0  0  0  0  0
  -20.7301   10.9976  -14.1008 C   0  0  0  0  0  0  0  0  0  0  0  0
  -19.4187   11.0662  -13.3981 C   0  0  0  0  0  0  0  0  0  0  0  0
  -18.8785    9.7648  -13.3796 O   0  0  0  0  0  0  0  0  0  0  0  0
  -19.3689    9.1503  -13.9685 H   0  0  0  0  0  0  0  0  0  0  0  0
  -17.6380   15.2413  -24.5298 S   0  0  0  0  0  0  0  0  0  0  0  0
  -16.5111   14.3527  -25.6533 C   0  0  0  0  0  0  0  0  0  0  0  0
  -16.2222   15.2640  -26.8192 C   0  0  0  0  0  0  0  0  0  0  0  0
  -15.1991   14.1111  -24.9326 C   0  0  0  0  0  0  0  0  0  0  0  0
  -17.1786   13.0717  -26.0508 C   0  0  0  0  0  0  0  0  0  0  0  0
 12 13  1  0  0  0
 13 14  1  0  0  0
 14 15  1  0  0  0
 15 19  1  0  0  0
 19 20  1  0  0  0
 20 21  1  0  0  0
 15 16  1  0  0  0
 16 17  1  0  0  0
 17 18  1  0  0  0
 18  1  1  0  0  0
  1  2  2  0  0  0
  2  3  1  0  0  0
  3  4  1  0  0  0
  4  5  1  0  0  0
  5 23  1  0  0  0
 23 24  1  0  0  0
 24 25  1  0  0  0
 24 26  1  0  0  0
 24 27  1  0  0  0
  5  6  2  0  0  0
  6  7  1  0  0  0
  7  8  1  0  0  0
  8  9  2  0  0  0
  9 10  1  0  0  0
 18 13  1  0  0  0
  9  1  1  0  0  0
  7  3  2  0  0  0
 21 22  1  0  0  0
  4 11  1  0  0  0
M  END
> <minimizedAffinity>
-7.11666

> <CNNscore>
0.2702247798

> <CNNaffinity>
6.5785307884

> <CNN_VS>
1.7776820660

> <CNNaffinity_variance>
0.2412440479

$$$$
[H]OC([H])([H])C([H])([H])N1C([H])([H])C([H])([H])N(c2c(Cl)c([H])c3nc(SC(C([H])([H])[H])(C([H])([H])[H])C([H])([H])[H])n([H])c3c2[H])[C@]([H])(C([H])([H])[H])C1([H])[H]


 27 29  0  0  0  0  0  0  0  0999 V2000
  -18.9430   11.9546  -18.4175 C   0  0  0  0  0  0  0  0  0  0  0  0
  -19.8480   11.5254  -17.4312 C   0  0  0  0  0  0  0  0  0  0  0  0
  -19.7623   10.2868  -16.8426 C   0  0  0  0  0  0  0  0  0  0  0  0
  -20.5166    9.6969  -15.8971 N   0  0  0  0  0  0  0  0  0  0  0  0
  -19.9807    8.4799  -15.6963 C   0  0  0  0  0  0  0  0  0  0  0  0
  -18.9164    8.3135  -16.4979 N   0  0  0  0  0  0  0  0  0  0  0  0
  -18.7372    9.4169  -17.2363 C   0  0  0  0  0  0  0  0  0  0  0  0
  -17.8408    9.8225  -18.2028 C   0  0  0  0  0  0  0  0  0  0  0  0
  -17.9423   11.0806  -18.7894 C   0  0  0  0  0  0  0  0  0  0  0  0
  -16.7659   11.4850  -20.0257 Cl  0  0  0  0  0  0  0  0  0  0  0  0
  -21.3461   10.1361  -15.4373 H   0  0  0  0  0  0  0  0  0  0  0  0
  -18.3761   14.6635  -17.0164 C   0  0  0  0  0  0  0  0  0  0  0  0
  -18.5504   14.4773  -18.4608 C   0  0  0  0  0  0  0  0  0  0  0  0
  -19.5396   15.5683  -18.8913 C   0  0  0  0  0  0  0  0  0  0  0  0
  -19.2926   15.8700  -20.2696 N   0  0  0  0  0  0  0  0  0  0  0  0
  -19.1783   14.6509  -20.9778 C   0  0  0  0  0  0  0  0  0  0  0  0
  -19.7838   13.4606  -20.1880 C   0  0  0  0  0  0  0  0  0  0  0  0
  -19.0739   13.2438  -18.9465 N   0  0  0  0  0  0  0  0  0  0  0  0
  -20.2795   16.7980  -20.7112 C   0  0  0  0  0  0  0  0  0  0  0  0
  -21.5441   16.8446  -19.9256 C   0  0  0  0  0  0  0  0  0  0  0  0
  -22.5947   16.4783  -20.7904 O   0  0  0  0  0  0  0  0  0  0  0  0
  -22.2660   16.1070  -21.6383 H   0  0  0  0  0  0  0  0  0  0  0  0
  -20.6186    7.2929  -14.5293 S   0  0  0  0  0  0  0  0  0  0  0  0
  -20.3340    7.9709  -12.8616 C   0  0  0  0  0  0  0  0  0  0  0  0
  -20.2179    6.8053  -11.9124 C   0  0  0  0  0  0  0  0  0  0  0  0
  -19.0016    8.6947  -12.8536 C   0  0  0  0  0  0  0  0  0  0  0  0
  -21.4742    8.8882  -12.5406 C   0  0  0  0  0  0  0  0  0  0  0  0
 12 13  1  0  0  0
 13 14  1  0  0  0
 14 15  1  0  0  0
 15 19  1  0  0  0
 19 20  1  0  0  0
 20 21  1  0  0  0
 15 16  1  0  0  0
 16 17  1  0  0  0
 17 18  1  0  0  0
 18  1  1  0  0  0
  1  2  2  0  0  0
  2  3  1  0  0  0
  3  4  1  0  0  0
  4  5  1  0  0  0
  5 23  1  0  0  0
 23 24  1  0  0  0
 24 25  1  0  0  0
 24 26  1  0  0  0
 24 27  1  0  0  0
  5  6  2  0  0  0
  6  7  1  0  0  0
  7  8  1  0  0  0
  8  9  2  0  0  0
  9 10  1  0  0  0
 18 13  1  0  0  0
  9  1  1  0  0  0
  7  3  2  0  0  0
 21 22  1  0  0  0
  4 11  1  0  0  0
M  END
> <minimizedAffinity>
-6.32554

> <CNNscore>
0.2234527469

> <CNNaffinity>
5.7385740280

> <CNN_VS>
1.2823001146

> <CNNaffinity_variance>
0.1389532387

$$$$
[H]OC([H])([H])C([H])([H])N1C([H])([H])C([H])([H])N(c2c(Cl)c([H])c3nc(SC(C([H])([H])[H])(C([H])([H])[H])C([H])([H])[H])n([H])c3c2[H])[C@]([H])(C([H])([H])[H])C1([H])[H]


 27 29  0  0  0  0  0  0  0  0999 V2000
  -17.7021   13.0183  -20.8064 C   0  0  0  0  0  0  0  0  0  0  0  0
  -18.6893   13.6970  -20.0711 C   0  0  0  0  0  0  0  0  0  0  0  0
  -19.2242   13.1880  -18.9123 C   0  0  0  0  0  0  0  0  0  0  0  0
  -20.1609   13.6727  -18.0767 N   0  0  0  0  0  0  0  0  0  0  0  0
  -20.2990   12.7597  -17.0990 C   0  0  0  0  0  0  0  0  0  0  0  0
  -19.4676   11.7284  -17.3189 N   0  0  0  0  0  0  0  0  0  0  0  0
  -18.7719   11.9480  -18.4426 C   0  0  0  0  0  0  0  0  0  0  0  0
  -17.8036   11.2690  -19.1522 C   0  0  0  0  0  0  0  0  0  0  0  0
  -17.2728   11.7988  -20.3247 C   0  0  0  0  0  0  0  0  0  0  0  0
  -16.0654   10.8408  -21.1615 Cl  0  0  0  0  0  0  0  0  0  0  0  0
  -20.6570   14.5841  -18.2025 H   0  0  0  0  0  0  0  0  0  0  0  0
  -16.5439   15.8788  -21.1202 C   0  0  0  0  0  0  0  0  0  0  0  0
  -16.3777   14.7872  -22.0858 C   0  0  0  0  0  0  0  0  0  0  0  0
  -16.7168   15.4011  -23.4504 C   0  0  0  0  0  0  0  0  0  0  0  0
  -16.0097   14.6641  -24.4547 N   0  0  0  0  0  0  0  0  0  0  0  0
  -16.1835   13.2840  -24.1982 C   0  0  0  0  0  0  0  0  0  0  0  0
  -17.3882   13.0146  -23.2582 C   0  0  0  0  0  0  0  0  0  0  0  0
  -17.1807   13.6165  -21.9594 N   0  0  0  0  0  0  0  0  0  0  0  0
  -16.4062   15.1513  -25.7335 C   0  0  0  0  0  0  0  0  0  0  0  0
  -15.3190   15.6595  -26.6156 C   0  0  0  0  0  0  0  0  0  0  0  0
  -14.6014   16.6302  -25.8885 O   0  0  0  0  0  0  0  0  0  0  0  0
  -14.8411   16.6336  -24.9359 H   0  0  0  0  0  0  0  0  0  0  0  0
  -21.4292   12.9307  -15.7311 S   0  0  0  0  0  0  0  0  0  0  0  0
  -21.3825   11.3673  -14.7955 C   0  0  0  0  0  0  0  0  0  0  0  0
  -22.5007   11.4105  -13.7850 C   0  0  0  0  0  0  0  0  0  0  0  0
  -21.6773   10.2240  -15.7470 C   0  0  0  0  0  0  0  0  0  0  0  0
  -20.0243   11.2465  -14.1749 C   0  0  0  0  0  0  0  0  0  0  0  0
 12 13  1  0  0  0
 13 14  1  0  0  0
 14 15  1  0  0  0
 15 19  1  0  0  0
 19 20  1  0  0  0
 20 21  1  0  0  0
 15 16  1  0  0  0
 16 17  1  0  0  0
 17 18  1  0  0  0
 18  1  1  0  0  0
  1  2  2  0  0  0
  2  3  1  0  0  0
  3  4  1  0  0  0
  4  5  1  0  0  0
  5 23  1  0  0  0
 23 24  1  0  0  0
 24 25  1  0  0  0
 24 26  1  0  0  0
 24 27  1  0  0  0
  5  6  2  0  0  0
  6  7  1  0  0  0
  7  8  1  0  0  0
  8  9  2  0  0  0
  9 10  1  0  0  0
 18 13  1  0  0  0
  9  1  1  0  0  0
  7  3  2  0  0  0
 21 22  1  0  0  0
  4 11  1  0  0  0
M  END
> <minimizedAffinity>
-7.15304

> <CNNscore>
0.2187493145

> <CNNaffinity>
6.4152488708

> <CNN_VS>
1.4033312798

> <CNNaffinity_variance>
0.0106644304

$$$$
[H]OC([H])([H])C([H])([H])N1C([H])([H])C([H])([H])N(c2c(Cl)c([H])c3nc(SC(C([H])([H])[H])(C([H])([H])[H])C([H])([H])[H])n([H])c3c2[H])[C@]([H])(C([H])([H])[H])C1([H])[H]


 27 29  0  0  0  0  0  0  0  0999 V2000
  -19.1637   12.9348  -19.0724 C   0  0  0  0  0  0  0  0  0  0  0  0
  -18.0082   12.4651  -19.7208 C   0  0  0  0  0  0  0  0  0  0  0  0
  -17.6139   12.9313  -20.9516 C   0  0  0  0  0  0  0  0  0  0  0  0
  -16.5597   12.6163  -21.7264 N   0  0  0  0  0  0  0  0  0  0  0  0
  -16.6641   13.3796  -22.8287 C   0  0  0  0  0  0  0  0  0  0  0  0
  -17.7583   14.1534  -22.7444 N   0  0  0  0  0  0  0  0  0  0  0  0
  -18.3882   13.9106  -21.5872 C   0  0  0  0  0  0  0  0  0  0  0  0
  -19.5250   14.3823  -20.9648 C   0  0  0  0  0  0  0  0  0  0  0  0
  -19.9106   13.8987  -19.7179 C   0  0  0  0  0  0  0  0  0  0  0  0
  -21.3863   14.5486  -19.0283 Cl  0  0  0  0  0  0  0  0  0  0  0  0
  -15.8288   11.9111  -21.4796 H   0  0  0  0  0  0  0  0  0  0  0  0
  -19.0575   14.4210  -16.3517 C   0  0  0  0  0  0  0  0  0  0  0  0
  -19.7372   13.1438  -16.5931 C   0  0  0  0  0  0  0  0  0  0  0  0
  -19.2859   12.2249  -15.4502 C   0  0  0  0  0  0  0  0  0  0  0  0
  -20.3129   11.2497  -15.2354 N   0  0  0  0  0  0  0  0  0  0  0  0
  -20.7048   10.7327  -16.4924 C   0  0  0  0  0  0  0  0  0  0  0  0
  -19.6476   11.0151  -17.5924 C   0  0  0  0  0  0  0  0  0  0  0  0
  -19.4824   12.4365  -17.8039 N   0  0  0  0  0  0  0  0  0  0  0  0
  -19.8550   10.3221  -14.2557 C   0  0  0  0  0  0  0  0  0  0  0  0
  -19.4935   10.8870  -12.9258 C   0  0  0  0  0  0  0  0  0  0  0  0
  -20.6559   11.4688  -12.3816 O   0  0  0  0  0  0  0  0  0  0  0  0
  -21.4634   11.2277  -12.8861 H   0  0  0  0  0  0  0  0  0  0  0  0
  -15.5011   13.3402  -24.1792 S   0  0  0  0  0  0  0  0  0  0  0  0
  -15.3535   15.0429  -24.8124 C   0  0  0  0  0  0  0  0  0  0  0  0
  -14.0564   15.1315  -25.5758 C   0  0  0  0  0  0  0  0  0  0  0  0
  -16.4770   15.2920  -25.7999 C   0  0  0  0  0  0  0  0  0  0  0  0
  -15.4186   15.9736  -23.6401 C   0  0  0  0  0  0  0  0  0  0  0  0
 12 13  1  0  0  0
 13 14  1  0  0  0
 14 15  1  0  0  0
 15 19  1  0  0  0
 19 20  1  0  0  0
 20 21  1  0  0  0
 15 16  1  0  0  0
 16 17  1  0  0  0
 17 18  1  0  0  0
 18  1  1  0  0  0
  1  2  2  0  0  0
  2  3  1  0  0  0
  3  4  1  0  0  0
  4  5  1  0  0  0
  5 23  1  0  0  0
 23 24  1  0  0  0
 24 25  1  0  0  0
 24 26  1  0  0  0
 24 27  1  0  0  0
  5  6  2  0  0  0
  6  7  1  0  0  0
  7  8  1  0  0  0
  8  9  2  0  0  0
  9 10  1  0  0  0
 18 13  1  0  0  0
  9  1  1  0  0  0
  7  3  2  0  0  0
 21 22  1  0  0  0
  4 11  1  0  0  0
M  END
> <minimizedAffinity>
-5.76819

> <CNNscore>
0.2118414640

> <CNNaffinity>
6.3599357605

> <CNN_VS>
1.3472981453

> <CNNaffinity_variance>
0.4208375812

$$$$
[H]OC([H])([H])C([H])([H])N1C([H])([H])C([H])([H])N(c2c(Cl)c([H])c3nc(SC(C([H])([H])[H])(C([H])([H])[H])C([H])([H])[H])n([H])c3c2[H])[C@]([H])(C([H])([H])[H])C1([H])[H]


 27 29  0  0  0  0  0  0  0  0999 V2000
  -18.2548   12.3178  -19.7144 C   0  0  0  0  0  0  0  0  0  0  0  0
  -19.3297   12.8960  -19.0170 C   0  0  0  0  0  0  0  0  0  0  0  0
  -19.8044   12.3787  -17.8360 C   0  0  0  0  0  0  0  0  0  0  0  0
  -20.8047   12.7764  -17.0286 N   0  0  0  0  0  0  0  0  0  0  0  0
  -20.8313   11.9023  -16.0069 C   0  0  0  0  0  0  0  0  0  0  0  0
  -19.8697   10.9798  -16.1724 N   0  0  0  0  0  0  0  0  0  0  0  0
  -19.1979   11.2335  -17.3034 C   0  0  0  0  0  0  0  0  0  0  0  0
  -18.1421   10.6537  -17.9751 C   0  0  0  0  0  0  0  0  0  0  0  0
  -17.6740   11.1905  -19.1710 C   0  0  0  0  0  0  0  0  0  0  0  0
  -16.3432   10.3597  -19.9550 Cl  0  0  0  0  0  0  0  0  0  0  0  0
  -21.4148   13.6074  -17.2013 H   0  0  0  0  0  0  0  0  0  0  0  0
  -17.8197   15.3384  -20.2706 C   0  0  0  0  0  0  0  0  0  0  0  0
  -17.3097   14.2422  -21.1012 C   0  0  0  0  0  0  0  0  0  0  0  0
  -17.6774   14.6231  -22.5412 C   0  0  0  0  0  0  0  0  0  0  0  0
  -16.7299   14.0027  -23.4182 N   0  0  0  0  0  0  0  0  0  0  0  0
  -16.5769   12.6529  -23.0239 C   0  0  0  0  0  0  0  0  0  0  0  0
  -17.7500   12.1719  -22.1296 C   0  0  0  0  0  0  0  0  0  0  0  0
  -17.8052   12.9220  -20.8941 N   0  0  0  0  0  0  0  0  0  0  0  0
  -17.1287   14.2547  -24.7627 C   0  0  0  0  0  0  0  0  0  0  0  0
  -16.9877   13.1219  -25.7193 C   0  0  0  0  0  0  0  0  0  0  0  0
  -18.2479   12.5013  -25.8310 O   0  0  0  0  0  0  0  0  0  0  0  0
  -18.9626   13.0341  -25.4184 H   0  0  0  0  0  0  0  0  0  0  0  0
  -21.9874   11.9902  -14.6529 S   0  0  0  0  0  0  0  0  0  0  0  0
  -22.6431   10.3093  -14.3949 C   0  0  0  0  0  0  0  0  0  0  0  0
  -23.9952   10.4456  -13.7421 C   0  0  0  0  0  0  0  0  0  0  0  0
  -22.8581    9.6599  -15.7482 C   0  0  0  0  0  0  0  0  0  0  0  0
  -21.6529    9.5557  -13.5605 C   0  0  0  0  0  0  0  0  0  0  0  0
 12 13  1  0  0  0
 13 14  1  0  0  0
 14 15  1  0  0  0
 15 19  1  0  0  0
 19 20  1  0  0  0
 20 21  1  0  0  0
 15 16  1  0  0  0
 16 17  1  0  0  0
 17 18  1  0  0  0
 18  1  1  0  0  0
  1  2  2  0  0  0
  2  3  1  0  0  0
  3  4  1  0  0  0
  4  5  1  0  0  0
  5 23  1  0  0  0
 23 24  1  0  0  0
 24 25  1  0  0  0
 24 26  1  0  0  0
 24 27  1  0  0  0
  5  6  2  0  0  0
  6  7  1  0  0  0
  7  8  1  0  0  0
  8  9  2  0  0  0
  9 10  1  0  0  0
 18 13  1  0  0  0
  9  1  1  0  0  0
  7  3  2  0  0  0
 21 22  1  0  0  0
  4 11  1  0  0  0
M  END
> <minimizedAffinity>
-6.71365

> <CNNscore>
0.1927805394

> <CNNaffinity>
6.0202937126

> <CNN_VS>
1.1605954170

> <CNNaffinity_variance>
0.1234638840

$$$$
[H]c1nc(N([H])S(=O)(=O)c2c([H])c(Cl)c(N(C([H])([H])[H])[C@]3([H])C([H])([H])N(C([H])([H])c4c([H])c([H])c(Cl)c([H])c4[H])C([H])([H])C3([H])[H])c([H])c2F)c([H])s1


 33 36  0  0  0  0  0  0  0  0999 V2000
  -18.6036   16.2573  -20.1790 C   0  0  0  0  0  0  0  0  0  0  0  0
  -19.4155   15.1475  -20.0829 C   0  0  0  0  0  0  0  0  0  0  0  0
  -18.9766   13.8969  -20.4541 C   0  0  0  0  0  0  0  0  0  0  0  0
  -19.7923   12.8044  -20.3537 F   0  0  0  0  0  0  0  0  0  0  0  0
  -17.6857   13.6868  -20.9476 C   0  0  0  0  0  0  0  0  0  0  0  0
  -16.8822   14.8005  -21.0394 C   0  0  0  0  0  0  0  0  0  0  0  0
  -17.3298   16.0498  -20.6657 C   0  0  0  0  0  0  0  0  0  0  0  0
  -16.2643   17.4576  -20.8002 Cl  0  0  0  0  0  0  0  0  0  0  0  0
  -17.1679   12.0725  -21.3818 S   0  0  0  0  0  0  0  0  0  0  0  0
  -18.3954   11.3727  -21.9360 O   0  0  0  0  0  0  0  0  0  0  0  0
  -16.7243   11.2929  -20.1908 O   0  0  0  0  0  0  0  0  0  0  0  0
  -15.9811   12.0437  -22.6081 N   0  0  0  0  0  0  0  0  0  0  0  0
  -15.2024   11.3600  -22.5011 H   0  0  0  0  0  0  0  0  0  0  0  0
  -16.0229   12.9242  -23.7694 C   0  0  0  0  0  0  0  0  0  0  0  0
  -17.1582   13.0239  -24.5414 C   0  0  0  0  0  0  0  0  0  0  0  0
  -16.6706   14.1531  -25.7243 S   0  0  0  0  0  0  0  0  0  0  0  0
  -15.0776   14.4287  -25.1779 C   0  0  0  0  0  0  0  0  0  0  0  0
  -15.0038   13.6420  -24.1195 N   0  0  0  0  0  0  0  0  0  0  0  0
  -19.0705   17.9277  -18.4046 C   0  0  0  0  0  0  0  0  0  0  0  0
  -19.0247   17.5567  -19.8060 N   0  0  0  0  0  0  0  0  0  0  0  0
  -19.4106   18.5262  -20.7779 C   0  0  0  0  0  0  0  0  0  0  0  0
  -19.6697   17.9426  -22.1517 C   0  0  0  0  0  0  0  0  0  0  0  0
  -20.4590   19.0804  -22.7903 C   0  0  0  0  0  0  0  0  0  0  0  0
  -21.2896   19.5862  -21.7445 N   0  0  0  0  0  0  0  0  0  0  0  0
  -20.7891   19.1344  -20.4824 C   0  0  0  0  0  0  0  0  0  0  0  0
  -22.6572   19.2506  -22.0056 C   0  0  0  0  0  0  0  0  0  0  0  0
  -22.8626   19.1559  -23.4713 C   0  0  0  0  0  0  0  0  0  0  0  0
  -23.0696   17.9041  -24.0601 C   0  0  0  0  0  0  0  0  0  0  0  0
  -23.2724   17.7498  -25.4140 C   0  0  0  0  0  0  0  0  0  0  0  0
  -23.2759   18.8512  -26.2378 C   0  0  0  0  0  0  0  0  0  0  0  0
  -23.5354   18.6303  -27.9535 Cl  0  0  0  0  0  0  0  0  0  0  0  0
  -23.0766   20.0942  -25.6989 C   0  0  0  0  0  0  0  0  0  0  0  0
  -22.8738   20.2278  -24.3293 C   0  0  0  0  0  0  0  0  0  0  0  0
 19 20  1  0  0  0
 20  1  1  0  0  0
  1  2  2  0  0  0
  2  3  1  0  0  0
  3  4  1  0  0  0
  3  5  2  0  0  0
  5  9  1  0  0  0
  9 10  2  0  0  0
  9 11  2  0  0  0
  9 12  1  0  0  0
 12 14  1  0  0  0
 14 15  2  0  0  0
 15 16  1  0  0  0
 16 17  1  0  0  0
 17 18  2  0  0  0
  5  6  1  0  0  0
  6  7  2  0  0  0
  7  8  1  0  0  0
 20 21  1  0  0  0
 21 22  1  0  0  0
 22 23  1  0  0  0
 23 24  1  0  0  0
 24 26  1  0  0  0
 26 27  1  0  0  0
 27 28  2  0  0  0
 28 29  1  0  0  0
 29 30  2  0  0  0
 30 31  1  0  0  0
 30 32  1  0  0  0
 32 33  2  0  0  0
 24 25  1  0  0  0
  7  1  1  0  0  0
 25 21  1  0  0  0
 18 14  1  0  0  0
 33 27  1  0  0  0
 12 13  1  0  0  0
M  END
> <minimizedAffinity>
-7.78884

> <CNNscore>
0.5278750062

> <CNNaffinity>
7.2206983566

> <CNN_VS>
3.8116261959

> <CNNaffinity_variance>
0.1354630589

$$$$
[H]c1nc(N([H])S(=O)(=O)c2c([H])c(Cl)c(N(C([H])([H])[H])[C@]3([H])C([H])([H])N(C([H])([H])c4c([H])c([H])c(Cl)c([H])c4[H])C([H])([H])C3([H])[H])c([H])c2F)c([H])s1


 33 36  0  0  0  0  0  0  0  0999 V2000
  -17.9807   15.7389  -19.8266 C   0  0  0  0  0  0  0  0  0  0  0  0
  -18.5378   14.4908  -20.0047 C   0  0  0  0  0  0  0  0  0  0  0  0
  -18.0463   13.6067  -20.9381 C   0  0  0  0  0  0  0  0  0  0  0  0
  -18.6083   12.3716  -21.1047 F   0  0  0  0  0  0  0  0  0  0  0  0
  -16.9572   13.9278  -21.7536 C   0  0  0  0  0  0  0  0  0  0  0  0
  -16.4072   15.1758  -21.5682 C   0  0  0  0  0  0  0  0  0  0  0  0
  -16.9060   16.0555  -20.6310 C   0  0  0  0  0  0  0  0  0  0  0  0
  -16.1697   17.6526  -20.4243 Cl  0  0  0  0  0  0  0  0  0  0  0  0
  -16.3543   12.7584  -22.9075 S   0  0  0  0  0  0  0  0  0  0  0  0
  -17.4862   12.5151  -23.8891 O   0  0  0  0  0  0  0  0  0  0  0  0
  -16.0499   11.4489  -22.2629 O   0  0  0  0  0  0  0  0  0  0  0  0
  -15.0206   13.3189  -23.8130 N   0  0  0  0  0  0  0  0  0  0  0  0
  -14.0724   13.0297  -23.4929 H   0  0  0  0  0  0  0  0  0  0  0  0
  -15.1646   14.1680  -24.9894 C   0  0  0  0  0  0  0  0  0  0  0  0
  -14.1597   15.0292  -25.3679 C   0  0  0  0  0  0  0  0  0  0  0  0
  -14.8334   15.7521  -26.7593 S   0  0  0  0  0  0  0  0  0  0  0  0
  -16.3293   14.9311  -26.7789 C   0  0  0  0  0  0  0  0  0  0  0  0
  -16.2334   14.1476  -25.7199 N   0  0  0  0  0  0  0  0  0  0  0  0
  -18.2994   16.4089  -17.4589 C   0  0  0  0  0  0  0  0  0  0  0  0
  -18.4626   16.6711  -18.8760 N   0  0  0  0  0  0  0  0  0  0  0  0
  -19.1125   17.8767  -19.2729 C   0  0  0  0  0  0  0  0  0  0  0  0
  -20.3292   17.6539  -20.1477 C   0  0  0  0  0  0  0  0  0  0  0  0
  -21.0148   19.0098  -20.0171 C   0  0  0  0  0  0  0  0  0  0  0  0
  -20.8171   19.3940  -18.6559 N   0  0  0  0  0  0  0  0  0  0  0  0
  -19.7648   18.6066  -18.0901 C   0  0  0  0  0  0  0  0  0  0  0  0
  -22.0614   19.3343  -17.9493 C   0  0  0  0  0  0  0  0  0  0  0  0
  -21.8899   19.9504  -16.6112 C   0  0  0  0  0  0  0  0  0  0  0  0
  -22.1900   19.2069  -15.4650 C   0  0  0  0  0  0  0  0  0  0  0  0
  -22.0463   19.7193  -14.1943 C   0  0  0  0  0  0  0  0  0  0  0  0
  -21.5928   21.0060  -14.0199 C   0  0  0  0  0  0  0  0  0  0  0  0
  -21.4185   21.6347  -12.3969 Cl  0  0  0  0  0  0  0  0  0  0  0  0
  -21.2884   21.7660  -15.1177 C   0  0  0  0  0  0  0  0  0  0  0  0
  -21.4406   21.2292  -16.3918 C   0  0  0  0  0  0  0  0  0  0  0  0
 19 20  1  0  0  0
 20  1  1  0  0  0
  1  2  2  0  0  0
  2  3  1  0  0  0
  3  4  1  0  0  0
  3  5  2  0  0  0
  5  9  1  0  0  0
  9 10  2  0  0  0
  9 11  2  0  0  0
  9 12  1  0  0  0
 12 14  1  0  0  0
 14 15  2  0  0  0
 15 16  1  0  0  0
 16 17  1  0  0  0
 17 18  2  0  0  0
  5  6  1  0  0  0
  6  7  2  0  0  0
  7  8  1  0  0  0
 20 21  1  0  0  0
 21 22  1  0  0  0
 22 23  1  0  0  0
 23 24  1  0  0  0
 24 26  1  0  0  0
 26 27  1  0  0  0
 27 28  2  0  0  0
 28 29  1  0  0  0
 29 30  2  0  0  0
 30 31  1  0  0  0
 30 32  1  0  0  0
 32 33  2  0  0  0
 24 25  1  0  0  0
  7  1  1  0  0  0
 25 21  1  0  0  0
 18 14  1  0  0  0
 33 27  1  0  0  0
 12 13  1  0  0  0
M  END
> <minimizedAffinity>
-6.82833

> <CNNscore>
0.2640368044

> <CNNaffinity>
6.5726332664

> <CNN_VS>
1.7354171276

> <CNNaffinity_variance>
0.1612889469

$$$$
[H]c1nc(N([H])S(=O)(=O)c2c([H])c(Cl)c(N(C([H])([H])[H])[C@]3([H])C([H])([H])N(C([H])([H])c4c([H])c([H])c(Cl)c([H])c4[H])C([H])([H])C3([H])[H])c([H])c2F)c([H])s1


 33 36  0  0  0  0  0  0  0  0999 V2000
  -18.7668   16.2398  -18.8377 C   0  0  0  0  0  0  0  0  0  0  0  0
  -17.5231   16.1936  -19.4301 C   0  0  0  0  0  0  0  0  0  0  0  0
  -17.3704   16.2651  -20.7961 C   0  0  0  0  0  0  0  0  0  0  0  0
  -16.1308   16.2181  -21.3709 F   0  0  0  0  0  0  0  0  0  0  0  0
  -18.4675   16.3883  -21.6536 C   0  0  0  0  0  0  0  0  0  0  0  0
  -19.7051   16.4342  -21.0531 C   0  0  0  0  0  0  0  0  0  0  0  0
  -19.8493   16.3616  -19.6839 C   0  0  0  0  0  0  0  0  0  0  0  0
  -21.4599   16.4235  -18.9508 Cl  0  0  0  0  0  0  0  0  0  0  0  0
  -18.2178   16.5009  -23.3821 S   0  0  0  0  0  0  0  0  0  0  0  0
  -17.2707   17.6679  -23.5942 O   0  0  0  0  0  0  0  0  0  0  0  0
  -19.4798   16.8292  -24.1048 O   0  0  0  0  0  0  0  0  0  0  0  0
  -17.4690   15.1223  -24.0543 N   0  0  0  0  0  0  0  0  0  0  0  0
  -17.9428   14.2057  -23.9112 H   0  0  0  0  0  0  0  0  0  0  0  0
  -16.2192   15.1872  -24.8023 C   0  0  0  0  0  0  0  0  0  0  0  0
  -15.0127   14.9405  -24.1873 C   0  0  0  0  0  0  0  0  0  0  0  0
  -13.9196   15.1454  -25.4816 S   0  0  0  0  0  0  0  0  0  0  0  0
  -15.0414   15.5268  -26.7098 C   0  0  0  0  0  0  0  0  0  0  0  0
  -16.1924   15.4769  -26.0639 N   0  0  0  0  0  0  0  0  0  0  0  0
  -19.1261   17.3860  -16.6666 C   0  0  0  0  0  0  0  0  0  0  0  0
  -18.9579   16.1684  -17.4365 N   0  0  0  0  0  0  0  0  0  0  0  0
  -18.9907   14.9200  -16.7483 C   0  0  0  0  0  0  0  0  0  0  0  0
  -20.3894   14.3793  -16.5323 C   0  0  0  0  0  0  0  0  0  0  0  0
  -20.0756   12.9211  -16.2156 C   0  0  0  0  0  0  0  0  0  0  0  0
  -18.9929   12.5796  -17.0820 N   0  0  0  0  0  0  0  0  0  0  0  0
  -18.3889   13.7777  -17.5793 C   0  0  0  0  0  0  0  0  0  0  0  0
  -19.4470   11.6701  -18.0908 C   0  0  0  0  0  0  0  0  0  0  0  0
  -18.4711   11.6566  -19.2074 C   0  0  0  0  0  0  0  0  0  0  0  0
  -18.6514   12.5206  -20.2925 C   0  0  0  0  0  0  0  0  0  0  0  0
  -17.7778   12.5607  -21.3571 C   0  0  0  0  0  0  0  0  0  0  0  0
  -16.6810   11.7310  -21.3770 C   0  0  0  0  0  0  0  0  0  0  0  0
  -15.5860   11.7999  -22.7394 Cl  0  0  0  0  0  0  0  0  0  0  0  0
  -16.4700   10.8706  -20.3328 C   0  0  0  0  0  0  0  0  0  0  0  0
  -17.3643   10.8463  -19.2677 C   0  0  0  0  0  0  0  0  0  0  0  0
 19 20  1  0  0  0
 20  1  1  0  0  0
  1  2  2  0  0  0
  2  3  1  0  0  0
  3  4  1  0  0  0
  3  5  2  0  0  0
  5  9  1  0  0  0
  9 10  2  0  0  0
  9 11  2  0  0  0
  9 12  1  0  0  0
 12 14  1  0  0  0
 14 15  2  0  0  0
 15 16  1  0  0  0
 16 17  1  0  0  0
 17 18  2  0  0  0
  5  6  1  0  0  0
  6  7  2  0  0  0
  7  8  1  0  0  0
 20 21  1  0  0  0
 21 22  1  0  0  0
 22 23  1  0  0  0
 23 24  1  0  0  0
 24 26  1  0  0  0
 26 27  1  0  0  0
 27 28  2  0  0  0
 28 29  1  0  0  0
 29 30  2  0  0  0
 30 31  1  0  0  0
 30 32  1  0  0  0
 32 33  2  0  0  0
 24 25  1  0  0  0
  7  1  1  0  0  0
 25 21  1  0  0  0
 18 14  1  0  0  0
 33 27  1  0  0  0
 12 13  1  0  0  0
M  END
> <minimizedAffinity>
-7.95352

> <CNNscore>
0.2021443397

> <CNNaffinity>
7.0990905762

> <CNN_VS>
1.4350409508

> <CNNaffinity_variance>
0.4349727631

$$$$
[H]c1nc(N([H])S(=O)(=O)c2c([H])c(Cl)c(N(C([H])([H])[H])[C@]3([H])C([H])([H])N(C([H])([H])c4c([H])c([H])c(Cl)c([H])c4[H])C([H])([H])C3([H])[H])c([H])c2F)c([H])s1


 33 36  0  0  0  0  0  0  0  0999 V2000
  -20.2257   15.6299  -19.1072 C   0  0  0  0  0  0  0  0  0  0  0  0
  -21.4290   16.1357  -18.6641 C   0  0  0  0  0  0  0  0  0  0  0  0
  -22.1763   16.9997  -19.4320 C   0  0  0  0  0  0  0  0  0  0  0  0
  -23.3682   17.4940  -18.9805 F   0  0  0  0  0  0  0  0  0  0  0  0
  -21.7546   17.4090  -20.7003 C   0  0  0  0  0  0  0  0  0  0  0  0
  -20.5524   16.8985  -21.1345 C   0  0  0  0  0  0  0  0  0  0  0  0
  -19.8099   16.0337  -20.3588 C   0  0  0  0  0  0  0  0  0  0  0  0
  -18.2675   15.3999  -20.9542 Cl  0  0  0  0  0  0  0  0  0  0  0  0
  -22.7541   18.4891  -21.6475 S   0  0  0  0  0  0  0  0  0  0  0  0
  -22.9048   19.7538  -20.8219 O   0  0  0  0  0  0  0  0  0  0  0  0
  -24.1246   17.9394  -21.8535 O   0  0  0  0  0  0  0  0  0  0  0  0
  -22.0482   18.9446  -23.1332 N   0  0  0  0  0  0  0  0  0  0  0  0
  -21.1444   19.4610  -23.0924 H   0  0  0  0  0  0  0  0  0  0  0  0
  -22.6562   18.6412  -24.4231 C   0  0  0  0  0  0  0  0  0  0  0  0
  -23.0318   19.6485  -25.2829 C   0  0  0  0  0  0  0  0  0  0  0  0
  -23.6648   18.7607  -26.5956 S   0  0  0  0  0  0  0  0  0  0  0  0
  -23.4194   17.1860  -25.9855 C   0  0  0  0  0  0  0  0  0  0  0  0
  -22.8662   17.4236  -24.8099 N   0  0  0  0  0  0  0  0  0  0  0  0
  -18.3863   15.2601  -17.4835 C   0  0  0  0  0  0  0  0  0  0  0  0
  -19.4334   14.7402  -18.3420 N   0  0  0  0  0  0  0  0  0  0  0  0
  -19.6347   13.3294  -18.3890 C   0  0  0  0  0  0  0  0  0  0  0  0
  -18.3867   12.5250  -18.0880 C   0  0  0  0  0  0  0  0  0  0  0  0
  -19.0032   11.1650  -17.7783 C   0  0  0  0  0  0  0  0  0  0  0  0
  -20.2028   11.4580  -17.0609 N   0  0  0  0  0  0  0  0  0  0  0  0
  -20.5511   12.8312  -17.2623 C   0  0  0  0  0  0  0  0  0  0  0  0
  -20.0563   11.0681  -15.6907 C   0  0  0  0  0  0  0  0  0  0  0  0
  -21.3996   10.8465  -15.1026 C   0  0  0  0  0  0  0  0  0  0  0  0
  -22.3135   10.0172  -15.7611 C   0  0  0  0  0  0  0  0  0  0  0  0
  -23.5738    9.7666  -15.2642 C   0  0  0  0  0  0  0  0  0  0  0  0
  -23.9714   10.3407  -14.0793 C   0  0  0  0  0  0  0  0  0  0  0  0
  -25.5763   10.0076  -13.4683 Cl  0  0  0  0  0  0  0  0  0  0  0  0
  -23.1050   11.1589  -13.4047 C   0  0  0  0  0  0  0  0  0  0  0  0
  -21.8371   11.3986  -13.9241 C   0  0  0  0  0  0  0  0  0  0  0  0
 19 20  1  0  0  0
 20  1  1  0  0  0
  1  2  2  0  0  0
  2  3  1  0  0  0
  3  4  1  0  0  0
  3  5  2  0  0  0
  5  9  1  0  0  0
  9 10  2  0  0  0
  9 11  2  0  0  0
  9 12  1  0  0  0
 12 14  1  0  0  0
 14 15  2  0  0  0
 15 16  1  0  0  0
 16 17  1  0  0  0
 17 18  2  0  0  0
  5  6  1  0  0  0
  6  7  2  0  0  0
  7  8  1  0  0  0
 20 21  1  0  0  0
 21 22  1  0  0  0
 22 23  1  0  0  0
 23 24  1  0  0  0
 24 26  1  0  0  0
 26 27  1  0  0  0
 27 28  2  0  0  0
 28 29  1  0  0  0
 29 30  2  0  0  0
 30 31  1  0  0  0
 30 32  1  0  0  0
 32 33  2  0  0  0
 24 25  1  0  0  0
  7  1  1  0  0  0
 25 21  1  0  0  0
 18 14  1  0  0  0
 33 27  1  0  0  0
 12 13  1  0  0  0
M  END
> <minimizedAffinity>
-6.27856

> <CNNscore>
0.1192463040

> <CNNaffinity>
5.8053569794

> <CNN_VS>
0.6922673583

> <CNNaffinity_variance>
0.3148433864

$$$$
[H]c1nc(N([H])S(=O)(=O)c2c([H])c(Cl)c(N(C([H])([H])[H])[C@]3([H])C([H])([H])N(C([H])([H])c4c([H])c([H])c(Cl)c([H])c4[H])C([H])([H])C3([H])[H])c([H])c2F)c([H])s1


 33 36  0  0  0  0  0  0  0  0999 V2000
  -18.3633   12.0267  -19.3293 C   0  0  0  0  0  0  0  0  0  0  0  0
  -19.4650   12.2871  -18.5428 C   0  0  0  0  0  0  0  0  0  0  0  0
  -19.8315   11.4506  -17.5130 C   0  0  0  0  0  0  0  0  0  0  0  0
  -20.9266   11.7206  -16.7405 F   0  0  0  0  0  0  0  0  0  0  0  0
  -19.1064   10.2943  -17.2110 C   0  0  0  0  0  0  0  0  0  0  0  0
  -18.0079   10.0428  -18.0012 C   0  0  0  0  0  0  0  0  0  0  0  0
  -17.6478   10.8859  -19.0310 C   0  0  0  0  0  0  0  0  0  0  0  0
  -16.2273   10.5259  -20.0249 Cl  0  0  0  0  0  0  0  0  0  0  0  0
  -19.5995    9.2773  -15.8748 S   0  0  0  0  0  0  0  0  0  0  0  0
  -18.7442    8.0265  -15.9614 O   0  0  0  0  0  0  0  0  0  0  0  0
  -21.0196    8.8418  -16.0036 O   0  0  0  0  0  0  0  0  0  0  0  0
  -19.3101    9.9745  -14.3441 N   0  0  0  0  0  0  0  0  0  0  0  0
  -18.3172   10.1429  -14.0776 H   0  0  0  0  0  0  0  0  0  0  0  0
  -20.3821   10.3315  -13.4226 C   0  0  0  0  0  0  0  0  0  0  0  0
  -20.9146   11.6008  -13.4140 C   0  0  0  0  0  0  0  0  0  0  0  0
  -22.0928   11.4702  -12.1864 S   0  0  0  0  0  0  0  0  0  0  0  0
  -21.8442    9.8361  -11.7619 C   0  0  0  0  0  0  0  0  0  0  0  0
  -20.8731    9.4776  -12.5822 N   0  0  0  0  0  0  0  0  0  0  0  0
  -17.6028   12.2874  -21.6766 C   0  0  0  0  0  0  0  0  0  0  0  0
  -17.9600   12.8664  -20.3957 N   0  0  0  0  0  0  0  0  0  0  0  0
  -17.8929   14.2831  -20.2486 C   0  0  0  0  0  0  0  0  0  0  0  0
  -16.8594   14.9405  -21.1402 C   0  0  0  0  0  0  0  0  0  0  0  0
  -17.3325   16.3892  -21.0892 C   0  0  0  0  0  0  0  0  0  0  0  0
  -18.7586   16.3126  -21.0975 N   0  0  0  0  0  0  0  0  0  0  0  0
  -19.1630   14.9844  -20.7510 C   0  0  0  0  0  0  0  0  0  0  0  0
  -19.2629   16.7886  -22.3505 C   0  0  0  0  0  0  0  0  0  0  0  0
  -18.2611   16.5202  -23.4106 C   0  0  0  0  0  0  0  0  0  0  0  0
  -18.2942   15.3036  -24.1000 C   0  0  0  0  0  0  0  0  0  0  0  0
  -17.3961   14.9965  -25.0986 C   0  0  0  0  0  0  0  0  0  0  0  0
  -16.4223   15.9024  -25.4489 C   0  0  0  0  0  0  0  0  0  0  0  0
  -15.2934   15.4900  -26.7198 Cl  0  0  0  0  0  0  0  0  0  0  0  0
  -16.3572   17.1049  -24.7970 C   0  0  0  0  0  0  0  0  0  0  0  0
  -17.2737   17.3950  -23.7917 C   0  0  0  0  0  0  0  0  0  0  0  0
 19 20  1  0  0  0
 20  1  1  0  0  0
  1  2  2  0  0  0
  2  3  1  0  0  0
  3  4  1  0  0  0
  3  5  2  0  0  0
  5  9  1  0  0  0
  9 10  2  0  0  0
  9 11  2  0  0  0
  9 12  1  0  0  0
 12 14  1  0  0  0
 14 15  2  0  0  0
 15 16  1  0  0  0
 16 17  1  0  0  0
 17 18  2  0  0  0
  5  6  1  0  0  0
  6  7  2  0  0  0
  7  8  1  0  0  0
 20 21  1  0  0  0
 21 22  1  0  0  0
 22 23  1  0  0  0
 23 24  1  0  0  0
 24 26  1  0  0  0
 26 27  1  0  0  0
 27 28  2  0  0  0
 28 29  1  0  0  0
 29 30  2  0  0  0
 30 31  1  0  0  0
 30 32  1  0  0  0
 32 33  2  0  0  0
 24 25  1  0  0  0
  7  1  1  0  0  0
 25 21  1  0  0  0
 18 14  1  0  0  0
 33 27  1  0  0  0
 12 13  1  0  0  0
M  END
> <minimizedAffinity>
-8.15088

> <CNNscore>
0.1128613800

> <CNNaffinity>
6.4102158546

> <CNN_VS>
0.7234658003

> <CNNaffinity_variance>
0.2125626355

$$$$
[H]c1nc(N([H])S(=O)(=O)c2c([H])c(Cl)c(N(C([H])([H])[H])[C@]3([H])C([H])([H])N(C([H])([H])c4c([H])c([H])c(Cl)c([H])c4[H])C([H])([H])C3([H])[H])c([H])c2F)c([H])s1


 33 36  0  0  0  0  0  0  0  0999 V2000
  -19.8072   18.1107  -18.4778 C   0  0  0  0  0  0  0  0  0  0  0  0
  -18.6968   18.3369  -19.2626 C   0  0  0  0  0  0  0  0  0  0  0  0
  -18.8086   18.7527  -20.5699 C   0  0  0  0  0  0  0  0  0  0  0  0
  -17.6990   18.9734  -21.3374 F   0  0  0  0  0  0  0  0  0  0  0  0
  -20.0528   18.9673  -21.1698 C   0  0  0  0  0  0  0  0  0  0  0  0
  -21.1557   18.7394  -20.3784 C   0  0  0  0  0  0  0  0  0  0  0  0
  -21.0349   18.3227  -19.0697 C   0  0  0  0  0  0  0  0  0  0  0  0
  -22.4793   18.0401  -18.0853 Cl  0  0  0  0  0  0  0  0  0  0  0  0
  -20.1402   19.5206  -22.8277 S   0  0  0  0  0  0  0  0  0  0  0  0
  -19.6989   18.3485  -23.6853 O   0  0  0  0  0  0  0  0  0  0  0  0
  -19.1858   20.6352  -23.0918 O   0  0  0  0  0  0  0  0  0  0  0  0
  -21.7189   19.9364  -23.3257 N   0  0  0  0  0  0  0  0  0  0  0  0
  -22.1760   20.7366  -22.8401 H   0  0  0  0  0  0  0  0  0  0  0  0
  -22.4281   19.2240  -24.3817 C   0  0  0  0  0  0  0  0  0  0  0  0
  -22.8947   19.8880  -25.4935 C   0  0  0  0  0  0  0  0  0  0  0  0
  -23.6193   18.6176  -26.3728 S   0  0  0  0  0  0  0  0  0  0  0  0
  -23.2925   17.3366  -25.2937 C   0  0  0  0  0  0  0  0  0  0  0  0
  -22.6463   17.9493  -24.3182 N   0  0  0  0  0  0  0  0  0  0  0  0
  -19.7755   18.6574  -16.0578 C   0  0  0  0  0  0  0  0  0  0  0  0
  -19.7264   17.6825  -17.1306 N   0  0  0  0  0  0  0  0  0  0  0  0
  -19.5964   16.3040  -16.7899 C   0  0  0  0  0  0  0  0  0  0  0  0
  -20.9218   15.5881  -16.6288 C   0  0  0  0  0  0  0  0  0  0  0  0
  -20.4645   14.1365  -16.7236 C   0  0  0  0  0  0  0  0  0  0  0  0
  -19.4409   14.1360  -17.7194 N   0  0  0  0  0  0  0  0  0  0  0  0
  -18.9825   15.4755  -17.9274 C   0  0  0  0  0  0  0  0  0  0  0  0
  -19.9099   13.4698  -18.8972 C   0  0  0  0  0  0  0  0  0  0  0  0
  -18.8222   12.6205  -19.4405 C   0  0  0  0  0  0  0  0  0  0  0  0
  -18.4232   12.7774  -20.7719 C   0  0  0  0  0  0  0  0  0  0  0  0
  -17.4158   12.0242  -21.3341 C   0  0  0  0  0  0  0  0  0  0  0  0
  -16.7634   11.0774  -20.5795 C   0  0  0  0  0  0  0  0  0  0  0  0
  -15.4877   10.1333  -21.3152 Cl  0  0  0  0  0  0  0  0  0  0  0  0
  -17.1254   10.8940  -19.2716 C   0  0  0  0  0  0  0  0  0  0  0  0
  -18.1451   11.6651  -18.7236 C   0  0  0  0  0  0  0  0  0  0  0  0
 19 20  1  0  0  0
 20  1  1  0  0  0
  1  2  2  0  0  0
  2  3  1  0  0  0
  3  4  1  0  0  0
  3  5  2  0  0  0
  5  9  1  0  0  0
  9 10  2  0  0  0
  9 11  2  0  0  0
  9 12  1  0  0  0
 12 14  1  0  0  0
 14 15  2  0  0  0
 15 16  1  0  0  0
 16 17  1  0  0  0
 17 18  2  0  0  0
  5  6  1  0  0  0
  6  7  2  0  0  0
  7  8  1  0  0  0
 20 21  1  0  0  0
 21 22  1  0  0  0
 22 23  1  0  0  0
 23 24  1  0  0  0
 24 26  1  0  0  0
 26 27  1  0  0  0
 27 28  2  0  0  0
 28 29  1  0  0  0
 29 30  2  0  0  0
 30 31  1  0  0  0
 30 32  1  0  0  0
 32 33  2  0  0  0
 24 25  1  0  0  0
  7  1  1  0  0  0
 25 21  1  0  0  0
 18 14  1  0  0  0
 33 27  1  0  0  0
 12 13  1  0  0  0
M  END
> <minimizedAffinity>
-7.56877

> <CNNscore>
0.0998555571

> <CNNaffinity>
6.0939321518

> <CNN_VS>
0.6085129976

> <CNNaffinity_variance>
0.6679221392

$$$$
[H]c1nc(N([H])S(=O)(=O)c2c([H])c(Cl)c(N(C([H])([H])[H])[C@]3([H])C([H])([H])N(C([H])([H])c4c([H])c([H])c(Cl)c([H])c4[H])C([H])([H])C3([H])[H])c([H])c2F)c([H])s1


 33 36  0  0  0  0  0  0  0  0999 V2000
  -19.1533   12.0016  -17.8027 C   0  0  0  0  0  0  0  0  0  0  0  0
  -18.4277   10.8314  -17.8670 C   0  0  0  0  0  0  0  0  0  0  0  0
  -18.7875    9.7174  -17.1433 C   0  0  0  0  0  0  0  0  0  0  0  0
  -18.0589    8.5629  -17.2162 F   0  0  0  0  0  0  0  0  0  0  0  0
  -19.9068    9.7141  -16.3058 C   0  0  0  0  0  0  0  0  0  0  0  0
  -20.6254   10.8866  -16.2483 C   0  0  0  0  0  0  0  0  0  0  0  0
  -20.2578   11.9982  -16.9765 C   0  0  0  0  0  0  0  0  0  0  0  0
  -21.2093   13.4880  -16.8738 Cl  0  0  0  0  0  0  0  0  0  0  0  0
  -20.3364    8.2634  -15.4264 S   0  0  0  0  0  0  0  0  0  0  0  0
  -20.3684    7.1448  -16.4518 O   0  0  0  0  0  0  0  0  0  0  0  0
  -21.7043    8.3543  -14.8403 O   0  0  0  0  0  0  0  0  0  0  0  0
  -19.1914    7.8203  -14.2407 N   0  0  0  0  0  0  0  0  0  0  0  0
  -18.5673    7.0153  -14.4588 H   0  0  0  0  0  0  0  0  0  0  0  0
  -19.0643    8.5158  -12.9656 C   0  0  0  0  0  0  0  0  0  0  0  0
  -18.5750    7.8701  -11.8529 C   0  0  0  0  0  0  0  0  0  0  0  0
  -18.6394    9.1091  -10.6811 S   0  0  0  0  0  0  0  0  0  0  0  0
  -19.2745   10.3561  -11.6578 C   0  0  0  0  0  0  0  0  0  0  0  0
  -19.4032    9.7579  -12.8283 N   0  0  0  0  0  0  0  0  0  0  0  0
  -18.2756   14.3220  -17.8421 C   0  0  0  0  0  0  0  0  0  0  0  0
  -18.8097   13.1645  -18.5337 N   0  0  0  0  0  0  0  0  0  0  0  0
  -18.9743   13.2350  -19.9484 C   0  0  0  0  0  0  0  0  0  0  0  0
  -18.5336   14.5544  -20.5485 C   0  0  0  0  0  0  0  0  0  0  0  0
  -18.4076   14.1614  -22.0164 C   0  0  0  0  0  0  0  0  0  0  0  0
  -17.8682   12.8392  -21.9999 N   0  0  0  0  0  0  0  0  0  0  0  0
  -18.0361   12.2761  -20.6952 C   0  0  0  0  0  0  0  0  0  0  0  0
  -16.5185   12.8597  -22.4783 C   0  0  0  0  0  0  0  0  0  0  0  0
  -16.5022   13.3906  -23.8630 C   0  0  0  0  0  0  0  0  0  0  0  0
  -15.6286   14.4320  -24.1930 C   0  0  0  0  0  0  0  0  0  0  0  0
  -15.5611   14.9646  -25.4618 C   0  0  0  0  0  0  0  0  0  0  0  0
  -16.3717   14.4716  -26.4576 C   0  0  0  0  0  0  0  0  0  0  0  0
  -16.2682   15.1639  -28.0606 Cl  0  0  0  0  0  0  0  0  0  0  0  0
  -17.2407   13.4520  -26.1738 C   0  0  0  0  0  0  0  0  0  0  0  0
  -17.2928   12.9286  -24.8861 C   0  0  0  0  0  0  0  0  0  0  0  0
 19 20  1  0  0  0
 20  1  1  0  0  0
  1  2  2  0  0  0
  2  3  1  0  0  0
  3  4  1  0  0  0
  3  5  2  0  0  0
  5  9  1  0  0  0
  9 10  2  0  0  0
  9 11  2  0  0  0
  9 12  1  0  0  0
 12 14  1  0  0  0
 14 15  2  0  0  0
 15 16  1  0  0  0
 16 17  1  0  0  0
 17 18  2  0  0  0
  5  6  1  0  0  0
  6  7  2  0  0  0
  7  8  1  0  0  0
 20 21  1  0  0  0
 21 22  1  0  0  0
 22 23  1  0  0  0
 23 24  1  0  0  0
 24 26  1  0  0  0
 26 27  1  0  0  0
 27 28  2  0  0  0
 28 29  1  0  0  0
 29 30  2  0  0  0
 30 31  1  0  0  0
 30 32  1  0  0  0
 32 33  2  0  0  0
 24 25  1  0  0  0
  7  1  1  0  0  0
 25 21  1  0  0  0
 18 14  1  0  0  0
 33 27  1  0  0  0
 12 13  1  0  0  0
M  END
> <minimizedAffinity>
-8.58167

> <CNNscore>
0.0888619646

> <CNNaffinity>
6.3590755463

> <CNN_VS>
0.5650799274

> <CNNaffinity_variance>
0.1233208328

$$$$
[H]c1nc(N([H])S(=O)(=O)c2c([H])c(Cl)c(N(C([H])([H])[H])[C@]3([H])C([H])([H])N(C([H])([H])c4c([H])c([H])c(Cl)c([H])c4[H])C([H])([H])C3([H])[H])c([H])c2F)c([H])s1


 33 36  0  0  0  0  0  0  0  0999 V2000
  -18.2265   12.5143  -19.9539 C   0  0  0  0  0  0  0  0  0  0  0  0
  -19.3551   13.0403  -19.3627 C   0  0  0  0  0  0  0  0  0  0  0  0
  -19.8875   12.5002  -18.2140 C   0  0  0  0  0  0  0  0  0  0  0  0
  -21.0075   13.0318  -17.6378 F   0  0  0  0  0  0  0  0  0  0  0  0
  -19.3120   11.3912  -17.5872 C   0  0  0  0  0  0  0  0  0  0  0  0
  -18.1852   10.8732  -18.1844 C   0  0  0  0  0  0  0  0  0  0  0  0
  -17.6586   11.4201  -19.3352 C   0  0  0  0  0  0  0  0  0  0  0  0
  -16.2074   10.7231  -20.0725 Cl  0  0  0  0  0  0  0  0  0  0  0  0
  -20.0130   10.7582  -16.1140 S   0  0  0  0  0  0  0  0  0  0  0  0
  -19.2938    9.4511  -15.8346 O   0  0  0  0  0  0  0  0  0  0  0  0
  -21.4578   10.4312  -16.2828 O   0  0  0  0  0  0  0  0  0  0  0  0
  -19.7680   11.7624  -14.7558 N   0  0  0  0  0  0  0  0  0  0  0  0
  -19.2708   12.6640  -14.9138 H   0  0  0  0  0  0  0  0  0  0  0  0
  -20.2211   11.4054  -13.4168 C   0  0  0  0  0  0  0  0  0  0  0  0
  -19.5068   10.5215  -12.6401 C   0  0  0  0  0  0  0  0  0  0  0  0
  -20.4545   10.4675  -11.2220 S   0  0  0  0  0  0  0  0  0  0  0  0
  -21.6840   11.5540  -11.6908 C   0  0  0  0  0  0  0  0  0  0  0  0
  -21.3038   11.9002  -12.9074 N   0  0  0  0  0  0  0  0  0  0  0  0
  -17.4231   12.1834  -22.2780 C   0  0  0  0  0  0  0  0  0  0  0  0
  -17.6544   13.0458  -21.1351 N   0  0  0  0  0  0  0  0  0  0  0  0
  -17.2934   14.4214  -21.2384 C   0  0  0  0  0  0  0  0  0  0  0  0
  -16.2656   14.7028  -22.3153 C   0  0  0  0  0  0  0  0  0  0  0  0
  -16.4356   16.2101  -22.4717 C   0  0  0  0  0  0  0  0  0  0  0  0
  -17.8394   16.4388  -22.3432 N   0  0  0  0  0  0  0  0  0  0  0  0
  -18.4521   15.2943  -21.7413 C   0  0  0  0  0  0  0  0  0  0  0  0
  -18.3871   16.8190  -23.6107 C   0  0  0  0  0  0  0  0  0  0  0  0
  -19.2678   17.9977  -23.4253 C   0  0  0  0  0  0  0  0  0  0  0  0
  -18.7015   19.2451  -23.1427 C   0  0  0  0  0  0  0  0  0  0  0  0
  -19.4642   20.3788  -22.9658 C   0  0  0  0  0  0  0  0  0  0  0  0
  -20.8341   20.3074  -23.0656 C   0  0  0  0  0  0  0  0  0  0  0  0
  -21.7812   21.7601  -22.8369 Cl  0  0  0  0  0  0  0  0  0  0  0  0
  -21.4261   19.1037  -23.3411 C   0  0  0  0  0  0  0  0  0  0  0  0
  -20.6375   17.9713  -23.5163 C   0  0  0  0  0  0  0  0  0  0  0  0
 19 20  1  0  0  0
 20  1  1  0  0  0
  1  2  2  0  0  0
  2  3  1  0  0  0
  3  4  1  0  0  0
  3  5  2  0  0  0
  5  9  1  0  0  0
  9 10  2  0  0  0
  9 11  2  0  0  0
  9 12  1  0  0  0
 12 14  1  0  0  0
 14 15  2  0  0  0
 15 16  1  0  0  0
 16 17  1  0  0  0
 17 18  2  0  0  0
  5  6  1  0  0  0
  6  7  2  0  0  0
  7  8  1  0  0  0
 20 21  1  0  0  0
 21 22  1  0  0  0
 22 23  1  0  0  0
 23 24  1  0  0  0
 24 26  1  0  0  0
 26 27  1  0  0  0
 27 28  2  0  0  0
 28 29  1  0  0  0
 29 30  2  0  0  0
 30 31  1  0  0  0
 30 32  1  0  0  0
 32 33  2  0  0  0
 24 25  1  0  0  0
  7  1  1  0  0  0
 25 21  1  0  0  0
 18 14  1  0  0  0
 33 27  1  0  0  0
 12 13  1  0  0  0
M  END
> <minimizedAffinity>
-7.39654

> <CNNscore>
0.0785523951

> <CNNaffinity>
5.9188790321

> <CNN_VS>
0.4649421275

> <CNNaffinity_variance>
0.4499401152

$$$$
[H]c1nc(N([H])S(=O)(=O)c2c([H])c(Cl)c(N(C([H])([H])[H])[C@]3([H])C([H])([H])N(C([H])([H])c4c([H])c([H])c(Cl)c([H])c4[H])C([H])([H])C3([H])[H])c([H])c2F)c([H])s1


 33 36  0  0  0  0  0  0  0  0999 V2000
  -18.8594   16.6281  -21.6312 C   0  0  0  0  0  0  0  0  0  0  0  0
  -19.5309   17.2686  -20.6120 C   0  0  0  0  0  0  0  0  0  0  0  0
  -20.4095   18.2984  -20.8610 C   0  0  0  0  0  0  0  0  0  0  0  0
  -21.0691   18.9253  -19.8407 F   0  0  0  0  0  0  0  0  0  0  0  0
  -20.6667   18.7484  -22.1593 C   0  0  0  0  0  0  0  0  0  0  0  0
  -19.9921   18.1025  -23.1703 C   0  0  0  0  0  0  0  0  0  0  0  0
  -19.1134   17.0719  -22.9122 C   0  0  0  0  0  0  0  0  0  0  0  0
  -18.2647   16.2675  -24.2418 Cl  0  0  0  0  0  0  0  0  0  0  0  0
  -21.8121   20.0446  -22.4244 S   0  0  0  0  0  0  0  0  0  0  0  0
  -21.1762   20.9632  -23.4518 O   0  0  0  0  0  0  0  0  0  0  0  0
  -22.0278   20.8552  -21.1918 O   0  0  0  0  0  0  0  0  0  0  0  0
  -23.2984   19.5183  -23.0780 N   0  0  0  0  0  0  0  0  0  0  0  0
  -24.1510   19.6601  -22.4966 H   0  0  0  0  0  0  0  0  0  0  0  0
  -23.4074   18.8924  -24.3903 C   0  0  0  0  0  0  0  0  0  0  0  0
  -23.6192   19.6496  -25.5201 C   0  0  0  0  0  0  0  0  0  0  0  0
  -23.6635   18.4504  -26.7334 S   0  0  0  0  0  0  0  0  0  0  0  0
  -23.4144   17.0781  -25.7502 C   0  0  0  0  0  0  0  0  0  0  0  0
  -23.3105   17.6107  -24.5460 N   0  0  0  0  0  0  0  0  0  0  0  0
  -16.5420   15.8509  -21.2045 C   0  0  0  0  0  0  0  0  0  0  0  0
  -17.9494   15.5663  -21.4087 N   0  0  0  0  0  0  0  0  0  0  0  0
  -18.3785   14.2068  -21.3784 C   0  0  0  0  0  0  0  0  0  0  0  0
  -17.3464   13.2297  -21.9030 C   0  0  0  0  0  0  0  0  0  0  0  0
  -17.8918   11.9226  -21.3380 C   0  0  0  0  0  0  0  0  0  0  0  0
  -18.3840   12.2580  -20.0401 N   0  0  0  0  0  0  0  0  0  0  0  0
  -18.5435   13.6770  -19.9468 C   0  0  0  0  0  0  0  0  0  0  0  0
  -17.5417   11.6789  -19.0370 C   0  0  0  0  0  0  0  0  0  0  0  0
  -18.3794   10.9135  -18.0822 C   0  0  0  0  0  0  0  0  0  0  0  0
  -19.4212   11.5580  -17.4070 C   0  0  0  0  0  0  0  0  0  0  0  0
  -20.2385   10.9019  -16.5127 C   0  0  0  0  0  0  0  0  0  0  0  0
  -20.0433    9.5646  -16.2575 C   0  0  0  0  0  0  0  0  0  0  0  0
  -21.0936    8.7531  -15.1181 Cl  0  0  0  0  0  0  0  0  0  0  0  0
  -19.0334    8.8983  -16.8990 C   0  0  0  0  0  0  0  0  0  0  0  0
  -18.2198    9.5797  -17.7982 C   0  0  0  0  0  0  0  0  0  0  0  0
 19 20  1  0  0  0
 20  1  1  0  0  0
  1  2  2  0  0  0
  2  3  1  0  0  0
  3  4  1  0  0  0
  3  5  2  0  0  0
  5  9  1  0  0  0
  9 10  2  0  0  0
  9 11  2  0  0  0
  9 12  1  0  0  0
 12 14  1  0  0  0
 14 15  2  0  0  0
 15 16  1  0  0  0
 16 17  1  0  0  0
 17 18  2  0  0  0
  5  6  1  0  0  0
  6  7  2  0  0  0
  7  8  1  0  0  0
 20 21  1  0  0  0
 21 22  1  0  0  0
 22 23  1  0  0  0
 23 24  1  0  0  0
 24 26  1  0  0  0
 26 27  1  0  0  0
 27 28  2  0  0  0
 28 29  1  0  0  0
 29 30  2  0  0  0
 30 31  1  0  0  0
 30 32  1  0  0  0
 32 33  2  0  0  0
 24 25  1  0  0  0
  7  1  1  0  0  0
 25 21  1  0  0  0
 18 14  1  0  0  0
 33 27  1  0  0  0
 12 13  1  0  0  0
M  END
> <minimizedAffinity>
-8.07911

> <CNNscore>
0.0707025975

> <CNNaffinity>
5.9047288895

> <CNN_VS>
0.4174796641

> <CNNaffinity_variance>
0.6421801448

$$$$
[H]OC1([H])C([H])([H])OC([H])([H])C([H])([H])C1(c1c([H])c([H])c(C(F)(F)F)c([H])c1F)N([H])C(=O)c1c([H])nn2c([H])c(C([H])([H])[H])c([H])nc12


 33 36  0  0  0  0  0  0  0  0999 V2000
  -16.1941   14.7557  -24.1558 C   0  0  0  0  0  0  0  0  0  0  0  0
  -16.6255   14.0396  -25.3000 C   0  0  0  0  0  0  0  0  0  0  0  0
  -16.3196   14.5859  -26.6864 C   0  0  0  0  0  0  0  0  0  0  0  0
  -15.5979   15.7177  -26.7874 O   0  0  0  0  0  0  0  0  0  0  0  0
  -14.6707   15.9230  -25.8388 C   0  0  0  0  0  0  0  0  0  0  0  0
  -14.8438   15.4475  -24.4726 C   0  0  0  0  0  0  0  0  0  0  0  0
  -13.7704   14.5850  -24.1705 O   0  0  0  0  0  0  0  0  0  0  0  0
  -13.0646   15.0403  -23.6966 H   0  0  0  0  0  0  0  0  0  0  0  0
  -16.9506   15.7516  -23.4158 C   0  0  0  0  0  0  0  0  0  0  0  0
  -16.2462   16.4257  -22.4029 C   0  0  0  0  0  0  0  0  0  0  0  0
  -16.7743   17.4885  -21.7070 C   0  0  0  0  0  0  0  0  0  0  0  0
  -18.0211   17.9613  -21.9513 C   0  0  0  0  0  0  0  0  0  0  0  0
  -18.7525   17.3183  -22.9518 C   0  0  0  0  0  0  0  0  0  0  0  0
  -18.1897   16.2533  -23.6329 C   0  0  0  0  0  0  0  0  0  0  0  0
  -18.9637   15.6655  -24.5472 F   0  0  0  0  0  0  0  0  0  0  0  0
  -18.5778   19.1304  -21.2324 C   0  0  0  0  0  0  0  0  0  0  0  0
  -19.9737   19.0472  -21.1668 F   0  0  0  0  0  0  0  0  0  0  0  0
  -18.0284   19.1681  -19.9721 F   0  0  0  0  0  0  0  0  0  0  0  0
  -18.2070   20.3455  -21.8036 F   0  0  0  0  0  0  0  0  0  0  0  0
  -16.7467   12.7888  -22.7737 C   0  0  0  0  0  0  0  0  0  0  0  0
  -17.8379   12.7411  -23.4118 O   0  0  0  0  0  0  0  0  0  0  0  0
  -15.7675   13.8022  -23.0802 N   0  0  0  0  0  0  0  0  0  0  0  0
  -14.8997   13.8278  -22.5736 H   0  0  0  0  0  0  0  0  0  0  0  0
  -19.2292   10.7269  -16.9010 C   0  0  0  0  0  0  0  0  0  0  0  0
  -18.5789   11.0560  -18.2192 C   0  0  0  0  0  0  0  0  0  0  0  0
  -19.0385   12.0772  -19.0211 C   0  0  0  0  0  0  0  0  0  0  0  0
  -18.4406   12.3582  -20.1943 N   0  0  0  0  0  0  0  0  0  0  0  0
  -17.3852   11.6459  -20.5985 C   0  0  0  0  0  0  0  0  0  0  0  0
  -16.5996   11.7821  -21.7544 C   0  0  0  0  0  0  0  0  0  0  0  0
  -15.6625   10.8015  -21.6276 C   0  0  0  0  0  0  0  0  0  0  0  0
  -15.8785   10.1346  -20.4734 N   0  0  0  0  0  0  0  0  0  0  0  0
  -16.9252   10.6550  -19.8474 N   0  0  0  0  0  0  0  0  0  0  0  0
  -17.4815   10.3194  -18.6562 C   0  0  0  0  0  0  0  0  0  0  0  0
 24 25  1  0  0  0
 25 26  1  0  0  0
 26 27  2  0  0  0
 27 28  1  0  0  0
 28 29  2  0  0  0
 29 20  1  0  0  0
 20 21  2  0  0  0
 20 22  1  0  0  0
 22  1  1  0  0  0
  1  9  1  0  0  0
  9 10  2  0  0  0
 10 11  1  0  0  0
 11 12  2  0  0  0
 12 16  1  0  0  0
 16 17  1  0  0  0
 16 18  1  0  0  0
 16 19  1  0  0  0
 12 13  1  0  0  0
 13 14  2  0  0  0
 14 15  1  0  0  0
  1  2  1  0  0  0
  2  3  1  0  0  0
  3  4  1  0  0  0
  4  5  1  0  0  0
  5  6  1  0  0  0
  6  7  1  0  0  0
 29 30  1  0  0  0
 30 31  2  0  0  0
 31 32  1  0  0  0
 32 33  1  0  0  0
 33 25  2  0  0  0
 32 28  1  0  0  0
  6  1  1  0  0  0
 14  9  1  0  0  0
 22 23  1  0  0  0
  7  8  1  0  0  0
M  END
> <minimizedAffinity>
-9.54205

> <CNNscore>
0.5450676680

> <CNNaffinity>
7.0622811317

> <CNN_VS>
3.8494210243

> <CNNaffinity_variance>
0.1294510514

$$$$
[H]OC1([H])C([H])([H])OC([H])([H])C([H])([H])C1(c1c([H])c([H])c(C(F)(F)F)c([H])c1F)N([H])C(=O)c1c([H])nn2c([H])c(C([H])([H])[H])c([H])nc12


 33 36  0  0  0  0  0  0  0  0999 V2000
  -18.1882   15.4331  -22.3840 C   0  0  0  0  0  0  0  0  0  0  0  0
  -17.8929   14.8794  -23.6546 C   0  0  0  0  0  0  0  0  0  0  0  0
  -17.1034   15.6984  -24.6647 C   0  0  0  0  0  0  0  0  0  0  0  0
  -16.6610   16.9164  -24.3006 O   0  0  0  0  0  0  0  0  0  0  0  0
  -16.3342   17.0730  -23.0082 C   0  0  0  0  0  0  0  0  0  0  0  0
  -17.0138   16.3444  -21.9452 C   0  0  0  0  0  0  0  0  0  0  0  0
  -16.0488   15.5937  -21.2434 O   0  0  0  0  0  0  0  0  0  0  0  0
  -15.7468   16.0483  -20.4483 H   0  0  0  0  0  0  0  0  0  0  0  0
  -19.3831   16.1719  -22.0129 C   0  0  0  0  0  0  0  0  0  0  0  0
  -19.9521   15.8307  -20.7733 C   0  0  0  0  0  0  0  0  0  0  0  0
  -20.9989   16.5278  -20.2155 C   0  0  0  0  0  0  0  0  0  0  0  0
  -21.5591   17.5991  -20.8288 C   0  0  0  0  0  0  0  0  0  0  0  0
  -21.0205   17.9701  -22.0623 C   0  0  0  0  0  0  0  0  0  0  0  0
  -19.9666   17.2474  -22.5934 C   0  0  0  0  0  0  0  0  0  0  0  0
  -19.5318   17.6379  -23.7930 F   0  0  0  0  0  0  0  0  0  0  0  0
  -22.6592   18.3764  -20.2129 C   0  0  0  0  0  0  0  0  0  0  0  0
  -22.3551   18.6877  -18.8823 F   0  0  0  0  0  0  0  0  0  0  0  0
  -22.8515   19.5195  -20.9531 F   0  0  0  0  0  0  0  0  0  0  0  0
  -23.8864   17.7201  -20.2720 F   0  0  0  0  0  0  0  0  0  0  0  0
  -17.4382   13.1705  -21.7495 C   0  0  0  0  0  0  0  0  0  0  0  0
  -16.9373   13.0933  -22.9086 O   0  0  0  0  0  0  0  0  0  0  0  0
  -18.1190   14.3701  -21.3288 N   0  0  0  0  0  0  0  0  0  0  0  0
  -18.5070   14.4258  -20.4032 H   0  0  0  0  0  0  0  0  0  0  0  0
  -19.6345   10.1552  -16.1830 C   0  0  0  0  0  0  0  0  0  0  0  0
  -19.0550   10.6974  -17.4632 C   0  0  0  0  0  0  0  0  0  0  0  0
  -19.5165   11.8634  -18.0330 C   0  0  0  0  0  0  0  0  0  0  0  0
  -18.9822   12.3336  -19.1759 N   0  0  0  0  0  0  0  0  0  0  0  0
  -17.9893   11.6714  -19.7761 C   0  0  0  0  0  0  0  0  0  0  0  0
  -17.2736   11.9897  -20.9415 C   0  0  0  0  0  0  0  0  0  0  0  0
  -16.3775   10.9708  -21.0608 C   0  0  0  0  0  0  0  0  0  0  0  0
  -16.5503   10.1117  -20.0334 N   0  0  0  0  0  0  0  0  0  0  0  0
  -17.5294   10.5445  -19.2507 N   0  0  0  0  0  0  0  0  0  0  0  0
  -18.0236   10.0159  -18.1030 C   0  0  0  0  0  0  0  0  0  0  0  0
 24 25  1  0  0  0
 25 26  1  0  0  0
 26 27  2  0  0  0
 27 28  1  0  0  0
 28 29  2  0  0  0
 29 20  1  0  0  0
 20 21  2  0  0  0
 20 22  1  0  0  0
 22  1  1  0  0  0
  1  9  1  0  0  0
  9 10  2  0  0  0
 10 11  1  0  0  0
 11 12  2  0  0  0
 12 16  1  0  0  0
 16 17  1  0  0  0
 16 18  1  0  0  0
 16 19  1  0  0  0
 12 13  1  0  0  0
 13 14  2  0  0  0
 14 15  1  0  0  0
  1  2  1  0  0  0
  2  3  1  0  0  0
  3  4  1  0  0  0
  4  5  1  0  0  0
  5  6  1  0  0  0
  6  7  1  0  0  0
 29 30  1  0  0  0
 30 31  2  0  0  0
 31 32  1  0  0  0
 32 33  1  0  0  0
 33 25  2  0  0  0
 32 28  1  0  0  0
  6  1  1  0  0  0
 14  9  1  0  0  0
 22 23  1  0  0  0
  7  8  1  0  0  0
M  END
> <minimizedAffinity>
-8.28081

> <CNNscore>
0.3687020540

> <CNNaffinity>
6.6956396103

> <CNN_VS>
2.4686961174

> <CNNaffinity_variance>
0.3951829970

$$$$
[H]OC1([H])C([H])([H])OC([H])([H])C([H])([H])C1(c1c([H])c([H])c(C(F)(F)F)c([H])c1F)N([H])C(=O)c1c([H])nn2c([H])c(C([H])([H])[H])c([H])nc12


 33 36  0  0  0  0  0  0  0  0999 V2000
  -18.0698   16.0650  -20.7867 C   0  0  0  0  0  0  0  0  0  0  0  0
  -17.0322   15.6632  -21.6642 C   0  0  0  0  0  0  0  0  0  0  0  0
  -16.0536   16.7007  -22.1936 C   0  0  0  0  0  0  0  0  0  0  0  0
  -16.1723   17.9728  -21.7697 O   0  0  0  0  0  0  0  0  0  0  0  0
  -16.6175   18.1466  -20.5153 C   0  0  0  0  0  0  0  0  0  0  0  0
  -17.5553   17.2218  -19.8926 C   0  0  0  0  0  0  0  0  0  0  0  0
  -16.9528   16.7070  -18.7267 O   0  0  0  0  0  0  0  0  0  0  0  0
  -17.2294   17.1858  -17.9365 H   0  0  0  0  0  0  0  0  0  0  0  0
  -19.4182   16.4606  -21.1568 C   0  0  0  0  0  0  0  0  0  0  0  0
  -20.4410   16.0231  -20.2969 C   0  0  0  0  0  0  0  0  0  0  0  0
  -21.7497   16.4263  -20.4283 C   0  0  0  0  0  0  0  0  0  0  0  0
  -22.1464   17.2786  -21.4050 C   0  0  0  0  0  0  0  0  0  0  0  0
  -21.1586   17.7366  -22.2790 C   0  0  0  0  0  0  0  0  0  0  0  0
  -19.8517   17.3118  -22.1168 C   0  0  0  0  0  0  0  0  0  0  0  0
  -18.9721   17.7613  -23.0139 F   0  0  0  0  0  0  0  0  0  0  0  0
  -23.5465   17.7464  -21.5250 C   0  0  0  0  0  0  0  0  0  0  0  0
  -23.5863   19.0528  -22.0264 F   0  0  0  0  0  0  0  0  0  0  0  0
  -24.2245   16.8820  -22.3525 F   0  0  0  0  0  0  0  0  0  0  0  0
  -24.2441   17.6850  -20.3209 F   0  0  0  0  0  0  0  0  0  0  0  0
  -17.9978   13.6708  -20.1981 C   0  0  0  0  0  0  0  0  0  0  0  0
  -17.5345   13.4765  -21.3590 O   0  0  0  0  0  0  0  0  0  0  0  0
  -18.3108   15.0062  -19.7529 N   0  0  0  0  0  0  0  0  0  0  0  0
  -18.6710   15.1522  -18.8258 H   0  0  0  0  0  0  0  0  0  0  0  0
  -21.6481   11.0444  -15.2301 C   0  0  0  0  0  0  0  0  0  0  0  0
  -20.7611   11.4870  -16.3642 C   0  0  0  0  0  0  0  0  0  0  0  0
  -20.9134   12.7150  -16.9691 C   0  0  0  0  0  0  0  0  0  0  0  0
  -20.1074   13.0937  -17.9789 N   0  0  0  0  0  0  0  0  0  0  0  0
  -19.1413   12.2779  -18.4099 C   0  0  0  0  0  0  0  0  0  0  0  0
  -18.1799   12.4766  -19.4138 C   0  0  0  0  0  0  0  0  0  0  0  0
  -17.4546   11.3236  -19.4018 C   0  0  0  0  0  0  0  0  0  0  0  0
  -17.9520   10.5020  -18.4527 N   0  0  0  0  0  0  0  0  0  0  0  0
  -18.9758   11.0887  -17.8476 N   0  0  0  0  0  0  0  0  0  0  0  0
  -19.7534   10.6459  -16.8277 C   0  0  0  0  0  0  0  0  0  0  0  0
 24 25  1  0  0  0
 25 26  1  0  0  0
 26 27  2  0  0  0
 27 28  1  0  0  0
 28 29  2  0  0  0
 29 20  1  0  0  0
 20 21  2  0  0  0
 20 22  1  0  0  0
 22  1  1  0  0  0
  1  9  1  0  0  0
  9 10  2  0  0  0
 10 11  1  0  0  0
 11 12  2  0  0  0
 12 16  1  0  0  0
 16 17  1  0  0  0
 16 18  1  0  0  0
 16 19  1  0  0  0
 12 13  1  0  0  0
 13 14  2  0  0  0
 14 15  1  0  0  0
  1  2  1  0  0  0
  2  3  1  0  0  0
  3  4  1  0  0  0
  4  5  1  0  0  0
  5  6  1  0  0  0
  6  7  1  0  0  0
 29 30  1  0  0  0
 30 31  2  0  0  0
 31 32  1  0  0  0
 32 33  1  0  0  0
 33 25  2  0  0  0
 32 28  1  0  0  0
  6  1  1  0  0  0
 14  9  1  0  0  0
 22 23  1  0  0  0
  7  8  1  0  0  0
M  END
> <minimizedAffinity>
-8.11798

> <CNNscore>
0.2339781821

> <CNNaffinity>
6.3199868202

> <CNN_VS>
1.4787390232

> <CNNaffinity_variance>
0.0748450533

$$$$
[H]OC1([H])C([H])([H])OC([H])([H])C([H])([H])C1(c1c([H])c([H])c(C(F)(F)F)c([H])c1F)N([H])C(=O)c1c([H])nn2c([H])c(C([H])([H])[H])c([H])nc12


 33 36  0  0  0  0  0  0  0  0999 V2000
  -18.6295   16.1099  -20.1168 C   0  0  0  0  0  0  0  0  0  0  0  0
  -19.3139   15.9945  -21.3524 C   0  0  0  0  0  0  0  0  0  0  0  0
  -19.4127   17.2030  -22.2710 C   0  0  0  0  0  0  0  0  0  0  0  0
  -18.7986   18.3430  -21.9032 O   0  0  0  0  0  0  0  0  0  0  0  0
  -17.6641   18.2111  -21.1980 C   0  0  0  0  0  0  0  0  0  0  0  0
  -17.4462   17.0965  -20.2854 C   0  0  0  0  0  0  0  0  0  0  0  0
  -16.2910   16.4064  -20.7061 O   0  0  0  0  0  0  0  0  0  0  0  0
  -15.5075   16.6833  -20.2167 H   0  0  0  0  0  0  0  0  0  0  0  0
  -19.2098   16.4512  -18.8291 C   0  0  0  0  0  0  0  0  0  0  0  0
  -20.5805   16.7637  -18.8401 C   0  0  0  0  0  0  0  0  0  0  0  0
  -21.3078   16.9718  -17.6910 C   0  0  0  0  0  0  0  0  0  0  0  0
  -20.7475   16.8907  -16.4593 C   0  0  0  0  0  0  0  0  0  0  0  0
  -19.3871   16.5811  -16.4066 C   0  0  0  0  0  0  0  0  0  0  0  0
  -18.6864   16.3766  -17.5822 C   0  0  0  0  0  0  0  0  0  0  0  0
  -17.3827   16.1234  -17.4528 F   0  0  0  0  0  0  0  0  0  0  0  0
  -21.5358   17.0743  -15.2189 C   0  0  0  0  0  0  0  0  0  0  0  0
  -21.9771   15.8387  -14.7305 F   0  0  0  0  0  0  0  0  0  0  0  0
  -20.7463   17.7148  -14.2926 F   0  0  0  0  0  0  0  0  0  0  0  0
  -22.6241   17.9269  -15.3888 F   0  0  0  0  0  0  0  0  0  0  0  0
  -18.7022   13.6542  -19.8976 C   0  0  0  0  0  0  0  0  0  0  0  0
  -19.9205   13.7360  -20.2280 O   0  0  0  0  0  0  0  0  0  0  0  0
  -17.8882   14.8417  -19.8167 N   0  0  0  0  0  0  0  0  0  0  0  0
  -16.9189   14.7666  -19.5611 H   0  0  0  0  0  0  0  0  0  0  0  0
  -19.4734    8.5210  -15.6599 C   0  0  0  0  0  0  0  0  0  0  0  0
  -19.2031    9.5768  -16.6995 C   0  0  0  0  0  0  0  0  0  0  0  0
  -19.9094   10.7588  -16.7352 C   0  0  0  0  0  0  0  0  0  0  0  0
  -19.6496   11.6920  -17.6704 N   0  0  0  0  0  0  0  0  0  0  0  0
  -18.6957   11.4829  -18.5819 C   0  0  0  0  0  0  0  0  0  0  0  0
  -18.2424   12.3189  -19.6150 C   0  0  0  0  0  0  0  0  0  0  0  0
  -17.2513   11.5956  -20.2069 C   0  0  0  0  0  0  0  0  0  0  0  0
  -17.1260   10.4147  -19.5641 N   0  0  0  0  0  0  0  0  0  0  0  0
  -18.0039   10.3520  -18.5722 N   0  0  0  0  0  0  0  0  0  0  0  0
  -18.2158    9.3712  -17.6590 C   0  0  0  0  0  0  0  0  0  0  0  0
 24 25  1  0  0  0
 25 26  1  0  0  0
 26 27  2  0  0  0
 27 28  1  0  0  0
 28 29  2  0  0  0
 29 20  1  0  0  0
 20 21  2  0  0  0
 20 22  1  0  0  0
 22  1  1  0  0  0
  1  9  1  0  0  0
  9 10  2  0  0  0
 10 11  1  0  0  0
 11 12  2  0  0  0
 12 16  1  0  0  0
 16 17  1  0  0  0
 16 18  1  0  0  0
 16 19  1  0  0  0
 12 13  1  0  0  0
 13 14  2  0  0  0
 14 15  1  0  0  0
  1  2  1  0  0  0
  2  3  1  0  0  0
  3  4  1  0  0  0
  4  5  1  0  0  0
  5  6  1  0  0  0
  6  7  1  0  0  0
 29 30  1  0  0  0
 30 31  2  0  0  0
 31 32  1  0  0  0
 32 33  1  0  0  0
 33 25  2  0  0  0
 32 28  1  0  0  0
  6  1  1  0  0  0
 14  9  1  0  0  0
 22 23  1  0  0  0
  7  8  1  0  0  0
M  END
> <minimizedAffinity>
-7.57879

> <CNNscore>
0.2337635905

> <CNNaffinity>
6.1467394829

> <CNN_VS>
1.4368839264

> <CNNaffinity_variance>
0.1971086264

$$$$
[H]OC1([H])C([H])([H])OC([H])([H])C([H])([H])C1(c1c([H])c([H])c(C(F)(F)F)c([H])c1F)N([H])C(=O)c1c([H])nn2c([H])c(C([H])([H])[H])c([H])nc12


 33 36  0  0  0  0  0  0  0  0999 V2000
  -20.6932   17.8434  -19.1378 C   0  0  0  0  0  0  0  0  0  0  0  0
  -21.7198   18.0257  -18.1781 C   0  0  0  0  0  0  0  0  0  0  0  0
  -21.3560   18.1640  -16.7075 C   0  0  0  0  0  0  0  0  0  0  0  0
  -20.0546   18.1597  -16.3632 O   0  0  0  0  0  0  0  0  0  0  0  0
  -19.1991   18.6918  -17.2500 C   0  0  0  0  0  0  0  0  0  0  0  0
  -19.4349   18.6276  -18.6863 C   0  0  0  0  0  0  0  0  0  0  0  0
  -19.4777   19.9468  -19.1818 O   0  0  0  0  0  0  0  0  0  0  0  0
  -18.6292   20.2218  -19.5484 H   0  0  0  0  0  0  0  0  0  0  0  0
  -20.1778   16.5774  -19.6312 C   0  0  0  0  0  0  0  0  0  0  0  0
  -18.7862   16.4039  -19.5317 C   0  0  0  0  0  0  0  0  0  0  0  0
  -18.1596   15.2146  -19.8241 C   0  0  0  0  0  0  0  0  0  0  0  0
  -18.8467   14.1199  -20.2332 C   0  0  0  0  0  0  0  0  0  0  0  0
  -20.2323   14.2523  -20.3435 C   0  0  0  0  0  0  0  0  0  0  0  0
  -20.8298   15.4630  -20.0398 C   0  0  0  0  0  0  0  0  0  0  0  0
  -22.1523   15.5237  -20.2066 F   0  0  0  0  0  0  0  0  0  0  0  0
  -18.1804   12.8265  -20.5101 C   0  0  0  0  0  0  0  0  0  0  0  0
  -18.1677   12.5653  -21.8854 F   0  0  0  0  0  0  0  0  0  0  0  0
  -16.9009   12.8802  -20.0086 F   0  0  0  0  0  0  0  0  0  0  0  0
  -18.7676   11.7585  -19.8356 F   0  0  0  0  0  0  0  0  0  0  0  0
  -22.4079   19.0003  -20.4814 C   0  0  0  0  0  0  0  0  0  0  0  0
  -23.2027   18.7753  -19.5233 O   0  0  0  0  0  0  0  0  0  0  0  0
  -21.0325   18.5744  -20.4021 N   0  0  0  0  0  0  0  0  0  0  0  0
  -20.4059   18.7645  -21.1648 H   0  0  0  0  0  0  0  0  0  0  0  0
  -23.6128   18.4241  -27.0479 C   0  0  0  0  0  0  0  0  0  0  0  0
  -23.4297   18.6910  -25.5769 C   0  0  0  0  0  0  0  0  0  0  0  0
  -22.8824   17.7519  -24.7308 C   0  0  0  0  0  0  0  0  0  0  0  0
  -22.7233   18.0115  -23.4193 N   0  0  0  0  0  0  0  0  0  0  0  0
  -23.0958   19.1923  -22.9177 C   0  0  0  0  0  0  0  0  0  0  0  0
  -22.9961   19.6820  -21.6054 C   0  0  0  0  0  0  0  0  0  0  0  0
  -23.5137   20.9393  -21.6879 C   0  0  0  0  0  0  0  0  0  0  0  0
  -23.8897   21.1766  -22.9629 N   0  0  0  0  0  0  0  0  0  0  0  0
  -23.6290   20.1122  -23.7096 N   0  0  0  0  0  0  0  0  0  0  0  0
  -23.8177   19.9146  -25.0386 C   0  0  0  0  0  0  0  0  0  0  0  0
 24 25  1  0  0  0
 25 26  1  0  0  0
 26 27  2  0  0  0
 27 28  1  0  0  0
 28 29  2  0  0  0
 29 20  1  0  0  0
 20 21  2  0  0  0
 20 22  1  0  0  0
 22  1  1  0  0  0
  1  9  1  0  0  0
  9 10  2  0  0  0
 10 11  1  0  0  0
 11 12  2  0  0  0
 12 16  1  0  0  0
 16 17  1  0  0  0
 16 18  1  0  0  0
 16 19  1  0  0  0
 12 13  1  0  0  0
 13 14  2  0  0  0
 14 15  1  0  0  0
  1  2  1  0  0  0
  2  3  1  0  0  0
  3  4  1  0  0  0
  4  5  1  0  0  0
  5  6  1  0  0  0
  6  7  1  0  0  0
 29 30  1  0  0  0
 30 31  2  0  0  0
 31 32  1  0  0  0
 32 33  1  0  0  0
 33 25  2  0  0  0
 32 28  1  0  0  0
  6  1  1  0  0  0
 14  9  1  0  0  0
 22 23  1  0  0  0
  7  8  1  0  0  0
M  END
> <minimizedAffinity>
-7.20069

> <CNNscore>
0.2115388662

> <CNNaffinity>
5.5600633621

> <CNN_VS>
1.1761695147

> <CNNaffinity_variance>
0.1499643326

$$$$
[H]OC1([H])C([H])([H])OC([H])([H])C([H])([H])C1(c1c([H])c([H])c(C(F)(F)F)c([H])c1F)N([H])C(=O)c1c([H])nn2c([H])c(C([H])([H])[H])c([H])nc12


 33 36  0  0  0  0  0  0  0  0999 V2000
  -19.7526   13.4913  -18.0711 C   0  0  0  0  0  0  0  0  0  0  0  0
  -20.7710   14.0763  -18.8643 C   0  0  0  0  0  0  0  0  0  0  0  0
  -21.7488   15.0531  -18.2287 C   0  0  0  0  0  0  0  0  0  0  0  0
  -21.5859   15.3747  -16.9318 O   0  0  0  0  0  0  0  0  0  0  0  0
  -20.3239   15.3999  -16.4753 C   0  0  0  0  0  0  0  0  0  0  0  0
  -19.2929   14.5163  -17.0034 C   0  0  0  0  0  0  0  0  0  0  0  0
  -18.2495   15.3166  -17.5118 O   0  0  0  0  0  0  0  0  0  0  0  0
  -17.5332   15.4223  -16.8748 H   0  0  0  0  0  0  0  0  0  0  0  0
  -19.8229   12.2270  -17.3583 C   0  0  0  0  0  0  0  0  0  0  0  0
  -20.8903   12.0946  -16.4529 C   0  0  0  0  0  0  0  0  0  0  0  0
  -21.1777   10.9153  -15.8053 C   0  0  0  0  0  0  0  0  0  0  0  0
  -20.4440    9.7914  -15.9961 C   0  0  0  0  0  0  0  0  0  0  0  0
  -19.3750    9.8826  -16.8895 C   0  0  0  0  0  0  0  0  0  0  0  0
  -19.1154   11.0842  -17.5248 C   0  0  0  0  0  0  0  0  0  0  0  0
  -18.0544   11.1040  -18.3337 F   0  0  0  0  0  0  0  0  0  0  0  0
  -20.7746    8.5096  -15.3316 C   0  0  0  0  0  0  0  0  0  0  0  0
  -19.7448    7.5800  -15.5185 F   0  0  0  0  0  0  0  0  0  0  0  0
  -20.9793    8.7534  -13.9936 F   0  0  0  0  0  0  0  0  0  0  0  0
  -21.9808    7.9672  -15.7689 F   0  0  0  0  0  0  0  0  0  0  0  0
  -18.7103   13.2668  -20.2954 C   0  0  0  0  0  0  0  0  0  0  0  0
  -19.8805   13.3488  -20.7689 O   0  0  0  0  0  0  0  0  0  0  0  0
  -18.4933   13.3467  -18.8720 N   0  0  0  0  0  0  0  0  0  0  0  0
  -17.5593   13.2886  -18.5050 H   0  0  0  0  0  0  0  0  0  0  0  0
  -15.2252   16.4595  -25.0455 C   0  0  0  0  0  0  0  0  0  0  0  0
  -15.9104   15.6143  -24.0039 C   0  0  0  0  0  0  0  0  0  0  0  0
  -16.8352   16.1444  -23.1316 C   0  0  0  0  0  0  0  0  0  0  0  0
  -17.4398   15.3710  -22.2101 N   0  0  0  0  0  0  0  0  0  0  0  0
  -17.1495   14.0695  -22.1297 C   0  0  0  0  0  0  0  0  0  0  0  0
  -17.6736   13.0837  -21.2781 C   0  0  0  0  0  0  0  0  0  0  0  0
  -17.0239   11.9481  -21.6575 C   0  0  0  0  0  0  0  0  0  0  0  0
  -16.1768   12.2432  -22.6669 N   0  0  0  0  0  0  0  0  0  0  0  0
  -16.2600   13.5351  -22.9547 N   0  0  0  0  0  0  0  0  0  0  0  0
  -15.6145   14.2578  -23.9045 C   0  0  0  0  0  0  0  0  0  0  0  0
 24 25  1  0  0  0
 25 26  1  0  0  0
 26 27  2  0  0  0
 27 28  1  0  0  0
 28 29  2  0  0  0
 29 20  1  0  0  0
 20 21  2  0  0  0
 20 22  1  0  0  0
 22  1  1  0  0  0
  1  9  1  0  0  0
  9 10  2  0  0  0
 10 11  1  0  0  0
 11 12  2  0  0  0
 12 16  1  0  0  0
 16 17  1  0  0  0
 16 18  1  0  0  0
 16 19  1  0  0  0
 12 13  1  0  0  0
 13 14  2  0  0  0
 14 15  1  0  0  0
  1  2  1  0  0  0
  2  3  1  0  0  0
  3  4  1  0  0  0
  4  5  1  0  0  0
  5  6  1  0  0  0
  6  7  1  0  0  0
 29 30  1  0  0  0
 30 31  2  0  0  0
 31 32  1  0  0  0
 32 33  1  0  0  0
 33 25  2  0  0  0
 32 28  1  0  0  0
  6  1  1  0  0  0
 14  9  1  0  0  0
 22 23  1  0  0  0
  7  8  1  0  0  0
M  END
> <minimizedAffinity>
-8.35600

> <CNNscore>
0.1797929853

> <CNNaffinity>
6.1549959183

> <CNN_VS>
1.1066250801

> <CNNaffinity_variance>
0.3267102242

$$$$
[H]OC1([H])C([H])([H])OC([H])([H])C([H])([H])C1(c1c([H])c([H])c(C(F)(F)F)c([H])c1F)N([H])C(=O)c1c([H])nn2c([H])c(C([H])([H])[H])c([H])nc12


 33 36  0  0  0  0  0  0  0  0999 V2000
  -20.1383   15.3782  -19.1014 C   0  0  0  0  0  0  0  0  0  0  0  0
  -21.1657   15.4887  -18.1316 C   0  0  0  0  0  0  0  0  0  0  0  0
  -20.8084   15.8537  -16.6986 C   0  0  0  0  0  0  0  0  0  0  0  0
  -19.5212   16.1126  -16.4021 O   0  0  0  0  0  0  0  0  0  0  0  0
  -18.7861   16.6800  -17.3714 C   0  0  0  0  0  0  0  0  0  0  0  0
  -19.0298   16.4135  -18.7829 C   0  0  0  0  0  0  0  0  0  0  0  0
  -19.3108   17.6407  -19.4174 O   0  0  0  0  0  0  0  0  0  0  0  0
  -18.5294   18.0143  -19.8416 H   0  0  0  0  0  0  0  0  0  0  0  0
  -19.4171   14.1722  -19.4717 C   0  0  0  0  0  0  0  0  0  0  0  0
  -18.6820   14.2430  -20.6681 C   0  0  0  0  0  0  0  0  0  0  0  0
  -17.8379   13.2402  -21.0859 C   0  0  0  0  0  0  0  0  0  0  0  0
  -17.6570   12.1049  -20.3673 C   0  0  0  0  0  0  0  0  0  0  0  0
  -18.3695   11.9976  -19.1714 C   0  0  0  0  0  0  0  0  0  0  0  0
  -19.2087   13.0262  -18.7808 C   0  0  0  0  0  0  0  0  0  0  0  0
  -19.8852   12.8342  -17.6468 F   0  0  0  0  0  0  0  0  0  0  0  0
  -16.7188   11.0411  -20.7935 C   0  0  0  0  0  0  0  0  0  0  0  0
  -16.0385   11.4232  -21.9558 F   0  0  0  0  0  0  0  0  0  0  0  0
  -15.8375   10.8010  -19.7653 F   0  0  0  0  0  0  0  0  0  0  0  0
  -17.3464    9.8148  -20.9994 F   0  0  0  0  0  0  0  0  0  0  0  0
  -21.8162   16.6930  -20.3423 C   0  0  0  0  0  0  0  0  0  0  0  0
  -22.3481   16.9329  -19.2199 O   0  0  0  0  0  0  0  0  0  0  0  0
  -20.6204   15.8915  -20.4251 N   0  0  0  0  0  0  0  0  0  0  0  0
  -20.1999   15.7126  -21.3204 H   0  0  0  0  0  0  0  0  0  0  0  0
  -21.1808   21.2032  -25.2573 C   0  0  0  0  0  0  0  0  0  0  0  0
  -21.4645   20.1463  -24.2223 C   0  0  0  0  0  0  0  0  0  0  0  0
  -20.5173   19.7600  -23.2999 C   0  0  0  0  0  0  0  0  0  0  0  0
  -20.7921   18.8160  -22.3800 N   0  0  0  0  0  0  0  0  0  0  0  0
  -21.9962   18.2382  -22.3486 C   0  0  0  0  0  0  0  0  0  0  0  0
  -22.5034   17.2672  -21.4703 C   0  0  0  0  0  0  0  0  0  0  0  0
  -23.7803   17.0729  -21.9033 C   0  0  0  0  0  0  0  0  0  0  0  0
  -24.0117   17.8774  -22.9628 N   0  0  0  0  0  0  0  0  0  0  0  0
  -22.9245   18.5889  -23.2277 N   0  0  0  0  0  0  0  0  0  0  0  0
  -22.7127   19.5316  -24.1803 C   0  0  0  0  0  0  0  0  0  0  0  0
 24 25  1  0  0  0
 25 26  1  0  0  0
 26 27  2  0  0  0
 27 28  1  0  0  0
 28 29  2  0  0  0
 29 20  1  0  0  0
 20 21  2  0  0  0
 20 22  1  0  0  0
 22  1  1  0  0  0
  1  9  1  0  0  0
  9 10  2  0  0  0
 10 11  1  0  0  0
 11 12  2  0  0  0
 12 16  1  0  0  0
 16 17  1  0  0  0
 16 18  1  0  0  0
 16 19  1  0  0  0
 12 13  1  0  0  0
 13 14  2  0  0  0
 14 15  1  0  0  0
  1  2  1  0  0  0
  2  3  1  0  0  0
  3  4  1  0  0  0
  4  5  1  0  0  0
  5  6  1  0  0  0
  6  7  1  0  0  0
 29 30  1  0  0  0
 30 31  2  0  0  0
 31 32  1  0  0  0
 32 33  1  0  0  0
 33 25  2  0  0  0
 32 28  1  0  0  0
  6  1  1  0  0  0
 14  9  1  0  0  0
 22 23  1  0  0  0
  7  8  1  0  0  0
M  END
> <minimizedAffinity>
-8.37643

> <CNNscore>
0.1644853204

> <CNNaffinity>
5.4403457642

> <CNN_VS>
0.8948569894

> <CNNaffinity_variance>
0.4275418818

$$$$
[H]OC1([H])C([H])([H])OC([H])([H])C([H])([H])C1(c1c([H])c([H])c(C(F)(F)F)c([H])c1F)N([H])C(=O)c1c([H])nn2c([H])c(C([H])([H])[H])c([H])nc12


 33 36  0  0  0  0  0  0  0  0999 V2000
  -19.0533   15.2907  -18.9974 C   0  0  0  0  0  0  0  0  0  0  0  0
  -19.8308   16.1933  -19.7650 C   0  0  0  0  0  0  0  0  0  0  0  0
  -20.5217   17.3610  -19.0771 C   0  0  0  0  0  0  0  0  0  0  0  0
  -20.3317   17.5336  -17.7557 O   0  0  0  0  0  0  0  0  0  0  0  0
  -19.1345   17.1688  -17.2705 C   0  0  0  0  0  0  0  0  0  0  0  0
  -18.3712   16.0676  -17.8427 C   0  0  0  0  0  0  0  0  0  0  0  0
  -17.1240   16.5724  -18.2636 O   0  0  0  0  0  0  0  0  0  0  0  0
  -16.4353   16.4269  -17.6044 H   0  0  0  0  0  0  0  0  0  0  0  0
  -19.5069   14.0523  -18.3873 C   0  0  0  0  0  0  0  0  0  0  0  0
  -18.5790   12.9961  -18.3862 C   0  0  0  0  0  0  0  0  0  0  0  0
  -18.8008   11.8085  -17.7281 C   0  0  0  0  0  0  0  0  0  0  0  0
  -19.9394   11.5729  -17.0312 C   0  0  0  0  0  0  0  0  0  0  0  0
  -20.8858   12.5991  -17.0077 C   0  0  0  0  0  0  0  0  0  0  0  0
  -20.6293   13.7813  -17.6795 C   0  0  0  0  0  0  0  0  0  0  0  0
  -21.5970   14.6994  -17.6438 F   0  0  0  0  0  0  0  0  0  0  0  0
  -20.1645   10.3116  -16.2882 C   0  0  0  0  0  0  0  0  0  0  0  0
  -21.5349   10.0609  -16.1504 F   0  0  0  0  0  0  0  0  0  0  0  0
  -19.5443    9.2895  -16.9682 F   0  0  0  0  0  0  0  0  0  0  0  0
  -19.5584   10.3052  -15.0340 F   0  0  0  0  0  0  0  0  0  0  0  0
  -18.1631   14.3211  -21.0834 C   0  0  0  0  0  0  0  0  0  0  0  0
  -19.3606   14.2860  -21.4895 O   0  0  0  0  0  0  0  0  0  0  0  0
  -17.8517   14.8505  -19.7787 N   0  0  0  0  0  0  0  0  0  0  0  0
  -16.8965   14.8820  -19.4673 H   0  0  0  0  0  0  0  0  0  0  0  0
  -14.1787   16.0230  -26.1953 C   0  0  0  0  0  0  0  0  0  0  0  0
  -15.0036   15.4936  -25.0516 C   0  0  0  0  0  0  0  0  0  0  0  0
  -15.7939   16.3192  -24.2827 C   0  0  0  0  0  0  0  0  0  0  0  0
  -16.5272   15.8257  -23.2671 N   0  0  0  0  0  0  0  0  0  0  0  0
  -16.4988   14.5191  -22.9903 C   0  0  0  0  0  0  0  0  0  0  0  0
  -17.1960   13.7934  -22.0110 C   0  0  0  0  0  0  0  0  0  0  0  0
  -16.7886   12.5085  -22.2074 C   0  0  0  0  0  0  0  0  0  0  0  0
  -15.9134   12.4777  -23.2352 N   0  0  0  0  0  0  0  0  0  0  0  0
  -15.7434   13.7032  -23.7123 N   0  0  0  0  0  0  0  0  0  0  0  0
  -14.9804   14.1354  -24.7478 C   0  0  0  0  0  0  0  0  0  0  0  0
 24 25  1  0  0  0
 25 26  1  0  0  0
 26 27  2  0  0  0
 27 28  1  0  0  0
 28 29  2  0  0  0
 29 20  1  0  0  0
 20 21  2  0  0  0
 20 22  1  0  0  0
 22  1  1  0  0  0
  1  9  1  0  0  0
  9 10  2  0  0  0
 10 11  1  0  0  0
 11 12  2  0  0  0
 12 16  1  0  0  0
 16 17  1  0  0  0
 16 18  1  0  0  0
 16 19  1  0  0  0
 12 13  1  0  0  0
 13 14  2  0  0  0
 14 15  1  0  0  0
  1  2  1  0  0  0
  2  3  1  0  0  0
  3  4  1  0  0  0
  4  5  1  0  0  0
  5  6  1  0  0  0
  6  7  1  0  0  0
 29 30  1  0  0  0
 30 31  2  0  0  0
 31 32  1  0  0  0
 32 33  1  0  0  0
 33 25  2  0  0  0
 32 28  1  0  0  0
  6  1  1  0  0  0
 14  9  1  0  0  0
 22 23  1  0  0  0
  7  8  1  0  0  0
M  END
> <minimizedAffinity>
-8.61167

> <CNNscore>
0.1627708822

> <CNNaffinity>
6.3118467331

> <CNN_VS>
1.0273848772

> <CNNaffinity_variance>
0.3413887918

$$$$
[H]OC1([H])C([H])([H])OC([H])([H])C([H])([H])C1(c1c([H])c([H])c(C(F)(F)F)c([H])c1F)N([H])C(=O)c1c([H])nn2c([H])c(C([H])([H])[H])c([H])nc12


 33 36  0  0  0  0  0  0  0  0999 V2000
  -19.1152   14.2069  -19.5944 C   0  0  0  0  0  0  0  0  0  0  0  0
  -18.5333   14.8756  -18.4887 C   0  0  0  0  0  0  0  0  0  0  0  0
  -18.7378   16.3742  -18.3260 C   0  0  0  0  0  0  0  0  0  0  0  0
  -19.5141   17.0184  -19.2172 O   0  0  0  0  0  0  0  0  0  0  0  0
  -20.5387   16.3212  -19.7328 C   0  0  0  0  0  0  0  0  0  0  0  0
  -20.4685   14.8803  -19.9366 C   0  0  0  0  0  0  0  0  0  0  0  0
  -21.5114   14.2832  -19.1995 O   0  0  0  0  0  0  0  0  0  0  0  0
  -22.2858   14.1087  -19.7471 H   0  0  0  0  0  0  0  0  0  0  0  0
  -18.4950   13.9557  -20.8844 C   0  0  0  0  0  0  0  0  0  0  0  0
  -18.8218   14.8639  -21.9066 C   0  0  0  0  0  0  0  0  0  0  0  0
  -18.2150   14.8480  -23.1412 C   0  0  0  0  0  0  0  0  0  0  0  0
  -17.2536   13.9469  -23.4597 C   0  0  0  0  0  0  0  0  0  0  0  0
  -16.9003   13.0280  -22.4696 C   0  0  0  0  0  0  0  0  0  0  0  0
  -17.5302   13.0737  -21.2383 C   0  0  0  0  0  0  0  0  0  0  0  0
  -17.1671   12.1393  -20.3576 F   0  0  0  0  0  0  0  0  0  0  0  0
  -16.5696   13.9521  -24.7734 C   0  0  0  0  0  0  0  0  0  0  0  0
  -16.9804   12.8587  -25.5450 F   0  0  0  0  0  0  0  0  0  0  0  0
  -16.8574   15.1374  -25.4089 F   0  0  0  0  0  0  0  0  0  0  0  0
  -15.1811   13.9520  -24.6621 F   0  0  0  0  0  0  0  0  0  0  0  0
  -18.7987   12.2450  -18.1333 C   0  0  0  0  0  0  0  0  0  0  0  0
  -17.8309   12.8776  -17.6201 O   0  0  0  0  0  0  0  0  0  0  0  0
  -19.5838   12.8428  -19.1847 N   0  0  0  0  0  0  0  0  0  0  0  0
  -20.3561   12.3362  -19.5813 H   0  0  0  0  0  0  0  0  0  0  0  0
  -22.8037    8.7275  -14.0725 C   0  0  0  0  0  0  0  0  0  0  0  0
  -21.8310    9.3767  -15.0218 C   0  0  0  0  0  0  0  0  0  0  0  0
  -21.9660   10.6900  -15.4146 C   0  0  0  0  0  0  0  0  0  0  0  0
  -21.0832   11.2532  -16.2610 N   0  0  0  0  0  0  0  0  0  0  0  0
  -20.0565   10.5409  -16.7335 C   0  0  0  0  0  0  0  0  0  0  0  0
  -19.0140   10.9284  -17.5907 C   0  0  0  0  0  0  0  0  0  0  0  0
  -18.2570    9.8023  -17.7110 C   0  0  0  0  0  0  0  0  0  0  0  0
  -18.8130    8.8185  -16.9719 N   0  0  0  0  0  0  0  0  0  0  0  0
  -19.9059    9.2737  -16.3744 N   0  0  0  0  0  0  0  0  0  0  0  0
  -20.7592    8.6459  -15.5266 C   0  0  0  0  0  0  0  0  0  0  0  0
 24 25  1  0  0  0
 25 26  1  0  0  0
 26 27  2  0  0  0
 27 28  1  0  0  0
 28 29  2  0  0  0
 29 20  1  0  0  0
 20 21  2  0  0  0
 20 22  1  0  0  0
 22  1  1  0  0  0
  1  9  1  0  0  0
  9 10  2  0  0  0
 10 11  1  0  0  0
 11 12  2  0  0  0
 12 16  1  0  0  0
 16 17  1  0  0  0
 16 18  1  0  0  0
 16 19  1  0  0  0
 12 13  1  0  0  0
 13 14  2  0  0  0
 14 15  1  0  0  0
  1  2  1  0  0  0
  2  3  1  0  0  0
  3  4  1  0  0  0
  4  5  1  0  0  0
  5  6  1  0  0  0
  6  7  1  0  0  0
 29 30  1  0  0  0
 30 31  2  0  0  0
 31 32  1  0  0  0
 32 33  1  0  0  0
 33 25  2  0  0  0
 32 28  1  0  0  0
  6  1  1  0  0  0
 14  9  1  0  0  0
 22 23  1  0  0  0
  7  8  1  0  0  0
M  END
> <minimizedAffinity>
-8.99793

> <CNNscore>
0.1544231921

> <CNNaffinity>
6.1457748413

> <CNN_VS>
0.9490501881

> <CNNaffinity_variance>
0.2924004495

$$$$
[H]OC(=O)C([H])([H])C([H])([H])[C@@]([H])(C(=O)N1C([H])([H])C([H])([H])C([H])([H])[C@@]1([H])C(=O)N([H])[C@]([H])(C(=O)OC([H])([H])[H])C([H])([H])c1c([H])c([H])c([H])c([H])c1[H])N([H])C(=O)[C@@]([H])(N([H])C(=O)OC([H])([H])c1c([H])c([H])c([H])c([H])c1[H])[C@@]([H])(C([H])([H])[H])C([H])([H])C([H])([H])[H]


 51 53  0  0  0  0  0  0  0  0999 V2000
  -18.0799   17.5307  -20.2829 C   0  0  0  0  0  0  0  0  0  0  0  0
  -19.3621   17.9334  -19.7787 C   0  0  0  0  0  0  0  0  0  0  0  0
  -19.2605   18.2203  -18.4525 O   0  0  0  0  0  0  0  0  0  0  0  0
  -20.6601   18.1133  -20.2076 N   0  0  0  0  0  0  0  0  0  0  0  0
  -21.7302   18.6082  -19.2949 C   0  0  0  0  0  0  0  0  0  0  0  0
  -22.7633   17.5164  -19.4805 C   0  0  0  0  0  0  0  0  0  0  0  0
  -22.6770   17.2232  -20.9398 C   0  0  0  0  0  0  0  0  0  0  0  0
  -21.3547   17.8783  -21.4176 C   0  0  0  0  0  0  0  0  0  0  0  0
  -21.7802   19.0712  -22.1686 C   0  0  0  0  0  0  0  0  0  0  0  0
  -22.9611   19.4546  -22.1241 O   0  0  0  0  0  0  0  0  0  0  0  0
  -20.8365   19.7832  -22.9479 N   0  0  0  0  0  0  0  0  0  0  0  0
  -19.8329   19.5058  -23.0062 H   0  0  0  0  0  0  0  0  0  0  0  0
  -21.2797   20.9646  -23.7144 C   0  0  0  0  0  0  0  0  0  0  0  0
  -21.1890   22.1745  -22.8882 C   0  0  0  0  0  0  0  0  0  0  0  0
  -22.2495   22.6216  -22.3105 O   0  0  0  0  0  0  0  0  0  0  0  0
  -20.0558   22.8915  -22.6626 O   0  0  0  0  0  0  0  0  0  0  0  0
  -19.2753   22.7373  -21.4669 C   0  0  0  0  0  0  0  0  0  0  0  0
  -22.6824   20.7244  -24.1706 C   0  0  0  0  0  0  0  0  0  0  0  0
  -22.8487   20.1490  -25.4990 C   0  0  0  0  0  0  0  0  0  0  0  0
  -22.2178   20.8063  -26.5530 C   0  0  0  0  0  0  0  0  0  0  0  0
  -22.3334   20.2830  -27.8086 C   0  0  0  0  0  0  0  0  0  0  0  0
  -23.0484   19.1326  -28.0683 C   0  0  0  0  0  0  0  0  0  0  0  0
  -23.6715   18.4941  -26.9808 C   0  0  0  0  0  0  0  0  0  0  0  0
  -23.5667   19.0030  -25.7261 C   0  0  0  0  0  0  0  0  0  0  0  0
  -18.1115   15.0310  -19.8073 C   0  0  0  0  0  0  0  0  0  0  0  0
  -17.6465   15.3426  -18.6492 O   0  0  0  0  0  0  0  0  0  0  0  0
  -18.3592   16.0797  -20.6944 N   0  0  0  0  0  0  0  0  0  0  0  0
  -18.7297   15.9239  -21.6496 H   0  0  0  0  0  0  0  0  0  0  0  0
  -18.3135   13.6168  -20.0473 C   0  0  0  0  0  0  0  0  0  0  0  0
  -17.5341   13.1179  -21.1509 N   0  0  0  0  0  0  0  0  0  0  0  0
  -17.5785   13.4573  -22.5084 C   0  0  0  0  0  0  0  0  0  0  0  0
  -18.3216   14.2774  -23.0784 O   0  0  0  0  0  0  0  0  0  0  0  0
  -16.7941   12.3613  -20.9041 H   0  0  0  0  0  0  0  0  0  0  0  0
  -16.6817   12.8095  -23.4024 O   0  0  0  0  0  0  0  0  0  0  0  0
  -15.4335   13.3619  -23.7313 C   0  0  0  0  0  0  0  0  0  0  0  0
  -15.4153   14.1568  -24.9534 C   0  0  0  0  0  0  0  0  0  0  0  0
  -16.4170   13.9831  -25.9031 C   0  0  0  0  0  0  0  0  0  0  0  0
  -16.4621   14.6900  -27.0768 C   0  0  0  0  0  0  0  0  0  0  0  0
  -15.4720   15.6288  -27.3520 C   0  0  0  0  0  0  0  0  0  0  0  0
  -14.4720   15.8088  -26.4139 C   0  0  0  0  0  0  0  0  0  0  0  0
  -14.4422   15.0877  -25.2360 C   0  0  0  0  0  0  0  0  0  0  0  0
  -18.1128   12.7016  -18.8597 C   0  0  0  0  0  0  0  0  0  0  0  0
  -19.4094   12.3378  -18.1509 C   0  0  0  0  0  0  0  0  0  0  0  0
  -16.2717   10.9839  -18.7409 C   0  0  0  0  0  0  0  0  0  0  0  0
  -17.5778   11.3816  -19.4010 C   0  0  0  0  0  0  0  0  0  0  0  0
  -17.3054   18.1624  -21.3309 C   0  0  0  0  0  0  0  0  0  0  0  0
  -16.8045   17.3548  -22.4838 C   0  0  0  0  0  0  0  0  0  0  0  0
  -17.4546   17.7949  -23.7728 C   0  0  0  0  0  0  0  0  0  0  0  0
  -18.6964   17.9210  -23.8335 O   0  0  0  0  0  0  0  0  0  0  0  0
  -16.7147   18.0729  -24.9184 O   0  0  0  0  0  0  0  0  0  0  0  0
  -16.9987   18.7239  -25.6124 H   0  0  0  0  0  0  0  0  0  0  0  0
 44 45  1  0  0  0
 45 42  1  0  0  0
 42 43  1  0  0  0
 42 29  1  0  0  0
 29 30  1  0  0  0
 30 31  1  0  0  0
 31 32  2  0  0  0
 31 34  1  0  0  0
 34 35  1  0  0  0
 35 36  1  0  0  0
 36 37  2  0  0  0
 37 38  1  0  0  0
 38 39  2  0  0  0
 39 40  1  0  0  0
 40 41  2  0  0  0
 29 25  1  0  0  0
 25 26  2  0  0  0
 25 27  1  0  0  0
 27  1  1  0  0  0
  1 46  1  0  0  0
 46 47  1  0  0  0
 47 48  1  0  0  0
 48 49  2  0  0  0
 48 50  1  0  0  0
  1  2  1  0  0  0
  2  3  2  0  0  0
  2  4  1  0  0  0
  4  5  1  0  0  0
  5  6  1  0  0  0
  6  7  1  0  0  0
  7  8  1  0  0  0
  8  9  1  0  0  0
  9 10  2  0  0  0
  9 11  1  0  0  0
 11 13  1  0  0  0
 13 18  1  0  0  0
 18 19  1  0  0  0
 19 20  2  0  0  0
 20 21  1  0  0  0
 21 22  2  0  0  0
 22 23  1  0  0  0
 23 24  2  0  0  0
 13 14  1  0  0  0
 14 15  2  0  0  0
 14 16  1  0  0  0
 16 17  1  0  0  0
 41 36  1  0  0  0
  8  4  1  0  0  0
 24 19  1  0  0  0
 30 33  1  0  0  0
 27 28  1  0  0  0
 50 51  1  0  0  0
 11 12  1  0  0  0
M  END
> <minimizedAffinity>
-8.44505

> <CNNscore>
0.3534112275

> <CNNaffinity>
7.3394370079

> <CNN_VS>
2.5938394070

> <CNNaffinity_variance>
0.2384186089

$$$$
[H]OC(=O)C([H])([H])C([H])([H])[C@@]([H])(C(=O)N1C([H])([H])C([H])([H])C([H])([H])[C@@]1([H])C(=O)N([H])[C@]([H])(C(=O)OC([H])([H])[H])C([H])([H])c1c([H])c([H])c([H])c([H])c1[H])N([H])C(=O)[C@@]([H])(N([H])C(=O)OC([H])([H])c1c([H])c([H])c([H])c([H])c1[H])[C@@]([H])(C([H])([H])[H])C([H])([H])C([H])([H])[H]


 51 53  0  0  0  0  0  0  0  0999 V2000
  -19.8324   14.1070  -17.6122 C   0  0  0  0  0  0  0  0  0  0  0  0
  -19.2772   15.4138  -17.8233 C   0  0  0  0  0  0  0  0  0  0  0  0
  -18.0908   15.5164  -17.1651 O   0  0  0  0  0  0  0  0  0  0  0  0
  -19.5668   16.5956  -18.4718 N   0  0  0  0  0  0  0  0  0  0  0  0
  -18.6312   17.7563  -18.4498 C   0  0  0  0  0  0  0  0  0  0  0  0
  -19.5634   18.8391  -17.9478 C   0  0  0  0  0  0  0  0  0  0  0  0
  -20.8405   18.5299  -18.6523 C   0  0  0  0  0  0  0  0  0  0  0  0
  -20.6727   17.0896  -19.2031 C   0  0  0  0  0  0  0  0  0  0  0  0
  -20.4719   17.2657  -20.6511 C   0  0  0  0  0  0  0  0  0  0  0  0
  -20.0123   16.3396  -21.3398 O   0  0  0  0  0  0  0  0  0  0  0  0
  -20.8033   18.5003  -21.2604 N   0  0  0  0  0  0  0  0  0  0  0  0
  -21.2023   19.3013  -20.7251 H   0  0  0  0  0  0  0  0  0  0  0  0
  -20.5765   18.6726  -22.7090 C   0  0  0  0  0  0  0  0  0  0  0  0
  -19.2508   19.2533  -22.9541 C   0  0  0  0  0  0  0  0  0  0  0  0
  -18.8192   20.1842  -22.1760 O   0  0  0  0  0  0  0  0  0  0  0  0
  -18.4039   18.8896  -23.9539 O   0  0  0  0  0  0  0  0  0  0  0  0
  -17.5453   17.7428  -23.8533 C   0  0  0  0  0  0  0  0  0  0  0  0
  -21.6598   19.5491  -23.2489 C   0  0  0  0  0  0  0  0  0  0  0  0
  -22.3463   19.0790  -24.4452 C   0  0  0  0  0  0  0  0  0  0  0  0
  -22.6878   17.7290  -24.4853 C   0  0  0  0  0  0  0  0  0  0  0  0
  -23.3518   17.2579  -25.5811 C   0  0  0  0  0  0  0  0  0  0  0  0
  -23.6950   18.0677  -26.6434 C   0  0  0  0  0  0  0  0  0  0  0  0
  -23.3360   19.4257  -26.5693 C   0  0  0  0  0  0  0  0  0  0  0  0
  -22.6741   19.9090  -25.4864 C   0  0  0  0  0  0  0  0  0  0  0  0
  -19.1395   12.7846  -19.6729 C   0  0  0  0  0  0  0  0  0  0  0  0
  -20.2706   13.1461  -20.1674 O   0  0  0  0  0  0  0  0  0  0  0  0
  -18.8398   13.2287  -18.3840 N   0  0  0  0  0  0  0  0  0  0  0  0
  -17.9546   12.9842  -17.9037 H   0  0  0  0  0  0  0  0  0  0  0  0
  -18.3168   11.9483  -20.5228 C   0  0  0  0  0  0  0  0  0  0  0  0
  -17.7087   12.6761  -21.6067 N   0  0  0  0  0  0  0  0  0  0  0  0
  -17.1838   13.9737  -21.6350 C   0  0  0  0  0  0  0  0  0  0  0  0
  -17.1306   14.8086  -20.7131 O   0  0  0  0  0  0  0  0  0  0  0  0
  -17.6412   12.1467  -22.5533 H   0  0  0  0  0  0  0  0  0  0  0  0
  -16.6273   14.4571  -22.8515 O   0  0  0  0  0  0  0  0  0  0  0  0
  -16.2555   13.5921  -23.8930 C   0  0  0  0  0  0  0  0  0  0  0  0
  -15.9944   14.2440  -25.1707 C   0  0  0  0  0  0  0  0  0  0  0  0
  -14.8815   15.0671  -25.3092 C   0  0  0  0  0  0  0  0  0  0  0  0
  -14.5754   15.7167  -26.4770 C   0  0  0  0  0  0  0  0  0  0  0  0
  -15.4007   15.5604  -27.5869 C   0  0  0  0  0  0  0  0  0  0  0  0
  -16.5094   14.7438  -27.4591 C   0  0  0  0  0  0  0  0  0  0  0  0
  -16.8027   14.0966  -26.2745 C   0  0  0  0  0  0  0  0  0  0  0  0
  -17.2490   11.1335  -19.8272 C   0  0  0  0  0  0  0  0  0  0  0  0
  -17.7673   10.3592  -18.6239 C   0  0  0  0  0  0  0  0  0  0  0  0
  -15.3272   10.2174  -21.1769 C   0  0  0  0  0  0  0  0  0  0  0  0
  -16.7916   10.0658  -20.8134 C   0  0  0  0  0  0  0  0  0  0  0  0
  -20.1231   13.4654  -16.3468 C   0  0  0  0  0  0  0  0  0  0  0  0
  -21.0863   12.3248  -16.2882 C   0  0  0  0  0  0  0  0  0  0  0  0
  -20.5524   11.2129  -15.4185 C   0  0  0  0  0  0  0  0  0  0  0  0
  -20.6597   11.2871  -14.1757 O   0  0  0  0  0  0  0  0  0  0  0  0
  -19.9349   10.0858  -15.9530 O   0  0  0  0  0  0  0  0  0  0  0  0
  -19.9453    9.1937  -15.5169 H   0  0  0  0  0  0  0  0  0  0  0  0
 44 45  1  0  0  0
 45 42  1  0  0  0
 42 43  1  0  0  0
 42 29  1  0  0  0
 29 30  1  0  0  0
 30 31  1  0  0  0
 31 32  2  0  0  0
 31 34  1  0  0  0
 34 35  1  0  0  0
 35 36  1  0  0  0
 36 37  2  0  0  0
 37 38  1  0  0  0
 38 39  2  0  0  0
 39 40  1  0  0  0
 40 41  2  0  0  0
 29 25  1  0  0  0
 25 26  2  0  0  0
 25 27  1  0  0  0
 27  1  1  0  0  0
  1 46  1  0  0  0
 46 47  1  0  0  0
 47 48  1  0  0  0
 48 49  2  0  0  0
 48 50  1  0  0  0
  1  2  1  0  0  0
  2  3  2  0  0  0
  2  4  1  0  0  0
  4  5  1  0  0  0
  5  6  1  0  0  0
  6  7  1  0  0  0
  7  8  1  0  0  0
  8  9  1  0  0  0
  9 10  2  0  0  0
  9 11  1  0  0  0
 11 13  1  0  0  0
 13 18  1  0  0  0
 18 19  1  0  0  0
 19 20  2  0  0  0
 20 21  1  0  0  0
 21 22  2  0  0  0
 22 23  1  0  0  0
 23 24  2  0  0  0
 13 14  1  0  0  0
 14 15  2  0  0  0
 14 16  1  0  0  0
 16 17  1  0  0  0
 41 36  1  0  0  0
  8  4  1  0  0  0
 24 19  1  0  0  0
 30 33  1  0  0  0
 27 28  1  0  0  0
 50 51  1  0  0  0
 11 12  1  0  0  0
M  END
> <minimizedAffinity>
-8.54631

> <CNNscore>
0.2794161141

> <CNNaffinity>
7.0907578468

> <CNN_VS>
1.9812719822

> <CNNaffinity_variance>
1.1742861271

$$$$
[H]OC(=O)C([H])([H])C([H])([H])[C@@]([H])(C(=O)N1C([H])([H])C([H])([H])C([H])([H])[C@@]1([H])C(=O)N([H])[C@]([H])(C(=O)OC([H])([H])[H])C([H])([H])c1c([H])c([H])c([H])c([H])c1[H])N([H])C(=O)[C@@]([H])(N([H])C(=O)OC([H])([H])c1c([H])c([H])c([H])c([H])c1[H])[C@@]([H])(C([H])([H])[H])C([H])([H])C([H])([H])[H]


 51 53  0  0  0  0  0  0  0  0999 V2000
  -21.9346   17.9525  -19.9793 C   0  0  0  0  0  0  0  0  0  0  0  0
  -20.6580   18.4045  -20.4550 C   0  0  0  0  0  0  0  0  0  0  0  0
  -20.3486   19.5932  -19.8694 O   0  0  0  0  0  0  0  0  0  0  0  0
  -19.6537   18.0226  -21.3190 N   0  0  0  0  0  0  0  0  0  0  0  0
  -18.4109   18.8287  -21.4883 C   0  0  0  0  0  0  0  0  0  0  0  0
  -18.4159   19.0116  -22.9917 C   0  0  0  0  0  0  0  0  0  0  0  0
  -18.8856   17.6854  -23.4853 C   0  0  0  0  0  0  0  0  0  0  0  0
  -19.4795   16.9673  -22.2452 C   0  0  0  0  0  0  0  0  0  0  0  0
  -18.4791   15.9464  -21.8916 C   0  0  0  0  0  0  0  0  0  0  0  0
  -18.1812   15.7427  -20.7028 O   0  0  0  0  0  0  0  0  0  0  0  0
  -17.8518   15.1947  -22.9146 N   0  0  0  0  0  0  0  0  0  0  0  0
  -18.0781   15.3227  -23.9245 H   0  0  0  0  0  0  0  0  0  0  0  0
  -16.8340   14.1896  -22.5492 C   0  0  0  0  0  0  0  0  0  0  0  0
  -15.7880   14.1234  -23.5768 C   0  0  0  0  0  0  0  0  0  0  0  0
  -15.6036   13.0204  -24.2154 O   0  0  0  0  0  0  0  0  0  0  0  0
  -14.9694   15.1484  -23.9352 O   0  0  0  0  0  0  0  0  0  0  0  0
  -14.1855   15.1200  -25.1382 C   0  0  0  0  0  0  0  0  0  0  0  0
  -17.5186   12.8711  -22.3877 C   0  0  0  0  0  0  0  0  0  0  0  0
  -17.1616   12.0885  -21.2114 C   0  0  0  0  0  0  0  0  0  0  0  0
  -17.7097   12.4931  -19.9962 C   0  0  0  0  0  0  0  0  0  0  0  0
  -17.4149   11.7699  -18.8764 C   0  0  0  0  0  0  0  0  0  0  0  0
  -16.5985   10.6587  -18.9064 C   0  0  0  0  0  0  0  0  0  0  0  0
  -16.0633   10.2777  -20.1501 C   0  0  0  0  0  0  0  0  0  0  0  0
  -16.3462   10.9876  -21.2728 C   0  0  0  0  0  0  0  0  0  0  0  0
  -21.2003   16.5396  -17.9942 C   0  0  0  0  0  0  0  0  0  0  0  0
  -21.0384   15.5931  -18.8502 O   0  0  0  0  0  0  0  0  0  0  0  0
  -21.6511   17.7667  -18.4834 N   0  0  0  0  0  0  0  0  0  0  0  0
  -21.8141   18.5843  -17.8678 H   0  0  0  0  0  0  0  0  0  0  0  0
  -20.8981   16.2049  -16.6176 C   0  0  0  0  0  0  0  0  0  0  0  0
  -20.6565   14.7986  -16.4221 N   0  0  0  0  0  0  0  0  0  0  0  0
  -19.4641   14.0706  -16.5123 C   0  0  0  0  0  0  0  0  0  0  0  0
  -18.3238   14.4827  -16.7946 O   0  0  0  0  0  0  0  0  0  0  0  0
  -21.5263   14.2002  -16.1643 H   0  0  0  0  0  0  0  0  0  0  0  0
  -19.4998   12.6708  -16.2620 O   0  0  0  0  0  0  0  0  0  0  0  0
  -20.5400   11.8578  -16.7397 C   0  0  0  0  0  0  0  0  0  0  0  0
  -20.4905   10.4703  -16.2944 C   0  0  0  0  0  0  0  0  0  0  0  0
  -19.3500    9.7104  -16.5337 C   0  0  0  0  0  0  0  0  0  0  0  0
  -19.2335    8.3996  -16.1495 C   0  0  0  0  0  0  0  0  0  0  0  0
  -20.2909    7.7805  -15.4891 C   0  0  0  0  0  0  0  0  0  0  0  0
  -21.4289    8.5278  -15.2464 C   0  0  0  0  0  0  0  0  0  0  0  0
  -21.5291    9.8481  -15.6405 C   0  0  0  0  0  0  0  0  0  0  0  0
  -19.7741   16.9839  -15.9713 C   0  0  0  0  0  0  0  0  0  0  0  0
  -19.2215   18.0933  -16.8545 C   0  0  0  0  0  0  0  0  0  0  0  0
  -19.4940   18.8519  -14.3021 C   0  0  0  0  0  0  0  0  0  0  0  0
  -20.3668   17.7014  -14.7649 C   0  0  0  0  0  0  0  0  0  0  0  0
  -23.2149   18.6136  -20.1235 C   0  0  0  0  0  0  0  0  0  0  0  0
  -23.6853   19.0508  -21.4726 C   0  0  0  0  0  0  0  0  0  0  0  0
  -23.5798   17.9241  -22.4712 C   0  0  0  0  0  0  0  0  0  0  0  0
  -22.7252   17.9758  -23.3815 O   0  0  0  0  0  0  0  0  0  0  0  0
  -24.4093   16.8077  -22.4190 O   0  0  0  0  0  0  0  0  0  0  0  0
  -24.1422   15.9079  -22.7431 H   0  0  0  0  0  0  0  0  0  0  0  0
 44 45  1  0  0  0
 45 42  1  0  0  0
 42 43  1  0  0  0
 42 29  1  0  0  0
 29 30  1  0  0  0
 30 31  1  0  0  0
 31 32  2  0  0  0
 31 34  1  0  0  0
 34 35  1  0  0  0
 35 36  1  0  0  0
 36 37  2  0  0  0
 37 38  1  0  0  0
 38 39  2  0  0  0
 39 40  1  0  0  0
 40 41  2  0  0  0
 29 25  1  0  0  0
 25 26  2  0  0  0
 25 27  1  0  0  0
 27  1  1  0  0  0
  1 46  1  0  0  0
 46 47  1  0  0  0
 47 48  1  0  0  0
 48 49  2  0  0  0
 48 50  1  0  0  0
  1  2  1  0  0  0
  2  3  2  0  0  0
  2  4  1  0  0  0
  4  5  1  0  0  0
  5  6  1  0  0  0
  6  7  1  0  0  0
  7  8  1  0  0  0
  8  9  1  0  0  0
  9 10  2  0  0  0
  9 11  1  0  0  0
 11 13  1  0  0  0
 13 18  1  0  0  0
 18 19  1  0  0  0
 19 20  2  0  0  0
 20 21  1  0  0  0
 21 22  2  0  0  0
 22 23  1  0  0  0
 23 24  2  0  0  0
 13 14  1  0  0  0
 14 15  2  0  0  0
 14 16  1  0  0  0
 16 17  1  0  0  0
 41 36  1  0  0  0
  8  4  1  0  0  0
 24 19  1  0  0  0
 30 33  1  0  0  0
 27 28  1  0  0  0
 50 51  1  0  0  0
 11 12  1  0  0  0
M  END
> <minimizedAffinity>
-8.34128

> <CNNscore>
0.2326958328

> <CNNaffinity>
6.7882661819

> <CNN_VS>
1.5796012878

> <CNNaffinity_variance>
0.8047040701

$$$$
[H]OC(=O)C([H])([H])C([H])([H])[C@@]([H])(C(=O)N1C([H])([H])C([H])([H])C([H])([H])[C@@]1([H])C(=O)N([H])[C@]([H])(C(=O)OC([H])([H])[H])C([H])([H])c1c([H])c([H])c([H])c([H])c1[H])N([H])C(=O)[C@@]([H])(N([H])C(=O)OC([H])([H])c1c([H])c([H])c([H])c([H])c1[H])[C@@]([H])(C([H])([H])[H])C([H])([H])C([H])([H])[H]


 51 53  0  0  0  0  0  0  0  0999 V2000
  -18.5460   17.1020  -19.0971 C   0  0  0  0  0  0  0  0  0  0  0  0
  -19.7617   17.5414  -18.4731 C   0  0  0  0  0  0  0  0  0  0  0  0
  -20.3378   18.5131  -19.2317 O   0  0  0  0  0  0  0  0  0  0  0  0
  -20.5238   17.2984  -17.3500 N   0  0  0  0  0  0  0  0  0  0  0  0
  -21.8132   18.0057  -17.1044 C   0  0  0  0  0  0  0  0  0  0  0  0
  -21.5532   18.5581  -15.7185 C   0  0  0  0  0  0  0  0  0  0  0  0
  -20.8192   17.4454  -15.0506 C   0  0  0  0  0  0  0  0  0  0  0  0
  -20.3731   16.4969  -16.1939 C   0  0  0  0  0  0  0  0  0  0  0  0
  -21.2695   15.3340  -16.0841 C   0  0  0  0  0  0  0  0  0  0  0  0
  -21.6636   14.7448  -17.1044 O   0  0  0  0  0  0  0  0  0  0  0  0
  -21.6859   14.8872  -14.8066 N   0  0  0  0  0  0  0  0  0  0  0  0
  -21.3719   15.3427  -13.9226 H   0  0  0  0  0  0  0  0  0  0  0  0
  -22.6028   13.7340  -14.7101 C   0  0  0  0  0  0  0  0  0  0  0  0
  -23.9692   14.1889  -14.4260 C   0  0  0  0  0  0  0  0  0  0  0  0
  -24.5625   13.7695  -13.3628 O   0  0  0  0  0  0  0  0  0  0  0  0
  -24.6929   15.0413  -15.1998 O   0  0  0  0  0  0  0  0  0  0  0  0
  -24.8696   16.4251  -14.8589 C   0  0  0  0  0  0  0  0  0  0  0  0
  -22.0992   12.8274  -13.6342 C   0  0  0  0  0  0  0  0  0  0  0  0
  -21.5906   11.5292  -14.0577 C   0  0  0  0  0  0  0  0  0  0  0  0
  -20.3036   11.1921  -13.6442 C   0  0  0  0  0  0  0  0  0  0  0  0
  -19.8028    9.9740  -14.0037 C   0  0  0  0  0  0  0  0  0  0  0  0
  -20.5227    9.0706  -14.7571 C   0  0  0  0  0  0  0  0  0  0  0  0
  -21.8190    9.4429  -15.1563 C   0  0  0  0  0  0  0  0  0  0  0  0
  -22.3308   10.6516  -14.8077 C   0  0  0  0  0  0  0  0  0  0  0  0
  -18.5360   14.5760  -18.7894 C   0  0  0  0  0  0  0  0  0  0  0  0
  -17.8493   14.8044  -17.7259 O   0  0  0  0  0  0  0  0  0  0  0  0
  -18.9292   15.6847  -19.5407 N   0  0  0  0  0  0  0  0  0  0  0  0
  -19.4808   15.5971  -20.4137 H   0  0  0  0  0  0  0  0  0  0  0  0
  -18.8094   13.1830  -19.0777 C   0  0  0  0  0  0  0  0  0  0  0  0
  -18.1291   12.7097  -20.2555 N   0  0  0  0  0  0  0  0  0  0  0  0
  -18.1051   13.2368  -21.5522 C   0  0  0  0  0  0  0  0  0  0  0  0
  -18.6839   14.2490  -21.9883 O   0  0  0  0  0  0  0  0  0  0  0  0
  -17.5404   11.8048  -20.1307 H   0  0  0  0  0  0  0  0  0  0  0  0
  -17.3374   12.5680  -22.5455 O   0  0  0  0  0  0  0  0  0  0  0  0
  -15.9890   12.8829  -22.7781 C   0  0  0  0  0  0  0  0  0  0  0  0
  -15.7442   13.7107  -23.9530 C   0  0  0  0  0  0  0  0  0  0  0  0
  -14.4739   14.2325  -24.1755 C   0  0  0  0  0  0  0  0  0  0  0  0
  -14.1709   15.0224  -25.2541 C   0  0  0  0  0  0  0  0  0  0  0  0
  -15.1626   15.3294  -26.1813 C   0  0  0  0  0  0  0  0  0  0  0  0
  -16.4286   14.8151  -25.9690 C   0  0  0  0  0  0  0  0  0  0  0  0
  -16.7164   14.0203  -24.8763 C   0  0  0  0  0  0  0  0  0  0  0  0
  -18.5623   12.2057  -17.9499 C   0  0  0  0  0  0  0  0  0  0  0  0
  -19.8397   11.7166  -17.2828 C   0  0  0  0  0  0  0  0  0  0  0  0
  -18.3091    9.7018  -17.8065 C   0  0  0  0  0  0  0  0  0  0  0  0
  -17.9413   10.9598  -18.5693 C   0  0  0  0  0  0  0  0  0  0  0  0
  -17.8284   17.7420  -20.1800 C   0  0  0  0  0  0  0  0  0  0  0  0
  -16.6078   17.0991  -20.7539 C   0  0  0  0  0  0  0  0  0  0  0  0
  -16.7042   17.0058  -22.2572 C   0  0  0  0  0  0  0  0  0  0  0  0
  -15.6835   17.1712  -22.9589 O   0  0  0  0  0  0  0  0  0  0  0  0
  -17.9051   16.7367  -22.9072 O   0  0  0  0  0  0  0  0  0  0  0  0
  -17.9648   16.2726  -23.7831 H   0  0  0  0  0  0  0  0  0  0  0  0
 44 45  1  0  0  0
 45 42  1  0  0  0
 42 43  1  0  0  0
 42 29  1  0  0  0
 29 30  1  0  0  0
 30 31  1  0  0  0
 31 32  2  0  0  0
 31 34  1  0  0  0
 34 35  1  0  0  0
 35 36  1  0  0  0
 36 37  2  0  0  0
 37 38  1  0  0  0
 38 39  2  0  0  0
 39 40  1  0  0  0
 40 41  2  0  0  0
 29 25  1  0  0  0
 25 26  2  0  0  0
 25 27  1  0  0  0
 27  1  1  0  0  0
  1 46  1  0  0  0
 46 47  1  0  0  0
 47 48  1  0  0  0
 48 49  2  0  0  0
 48 50  1  0  0  0
  1  2  1  0  0  0
  2  3  2  0  0  0
  2  4  1  0  0  0
  4  5  1  0  0  0
  5  6  1  0  0  0
  6  7  1  0  0  0
  7  8  1  0  0  0
  8  9  1  0  0  0
  9 10  2  0  0  0
  9 11  1  0  0  0
 11 13  1  0  0  0
 13 18  1  0  0  0
 18 19  1  0  0  0
 19 20  2  0  0  0
 20 21  1  0  0  0
 21 22  2  0  0  0
 22 23  1  0  0  0
 23 24  2  0  0  0
 13 14  1  0  0  0
 14 15  2  0  0  0
 14 16  1  0  0  0
 16 17  1  0  0  0
 41 36  1  0  0  0
  8  4  1  0  0  0
 24 19  1  0  0  0
 30 33  1  0  0  0
 27 28  1  0  0  0
 50 51  1  0  0  0
 11 12  1  0  0  0
M  END
> <minimizedAffinity>
-7.12404

> <CNNscore>
0.2322988957

> <CNNaffinity>
7.2482886314

> <CNN_VS>
1.6837694645

> <CNNaffinity_variance>
0.0604304858

$$$$
[H]OC(=O)C([H])([H])C([H])([H])[C@@]([H])(C(=O)N1C([H])([H])C([H])([H])C([H])([H])[C@@]1([H])C(=O)N([H])[C@]([H])(C(=O)OC([H])([H])[H])C([H])([H])c1c([H])c([H])c([H])c([H])c1[H])N([H])C(=O)[C@@]([H])(N([H])C(=O)OC([H])([H])c1c([H])c([H])c([H])c([H])c1[H])[C@@]([H])(C([H])([H])[H])C([H])([H])C([H])([H])[H]


 51 53  0  0  0  0  0  0  0  0999 V2000
  -18.0720   16.5480  -18.5644 C   0  0  0  0  0  0  0  0  0  0  0  0
  -19.2325   17.2164  -18.0478 C   0  0  0  0  0  0  0  0  0  0  0  0
  -18.9198   17.8306  -16.8745 O   0  0  0  0  0  0  0  0  0  0  0  0
  -20.5597   17.4261  -18.3571 N   0  0  0  0  0  0  0  0  0  0  0  0
  -21.4452   18.2663  -17.5010 C   0  0  0  0  0  0  0  0  0  0  0  0
  -22.5787   17.2925  -17.2554 C   0  0  0  0  0  0  0  0  0  0  0  0
  -22.7255   16.6150  -18.5754 C   0  0  0  0  0  0  0  0  0  0  0  0
  -21.4366   16.9615  -19.3656 C   0  0  0  0  0  0  0  0  0  0  0  0
  -21.8674   17.9539  -20.3644 C   0  0  0  0  0  0  0  0  0  0  0  0
  -23.0330   18.3839  -20.3618 O   0  0  0  0  0  0  0  0  0  0  0  0
  -20.9466   18.4181  -21.3348 N   0  0  0  0  0  0  0  0  0  0  0  0
  -19.9558   18.0946  -21.3686 H   0  0  0  0  0  0  0  0  0  0  0  0
  -21.3964   19.3963  -22.3450 C   0  0  0  0  0  0  0  0  0  0  0  0
  -21.3516   20.7567  -21.7957 C   0  0  0  0  0  0  0  0  0  0  0  0
  -22.2535   21.6061  -22.1472 O   0  0  0  0  0  0  0  0  0  0  0  0
  -20.4217   21.2227  -20.9198 O   0  0  0  0  0  0  0  0  0  0  0  0
  -20.7014   21.3918  -19.5213 C   0  0  0  0  0  0  0  0  0  0  0  0
  -22.7821   19.0275  -22.7657 C   0  0  0  0  0  0  0  0  0  0  0  0
  -23.0021   18.8317  -24.1928 C   0  0  0  0  0  0  0  0  0  0  0  0
  -23.2826   17.5338  -24.6141 C   0  0  0  0  0  0  0  0  0  0  0  0
  -23.5163   17.3167  -25.9415 C   0  0  0  0  0  0  0  0  0  0  0  0
  -23.4853   18.3320  -26.8744 C   0  0  0  0  0  0  0  0  0  0  0  0
  -23.2003   19.6302  -26.4142 C   0  0  0  0  0  0  0  0  0  0  0  0
  -22.9644   19.8620  -25.0971 C   0  0  0  0  0  0  0  0  0  0  0  0
  -18.5764   14.0829  -18.1838 C   0  0  0  0  0  0  0  0  0  0  0  0
  -17.9768   14.2329  -17.0558 O   0  0  0  0  0  0  0  0  0  0  0  0
  -18.6684   15.2061  -19.0074 N   0  0  0  0  0  0  0  0  0  0  0  0
  -19.1297   15.1788  -19.9350 H   0  0  0  0  0  0  0  0  0  0  0  0
  -19.0777   12.7523  -18.4607 C   0  0  0  0  0  0  0  0  0  0  0  0
  -18.4587   12.1478  -19.6121 N   0  0  0  0  0  0  0  0  0  0  0  0
  -18.4441   12.5663  -20.9480 C   0  0  0  0  0  0  0  0  0  0  0  0
  -18.9797   13.5710  -21.4514 O   0  0  0  0  0  0  0  0  0  0  0  0
  -17.9165   11.2242  -19.4278 H   0  0  0  0  0  0  0  0  0  0  0  0
  -17.7430   11.7773  -21.9015 O   0  0  0  0  0  0  0  0  0  0  0  0
  -16.4136   12.0528  -22.2592 C   0  0  0  0  0  0  0  0  0  0  0  0
  -16.2559   12.9168  -23.4229 C   0  0  0  0  0  0  0  0  0  0  0  0
  -17.2950   13.0326  -24.3407 C   0  0  0  0  0  0  0  0  0  0  0  0
  -17.2169   13.8206  -25.4597 C   0  0  0  0  0  0  0  0  0  0  0  0
  -16.0557   14.5463  -25.7094 C   0  0  0  0  0  0  0  0  0  0  0  0
  -15.0172   14.4380  -24.8027 C   0  0  0  0  0  0  0  0  0  0  0  0
  -15.1132   13.6391  -23.6798 C   0  0  0  0  0  0  0  0  0  0  0  0
  -19.0313   11.7681  -17.3131 C   0  0  0  0  0  0  0  0  0  0  0  0
  -20.4000   11.4654  -16.7204 C   0  0  0  0  0  0  0  0  0  0  0  0
  -18.9880    9.2629  -17.0365 C   0  0  0  0  0  0  0  0  0  0  0  0
  -18.5492   10.4407  -17.8850 C   0  0  0  0  0  0  0  0  0  0  0  0
  -17.1734   17.0134  -19.6003 C   0  0  0  0  0  0  0  0  0  0  0  0
  -16.7813   16.1024  -20.7178 C   0  0  0  0  0  0  0  0  0  0  0  0
  -17.5324   16.4454  -21.9812 C   0  0  0  0  0  0  0  0  0  0  0  0
  -16.9045   16.7790  -23.0088 O   0  0  0  0  0  0  0  0  0  0  0  0
  -18.9218   16.4035  -22.0516 O   0  0  0  0  0  0  0  0  0  0  0  0
  -19.4251   16.2109  -22.8857 H   0  0  0  0  0  0  0  0  0  0  0  0
 44 45  1  0  0  0
 45 42  1  0  0  0
 42 43  1  0  0  0
 42 29  1  0  0  0
 29 30  1  0  0  0
 30 31  1  0  0  0
 31 32  2  0  0  0
 31 34  1  0  0  0
 34 35  1  0  0  0
 35 36  1  0  0  0
 36 37  2  0  0  0
 37 38  1  0  0  0
 38 39  2  0  0  0
 39 40  1  0  0  0
 40 41  2  0  0  0
 29 25  1  0  0  0
 25 26  2  0  0  0
 25 27  1  0  0  0
 27  1  1  0  0  0
  1 46  1  0  0  0
 46 47  1  0  0  0
 47 48  1  0  0  0
 48 49  2  0  0  0
 48 50  1  0  0  0
  1  2  1  0  0  0
  2  3  2  0  0  0
  2  4  1  0  0  0
  4  5  1  0  0  0
  5  6  1  0  0  0
  6  7  1  0  0  0
  7  8  1  0  0  0
  8  9  1  0  0  0
  9 10  2  0  0  0
  9 11  1  0  0  0
 11 13  1  0  0  0
 13 18  1  0  0  0
 18 19  1  0  0  0
 19 20  2  0  0  0
 20 21  1  0  0  0
 21 22  2  0  0  0
 22 23  1  0  0  0
 23 24  2  0  0  0
 13 14  1  0  0  0
 14 15  2  0  0  0
 14 16  1  0  0  0
 16 17  1  0  0  0
 41 36  1  0  0  0
  8  4  1  0  0  0
 24 19  1  0  0  0
 30 33  1  0  0  0
 27 28  1  0  0  0
 50 51  1  0  0  0
 11 12  1  0  0  0
M  END
> <minimizedAffinity>
-7.78032

> <CNNscore>
0.2088394910

> <CNNaffinity>
6.8979444504

> <CNN_VS>
1.4405632019

> <CNNaffinity_variance>
0.3606176674

$$$$
[H]OC(=O)C([H])([H])C([H])([H])[C@@]([H])(C(=O)N1C([H])([H])C([H])([H])C([H])([H])[C@@]1([H])C(=O)N([H])[C@]([H])(C(=O)OC([H])([H])[H])C([H])([H])c1c([H])c([H])c([H])c([H])c1[H])N([H])C(=O)[C@@]([H])(N([H])C(=O)OC([H])([H])c1c([H])c([H])c([H])c([H])c1[H])[C@@]([H])(C([H])([H])[H])C([H])([H])C([H])([H])[H]


 51 53  0  0  0  0  0  0  0  0999 V2000
  -21.5088   19.4564  -17.9836 C   0  0  0  0  0  0  0  0  0  0  0  0
  -22.3448   18.3646  -17.5718 C   0  0  0  0  0  0  0  0  0  0  0  0
  -23.6495   18.6812  -17.7934 O   0  0  0  0  0  0  0  0  0  0  0  0
  -22.2467   17.1058  -17.0180 N   0  0  0  0  0  0  0  0  0  0  0  0
  -23.4471   16.2544  -16.7787 C   0  0  0  0  0  0  0  0  0  0  0  0
  -23.2631   15.9433  -15.3081 C   0  0  0  0  0  0  0  0  0  0  0  0
  -21.7902   15.7421  -15.1936 C   0  0  0  0  0  0  0  0  0  0  0  0
  -21.1892   16.3206  -16.5013 C   0  0  0  0  0  0  0  0  0  0  0  0
  -20.8078   15.1379  -17.2910 C   0  0  0  0  0  0  0  0  0  0  0  0
  -20.9825   15.1194  -18.5208 O   0  0  0  0  0  0  0  0  0  0  0  0
  -20.2407   14.0142  -16.6423 N   0  0  0  0  0  0  0  0  0  0  0  0
  -20.0647   13.9886  -15.6148 H   0  0  0  0  0  0  0  0  0  0  0  0
  -19.8831   12.8253  -17.4415 C   0  0  0  0  0  0  0  0  0  0  0  0
  -20.2761   11.5985  -16.7379 C   0  0  0  0  0  0  0  0  0  0  0  0
  -19.4230   10.6409  -16.6206 O   0  0  0  0  0  0  0  0  0  0  0  0
  -21.4926   11.3677  -16.1758 O   0  0  0  0  0  0  0  0  0  0  0  0
  -21.6796   11.2945  -14.7538 C   0  0  0  0  0  0  0  0  0  0  0  0
  -18.4101   12.8580  -17.6914 C   0  0  0  0  0  0  0  0  0  0  0  0
  -17.9679   12.5271  -19.0399 C   0  0  0  0  0  0  0  0  0  0  0  0
  -18.3054   13.4243  -20.0508 C   0  0  0  0  0  0  0  0  0  0  0  0
  -17.8885   13.1579  -21.3232 C   0  0  0  0  0  0  0  0  0  0  0  0
  -17.1487   12.0381  -21.6406 C   0  0  0  0  0  0  0  0  0  0  0  0
  -16.8247   11.1543  -20.5954 C   0  0  0  0  0  0  0  0  0  0  0  0
  -17.2331   11.4049  -19.3247 C   0  0  0  0  0  0  0  0  0  0  0  0
  -20.9380   18.9858  -20.4185 C   0  0  0  0  0  0  0  0  0  0  0  0
  -19.8693   18.4346  -19.9616 O   0  0  0  0  0  0  0  0  0  0  0  0
  -21.8216   19.5274  -19.4835 N   0  0  0  0  0  0  0  0  0  0  0  0
  -22.7048   19.9943  -19.7591 H   0  0  0  0  0  0  0  0  0  0  0  0
  -21.0851   18.9802  -21.8595 C   0  0  0  0  0  0  0  0  0  0  0  0
  -19.9764   18.3559  -22.5343 N   0  0  0  0  0  0  0  0  0  0  0  0
  -19.0360   18.9044  -23.4146 C   0  0  0  0  0  0  0  0  0  0  0  0
  -18.9500   20.0764  -23.8252 O   0  0  0  0  0  0  0  0  0  0  0  0
  -19.8385   17.2961  -22.3375 H   0  0  0  0  0  0  0  0  0  0  0  0
  -18.0234   18.0573  -23.9441 O   0  0  0  0  0  0  0  0  0  0  0  0
  -17.3646   17.1035  -23.1520 C   0  0  0  0  0  0  0  0  0  0  0  0
  -17.1021   15.8305  -23.8126 C   0  0  0  0  0  0  0  0  0  0  0  0
  -18.1447   15.1471  -24.4301 C   0  0  0  0  0  0  0  0  0  0  0  0
  -17.9747   13.9442  -25.0653 C   0  0  0  0  0  0  0  0  0  0  0  0
  -16.7113   13.3616  -25.1068 C   0  0  0  0  0  0  0  0  0  0  0  0
  -15.6683   14.0335  -24.4960 C   0  0  0  0  0  0  0  0  0  0  0  0
  -15.8576   15.2453  -23.8604 C   0  0  0  0  0  0  0  0  0  0  0  0
  -22.3717   18.3951  -22.3981 C   0  0  0  0  0  0  0  0  0  0  0  0
  -23.5095   19.4030  -22.4732 C   0  0  0  0  0  0  0  0  0  0  0  0
  -23.3733   18.0036  -24.6780 C   0  0  0  0  0  0  0  0  0  0  0  0
  -22.1068   17.9940  -23.8440 C   0  0  0  0  0  0  0  0  0  0  0  0
  -21.4938   20.8047  -17.4552 C   0  0  0  0  0  0  0  0  0  0  0  0
  -20.9296   21.0718  -16.0977 C   0  0  0  0  0  0  0  0  0  0  0  0
  -20.4962   22.5117  -15.9683 C   0  0  0  0  0  0  0  0  0  0  0  0
  -20.4718   23.2487  -16.9771 O   0  0  0  0  0  0  0  0  0  0  0  0
  -20.1166   23.0643  -14.7485 O   0  0  0  0  0  0  0  0  0  0  0  0
  -20.2249   24.0250  -14.5220 H   0  0  0  0  0  0  0  0  0  0  0  0
 44 45  1  0  0  0
 45 42  1  0  0  0
 42 43  1  0  0  0
 42 29  1  0  0  0
 29 30  1  0  0  0
 30 31  1  0  0  0
 31 32  2  0  0  0
 31 34  1  0  0  0
 34 35  1  0  0  0
 35 36  1  0  0  0
 36 37  2  0  0  0
 37 38  1  0  0  0
 38 39  2  0  0  0
 39 40  1  0  0  0
 40 41  2  0  0  0
 29 25  1  0  0  0
 25 26  2  0  0  0
 25 27  1  0  0  0
 27  1  1  0  0  0
  1 46  1  0  0  0
 46 47  1  0  0  0
 47 48  1  0  0  0
 48 49  2  0  0  0
 48 50  1  0  0  0
  1  2  1  0  0  0
  2  3  2  0  0  0
  2  4  1  0  0  0
  4  5  1  0  0  0
  5  6  1  0  0  0
  6  7  1  0  0  0
  7  8  1  0  0  0
  8  9  1  0  0  0
  9 10  2  0  0  0
  9 11  1  0  0  0
 11 13  1  0  0  0
 13 18  1  0  0  0
 18 19  1  0  0  0
 19 20  2  0  0  0
 20 21  1  0  0  0
 21 22  2  0  0  0
 22 23  1  0  0  0
 23 24  2  0  0  0
 13 14  1  0  0  0
 14 15  2  0  0  0
 14 16  1  0  0  0
 16 17  1  0  0  0
 41 36  1  0  0  0
  8  4  1  0  0  0
 24 19  1  0  0  0
 30 33  1  0  0  0
 27 28  1  0  0  0
 50 51  1  0  0  0
 11 12  1  0  0  0
M  END
> <minimizedAffinity>
-7.34468

> <CNNscore>
0.2037000805

> <CNNaffinity>
7.0902643204

> <CNN_VS>
1.4442874193

> <CNNaffinity_variance>
0.0638099462

$$$$
[H]OC(=O)C([H])([H])C([H])([H])[C@@]([H])(C(=O)N1C([H])([H])C([H])([H])C([H])([H])[C@@]1([H])C(=O)N([H])[C@]([H])(C(=O)OC([H])([H])[H])C([H])([H])c1c([H])c([H])c([H])c([H])c1[H])N([H])C(=O)[C@@]([H])(N([H])C(=O)OC([H])([H])c1c([H])c([H])c([H])c([H])c1[H])[C@@]([H])(C([H])([H])[H])C([H])([H])C([H])([H])[H]


 51 53  0  0  0  0  0  0  0  0999 V2000
  -18.7352   12.6821  -20.3571 C   0  0  0  0  0  0  0  0  0  0  0  0
  -18.6895   12.8215  -18.9292 C   0  0  0  0  0  0  0  0  0  0  0  0
  -17.4359   12.5359  -18.4836 O   0  0  0  0  0  0  0  0  0  0  0  0
  -19.5107   13.1436  -17.8695 N   0  0  0  0  0  0  0  0  0  0  0  0
  -19.0035   13.2011  -16.4686 C   0  0  0  0  0  0  0  0  0  0  0  0
  -19.9865   12.2688  -15.7919 C   0  0  0  0  0  0  0  0  0  0  0  0
  -21.2765   12.6064  -16.4589 C   0  0  0  0  0  0  0  0  0  0  0  0
  -20.8905   13.4197  -17.7220 C   0  0  0  0  0  0  0  0  0  0  0  0
  -21.2467   14.8099  -17.3930 C   0  0  0  0  0  0  0  0  0  0  0  0
  -22.1257   15.0513  -16.5489 O   0  0  0  0  0  0  0  0  0  0  0  0
  -20.5837   15.8774  -18.0457 N   0  0  0  0  0  0  0  0  0  0  0  0
  -19.8320   15.7235  -18.7519 H   0  0  0  0  0  0  0  0  0  0  0  0
  -20.9651   17.2669  -17.7239 C   0  0  0  0  0  0  0  0  0  0  0  0
  -21.3227   17.9958  -18.9468 C   0  0  0  0  0  0  0  0  0  0  0  0
  -20.6523   19.0467  -19.2704 O   0  0  0  0  0  0  0  0  0  0  0  0
  -22.3238   17.6565  -19.8022 O   0  0  0  0  0  0  0  0  0  0  0  0
  -23.7098   17.8322  -19.4698 C   0  0  0  0  0  0  0  0  0  0  0  0
  -19.8151   17.9153  -17.0237 C   0  0  0  0  0  0  0  0  0  0  0  0
  -20.1018   18.5478  -15.7426 C   0  0  0  0  0  0  0  0  0  0  0  0
  -20.4235   19.9030  -15.7679 C   0  0  0  0  0  0  0  0  0  0  0  0
  -20.7198   20.5236  -14.5885 C   0  0  0  0  0  0  0  0  0  0  0  0
  -20.7124   19.8591  -13.3800 C   0  0  0  0  0  0  0  0  0  0  0  0
  -20.3844   18.4913  -13.3913 C   0  0  0  0  0  0  0  0  0  0  0  0
  -20.0860   17.8602  -14.5563 C   0  0  0  0  0  0  0  0  0  0  0  0
  -18.9669   15.1376  -20.9836 C   0  0  0  0  0  0  0  0  0  0  0  0
  -20.2213   14.9811  -20.7457 O   0  0  0  0  0  0  0  0  0  0  0  0
  -18.1447   14.0231  -20.8107 N   0  0  0  0  0  0  0  0  0  0  0  0
  -17.1232   14.0539  -20.9827 H   0  0  0  0  0  0  0  0  0  0  0  0
  -18.5657   16.4620  -21.4121 C   0  0  0  0  0  0  0  0  0  0  0  0
  -19.6830   17.3021  -21.7584 N   0  0  0  0  0  0  0  0  0  0  0  0
  -19.7510   18.3897  -22.6373 C   0  0  0  0  0  0  0  0  0  0  0  0
  -18.8411   18.8890  -23.3247 O   0  0  0  0  0  0  0  0  0  0  0  0
  -20.6236   17.0648  -21.2685 H   0  0  0  0  0  0  0  0  0  0  0  0
  -20.9980   19.0533  -22.8051 O   0  0  0  0  0  0  0  0  0  0  0  0
  -22.1819   18.3500  -23.0790 C   0  0  0  0  0  0  0  0  0  0  0  0
  -22.6640   18.4672  -24.4500 C   0  0  0  0  0  0  0  0  0  0  0  0
  -23.1318   17.3381  -25.1145 C   0  0  0  0  0  0  0  0  0  0  0  0
  -23.5948   17.3705  -26.4044 C   0  0  0  0  0  0  0  0  0  0  0  0
  -23.6067   18.5761  -27.1000 C   0  0  0  0  0  0  0  0  0  0  0  0
  -23.1439   19.7043  -26.4479 C   0  0  0  0  0  0  0  0  0  0  0  0
  -22.6809   19.6533  -25.1473 C   0  0  0  0  0  0  0  0  0  0  0  0
  -17.6604   17.2240  -20.4699 C   0  0  0  0  0  0  0  0  0  0  0  0
  -17.2477   16.4198  -19.2455 C   0  0  0  0  0  0  0  0  0  0  0  0
  -16.2191   16.6057  -22.4434 C   0  0  0  0  0  0  0  0  0  0  0  0
  -16.3613   17.4907  -21.2202 C   0  0  0  0  0  0  0  0  0  0  0  0
  -18.1494   11.6292  -21.1604 C   0  0  0  0  0  0  0  0  0  0  0  0
  -16.7201   11.7183  -21.5867 C   0  0  0  0  0  0  0  0  0  0  0  0
  -15.9328   10.5332  -21.0831 C   0  0  0  0  0  0  0  0  0  0  0  0
  -16.3819    9.8389  -20.1462 O   0  0  0  0  0  0  0  0  0  0  0  0
  -14.7045   10.1734  -21.6299 O   0  0  0  0  0  0  0  0  0  0  0  0
  -14.3613    9.2418  -21.6470 H   0  0  0  0  0  0  0  0  0  0  0  0
 44 45  1  0  0  0
 45 42  1  0  0  0
 42 43  1  0  0  0
 42 29  1  0  0  0
 29 30  1  0  0  0
 30 31  1  0  0  0
 31 32  2  0  0  0
 31 34  1  0  0  0
 34 35  1  0  0  0
 35 36  1  0  0  0
 36 37  2  0  0  0
 37 38  1  0  0  0
 38 39  2  0  0  0
 39 40  1  0  0  0
 40 41  2  0  0  0
 29 25  1  0  0  0
 25 26  2  0  0  0
 25 27  1  0  0  0
 27  1  1  0  0  0
  1 46  1  0  0  0
 46 47  1  0  0  0
 47 48  1  0  0  0
 48 49  2  0  0  0
 48 50  1  0  0  0
  1  2  1  0  0  0
  2  3  2  0  0  0
  2  4  1  0  0  0
  4  5  1  0  0  0
  5  6  1  0  0  0
  6  7  1  0  0  0
  7  8  1  0  0  0
  8  9  1  0  0  0
  9 10  2  0  0  0
  9 11  1  0  0  0
 11 13  1  0  0  0
 13 18  1  0  0  0
 18 19  1  0  0  0
 19 20  2  0  0  0
 20 21  1  0  0  0
 21 22  2  0  0  0
 22 23  1  0  0  0
 23 24  2  0  0  0
 13 14  1  0  0  0
 14 15  2  0  0  0
 14 16  1  0  0  0
 16 17  1  0  0  0
 41 36  1  0  0  0
  8  4  1  0  0  0
 24 19  1  0  0  0
 30 33  1  0  0  0
 27 28  1  0  0  0
 50 51  1  0  0  0
 11 12  1  0  0  0
M  END
> <minimizedAffinity>
-7.33980

> <CNNscore>
0.1883027703

> <CNNaffinity>
6.6813836098

> <CNN_VS>
1.2581230402

> <CNNaffinity_variance>
0.4767788053

$$$$
[H]OC(=O)C([H])([H])C([H])([H])[C@@]([H])(C(=O)N1C([H])([H])C([H])([H])C([H])([H])[C@@]1([H])C(=O)N([H])[C@]([H])(C(=O)OC([H])([H])[H])C([H])([H])c1c([H])c([H])c([H])c([H])c1[H])N([H])C(=O)[C@@]([H])(N([H])C(=O)OC([H])([H])c1c([H])c([H])c([H])c([H])c1[H])[C@@]([H])(C([H])([H])[H])C([H])([H])C([H])([H])[H]


 51 53  0  0  0  0  0  0  0  0999 V2000
  -20.2300   16.0412  -16.8409 C   0  0  0  0  0  0  0  0  0  0  0  0
  -21.6005   15.7696  -16.5116 C   0  0  0  0  0  0  0  0  0  0  0  0
  -22.4120   16.6073  -17.2126 O   0  0  0  0  0  0  0  0  0  0  0  0
  -22.3522   14.9386  -15.7082 N   0  0  0  0  0  0  0  0  0  0  0  0
  -23.8426   14.9794  -15.7082 C   0  0  0  0  0  0  0  0  0  0  0  0
  -24.1029   15.1721  -14.2288 C   0  0  0  0  0  0  0  0  0  0  0  0
  -23.0738   14.2990  -13.5948 C   0  0  0  0  0  0  0  0  0  0  0  0
  -22.0585   13.9695  -14.7201 C   0  0  0  0  0  0  0  0  0  0  0  0
  -22.3386   12.5685  -15.0759 C   0  0  0  0  0  0  0  0  0  0  0  0
  -21.7097   12.0144  -15.9930 O   0  0  0  0  0  0  0  0  0  0  0  0
  -23.3332   11.8504  -14.3687 N   0  0  0  0  0  0  0  0  0  0  0  0
  -23.8780   12.2699  -13.5847 H   0  0  0  0  0  0  0  0  0  0  0  0
  -23.6209   10.4532  -14.7494 C   0  0  0  0  0  0  0  0  0  0  0  0
  -25.0629   10.1890  -14.6753 C   0  0  0  0  0  0  0  0  0  0  0  0
  -25.8899   11.1519  -14.8926 O   0  0  0  0  0  0  0  0  0  0  0  0
  -25.6301    8.9857  -14.3936 O   0  0  0  0  0  0  0  0  0  0  0  0
  -26.4720    8.7834  -13.2478 C   0  0  0  0  0  0  0  0  0  0  0  0
  -22.8578    9.5539  -13.8317 C   0  0  0  0  0  0  0  0  0  0  0  0
  -21.5233    9.1588  -14.2634 C   0  0  0  0  0  0  0  0  0  0  0  0
  -20.4603    9.5330  -13.4444 C   0  0  0  0  0  0  0  0  0  0  0  0
  -19.1977    9.1606  -13.8061 C   0  0  0  0  0  0  0  0  0  0  0  0
  -18.9395    8.4305  -14.9473 C   0  0  0  0  0  0  0  0  0  0  0  0
  -20.0361    8.0686  -15.7504 C   0  0  0  0  0  0  0  0  0  0  0  0
  -21.2979    8.4326  -15.4046 C   0  0  0  0  0  0  0  0  0  0  0  0
  -18.9750   14.1415  -17.9775 C   0  0  0  0  0  0  0  0  0  0  0  0
  -18.2393   14.1242  -16.9225 O   0  0  0  0  0  0  0  0  0  0  0  0
  -20.0058   15.0818  -18.0164 N   0  0  0  0  0  0  0  0  0  0  0  0
  -20.6458   15.1716  -18.8266 H   0  0  0  0  0  0  0  0  0  0  0  0
  -18.6311   13.1782  -19.0033 C   0  0  0  0  0  0  0  0  0  0  0  0
  -17.8740   13.7554  -20.0839 N   0  0  0  0  0  0  0  0  0  0  0  0
  -18.2536   14.7042  -21.0407 C   0  0  0  0  0  0  0  0  0  0  0  0
  -19.3551   15.2675  -21.1793 O   0  0  0  0  0  0  0  0  0  0  0  0
  -16.8486   13.4089  -20.1814 H   0  0  0  0  0  0  0  0  0  0  0  0
  -17.2971   15.1147  -22.0102 O   0  0  0  0  0  0  0  0  0  0  0  0
  -16.5041   14.1899  -22.7082 C   0  0  0  0  0  0  0  0  0  0  0  0
  -16.1193   14.6007  -24.0531 C   0  0  0  0  0  0  0  0  0  0  0  0
  -16.9509   14.3041  -25.1282 C   0  0  0  0  0  0  0  0  0  0  0  0
  -16.6526   14.6532  -26.4199 C   0  0  0  0  0  0  0  0  0  0  0  0
  -15.4702   15.3356  -26.6917 C   0  0  0  0  0  0  0  0  0  0  0  0
  -14.6371   15.6353  -25.6294 C   0  0  0  0  0  0  0  0  0  0  0  0
  -14.9536   15.2758  -24.3336 C   0  0  0  0  0  0  0  0  0  0  0  0
  -17.9270   11.9244  -18.5340 C   0  0  0  0  0  0  0  0  0  0  0  0
  -18.8563   10.9256  -17.8596 C   0  0  0  0  0  0  0  0  0  0  0  0
  -16.1049   10.4927  -19.5263 C   0  0  0  0  0  0  0  0  0  0  0  0
  -17.4180   11.2080  -19.7788 C   0  0  0  0  0  0  0  0  0  0  0  0
  -19.6395   17.3205  -17.1756 C   0  0  0  0  0  0  0  0  0  0  0  0
  -18.9188   18.1098  -16.1315 C   0  0  0  0  0  0  0  0  0  0  0  0
  -19.8022   18.3488  -14.9314 C   0  0  0  0  0  0  0  0  0  0  0  0
  -20.7061   19.2100  -14.9841 O   0  0  0  0  0  0  0  0  0  0  0  0
  -19.6504   17.6353  -13.7460 O   0  0  0  0  0  0  0  0  0  0  0  0
  -20.3965   17.4442  -13.1192 H   0  0  0  0  0  0  0  0  0  0  0  0
 44 45  1  0  0  0
 45 42  1  0  0  0
 42 43  1  0  0  0
 42 29  1  0  0  0
 29 30  1  0  0  0
 30 31  1  0  0  0
 31 32  2  0  0  0
 31 34  1  0  0  0
 34 35  1  0  0  0
 35 36  1  0  0  0
 36 37  2  0  0  0
 37 38  1  0  0  0
 38 39  2  0  0  0
 39 40  1  0  0  0
 40 41  2  0  0  0
 29 25  1  0  0  0
 25 26  2  0  0  0
 25 27  1  0  0  0
 27  1  1  0  0  0
  1 46  1  0  0  0
 46 47  1  0  0  0
 47 48  1  0  0  0
 48 49  2  0  0  0
 48 50  1  0  0  0
  1  2  1  0  0  0
  2  3  2  0  0  0
  2  4  1  0  0  0
  4  5  1  0  0  0
  5  6  1  0  0  0
  6  7  1  0  0  0
  7  8  1  0  0  0
  8  9  1  0  0  0
  9 10  2  0  0  0
  9 11  1  0  0  0
 11 13  1  0  0  0
 13 18  1  0  0  0
 18 19  1  0  0  0
 19 20  2  0  0  0
 20 21  1  0  0  0
 21 22  2  0  0  0
 22 23  1  0  0  0
 23 24  2  0  0  0
 13 14  1  0  0  0
 14 15  2  0  0  0
 14 16  1  0  0  0
 16 17  1  0  0  0
 41 36  1  0  0  0
  8  4  1  0  0  0
 24 19  1  0  0  0
 30 33  1  0  0  0
 27 28  1  0  0  0
 50 51  1  0  0  0
 11 12  1  0  0  0
M  END
> <minimizedAffinity>
-6.98149

> <CNNscore>
0.1673629433

> <CNNaffinity>
6.5546188354

> <CNN_VS>
1.0970002413

> <CNNaffinity_variance>
0.2921468318

$$$$
[H]OC(=O)C([H])([H])C([H])([H])[C@@]([H])(C(=O)N1C([H])([H])C([H])([H])C([H])([H])[C@@]1([H])C(=O)N([H])[C@]([H])(C(=O)OC([H])([H])[H])C([H])([H])c1c([H])c([H])c([H])c([H])c1[H])N([H])C(=O)[C@@]([H])(N([H])C(=O)OC([H])([H])c1c([H])c([H])c([H])c([H])c1[H])[C@@]([H])(C([H])([H])[H])C([H])([H])C([H])([H])[H]


 51 53  0  0  0  0  0  0  0  0999 V2000
  -20.5312   14.6916  -18.4840 C   0  0  0  0  0  0  0  0  0  0  0  0
  -20.8526   16.0222  -18.0517 C   0  0  0  0  0  0  0  0  0  0  0  0
  -20.0649   16.3604  -16.9949 O   0  0  0  0  0  0  0  0  0  0  0  0
  -21.7076   17.0588  -18.3605 N   0  0  0  0  0  0  0  0  0  0  0  0
  -21.6716   18.3556  -17.6256 C   0  0  0  0  0  0  0  0  0  0  0  0
  -23.1230   18.4639  -17.2072 C   0  0  0  0  0  0  0  0  0  0  0  0
  -23.8517   17.9516  -18.4028 C   0  0  0  0  0  0  0  0  0  0  0  0
  -22.7812   17.2333  -19.2653 C   0  0  0  0  0  0  0  0  0  0  0  0
  -22.5407   18.1453  -20.3960 C   0  0  0  0  0  0  0  0  0  0  0  0
  -23.1695   19.2128  -20.4881 O   0  0  0  0  0  0  0  0  0  0  0  0
  -21.5879   17.8005  -21.3851 N   0  0  0  0  0  0  0  0  0  0  0  0
  -21.0284   16.9214  -21.3435 H   0  0  0  0  0  0  0  0  0  0  0  0
  -21.3716   18.7122  -22.5261 C   0  0  0  0  0  0  0  0  0  0  0  0
  -20.5729   19.8716  -22.1106 C   0  0  0  0  0  0  0  0  0  0  0  0
  -21.0227   21.0572  -22.3348 O   0  0  0  0  0  0  0  0  0  0  0  0
  -19.3654   19.8142  -21.4878 O   0  0  0  0  0  0  0  0  0  0  0  0
  -19.1903   20.2008  -20.1158 C   0  0  0  0  0  0  0  0  0  0  0  0
  -22.7080   19.1335  -23.0454 C   0  0  0  0  0  0  0  0  0  0  0  0
  -22.9582   18.9113  -24.4637 C   0  0  0  0  0  0  0  0  0  0  0  0
  -23.2817   17.6125  -24.8498 C   0  0  0  0  0  0  0  0  0  0  0  0
  -23.5445   17.3717  -26.1676 C   0  0  0  0  0  0  0  0  0  0  0  0
  -23.5018   18.3641  -27.1244 C   0  0  0  0  0  0  0  0  0  0  0  0
  -23.1731   19.6640  -26.6995 C   0  0  0  0  0  0  0  0  0  0  0  0
  -22.9078   19.9192  -25.3922 C   0  0  0  0  0  0  0  0  0  0  0  0
  -18.7522   15.3998  -20.1601 C   0  0  0  0  0  0  0  0  0  0  0  0
  -19.7360   15.7447  -20.9137 O   0  0  0  0  0  0  0  0  0  0  0  0
  -19.0681   14.8584  -18.9130 N   0  0  0  0  0  0  0  0  0  0  0  0
  -18.3420   14.5489  -18.2415 H   0  0  0  0  0  0  0  0  0  0  0  0
  -17.4296   15.6129  -20.7111 C   0  0  0  0  0  0  0  0  0  0  0  0
  -17.0740   14.6378  -21.7096 N   0  0  0  0  0  0  0  0  0  0  0  0
  -17.2018   13.2438  -21.6900 C   0  0  0  0  0  0  0  0  0  0  0  0
  -17.6538   12.5195  -20.7840 O   0  0  0  0  0  0  0  0  0  0  0  0
  -16.6386   15.0332  -22.6235 H   0  0  0  0  0  0  0  0  0  0  0  0
  -16.7720   12.5041  -22.8264 O   0  0  0  0  0  0  0  0  0  0  0  0
  -15.5231   12.7268  -23.4280 C   0  0  0  0  0  0  0  0  0  0  0  0
  -15.5321   13.6828  -24.5287 C   0  0  0  0  0  0  0  0  0  0  0  0
  -14.4319   14.5097  -24.7319 C   0  0  0  0  0  0  0  0  0  0  0  0
  -14.3712   15.4351  -25.7414 C   0  0  0  0  0  0  0  0  0  0  0  0
  -15.4467   15.5712  -26.6145 C   0  0  0  0  0  0  0  0  0  0  0  0
  -16.5450   14.7534  -26.4208 C   0  0  0  0  0  0  0  0  0  0  0  0
  -16.5891   13.8258  -25.3981 C   0  0  0  0  0  0  0  0  0  0  0  0
  -17.1487   16.9938  -21.2609 C   0  0  0  0  0  0  0  0  0  0  0  0
  -16.1308   17.7748  -20.4424 C   0  0  0  0  0  0  0  0  0  0  0  0
  -17.2637   17.5071  -23.7261 C   0  0  0  0  0  0  0  0  0  0  0  0
  -16.4943   16.8050  -22.6239 C   0  0  0  0  0  0  0  0  0  0  0  0
  -20.6481   13.4643  -17.7243 C   0  0  0  0  0  0  0  0  0  0  0  0
  -19.4368   12.8492  -17.1023 C   0  0  0  0  0  0  0  0  0  0  0  0
  -19.2617   11.4219  -17.5606 C   0  0  0  0  0  0  0  0  0  0  0  0
  -19.9751   10.5187  -17.0740 O   0  0  0  0  0  0  0  0  0  0  0  0
  -18.3217   11.0628  -18.5223 O   0  0  0  0  0  0  0  0  0  0  0  0
  -18.4302   10.2897  -19.1360 H   0  0  0  0  0  0  0  0  0  0  0  0
 44 45  1  0  0  0
 45 42  1  0  0  0
 42 43  1  0  0  0
 42 29  1  0  0  0
 29 30  1  0  0  0
 30 31  1  0  0  0
 31 32  2  0  0  0
 31 34  1  0  0  0
 34 35  1  0  0  0
 35 36  1  0  0  0
 36 37  2  0  0  0
 37 38  1  0  0  0
 38 39  2  0  0  0
 39 40  1  0  0  0
 40 41  2  0  0  0
 29 25  1  0  0  0
 25 26  2  0  0  0
 25 27  1  0  0  0
 27  1  1  0  0  0
  1 46  1  0  0  0
 46 47  1  0  0  0
 47 48  1  0  0  0
 48 49  2  0  0  0
 48 50  1  0  0  0
  1  2  1  0  0  0
  2  3  2  0  0  0
  2  4  1  0  0  0
  4  5  1  0  0  0
  5  6  1  0  0  0
  6  7  1  0  0  0
  7  8  1  0  0  0
  8  9  1  0  0  0
  9 10  2  0  0  0
  9 11  1  0  0  0
 11 13  1  0  0  0
 13 18  1  0  0  0
 18 19  1  0  0  0
 19 20  2  0  0  0
 20 21  1  0  0  0
 21 22  2  0  0  0
 22 23  1  0  0  0
 23 24  2  0  0  0
 13 14  1  0  0  0
 14 15  2  0  0  0
 14 16  1  0  0  0
 16 17  1  0  0  0
 41 36  1  0  0  0
  8  4  1  0  0  0
 24 19  1  0  0  0
 30 33  1  0  0  0
 27 28  1  0  0  0
 50 51  1  0  0  0
 11 12  1  0  0  0
M  END
> <minimizedAffinity>
-7.88469

> <CNNscore>
0.1653178185

> <CNNaffinity>
6.8217253685

> <CNN_VS>
1.1277527809

> <CNNaffinity_variance>
0.5173909664

$$$$
[H]Oc1c([H])c([H])c([H])c(C2([H])C([H])([H])N(C([H])([H])C([H])([H])C([H])([H])C([H])([H])C([H])([H])C([H])([H])C([H])([H])C([H])([H])C([H])([H])[H])C([H])([H])C2([H])[H])c1[H]


 22 23  0  0  0  0  0  0  0  0999 V2000
  -18.6194   15.8196  -21.4237 N   0  0  0  0  0  0  0  0  0  0  0  0
  -19.6163   15.3936  -20.4798 C   0  0  0  0  0  0  0  0  0  0  0  0
  -19.6287   13.8860  -20.5166 C   0  0  0  0  0  0  0  0  0  0  0  0
  -18.4280   13.5254  -21.3419 C   0  0  0  0  0  0  0  0  0  0  0  0
  -17.6033   14.7572  -21.3840 C   0  0  0  0  0  0  0  0  0  0  0  0
  -17.6956   12.3593  -20.7733 C   0  0  0  0  0  0  0  0  0  0  0  0
  -18.0443   11.9207  -19.5146 C   0  0  0  0  0  0  0  0  0  0  0  0
  -17.3914   10.8272  -18.9359 C   0  0  0  0  0  0  0  0  0  0  0  0
  -16.3946   10.1999  -19.6502 C   0  0  0  0  0  0  0  0  0  0  0  0
  -16.0658   10.6544  -20.8994 C   0  0  0  0  0  0  0  0  0  0  0  0
  -15.0605   10.0084  -21.5991 O   0  0  0  0  0  0  0  0  0  0  0  0
  -16.7065   11.7439  -21.4922 C   0  0  0  0  0  0  0  0  0  0  0  0
  -14.5658    9.2120  -21.2069 H   0  0  0  0  0  0  0  0  0  0  0  0
  -18.0294   17.0873  -21.1475 C   0  0  0  0  0  0  0  0  0  0  0  0
  -16.9706   17.5158  -22.1124 C   0  0  0  0  0  0  0  0  0  0  0  0
  -17.4603   17.7505  -23.4976 C   0  0  0  0  0  0  0  0  0  0  0  0
  -16.6292   17.1699  -24.5925 C   0  0  0  0  0  0  0  0  0  0  0  0
  -15.4186   16.3861  -24.0248 C   0  0  0  0  0  0  0  0  0  0  0  0
  -14.9538   15.3741  -24.9976 C   0  0  0  0  0  0  0  0  0  0  0  0
  -15.9294   14.6157  -25.7875 C   0  0  0  0  0  0  0  0  0  0  0  0
  -18.1251   13.7904  -25.0200 C   0  0  0  0  0  0  0  0  0  0  0  0
  -16.6779   13.4868  -25.1796 C   0  0  0  0  0  0  0  0  0  0  0  0
 21 22  1  0  0  0
 22 20  1  0  0  0
 20 19  1  0  0  0
 19 18  1  0  0  0
 18 17  1  0  0  0
 17 16  1  0  0  0
 16 15  1  0  0  0
 15 14  1  0  0  0
 14  1  1  0  0  0
  1  2  1  0  0  0
  2  3  1  0  0  0
  3  4  1  0  0  0
  4  6  1  0  0  0
  6  7  2  0  0  0
  7  8  1  0  0  0
  8  9  2  0  0  0
  9 10  1  0  0  0
 10 11  1  0  0  0
 10 12  2  0  0  0
  4  5  1  0  0  0
  5  1  1  0  0  0
 12  6  1  0  0  0
 11 13  1  0  0  0
M  END
> <minimizedAffinity>
-6.78711

> <CNNscore>
0.6630726457

> <CNNaffinity>
6.3841462135

> <CNN_VS>
4.2331528664

> <CNNaffinity_variance>
0.0099242944

$$$$
[H]Oc1c([H])c([H])c([H])c(C2([H])C([H])([H])N(C([H])([H])C([H])([H])C([H])([H])C([H])([H])C([H])([H])C([H])([H])C([H])([H])C([H])([H])C([H])([H])[H])C([H])([H])C2([H])[H])c1[H]


 22 23  0  0  0  0  0  0  0  0999 V2000
  -19.8438   15.6084  -20.0685 N   0  0  0  0  0  0  0  0  0  0  0  0
  -19.4773   15.8650  -18.7024 C   0  0  0  0  0  0  0  0  0  0  0  0
  -19.6173   14.5568  -17.9654 C   0  0  0  0  0  0  0  0  0  0  0  0
  -19.8398   13.5426  -19.0493 C   0  0  0  0  0  0  0  0  0  0  0  0
  -19.4250   14.2182  -20.3025 C   0  0  0  0  0  0  0  0  0  0  0  0
  -19.0835   12.2847  -18.7938 C   0  0  0  0  0  0  0  0  0  0  0  0
  -19.5040   11.4677  -17.7672 C   0  0  0  0  0  0  0  0  0  0  0  0
  -18.8321   10.2730  -17.4877 C   0  0  0  0  0  0  0  0  0  0  0  0
  -17.7434    9.9319  -18.2595 C   0  0  0  0  0  0  0  0  0  0  0  0
  -17.3444   10.7603  -19.2743 C   0  0  0  0  0  0  0  0  0  0  0  0
  -16.2472   10.3972  -20.0371 O   0  0  0  0  0  0  0  0  0  0  0  0
  -18.0027   11.9560  -19.5671 C   0  0  0  0  0  0  0  0  0  0  0  0
  -15.7365    9.5368  -19.8595 H   0  0  0  0  0  0  0  0  0  0  0  0
  -19.2479   16.4789  -21.0269 C   0  0  0  0  0  0  0  0  0  0  0  0
  -18.0705   15.9099  -21.7522 C   0  0  0  0  0  0  0  0  0  0  0  0
  -18.0125   16.2577  -23.1976 C   0  0  0  0  0  0  0  0  0  0  0  0
  -18.6596   15.2888  -24.1300 C   0  0  0  0  0  0  0  0  0  0  0  0
  -17.6032   14.5111  -24.9555 C   0  0  0  0  0  0  0  0  0  0  0  0
  -16.2776   15.1559  -24.8399 C   0  0  0  0  0  0  0  0  0  0  0  0
  -15.2098   14.8086  -25.7833 C   0  0  0  0  0  0  0  0  0  0  0  0
  -15.9898   15.4683  -28.0298 C   0  0  0  0  0  0  0  0  0  0  0  0
  -14.9547   15.6523  -26.9779 C   0  0  0  0  0  0  0  0  0  0  0  0
 21 22  1  0  0  0
 22 20  1  0  0  0
 20 19  1  0  0  0
 19 18  1  0  0  0
 18 17  1  0  0  0
 17 16  1  0  0  0
 16 15  1  0  0  0
 15 14  1  0  0  0
 14  1  1  0  0  0
  1  2  1  0  0  0
  2  3  1  0  0  0
  3  4  1  0  0  0
  4  6  1  0  0  0
  6  7  2  0  0  0
  7  8  1  0  0  0
  8  9  2  0  0  0
  9 10  1  0  0  0
 10 11  1  0  0  0
 10 12  2  0  0  0
  4  5  1  0  0  0
  5  1  1  0  0  0
 12  6  1  0  0  0
 11 13  1  0  0  0
M  END
> <minimizedAffinity>
-6.01828

> <CNNscore>
0.4917508364

> <CNNaffinity>
5.9788675308

> <CNN_VS>
2.9401130676

> <CNNaffinity_variance>
0.1616409719

$$$$
[H]Oc1c([H])c([H])c([H])c(C2([H])C([H])([H])N(C([H])([H])C([H])([H])C([H])([H])C([H])([H])C([H])([H])C([H])([H])C([H])([H])C([H])([H])C([H])([H])[H])C([H])([H])C2([H])[H])c1[H]


 22 23  0  0  0  0  0  0  0  0999 V2000
  -17.9756   16.2024  -19.6474 N   0  0  0  0  0  0  0  0  0  0  0  0
  -17.8390   17.5115  -20.2252 C   0  0  0  0  0  0  0  0  0  0  0  0
  -16.6955   17.4330  -21.2053 C   0  0  0  0  0  0  0  0  0  0  0  0
  -16.3890   15.9667  -21.3007 C   0  0  0  0  0  0  0  0  0  0  0  0
  -17.5735   15.2855  -20.7247 C   0  0  0  0  0  0  0  0  0  0  0  0
  -16.1086   15.5502  -22.7034 C   0  0  0  0  0  0  0  0  0  0  0  0
  -15.6270   16.4967  -23.5811 C   0  0  0  0  0  0  0  0  0  0  0  0
  -15.3430   16.1574  -24.9082 C   0  0  0  0  0  0  0  0  0  0  0  0
  -15.5550   14.8593  -25.3174 C   0  0  0  0  0  0  0  0  0  0  0  0
  -16.0345   13.9365  -24.4266 C   0  0  0  0  0  0  0  0  0  0  0  0
  -16.2400   12.6375  -24.8602 O   0  0  0  0  0  0  0  0  0  0  0  0
  -16.3234   14.2574  -23.0990 C   0  0  0  0  0  0  0  0  0  0  0  0
  -16.0449   12.3587  -25.8177 H   0  0  0  0  0  0  0  0  0  0  0  0
  -19.2836   15.8826  -19.1800 C   0  0  0  0  0  0  0  0  0  0  0  0
  -20.0305   14.8943  -20.0175 C   0  0  0  0  0  0  0  0  0  0  0  0
  -20.3591   13.6219  -19.3199 C   0  0  0  0  0  0  0  0  0  0  0  0
  -19.8680   13.4998  -17.9160 C   0  0  0  0  0  0  0  0  0  0  0  0
  -18.4819   12.8083  -17.8629 C   0  0  0  0  0  0  0  0  0  0  0  0
  -18.5989   11.3830  -18.2389 C   0  0  0  0  0  0  0  0  0  0  0  0
  -17.4935   10.7165  -18.9352 C   0  0  0  0  0  0  0  0  0  0  0  0
  -15.9835   10.3305  -20.8487 C   0  0  0  0  0  0  0  0  0  0  0  0
  -17.0313   11.2055  -20.2585 C   0  0  0  0  0  0  0  0  0  0  0  0
 21 22  1  0  0  0
 22 20  1  0  0  0
 20 19  1  0  0  0
 19 18  1  0  0  0
 18 17  1  0  0  0
 17 16  1  0  0  0
 16 15  1  0  0  0
 15 14  1  0  0  0
 14  1  1  0  0  0
  1  2  1  0  0  0
  2  3  1  0  0  0
  3  4  1  0  0  0
  4  6  1  0  0  0
  6  7  2  0  0  0
  7  8  1  0  0  0
  8  9  2  0  0  0
  9 10  1  0  0  0
 10 11  1  0  0  0
 10 12  2  0  0  0
  4  5  1  0  0  0
  5  1  1  0  0  0
 12  6  1  0  0  0
 11 13  1  0  0  0
M  END
> <minimizedAffinity>
-6.23685

> <CNNscore>
0.4642609954

> <CNNaffinity>
5.9878540039

> <CNN_VS>
2.7799270153

> <CNNaffinity_variance>
0.1165923700

$$$$
[H]Oc1c([H])c([H])c([H])c(C2([H])C([H])([H])N(C([H])([H])C([H])([H])C([H])([H])C([H])([H])C([H])([H])C([H])([H])C([H])([H])C([H])([H])C([H])([H])[H])C([H])([H])C2([H])[H])c1[H]


 22 23  0  0  0  0  0  0  0  0999 V2000
  -18.1316   14.1553  -22.1572 N   0  0  0  0  0  0  0  0  0  0  0  0
  -16.9108   13.4061  -22.0366 C   0  0  0  0  0  0  0  0  0  0  0  0
  -16.4843   13.0480  -23.4380 C   0  0  0  0  0  0  0  0  0  0  0  0
  -17.4002   13.8460  -24.3196 C   0  0  0  0  0  0  0  0  0  0  0  0
  -17.9917   14.8759  -23.4317 C   0  0  0  0  0  0  0  0  0  0  0  0
  -16.6767   14.4325  -25.4824 C   0  0  0  0  0  0  0  0  0  0  0  0
  -17.0797   14.0735  -26.7500 C   0  0  0  0  0  0  0  0  0  0  0  0
  -16.4373   14.5985  -27.8764 C   0  0  0  0  0  0  0  0  0  0  0  0
  -15.3954   15.4803  -27.6909 C   0  0  0  0  0  0  0  0  0  0  0  0
  -15.0131   15.8218  -26.4211 C   0  0  0  0  0  0  0  0  0  0  0  0
  -13.9632   16.7100  -26.2587 O   0  0  0  0  0  0  0  0  0  0  0  0
  -15.6425   15.3076  -25.2861 C   0  0  0  0  0  0  0  0  0  0  0  0
  -13.4748   17.1085  -27.0557 H   0  0  0  0  0  0  0  0  0  0  0  0
  -18.3879   15.0672  -21.0922 C   0  0  0  0  0  0  0  0  0  0  0  0
  -19.7616   14.9863  -20.5071 C   0  0  0  0  0  0  0  0  0  0  0  0
  -20.1581   13.6251  -20.0561 C   0  0  0  0  0  0  0  0  0  0  0  0
  -20.2974   13.4390  -18.5821 C   0  0  0  0  0  0  0  0  0  0  0  0
  -19.0910   12.6619  -17.9965 C   0  0  0  0  0  0  0  0  0  0  0  0
  -18.4623   11.8201  -19.0370 C   0  0  0  0  0  0  0  0  0  0  0  0
  -17.4732   10.8055  -18.6589 C   0  0  0  0  0  0  0  0  0  0  0  0
  -16.2726   10.0360  -20.6732 C   0  0  0  0  0  0  0  0  0  0  0  0
  -16.1671   10.7269  -19.3604 C   0  0  0  0  0  0  0  0  0  0  0  0
 21 22  1  0  0  0
 22 20  1  0  0  0
 20 19  1  0  0  0
 19 18  1  0  0  0
 18 17  1  0  0  0
 17 16  1  0  0  0
 16 15  1  0  0  0
 15 14  1  0  0  0
 14  1  1  0  0  0
  1  2  1  0  0  0
  2  3  1  0  0  0
  3  4  1  0  0  0
  4  6  1  0  0  0
  6  7  2  0  0  0
  7  8  1  0  0  0
  8  9  2  0  0  0
  9 10  1  0  0  0
 10 11  1  0  0  0
 10 12  2  0  0  0
  4  5  1  0  0  0
  5  1  1  0  0  0
 12  6  1  0  0  0
 11 13  1  0  0  0
M  END
> <minimizedAffinity>
-7.08126

> <CNNscore>
0.4421429336

> <CNNaffinity>
6.0358805656

> <CNN_VS>
2.6687219143

> <CNNaffinity_variance>
0.1980379075

$$$$
[H]Oc1c([H])c([H])c([H])c(C2([H])C([H])([H])N(C([H])([H])C([H])([H])C([H])([H])C([H])([H])C([H])([H])C([H])([H])C([H])([H])C([H])([H])C([H])([H])[H])C([H])([H])C2([H])[H])c1[H]


 22 23  0  0  0  0  0  0  0  0999 V2000
  -16.3727   15.5378  -21.7018 N   0  0  0  0  0  0  0  0  0  0  0  0
  -16.6227   16.8244  -22.2920 C   0  0  0  0  0  0  0  0  0  0  0  0
  -16.0604   16.7740  -23.6904 C   0  0  0  0  0  0  0  0  0  0  0  0
  -15.7181   15.3277  -23.9004 C   0  0  0  0  0  0  0  0  0  0  0  0
  -16.4437   14.5993  -22.8318 C   0  0  0  0  0  0  0  0  0  0  0  0
  -16.0867   14.8648  -25.2676 C   0  0  0  0  0  0  0  0  0  0  0  0
  -15.7987   15.6875  -26.3346 C   0  0  0  0  0  0  0  0  0  0  0  0
  -16.1195   15.2990  -27.6397 C   0  0  0  0  0  0  0  0  0  0  0  0
  -16.7284   14.0788  -27.8343 C   0  0  0  0  0  0  0  0  0  0  0  0
  -17.0047   13.2787  -26.7578 C   0  0  0  0  0  0  0  0  0  0  0  0
  -17.6172   12.0563  -26.9773 O   0  0  0  0  0  0  0  0  0  0  0  0
  -16.6917   13.6503  -25.4490 C   0  0  0  0  0  0  0  0  0  0  0  0
  -17.8643   11.7449  -27.9125 H   0  0  0  0  0  0  0  0  0  0  0  0
  -17.2862   15.1566  -20.6762 C   0  0  0  0  0  0  0  0  0  0  0  0
  -18.5828   14.5920  -21.1619 C   0  0  0  0  0  0  0  0  0  0  0  0
  -18.9522   13.2869  -20.5504 C   0  0  0  0  0  0  0  0  0  0  0  0
  -19.5050   13.3465  -19.1656 C   0  0  0  0  0  0  0  0  0  0  0  0
  -18.5209   12.7287  -18.1398 C   0  0  0  0  0  0  0  0  0  0  0  0
  -18.7276   11.2681  -18.0379 C   0  0  0  0  0  0  0  0  0  0  0  0
  -17.6782   10.3471  -18.4867 C   0  0  0  0  0  0  0  0  0  0  0  0
  -16.3103   10.5819  -20.5274 C   0  0  0  0  0  0  0  0  0  0  0  0
  -16.4171   10.8680  -19.0719 C   0  0  0  0  0  0  0  0  0  0  0  0
 21 22  1  0  0  0
 22 20  1  0  0  0
 20 19  1  0  0  0
 19 18  1  0  0  0
 18 17  1  0  0  0
 17 16  1  0  0  0
 16 15  1  0  0  0
 15 14  1  0  0  0
 14  1  1  0  0  0
  1  2  1  0  0  0
  2  3  1  0  0  0
  3  4  1  0  0  0
  4  6  1  0  0  0
  6  7  2  0  0  0
  7  8  1  0  0  0
  8  9  2  0  0  0
  9 10  1  0  0  0
 10 11  1  0  0  0
 10 12  2  0  0  0
  4  5  1  0  0  0
  5  1  1  0  0  0
 12  6  1  0  0  0
 11 13  1  0  0  0
M  END
> <minimizedAffinity>
-7.25128

> <CNNscore>
0.3790232539

> <CNNaffinity>
5.9269967079

> <CNN_VS>
2.2464694977

> <CNNaffinity_variance>
0.3071284890

$$$$
[H]Oc1c([H])c([H])c([H])c(C2([H])C([H])([H])N(C([H])([H])C([H])([H])C([H])([H])C([H])([H])C([H])([H])C([H])([H])C([H])([H])C([H])([H])C([H])([H])[H])C([H])([H])C2([H])[H])c1[H]


 22 23  0  0  0  0  0  0  0  0999 V2000
  -19.9855   15.7373  -19.2990 N   0  0  0  0  0  0  0  0  0  0  0  0
  -19.2119   15.4108  -18.1323 C   0  0  0  0  0  0  0  0  0  0  0  0
  -18.8099   13.9641  -18.2723 C   0  0  0  0  0  0  0  0  0  0  0  0
  -19.1979   13.6058  -19.6773 C   0  0  0  0  0  0  0  0  0  0  0  0
  -19.4074   14.9035  -20.3637 C   0  0  0  0  0  0  0  0  0  0  0  0
  -18.1630   12.7629  -20.3392 C   0  0  0  0  0  0  0  0  0  0  0  0
  -17.7498   13.1122  -21.6062 C   0  0  0  0  0  0  0  0  0  0  0  0
  -16.7774   12.3574  -22.2710 C   0  0  0  0  0  0  0  0  0  0  0  0
  -16.2434   11.2599  -21.6327 C   0  0  0  0  0  0  0  0  0  0  0  0
  -16.6704   10.9326  -20.3734 C   0  0  0  0  0  0  0  0  0  0  0  0
  -16.1196    9.8250  -19.7510 O   0  0  0  0  0  0  0  0  0  0  0  0
  -17.6395   11.6742  -19.6953 C   0  0  0  0  0  0  0  0  0  0  0  0
  -15.4124    9.2550  -20.2067 H   0  0  0  0  0  0  0  0  0  0  0  0
  -19.9633   17.1126  -19.6725 C   0  0  0  0  0  0  0  0  0  0  0  0
  -18.9221   17.9377  -18.9862 C   0  0  0  0  0  0  0  0  0  0  0  0
  -17.9169   18.5433  -19.9007 C   0  0  0  0  0  0  0  0  0  0  0  0
  -16.8880   17.6126  -20.4503 C   0  0  0  0  0  0  0  0  0  0  0  0
  -17.0037   17.4926  -21.9912 C   0  0  0  0  0  0  0  0  0  0  0  0
  -16.1909   16.3605  -22.4855 C   0  0  0  0  0  0  0  0  0  0  0  0
  -16.2260   15.9994  -23.9065 C   0  0  0  0  0  0  0  0  0  0  0  0
  -14.3293   14.4252  -24.0284 C   0  0  0  0  0  0  0  0  0  0  0  0
  -14.9796   15.6245  -24.6205 C   0  0  0  0  0  0  0  0  0  0  0  0
 21 22  1  0  0  0
 22 20  1  0  0  0
 20 19  1  0  0  0
 19 18  1  0  0  0
 18 17  1  0  0  0
 17 16  1  0  0  0
 16 15  1  0  0  0
 15 14  1  0  0  0
 14  1  1  0  0  0
  1  2  1  0  0  0
  2  3  1  0  0  0
  3  4  1  0  0  0
  4  6  1  0  0  0
  6  7  2  0  0  0
  7  8  1  0  0  0
  8  9  2  0  0  0
  9 10  1  0  0  0
 10 11  1  0  0  0
 10 12  2  0  0  0
  4  5  1  0  0  0
  5  1  1  0  0  0
 12  6  1  0  0  0
 11 13  1  0  0  0
M  END
> <minimizedAffinity>
-5.87949

> <CNNscore>
0.3541879952

> <CNNaffinity>
5.9579725266

> <CNN_VS>
2.1102423668

> <CNNaffinity_variance>
0.0559509881

$$$$
[H]Oc1c([H])c([H])c([H])c(C2([H])C([H])([H])N(C([H])([H])C([H])([H])C([H])([H])C([H])([H])C([H])([H])C([H])([H])C([H])([H])C([H])([H])C([H])([H])[H])C([H])([H])C2([H])[H])c1[H]


 22 23  0  0  0  0  0  0  0  0999 V2000
  -18.3327   16.9987  -20.5602 N   0  0  0  0  0  0  0  0  0  0  0  0
  -19.2500   16.6620  -21.6144 C   0  0  0  0  0  0  0  0  0  0  0  0
  -18.4840   16.7838  -22.9078 C   0  0  0  0  0  0  0  0  0  0  0  0
  -17.0572   16.9637  -22.4781 C   0  0  0  0  0  0  0  0  0  0  0  0
  -17.0253   16.5433  -21.0564 C   0  0  0  0  0  0  0  0  0  0  0  0
  -16.1194   16.1825  -23.3324 C   0  0  0  0  0  0  0  0  0  0  0  0
  -15.7887   14.9045  -22.9383 C   0  0  0  0  0  0  0  0  0  0  0  0
  -14.9160   14.1263  -23.7064 C   0  0  0  0  0  0  0  0  0  0  0  0
  -14.3957   14.6645  -24.8627 C   0  0  0  0  0  0  0  0  0  0  0  0
  -14.7393   15.9372  -25.2335 C   0  0  0  0  0  0  0  0  0  0  0  0
  -14.2041   16.4577  -26.3998 O   0  0  0  0  0  0  0  0  0  0  0  0
  -15.6083   16.7278  -24.4793 C   0  0  0  0  0  0  0  0  0  0  0  0
  -13.5665   15.9193  -26.9797 H   0  0  0  0  0  0  0  0  0  0  0  0
  -18.6223   16.4069  -19.2963 C   0  0  0  0  0  0  0  0  0  0  0  0
  -18.1693   14.9902  -19.1426 C   0  0  0  0  0  0  0  0  0  0  0  0
  -19.2745   13.9996  -19.0397 C   0  0  0  0  0  0  0  0  0  0  0  0
  -19.4822   13.1250  -20.2309 C   0  0  0  0  0  0  0  0  0  0  0  0
  -18.2084   13.0622  -21.1117 C   0  0  0  0  0  0  0  0  0  0  0  0
  -17.8291   11.6575  -21.3752 C   0  0  0  0  0  0  0  0  0  0  0  0
  -16.4693   11.1977  -21.0749 C   0  0  0  0  0  0  0  0  0  0  0  0
  -17.3815   10.3407  -18.9478 C   0  0  0  0  0  0  0  0  0  0  0  0
  -16.1845   10.4511  -19.8236 C   0  0  0  0  0  0  0  0  0  0  0  0
 21 22  1  0  0  0
 22 20  1  0  0  0
 20 19  1  0  0  0
 19 18  1  0  0  0
 18 17  1  0  0  0
 17 16  1  0  0  0
 16 15  1  0  0  0
 15 14  1  0  0  0
 14  1  1  0  0  0
  1  2  1  0  0  0
  2  3  1  0  0  0
  3  4  1  0  0  0
  4  6  1  0  0  0
  6  7  2  0  0  0
  7  8  1  0  0  0
  8  9  2  0  0  0
  9 10  1  0  0  0
 10 11  1  0  0  0
 10 12  2  0  0  0
  4  5  1  0  0  0
  5  1  1  0  0  0
 12  6  1  0  0  0
 11 13  1  0  0  0
M  END
> <minimizedAffinity>
-6.50621

> <CNNscore>
0.3485628366

> <CNNaffinity>
5.8244256973

> <CNN_VS>
2.0301783085

> <CNNaffinity_variance>
0.1867486537

$$$$
[H]Oc1c([H])c([H])c([H])c(C2([H])C([H])([H])N(C([H])([H])C([H])([H])C([H])([H])C([H])([H])C([H])([H])C([H])([H])C([H])([H])C([H])([H])C([H])([H])[H])C([H])([H])C2([H])[H])c1[H]


 22 23  0  0  0  0  0  0  0  0999 V2000
  -19.3216   16.0299  -21.0757 N   0  0  0  0  0  0  0  0  0  0  0  0
  -18.3854   16.3344  -20.0284 C   0  0  0  0  0  0  0  0  0  0  0  0
  -18.2138   15.0712  -19.2227 C   0  0  0  0  0  0  0  0  0  0  0  0
  -18.9124   14.0176  -20.0320 C   0  0  0  0  0  0  0  0  0  0  0  0
  -19.0781   14.6119  -21.3804 C   0  0  0  0  0  0  0  0  0  0  0  0
  -18.1475   12.7393  -20.0543 C   0  0  0  0  0  0  0  0  0  0  0  0
  -17.3840   12.4553  -21.1654 C   0  0  0  0  0  0  0  0  0  0  0  0
  -16.6429   11.2709  -21.2358 C   0  0  0  0  0  0  0  0  0  0  0  0
  -16.6931   10.3967  -20.1725 C   0  0  0  0  0  0  0  0  0  0  0  0
  -17.4594   10.7010  -19.0791 C   0  0  0  0  0  0  0  0  0  0  0  0
  -17.4948    9.8073  -18.0219 O   0  0  0  0  0  0  0  0  0  0  0  0
  -18.2052   11.8779  -18.9919 C   0  0  0  0  0  0  0  0  0  0  0  0
  -16.9693    8.9378  -18.0420 H   0  0  0  0  0  0  0  0  0  0  0  0
  -19.1908   16.8243  -22.2519 C   0  0  0  0  0  0  0  0  0  0  0  0
  -18.5832   16.1229  -23.4245 C   0  0  0  0  0  0  0  0  0  0  0  0
  -17.4920   16.8799  -24.0952 C   0  0  0  0  0  0  0  0  0  0  0  0
  -16.1631   16.8511  -23.4169 C   0  0  0  0  0  0  0  0  0  0  0  0
  -15.8697   15.4541  -22.8132 C   0  0  0  0  0  0  0  0  0  0  0  0
  -14.8568   14.7423  -23.6219 C   0  0  0  0  0  0  0  0  0  0  0  0
  -15.2734   13.6957  -24.5610 C   0  0  0  0  0  0  0  0  0  0  0  0
  -17.3712   13.4086  -25.8289 C   0  0  0  0  0  0  0  0  0  0  0  0
  -16.6635   13.1748  -24.5419 C   0  0  0  0  0  0  0  0  0  0  0  0
 21 22  1  0  0  0
 22 20  1  0  0  0
 20 19  1  0  0  0
 19 18  1  0  0  0
 18 17  1  0  0  0
 17 16  1  0  0  0
 16 15  1  0  0  0
 15 14  1  0  0  0
 14  1  1  0  0  0
  1  2  1  0  0  0
  2  3  1  0  0  0
  3  4  1  0  0  0
  4  6  1  0  0  0
  6  7  2  0  0  0
  7  8  1  0  0  0
  8  9  2  0  0  0
  9 10  1  0  0  0
 10 11  1  0  0  0
 10 12  2  0  0  0
  4  5  1  0  0  0
  5  1  1  0  0  0
 12  6  1  0  0  0
 11 13  1  0  0  0
M  END
> <minimizedAffinity>
-6.50777

> <CNNscore>
0.3318693340

> <CNNaffinity>
6.0527172089

> <CNN_VS>
2.0087113380

> <CNNaffinity_variance>
0.0320765749

$$$$
[H]Oc1c([H])c([H])c([H])c(C2([H])C([H])([H])N(C([H])([H])C([H])([H])C([H])([H])C([H])([H])C([H])([H])C([H])([H])C([H])([H])C([H])([H])C([H])([H])[H])C([H])([H])C2([H])[H])c1[H]


 22 23  0  0  0  0  0  0  0  0999 V2000
  -15.5104   14.3087  -24.9075 N   0  0  0  0  0  0  0  0  0  0  0  0
  -16.8707   14.0229  -25.2736 C   0  0  0  0  0  0  0  0  0  0  0  0
  -17.2792   12.7989  -24.4932 C   0  0  0  0  0  0  0  0  0  0  0  0
  -16.1588   12.5910  -23.5162 C   0  0  0  0  0  0  0  0  0  0  0  0
  -15.4112   13.8716  -23.5068 C   0  0  0  0  0  0  0  0  0  0  0  0
  -16.6641   12.2073  -22.1683 C   0  0  0  0  0  0  0  0  0  0  0  0
  -17.6475   12.9835  -21.5950 C   0  0  0  0  0  0  0  0  0  0  0  0
  -18.1602   12.6650  -20.3330 C   0  0  0  0  0  0  0  0  0  0  0  0
  -17.6616   11.5609  -19.6774 C   0  0  0  0  0  0  0  0  0  0  0  0
  -16.6842   10.8050  -20.2677 C   0  0  0  0  0  0  0  0  0  0  0  0
  -16.1979    9.6995  -19.5902 O   0  0  0  0  0  0  0  0  0  0  0  0
  -16.1610   11.1081  -21.5260 C   0  0  0  0  0  0  0  0  0  0  0  0
  -16.5479    9.4415  -18.6717 H   0  0  0  0  0  0  0  0  0  0  0  0
  -15.1257   15.6753  -25.0339 C   0  0  0  0  0  0  0  0  0  0  0  0
  -15.6898   16.5899  -23.9941 C   0  0  0  0  0  0  0  0  0  0  0  0
  -16.6850   17.5678  -24.5107 C   0  0  0  0  0  0  0  0  0  0  0  0
  -17.8815   17.8003  -23.6498 C   0  0  0  0  0  0  0  0  0  0  0  0
  -18.7513   16.5223  -23.5383 C   0  0  0  0  0  0  0  0  0  0  0  0
  -18.8954   16.1150  -22.1241 C   0  0  0  0  0  0  0  0  0  0  0  0
  -18.3083   16.9382  -21.0618 C   0  0  0  0  0  0  0  0  0  0  0  0
  -16.0148   17.4933  -20.3387 C   0  0  0  0  0  0  0  0  0  0  0  0
  -17.1011   16.4775  -20.3306 C   0  0  0  0  0  0  0  0  0  0  0  0
 21 22  1  0  0  0
 22 20  1  0  0  0
 20 19  1  0  0  0
 19 18  1  0  0  0
 18 17  1  0  0  0
 17 16  1  0  0  0
 16 15  1  0  0  0
 15 14  1  0  0  0
 14  1  1  0  0  0
  1  2  1  0  0  0
  2  3  1  0  0  0
  3  4  1  0  0  0
  4  6  1  0  0  0
  6  7  2  0  0  0
  7  8  1  0  0  0
  8  9  2  0  0  0
  9 10  1  0  0  0
 10 11  1  0  0  0
 10 12  2  0  0  0
  4  5  1  0  0  0
  5  1  1  0  0  0
 12  6  1  0  0  0
 11 13  1  0  0  0
M  END
> <minimizedAffinity>
-6.63507

> <CNNscore>
0.3269992769

> <CNNaffinity>
6.0506315231

> <CNN_VS>
1.9785521030

> <CNNaffinity_variance>
0.0987093896

$$$$
[H]OC(=O)/C([H])=C(\[H])c1c([H])c([H])c(Oc2c(-c3c([H])c([H])c(OC(F)(F)F)c([H])c3C([H])([H])[H])c(=O)oc3c([H])c(OC([H])([H])C([H])([H])[H])c([H])c([H])c23)c([H])c1[H]


 39 42  0  0  0  0  0  0  0  0999 V2000
  -18.2037   10.5869  -17.8917 C   0  0  0  0  0  0  0  0  0  0  0  0
  -19.1343   11.5931  -17.9800 C   0  0  0  0  0  0  0  0  0  0  0  0
  -19.1061   12.4213  -19.0806 C   0  0  0  0  0  0  0  0  0  0  0  0
  -18.1763   12.2713  -20.0903 C   0  0  0  0  0  0  0  0  0  0  0  0
  -18.1427   13.1094  -21.2180 C   0  0  0  0  0  0  0  0  0  0  0  0
  -17.1561   12.8259  -22.1400 C   0  0  0  0  0  0  0  0  0  0  0  0
  -16.2385   11.7872  -21.9953 C   0  0  0  0  0  0  0  0  0  0  0  0
  -15.3495   11.5687  -22.8746 O   0  0  0  0  0  0  0  0  0  0  0  0
  -16.3209   11.0479  -20.9307 O   0  0  0  0  0  0  0  0  0  0  0  0
  -17.2437   11.2671  -20.0095 C   0  0  0  0  0  0  0  0  0  0  0  0
  -17.2781   10.4348  -18.8949 C   0  0  0  0  0  0  0  0  0  0  0  0
  -17.0097   13.6372  -23.3306 C   0  0  0  0  0  0  0  0  0  0  0  0
  -17.4963   13.1759  -24.5176 C   0  0  0  0  0  0  0  0  0  0  0  0
  -17.3769   13.9207  -25.6634 C   0  0  0  0  0  0  0  0  0  0  0  0
  -16.7581   15.1457  -25.6066 C   0  0  0  0  0  0  0  0  0  0  0  0
  -16.2638   15.6150  -24.4029 C   0  0  0  0  0  0  0  0  0  0  0  0
  -16.3920   14.8573  -23.2689 C   0  0  0  0  0  0  0  0  0  0  0  0
  -15.8336   15.4262  -22.0150 C   0  0  0  0  0  0  0  0  0  0  0  0
  -16.6364   15.9057  -26.7758 O   0  0  0  0  0  0  0  0  0  0  0  0
  -15.9829   15.3784  -27.9251 C   0  0  0  0  0  0  0  0  0  0  0  0
  -14.6580   15.1927  -27.6168 F   0  0  0  0  0  0  0  0  0  0  0  0
  -16.5646   14.1729  -28.2713 F   0  0  0  0  0  0  0  0  0  0  0  0
  -16.1112   16.2244  -29.0165 F   0  0  0  0  0  0  0  0  0  0  0  0
  -18.2200    9.7521  -16.7972 O   0  0  0  0  0  0  0  0  0  0  0  0
  -20.0878    8.8217  -15.6249 C   0  0  0  0  0  0  0  0  0  0  0  0
  -19.0492    8.6100  -16.7028 C   0  0  0  0  0  0  0  0  0  0  0  0
  -19.0552   14.0929  -21.2965 O   0  0  0  0  0  0  0  0  0  0  0  0
  -19.3799   15.1763  -20.5664 C   0  0  0  0  0  0  0  0  0  0  0  0
  -18.5106   16.0073  -19.9104 C   0  0  0  0  0  0  0  0  0  0  0  0
  -18.9115   17.1151  -19.1643 C   0  0  0  0  0  0  0  0  0  0  0  0
  -20.2621   17.4314  -19.0536 C   0  0  0  0  0  0  0  0  0  0  0  0
  -21.1558   16.6129  -19.7033 C   0  0  0  0  0  0  0  0  0  0  0  0
  -20.7364   15.5259  -20.4331 C   0  0  0  0  0  0  0  0  0  0  0  0
  -20.6567   18.5898  -18.2712 C   0  0  0  0  0  0  0  0  0  0  0  0
  -20.6905   18.6198  -16.9546 C   0  0  0  0  0  0  0  0  0  0  0  0
  -21.1106   19.8619  -16.2771 C   0  0  0  0  0  0  0  0  0  0  0  0
  -20.5764   20.2431  -15.2129 O   0  0  0  0  0  0  0  0  0  0  0  0
  -22.1167   20.6410  -16.8113 O   0  0  0  0  0  0  0  0  0  0  0  0
  -21.9511   21.5753  -17.2030 H   0  0  0  0  0  0  0  0  0  0  0  0
 25 26  1  0  0  0
 26 24  1  0  0  0
 24  1  1  0  0  0
  1  2  2  0  0  0
  2  3  1  0  0  0
  3  4  2  0  0  0
  4  5  1  0  0  0
  5 27  1  0  0  0
 27 28  1  0  0  0
 28 29  2  0  0  0
 29 30  1  0  0  0
 30 31  2  0  0  0
 31 34  1  0  0  0
 34 35  2  0  0  0
 35 36  1  0  0  0
 36 37  2  0  0  0
 36 38  1  0  0  0
 31 32  1  0  0  0
 32 33  2  0  0  0
  5  6  2  0  0  0
  6 12  1  0  0  0
 12 13  2  0  0  0
 13 14  1  0  0  0
 14 15  2  0  0  0
 15 19  1  0  0  0
 19 20  1  0  0  0
 20 21  1  0  0  0
 20 22  1  0  0  0
 20 23  1  0  0  0
 15 16  1  0  0  0
 16 17  2  0  0  0
 17 18  1  0  0  0
  6  7  1  0  0  0
  7  8  2  0  0  0
  7  9  1  0  0  0
  9 10  1  0  0  0
 10 11  2  0  0  0
 11  1  1  0  0  0
 10  4  1  0  0  0
 33 28  1  0  0  0
 17 12  1  0  0  0
 38 39  1  0  0  0
M  END
> <minimizedAffinity>
-9.20105

> <CNNscore>
0.5828294158

> <CNNaffinity>
7.5560774803

> <CNN_VS>
4.4039044380

> <CNNaffinity_variance>
0.6609205008

$$$$
[H]OC(=O)/C([H])=C(\[H])c1c([H])c([H])c(Oc2c(-c3c([H])c([H])c(OC(F)(F)F)c([H])c3C([H])([H])[H])c(=O)oc3c([H])c(OC([H])([H])C([H])([H])[H])c([H])c([H])c23)c([H])c1[H]


 39 42  0  0  0  0  0  0  0  0999 V2000
  -20.0028    9.5939  -15.9097 C   0  0  0  0  0  0  0  0  0  0  0  0
  -20.8917   10.6242  -16.0959 C   0  0  0  0  0  0  0  0  0  0  0  0
  -20.6079   11.5737  -17.0530 C   0  0  0  0  0  0  0  0  0  0  0  0
  -19.4644   11.5209  -17.8250 C   0  0  0  0  0  0  0  0  0  0  0  0
  -19.1690   12.4832  -18.8058 C   0  0  0  0  0  0  0  0  0  0  0  0
  -17.9903   12.2864  -19.4956 C   0  0  0  0  0  0  0  0  0  0  0  0
  -17.1274   11.2176  -19.2620 C   0  0  0  0  0  0  0  0  0  0  0  0
  -16.0540   11.0826  -19.9259 O   0  0  0  0  0  0  0  0  0  0  0  0
  -17.4557   10.3618  -18.3419 O   0  0  0  0  0  0  0  0  0  0  0  0
  -18.5719   10.4933  -17.6453 C   0  0  0  0  0  0  0  0  0  0  0  0
  -18.8649    9.5383  -16.6767 C   0  0  0  0  0  0  0  0  0  0  0  0
  -17.5704   13.2268  -20.5136 C   0  0  0  0  0  0  0  0  0  0  0  0
  -17.1818   14.4807  -20.1456 C   0  0  0  0  0  0  0  0  0  0  0  0
  -16.7754   15.3947  -21.0845 C   0  0  0  0  0  0  0  0  0  0  0  0
  -16.7623   15.0350  -22.4101 C   0  0  0  0  0  0  0  0  0  0  0  0
  -17.1563   13.7631  -22.7850 C   0  0  0  0  0  0  0  0  0  0  0  0
  -17.5592   12.8637  -21.8335 C   0  0  0  0  0  0  0  0  0  0  0  0
  -17.9710   11.5189  -22.3128 C   0  0  0  0  0  0  0  0  0  0  0  0
  -16.3474   15.9676  -23.3680 O   0  0  0  0  0  0  0  0  0  0  0  0
  -17.2858   16.8288  -24.0033 C   0  0  0  0  0  0  0  0  0  0  0  0
  -18.4608   16.1373  -24.1645 F   0  0  0  0  0  0  0  0  0  0  0  0
  -17.4942   17.9438  -23.2128 F   0  0  0  0  0  0  0  0  0  0  0  0
  -16.8167   17.2768  -25.2292 F   0  0  0  0  0  0  0  0  0  0  0  0
  -20.2735    8.6383  -14.9564 O   0  0  0  0  0  0  0  0  0  0  0  0
  -19.4328    9.7274  -12.9980 C   0  0  0  0  0  0  0  0  0  0  0  0
  -20.5743    8.9474  -13.6093 C   0  0  0  0  0  0  0  0  0  0  0  0
  -20.0425   13.4895  -18.9809 O   0  0  0  0  0  0  0  0  0  0  0  0
  -20.3433   14.6358  -18.3425 C   0  0  0  0  0  0  0  0  0  0  0  0
  -21.5439   15.2947  -18.3730 C   0  0  0  0  0  0  0  0  0  0  0  0
  -21.7919   16.4853  -17.6906 C   0  0  0  0  0  0  0  0  0  0  0  0
  -20.7909   17.0722  -16.9226 C   0  0  0  0  0  0  0  0  0  0  0  0
  -19.5758   16.4303  -16.8751 C   0  0  0  0  0  0  0  0  0  0  0  0
  -19.3550   15.2570  -17.5568 C   0  0  0  0  0  0  0  0  0  0  0  0
  -21.0716   18.3124  -16.2207 C   0  0  0  0  0  0  0  0  0  0  0  0
  -20.1667   19.0243  -15.5805 C   0  0  0  0  0  0  0  0  0  0  0  0
  -20.5813   20.2695  -14.9053 C   0  0  0  0  0  0  0  0  0  0  0  0
  -20.1814   20.5589  -13.7566 O   0  0  0  0  0  0  0  0  0  0  0  0
  -21.4318   21.1545  -15.5364 O   0  0  0  0  0  0  0  0  0  0  0  0
  -21.1358   22.0860  -15.8500 H   0  0  0  0  0  0  0  0  0  0  0  0
 25 26  1  0  0  0
 26 24  1  0  0  0
 24  1  1  0  0  0
  1  2  2  0  0  0
  2  3  1  0  0  0
  3  4  2  0  0  0
  4  5  1  0  0  0
  5 27  1  0  0  0
 27 28  1  0  0  0
 28 29  2  0  0  0
 29 30  1  0  0  0
 30 31  2  0  0  0
 31 34  1  0  0  0
 34 35  2  0  0  0
 35 36  1  0  0  0
 36 37  2  0  0  0
 36 38  1  0  0  0
 31 32  1  0  0  0
 32 33  2  0  0  0
  5  6  2  0  0  0
  6 12  1  0  0  0
 12 13  2  0  0  0
 13 14  1  0  0  0
 14 15  2  0  0  0
 15 19  1  0  0  0
 19 20  1  0  0  0
 20 21  1  0  0  0
 20 22  1  0  0  0
 20 23  1  0  0  0
 15 16  1  0  0  0
 16 17  2  0  0  0
 17 18  1  0  0  0
  6  7  1  0  0  0
  7  8  2  0  0  0
  7  9  1  0  0  0
  9 10  1  0  0  0
 10 11  2  0  0  0
 11  1  1  0  0  0
 10  4  1  0  0  0
 33 28  1  0  0  0
 17 12  1  0  0  0
 38 39  1  0  0  0
M  END
> <minimizedAffinity>
-7.38964

> <CNNscore>
0.4143795967

> <CNNaffinity>
6.9661798477

> <CNN_VS>
2.8866426945

> <CNNaffinity_variance>
0.4780165553

$$$$
[H]OC(=O)/C([H])=C(\[H])c1c([H])c([H])c(Oc2c(-c3c([H])c([H])c(OC(F)(F)F)c([H])c3C([H])([H])[H])c(=O)oc3c([H])c(OC([H])([H])C([H])([H])[H])c([H])c([H])c23)c([H])c1[H]


 39 42  0  0  0  0  0  0  0  0999 V2000
  -18.4373   12.0092  -18.0207 C   0  0  0  0  0  0  0  0  0  0  0  0
  -18.7278   13.3504  -18.0761 C   0  0  0  0  0  0  0  0  0  0  0  0
  -18.3730   14.0548  -19.2056 C   0  0  0  0  0  0  0  0  0  0  0  0
  -17.7381   13.4570  -20.2760 C   0  0  0  0  0  0  0  0  0  0  0  0
  -17.3758   14.1673  -21.4334 C   0  0  0  0  0  0  0  0  0  0  0  0
  -16.7531   13.4251  -22.4158 C   0  0  0  0  0  0  0  0  0  0  0  0
  -16.4856   12.0623  -22.3021 C   0  0  0  0  0  0  0  0  0  0  0  0
  -15.9096   11.4255  -23.2370 O   0  0  0  0  0  0  0  0  0  0  0  0
  -16.8445   11.4621  -21.2076 O   0  0  0  0  0  0  0  0  0  0  0  0
  -17.4455   12.1165  -20.2283 C   0  0  0  0  0  0  0  0  0  0  0  0
  -17.8066   11.4116  -19.0842 C   0  0  0  0  0  0  0  0  0  0  0  0
  -16.3133   14.0551  -23.6433 C   0  0  0  0  0  0  0  0  0  0  0  0
  -15.0836   14.6419  -23.6899 C   0  0  0  0  0  0  0  0  0  0  0  0
  -14.6353   15.2446  -24.8378 C   0  0  0  0  0  0  0  0  0  0  0  0
  -15.4409   15.2532  -25.9503 C   0  0  0  0  0  0  0  0  0  0  0  0
  -16.6888   14.6583  -25.9045 C   0  0  0  0  0  0  0  0  0  0  0  0
  -17.1198   14.0612  -24.7494 C   0  0  0  0  0  0  0  0  0  0  0  0
  -18.4723   13.4466  -24.7759 C   0  0  0  0  0  0  0  0  0  0  0  0
  -14.9833   15.8682  -27.1216 O   0  0  0  0  0  0  0  0  0  0  0  0
  -15.6075   15.6093  -28.3743 C   0  0  0  0  0  0  0  0  0  0  0  0
  -14.7990   16.1065  -29.3664 F   0  0  0  0  0  0  0  0  0  0  0  0
  -15.7714   14.2456  -28.5325 F   0  0  0  0  0  0  0  0  0  0  0  0
  -16.8673   16.1849  -28.4439 F   0  0  0  0  0  0  0  0  0  0  0  0
  -18.7859   11.2931  -16.8978 O   0  0  0  0  0  0  0  0  0  0  0  0
  -18.8549    8.9073  -16.7204 C   0  0  0  0  0  0  0  0  0  0  0  0
  -19.6520   10.1751  -16.9265 C   0  0  0  0  0  0  0  0  0  0  0  0
  -17.6616   15.4797  -21.4795 O   0  0  0  0  0  0  0  0  0  0  0  0
  -18.7129   16.2315  -21.8559 C   0  0  0  0  0  0  0  0  0  0  0  0
  -19.8222   16.5158  -21.1042 C   0  0  0  0  0  0  0  0  0  0  0  0
  -20.8833   17.3005  -21.5548 C   0  0  0  0  0  0  0  0  0  0  0  0
  -20.8547   17.8462  -22.8345 C   0  0  0  0  0  0  0  0  0  0  0  0
  -19.7516   17.5761  -23.6097 C   0  0  0  0  0  0  0  0  0  0  0  0
  -18.7176   16.7993  -23.1434 C   0  0  0  0  0  0  0  0  0  0  0  0
  -21.9711   18.6602  -23.2827 C   0  0  0  0  0  0  0  0  0  0  0  0
  -22.5906   18.5010  -24.4345 C   0  0  0  0  0  0  0  0  0  0  0  0
  -23.7141   19.3962  -24.7731 C   0  0  0  0  0  0  0  0  0  0  0  0
  -24.5309   19.1130  -25.6763 O   0  0  0  0  0  0  0  0  0  0  0  0
  -23.8901   20.5824  -24.0901 O   0  0  0  0  0  0  0  0  0  0  0  0
  -24.6813   20.7507  -23.4580 H   0  0  0  0  0  0  0  0  0  0  0  0
 25 26  1  0  0  0
 26 24  1  0  0  0
 24  1  1  0  0  0
  1  2  2  0  0  0
  2  3  1  0  0  0
  3  4  2  0  0  0
  4  5  1  0  0  0
  5 27  1  0  0  0
 27 28  1  0  0  0
 28 29  2  0  0  0
 29 30  1  0  0  0
 30 31  2  0  0  0
 31 34  1  0  0  0
 34 35  2  0  0  0
 35 36  1  0  0  0
 36 37  2  0  0  0
 36 38  1  0  0  0
 31 32  1  0  0  0
 32 33  2  0  0  0
  5  6  2  0  0  0
  6 12  1  0  0  0
 12 13  2  0  0  0
 13 14  1  0  0  0
 14 15  2  0  0  0
 15 19  1  0  0  0
 19 20  1  0  0  0
 20 21  1  0  0  0
 20 22  1  0  0  0
 20 23  1  0  0  0
 15 16  1  0  0  0
 16 17  2  0  0  0
 17 18  1  0  0  0
  6  7  1  0  0  0
  7  8  2  0  0  0
  7  9  1  0  0  0
  9 10  1  0  0  0
 10 11  2  0  0  0
 11  1  1  0  0  0
 10  4  1  0  0  0
 33 28  1  0  0  0
 17 12  1  0  0  0
 38 39  1  0  0  0
M  END
> <minimizedAffinity>
-9.33096

> <CNNscore>
0.3979472518

> <CNNaffinity>
7.4211378098

> <CNN_VS>
2.9532213211

> <CNNaffinity_variance>
0.4891081750

$$$$
[H]OC(=O)/C([H])=C(\[H])c1c([H])c([H])c(Oc2c(-c3c([H])c([H])c(OC(F)(F)F)c([H])c3C([H])([H])[H])c(=O)oc3c([H])c(OC([H])([H])C([H])([H])[H])c([H])c([H])c23)c([H])c1[H]


 39 42  0  0  0  0  0  0  0  0999 V2000
  -20.1608    9.1249  -15.4642 C   0  0  0  0  0  0  0  0  0  0  0  0
  -21.1564   10.0377  -15.7127 C   0  0  0  0  0  0  0  0  0  0  0  0
  -20.9288   11.0217  -16.6497 C   0  0  0  0  0  0  0  0  0  0  0  0
  -19.7377   11.1171  -17.3414 C   0  0  0  0  0  0  0  0  0  0  0  0
  -19.4984   12.1154  -18.3013 C   0  0  0  0  0  0  0  0  0  0  0  0
  -18.2601   12.0717  -18.9084 C   0  0  0  0  0  0  0  0  0  0  0  0
  -17.2885   11.1171  -18.6144 C   0  0  0  0  0  0  0  0  0  0  0  0
  -16.1639   11.1215  -19.2030 O   0  0  0  0  0  0  0  0  0  0  0  0
  -17.5695   10.2208  -17.7175 O   0  0  0  0  0  0  0  0  0  0  0  0
  -18.7382   10.2075  -17.0993 C   0  0  0  0  0  0  0  0  0  0  0  0
  -18.9752    9.2168  -16.1514 C   0  0  0  0  0  0  0  0  0  0  0  0
  -17.8923   13.0641  -19.8969 C   0  0  0  0  0  0  0  0  0  0  0  0
  -17.4842   14.2980  -19.4852 C   0  0  0  0  0  0  0  0  0  0  0  0
  -17.1259   15.2599  -20.3954 C   0  0  0  0  0  0  0  0  0  0  0  0
  -17.1814   14.9690  -21.7367 C   0  0  0  0  0  0  0  0  0  0  0  0
  -17.5953   13.7174  -22.1559 C   0  0  0  0  0  0  0  0  0  0  0  0
  -17.9495   12.7695  -21.2326 C   0  0  0  0  0  0  0  0  0  0  0  0
  -18.3866   11.4505  -21.7587 C   0  0  0  0  0  0  0  0  0  0  0  0
  -16.8156   15.9505  -22.6653 O   0  0  0  0  0  0  0  0  0  0  0  0
  -15.8678   15.6701  -23.6895 C   0  0  0  0  0  0  0  0  0  0  0  0
  -15.2877   16.8542  -24.0719 F   0  0  0  0  0  0  0  0  0  0  0  0
  -14.9063   14.8050  -23.2009 F   0  0  0  0  0  0  0  0  0  0  0  0
  -16.4629   15.0498  -24.7778 F   0  0  0  0  0  0  0  0  0  0  0  0
  -20.3745    8.1365  -14.5301 O   0  0  0  0  0  0  0  0  0  0  0  0
  -21.5358    6.3581  -15.6332 C   0  0  0  0  0  0  0  0  0  0  0  0
  -20.3172    6.7559  -14.8321 C   0  0  0  0  0  0  0  0  0  0  0  0
  -20.4766   13.0062  -18.5376 O   0  0  0  0  0  0  0  0  0  0  0  0
  -20.5532   14.3373  -18.7234 C   0  0  0  0  0  0  0  0  0  0  0  0
  -20.3223   15.3059  -17.7827 C   0  0  0  0  0  0  0  0  0  0  0  0
  -20.4225   16.6733  -18.0377 C   0  0  0  0  0  0  0  0  0  0  0  0
  -20.7743   17.1236  -19.3065 C   0  0  0  0  0  0  0  0  0  0  0  0
  -21.0112   16.1710  -20.2694 C   0  0  0  0  0  0  0  0  0  0  0  0
  -20.9061   14.8282  -19.9940 C   0  0  0  0  0  0  0  0  0  0  0  0
  -20.8729   18.5522  -19.5492 C   0  0  0  0  0  0  0  0  0  0  0  0
  -21.9256   19.1450  -20.0744 C   0  0  0  0  0  0  0  0  0  0  0  0
  -21.9006   20.6077  -20.2700 C   0  0  0  0  0  0  0  0  0  0  0  0
  -21.4604   21.3808  -19.3915 O   0  0  0  0  0  0  0  0  0  0  0  0
  -22.3693   21.1619  -21.4438 O   0  0  0  0  0  0  0  0  0  0  0  0
  -21.7576   21.6246  -22.1261 H   0  0  0  0  0  0  0  0  0  0  0  0
 25 26  1  0  0  0
 26 24  1  0  0  0
 24  1  1  0  0  0
  1  2  2  0  0  0
  2  3  1  0  0  0
  3  4  2  0  0  0
  4  5  1  0  0  0
  5 27  1  0  0  0
 27 28  1  0  0  0
 28 29  2  0  0  0
 29 30  1  0  0  0
 30 31  2  0  0  0
 31 34  1  0  0  0
 34 35  2  0  0  0
 35 36  1  0  0  0
 36 37  2  0  0  0
 36 38  1  0  0  0
 31 32  1  0  0  0
 32 33  2  0  0  0
  5  6  2  0  0  0
  6 12  1  0  0  0
 12 13  2  0  0  0
 13 14  1  0  0  0
 14 15  2  0  0  0
 15 19  1  0  0  0
 19 20  1  0  0  0
 20 21  1  0  0  0
 20 22  1  0  0  0
 20 23  1  0  0  0
 15 16  1  0  0  0
 16 17  2  0  0  0
 17 18  1  0  0  0
  6  7  1  0  0  0
  7  8  2  0  0  0
  7  9  1  0  0  0
  9 10  1  0  0  0
 10 11  2  0  0  0
 11  1  1  0  0  0
 10  4  1  0  0  0
 33 28  1  0  0  0
 17 12  1  0  0  0
 38 39  1  0  0  0
M  END
> <minimizedAffinity>
-7.12243

> <CNNscore>
0.3680863380

> <CNNaffinity>
6.9003267288

> <CNN_VS>
2.5399160385

> <CNNaffinity_variance>
0.4064435363

$$$$
[H]OC(=O)/C([H])=C(\[H])c1c([H])c([H])c(Oc2c(-c3c([H])c([H])c(OC(F)(F)F)c([H])c3C([H])([H])[H])c(=O)oc3c([H])c(OC([H])([H])C([H])([H])[H])c([H])c([H])c23)c([H])c1[H]


 39 42  0  0  0  0  0  0  0  0999 V2000
  -20.8119   17.3048  -22.9977 C   0  0  0  0  0  0  0  0  0  0  0  0
  -20.4228   16.1034  -22.4579 C   0  0  0  0  0  0  0  0  0  0  0  0
  -20.6528   15.8780  -21.1184 C   0  0  0  0  0  0  0  0  0  0  0  0
  -21.2582   16.8176  -20.3079 C   0  0  0  0  0  0  0  0  0  0  0  0
  -21.4998   16.5945  -18.9414 C   0  0  0  0  0  0  0  0  0  0  0  0
  -22.1181   17.6295  -18.2704 C   0  0  0  0  0  0  0  0  0  0  0  0
  -22.4916   18.8284  -18.8745 C   0  0  0  0  0  0  0  0  0  0  0  0
  -23.0588   19.7498  -18.2108 O   0  0  0  0  0  0  0  0  0  0  0  0
  -22.2409   18.9745  -20.1404 O   0  0  0  0  0  0  0  0  0  0  0  0
  -21.6510   18.0204  -20.8406 C   0  0  0  0  0  0  0  0  0  0  0  0
  -21.4152   18.2411  -22.1940 C   0  0  0  0  0  0  0  0  0  0  0  0
  -22.3963   17.5225  -16.8532 C   0  0  0  0  0  0  0  0  0  0  0  0
  -23.3257   16.6238  -16.4207 C   0  0  0  0  0  0  0  0  0  0  0  0
  -23.6107   16.4950  -15.0850 C   0  0  0  0  0  0  0  0  0  0  0  0
  -22.9474   17.2847  -14.1777 C   0  0  0  0  0  0  0  0  0  0  0  0
  -22.0042   18.1971  -14.6151 C   0  0  0  0  0  0  0  0  0  0  0  0
  -21.7327   18.3119  -15.9528 C   0  0  0  0  0  0  0  0  0  0  0  0
  -20.7103   19.3156  -16.3465 C   0  0  0  0  0  0  0  0  0  0  0  0
  -23.2382   17.1532  -12.8147 O   0  0  0  0  0  0  0  0  0  0  0  0
  -24.5180   17.5088  -12.3032 C   0  0  0  0  0  0  0  0  0  0  0  0
  -24.6057   17.0501  -11.0122 F   0  0  0  0  0  0  0  0  0  0  0  0
  -24.6572   18.8841  -12.3303 F   0  0  0  0  0  0  0  0  0  0  0  0
  -25.5403   16.9776  -13.0753 F   0  0  0  0  0  0  0  0  0  0  0  0
  -20.5879   17.5437  -24.3348 O   0  0  0  0  0  0  0  0  0  0  0  0
  -18.3439   16.8169  -24.7406 C   0  0  0  0  0  0  0  0  0  0  0  0
  -19.7943   16.7052  -25.1520 C   0  0  0  0  0  0  0  0  0  0  0  0
  -21.1144   15.4173  -18.4200 O   0  0  0  0  0  0  0  0  0  0  0  0
  -20.3083   14.4067  -18.7955 C   0  0  0  0  0  0  0  0  0  0  0  0
  -19.3573   13.7930  -18.0238 C   0  0  0  0  0  0  0  0  0  0  0  0
  -18.5483   12.7504  -18.4743 C   0  0  0  0  0  0  0  0  0  0  0  0
  -18.6812   12.2748  -19.7753 C   0  0  0  0  0  0  0  0  0  0  0  0
  -19.6293   12.8739  -20.5709 C   0  0  0  0  0  0  0  0  0  0  0  0
  -20.4154   13.9007  -20.1041 C   0  0  0  0  0  0  0  0  0  0  0  0
  -17.8277   11.1882  -20.2231 C   0  0  0  0  0  0  0  0  0  0  0  0
  -16.5837   11.3404  -20.6291 C   0  0  0  0  0  0  0  0  0  0  0  0
  -15.8206   10.1528  -21.0601 C   0  0  0  0  0  0  0  0  0  0  0  0
  -14.7332   10.2555  -21.6683 O   0  0  0  0  0  0  0  0  0  0  0  0
  -16.2978    8.8848  -20.7971 O   0  0  0  0  0  0  0  0  0  0  0  0
  -15.8430    8.2427  -20.1379 H   0  0  0  0  0  0  0  0  0  0  0  0
 25 26  1  0  0  0
 26 24  1  0  0  0
 24  1  1  0  0  0
  1  2  2  0  0  0
  2  3  1  0  0  0
  3  4  2  0  0  0
  4  5  1  0  0  0
  5 27  1  0  0  0
 27 28  1  0  0  0
 28 29  2  0  0  0
 29 30  1  0  0  0
 30 31  2  0  0  0
 31 34  1  0  0  0
 34 35  2  0  0  0
 35 36  1  0  0  0
 36 37  2  0  0  0
 36 38  1  0  0  0
 31 32  1  0  0  0
 32 33  2  0  0  0
  5  6  2  0  0  0
  6 12  1  0  0  0
 12 13  2  0  0  0
 13 14  1  0  0  0
 14 15  2  0  0  0
 15 19  1  0  0  0
 19 20  1  0  0  0
 20 21  1  0  0  0
 20 22  1  0  0  0
 20 23  1  0  0  0
 15 16  1  0  0  0
 16 17  2  0  0  0
 17 18  1  0  0  0
  6  7  1  0  0  0
  7  8  2  0  0  0
  7  9  1  0  0  0
  9 10  1  0  0  0
 10 11  2  0  0  0
 11  1  1  0  0  0
 10  4  1  0  0  0
 33 28  1  0  0  0
 17 12  1  0  0  0
 38 39  1  0  0  0
M  END
> <minimizedAffinity>
0.30190

> <CNNscore>
0.3388906419

> <CNNaffinity>
6.3326406479

> <CNN_VS>
2.1460726261

> <CNNaffinity_variance>
1.3524940014

$$$$
[H]OC(=O)/C([H])=C(\[H])c1c([H])c([H])c(Oc2c(-c3c([H])c([H])c(OC(F)(F)F)c([H])c3C([H])([H])[H])c(=O)oc3c([H])c(OC([H])([H])C([H])([H])[H])c([H])c([H])c23)c([H])c1[H]


 39 42  0  0  0  0  0  0  0  0999 V2000
  -18.6912   13.7194  -21.0960 C   0  0  0  0  0  0  0  0  0  0  0  0
  -19.3724   12.5269  -21.1112 C   0  0  0  0  0  0  0  0  0  0  0  0
  -19.7839   11.9883  -19.9118 C   0  0  0  0  0  0  0  0  0  0  0  0
  -19.5334   12.6071  -18.7033 C   0  0  0  0  0  0  0  0  0  0  0  0
  -19.9527   12.0664  -17.4756 C   0  0  0  0  0  0  0  0  0  0  0  0
  -19.6296   12.8084  -16.3580 C   0  0  0  0  0  0  0  0  0  0  0  0
  -18.9357   14.0158  -16.4061 C   0  0  0  0  0  0  0  0  0  0  0  0
  -18.6636   14.6599  -15.3466 O   0  0  0  0  0  0  0  0  0  0  0  0
  -18.5749   14.4631  -17.5708 O   0  0  0  0  0  0  0  0  0  0  0  0
  -18.8541   13.7999  -18.6801 C   0  0  0  0  0  0  0  0  0  0  0  0
  -18.4413   14.3377  -19.8953 C   0  0  0  0  0  0  0  0  0  0  0  0
  -19.9894   12.3385  -15.0363 C   0  0  0  0  0  0  0  0  0  0  0  0
  -19.1151   11.5533  -14.3452 C   0  0  0  0  0  0  0  0  0  0  0  0
  -19.4236   11.0940  -13.0899 C   0  0  0  0  0  0  0  0  0  0  0  0
  -20.6305   11.4335  -12.5286 C   0  0  0  0  0  0  0  0  0  0  0  0
  -21.5186   12.2301  -13.2286 C   0  0  0  0  0  0  0  0  0  0  0  0
  -21.1935   12.6794  -14.4811 C   0  0  0  0  0  0  0  0  0  0  0  0
  -22.1992   13.5272  -15.1721 C   0  0  0  0  0  0  0  0  0  0  0  0
  -20.9452   10.9649  -11.2476 O   0  0  0  0  0  0  0  0  0  0  0  0
  -20.7084    9.6084  -10.8874 C   0  0  0  0  0  0  0  0  0  0  0  0
  -21.9050    9.0499  -10.5117 F   0  0  0  0  0  0  0  0  0  0  0  0
  -20.1863    8.9295  -11.9729 F   0  0  0  0  0  0  0  0  0  0  0  0
  -19.7843    9.5089   -9.8581 F   0  0  0  0  0  0  0  0  0  0  0  0
  -18.2737   14.2689  -22.2871 O   0  0  0  0  0  0  0  0  0  0  0  0
  -16.4108   13.6015  -23.6335 C   0  0  0  0  0  0  0  0  0  0  0  0
  -16.9198   14.5569  -22.5782 C   0  0  0  0  0  0  0  0  0  0  0  0
  -20.6169   10.8983  -17.4984 O   0  0  0  0  0  0  0  0  0  0  0  0
  -21.0740   10.0236  -16.5829 C   0  0  0  0  0  0  0  0  0  0  0  0
  -20.3569    9.0223  -15.9833 C   0  0  0  0  0  0  0  0  0  0  0  0
  -20.8914    8.1431  -15.0420 C   0  0  0  0  0  0  0  0  0  0  0  0
  -22.2250    8.2538  -14.6606 C   0  0  0  0  0  0  0  0  0  0  0  0
  -22.9671    9.2515  -15.2477 C   0  0  0  0  0  0  0  0  0  0  0  0
  -22.4178   10.1064  -16.1737 C   0  0  0  0  0  0  0  0  0  0  0  0
  -22.7604    7.3270  -13.6786 C   0  0  0  0  0  0  0  0  0  0  0  0
  -23.7193    7.6222  -12.8248 C   0  0  0  0  0  0  0  0  0  0  0  0
  -24.1756    6.5887  -11.8751 C   0  0  0  0  0  0  0  0  0  0  0  0
  -24.5607    6.8800  -10.7218 O   0  0  0  0  0  0  0  0  0  0  0  0
  -24.1875    5.2591  -12.2447 O   0  0  0  0  0  0  0  0  0  0  0  0
  -25.0534    4.7234  -12.3746 H   0  0  0  0  0  0  0  0  0  0  0  0
 25 26  1  0  0  0
 26 24  1  0  0  0
 24  1  1  0  0  0
  1  2  2  0  0  0
  2  3  1  0  0  0
  3  4  2  0  0  0
  4  5  1  0  0  0
  5 27  1  0  0  0
 27 28  1  0  0  0
 28 29  2  0  0  0
 29 30  1  0  0  0
 30 31  2  0  0  0
 31 34  1  0  0  0
 34 35  2  0  0  0
 35 36  1  0  0  0
 36 37  2  0  0  0
 36 38  1  0  0  0
 31 32  1  0  0  0
 32 33  2  0  0  0
  5  6  2  0  0  0
  6 12  1  0  0  0
 12 13  2  0  0  0
 13 14  1  0  0  0
 14 15  2  0  0  0
 15 19  1  0  0  0
 19 20  1  0  0  0
 20 21  1  0  0  0
 20 22  1  0  0  0
 20 23  1  0  0  0
 15 16  1  0  0  0
 16 17  2  0  0  0
 17 18  1  0  0  0
  6  7  1  0  0  0
  7  8  2  0  0  0
  7  9  1  0  0  0
  9 10  1  0  0  0
 10 11  2  0  0  0
 11  1  1  0  0  0
 10  4  1  0  0  0
 33 28  1  0  0  0
 17 12  1  0  0  0
 38 39  1  0  0  0
M  END
> <minimizedAffinity>
-1.40178

> <CNNscore>
0.2338795215

> <CNNaffinity>
6.0552434921

> <CNN_VS>
1.4161974192

> <CNNaffinity_variance>
1.0817115307

$$$$
[H]OC(=O)/C([H])=C(\[H])c1c([H])c([H])c(Oc2c(-c3c([H])c([H])c(OC(F)(F)F)c([H])c3C([H])([H])[H])c(=O)oc3c([H])c(OC([H])([H])C([H])([H])[H])c([H])c([H])c23)c([H])c1[H]


 39 42  0  0  0  0  0  0  0  0999 V2000
  -18.6020   16.7175  -23.9942 C   0  0  0  0  0  0  0  0  0  0  0  0
  -19.0764   15.7168  -23.1819 C   0  0  0  0  0  0  0  0  0  0  0  0
  -19.8981   16.0568  -22.1297 C   0  0  0  0  0  0  0  0  0  0  0  0
  -20.2561   17.3645  -21.8689 C   0  0  0  0  0  0  0  0  0  0  0  0
  -21.0965   17.7198  -20.8000 C   0  0  0  0  0  0  0  0  0  0  0  0
  -21.3641   19.0678  -20.6768 C   0  0  0  0  0  0  0  0  0  0  0  0
  -20.8529   20.0388  -21.5356 C   0  0  0  0  0  0  0  0  0  0  0  0
  -21.1307   21.2673  -21.3780 O   0  0  0  0  0  0  0  0  0  0  0  0
  -20.0815   19.6474  -22.5044 O   0  0  0  0  0  0  0  0  0  0  0  0
  -19.7867   18.3701  -22.6772 C   0  0  0  0  0  0  0  0  0  0  0  0
  -18.9570   18.0192  -23.7378 C   0  0  0  0  0  0  0  0  0  0  0  0
  -22.1990   19.5544  -19.5983 C   0  0  0  0  0  0  0  0  0  0  0  0
  -23.5347   19.2817  -19.6119 C   0  0  0  0  0  0  0  0  0  0  0  0
  -24.3531   19.7250  -18.6042 C   0  0  0  0  0  0  0  0  0  0  0  0
  -23.8131   20.4524  -17.5716 C   0  0  0  0  0  0  0  0  0  0  0  0
  -22.4581   20.7299  -17.5564 C   0  0  0  0  0  0  0  0  0  0  0  0
  -21.6562   20.2790  -18.5714 C   0  0  0  0  0  0  0  0  0  0  0  0
  -20.2123   20.6194  -18.4877 C   0  0  0  0  0  0  0  0  0  0  0  0
  -24.6483   20.9046  -16.5433 O   0  0  0  0  0  0  0  0  0  0  0  0
  -24.2737   20.7540  -15.1784 C   0  0  0  0  0  0  0  0  0  0  0  0
  -23.0421   21.3355  -15.0057 F   0  0  0  0  0  0  0  0  0  0  0  0
  -25.2107   21.3756  -14.3739 F   0  0  0  0  0  0  0  0  0  0  0  0
  -24.2342   19.4187  -14.8059 F   0  0  0  0  0  0  0  0  0  0  0  0
  -17.7796   16.3921  -25.0492 O   0  0  0  0  0  0  0  0  0  0  0  0
  -16.0940   15.0565  -23.9988 C   0  0  0  0  0  0  0  0  0  0  0  0
  -17.0794   15.1664  -25.1399 C   0  0  0  0  0  0  0  0  0  0  0  0
  -21.5553   16.7354  -20.0083 O   0  0  0  0  0  0  0  0  0  0  0  0
  -21.0267   15.6667  -19.3831 C   0  0  0  0  0  0  0  0  0  0  0  0
  -21.6828   14.8084  -18.5410 C   0  0  0  0  0  0  0  0  0  0  0  0
  -21.0757   13.7180  -17.9188 C   0  0  0  0  0  0  0  0  0  0  0  0
  -19.7280   13.4496  -18.1382 C   0  0  0  0  0  0  0  0  0  0  0  0
  -19.0462   14.2964  -18.9801 C   0  0  0  0  0  0  0  0  0  0  0  0
  -19.6668   15.3653  -19.5821 C   0  0  0  0  0  0  0  0  0  0  0  0
  -19.1165   12.3086  -17.4794 C   0  0  0  0  0  0  0  0  0  0  0  0
  -18.9225   11.1376  -18.0510 C   0  0  0  0  0  0  0  0  0  0  0  0
  -18.2889   10.0563  -17.2713 C   0  0  0  0  0  0  0  0  0  0  0  0
  -17.0659    9.8122  -17.3596 O   0  0  0  0  0  0  0  0  0  0  0  0
  -19.0436    9.2801  -16.4154 O   0  0  0  0  0  0  0  0  0  0  0  0
  -18.9408    9.3130  -15.3946 H   0  0  0  0  0  0  0  0  0  0  0  0
 25 26  1  0  0  0
 26 24  1  0  0  0
 24  1  1  0  0  0
  1  2  2  0  0  0
  2  3  1  0  0  0
  3  4  2  0  0  0
  4  5  1  0  0  0
  5 27  1  0  0  0
 27 28  1  0  0  0
 28 29  2  0  0  0
 29 30  1  0  0  0
 30 31  2  0  0  0
 31 34  1  0  0  0
 34 35  2  0  0  0
 35 36  1  0  0  0
 36 37  2  0  0  0
 36 38  1  0  0  0
 31 32  1  0  0  0
 32 33  2  0  0  0
  5  6  2  0  0  0
  6 12  1  0  0  0
 12 13  2  0  0  0
 13 14  1  0  0  0
 14 15  2  0  0  0
 15 19  1  0  0  0
 19 20  1  0  0  0
 20 21  1  0  0  0
 20 22  1  0  0  0
 20 23  1  0  0  0
 15 16  1  0  0  0
 16 17  2  0  0  0
 17 18  1  0  0  0
  6  7  1  0  0  0
  7  8  2  0  0  0
  7  9  1  0  0  0
  9 10  1  0  0  0
 10 11  2  0  0  0
 11  1  1  0  0  0
 10  4  1  0  0  0
 33 28  1  0  0  0
 17 12  1  0  0  0
 38 39  1  0  0  0
M  END
> <minimizedAffinity>
-3.78349

> <CNNscore>
0.2059727758

> <CNNaffinity>
6.5255918503

> <CNN_VS>
1.3440942764

> <CNNaffinity_variance>
1.2719032764

$$$$
[H]OC(=O)/C([H])=C(\[H])c1c([H])c([H])c(Oc2c(-c3c([H])c([H])c(OC(F)(F)F)c([H])c3C([H])([H])[H])c(=O)oc3c([H])c(OC([H])([H])C([H])([H])[H])c([H])c([H])c23)c([H])c1[H]


 39 42  0  0  0  0  0  0  0  0999 V2000
  -16.8033   11.3866  -19.5464 C   0  0  0  0  0  0  0  0  0  0  0  0
  -17.3143   10.8661  -18.3826 C   0  0  0  0  0  0  0  0  0  0  0  0
  -18.0982   11.6740  -17.5884 C   0  0  0  0  0  0  0  0  0  0  0  0
  -18.3833   12.9823  -17.9249 C   0  0  0  0  0  0  0  0  0  0  0  0
  -19.1849   13.8122  -17.1224 C   0  0  0  0  0  0  0  0  0  0  0  0
  -19.3800   15.0920  -17.5997 C   0  0  0  0  0  0  0  0  0  0  0  0
  -18.8347   15.5636  -18.7921 C   0  0  0  0  0  0  0  0  0  0  0  0
  -19.0456   16.7516  -19.1865 O   0  0  0  0  0  0  0  0  0  0  0  0
  -18.1021   14.7486  -19.4892 O   0  0  0  0  0  0  0  0  0  0  0  0
  -17.8770   13.5092  -19.0872 C   0  0  0  0  0  0  0  0  0  0  0  0
  -17.0858   12.6875  -19.8841 C   0  0  0  0  0  0  0  0  0  0  0  0
  -20.1691   16.0438  -16.8457 C   0  0  0  0  0  0  0  0  0  0  0  0
  -19.5522   16.8537  -15.9389 C   0  0  0  0  0  0  0  0  0  0  0  0
  -20.2699   17.7682  -15.2105 C   0  0  0  0  0  0  0  0  0  0  0  0
  -21.6267   17.8635  -15.4024 C   0  0  0  0  0  0  0  0  0  0  0  0
  -22.2540   17.0424  -16.3220 C   0  0  0  0  0  0  0  0  0  0  0  0
  -21.5211   16.1350  -17.0403 C   0  0  0  0  0  0  0  0  0  0  0  0
  -22.2649   15.2858  -18.0064 C   0  0  0  0  0  0  0  0  0  0  0  0
  -22.3589   18.7967  -14.6591 O   0  0  0  0  0  0  0  0  0  0  0  0
  -22.2069   20.1934  -14.8873 C   0  0  0  0  0  0  0  0  0  0  0  0
  -21.8656   20.3775  -16.2043 F   0  0  0  0  0  0  0  0  0  0  0  0
  -23.3992   20.8363  -14.6102 F   0  0  0  0  0  0  0  0  0  0  0  0
  -21.2417   20.7428  -14.0567 F   0  0  0  0  0  0  0  0  0  0  0  0
  -16.0180   10.5907  -20.3494 O   0  0  0  0  0  0  0  0  0  0  0  0
  -17.8724    9.6969  -21.5702 C   0  0  0  0  0  0  0  0  0  0  0  0
  -16.4249   10.1295  -21.6231 C   0  0  0  0  0  0  0  0  0  0  0  0
  -19.6797   13.2964  -15.9842 O   0  0  0  0  0  0  0  0  0  0  0  0
  -20.3217   12.1680  -15.6286 C   0  0  0  0  0  0  0  0  0  0  0  0
  -21.3502   11.5677  -16.3055 C   0  0  0  0  0  0  0  0  0  0  0  0
  -21.9787   10.3974  -15.8811 C   0  0  0  0  0  0  0  0  0  0  0  0
  -21.5691    9.7701  -14.7084 C   0  0  0  0  0  0  0  0  0  0  0  0
  -20.5379   10.3526  -14.0098 C   0  0  0  0  0  0  0  0  0  0  0  0
  -19.9337   11.5071  -14.4485 C   0  0  0  0  0  0  0  0  0  0  0  0
  -22.2382    8.5523  -14.2854 C   0  0  0  0  0  0  0  0  0  0  0  0
  -23.1349    8.4943  -13.3220 C   0  0  0  0  0  0  0  0  0  0  0  0
  -23.7429    7.1918  -12.9871 C   0  0  0  0  0  0  0  0  0  0  0  0
  -24.7618    7.1077  -12.2674 O   0  0  0  0  0  0  0  0  0  0  0  0
  -23.1921    6.0214  -13.4681 O   0  0  0  0  0  0  0  0  0  0  0  0
  -23.6606    5.4278  -14.1623 H   0  0  0  0  0  0  0  0  0  0  0  0
 25 26  1  0  0  0
 26 24  1  0  0  0
 24  1  1  0  0  0
  1  2  2  0  0  0
  2  3  1  0  0  0
  3  4  2  0  0  0
  4  5  1  0  0  0
  5 27  1  0  0  0
 27 28  1  0  0  0
 28 29  2  0  0  0
 29 30  1  0  0  0
 30 31  2  0  0  0
 31 34  1  0  0  0
 34 35  2  0  0  0
 35 36  1  0  0  0
 36 37  2  0  0  0
 36 38  1  0  0  0
 31 32  1  0  0  0
 32 33  2  0  0  0
  5  6  2  0  0  0
  6 12  1  0  0  0
 12 13  2  0  0  0
 13 14  1  0  0  0
 14 15  2  0  0  0
 15 19  1  0  0  0
 19 20  1  0  0  0
 20 21  1  0  0  0
 20 22  1  0  0  0
 20 23  1  0  0  0
 15 16  1  0  0  0
 16 17  2  0  0  0
 17 18  1  0  0  0
  6  7  1  0  0  0
  7  8  2  0  0  0
  7  9  1  0  0  0
  9 10  1  0  0  0
 10 11  2  0  0  0
 11  1  1  0  0  0
 10  4  1  0  0  0
 33 28  1  0  0  0
 17 12  1  0  0  0
 38 39  1  0  0  0
M  END
> <minimizedAffinity>
-3.89136

> <CNNscore>
0.1652227640

> <CNNaffinity>
6.1853065491

> <CNN_VS>
1.0219534636

> <CNNaffinity_variance>
0.2103586197

$$$$
[H]OC(=O)/C([H])=C(\[H])c1c([H])c([H])c(Oc2c(-c3c([H])c([H])c(OC(F)(F)F)c([H])c3C([H])([H])[H])c(=O)oc3c([H])c(OC([H])([H])C([H])([H])[H])c([H])c([H])c23)c([H])c1[H]


 39 42  0  0  0  0  0  0  0  0999 V2000
  -17.0674   13.9328  -25.0828 C   0  0  0  0  0  0  0  0  0  0  0  0
  -16.4517   13.1199  -24.1629 C   0  0  0  0  0  0  0  0  0  0  0  0
  -16.7235   13.3142  -22.8263 C   0  0  0  0  0  0  0  0  0  0  0  0
  -17.5901   14.2952  -22.3871 C   0  0  0  0  0  0  0  0  0  0  0  0
  -17.8757   14.4979  -21.0260 C   0  0  0  0  0  0  0  0  0  0  0  0
  -18.7665   15.5151  -20.7506 C   0  0  0  0  0  0  0  0  0  0  0  0
  -19.3615   16.3075  -21.7302 C   0  0  0  0  0  0  0  0  0  0  0  0
  -20.1758   17.2315  -21.4227 O   0  0  0  0  0  0  0  0  0  0  0  0
  -19.0568   16.0713  -22.9704 O   0  0  0  0  0  0  0  0  0  0  0  0
  -18.2102   15.1108  -23.3009 C   0  0  0  0  0  0  0  0  0  0  0  0
  -17.9306   14.9089  -24.6489 C   0  0  0  0  0  0  0  0  0  0  0  0
  -19.1184   15.8315  -19.3820 C   0  0  0  0  0  0  0  0  0  0  0  0
  -18.3036   16.6466  -18.6538 C   0  0  0  0  0  0  0  0  0  0  0  0
  -18.6094   16.9686  -17.3558 C   0  0  0  0  0  0  0  0  0  0  0  0
  -19.7526   16.4597  -16.7893 C   0  0  0  0  0  0  0  0  0  0  0  0
  -20.5802   15.6324  -17.5269 C   0  0  0  0  0  0  0  0  0  0  0  0
  -20.2587   15.3217  -18.8216 C   0  0  0  0  0  0  0  0  0  0  0  0
  -21.1941   14.4250  -19.5488 C   0  0  0  0  0  0  0  0  0  0  0  0
  -20.0646   16.7884  -15.4649 O   0  0  0  0  0  0  0  0  0  0  0  0
  -21.0300   17.7916  -15.1692 C   0  0  0  0  0  0  0  0  0  0  0  0
  -21.1154   18.6352  -16.2490 F   0  0  0  0  0  0  0  0  0  0  0  0
  -22.2547   17.1950  -14.9333 F   0  0  0  0  0  0  0  0  0  0  0  0
  -20.6926   18.5017  -14.0267 F   0  0  0  0  0  0  0  0  0  0  0  0
  -16.8046   13.7500  -26.4218 O   0  0  0  0  0  0  0  0  0  0  0  0
  -15.1148   15.3915  -26.8439 C   0  0  0  0  0  0  0  0  0  0  0  0
  -16.4326   14.8015  -27.2916 C   0  0  0  0  0  0  0  0  0  0  0  0
  -17.2680   13.6999  -20.1316 O   0  0  0  0  0  0  0  0  0  0  0  0
  -17.5707   12.5579  -19.4863 C   0  0  0  0  0  0  0  0  0  0  0  0
  -17.2107   11.2903  -19.8605 C   0  0  0  0  0  0  0  0  0  0  0  0
  -17.5606   10.1434  -19.1488 C   0  0  0  0  0  0  0  0  0  0  0  0
  -18.3179   10.2464  -17.9859 C   0  0  0  0  0  0  0  0  0  0  0  0
  -18.6922   11.5083  -17.5880 C   0  0  0  0  0  0  0  0  0  0  0  0
  -18.3351   12.6246  -18.3067 C   0  0  0  0  0  0  0  0  0  0  0  0
  -18.6709    9.0384  -17.2609 C   0  0  0  0  0  0  0  0  0  0  0  0
  -19.4700    9.0077  -16.2139 C   0  0  0  0  0  0  0  0  0  0  0  0
  -19.7501    7.7122  -15.5645 C   0  0  0  0  0  0  0  0  0  0  0  0
  -20.5605    6.8944  -16.0519 O   0  0  0  0  0  0  0  0  0  0  0  0
  -19.1143    7.3705  -14.3882 O   0  0  0  0  0  0  0  0  0  0  0  0
  -18.4226    6.6146  -14.3266 H   0  0  0  0  0  0  0  0  0  0  0  0
 25 26  1  0  0  0
 26 24  1  0  0  0
 24  1  1  0  0  0
  1  2  2  0  0  0
  2  3  1  0  0  0
  3  4  2  0  0  0
  4  5  1  0  0  0
  5 27  1  0  0  0
 27 28  1  0  0  0
 28 29  2  0  0  0
 29 30  1  0  0  0
 30 31  2  0  0  0
 31 34  1  0  0  0
 34 35  2  0  0  0
 35 36  1  0  0  0
 36 37  2  0  0  0
 36 38  1  0  0  0
 31 32  1  0  0  0
 32 33  2  0  0  0
  5  6  2  0  0  0
  6 12  1  0  0  0
 12 13  2  0  0  0
 13 14  1  0  0  0
 14 15  2  0  0  0
 15 19  1  0  0  0
 19 20  1  0  0  0
 20 21  1  0  0  0
 20 22  1  0  0  0
 20 23  1  0  0  0
 15 16  1  0  0  0
 16 17  2  0  0  0
 17 18  1  0  0  0
  6  7  1  0  0  0
  7  8  2  0  0  0
  7  9  1  0  0  0
  9 10  1  0  0  0
 10 11  2  0  0  0
 11  1  1  0  0  0
 10  4  1  0  0  0
 33 28  1  0  0  0
 17 12  1  0  0  0
 38 39  1  0  0  0
M  END
> <minimizedAffinity>
-8.96807

> <CNNscore>
0.1353569180

> <CNNaffinity>
6.7146096230

> <CNN_VS>
0.9088688493

> <CNNaffinity_variance>
0.2042316198

$$$$
[H]N=C(c1c([H])c([H])c([H])c(Oc2c([H])c([H])c(N([H])[H])c([H])c2C(=O)N([H])c2c([H])c([H])c(-c3c([H])c([H])c([H])c([H])c3S(=O)(=O)N([H])[H])c([H])c2[H])c1[H])N([H])[H]


 44 47  0  0  0  0  0  0  0  0999 V2000
  -19.4739   11.4368  -17.9716 C   0  0  0  0  0  0  0  0  0  0  0  0
  -20.3983   11.0835  -16.9559 C   0  0  0  0  0  0  0  0  0  0  0  0
  -20.1863    9.9711  -16.1867 C   0  0  0  0  0  0  0  0  0  0  0  0
  -19.0644    9.2191  -16.4302 C   0  0  0  0  0  0  0  0  0  0  0  0
  -18.8736    8.0653  -15.6309 N   0  0  0  0  0  0  0  0  0  0  0  0
  -18.1679    9.5655  -17.4090 C   0  0  0  0  0  0  0  0  0  0  0  0
  -18.3640   10.7306  -18.2234 C   0  0  0  0  0  0  0  0  0  0  0  0
  -17.9682    7.8532  -15.2009 H   0  0  0  0  0  0  0  0  0  0  0  0
  -19.6901    7.4446  -15.5103 H   0  0  0  0  0  0  0  0  0  0  0  0
  -17.1431   11.1816  -18.9449 C   0  0  0  0  0  0  0  0  0  0  0  0
  -16.0953   10.9898  -18.1972 O   0  0  0  0  0  0  0  0  0  0  0  0
  -17.0076   11.7018  -20.1471 N   0  0  0  0  0  0  0  0  0  0  0  0
  -15.6510   11.3968  -20.0945 H   0  0  0  0  0  0  0  0  0  0  0  0
  -16.8656   12.2467  -21.4064 C   0  0  0  0  0  0  0  0  0  0  0  0
  -17.8066   13.2001  -21.8610 C   0  0  0  0  0  0  0  0  0  0  0  0
  -17.7627   13.7132  -23.1373 C   0  0  0  0  0  0  0  0  0  0  0  0
  -16.7979   13.3201  -24.0293 C   0  0  0  0  0  0  0  0  0  0  0  0
  -15.8696   12.4007  -23.6144 C   0  0  0  0  0  0  0  0  0  0  0  0
  -15.9041   11.8775  -22.3331 C   0  0  0  0  0  0  0  0  0  0  0  0
  -16.7512   13.7984  -25.3923 C   0  0  0  0  0  0  0  0  0  0  0  0
  -17.2502   13.0456  -26.4386 C   0  0  0  0  0  0  0  0  0  0  0  0
  -17.1782   13.4737  -27.7397 C   0  0  0  0  0  0  0  0  0  0  0  0
  -16.5911   14.6899  -28.0133 C   0  0  0  0  0  0  0  0  0  0  0  0
  -16.0925   15.4498  -26.9908 C   0  0  0  0  0  0  0  0  0  0  0  0
  -16.1699   15.0104  -25.6734 C   0  0  0  0  0  0  0  0  0  0  0  0
  -15.5497   16.0349  -24.4456 S   0  0  0  0  0  0  0  0  0  0  0  0
  -14.7910   17.4219  -25.2042 N   0  0  0  0  0  0  0  0  0  0  0  0
  -14.3938   15.3480  -23.7376 O   0  0  0  0  0  0  0  0  0  0  0  0
  -16.5742   16.5353  -23.4689 O   0  0  0  0  0  0  0  0  0  0  0  0
  -13.8974   17.1516  -25.6663 H   0  0  0  0  0  0  0  0  0  0  0  0
  -15.4281   17.8079  -25.9206 H   0  0  0  0  0  0  0  0  0  0  0  0
  -19.8146   12.5877  -18.7211 O   0  0  0  0  0  0  0  0  0  0  0  0
  -20.5046   15.4043  -16.4872 C   0  0  0  0  0  0  0  0  0  0  0  0
  -19.3109   16.0952  -16.5007 C   0  0  0  0  0  0  0  0  0  0  0  0
  -18.2323   15.6706  -17.2354 C   0  0  0  0  0  0  0  0  0  0  0  0
  -18.3980   14.4908  -17.9803 C   0  0  0  0  0  0  0  0  0  0  0  0
  -19.5344   13.7780  -18.0077 C   0  0  0  0  0  0  0  0  0  0  0  0
  -20.6249   14.2575  -17.2285 C   0  0  0  0  0  0  0  0  0  0  0  0
  -21.5761   16.3195  -14.5177 N   0  0  0  0  0  0  0  0  0  0  0  0
  -21.6509   15.8826  -15.7042 C   0  0  0  0  0  0  0  0  0  0  0  0
  -22.9342   15.8383  -16.3103 N   0  0  0  0  0  0  0  0  0  0  0  0
  -20.7683   16.4331  -13.9082 H   0  0  0  0  0  0  0  0  0  0  0  0
  -23.6208   15.1746  -15.8676 H   0  0  0  0  0  0  0  0  0  0  0  0
  -23.2532   16.3767  -17.1207 H   0  0  0  0  0  0  0  0  0  0  0  0
 39 40  2  0  0  0
 40 41  1  0  0  0
 40 33  1  0  0  0
 33 34  2  0  0  0
 34 35  1  0  0  0
 35 36  2  0  0  0
 36 37  1  0  0  0
 37 32  1  0  0  0
 32  1  1  0  0  0
  1  2  2  0  0  0
  2  3  1  0  0  0
  3  4  2  0  0  0
  4  5  1  0  0  0
  4  6  1  0  0  0
  6  7  2  0  0  0
  7 10  1  0  0  0
 10 11  2  0  0  0
 10 12  1  0  0  0
 12 14  1  0  0  0
 14 15  2  0  0  0
 15 16  1  0  0  0
 16 17  2  0  0  0
 17 20  1  0  0  0
 20 21  2  0  0  0
 21 22  1  0  0  0
 22 23  2  0  0  0
 23 24  1  0  0  0
 24 25  2  0  0  0
 25 26  1  0  0  0
 26 27  1  0  0  0
 26 28  2  0  0  0
 26 29  2  0  0  0
 17 18  1  0  0  0
 18 19  2  0  0  0
 37 38  2  0  0  0
 38 33  1  0  0  0
  7  1  1  0  0  0
 19 14  1  0  0  0
 25 20  1  0  0  0
 39 42  1  0  0  0
 41 43  1  0  0  0
 41 44  1  0  0  0
  5  8  1  0  0  0
  5  9  1  0  0  0
 12 13  1  0  0  0
 27 30  1  0  0  0
 27 31  1  0  0  0
M  END
> <minimizedAffinity>
-9.45882

> <CNNscore>
0.6671879292

> <CNNaffinity>
7.2694215775

> <CNN_VS>
4.8500704765

> <CNNaffinity_variance>
0.1237891689

$$$$
[H]N=C(c1c([H])c([H])c([H])c(Oc2c([H])c([H])c(N([H])[H])c([H])c2C(=O)N([H])c2c([H])c([H])c(-c3c([H])c([H])c([H])c([H])c3S(=O)(=O)N([H])[H])c([H])c2[H])c1[H])N([H])[H]


 44 47  0  0  0  0  0  0  0  0999 V2000
  -18.8695   12.9403  -17.1830 C   0  0  0  0  0  0  0  0  0  0  0  0
  -19.6873   12.9533  -16.0246 C   0  0  0  0  0  0  0  0  0  0  0  0
  -20.3265   11.8129  -15.6185 C   0  0  0  0  0  0  0  0  0  0  0  0
  -20.1519   10.6725  -16.3618 C   0  0  0  0  0  0  0  0  0  0  0  0
  -20.8340    9.5086  -15.9299 N   0  0  0  0  0  0  0  0  0  0  0  0
  -19.3555   10.6599  -17.4787 C   0  0  0  0  0  0  0  0  0  0  0  0
  -18.6694   11.8402  -17.9204 C   0  0  0  0  0  0  0  0  0  0  0  0
  -20.3623    8.6013  -15.8674 H   0  0  0  0  0  0  0  0  0  0  0  0
  -21.8322    9.6186  -15.6893 H   0  0  0  0  0  0  0  0  0  0  0  0
  -17.5636   11.5780  -18.8813 C   0  0  0  0  0  0  0  0  0  0  0  0
  -16.7151   10.7423  -18.3565 O   0  0  0  0  0  0  0  0  0  0  0  0
  -17.3613   12.0462  -20.0954 N   0  0  0  0  0  0  0  0  0  0  0  0
  -16.4552   11.0126  -20.3116 H   0  0  0  0  0  0  0  0  0  0  0  0
  -17.1495   12.5366  -21.3672 C   0  0  0  0  0  0  0  0  0  0  0  0
  -18.0458   13.4914  -21.9019 C   0  0  0  0  0  0  0  0  0  0  0  0
  -17.9319   13.9515  -23.1940 C   0  0  0  0  0  0  0  0  0  0  0  0
  -16.9373   13.5015  -24.0243 C   0  0  0  0  0  0  0  0  0  0  0  0
  -16.0511   12.5794  -23.5312 C   0  0  0  0  0  0  0  0  0  0  0  0
  -16.1561   12.1091  -22.2333 C   0  0  0  0  0  0  0  0  0  0  0  0
  -16.8175   13.9233  -25.4014 C   0  0  0  0  0  0  0  0  0  0  0  0
  -17.2287   13.1127  -26.4427 C   0  0  0  0  0  0  0  0  0  0  0  0
  -17.0862   13.4877  -27.7543 C   0  0  0  0  0  0  0  0  0  0  0  0
  -16.5161   14.7082  -28.0440 C   0  0  0  0  0  0  0  0  0  0  0  0
  -16.1040   15.5249  -27.0268 C   0  0  0  0  0  0  0  0  0  0  0  0
  -16.2526   15.1392  -25.6988 C   0  0  0  0  0  0  0  0  0  0  0  0
  -15.7392   16.2324  -24.4809 S   0  0  0  0  0  0  0  0  0  0  0  0
  -14.7875   17.4996  -25.2313 N   0  0  0  0  0  0  0  0  0  0  0  0
  -14.7439   15.5464  -23.5601 O   0  0  0  0  0  0  0  0  0  0  0  0
  -16.8522   16.8767  -23.7063 O   0  0  0  0  0  0  0  0  0  0  0  0
  -13.8593   17.1378  -25.5360 H   0  0  0  0  0  0  0  0  0  0  0  0
  -15.2901   17.8557  -26.0610 H   0  0  0  0  0  0  0  0  0  0  0  0
  -18.2864   14.1845  -17.5216 O   0  0  0  0  0  0  0  0  0  0  0  0
  -18.9489   16.7371  -20.0602 C   0  0  0  0  0  0  0  0  0  0  0  0
  -20.1810   16.3576  -20.5505 C   0  0  0  0  0  0  0  0  0  0  0  0
  -20.8446   15.2538  -20.0764 C   0  0  0  0  0  0  0  0  0  0  0  0
  -20.2090   14.5203  -19.0606 C   0  0  0  0  0  0  0  0  0  0  0  0
  -19.0133   14.8415  -18.5435 C   0  0  0  0  0  0  0  0  0  0  0  0
  -18.3632   15.9940  -19.0683 C   0  0  0  0  0  0  0  0  0  0  0  0
  -18.3839   18.3761  -21.7510 N   0  0  0  0  0  0  0  0  0  0  0  0
  -18.2612   17.9290  -20.5724 C   0  0  0  0  0  0  0  0  0  0  0  0
  -17.3860   18.6201  -19.6933 N   0  0  0  0  0  0  0  0  0  0  0  0
  -18.9488   18.0374  -22.5276 H   0  0  0  0  0  0  0  0  0  0  0  0
  -16.3685   18.6024  -19.9619 H   0  0  0  0  0  0  0  0  0  0  0  0
  -17.6402   19.1242  -18.8392 H   0  0  0  0  0  0  0  0  0  0  0  0
 39 40  2  0  0  0
 40 41  1  0  0  0
 40 33  1  0  0  0
 33 34  2  0  0  0
 34 35  1  0  0  0
 35 36  2  0  0  0
 36 37  1  0  0  0
 37 32  1  0  0  0
 32  1  1  0  0  0
  1  2  2  0  0  0
  2  3  1  0  0  0
  3  4  2  0  0  0
  4  5  1  0  0  0
  4  6  1  0  0  0
  6  7  2  0  0  0
  7 10  1  0  0  0
 10 11  2  0  0  0
 10 12  1  0  0  0
 12 14  1  0  0  0
 14 15  2  0  0  0
 15 16  1  0  0  0
 16 17  2  0  0  0
 17 20  1  0  0  0
 20 21  2  0  0  0
 21 22  1  0  0  0
 22 23  2  0  0  0
 23 24  1  0  0  0
 24 25  2  0  0  0
 25 26  1  0  0  0
 26 27  1  0  0  0
 26 28  2  0  0  0
 26 29  2  0  0  0
 17 18  1  0  0  0
 18 19  2  0  0  0
 37 38  2  0  0  0
 38 33  1  0  0  0
  7  1  1  0  0  0
 19 14  1  0  0  0
 25 20  1  0  0  0
 39 42  1  0  0  0
 41 43  1  0  0  0
 41 44  1  0  0  0
  5  8  1  0  0  0
  5  9  1  0  0  0
 12 13  1  0  0  0
 27 30  1  0  0  0
 27 31  1  0  0  0
M  END
> <minimizedAffinity>
-9.34072

> <CNNscore>
0.6454599500

> <CNNaffinity>
7.4333076477

> <CNN_VS>
4.7979025841

> <CNNaffinity_variance>
0.1002454758

$$$$
[H]N=C(c1c([H])c([H])c([H])c(Oc2c([H])c([H])c(N([H])[H])c([H])c2C(=O)N([H])c2c([H])c([H])c(-c3c([H])c([H])c([H])c([H])c3S(=O)(=O)N([H])[H])c([H])c2[H])c1[H])N([H])[H]


 44 47  0  0  0  0  0  0  0  0999 V2000
  -18.2290   12.5641  -20.7672 C   0  0  0  0  0  0  0  0  0  0  0  0
  -18.3000   13.4279  -21.8897 C   0  0  0  0  0  0  0  0  0  0  0  0
  -17.3220   13.3967  -22.8470 C   0  0  0  0  0  0  0  0  0  0  0  0
  -16.2839   12.5138  -22.6845 C   0  0  0  0  0  0  0  0  0  0  0  0
  -15.2771   12.5093  -23.6808 N   0  0  0  0  0  0  0  0  0  0  0  0
  -16.2198   11.6745  -21.6013 C   0  0  0  0  0  0  0  0  0  0  0  0
  -17.2362   11.6831  -20.5883 C   0  0  0  0  0  0  0  0  0  0  0  0
  -14.9249   11.6364  -24.0852 H   0  0  0  0  0  0  0  0  0  0  0  0
  -14.9099   13.4293  -23.9731 H   0  0  0  0  0  0  0  0  0  0  0  0
  -17.2360   10.4777  -19.7155 C   0  0  0  0  0  0  0  0  0  0  0  0
  -16.4287    9.5817  -20.2046 O   0  0  0  0  0  0  0  0  0  0  0  0
  -17.8942   10.2328  -18.6015 N   0  0  0  0  0  0  0  0  0  0  0  0
  -17.0060    9.1943  -18.3392 H   0  0  0  0  0  0  0  0  0  0  0  0
  -18.5837    9.9761  -17.4346 C   0  0  0  0  0  0  0  0  0  0  0  0
  -19.3712   10.9978  -16.8539 C   0  0  0  0  0  0  0  0  0  0  0  0
  -20.0119   10.8249  -15.6482 C   0  0  0  0  0  0  0  0  0  0  0  0
  -19.9141    9.6465  -14.9532 C   0  0  0  0  0  0  0  0  0  0  0  0
  -19.1614    8.6369  -15.4945 C   0  0  0  0  0  0  0  0  0  0  0  0
  -18.5123    8.7995  -16.7065 C   0  0  0  0  0  0  0  0  0  0  0  0
  -20.5304    9.4470  -13.6612 C   0  0  0  0  0  0  0  0  0  0  0  0
  -19.8420    9.6918  -12.4879 C   0  0  0  0  0  0  0  0  0  0  0  0
  -20.4048    9.4712  -11.2567 C   0  0  0  0  0  0  0  0  0  0  0  0
  -21.6943    8.9911  -11.1859 C   0  0  0  0  0  0  0  0  0  0  0  0
  -22.3923    8.7439  -12.3363 C   0  0  0  0  0  0  0  0  0  0  0  0
  -21.8161    8.9711  -13.5817 C   0  0  0  0  0  0  0  0  0  0  0  0
  -22.7671    8.6658  -14.9761 S   0  0  0  0  0  0  0  0  0  0  0  0
  -24.3899    8.2415  -14.4650 N   0  0  0  0  0  0  0  0  0  0  0  0
  -22.2771    7.4042  -15.6669 O   0  0  0  0  0  0  0  0  0  0  0  0
  -22.8623    9.8169  -15.9351 O   0  0  0  0  0  0  0  0  0  0  0  0
  -24.4093    7.2924  -14.0359 H   0  0  0  0  0  0  0  0  0  0  0  0
  -24.7148    8.9265  -13.7628 H   0  0  0  0  0  0  0  0  0  0  0  0
  -19.2792   12.7086  -19.8298 O   0  0  0  0  0  0  0  0  0  0  0  0
  -20.2808   16.1208  -18.9619 C   0  0  0  0  0  0  0  0  0  0  0  0
  -19.3407   16.4766  -18.0174 C   0  0  0  0  0  0  0  0  0  0  0  0
  -18.3444   15.6191  -17.6229 C   0  0  0  0  0  0  0  0  0  0  0  0
  -18.3230   14.3514  -18.2283 C   0  0  0  0  0  0  0  0  0  0  0  0
  -19.2087   13.9501  -19.1531 C   0  0  0  0  0  0  0  0  0  0  0  0
  -20.2242   14.8740  -19.5288 C   0  0  0  0  0  0  0  0  0  0  0  0
  -22.2829   16.7651  -20.1621 N   0  0  0  0  0  0  0  0  0  0  0  0
  -21.3312   17.0579  -19.3794 C   0  0  0  0  0  0  0  0  0  0  0  0
  -21.2692   18.3880  -18.8862 N   0  0  0  0  0  0  0  0  0  0  0  0
  -22.5095   15.8853  -20.6220 H   0  0  0  0  0  0  0  0  0  0  0  0
  -21.0951   19.1313  -19.6108 H   0  0  0  0  0  0  0  0  0  0  0  0
  -21.3741   18.6915  -17.9141 H   0  0  0  0  0  0  0  0  0  0  0  0
 39 40  2  0  0  0
 40 41  1  0  0  0
 40 33  1  0  0  0
 33 34  2  0  0  0
 34 35  1  0  0  0
 35 36  2  0  0  0
 36 37  1  0  0  0
 37 32  1  0  0  0
 32  1  1  0  0  0
  1  2  2  0  0  0
  2  3  1  0  0  0
  3  4  2  0  0  0
  4  5  1  0  0  0
  4  6  1  0  0  0
  6  7  2  0  0  0
  7 10  1  0  0  0
 10 11  2  0  0  0
 10 12  1  0  0  0
 12 14  1  0  0  0
 14 15  2  0  0  0
 15 16  1  0  0  0
 16 17  2  0  0  0
 17 20  1  0  0  0
 20 21  2  0  0  0
 21 22  1  0  0  0
 22 23  2  0  0  0
 23 24  1  0  0  0
 24 25  2  0  0  0
 25 26  1  0  0  0
 26 27  1  0  0  0
 26 28  2  0  0  0
 26 29  2  0  0  0
 17 18  1  0  0  0
 18 19  2  0  0  0
 37 38  2  0  0  0
 38 33  1  0  0  0
  7  1  1  0  0  0
 19 14  1  0  0  0
 25 20  1  0  0  0
 39 42  1  0  0  0
 41 43  1  0  0  0
 41 44  1  0  0  0
  5  8  1  0  0  0
  5  9  1  0  0  0
 12 13  1  0  0  0
 27 30  1  0  0  0
 27 31  1  0  0  0
M  END
> <minimizedAffinity>
-8.00944

> <CNNscore>
0.5759122968

> <CNNaffinity>
6.9281196594

> <CNN_VS>
3.9899892807

> <CNNaffinity_variance>
0.2237445414

$$$$
[H]N=C(c1c([H])c([H])c([H])c(Oc2c([H])c([H])c(N([H])[H])c([H])c2C(=O)N([H])c2c([H])c([H])c(-c3c([H])c([H])c([H])c([H])c3S(=O)(=O)N([H])[H])c([H])c2[H])c1[H])N([H])[H]


 44 47  0  0  0  0  0  0  0  0999 V2000
  -18.0744   12.8822  -20.9700 C   0  0  0  0  0  0  0  0  0  0  0  0
  -18.1514   13.6711  -22.1458 C   0  0  0  0  0  0  0  0  0  0  0  0
  -17.1837   13.5704  -23.1088 C   0  0  0  0  0  0  0  0  0  0  0  0
  -16.1498   12.6926  -22.8992 C   0  0  0  0  0  0  0  0  0  0  0  0
  -15.1534   12.6157  -23.9031 N   0  0  0  0  0  0  0  0  0  0  0  0
  -16.0799   11.9255  -21.7641 C   0  0  0  0  0  0  0  0  0  0  0  0
  -17.0855   12.0076  -20.7438 C   0  0  0  0  0  0  0  0  0  0  0  0
  -14.8113   11.7157  -24.2530 H   0  0  0  0  0  0  0  0  0  0  0  0
  -14.7834   13.5120  -24.2586 H   0  0  0  0  0  0  0  0  0  0  0  0
  -17.0841   10.8619  -19.7940 C   0  0  0  0  0  0  0  0  0  0  0  0
  -16.0923   10.0652  -20.0687 O   0  0  0  0  0  0  0  0  0  0  0  0
  -17.8932   10.5847  -18.7926 N   0  0  0  0  0  0  0  0  0  0  0  0
  -16.9384    9.6981  -18.3045 H   0  0  0  0  0  0  0  0  0  0  0  0
  -18.7408   10.2944  -17.7438 C   0  0  0  0  0  0  0  0  0  0  0  0
  -18.7406    8.9926  -17.1902 C   0  0  0  0  0  0  0  0  0  0  0  0
  -19.6229    8.6235  -16.2005 C   0  0  0  0  0  0  0  0  0  0  0  0
  -20.5463    9.5081  -15.7046 C   0  0  0  0  0  0  0  0  0  0  0  0
  -20.5662   10.7785  -16.2191 C   0  0  0  0  0  0  0  0  0  0  0  0
  -19.6837   11.1609  -17.2149 C   0  0  0  0  0  0  0  0  0  0  0  0
  -21.5213    9.1414  -14.7028 C   0  0  0  0  0  0  0  0  0  0  0  0
  -22.7936    8.7286  -15.0511 C   0  0  0  0  0  0  0  0  0  0  0  0
  -23.7380    8.4133  -14.1078 C   0  0  0  0  0  0  0  0  0  0  0  0
  -23.4103    8.5107  -12.7730 C   0  0  0  0  0  0  0  0  0  0  0  0
  -22.1556    8.9164  -12.4085 C   0  0  0  0  0  0  0  0  0  0  0  0
  -21.2021    9.2334  -13.3702 C   0  0  0  0  0  0  0  0  0  0  0  0
  -19.6427    9.7040  -12.8329 S   0  0  0  0  0  0  0  0  0  0  0  0
  -19.6320    9.7068  -11.0794 N   0  0  0  0  0  0  0  0  0  0  0  0
  -19.3948   11.1610  -13.1862 O   0  0  0  0  0  0  0  0  0  0  0  0
  -18.5231    8.8241  -13.3083 O   0  0  0  0  0  0  0  0  0  0  0  0
  -20.1879   10.5041  -10.7046 H   0  0  0  0  0  0  0  0  0  0  0  0
  -20.0483    8.8254  -10.7359 H   0  0  0  0  0  0  0  0  0  0  0  0
  -19.1137   13.0952  -20.0336 O   0  0  0  0  0  0  0  0  0  0  0  0
  -18.4651   16.5742  -19.0981 C   0  0  0  0  0  0  0  0  0  0  0  0
  -18.2527   16.4829  -17.7383 C   0  0  0  0  0  0  0  0  0  0  0  0
  -18.3147   15.2855  -17.0707 C   0  0  0  0  0  0  0  0  0  0  0  0
  -18.6065   14.1460  -17.8390 C   0  0  0  0  0  0  0  0  0  0  0  0
  -18.8206   14.1727  -19.1634 C   0  0  0  0  0  0  0  0  0  0  0  0
  -18.7469   15.4380  -19.8113 C   0  0  0  0  0  0  0  0  0  0  0  0
  -17.5141   18.7541  -19.5540 N   0  0  0  0  0  0  0  0  0  0  0  0
  -18.3816   17.8635  -19.7956 C   0  0  0  0  0  0  0  0  0  0  0  0
  -19.3479   18.1399  -20.7987 N   0  0  0  0  0  0  0  0  0  0  0  0
  -16.7455   18.7598  -18.8861 H   0  0  0  0  0  0  0  0  0  0  0  0
  -20.0080   18.9314  -20.5850 H   0  0  0  0  0  0  0  0  0  0  0  0
  -19.4657   17.6551  -21.6928 H   0  0  0  0  0  0  0  0  0  0  0  0
 39 40  2  0  0  0
 40 41  1  0  0  0
 40 33  1  0  0  0
 33 34  2  0  0  0
 34 35  1  0  0  0
 35 36  2  0  0  0
 36 37  1  0  0  0
 37 32  1  0  0  0
 32  1  1  0  0  0
  1  2  2  0  0  0
  2  3  1  0  0  0
  3  4  2  0  0  0
  4  5  1  0  0  0
  4  6  1  0  0  0
  6  7  2  0  0  0
  7 10  1  0  0  0
 10 11  2  0  0  0
 10 12  1  0  0  0
 12 14  1  0  0  0
 14 15  2  0  0  0
 15 16  1  0  0  0
 16 17  2  0  0  0
 17 20  1  0  0  0
 20 21  2  0  0  0
 21 22  1  0  0  0
 22 23  2  0  0  0
 23 24  1  0  0  0
 24 25  2  0  0  0
 25 26  1  0  0  0
 26 27  1  0  0  0
 26 28  2  0  0  0
 26 29  2  0  0  0
 17 18  1  0  0  0
 18 19  2  0  0  0
 37 38  2  0  0  0
 38 33  1  0  0  0
  7  1  1  0  0  0
 19 14  1  0  0  0
 25 20  1  0  0  0
 39 42  1  0  0  0
 41 43  1  0  0  0
 41 44  1  0  0  0
  5  8  1  0  0  0
  5  9  1  0  0  0
 12 13  1  0  0  0
 27 30  1  0  0  0
 27 31  1  0  0  0
M  END
> <minimizedAffinity>
-8.94799

> <CNNscore>
0.5512329936

> <CNNaffinity>
7.0197930336

> <CNN_VS>
3.8695416451

> <CNNaffinity_variance>
0.1906706095

$$$$
[H]N=C(c1c([H])c([H])c([H])c(Oc2c([H])c([H])c(N([H])[H])c([H])c2C(=O)N([H])c2c([H])c([H])c(-c3c([H])c([H])c([H])c([H])c3S(=O)(=O)N([H])[H])c([H])c2[H])c1[H])N([H])[H]


 44 47  0  0  0  0  0  0  0  0999 V2000
  -17.9254   13.9381  -21.2947 C   0  0  0  0  0  0  0  0  0  0  0  0
  -18.3643   15.2766  -21.4582 C   0  0  0  0  0  0  0  0  0  0  0  0
  -19.5606   15.6799  -20.9287 C   0  0  0  0  0  0  0  0  0  0  0  0
  -20.3107   14.7564  -20.2447 C   0  0  0  0  0  0  0  0  0  0  0  0
  -21.5508   15.1933  -19.7176 N   0  0  0  0  0  0  0  0  0  0  0  0
  -19.8819   13.4635  -20.0820 C   0  0  0  0  0  0  0  0  0  0  0  0
  -18.6288   13.0185  -20.6212 C   0  0  0  0  0  0  0  0  0  0  0  0
  -21.8336   14.9750  -18.7574 H   0  0  0  0  0  0  0  0  0  0  0  0
  -22.1589   15.7357  -20.3521 H   0  0  0  0  0  0  0  0  0  0  0  0
  -18.1334   11.7426  -20.0371 C   0  0  0  0  0  0  0  0  0  0  0  0
  -17.2256   11.2272  -20.8144 O   0  0  0  0  0  0  0  0  0  0  0  0
  -18.4710   11.1286  -18.9220 N   0  0  0  0  0  0  0  0  0  0  0  0
  -17.3021   10.3794  -19.0148 H   0  0  0  0  0  0  0  0  0  0  0  0
  -18.8246   10.4854  -17.7541 C   0  0  0  0  0  0  0  0  0  0  0  0
  -19.6301   11.1592  -16.8064 C   0  0  0  0  0  0  0  0  0  0  0  0
  -19.9431   10.5987  -15.5890 C   0  0  0  0  0  0  0  0  0  0  0  0
  -19.4847    9.3539  -15.2401 C   0  0  0  0  0  0  0  0  0  0  0  0
  -18.7057    8.6756  -16.1411 C   0  0  0  0  0  0  0  0  0  0  0  0
  -18.3842    9.2296  -17.3685 C   0  0  0  0  0  0  0  0  0  0  0  0
  -19.7502    8.7555  -13.9516 C   0  0  0  0  0  0  0  0  0  0  0  0
  -19.0049    9.0856  -12.8353 C   0  0  0  0  0  0  0  0  0  0  0  0
  -19.2244    8.4971  -11.6161 C   0  0  0  0  0  0  0  0  0  0  0  0
  -20.2167    7.5483  -11.4990 C   0  0  0  0  0  0  0  0  0  0  0  0
  -20.9659    7.2091  -12.5924 C   0  0  0  0  0  0  0  0  0  0  0  0
  -20.7390    7.8108  -13.8257 C   0  0  0  0  0  0  0  0  0  0  0  0
  -21.7410    7.3537  -15.1406 S   0  0  0  0  0  0  0  0  0  0  0  0
  -22.9192    6.1882  -14.5678 N   0  0  0  0  0  0  0  0  0  0  0  0
  -20.9310    6.5627  -16.1541 O   0  0  0  0  0  0  0  0  0  0  0  0
  -22.4795    8.4877  -15.7906 O   0  0  0  0  0  0  0  0  0  0  0  0
  -22.4692    5.2695  -14.3707 H   0  0  0  0  0  0  0  0  0  0  0  0
  -23.3471    6.5388  -13.6948 H   0  0  0  0  0  0  0  0  0  0  0  0
  -16.6897   13.6307  -21.9119 O   0  0  0  0  0  0  0  0  0  0  0  0
  -15.8503   14.4603  -25.3770 C   0  0  0  0  0  0  0  0  0  0  0  0
  -16.7765   13.7295  -26.0915 C   0  0  0  0  0  0  0  0  0  0  0  0
  -17.7099   12.9350  -25.4742 C   0  0  0  0  0  0  0  0  0  0  0  0
  -17.6812   12.8979  -24.0700 C   0  0  0  0  0  0  0  0  0  0  0  0
  -16.8062   13.5875  -23.3222 C   0  0  0  0  0  0  0  0  0  0  0  0
  -15.8566   14.3965  -24.0077 C   0  0  0  0  0  0  0  0  0  0  0  0
  -13.7056   15.5587  -25.6171 N   0  0  0  0  0  0  0  0  0  0  0  0
  -14.8681   15.3143  -26.0564 C   0  0  0  0  0  0  0  0  0  0  0  0
  -15.2507   15.9218  -27.2815 N   0  0  0  0  0  0  0  0  0  0  0  0
  -13.2391   15.2320  -24.7730 H   0  0  0  0  0  0  0  0  0  0  0  0
  -15.3202   16.9720  -27.2633 H   0  0  0  0  0  0  0  0  0  0  0  0
  -15.4628   15.4498  -28.1649 H   0  0  0  0  0  0  0  0  0  0  0  0
 39 40  2  0  0  0
 40 41  1  0  0  0
 40 33  1  0  0  0
 33 34  2  0  0  0
 34 35  1  0  0  0
 35 36  2  0  0  0
 36 37  1  0  0  0
 37 32  1  0  0  0
 32  1  1  0  0  0
  1  2  2  0  0  0
  2  3  1  0  0  0
  3  4  2  0  0  0
  4  5  1  0  0  0
  4  6  1  0  0  0
  6  7  2  0  0  0
  7 10  1  0  0  0
 10 11  2  0  0  0
 10 12  1  0  0  0
 12 14  1  0  0  0
 14 15  2  0  0  0
 15 16  1  0  0  0
 16 17  2  0  0  0
 17 20  1  0  0  0
 20 21  2  0  0  0
 21 22  1  0  0  0
 22 23  2  0  0  0
 23 24  1  0  0  0
 24 25  2  0  0  0
 25 26  1  0  0  0
 26 27  1  0  0  0
 26 28  2  0  0  0
 26 29  2  0  0  0
 17 18  1  0  0  0
 18 19  2  0  0  0
 37 38  2  0  0  0
 38 33  1  0  0  0
  7  1  1  0  0  0
 19 14  1  0  0  0
 25 20  1  0  0  0
 39 42  1  0  0  0
 41 43  1  0  0  0
 41 44  1  0  0  0
  5  8  1  0  0  0
  5  9  1  0  0  0
 12 13  1  0  0  0
 27 30  1  0  0  0
 27 31  1  0  0  0
M  END
> <minimizedAffinity>
-9.66523

> <CNNscore>
0.3780973852

> <CNNaffinity>
6.7216019630

> <CNN_VS>
2.5414202213

> <CNNaffinity_variance>
0.1884444952

$$$$
[H]N=C(c1c([H])c([H])c([H])c(Oc2c([H])c([H])c(N([H])[H])c([H])c2C(=O)N([H])c2c([H])c([H])c(-c3c([H])c([H])c([H])c([H])c3S(=O)(=O)N([H])[H])c([H])c2[H])c1[H])N([H])[H]


 44 47  0  0  0  0  0  0  0  0999 V2000
  -18.2126   13.0705  -20.4734 C   0  0  0  0  0  0  0  0  0  0  0  0
  -18.4363   13.8432  -21.6412 C   0  0  0  0  0  0  0  0  0  0  0  0
  -17.6527   13.6619  -22.7490 C   0  0  0  0  0  0  0  0  0  0  0  0
  -16.6559   12.7204  -22.6905 C   0  0  0  0  0  0  0  0  0  0  0  0
  -15.8495   12.5602  -23.8441 N   0  0  0  0  0  0  0  0  0  0  0  0
  -16.4447   11.9693  -21.5623 C   0  0  0  0  0  0  0  0  0  0  0  0
  -17.2570   12.1356  -20.3912 C   0  0  0  0  0  0  0  0  0  0  0  0
  -15.6287   11.6336  -24.2211 H   0  0  0  0  0  0  0  0  0  0  0  0
  -15.4886   13.4236  -24.2809 H   0  0  0  0  0  0  0  0  0  0  0  0
  -17.1683   11.0083  -19.4236 C   0  0  0  0  0  0  0  0  0  0  0  0
  -16.0310   10.3928  -19.5698 O   0  0  0  0  0  0  0  0  0  0  0  0
  -18.0266   10.5980  -18.5129 N   0  0  0  0  0  0  0  0  0  0  0  0
  -16.9963    9.8886  -17.9034 H   0  0  0  0  0  0  0  0  0  0  0  0
  -18.9256   10.1682  -17.5590 C   0  0  0  0  0  0  0  0  0  0  0  0
  -19.9112   11.0628  -17.0801 C   0  0  0  0  0  0  0  0  0  0  0  0
  -20.7789   10.7153  -16.0699 C   0  0  0  0  0  0  0  0  0  0  0  0
  -20.7253    9.4780  -15.4804 C   0  0  0  0  0  0  0  0  0  0  0  0
  -19.7831    8.5887  -15.9278 C   0  0  0  0  0  0  0  0  0  0  0  0
  -18.9049    8.9273  -16.9431 C   0  0  0  0  0  0  0  0  0  0  0  0
  -21.5855    9.0964  -14.3835 C   0  0  0  0  0  0  0  0  0  0  0  0
  -22.8467    8.5751  -14.6031 C   0  0  0  0  0  0  0  0  0  0  0  0
  -23.6851    8.2437  -13.5695 C   0  0  0  0  0  0  0  0  0  0  0  0
  -23.2591    8.4360  -12.2733 C   0  0  0  0  0  0  0  0  0  0  0  0
  -22.0137    8.9498  -12.0358 C   0  0  0  0  0  0  0  0  0  0  0  0
  -21.1677    9.2825  -13.0886 C   0  0  0  0  0  0  0  0  0  0  0  0
  -19.6105    9.8923  -12.7079 S   0  0  0  0  0  0  0  0  0  0  0  0
  -18.4174    8.6726  -13.1127 N   0  0  0  0  0  0  0  0  0  0  0  0
  -19.4677   10.0346  -11.2017 O   0  0  0  0  0  0  0  0  0  0  0  0
  -19.2432   11.1629  -13.4181 O   0  0  0  0  0  0  0  0  0  0  0  0
  -18.4560    7.8765  -12.4419 H   0  0  0  0  0  0  0  0  0  0  0  0
  -18.6089    8.3122  -14.0621 H   0  0  0  0  0  0  0  0  0  0  0  0
  -19.0640   13.3683  -19.3830 O   0  0  0  0  0  0  0  0  0  0  0  0
  -19.4154   16.2150  -17.1088 C   0  0  0  0  0  0  0  0  0  0  0  0
  -18.7361   17.2141  -17.7743 C   0  0  0  0  0  0  0  0  0  0  0  0
  -18.1340   17.0007  -18.9889 C   0  0  0  0  0  0  0  0  0  0  0  0
  -18.2403   15.7086  -19.5304 C   0  0  0  0  0  0  0  0  0  0  0  0
  -18.8888   14.6984  -18.9310 C   0  0  0  0  0  0  0  0  0  0  0  0
  -19.4961   14.9679  -17.6722 C   0  0  0  0  0  0  0  0  0  0  0  0
  -19.6352   17.2828  -14.9465 N   0  0  0  0  0  0  0  0  0  0  0  0
  -20.0637   16.4675  -15.8158 C   0  0  0  0  0  0  0  0  0  0  0  0
  -21.2425   15.7374  -15.5100 N   0  0  0  0  0  0  0  0  0  0  0  0
  -18.8219   17.8952  -14.9632 H   0  0  0  0  0  0  0  0  0  0  0  0
  -21.1610   15.0629  -14.7061 H   0  0  0  0  0  0  0  0  0  0  0  0
  -22.1476   15.7992  -15.9846 H   0  0  0  0  0  0  0  0  0  0  0  0
 39 40  2  0  0  0
 40 41  1  0  0  0
 40 33  1  0  0  0
 33 34  2  0  0  0
 34 35  1  0  0  0
 35 36  2  0  0  0
 36 37  1  0  0  0
 37 32  1  0  0  0
 32  1  1  0  0  0
  1  2  2  0  0  0
  2  3  1  0  0  0
  3  4  2  0  0  0
  4  5  1  0  0  0
  4  6  1  0  0  0
  6  7  2  0  0  0
  7 10  1  0  0  0
 10 11  2  0  0  0
 10 12  1  0  0  0
 12 14  1  0  0  0
 14 15  2  0  0  0
 15 16  1  0  0  0
 16 17  2  0  0  0
 17 20  1  0  0  0
 20 21  2  0  0  0
 21 22  1  0  0  0
 22 23  2  0  0  0
 23 24  1  0  0  0
 24 25  2  0  0  0
 25 26  1  0  0  0
 26 27  1  0  0  0
 26 28  2  0  0  0
 26 29  2  0  0  0
 17 18  1  0  0  0
 18 19  2  0  0  0
 37 38  2  0  0  0
 38 33  1  0  0  0
  7  1  1  0  0  0
 19 14  1  0  0  0
 25 20  1  0  0  0
 39 42  1  0  0  0
 41 43  1  0  0  0
 41 44  1  0  0  0
  5  8  1  0  0  0
  5  9  1  0  0  0
 12 13  1  0  0  0
 27 30  1  0  0  0
 27 31  1  0  0  0
M  END
> <minimizedAffinity>
-8.89270

> <CNNscore>
0.3647532463

> <CNNaffinity>
6.8136000633

> <CNN_VS>
2.4852826595

> <CNNaffinity_variance>
0.2509604096

$$$$
[H]N=C(c1c([H])c([H])c([H])c(Oc2c([H])c([H])c(N([H])[H])c([H])c2C(=O)N([H])c2c([H])c([H])c(-c3c([H])c([H])c([H])c([H])c3S(=O)(=O)N([H])[H])c([H])c2[H])c1[H])N([H])[H]


 44 47  0  0  0  0  0  0  0  0999 V2000
  -19.3662   12.9107  -17.0189 C   0  0  0  0  0  0  0  0  0  0  0  0
  -20.2038   13.1570  -15.9014 C   0  0  0  0  0  0  0  0  0  0  0  0
  -21.0422   12.1787  -15.4387 C   0  0  0  0  0  0  0  0  0  0  0  0
  -21.0449   10.9684  -16.0857 C   0  0  0  0  0  0  0  0  0  0  0  0
  -21.9304    9.9764  -15.5974 N   0  0  0  0  0  0  0  0  0  0  0  0
  -20.2296   10.7295  -17.1627 C   0  0  0  0  0  0  0  0  0  0  0  0
  -19.3371   11.7361  -17.6619 C   0  0  0  0  0  0  0  0  0  0  0  0
  -21.6246    9.0104  -15.4462 H   0  0  0  0  0  0  0  0  0  0  0  0
  -22.9014   10.2736  -15.4094 H   0  0  0  0  0  0  0  0  0  0  0  0
  -18.2649   11.2124  -18.5512 C   0  0  0  0  0  0  0  0  0  0  0  0
  -17.9171   10.0195  -18.1639 O   0  0  0  0  0  0  0  0  0  0  0  0
  -17.6803   11.7620  -19.5954 N   0  0  0  0  0  0  0  0  0  0  0  0
  -17.2226   10.5014  -19.9662 H   0  0  0  0  0  0  0  0  0  0  0  0
  -17.0680   12.3378  -20.6892 C   0  0  0  0  0  0  0  0  0  0  0  0
  -17.4204   13.6538  -21.0700 C   0  0  0  0  0  0  0  0  0  0  0  0
  -16.9046   14.2461  -22.2001 C   0  0  0  0  0  0  0  0  0  0  0  0
  -16.0203   13.5817  -23.0111 C   0  0  0  0  0  0  0  0  0  0  0  0
  -15.6570   12.3064  -22.6638 C   0  0  0  0  0  0  0  0  0  0  0  0
  -16.1696   11.7003  -21.5296 C   0  0  0  0  0  0  0  0  0  0  0  0
  -15.4980   14.1523  -24.2319 C   0  0  0  0  0  0  0  0  0  0  0  0
  -14.3420   14.9099  -24.2375 C   0  0  0  0  0  0  0  0  0  0  0  0
  -13.8575   15.4863  -25.3839 C   0  0  0  0  0  0  0  0  0  0  0  0
  -14.5427   15.3060  -26.5657 C   0  0  0  0  0  0  0  0  0  0  0  0
  -15.6883   14.5584  -26.5804 C   0  0  0  0  0  0  0  0  0  0  0  0
  -16.1735   13.9754  -25.4145 C   0  0  0  0  0  0  0  0  0  0  0  0
  -17.5988   13.0273  -25.5215 S   0  0  0  0  0  0  0  0  0  0  0  0
  -17.7807   12.4748  -27.1758 N   0  0  0  0  0  0  0  0  0  0  0  0
  -18.8194   13.9076  -25.3108 O   0  0  0  0  0  0  0  0  0  0  0  0
  -17.6235   11.8272  -24.6199 O   0  0  0  0  0  0  0  0  0  0  0  0
  -18.0527   13.2606  -27.8034 H   0  0  0  0  0  0  0  0  0  0  0  0
  -16.8811   12.0871  -27.5052 H   0  0  0  0  0  0  0  0  0  0  0  0
  -18.5672   14.0059  -17.4246 O   0  0  0  0  0  0  0  0  0  0  0  0
  -19.0318   16.8563  -19.6738 C   0  0  0  0  0  0  0  0  0  0  0  0
  -20.2459   16.5751  -20.2649 C   0  0  0  0  0  0  0  0  0  0  0  0
  -20.9610   15.4449  -19.9571 C   0  0  0  0  0  0  0  0  0  0  0  0
  -20.3980   14.5786  -19.0050 C   0  0  0  0  0  0  0  0  0  0  0  0
  -19.2230   14.7999  -18.3960 C   0  0  0  0  0  0  0  0  0  0  0  0
  -18.5175   15.9847  -18.7491 C   0  0  0  0  0  0  0  0  0  0  0  0
  -17.8472   18.3549  -21.1622 N   0  0  0  0  0  0  0  0  0  0  0  0
  -18.2884   18.0776  -20.0078 C   0  0  0  0  0  0  0  0  0  0  0  0
  -18.0314   19.0052  -18.9638 N   0  0  0  0  0  0  0  0  0  0  0  0
  -17.9185   17.8365  -22.0357 H   0  0  0  0  0  0  0  0  0  0  0  0
  -17.0181   19.1271  -18.7065 H   0  0  0  0  0  0  0  0  0  0  0  0
  -18.7201   19.5570  -18.4448 H   0  0  0  0  0  0  0  0  0  0  0  0
 39 40  2  0  0  0
 40 41  1  0  0  0
 40 33  1  0  0  0
 33 34  2  0  0  0
 34 35  1  0  0  0
 35 36  2  0  0  0
 36 37  1  0  0  0
 37 32  1  0  0  0
 32  1  1  0  0  0
  1  2  2  0  0  0
  2  3  1  0  0  0
  3  4  2  0  0  0
  4  5  1  0  0  0
  4  6  1  0  0  0
  6  7  2  0  0  0
  7 10  1  0  0  0
 10 11  2  0  0  0
 10 12  1  0  0  0
 12 14  1  0  0  0
 14 15  2  0  0  0
 15 16  1  0  0  0
 16 17  2  0  0  0
 17 20  1  0  0  0
 20 21  2  0  0  0
 21 22  1  0  0  0
 22 23  2  0  0  0
 23 24  1  0  0  0
 24 25  2  0  0  0
 25 26  1  0  0  0
 26 27  1  0  0  0
 26 28  2  0  0  0
 26 29  2  0  0  0
 17 18  1  0  0  0
 18 19  2  0  0  0
 37 38  2  0  0  0
 38 33  1  0  0  0
  7  1  1  0  0  0
 19 14  1  0  0  0
 25 20  1  0  0  0
 39 42  1  0  0  0
 41 43  1  0  0  0
 41 44  1  0  0  0
  5  8  1  0  0  0
  5  9  1  0  0  0
 12 13  1  0  0  0
 27 30  1  0  0  0
 27 31  1  0  0  0
M  END
> <minimizedAffinity>
-8.56250

> <CNNscore>
0.3309245408

> <CNNaffinity>
7.0916509628

> <CNN_VS>
2.3468012810

> <CNNaffinity_variance>
0.1538403481

$$$$
[H]N=C(c1c([H])c([H])c([H])c(Oc2c([H])c([H])c(N([H])[H])c([H])c2C(=O)N([H])c2c([H])c([H])c(-c3c([H])c([H])c([H])c([H])c3S(=O)(=O)N([H])[H])c([H])c2[H])c1[H])N([H])[H]


 44 47  0  0  0  0  0  0  0  0999 V2000
  -20.4357   13.0179  -16.8335 C   0  0  0  0  0  0  0  0  0  0  0  0
  -21.3106   13.9704  -16.2519 C   0  0  0  0  0  0  0  0  0  0  0  0
  -20.9452   15.2876  -16.1773 C   0  0  0  0  0  0  0  0  0  0  0  0
  -19.7191   15.6492  -16.6767 C   0  0  0  0  0  0  0  0  0  0  0  0
  -19.3573   17.0150  -16.5760 N   0  0  0  0  0  0  0  0  0  0  0  0
  -18.8764   14.7278  -17.2447 C   0  0  0  0  0  0  0  0  0  0  0  0
  -19.2396   13.3429  -17.3411 C   0  0  0  0  0  0  0  0  0  0  0  0
  -18.9579   17.5252  -17.3696 H   0  0  0  0  0  0  0  0  0  0  0  0
  -19.5086   17.4684  -15.6605 H   0  0  0  0  0  0  0  0  0  0  0  0
  -18.4212   12.5649  -18.3105 C   0  0  0  0  0  0  0  0  0  0  0  0
  -17.9962   11.4711  -17.7478 O   0  0  0  0  0  0  0  0  0  0  0  0
  -18.1070   12.8261  -19.5624 N   0  0  0  0  0  0  0  0  0  0  0  0
  -17.7616   11.4880  -19.7245 H   0  0  0  0  0  0  0  0  0  0  0  0
  -17.7780   13.0997  -20.8738 C   0  0  0  0  0  0  0  0  0  0  0  0
  -18.4394   14.1507  -21.5513 C   0  0  0  0  0  0  0  0  0  0  0  0
  -18.2122   14.4134  -22.8831 C   0  0  0  0  0  0  0  0  0  0  0  0
  -17.3284   13.6627  -23.6155 C   0  0  0  0  0  0  0  0  0  0  0  0
  -16.6693   12.6405  -22.9835 C   0  0  0  0  0  0  0  0  0  0  0  0
  -16.8900   12.3668  -21.6445 C   0  0  0  0  0  0  0  0  0  0  0  0
  -17.1027   13.8766  -25.0270 C   0  0  0  0  0  0  0  0  0  0  0  0
  -17.5523   12.9759  -25.9741 C   0  0  0  0  0  0  0  0  0  0  0  0
  -17.3121   13.1504  -27.3132 C   0  0  0  0  0  0  0  0  0  0  0  0
  -16.6014   14.2556  -27.7279 C   0  0  0  0  0  0  0  0  0  0  0  0
  -16.1491   15.1589  -26.8054 C   0  0  0  0  0  0  0  0  0  0  0  0
  -16.3974   14.9768  -25.4490 C   0  0  0  0  0  0  0  0  0  0  0  0
  -15.8238   16.1699  -24.3585 S   0  0  0  0  0  0  0  0  0  0  0  0
  -14.8016   17.2891  -25.2402 N   0  0  0  0  0  0  0  0  0  0  0  0
  -14.8692   15.5375  -23.3595 O   0  0  0  0  0  0  0  0  0  0  0  0
  -16.8990   16.9588  -23.6690 O   0  0  0  0  0  0  0  0  0  0  0  0
  -13.8952   16.8437  -25.4959 H   0  0  0  0  0  0  0  0  0  0  0  0
  -15.2830   17.5768  -26.1083 H   0  0  0  0  0  0  0  0  0  0  0  0
  -20.9082   11.6841  -16.8262 O   0  0  0  0  0  0  0  0  0  0  0  0
  -20.2613    8.7674  -14.7109 C   0  0  0  0  0  0  0  0  0  0  0  0
  -19.7725    9.3397  -13.5550 C   0  0  0  0  0  0  0  0  0  0  0  0
  -19.6313   10.6979  -13.4185 C   0  0  0  0  0  0  0  0  0  0  0  0
  -20.0096   11.4878  -14.5172 C   0  0  0  0  0  0  0  0  0  0  0  0
  -20.4925   10.9886  -15.6652 C   0  0  0  0  0  0  0  0  0  0  0  0
  -20.6196    9.5741  -15.7598 C   0  0  0  0  0  0  0  0  0  0  0  0
  -21.5309    6.7121  -14.8784 N   0  0  0  0  0  0  0  0  0  0  0  0
  -20.4166    7.3124  -14.8320 C   0  0  0  0  0  0  0  0  0  0  0  0
  -19.2390    6.5207  -14.8846 N   0  0  0  0  0  0  0  0  0  0  0  0
  -22.4792    7.0825  -14.8549 H   0  0  0  0  0  0  0  0  0  0  0  0
  -19.0907    5.8758  -14.0661 H   0  0  0  0  0  0  0  0  0  0  0  0
  -18.5318    6.5146  -15.6248 H   0  0  0  0  0  0  0  0  0  0  0  0
 39 40  2  0  0  0
 40 41  1  0  0  0
 40 33  1  0  0  0
 33 34  2  0  0  0
 34 35  1  0  0  0
 35 36  2  0  0  0
 36 37  1  0  0  0
 37 32  1  0  0  0
 32  1  1  0  0  0
  1  2  2  0  0  0
  2  3  1  0  0  0
  3  4  2  0  0  0
  4  5  1  0  0  0
  4  6  1  0  0  0
  6  7  2  0  0  0
  7 10  1  0  0  0
 10 11  2  0  0  0
 10 12  1  0  0  0
 12 14  1  0  0  0
 14 15  2  0  0  0
 15 16  1  0  0  0
 16 17  2  0  0  0
 17 20  1  0  0  0
 20 21  2  0  0  0
 21 22  1  0  0  0
 22 23  2  0  0  0
 23 24  1  0  0  0
 24 25  2  0  0  0
 25 26  1  0  0  0
 26 27  1  0  0  0
 26 28  2  0  0  0
 26 29  2  0  0  0
 17 18  1  0  0  0
 18 19  2  0  0  0
 37 38  2  0  0  0
 38 33  1  0  0  0
  7  1  1  0  0  0
 19 14  1  0  0  0
 25 20  1  0  0  0
 39 42  1  0  0  0
 41 43  1  0  0  0
 41 44  1  0  0  0
  5  8  1  0  0  0
  5  9  1  0  0  0
 12 13  1  0  0  0
 27 30  1  0  0  0
 27 31  1  0  0  0
M  END
> <minimizedAffinity>
-9.06704

> <CNNscore>
0.2474670708

> <CNNaffinity>
6.7971725464

> <CNN_VS>
1.6820763350

> <CNNaffinity_variance>
0.1060446873

$$$$
[H]N=C(c1c([H])c([H])c([H])c(Oc2c([H])c([H])c(N([H])[H])c([H])c2C(=O)N([H])c2c([H])c([H])c(-c3c([H])c([H])c([H])c([H])c3S(=O)(=O)N([H])[H])c([H])c2[H])c1[H])N([H])[H]


 44 47  0  0  0  0  0  0  0  0999 V2000
  -16.7951   15.5730  -23.2546 C   0  0  0  0  0  0  0  0  0  0  0  0
  -16.9280   16.7512  -24.0326 C   0  0  0  0  0  0  0  0  0  0  0  0
  -16.0443   17.0128  -25.0449 C   0  0  0  0  0  0  0  0  0  0  0  0
  -15.0383   16.1085  -25.2767 C   0  0  0  0  0  0  0  0  0  0  0  0
  -14.1282   16.4073  -26.3202 N   0  0  0  0  0  0  0  0  0  0  0  0
  -14.9148   14.9661  -24.5273 C   0  0  0  0  0  0  0  0  0  0  0  0
  -15.8325   14.6659  -23.4659 C   0  0  0  0  0  0  0  0  0  0  0  0
  -13.8560   15.7041  -27.0137 H   0  0  0  0  0  0  0  0  0  0  0  0
  -13.7467   17.3667  -26.3420 H   0  0  0  0  0  0  0  0  0  0  0  0
  -15.8090   13.2449  -23.0243 C   0  0  0  0  0  0  0  0  0  0  0  0
  -15.0646   12.5466  -23.8318 O   0  0  0  0  0  0  0  0  0  0  0  0
  -16.3965   12.6614  -22.0002 N   0  0  0  0  0  0  0  0  0  0  0  0
  -15.5241   11.5876  -22.1489 H   0  0  0  0  0  0  0  0  0  0  0  0
  -17.0118   12.0503  -20.9276 C   0  0  0  0  0  0  0  0  0  0  0  0
  -18.3910   12.2685  -20.7009 C   0  0  0  0  0  0  0  0  0  0  0  0
  -19.0371   11.7531  -19.6005 C   0  0  0  0  0  0  0  0  0  0  0  0
  -18.3672   11.0003  -18.6701 C   0  0  0  0  0  0  0  0  0  0  0  0
  -17.0306   10.7685  -18.8666 C   0  0  0  0  0  0  0  0  0  0  0  0
  -16.3701   11.2820  -19.9696 C   0  0  0  0  0  0  0  0  0  0  0  0
  -19.0006   10.4863  -17.4770 C   0  0  0  0  0  0  0  0  0  0  0  0
  -18.9773    9.1386  -17.1711 C   0  0  0  0  0  0  0  0  0  0  0  0
  -19.6060    8.6354  -16.0608 C   0  0  0  0  0  0  0  0  0  0  0  0
  -20.2816    9.4976  -15.2250 C   0  0  0  0  0  0  0  0  0  0  0  0
  -20.3149   10.8351  -15.5104 C   0  0  0  0  0  0  0  0  0  0  0  0
  -19.6740   11.3392  -16.6372 C   0  0  0  0  0  0  0  0  0  0  0  0
  -19.7361   13.0315  -16.9089 S   0  0  0  0  0  0  0  0  0  0  0  0
  -20.6576   13.7729  -15.6143 N   0  0  0  0  0  0  0  0  0  0  0  0
  -20.5712   13.3241  -18.1443 O   0  0  0  0  0  0  0  0  0  0  0  0
  -18.3964   13.7056  -16.9778 O   0  0  0  0  0  0  0  0  0  0  0  0
  -21.6713   13.5500  -15.7034 H   0  0  0  0  0  0  0  0  0  0  0  0
  -20.3199   13.4113  -14.7069 H   0  0  0  0  0  0  0  0  0  0  0  0
  -17.7471   15.4263  -22.2179 O   0  0  0  0  0  0  0  0  0  0  0  0
  -20.0675   18.2313  -21.8349 C   0  0  0  0  0  0  0  0  0  0  0  0
  -19.3713   19.0830  -21.0029 C   0  0  0  0  0  0  0  0  0  0  0  0
  -18.1194   18.7774  -20.5308 C   0  0  0  0  0  0  0  0  0  0  0  0
  -17.5725   17.5480  -20.9353 C   0  0  0  0  0  0  0  0  0  0  0  0
  -18.2008   16.6806  -21.7435 C   0  0  0  0  0  0  0  0  0  0  0  0
  -19.4976   17.0412  -22.2064 C   0  0  0  0  0  0  0  0  0  0  0  0
  -21.6288   19.4985  -23.1844 N   0  0  0  0  0  0  0  0  0  0  0  0
  -21.4008   18.5830  -22.3394 C   0  0  0  0  0  0  0  0  0  0  0  0
  -22.5139   17.8599  -21.8350 N   0  0  0  0  0  0  0  0  0  0  0  0
  -20.9861   20.1267  -23.6631 H   0  0  0  0  0  0  0  0  0  0  0  0
  -23.1952   18.4207  -21.2613 H   0  0  0  0  0  0  0  0  0  0  0  0
  -22.7167   16.8654  -21.9701 H   0  0  0  0  0  0  0  0  0  0  0  0
 39 40  2  0  0  0
 40 41  1  0  0  0
 40 33  1  0  0  0
 33 34  2  0  0  0
 34 35  1  0  0  0
 35 36  2  0  0  0
 36 37  1  0  0  0
 37 32  1  0  0  0
 32  1  1  0  0  0
  1  2  2  0  0  0
  2  3  1  0  0  0
  3  4  2  0  0  0
  4  5  1  0  0  0
  4  6  1  0  0  0
  6  7  2  0  0  0
  7 10  1  0  0  0
 10 11  2  0  0  0
 10 12  1  0  0  0
 12 14  1  0  0  0
 14 15  2  0  0  0
 15 16  1  0  0  0
 16 17  2  0  0  0
 17 20  1  0  0  0
 20 21  2  0  0  0
 21 22  1  0  0  0
 22 23  2  0  0  0
 23 24  1  0  0  0
 24 25  2  0  0  0
 25 26  1  0  0  0
 26 27  1  0  0  0
 26 28  2  0  0  0
 26 29  2  0  0  0
 17 18  1  0  0  0
 18 19  2  0  0  0
 37 38  2  0  0  0
 38 33  1  0  0  0
  7  1  1  0  0  0
 19 14  1  0  0  0
 25 20  1  0  0  0
 39 42  1  0  0  0
 41 43  1  0  0  0
 41 44  1  0  0  0
  5  8  1  0  0  0
  5  9  1  0  0  0
 12 13  1  0  0  0
 27 30  1  0  0  0
 27 31  1  0  0  0
M  END
> <minimizedAffinity>
-9.35639

> <CNNscore>
0.2339003086

> <CNNaffinity>
7.1046533585

> <CNN_VS>
1.6617805958

> <CNNaffinity_variance>
0.1571578085

$$$$
[H]N1C(=NC2([H])C([H])([H])C([H])([H])C([H])([H])C([H])([H])C([H])([H])C([H])([H])C2([H])[H])O[C@@]2([H])C([H])([H])C([H])([H])C([H])([H])C([H])([H])[C@@]2([H])S1(=O)=O


 22 24  0  0  0  0  0  0  0  0999 V2000
  -15.6367    9.9521  -20.0410 O   0  0  0  0  0  0  0  0  0  0  0  0
  -16.8057   10.7745  -20.4857 S   0  0  0  0  0  0  0  0  0  0  0  0
  -17.9752    9.9191  -20.8861 O   0  0  0  0  0  0  0  0  0  0  0  0
  -16.3685   11.8138  -21.8193 N   0  0  0  0  0  0  0  0  0  0  0  0
  -17.0193   13.0612  -21.9306 C   0  0  0  0  0  0  0  0  0  0  0  0
  -17.1331   13.6093  -23.0758 N   0  0  0  0  0  0  0  0  0  0  0  0
  -17.5290   13.6904  -20.8314 O   0  0  0  0  0  0  0  0  0  0  0  0
  -17.9715   13.1007  -19.6611 C   0  0  0  0  0  0  0  0  0  0  0  0
  -19.4923   12.9262  -19.7897 C   0  0  0  0  0  0  0  0  0  0  0  0
  -20.0400   12.8606  -18.3924 C   0  0  0  0  0  0  0  0  0  0  0  0
  -19.1343   12.0836  -17.4952 C   0  0  0  0  0  0  0  0  0  0  0  0
  -18.3061   11.0955  -18.3189 C   0  0  0  0  0  0  0  0  0  0  0  0
  -17.3369   11.8572  -19.1993 C   0  0  0  0  0  0  0  0  0  0  0  0
  -15.6574   11.4555  -22.4467 H   0  0  0  0  0  0  0  0  0  0  0  0
  -16.6362   13.0381  -24.2948 C   0  0  0  0  0  0  0  0  0  0  0  0
  -17.3882   13.5237  -25.5107 C   0  0  0  0  0  0  0  0  0  0  0  0
  -16.7673   14.6943  -26.1945 C   0  0  0  0  0  0  0  0  0  0  0  0
  -16.7260   15.9514  -25.3940 C   0  0  0  0  0  0  0  0  0  0  0  0
  -15.3180   16.5258  -25.2889 C   0  0  0  0  0  0  0  0  0  0  0  0
  -14.2892   15.4836  -24.9923 C   0  0  0  0  0  0  0  0  0  0  0  0
  -14.7435   14.6228  -23.8584 C   0  0  0  0  0  0  0  0  0  0  0  0
  -15.1499   13.2769  -24.4126 C   0  0  0  0  0  0  0  0  0  0  0  0
  1  2  2  0  0  0
  2  3  2  0  0  0
  2  4  1  0  0  0
  4  5  1  0  0  0
  5  6  2  0  0  0
  6 15  1  0  0  0
 15 16  1  0  0  0
 16 17  1  0  0  0
 17 18  1  0  0  0
 18 19  1  0  0  0
 19 20  1  0  0  0
 20 21  1  0  0  0
 21 22  1  0  0  0
  5  7  1  0  0  0
  7  8  1  0  0  0
  8  9  1  0  0  0
  9 10  1  0  0  0
 10 11  1  0  0  0
 11 12  1  0  0  0
 12 13  1  0  0  0
 13  2  1  0  0  0
 22 15  1  0  0  0
 13  8  1  0  0  0
  4 14  1  0  0  0
M  END
> <minimizedAffinity>
-8.08803

> <CNNscore>
0.4208309650

> <CNNaffinity>
6.2618379593

> <CNN_VS>
2.6351752281

> <CNNaffinity_variance>
0.2764584422

$$$$
[H]N1C(=NC2([H])C([H])([H])C([H])([H])C([H])([H])C([H])([H])C([H])([H])C([H])([H])C2([H])[H])O[C@@]2([H])C([H])([H])C([H])([H])C([H])([H])C([H])([H])[C@@]2([H])S1(=O)=O


 22 24  0  0  0  0  0  0  0  0999 V2000
  -17.9720   12.1858  -18.5913 O   0  0  0  0  0  0  0  0  0  0  0  0
  -18.4439   13.2041  -19.5818 S   0  0  0  0  0  0  0  0  0  0  0  0
  -19.8181   12.8873  -20.1025 O   0  0  0  0  0  0  0  0  0  0  0  0
  -17.3343   13.3325  -20.9243 N   0  0  0  0  0  0  0  0  0  0  0  0
  -17.1951   14.5881  -21.5534 C   0  0  0  0  0  0  0  0  0  0  0  0
  -16.8339   14.6411  -22.7746 N   0  0  0  0  0  0  0  0  0  0  0  0
  -17.4411   15.7471  -20.8751 O   0  0  0  0  0  0  0  0  0  0  0  0
  -18.2919   15.9207  -19.7983 C   0  0  0  0  0  0  0  0  0  0  0  0
  -19.6342   16.4154  -20.3580 C   0  0  0  0  0  0  0  0  0  0  0  0
  -20.3254   17.1461  -19.2420 C   0  0  0  0  0  0  0  0  0  0  0  0
  -20.1134   16.4567  -17.9348 C   0  0  0  0  0  0  0  0  0  0  0  0
  -19.8327   14.9709  -18.1680 C   0  0  0  0  0  0  0  0  0  0  0  0
  -18.4926   14.8102  -18.8557 C   0  0  0  0  0  0  0  0  0  0  0  0
  -16.8431   12.4825  -21.1771 H   0  0  0  0  0  0  0  0  0  0  0  0
  -16.5504   13.4886  -23.5812 C   0  0  0  0  0  0  0  0  0  0  0  0
  -17.3376   13.4755  -24.8696 C   0  0  0  0  0  0  0  0  0  0  0  0
  -16.6193   14.0594  -26.0386 C   0  0  0  0  0  0  0  0  0  0  0  0
  -16.3121   15.5147  -25.9354 C   0  0  0  0  0  0  0  0  0  0  0  0
  -14.8307   15.8104  -26.1390 C   0  0  0  0  0  0  0  0  0  0  0  0
  -13.9449   14.8628  -25.3974 C   0  0  0  0  0  0  0  0  0  0  0  0
  -14.4086   14.7277  -23.9833 C   0  0  0  0  0  0  0  0  0  0  0  0
  -15.0641   13.3756  -23.8219 C   0  0  0  0  0  0  0  0  0  0  0  0
  1  2  2  0  0  0
  2  3  2  0  0  0
  2  4  1  0  0  0
  4  5  1  0  0  0
  5  6  2  0  0  0
  6 15  1  0  0  0
 15 16  1  0  0  0
 16 17  1  0  0  0
 17 18  1  0  0  0
 18 19  1  0  0  0
 19 20  1  0  0  0
 20 21  1  0  0  0
 21 22  1  0  0  0
  5  7  1  0  0  0
  7  8  1  0  0  0
  8  9  1  0  0  0
  9 10  1  0  0  0
 10 11  1  0  0  0
 11 12  1  0  0  0
 12 13  1  0  0  0
 13  2  1  0  0  0
 22 15  1  0  0  0
 13  8  1  0  0  0
  4 14  1  0  0  0
M  END
> <minimizedAffinity>
-7.93736

> <CNNscore>
0.3593416810

> <CNNaffinity>
6.1041536331

> <CNN_VS>
2.1934769154

> <CNNaffinity_variance>
0.1641810685

$$$$
[H]N1C(=NC2([H])C([H])([H])C([H])([H])C([H])([H])C([H])([H])C([H])([H])C([H])([H])C2([H])[H])O[C@@]2([H])C([H])([H])C([H])([H])C([H])([H])C([H])([H])[C@@]2([H])S1(=O)=O


 22 24  0  0  0  0  0  0  0  0999 V2000
  -15.5650   10.2284  -20.5637 O   0  0  0  0  0  0  0  0  0  0  0  0
  -16.8665   10.9012  -20.2567 S   0  0  0  0  0  0  0  0  0  0  0  0
  -18.0084   10.2925  -21.0218 O   0  0  0  0  0  0  0  0  0  0  0  0
  -16.7849   12.6104  -20.6058 N   0  0  0  0  0  0  0  0  0  0  0  0
  -17.5550   13.4879  -19.8128 C   0  0  0  0  0  0  0  0  0  0  0  0
  -17.9323   14.6044  -20.2984 N   0  0  0  0  0  0  0  0  0  0  0  0
  -17.9026   13.1602  -18.5338 O   0  0  0  0  0  0  0  0  0  0  0  0
  -18.0607   11.8898  -18.0102 C   0  0  0  0  0  0  0  0  0  0  0  0
  -19.5563   11.5492  -18.0942 C   0  0  0  0  0  0  0  0  0  0  0  0
  -19.8219   10.5055  -17.0468 C   0  0  0  0  0  0  0  0  0  0  0  0
  -18.6965    9.5280  -16.9637 C   0  0  0  0  0  0  0  0  0  0  0  0
  -17.9530    9.4734  -18.2997 C   0  0  0  0  0  0  0  0  0  0  0  0
  -17.2406   10.7889  -18.5373 C   0  0  0  0  0  0  0  0  0  0  0  0
  -16.1758   12.8788  -21.3703 H   0  0  0  0  0  0  0  0  0  0  0  0
  -17.6252   15.0493  -21.6277 C   0  0  0  0  0  0  0  0  0  0  0  0
  -18.8077   15.6937  -22.3104 C   0  0  0  0  0  0  0  0  0  0  0  0
  -18.8616   17.1783  -22.1823 C   0  0  0  0  0  0  0  0  0  0  0  0
  -19.0497   17.6916  -20.7952 C   0  0  0  0  0  0  0  0  0  0  0  0
  -17.9694   18.6895  -20.3948 C   0  0  0  0  0  0  0  0  0  0  0  0
  -16.5979   18.2451  -20.7870 C   0  0  0  0  0  0  0  0  0  0  0  0
  -16.3804   16.8262  -20.3718 C   0  0  0  0  0  0  0  0  0  0  0  0
  -16.4176   15.9555  -21.6064 C   0  0  0  0  0  0  0  0  0  0  0  0
  1  2  2  0  0  0
  2  3  2  0  0  0
  2  4  1  0  0  0
  4  5  1  0  0  0
  5  6  2  0  0  0
  6 15  1  0  0  0
 15 16  1  0  0  0
 16 17  1  0  0  0
 17 18  1  0  0  0
 18 19  1  0  0  0
 19 20  1  0  0  0
 20 21  1  0  0  0
 21 22  1  0  0  0
  5  7  1  0  0  0
  7  8  1  0  0  0
  8  9  1  0  0  0
  9 10  1  0  0  0
 10 11  1  0  0  0
 11 12  1  0  0  0
 12 13  1  0  0  0
 13  2  1  0  0  0
 22 15  1  0  0  0
 13  8  1  0  0  0
  4 14  1  0  0  0
M  END
> <minimizedAffinity>
-6.43876

> <CNNscore>
0.2794654965

> <CNNaffinity>
5.8218545914

> <CNN_VS>
1.6270074844

> <CNNaffinity_variance>
0.3816896081

$$$$
[H]N1C(=NC2([H])C([H])([H])C([H])([H])C([H])([H])C([H])([H])C([H])([H])C([H])([H])C2([H])[H])O[C@@]2([H])C([H])([H])C([H])([H])C([H])([H])C([H])([H])[C@@]2([H])S1(=O)=O


 22 24  0  0  0  0  0  0  0  0999 V2000
  -18.1787   15.3680  -17.1252 O   0  0  0  0  0  0  0  0  0  0  0  0
  -19.1543   16.4460  -17.4813 S   0  0  0  0  0  0  0  0  0  0  0  0
  -20.5702   15.9413  -17.4938 O   0  0  0  0  0  0  0  0  0  0  0  0
  -18.7769   17.1422  -19.0379 N   0  0  0  0  0  0  0  0  0  0  0  0
  -19.0764   18.5056  -19.2461 C   0  0  0  0  0  0  0  0  0  0  0  0
  -19.3021   18.9246  -20.4285 N   0  0  0  0  0  0  0  0  0  0  0  0
  -19.1284   19.3830  -18.2014 O   0  0  0  0  0  0  0  0  0  0  0  0
  -19.4280   19.0948  -16.8822 C   0  0  0  0  0  0  0  0  0  0  0  0
  -20.9264   19.3720  -16.6880 C   0  0  0  0  0  0  0  0  0  0  0  0
  -21.1310   19.6381  -15.2237 C   0  0  0  0  0  0  0  0  0  0  0  0
  -20.2842   18.7351  -14.3891 C   0  0  0  0  0  0  0  0  0  0  0  0
  -19.9667   17.4545  -15.1636 C   0  0  0  0  0  0  0  0  0  0  0  0
  -19.0611   17.7809  -16.3332 C   0  0  0  0  0  0  0  0  0  0  0  0
  -18.3542   16.5158  -19.7136 H   0  0  0  0  0  0  0  0  0  0  0  0
  -19.2744   18.0920  -21.5969 C   0  0  0  0  0  0  0  0  0  0  0  0
  -20.6298   17.5162  -21.9301 C   0  0  0  0  0  0  0  0  0  0  0  0
  -21.4124   18.3106  -22.9201 C   0  0  0  0  0  0  0  0  0  0  0  0
  -21.8119   19.6744  -22.4693 C   0  0  0  0  0  0  0  0  0  0  0  0
  -21.3648   20.7603  -23.4410 C   0  0  0  0  0  0  0  0  0  0  0  0
  -19.9591   20.5722  -23.9111 C   0  0  0  0  0  0  0  0  0  0  0  0
  -19.0599   20.3092  -22.7469 C   0  0  0  0  0  0  0  0  0  0  0  0
  -18.6763   18.8475  -22.7594 C   0  0  0  0  0  0  0  0  0  0  0  0
  1  2  2  0  0  0
  2  3  2  0  0  0
  2  4  1  0  0  0
  4  5  1  0  0  0
  5  6  2  0  0  0
  6 15  1  0  0  0
 15 16  1  0  0  0
 16 17  1  0  0  0
 17 18  1  0  0  0
 18 19  1  0  0  0
 19 20  1  0  0  0
 20 21  1  0  0  0
 21 22  1  0  0  0
  5  7  1  0  0  0
  7  8  1  0  0  0
  8  9  1  0  0  0
  9 10  1  0  0  0
 10 11  1  0  0  0
 11 12  1  0  0  0
 12 13  1  0  0  0
 13  2  1  0  0  0
 22 15  1  0  0  0
 13  8  1  0  0  0
  4 14  1  0  0  0
M  END
> <minimizedAffinity>
-4.96870

> <CNNscore>
0.2519435883

> <CNNaffinity>
5.0580062866

> <CNN_VS>
1.2743322849

> <CNNaffinity_variance>
0.2349811494

$$$$
[H]N1C(=NC2([H])C([H])([H])C([H])([H])C([H])([H])C([H])([H])C([H])([H])C([H])([H])C2([H])[H])O[C@@]2([H])C([H])([H])C([H])([H])C([H])([H])C([H])([H])[C@@]2([H])S1(=O)=O


 22 24  0  0  0  0  0  0  0  0999 V2000
  -17.2635   13.6821  -20.9705 O   0  0  0  0  0  0  0  0  0  0  0  0
  -17.6144   15.1239  -20.7735 S   0  0  0  0  0  0  0  0  0  0  0  0
  -16.4099   15.9532  -20.4248 O   0  0  0  0  0  0  0  0  0  0  0  0
  -18.8225   15.3092  -19.5261 N   0  0  0  0  0  0  0  0  0  0  0  0
  -19.7398   16.3753  -19.6427 C   0  0  0  0  0  0  0  0  0  0  0  0
  -20.2754   16.8596  -18.5923 N   0  0  0  0  0  0  0  0  0  0  0  0
  -20.0628   16.8965  -20.8625 O   0  0  0  0  0  0  0  0  0  0  0  0
  -19.2789   16.9044  -22.0021 C   0  0  0  0  0  0  0  0  0  0  0  0
  -18.5561   18.2592  -22.0442 C   0  0  0  0  0  0  0  0  0  0  0  0
  -18.2035   18.5171  -23.4815 C   0  0  0  0  0  0  0  0  0  0  0  0
  -17.7679   17.2619  -24.1624 C   0  0  0  0  0  0  0  0  0  0  0  0
  -17.2150   16.2746  -23.1326 C   0  0  0  0  0  0  0  0  0  0  0  0
  -18.3372   15.7989  -22.2333 C   0  0  0  0  0  0  0  0  0  0  0  0
  -18.7962   14.6259  -18.7777 H   0  0  0  0  0  0  0  0  0  0  0  0
  -20.0087   16.3902  -17.2628 C   0  0  0  0  0  0  0  0  0  0  0  0
  -19.0448   17.2810  -16.5165 C   0  0  0  0  0  0  0  0  0  0  0  0
  -19.6948   18.3175  -15.6639 C   0  0  0  0  0  0  0  0  0  0  0  0
  -20.4831   19.3460  -16.4013 C   0  0  0  0  0  0  0  0  0  0  0  0
  -21.9162   19.4522  -15.8932 C   0  0  0  0  0  0  0  0  0  0  0  0
  -22.5529   18.1180  -15.6763 C   0  0  0  0  0  0  0  0  0  0  0  0
  -22.3322   17.2446  -16.8685 C   0  0  0  0  0  0  0  0  0  0  0  0
  -21.3035   16.1972  -16.5103 C   0  0  0  0  0  0  0  0  0  0  0  0
  1  2  2  0  0  0
  2  3  2  0  0  0
  2  4  1  0  0  0
  4  5  1  0  0  0
  5  6  2  0  0  0
  6 15  1  0  0  0
 15 16  1  0  0  0
 16 17  1  0  0  0
 17 18  1  0  0  0
 18 19  1  0  0  0
 19 20  1  0  0  0
 20 21  1  0  0  0
 21 22  1  0  0  0
  5  7  1  0  0  0
  7  8  1  0  0  0
  8  9  1  0  0  0
  9 10  1  0  0  0
 10 11  1  0  0  0
 11 12  1  0  0  0
 12 13  1  0  0  0
 13  2  1  0  0  0
 22 15  1  0  0  0
 13  8  1  0  0  0
  4 14  1  0  0  0
M  END
> <minimizedAffinity>
-4.98498

> <CNNscore>
0.2269673944

> <CNNaffinity>
5.1007571220

> <CNN_VS>
1.1577055454

> <CNNaffinity_variance>
0.1347000748

$$$$
[H]N1C(=NC2([H])C([H])([H])C([H])([H])C([H])([H])C([H])([H])C([H])([H])C([H])([H])C2([H])[H])O[C@@]2([H])C([H])([H])C([H])([H])C([H])([H])C([H])([H])[C@@]2([H])S1(=O)=O


 22 24  0  0  0  0  0  0  0  0999 V2000
  -17.1950    9.8217  -20.1514 O   0  0  0  0  0  0  0  0  0  0  0  0
  -17.5211   10.6613  -18.9558 S   0  0  0  0  0  0  0  0  0  0  0  0
  -16.2830   11.1441  -18.2531 O   0  0  0  0  0  0  0  0  0  0  0  0
  -18.5187    9.7798  -17.8254 N   0  0  0  0  0  0  0  0  0  0  0  0
  -19.4508   10.5070  -17.0545 C   0  0  0  0  0  0  0  0  0  0  0  0
  -19.8176   10.0529  -15.9214 N   0  0  0  0  0  0  0  0  0  0  0  0
  -19.9661   11.6891  -17.5029 O   0  0  0  0  0  0  0  0  0  0  0  0
  -19.3718   12.5820  -18.3762 C   0  0  0  0  0  0  0  0  0  0  0  0
  -18.6748   13.6527  -17.5232 C   0  0  0  0  0  0  0  0  0  0  0  0
  -18.5553   14.8797  -18.3816 C   0  0  0  0  0  0  0  0  0  0  0  0
  -18.2232   14.5196  -19.7919 C   0  0  0  0  0  0  0  0  0  0  0  0
  -17.5075   13.1680  -19.8306 C   0  0  0  0  0  0  0  0  0  0  0  0
  -18.4702   12.0729  -19.4203 C   0  0  0  0  0  0  0  0  0  0  0  0
  -18.3696    8.7778  -17.7894 H   0  0  0  0  0  0  0  0  0  0  0  0
  -19.3410    8.8241  -15.3538 C   0  0  0  0  0  0  0  0  0  0  0  0
  -18.9319    8.9742  -13.9082 C   0  0  0  0  0  0  0  0  0  0  0  0
  -19.9986    8.6292  -12.9250 C   0  0  0  0  0  0  0  0  0  0  0  0
  -21.1982    9.5143  -12.9499 C   0  0  0  0  0  0  0  0  0  0  0  0
  -22.4932    8.7308  -13.1299 C   0  0  0  0  0  0  0  0  0  0  0  0
  -22.3896    7.6775  -14.1846 C   0  0  0  0  0  0  0  0  0  0  0  0
  -21.7803    8.2502  -15.4231 C   0  0  0  0  0  0  0  0  0  0  0  0
  -20.3660    7.7318  -15.5442 C   0  0  0  0  0  0  0  0  0  0  0  0
  1  2  2  0  0  0
  2  3  2  0  0  0
  2  4  1  0  0  0
  4  5  1  0  0  0
  5  6  2  0  0  0
  6 15  1  0  0  0
 15 16  1  0  0  0
 16 17  1  0  0  0
 17 18  1  0  0  0
 18 19  1  0  0  0
 19 20  1  0  0  0
 20 21  1  0  0  0
 21 22  1  0  0  0
  5  7  1  0  0  0
  7  8  1  0  0  0
  8  9  1  0  0  0
  9 10  1  0  0  0
 10 11  1  0  0  0
 11 12  1  0  0  0
 12 13  1  0  0  0
 13  2  1  0  0  0
 22 15  1  0  0  0
 13  8  1  0  0  0
  4 14  1  0  0  0
M  END
> <minimizedAffinity>
-6.13776

> <CNNscore>
0.2239889950

> <CNNaffinity>
5.0730800629

> <CNN_VS>
1.1363141537

> <CNNaffinity_variance>
0.2145917714

$$$$
[H]N1C(=NC2([H])C([H])([H])C([H])([H])C([H])([H])C([H])([H])C([H])([H])C([H])([H])C2([H])[H])O[C@@]2([H])C([H])([H])C([H])([H])C([H])([H])C([H])([H])[C@@]2([H])S1(=O)=O


 22 24  0  0  0  0  0  0  0  0999 V2000
  -18.2952   13.7861  -18.2554 O   0  0  0  0  0  0  0  0  0  0  0  0
  -18.6501   14.5038  -19.5202 S   0  0  0  0  0  0  0  0  0  0  0  0
  -19.9399   14.0030  -20.1079 O   0  0  0  0  0  0  0  0  0  0  0  0
  -17.3776   14.3482  -20.7061 N   0  0  0  0  0  0  0  0  0  0  0  0
  -17.1772   15.4141  -21.6092 C   0  0  0  0  0  0  0  0  0  0  0  0
  -16.6613   15.1801  -22.7511 N   0  0  0  0  0  0  0  0  0  0  0  0
  -17.5272   16.6920  -21.2797 O   0  0  0  0  0  0  0  0  0  0  0  0
  -18.5131   17.0862  -20.3933 C   0  0  0  0  0  0  0  0  0  0  0  0
  -19.7789   17.3625  -21.2187 C   0  0  0  0  0  0  0  0  0  0  0  0
  -20.6203   18.3131  -20.4155 C   0  0  0  0  0  0  0  0  0  0  0  0
  -20.5693   17.9798  -18.9611 C   0  0  0  0  0  0  0  0  0  0  0  0
  -20.2378   16.4976  -18.7768 C   0  0  0  0  0  0  0  0  0  0  0  0
  -18.8175   16.2355  -19.2332 C   0  0  0  0  0  0  0  0  0  0  0  0
  -16.8448   13.4864  -20.6750 H   0  0  0  0  0  0  0  0  0  0  0  0
  -16.2577   13.8786  -23.2009 C   0  0  0  0  0  0  0  0  0  0  0  0
  -17.1639   13.3310  -24.2772 C   0  0  0  0  0  0  0  0  0  0  0  0
  -16.6981   13.5926  -25.6694 C   0  0  0  0  0  0  0  0  0  0  0  0
  -16.6576   15.0287  -26.0682 C   0  0  0  0  0  0  0  0  0  0  0  0
  -15.2880   15.4468  -26.5906 C   0  0  0  0  0  0  0  0  0  0  0  0
  -14.1663   14.9314  -25.7489 C   0  0  0  0  0  0  0  0  0  0  0  0
  -14.4403   15.2054  -24.3057 C   0  0  0  0  0  0  0  0  0  0  0  0
  -14.8114   13.9037  -23.6338 C   0  0  0  0  0  0  0  0  0  0  0  0
  1  2  2  0  0  0
  2  3  2  0  0  0
  2  4  1  0  0  0
  4  5  1  0  0  0
  5  6  2  0  0  0
  6 15  1  0  0  0
 15 16  1  0  0  0
 16 17  1  0  0  0
 17 18  1  0  0  0
 18 19  1  0  0  0
 19 20  1  0  0  0
 20 21  1  0  0  0
 21 22  1  0  0  0
  5  7  1  0  0  0
  7  8  1  0  0  0
  8  9  1  0  0  0
  9 10  1  0  0  0
 10 11  1  0  0  0
 11 12  1  0  0  0
 12 13  1  0  0  0
 13  2  1  0  0  0
 22 15  1  0  0  0
 13  8  1  0  0  0
  4 14  1  0  0  0
M  END
> <minimizedAffinity>
-7.37071

> <CNNscore>
0.2052193135

> <CNNaffinity>
5.8260936737

> <CNN_VS>
1.1956269741

> <CNNaffinity_variance>
0.0995250493

$$$$
[H]N1C(=NC2([H])C([H])([H])C([H])([H])C([H])([H])C([H])([H])C([H])([H])C([H])([H])C2([H])[H])O[C@@]2([H])C([H])([H])C([H])([H])C([H])([H])C([H])([H])[C@@]2([H])S1(=O)=O


 22 24  0  0  0  0  0  0  0  0999 V2000
  -21.1281   16.0151  -18.5124 O   0  0  0  0  0  0  0  0  0  0  0  0
  -20.6475   14.6158  -18.7398 S   0  0  0  0  0  0  0  0  0  0  0  0
  -21.4789   13.8952  -19.7643 O   0  0  0  0  0  0  0  0  0  0  0  0
  -20.6500   13.7036  -17.2505 N   0  0  0  0  0  0  0  0  0  0  0  0
  -19.6711   12.7006  -17.0842 C   0  0  0  0  0  0  0  0  0  0  0  0
  -19.9100   11.7124  -16.3153 N   0  0  0  0  0  0  0  0  0  0  0  0
  -18.4723   12.7715  -17.7337 O   0  0  0  0  0  0  0  0  0  0  0  0
  -18.2085   13.4060  -18.9342 C   0  0  0  0  0  0  0  0  0  0  0  0
  -18.3069   12.3428  -20.0386 C   0  0  0  0  0  0  0  0  0  0  0  0
  -17.4811   12.8387  -21.1914 C   0  0  0  0  0  0  0  0  0  0  0  0
  -17.6345   14.3132  -21.3683 C   0  0  0  0  0  0  0  0  0  0  0  0
  -18.9794   14.7699  -20.7995 C   0  0  0  0  0  0  0  0  0  0  0  0
  -18.9734   14.6094  -19.2933 C   0  0  0  0  0  0  0  0  0  0  0  0
  -21.3660   13.9537  -16.5780 H   0  0  0  0  0  0  0  0  0  0  0  0
  -21.1332   11.5372  -15.5857 C   0  0  0  0  0  0  0  0  0  0  0  0
  -21.8207   10.2332  -15.9122 C   0  0  0  0  0  0  0  0  0  0  0  0
  -21.4937    9.1129  -14.9841 C   0  0  0  0  0  0  0  0  0  0  0  0
  -20.0707    8.6683  -14.9987 C   0  0  0  0  0  0  0  0  0  0  0  0
  -19.4436    8.6859  -13.6095 C   0  0  0  0  0  0  0  0  0  0  0  0
  -19.7726    9.9252  -12.8424 C   0  0  0  0  0  0  0  0  0  0  0  0
  -19.5401   11.1315  -13.6931 C   0  0  0  0  0  0  0  0  0  0  0  0
  -20.8817   11.6922  -14.1049 C   0  0  0  0  0  0  0  0  0  0  0  0
  1  2  2  0  0  0
  2  3  2  0  0  0
  2  4  1  0  0  0
  4  5  1  0  0  0
  5  6  2  0  0  0
  6 15  1  0  0  0
 15 16  1  0  0  0
 16 17  1  0  0  0
 17 18  1  0  0  0
 18 19  1  0  0  0
 19 20  1  0  0  0
 20 21  1  0  0  0
 21 22  1  0  0  0
  5  7  1  0  0  0
  7  8  1  0  0  0
  8  9  1  0  0  0
  9 10  1  0  0  0
 10 11  1  0  0  0
 11 12  1  0  0  0
 12 13  1  0  0  0
 13  2  1  0  0  0
 22 15  1  0  0  0
 13  8  1  0  0  0
  4 14  1  0  0  0
M  END
> <minimizedAffinity>
-6.55442

> <CNNscore>
0.2029262483

> <CNNaffinity>
5.1054487228

> <CNN_VS>
1.0360295773

> <CNNaffinity_variance>
0.1400125474

$$$$
[H]N1C(=NC2([H])C([H])([H])C([H])([H])C([H])([H])C([H])([H])C([H])([H])C([H])([H])C2([H])[H])O[C@@]2([H])C([H])([H])C([H])([H])C([H])([H])C([H])([H])[C@@]2([H])S1(=O)=O


 22 24  0  0  0  0  0  0  0  0999 V2000
  -20.0470   17.4572  -18.2490 O   0  0  0  0  0  0  0  0  0  0  0  0
  -19.5981   17.9113  -19.6029 S   0  0  0  0  0  0  0  0  0  0  0  0
  -18.8568   19.2176  -19.5406 O   0  0  0  0  0  0  0  0  0  0  0  0
  -20.9546   18.0698  -20.6913 N   0  0  0  0  0  0  0  0  0  0  0  0
  -20.7399   17.8130  -22.0624 C   0  0  0  0  0  0  0  0  0  0  0  0
  -21.4874   18.3727  -22.9299 N   0  0  0  0  0  0  0  0  0  0  0  0
  -19.7441   16.9749  -22.4746 O   0  0  0  0  0  0  0  0  0  0  0  0
  -18.5606   16.6955  -21.8154 C   0  0  0  0  0  0  0  0  0  0  0  0
  -17.4883   17.6298  -22.3959 C   0  0  0  0  0  0  0  0  0  0  0  0
  -16.1610   16.9700  -22.1513 C   0  0  0  0  0  0  0  0  0  0  0  0
  -16.1268   16.3098  -20.8127 C   0  0  0  0  0  0  0  0  0  0  0  0
  -17.1232   16.9884  -19.8706 C   0  0  0  0  0  0  0  0  0  0  0  0
  -18.5356   16.7160  -20.3453 C   0  0  0  0  0  0  0  0  0  0  0  0
  -21.8350   18.3394  -20.2672 H   0  0  0  0  0  0  0  0  0  0  0  0
  -22.5609   19.2694  -22.6094 C   0  0  0  0  0  0  0  0  0  0  0  0
  -22.2143   20.7117  -22.8909 C   0  0  0  0  0  0  0  0  0  0  0  0
  -22.6469   21.2011  -24.2313 C   0  0  0  0  0  0  0  0  0  0  0  0
  -21.9855   20.5422  -25.3938 C   0  0  0  0  0  0  0  0  0  0  0  0
  -22.9917   19.9621  -26.3810 C   0  0  0  0  0  0  0  0  0  0  0  0
  -24.1019   19.2230  -25.7075 C   0  0  0  0  0  0  0  0  0  0  0  0
  -23.5469   18.2792  -24.6907 C   0  0  0  0  0  0  0  0  0  0  0  0
  -23.8249   18.8403  -23.3152 C   0  0  0  0  0  0  0  0  0  0  0  0
  1  2  2  0  0  0
  2  3  2  0  0  0
  2  4  1  0  0  0
  4  5  1  0  0  0
  5  6  2  0  0  0
  6 15  1  0  0  0
 15 16  1  0  0  0
 16 17  1  0  0  0
 17 18  1  0  0  0
 18 19  1  0  0  0
 19 20  1  0  0  0
 20 21  1  0  0  0
 21 22  1  0  0  0
  5  7  1  0  0  0
  7  8  1  0  0  0
  8  9  1  0  0  0
  9 10  1  0  0  0
 10 11  1  0  0  0
 11 12  1  0  0  0
 12 13  1  0  0  0
 13  2  1  0  0  0
 22 15  1  0  0  0
 13  8  1  0  0  0
  4 14  1  0  0  0
M  END
> <minimizedAffinity>
-5.92070

> <CNNscore>
0.2004865408

> <CNNaffinity>
5.3131680489

> <CNN_VS>
1.0652186871

> <CNNaffinity_variance>
0.2439146936

$$$$
[H]C(=NN([H])C(=S)N([H])C([H])([H])c1c([H])c([H])c(OC([H])(C([H])([H])[H])C([H])([H])[H])c([H])c1[H])c1c([H])c([H])c([N+](=O)[O-])c([H])c1[H]


 28 29  0  0  0  0  0  0  0  0999 V2000
  -16.8032   11.6135  -21.6709 C   0  0  0  0  0  0  0  0  0  0  0  0
  -15.6720   10.5563  -21.1723 S   0  0  0  0  0  0  0  0  0  0  0  0
  -17.8701   11.9423  -20.8134 N   0  0  0  0  0  0  0  0  0  0  0  0
  -18.8506   11.8992  -21.1485 H   0  0  0  0  0  0  0  0  0  0  0  0
  -17.6119   12.3451  -19.4511 C   0  0  0  0  0  0  0  0  0  0  0  0
  -19.5680    9.7827  -16.6181 C   0  0  0  0  0  0  0  0  0  0  0  0
  -19.9587   11.1100  -16.7999 C   0  0  0  0  0  0  0  0  0  0  0  0
  -19.3201   11.9167  -17.7126 C   0  0  0  0  0  0  0  0  0  0  0  0
  -18.2757   11.4465  -18.4779 C   0  0  0  0  0  0  0  0  0  0  0  0
  -17.9177   10.1372  -18.2735 C   0  0  0  0  0  0  0  0  0  0  0  0
  -18.5416    9.2938  -17.3593 C   0  0  0  0  0  0  0  0  0  0  0  0
  -20.2360    9.0189  -15.6959 O   0  0  0  0  0  0  0  0  0  0  0  0
  -19.5830    9.2801  -13.3793 C   0  0  0  0  0  0  0  0  0  0  0  0
  -20.6704    9.4135  -14.4446 C   0  0  0  0  0  0  0  0  0  0  0  0
  -21.8283    8.5171  -14.0029 C   0  0  0  0  0  0  0  0  0  0  0  0
  -16.7224   12.2068  -22.9643 N   0  0  0  0  0  0  0  0  0  0  0  0
  -17.5546   12.1957  -23.6233 H   0  0  0  0  0  0  0  0  0  0  0  0
  -15.5895   12.8048  -23.4089 N   0  0  0  0  0  0  0  0  0  0  0  0
  -15.2129   13.9482  -23.6440 C   0  0  0  0  0  0  0  0  0  0  0  0
  -15.9561   15.1770  -23.5022 C   0  0  0  0  0  0  0  0  0  0  0  0
  -16.4321   15.9415  -24.5420 C   0  0  0  0  0  0  0  0  0  0  0  0
  -17.1457   17.1222  -24.3468 C   0  0  0  0  0  0  0  0  0  0  0  0
  -17.4141   17.5901  -23.0816 C   0  0  0  0  0  0  0  0  0  0  0  0
  -16.9507   16.8470  -22.0214 C   0  0  0  0  0  0  0  0  0  0  0  0
  -16.2508   15.6883  -22.2258 C   0  0  0  0  0  0  0  0  0  0  0  0
  -18.1469   18.8023  -22.8909 N   0  0  0  0  0  0  0  0  0  0  0  0
  -18.7098   19.3304  -23.8683 O   0  0  0  0  0  0  0  0  0  0  0  0
  -18.1884   19.3226  -21.6229 O   0  0  0  0  0  0  0  0  0  0  0  0
 13 14  1  0  0  0
 14 15  1  0  0  0
 14 12  1  0  0  0
 12  6  1  0  0  0
  6  7  2  0  0  0
  7  8  1  0  0  0
  8  9  2  0  0  0
  9  5  1  0  0  0
  5  3  1  0  0  0
  3  1  1  0  0  0
  1  2  2  0  0  0
  1 16  1  0  0  0
 16 18  1  0  0  0
 18 19  2  0  0  0
 19 20  1  0  0  0
 20 21  2  0  0  0
 21 22  1  0  0  0
 22 23  2  0  0  0
 23 26  1  0  0  0
 26 27  2  0  0  0
 26 28  1  0  0  0
 23 24  1  0  0  0
 24 25  2  0  0  0
  9 10  1  0  0  0
 10 11  2  0  0  0
 11  6  1  0  0  0
 25 20  1  0  0  0
  3  4  1  0  0  0
 16 17  1  0  0  0
M  CHG 1  26   1
M  CHG 1  28  -1
M  END
> <minimizedAffinity>
-6.75836

> <CNNscore>
0.6352369189

> <CNNaffinity>
6.2726259232

> <CNN_VS>
3.9846036434

> <CNNaffinity_variance>
0.0957924500

$$$$
[H]C(=NN([H])C(=S)N([H])C([H])([H])c1c([H])c([H])c(OC([H])(C([H])([H])[H])C([H])([H])[H])c([H])c1[H])c1c([H])c([H])c([N+](=O)[O-])c([H])c1[H]


 28 29  0  0  0  0  0  0  0  0999 V2000
  -16.9599   11.0302  -19.3602 C   0  0  0  0  0  0  0  0  0  0  0  0
  -16.3548   10.2857  -20.6737 S   0  0  0  0  0  0  0  0  0  0  0  0
  -17.4311   12.3523  -19.4688 N   0  0  0  0  0  0  0  0  0  0  0  0
  -17.4811   12.9662  -18.6344 H   0  0  0  0  0  0  0  0  0  0  0  0
  -17.8523   12.8725  -20.7481 C   0  0  0  0  0  0  0  0  0  0  0  0
  -20.9957   15.7687  -20.3615 C   0  0  0  0  0  0  0  0  0  0  0  0
  -19.8007   16.0652  -21.0183 C   0  0  0  0  0  0  0  0  0  0  0  0
  -18.8041   15.1243  -21.1327 C   0  0  0  0  0  0  0  0  0  0  0  0
  -18.9479   13.8598  -20.6053 C   0  0  0  0  0  0  0  0  0  0  0  0
  -20.1351   13.6024  -19.9664 C   0  0  0  0  0  0  0  0  0  0  0  0
  -21.1637   14.5302  -19.8326 C   0  0  0  0  0  0  0  0  0  0  0  0
  -21.9590   16.7407  -20.2739 O   0  0  0  0  0  0  0  0  0  0  0  0
  -22.0565   19.1156  -20.7337 C   0  0  0  0  0  0  0  0  0  0  0  0
  -22.2771   17.6871  -21.2295 C   0  0  0  0  0  0  0  0  0  0  0  0
  -23.7603   17.5713  -21.5849 C   0  0  0  0  0  0  0  0  0  0  0  0
  -17.0164   10.3566  -18.1054 N   0  0  0  0  0  0  0  0  0  0  0  0
  -16.3744   10.6345  -17.3068 H   0  0  0  0  0  0  0  0  0  0  0  0
  -17.8823    9.3386  -17.8768 N   0  0  0  0  0  0  0  0  0  0  0  0
  -18.9362    9.1779  -17.2701 C   0  0  0  0  0  0  0  0  0  0  0  0
  -19.6825   10.1508  -16.5092 C   0  0  0  0  0  0  0  0  0  0  0  0
  -19.9939   10.0450  -15.1735 C   0  0  0  0  0  0  0  0  0  0  0  0
  -20.7189   11.0171  -14.4874 C   0  0  0  0  0  0  0  0  0  0  0  0
  -21.1673   12.1511  -15.1236 C   0  0  0  0  0  0  0  0  0  0  0  0
  -20.8714   12.2850  -16.4598 C   0  0  0  0  0  0  0  0  0  0  0  0
  -20.1582   11.3231  -17.1232 C   0  0  0  0  0  0  0  0  0  0  0  0
  -21.9104   13.1430  -14.4116 N   0  0  0  0  0  0  0  0  0  0  0  0
  -22.2071   12.9383  -13.2195 O   0  0  0  0  0  0  0  0  0  0  0  0
  -22.2594   14.2806  -15.0929 O   0  0  0  0  0  0  0  0  0  0  0  0
 13 14  1  0  0  0
 14 15  1  0  0  0
 14 12  1  0  0  0
 12  6  1  0  0  0
  6  7  2  0  0  0
  7  8  1  0  0  0
  8  9  2  0  0  0
  9  5  1  0  0  0
  5  3  1  0  0  0
  3  1  1  0  0  0
  1  2  2  0  0  0
  1 16  1  0  0  0
 16 18  1  0  0  0
 18 19  2  0  0  0
 19 20  1  0  0  0
 20 21  2  0  0  0
 21 22  1  0  0  0
 22 23  2  0  0  0
 23 26  1  0  0  0
 26 27  2  0  0  0
 26 28  1  0  0  0
 23 24  1  0  0  0
 24 25  2  0  0  0
  9 10  1  0  0  0
 10 11  2  0  0  0
 11  6  1  0  0  0
 25 20  1  0  0  0
  3  4  1  0  0  0
 16 17  1  0  0  0
M  CHG 1  26   1
M  CHG 1  28  -1
M  END
> <minimizedAffinity>
-5.94567

> <CNNscore>
0.5699042082

> <CNNaffinity>
5.7804431915

> <CNN_VS>
3.2942988873

> <CNNaffinity_variance>
0.0088399304

$$$$
[H]C(=NN([H])C(=S)N([H])C([H])([H])c1c([H])c([H])c(OC([H])(C([H])([H])[H])C([H])([H])[H])c([H])c1[H])c1c([H])c([H])c([N+](=O)[O-])c([H])c1[H]


 28 29  0  0  0  0  0  0  0  0999 V2000
  -16.3998   11.7503  -22.0499 C   0  0  0  0  0  0  0  0  0  0  0  0
  -15.6537   10.5627  -21.2261 S   0  0  0  0  0  0  0  0  0  0  0  0
  -17.4480   12.4644  -21.4390 N   0  0  0  0  0  0  0  0  0  0  0  0
  -18.0023   13.1552  -21.9786 H   0  0  0  0  0  0  0  0  0  0  0  0
  -17.7661   12.2432  -20.0481 C   0  0  0  0  0  0  0  0  0  0  0  0
  -18.7325   15.8820  -17.9883 C   0  0  0  0  0  0  0  0  0  0  0  0
  -18.6842   14.6543  -17.3267 C   0  0  0  0  0  0  0  0  0  0  0  0
  -18.3726   13.4980  -18.0032 C   0  0  0  0  0  0  0  0  0  0  0  0
  -18.0979   13.5089  -19.3530 C   0  0  0  0  0  0  0  0  0  0  0  0
  -18.1543   14.7328  -19.9718 C   0  0  0  0  0  0  0  0  0  0  0  0
  -18.4660   15.9213  -19.3184 C   0  0  0  0  0  0  0  0  0  0  0  0
  -19.0478   17.0065  -17.2697 O   0  0  0  0  0  0  0  0  0  0  0  0
  -21.2131   17.1767  -16.2001 C   0  0  0  0  0  0  0  0  0  0  0  0
  -19.6967   17.0617  -16.0506 C   0  0  0  0  0  0  0  0  0  0  0  0
  -19.2366   18.3042  -15.2864 C   0  0  0  0  0  0  0  0  0  0  0  0
  -16.0018   12.0719  -23.3802 N   0  0  0  0  0  0  0  0  0  0  0  0
  -16.4264   11.5701  -24.2138 H   0  0  0  0  0  0  0  0  0  0  0  0
  -15.0703   13.0224  -23.6395 N   0  0  0  0  0  0  0  0  0  0  0  0
  -15.0353   14.2464  -23.7125 C   0  0  0  0  0  0  0  0  0  0  0  0
  -16.1179   15.1808  -23.5199 C   0  0  0  0  0  0  0  0  0  0  0  0
  -16.0755   16.2880  -22.7047 C   0  0  0  0  0  0  0  0  0  0  0  0
  -17.1532   17.1585  -22.5560 C   0  0  0  0  0  0  0  0  0  0  0  0
  -18.3343   16.9497  -23.2292 C   0  0  0  0  0  0  0  0  0  0  0  0
  -18.4070   15.8503  -24.0520 C   0  0  0  0  0  0  0  0  0  0  0  0
  -17.3412   15.0022  -24.1901 C   0  0  0  0  0  0  0  0  0  0  0  0
  -19.4346   17.8480  -23.0704 N   0  0  0  0  0  0  0  0  0  0  0  0
  -20.3999   17.5048  -22.3624 O   0  0  0  0  0  0  0  0  0  0  0  0
  -19.3630   19.0550  -23.7172 O   0  0  0  0  0  0  0  0  0  0  0  0
 13 14  1  0  0  0
 14 15  1  0  0  0
 14 12  1  0  0  0
 12  6  1  0  0  0
  6  7  2  0  0  0
  7  8  1  0  0  0
  8  9  2  0  0  0
  9  5  1  0  0  0
  5  3  1  0  0  0
  3  1  1  0  0  0
  1  2  2  0  0  0
  1 16  1  0  0  0
 16 18  1  0  0  0
 18 19  2  0  0  0
 19 20  1  0  0  0
 20 21  2  0  0  0
 21 22  1  0  0  0
 22 23  2  0  0  0
 23 26  1  0  0  0
 26 27  2  0  0  0
 26 28  1  0  0  0
 23 24  1  0  0  0
 24 25  2  0  0  0
  9 10  1  0  0  0
 10 11  2  0  0  0
 11  6  1  0  0  0
 25 20  1  0  0  0
  3  4  1  0  0  0
 16 17  1  0  0  0
M  CHG 1  26   1
M  CHG 1  28  -1
M  END
> <minimizedAffinity>
-6.19304

> <CNNscore>
0.3578559458

> <CNNaffinity>
6.2030239105

> <CNN_VS>
2.2197890282

> <CNNaffinity_variance>
0.1845867187

$$$$
[H]C(=NN([H])C(=S)N([H])C([H])([H])c1c([H])c([H])c(OC([H])(C([H])([H])[H])C([H])([H])[H])c([H])c1[H])c1c([H])c([H])c([N+](=O)[O-])c([H])c1[H]


 28 29  0  0  0  0  0  0  0  0999 V2000
  -16.7725   10.9358  -19.6452 C   0  0  0  0  0  0  0  0  0  0  0  0
  -16.0931    9.9769  -20.7698 S   0  0  0  0  0  0  0  0  0  0  0  0
  -17.2339   12.2142  -20.0118 N   0  0  0  0  0  0  0  0  0  0  0  0
  -17.3702   12.9527  -19.2965 H   0  0  0  0  0  0  0  0  0  0  0  0
  -17.5244   12.5148  -21.3939 C   0  0  0  0  0  0  0  0  0  0  0  0
  -19.2842   16.3984  -21.8828 C   0  0  0  0  0  0  0  0  0  0  0  0
  -18.4049   15.8664  -22.8269 C   0  0  0  0  0  0  0  0  0  0  0  0
  -17.8504   14.6198  -22.6535 C   0  0  0  0  0  0  0  0  0  0  0  0
  -18.1410   13.8534  -21.5465 C   0  0  0  0  0  0  0  0  0  0  0  0
  -19.0091   14.4070  -20.6386 C   0  0  0  0  0  0  0  0  0  0  0  0
  -19.5879   15.6643  -20.7825 C   0  0  0  0  0  0  0  0  0  0  0  0
  -19.8107   17.6455  -22.1010 O   0  0  0  0  0  0  0  0  0  0  0  0
  -19.4112   19.6730  -23.3624 C   0  0  0  0  0  0  0  0  0  0  0  0
  -20.0060   18.2660  -23.3205 C   0  0  0  0  0  0  0  0  0  0  0  0
  -21.5059   18.4168  -23.5790 C   0  0  0  0  0  0  0  0  0  0  0  0
  -16.9034   10.4929  -18.2967 N   0  0  0  0  0  0  0  0  0  0  0  0
  -16.2314   10.8249  -17.5450 H   0  0  0  0  0  0  0  0  0  0  0  0
  -17.8812    9.6340  -17.9163 N   0  0  0  0  0  0  0  0  0  0  0  0
  -18.9928    9.7121  -17.4034 C   0  0  0  0  0  0  0  0  0  0  0  0
  -19.7008   10.8995  -16.9899 C   0  0  0  0  0  0  0  0  0  0  0  0
  -19.8362   12.0447  -17.7398 C   0  0  0  0  0  0  0  0  0  0  0  0
  -20.5326   13.1646  -17.2899 C   0  0  0  0  0  0  0  0  0  0  0  0
  -21.1297   13.1804  -16.0510 C   0  0  0  0  0  0  0  0  0  0  0  0
  -21.0114   12.0494  -15.2778 C   0  0  0  0  0  0  0  0  0  0  0  0
  -20.3247   10.9552  -15.7309 C   0  0  0  0  0  0  0  0  0  0  0  0
  -21.8420   14.3337  -15.5978 N   0  0  0  0  0  0  0  0  0  0  0  0
  -21.9223   15.3281  -16.3432 O   0  0  0  0  0  0  0  0  0  0  0  0
  -22.4048   14.2780  -14.3487 O   0  0  0  0  0  0  0  0  0  0  0  0
 13 14  1  0  0  0
 14 15  1  0  0  0
 14 12  1  0  0  0
 12  6  1  0  0  0
  6  7  2  0  0  0
  7  8  1  0  0  0
  8  9  2  0  0  0
  9  5  1  0  0  0
  5  3  1  0  0  0
  3  1  1  0  0  0
  1  2  2  0  0  0
  1 16  1  0  0  0
 16 18  1  0  0  0
 18 19  2  0  0  0
 19 20  1  0  0  0
 20 21  2  0  0  0
 21 22  1  0  0  0
 22 23  2  0  0  0
 23 26  1  0  0  0
 26 27  2  0  0  0
 26 28  1  0  0  0
 23 24  1  0  0  0
 24 25  2  0  0  0
  9 10  1  0  0  0
 10 11  2  0  0  0
 11  6  1  0  0  0
 25 20  1  0  0  0
  3  4  1  0  0  0
 16 17  1  0  0  0
M  CHG 1  26   1
M  CHG 1  28  -1
M  END
> <minimizedAffinity>
-6.06859

> <CNNscore>
0.3565045297

> <CNNaffinity>
5.8216814995

> <CNN_VS>
2.0754559040

> <CNNaffinity_variance>
0.1865717918

$$$$
[H]C(=NN([H])C(=S)N([H])C([H])([H])c1c([H])c([H])c(OC([H])(C([H])([H])[H])C([H])([H])[H])c([H])c1[H])c1c([H])c([H])c([N+](=O)[O-])c([H])c1[H]


 28 29  0  0  0  0  0  0  0  0999 V2000
  -16.4772   17.1362  -23.7467 C   0  0  0  0  0  0  0  0  0  0  0  0
  -17.9856   17.7436  -23.7847 S   0  0  0  0  0  0  0  0  0  0  0  0
  -15.9621   16.6357  -22.5359 N   0  0  0  0  0  0  0  0  0  0  0  0
  -15.2854   15.8498  -22.5336 H   0  0  0  0  0  0  0  0  0  0  0  0
  -16.3710   17.2124  -21.2769 C   0  0  0  0  0  0  0  0  0  0  0  0
  -18.9510   14.6106  -19.0426 C   0  0  0  0  0  0  0  0  0  0  0  0
  -18.5844   15.8693  -18.5642 C   0  0  0  0  0  0  0  0  0  0  0  0
  -17.7565   16.6898  -19.2941 C   0  0  0  0  0  0  0  0  0  0  0  0
  -17.2605   16.3014  -20.5192 C   0  0  0  0  0  0  0  0  0  0  0  0
  -17.6411   15.0581  -20.9591 C   0  0  0  0  0  0  0  0  0  0  0  0
  -18.4766   14.2030  -20.2469 C   0  0  0  0  0  0  0  0  0  0  0  0
  -19.7788   13.8297  -18.2776 O   0  0  0  0  0  0  0  0  0  0  0  0
  -18.8695   11.6038  -17.9944 C   0  0  0  0  0  0  0  0  0  0  0  0
  -19.4028   12.8806  -17.3458 C   0  0  0  0  0  0  0  0  0  0  0  0
  -20.6211   12.4738  -16.5154 C   0  0  0  0  0  0  0  0  0  0  0  0
  -15.6763   17.1072  -24.9254 N   0  0  0  0  0  0  0  0  0  0  0  0
  -14.8907   17.8066  -25.0694 H   0  0  0  0  0  0  0  0  0  0  0  0
  -15.8805   16.1957  -25.9083 N   0  0  0  0  0  0  0  0  0  0  0  0
  -16.0654   14.9854  -25.9835 C   0  0  0  0  0  0  0  0  0  0  0  0
  -16.1323   14.0267  -24.9071 C   0  0  0  0  0  0  0  0  0  0  0  0
  -17.2777   13.4034  -24.4690 C   0  0  0  0  0  0  0  0  0  0  0  0
  -17.2843   12.4834  -23.4226 C   0  0  0  0  0  0  0  0  0  0  0  0
  -16.1246   12.1471  -22.7640 C   0  0  0  0  0  0  0  0  0  0  0  0
  -14.9629   12.7542  -23.1796 C   0  0  0  0  0  0  0  0  0  0  0  0
  -14.9690   13.6565  -24.2091 C   0  0  0  0  0  0  0  0  0  0  0  0
  -16.1410   11.2023  -21.6917 N   0  0  0  0  0  0  0  0  0  0  0  0
  -17.1608   11.1072  -20.9831 O   0  0  0  0  0  0  0  0  0  0  0  0
  -15.0152   10.4429  -21.5016 O   0  0  0  0  0  0  0  0  0  0  0  0
 13 14  1  0  0  0
 14 15  1  0  0  0
 14 12  1  0  0  0
 12  6  1  0  0  0
  6  7  2  0  0  0
  7  8  1  0  0  0
  8  9  2  0  0  0
  9  5  1  0  0  0
  5  3  1  0  0  0
  3  1  1  0  0  0
  1  2  2  0  0  0
  1 16  1  0  0  0
 16 18  1  0  0  0
 18 19  2  0  0  0
 19 20  1  0  0  0
 20 21  2  0  0  0
 21 22  1  0  0  0
 22 23  2  0  0  0
 23 26  1  0  0  0
 26 27  2  0  0  0
 26 28  1  0  0  0
 23 24  1  0  0  0
 24 25  2  0  0  0
  9 10  1  0  0  0
 10 11  2  0  0  0
 11  6  1  0  0  0
 25 20  1  0  0  0
  3  4  1  0  0  0
 16 17  1  0  0  0
M  CHG 1  26   1
M  CHG 1  28  -1
M  END
> <minimizedAffinity>
-6.60617

> <CNNscore>
0.3488501608

> <CNNaffinity>
6.3484086990

> <CNN_VS>
2.2146434784

> <CNNaffinity_variance>
0.0536506660

$$$$
[H]C(=NN([H])C(=S)N([H])C([H])([H])c1c([H])c([H])c(OC([H])(C([H])([H])[H])C([H])([H])[H])c([H])c1[H])c1c([H])c([H])c([N+](=O)[O-])c([H])c1[H]


 28 29  0  0  0  0  0  0  0  0999 V2000
  -18.6802   15.9177  -17.2980 C   0  0  0  0  0  0  0  0  0  0  0  0
  -19.1725   17.3319  -16.6626 S   0  0  0  0  0  0  0  0  0  0  0  0
  -17.9572   15.9152  -18.5058 N   0  0  0  0  0  0  0  0  0  0  0  0
  -17.1037   15.3354  -18.6103 H   0  0  0  0  0  0  0  0  0  0  0  0
  -18.3965   16.7230  -19.6191 C   0  0  0  0  0  0  0  0  0  0  0  0
  -17.0794   15.0734  -23.3557 C   0  0  0  0  0  0  0  0  0  0  0  0
  -16.1988   15.2801  -22.2931 C   0  0  0  0  0  0  0  0  0  0  0  0
  -16.6388   15.8099  -21.1026 C   0  0  0  0  0  0  0  0  0  0  0  0
  -17.9592   16.1547  -20.9157 C   0  0  0  0  0  0  0  0  0  0  0  0
  -18.7975   15.9381  -21.9809 C   0  0  0  0  0  0  0  0  0  0  0  0
  -18.3862   15.4043  -23.1985 C   0  0  0  0  0  0  0  0  0  0  0  0
  -16.5924   14.5424  -24.5224 O   0  0  0  0  0  0  0  0  0  0  0  0
  -17.5926   12.6817  -25.7052 C   0  0  0  0  0  0  0  0  0  0  0  0
  -17.3190   14.1838  -25.6421 C   0  0  0  0  0  0  0  0  0  0  0  0
  -16.5223   14.5369  -26.8990 C   0  0  0  0  0  0  0  0  0  0  0  0
  -18.9743   14.6862  -16.6434 N   0  0  0  0  0  0  0  0  0  0  0  0
  -18.4435   14.3898  -15.7731 H   0  0  0  0  0  0  0  0  0  0  0  0
  -19.9345   13.8440  -17.0989 N   0  0  0  0  0  0  0  0  0  0  0  0
  -20.0156   12.9406  -17.9246 C   0  0  0  0  0  0  0  0  0  0  0  0
  -18.9773   12.4234  -18.7830 C   0  0  0  0  0  0  0  0  0  0  0  0
  -17.9152   11.6535  -18.3690 C   0  0  0  0  0  0  0  0  0  0  0  0
  -16.9392   11.1798  -19.2434 C   0  0  0  0  0  0  0  0  0  0  0  0
  -16.9906   11.4641  -20.5881 C   0  0  0  0  0  0  0  0  0  0  0  0
  -18.0412   12.2322  -21.0320 C   0  0  0  0  0  0  0  0  0  0  0  0
  -18.9942   12.6918  -20.1632 C   0  0  0  0  0  0  0  0  0  0  0  0
  -15.9850   10.9739  -21.4776 N   0  0  0  0  0  0  0  0  0  0  0  0
  -15.3480    9.9498  -21.1669 O   0  0  0  0  0  0  0  0  0  0  0  0
  -15.7759   11.6703  -22.6401 O   0  0  0  0  0  0  0  0  0  0  0  0
 13 14  1  0  0  0
 14 15  1  0  0  0
 14 12  1  0  0  0
 12  6  1  0  0  0
  6  7  2  0  0  0
  7  8  1  0  0  0
  8  9  2  0  0  0
  9  5  1  0  0  0
  5  3  1  0  0  0
  3  1  1  0  0  0
  1  2  2  0  0  0
  1 16  1  0  0  0
 16 18  1  0  0  0
 18 19  2  0  0  0
 19 20  1  0  0  0
 20 21  2  0  0  0
 21 22  1  0  0  0
 22 23  2  0  0  0
 23 26  1  0  0  0
 26 27  2  0  0  0
 26 28  1  0  0  0
 23 24  1  0  0  0
 24 25  2  0  0  0
  9 10  1  0  0  0
 10 11  2  0  0  0
 11  6  1  0  0  0
 25 20  1  0  0  0
  3  4  1  0  0  0
 16 17  1  0  0  0
M  CHG 1  26   1
M  CHG 1  28  -1
M  END
> <minimizedAffinity>
-7.55107

> <CNNscore>
0.3469477594

> <CNNaffinity>
6.1394205093

> <CNN_VS>
2.1300582886

> <CNNaffinity_variance>
0.0722958967

$$$$
[H]C(=NN([H])C(=S)N([H])C([H])([H])c1c([H])c([H])c(OC([H])(C([H])([H])[H])C([H])([H])[H])c([H])c1[H])c1c([H])c([H])c([N+](=O)[O-])c([H])c1[H]


 28 29  0  0  0  0  0  0  0  0999 V2000
  -19.0584   15.9849  -17.3534 C   0  0  0  0  0  0  0  0  0  0  0  0
  -19.9164   17.3123  -16.9691 S   0  0  0  0  0  0  0  0  0  0  0  0
  -18.1923   16.0169  -18.4627 N   0  0  0  0  0  0  0  0  0  0  0  0
  -17.2810   15.5224  -18.4368 H   0  0  0  0  0  0  0  0  0  0  0  0
  -18.5632   16.7413  -19.6554 C   0  0  0  0  0  0  0  0  0  0  0  0
  -16.9760   14.9365  -23.2109 C   0  0  0  0  0  0  0  0  0  0  0  0
  -18.3096   15.3382  -23.1237 C   0  0  0  0  0  0  0  0  0  0  0  0
  -18.8010   15.9150  -21.9760 C   0  0  0  0  0  0  0  0  0  0  0  0
  -17.9985   16.1168  -20.8747 C   0  0  0  0  0  0  0  0  0  0  0  0
  -16.6930   15.7102  -20.9950 C   0  0  0  0  0  0  0  0  0  0  0  0
  -16.1633   15.1237  -22.1404 C   0  0  0  0  0  0  0  0  0  0  0  0
  -16.5338   14.3663  -24.3770 O   0  0  0  0  0  0  0  0  0  0  0  0
  -15.4265   16.4142  -25.0415 C   0  0  0  0  0  0  0  0  0  0  0  0
  -15.6972   14.9359  -25.3183 C   0  0  0  0  0  0  0  0  0  0  0  0
  -16.3580   14.8622  -26.6957 C   0  0  0  0  0  0  0  0  0  0  0  0
  -19.1767   14.7945  -16.5785 N   0  0  0  0  0  0  0  0  0  0  0  0
  -18.5513   14.6258  -15.7374 H   0  0  0  0  0  0  0  0  0  0  0  0
  -20.0828   13.8313  -16.8782 N   0  0  0  0  0  0  0  0  0  0  0  0
  -20.1575   12.8802  -17.6492 C   0  0  0  0  0  0  0  0  0  0  0  0
  -19.1745   12.4294  -18.6045 C   0  0  0  0  0  0  0  0  0  0  0  0
  -19.1563   12.7580  -19.9402 C   0  0  0  0  0  0  0  0  0  0  0  0
  -18.1806   12.2932  -20.8195 C   0  0  0  0  0  0  0  0  0  0  0  0
  -17.1690   11.4676  -20.3874 C   0  0  0  0  0  0  0  0  0  0  0  0
  -17.1606   11.1214  -19.0566 C   0  0  0  0  0  0  0  0  0  0  0  0
  -18.1248   11.5846  -18.2022 C   0  0  0  0  0  0  0  0  0  0  0  0
  -16.1723   10.9956  -21.2966 N   0  0  0  0  0  0  0  0  0  0  0  0
  -15.9621   11.6293  -22.3479 O   0  0  0  0  0  0  0  0  0  0  0  0
  -15.4943    9.8541  -20.9538 O   0  0  0  0  0  0  0  0  0  0  0  0
 13 14  1  0  0  0
 14 15  1  0  0  0
 14 12  1  0  0  0
 12  6  1  0  0  0
  6  7  2  0  0  0
  7  8  1  0  0  0
  8  9  2  0  0  0
  9  5  1  0  0  0
  5  3  1  0  0  0
  3  1  1  0  0  0
  1  2  2  0  0  0
  1 16  1  0  0  0
 16 18  1  0  0  0
 18 19  2  0  0  0
 19 20  1  0  0  0
 20 21  2  0  0  0
 21 22  1  0  0  0
 22 23  2  0  0  0
 23 26  1  0  0  0
 26 27  2  0  0  0
 26 28  1  0  0  0
 23 24  1  0  0  0
 24 25  2  0  0  0
  9 10  1  0  0  0
 10 11  2  0  0  0
 11  6  1  0  0  0
 25 20  1  0  0  0
  3  4  1  0  0  0
 16 17  1  0  0  0
M  CHG 1  26   1
M  CHG 1  28  -1
M  END
> <minimizedAffinity>
-7.16927

> <CNNscore>
0.3324084580

> <CNNaffinity>
6.1145792007

> <CNN_VS>
2.0325379372

> <CNNaffinity_variance>
0.0752652586

$$$$
[H]C(=NN([H])C(=S)N([H])C([H])([H])c1c([H])c([H])c(OC([H])(C([H])([H])[H])C([H])([H])[H])c([H])c1[H])c1c([H])c([H])c([N+](=O)[O-])c([H])c1[H]


 28 29  0  0  0  0  0  0  0  0999 V2000
  -17.1514   12.0389  -19.2566 C   0  0  0  0  0  0  0  0  0  0  0  0
  -16.0086   10.9213  -18.9552 S   0  0  0  0  0  0  0  0  0  0  0  0
  -18.0235   12.4338  -18.2246 N   0  0  0  0  0  0  0  0  0  0  0  0
  -17.7199   13.1208  -17.5094 H   0  0  0  0  0  0  0  0  0  0  0  0
  -19.3570   11.8853  -18.1483 C   0  0  0  0  0  0  0  0  0  0  0  0
  -19.6153    8.7797  -15.1976 C   0  0  0  0  0  0  0  0  0  0  0  0
  -18.9458    8.5896  -16.4072 C   0  0  0  0  0  0  0  0  0  0  0  0
  -18.8732    9.5965  -17.3413 C   0  0  0  0  0  0  0  0  0  0  0  0
  -19.4560   10.8246  -17.1185 C   0  0  0  0  0  0  0  0  0  0  0  0
  -20.1058   10.9770  -15.9191 C   0  0  0  0  0  0  0  0  0  0  0  0
  -20.1985    9.9803  -14.9524 C   0  0  0  0  0  0  0  0  0  0  0  0
  -19.6598    7.7452  -14.2987 O   0  0  0  0  0  0  0  0  0  0  0  0
  -21.5779    6.7249  -15.3671 C   0  0  0  0  0  0  0  0  0  0  0  0
  -20.6796    6.8267  -14.1351 C   0  0  0  0  0  0  0  0  0  0  0  0
  -21.5753    7.2639  -12.9750 C   0  0  0  0  0  0  0  0  0  0  0  0
  -17.2757   12.6188  -20.5527 N   0  0  0  0  0  0  0  0  0  0  0  0
  -16.8921   13.5873  -20.7569 H   0  0  0  0  0  0  0  0  0  0  0  0
  -17.8858   11.9675  -21.5737 N   0  0  0  0  0  0  0  0  0  0  0  0
  -17.8526   11.9928  -22.7996 C   0  0  0  0  0  0  0  0  0  0  0  0
  -17.0477   12.8351  -23.6510 C   0  0  0  0  0  0  0  0  0  0  0  0
  -15.7329   13.1692  -23.4231 C   0  0  0  0  0  0  0  0  0  0  0  0
  -15.0018   13.9885  -24.2809 C   0  0  0  0  0  0  0  0  0  0  0  0
  -15.5693   14.5133  -25.4185 C   0  0  0  0  0  0  0  0  0  0  0  0
  -16.8831   14.1970  -25.6732 C   0  0  0  0  0  0  0  0  0  0  0  0
  -17.5911   13.3908  -24.8229 C   0  0  0  0  0  0  0  0  0  0  0  0
  -14.8117   15.3528  -26.2926 N   0  0  0  0  0  0  0  0  0  0  0  0
  -13.6556   15.6812  -25.9662 O   0  0  0  0  0  0  0  0  0  0  0  0
  -15.4109   15.7549  -27.4586 O   0  0  0  0  0  0  0  0  0  0  0  0
 13 14  1  0  0  0
 14 15  1  0  0  0
 14 12  1  0  0  0
 12  6  1  0  0  0
  6  7  2  0  0  0
  7  8  1  0  0  0
  8  9  2  0  0  0
  9  5  1  0  0  0
  5  3  1  0  0  0
  3  1  1  0  0  0
  1  2  2  0  0  0
  1 16  1  0  0  0
 16 18  1  0  0  0
 18 19  2  0  0  0
 19 20  1  0  0  0
 20 21  2  0  0  0
 21 22  1  0  0  0
 22 23  2  0  0  0
 23 26  1  0  0  0
 26 27  2  0  0  0
 26 28  1  0  0  0
 23 24  1  0  0  0
 24 25  2  0  0  0
  9 10  1  0  0  0
 10 11  2  0  0  0
 11  6  1  0  0  0
 25 20  1  0  0  0
  3  4  1  0  0  0
 16 17  1  0  0  0
M  CHG 1  26   1
M  CHG 1  28  -1
M  END
> <minimizedAffinity>
-6.39823

> <CNNscore>
0.3300670087

> <CNNaffinity>
5.6524782181

> <CNN_VS>
1.8656965494

> <CNNaffinity_variance>
0.1486633718

$$$$
[H]C(=NN([H])C(=S)N([H])C([H])([H])c1c([H])c([H])c(OC([H])(C([H])([H])[H])C([H])([H])[H])c([H])c1[H])c1c([H])c([H])c([N+](=O)[O-])c([H])c1[H]


 28 29  0  0  0  0  0  0  0  0999 V2000
  -20.8179   14.3929  -16.6114 C   0  0  0  0  0  0  0  0  0  0  0  0
  -22.1038   14.8529  -15.7280 S   0  0  0  0  0  0  0  0  0  0  0  0
  -20.6019   14.9741  -17.8753 N   0  0  0  0  0  0  0  0  0  0  0  0
  -21.2104   14.7324  -18.6796 H   0  0  0  0  0  0  0  0  0  0  0  0
  -19.5263   15.9177  -18.0686 C   0  0  0  0  0  0  0  0  0  0  0  0
  -17.6614   15.5052  -21.9118 C   0  0  0  0  0  0  0  0  0  0  0  0
  -16.9674   16.0035  -20.8085 C   0  0  0  0  0  0  0  0  0  0  0  0
  -17.5814   16.1288  -19.5842 C   0  0  0  0  0  0  0  0  0  0  0  0
  -18.8985   15.7686  -19.4024 C   0  0  0  0  0  0  0  0  0  0  0  0
  -19.5507   15.2825  -20.5081 C   0  0  0  0  0  0  0  0  0  0  0  0
  -18.9604   15.1426  -21.7605 C   0  0  0  0  0  0  0  0  0  0  0  0
  -17.0051   15.3993  -23.1112 O   0  0  0  0  0  0  0  0  0  0  0  0
  -15.7405   16.7507  -24.6720 C   0  0  0  0  0  0  0  0  0  0  0  0
  -15.7454   15.8789  -23.4169 C   0  0  0  0  0  0  0  0  0  0  0  0
  -14.8086   14.7028  -23.6972 C   0  0  0  0  0  0  0  0  0  0  0  0
  -19.9119   13.4097  -16.1174 N   0  0  0  0  0  0  0  0  0  0  0  0
  -18.9849   13.6904  -15.6828 H   0  0  0  0  0  0  0  0  0  0  0  0
  -20.1886   12.0838  -16.1811 N   0  0  0  0  0  0  0  0  0  0  0  0
  -19.8471   11.1295  -16.8719 C   0  0  0  0  0  0  0  0  0  0  0  0
  -18.9219   11.1181  -17.9792 C   0  0  0  0  0  0  0  0  0  0  0  0
  -18.8063   12.1078  -18.9275 C   0  0  0  0  0  0  0  0  0  0  0  0
  -17.8931   12.0449  -19.9780 C   0  0  0  0  0  0  0  0  0  0  0  0
  -17.0468   10.9702  -20.1212 C   0  0  0  0  0  0  0  0  0  0  0  0
  -17.1390    9.9643  -19.1881 C   0  0  0  0  0  0  0  0  0  0  0  0
  -18.0403   10.0376  -18.1602 C   0  0  0  0  0  0  0  0  0  0  0  0
  -16.1132   10.9142  -21.2019 N   0  0  0  0  0  0  0  0  0  0  0  0
  -15.2298   10.0363  -21.1949 O   0  0  0  0  0  0  0  0  0  0  0  0
  -16.2457   11.8450  -22.2001 O   0  0  0  0  0  0  0  0  0  0  0  0
 13 14  1  0  0  0
 14 15  1  0  0  0
 14 12  1  0  0  0
 12  6  1  0  0  0
  6  7  2  0  0  0
  7  8  1  0  0  0
  8  9  2  0  0  0
  9  5  1  0  0  0
  5  3  1  0  0  0
  3  1  1  0  0  0
  1  2  2  0  0  0
  1 16  1  0  0  0
 16 18  1  0  0  0
 18 19  2  0  0  0
 19 20  1  0  0  0
 20 21  2  0  0  0
 21 22  1  0  0  0
 22 23  2  0  0  0
 23 26  1  0  0  0
 26 27  2  0  0  0
 26 28  1  0  0  0
 23 24  1  0  0  0
 24 25  2  0  0  0
  9 10  1  0  0  0
 10 11  2  0  0  0
 11  6  1  0  0  0
 25 20  1  0  0  0
  3  4  1  0  0  0
 16 17  1  0  0  0
M  CHG 1  26   1
M  CHG 1  28  -1
M  END
> <minimizedAffinity>
-6.94152

> <CNNscore>
0.3143378496

> <CNNaffinity>
5.9486985207

> <CNN_VS>
1.8699010611

> <CNNaffinity_variance>
0.0552333668

$$$$
[H]c1nc(N([H])[H])c(C(=O)N([H])c2c([H])nc([H])c([H])c2N2C([H])([H])C([H])([H])C([H])(N([H])[H])C([H])([H])C2([H])[H])nc1-c1c([H])c([H])c(OC([H])([H])[H])c([H])c1[H]


 36 39  0  0  0  0  0  0  0  0999 V2000
  -16.8780   13.0477  -22.6201 C   0  0  0  0  0  0  0  0  0  0  0  0
  -17.4534   12.6901  -23.6663 O   0  0  0  0  0  0  0  0  0  0  0  0
  -16.4644   14.3401  -22.2683 N   0  0  0  0  0  0  0  0  0  0  0  0
  -16.0055   14.4159  -21.3066 H   0  0  0  0  0  0  0  0  0  0  0  0
  -17.2694   10.8072  -19.6809 C   0  0  0  0  0  0  0  0  0  0  0  0
  -16.2165    9.9532  -19.8684 C   0  0  0  0  0  0  0  0  0  0  0  0
  -15.3715   10.0853  -20.9363 N   0  0  0  0  0  0  0  0  0  0  0  0
  -15.5774   11.0820  -21.8314 C   0  0  0  0  0  0  0  0  0  0  0  0
  -14.7141   11.2490  -22.9602 N   0  0  0  0  0  0  0  0  0  0  0  0
  -16.6197   11.9405  -21.6607 C   0  0  0  0  0  0  0  0  0  0  0  0
  -17.4426   11.7820  -20.5869 N   0  0  0  0  0  0  0  0  0  0  0  0
  -13.9593   11.9642  -22.9631 H   0  0  0  0  0  0  0  0  0  0  0  0
  -14.8465   10.6499  -23.7792 H   0  0  0  0  0  0  0  0  0  0  0  0
  -19.9940   10.5934  -16.4011 C   0  0  0  0  0  0  0  0  0  0  0  0
  -19.2291    9.5002  -16.7247 C   0  0  0  0  0  0  0  0  0  0  0  0
  -18.3590    9.5883  -17.7833 C   0  0  0  0  0  0  0  0  0  0  0  0
  -18.1850   10.7025  -18.5632 C   0  0  0  0  0  0  0  0  0  0  0  0
  -18.9800   11.8018  -18.2075 C   0  0  0  0  0  0  0  0  0  0  0  0
  -19.8664   11.7524  -17.1502 C   0  0  0  0  0  0  0  0  0  0  0  0
  -22.2052   10.1321  -15.5567 C   0  0  0  0  0  0  0  0  0  0  0  0
  -20.8690   10.5086  -15.3384 O   0  0  0  0  0  0  0  0  0  0  0  0
  -16.5957   15.5385  -22.9996 C   0  0  0  0  0  0  0  0  0  0  0  0
  -15.9742   15.7506  -24.1932 C   0  0  0  0  0  0  0  0  0  0  0  0
  -16.1506   16.8843  -24.8945 N   0  0  0  0  0  0  0  0  0  0  0  0
  -16.9474   17.8658  -24.4566 C   0  0  0  0  0  0  0  0  0  0  0  0
  -17.6002   17.7105  -23.2602 C   0  0  0  0  0  0  0  0  0  0  0  0
  -17.4289   16.5423  -22.5187 C   0  0  0  0  0  0  0  0  0  0  0  0
  -18.0766   16.4126  -21.2686 N   0  0  0  0  0  0  0  0  0  0  0  0
  -17.5360   16.8555  -20.0151 C   0  0  0  0  0  0  0  0  0  0  0  0
  -18.5687   17.6708  -19.2716 C   0  0  0  0  0  0  0  0  0  0  0  0
  -19.7139   18.0165  -20.1691 C   0  0  0  0  0  0  0  0  0  0  0  0
  -20.7672   18.6944  -19.4009 N   0  0  0  0  0  0  0  0  0  0  0  0
  -20.3834   16.8334  -20.8138 C   0  0  0  0  0  0  0  0  0  0  0  0
  -19.3926   15.7892  -21.2372 C   0  0  0  0  0  0  0  0  0  0  0  0
  -21.6349   18.7162  -19.9455 H   0  0  0  0  0  0  0  0  0  0  0  0
  -20.4418   19.6174  -19.0504 H   0  0  0  0  0  0  0  0  0  0  0  0
 20 21  1  0  0  0
 21 14  1  0  0  0
 14 15  2  0  0  0
 15 16  1  0  0  0
 16 17  2  0  0  0
 17  5  1  0  0  0
  5  6  2  0  0  0
  6  7  1  0  0  0
  7  8  2  0  0  0
  8  9  1  0  0  0
  8 10  1  0  0  0
 10  1  1  0  0  0
  1  2  2  0  0  0
  1  3  1  0  0  0
  3 22  1  0  0  0
 22 23  2  0  0  0
 23 24  1  0  0  0
 24 25  2  0  0  0
 25 26  1  0  0  0
 26 27  2  0  0  0
 27 28  1  0  0  0
 28 29  1  0  0  0
 29 30  1  0  0  0
 30 31  1  0  0  0
 31 32  1  0  0  0
 31 33  1  0  0  0
 33 34  1  0  0  0
 10 11  2  0  0  0
 17 18  1  0  0  0
 18 19  2  0  0  0
 19 14  1  0  0  0
 11  5  1  0  0  0
 27 22  1  0  0  0
 34 28  1  0  0  0
  9 12  1  0  0  0
  9 13  1  0  0  0
  3  4  1  0  0  0
 32 35  1  0  0  0
 32 36  1  0  0  0
M  END
> <minimizedAffinity>
-8.77843

> <CNNscore>
0.9506741166

> <CNNaffinity>
7.8073701859

> <CNN_VS>
7.4222645760

> <CNNaffinity_variance>
0.0478006676

$$$$
[H]c1nc(N([H])[H])c(C(=O)N([H])c2c([H])nc([H])c([H])c2N2C([H])([H])C([H])([H])C([H])(N([H])[H])C([H])([H])C2([H])[H])nc1-c1c([H])c([H])c(OC([H])([H])[H])c([H])c1[H]


 36 39  0  0  0  0  0  0  0  0999 V2000
  -16.6182   12.6129  -22.5982 C   0  0  0  0  0  0  0  0  0  0  0  0
  -17.3417   12.2110  -23.5301 O   0  0  0  0  0  0  0  0  0  0  0  0
  -15.7149   13.6846  -22.6155 N   0  0  0  0  0  0  0  0  0  0  0  0
  -15.2129   13.8607  -21.6890 H   0  0  0  0  0  0  0  0  0  0  0  0
  -17.8817   11.5610  -19.2651 C   0  0  0  0  0  0  0  0  0  0  0  0
  -17.0869   10.4737  -19.0219 C   0  0  0  0  0  0  0  0  0  0  0  0
  -16.1397   10.0662  -19.9212 N   0  0  0  0  0  0  0  0  0  0  0  0
  -15.9811   10.7508  -21.0802 C   0  0  0  0  0  0  0  0  0  0  0  0
  -15.0012   10.3522  -22.0435 N   0  0  0  0  0  0  0  0  0  0  0  0
  -16.7629   11.8346  -21.3386 C   0  0  0  0  0  0  0  0  0  0  0  0
  -17.6966   12.2145  -20.4226 N   0  0  0  0  0  0  0  0  0  0  0  0
  -14.0839   10.8368  -22.1149 H   0  0  0  0  0  0  0  0  0  0  0  0
  -15.2122    9.5736  -22.6732 H   0  0  0  0  0  0  0  0  0  0  0  0
  -20.8720   12.8380  -16.4985 C   0  0  0  0  0  0  0  0  0  0  0  0
  -20.3367   13.7370  -17.3875 C   0  0  0  0  0  0  0  0  0  0  0  0
  -19.3757   13.3073  -18.2691 C   0  0  0  0  0  0  0  0  0  0  0  0
  -18.8937   12.0255  -18.3386 C   0  0  0  0  0  0  0  0  0  0  0  0
  -19.4600   11.1315  -17.4183 C   0  0  0  0  0  0  0  0  0  0  0  0
  -20.4282   11.5251  -16.5162 C   0  0  0  0  0  0  0  0  0  0  0  0
  -22.1672   14.6298  -15.5361 C   0  0  0  0  0  0  0  0  0  0  0  0
  -21.8375   13.2659  -15.6116 O   0  0  0  0  0  0  0  0  0  0  0  0
  -15.4059   14.5615  -23.6756 C   0  0  0  0  0  0  0  0  0  0  0  0
  -14.5518   14.2329  -24.6847 C   0  0  0  0  0  0  0  0  0  0  0  0
  -14.3074   15.0687  -25.7093 N   0  0  0  0  0  0  0  0  0  0  0  0
  -14.8915   16.2695  -25.7924 C   0  0  0  0  0  0  0  0  0  0  0  0
  -15.7614   16.6572  -24.8053 C   0  0  0  0  0  0  0  0  0  0  0  0
  -16.0264   15.8043  -23.7346 C   0  0  0  0  0  0  0  0  0  0  0  0
  -16.8944   16.2331  -22.7043 N   0  0  0  0  0  0  0  0  0  0  0  0
  -16.4745   16.8849  -21.4966 C   0  0  0  0  0  0  0  0  0  0  0  0
  -17.3089   18.1237  -21.2665 C   0  0  0  0  0  0  0  0  0  0  0  0
  -18.1040   18.4585  -22.4880 C   0  0  0  0  0  0  0  0  0  0  0  0
  -19.0059   19.5841  -22.2075 N   0  0  0  0  0  0  0  0  0  0  0  0
  -18.9889   17.3469  -22.9833 C   0  0  0  0  0  0  0  0  0  0  0  0
  -18.3236   16.0068  -22.8702 C   0  0  0  0  0  0  0  0  0  0  0  0
  -19.7091   19.6589  -22.9490 H   0  0  0  0  0  0  0  0  0  0  0  0
  -18.4717   20.4548  -22.0152 H   0  0  0  0  0  0  0  0  0  0  0  0
 20 21  1  0  0  0
 21 14  1  0  0  0
 14 15  2  0  0  0
 15 16  1  0  0  0
 16 17  2  0  0  0
 17  5  1  0  0  0
  5  6  2  0  0  0
  6  7  1  0  0  0
  7  8  2  0  0  0
  8  9  1  0  0  0
  8 10  1  0  0  0
 10  1  1  0  0  0
  1  2  2  0  0  0
  1  3  1  0  0  0
  3 22  1  0  0  0
 22 23  2  0  0  0
 23 24  1  0  0  0
 24 25  2  0  0  0
 25 26  1  0  0  0
 26 27  2  0  0  0
 27 28  1  0  0  0
 28 29  1  0  0  0
 29 30  1  0  0  0
 30 31  1  0  0  0
 31 32  1  0  0  0
 31 33  1  0  0  0
 33 34  1  0  0  0
 10 11  2  0  0  0
 17 18  1  0  0  0
 18 19  2  0  0  0
 19 14  1  0  0  0
 11  5  1  0  0  0
 27 22  1  0  0  0
 34 28  1  0  0  0
  9 12  1  0  0  0
  9 13  1  0  0  0
  3  4  1  0  0  0
 32 35  1  0  0  0
 32 36  1  0  0  0
M  END
> <minimizedAffinity>
-8.50947

> <CNNscore>
0.9361681938

> <CNNaffinity>
7.8211832047

> <CNN_VS>
7.3219428062

> <CNNaffinity_variance>
0.0179279037

$$$$
[H]c1nc(N([H])[H])c(C(=O)N([H])c2c([H])nc([H])c([H])c2N2C([H])([H])C([H])([H])C([H])(N([H])[H])C([H])([H])C2([H])[H])nc1-c1c([H])c([H])c(OC([H])([H])[H])c([H])c1[H]


 36 39  0  0  0  0  0  0  0  0999 V2000
  -17.3161   11.2490  -20.6762 C   0  0  0  0  0  0  0  0  0  0  0  0
  -17.4210   10.0448  -20.9802 O   0  0  0  0  0  0  0  0  0  0  0  0
  -17.7682   11.8809  -19.5094 N   0  0  0  0  0  0  0  0  0  0  0  0
  -17.5496   12.9251  -19.4536 H   0  0  0  0  0  0  0  0  0  0  0  0
  -16.5395   14.1089  -22.9191 C   0  0  0  0  0  0  0  0  0  0  0  0
  -15.4220   13.6394  -23.5544 C   0  0  0  0  0  0  0  0  0  0  0  0
  -14.9057   12.4042  -23.2717 N   0  0  0  0  0  0  0  0  0  0  0  0
  -15.5105   11.6245  -22.3425 C   0  0  0  0  0  0  0  0  0  0  0  0
  -14.9974   10.3281  -22.0212 N   0  0  0  0  0  0  0  0  0  0  0  0
  -16.6230   12.0755  -21.7008 C   0  0  0  0  0  0  0  0  0  0  0  0
  -17.1118   13.3098  -22.0053 N   0  0  0  0  0  0  0  0  0  0  0  0
  -15.4204    9.4650  -22.4180 H   0  0  0  0  0  0  0  0  0  0  0  0
  -14.1977   10.2540  -21.3871 H   0  0  0  0  0  0  0  0  0  0  0  0
  -18.3306   17.9085  -23.6817 C   0  0  0  0  0  0  0  0  0  0  0  0
  -17.0300   17.6798  -24.0572 C   0  0  0  0  0  0  0  0  0  0  0  0
  -16.4714   16.4515  -23.8029 C   0  0  0  0  0  0  0  0  0  0  0  0
  -17.1181   15.4088  -23.1910 C   0  0  0  0  0  0  0  0  0  0  0  0
  -18.4445   15.6734  -22.8197 C   0  0  0  0  0  0  0  0  0  0  0  0
  -19.0414   16.8952  -23.0580 C   0  0  0  0  0  0  0  0  0  0  0  0
  -19.0279   20.0800  -22.8986 C   0  0  0  0  0  0  0  0  0  0  0  0
  -18.8950   19.1409  -23.9356 O   0  0  0  0  0  0  0  0  0  0  0  0
  -18.4431   11.3191  -18.4062 C   0  0  0  0  0  0  0  0  0  0  0  0
  -18.2326   10.0424  -17.9800 C   0  0  0  0  0  0  0  0  0  0  0  0
  -18.8547    9.5431  -16.8975 N   0  0  0  0  0  0  0  0  0  0  0  0
  -19.7148   10.2750  -16.1801 C   0  0  0  0  0  0  0  0  0  0  0  0
  -19.9682   11.5682  -16.5606 C   0  0  0  0  0  0  0  0  0  0  0  0
  -19.3333   12.1029  -17.6808 C   0  0  0  0  0  0  0  0  0  0  0  0
  -19.6342   13.4241  -18.0844 N   0  0  0  0  0  0  0  0  0  0  0  0
  -20.8340   13.8204  -18.7651 C   0  0  0  0  0  0  0  0  0  0  0  0
  -21.4396   15.0222  -18.0775 C   0  0  0  0  0  0  0  0  0  0  0  0
  -20.7897   15.2539  -16.7508 C   0  0  0  0  0  0  0  0  0  0  0  0
  -21.2957   16.4977  -16.1539 N   0  0  0  0  0  0  0  0  0  0  0  0
  -19.2944   15.4123  -16.8050 C   0  0  0  0  0  0  0  0  0  0  0  0
  -18.6654   14.4709  -17.7896 C   0  0  0  0  0  0  0  0  0  0  0  0
  -20.6914   16.7808  -15.3764 H   0  0  0  0  0  0  0  0  0  0  0  0
  -22.3062   16.4196  -15.9228 H   0  0  0  0  0  0  0  0  0  0  0  0
 20 21  1  0  0  0
 21 14  1  0  0  0
 14 15  2  0  0  0
 15 16  1  0  0  0
 16 17  2  0  0  0
 17  5  1  0  0  0
  5  6  2  0  0  0
  6  7  1  0  0  0
  7  8  2  0  0  0
  8  9  1  0  0  0
  8 10  1  0  0  0
 10  1  1  0  0  0
  1  2  2  0  0  0
  1  3  1  0  0  0
  3 22  1  0  0  0
 22 23  2  0  0  0
 23 24  1  0  0  0
 24 25  2  0  0  0
 25 26  1  0  0  0
 26 27  2  0  0  0
 27 28  1  0  0  0
 28 29  1  0  0  0
 29 30  1  0  0  0
 30 31  1  0  0  0
 31 32  1  0  0  0
 31 33  1  0  0  0
 33 34  1  0  0  0
 10 11  2  0  0  0
 17 18  1  0  0  0
 18 19  2  0  0  0
 19 14  1  0  0  0
 11  5  1  0  0  0
 27 22  1  0  0  0
 34 28  1  0  0  0
  9 12  1  0  0  0
  9 13  1  0  0  0
  3  4  1  0  0  0
 32 35  1  0  0  0
 32 36  1  0  0  0
M  END
> <minimizedAffinity>
-8.25462

> <CNNscore>
0.8610020280

> <CNNaffinity>
7.5170454979

> <CNN_VS>
6.4721913338

> <CNNaffinity_variance>
0.0695520565

$$$$
[H]c1nc(N([H])[H])c(C(=O)N([H])c2c([H])nc([H])c([H])c2N2C([H])([H])C([H])([H])C([H])(N([H])[H])C([H])([H])C2([H])[H])nc1-c1c([H])c([H])c(OC([H])([H])[H])c([H])c1[H]


 36 39  0  0  0  0  0  0  0  0999 V2000
  -18.3924   12.4563  -19.2538 C   0  0  0  0  0  0  0  0  0  0  0  0
  -19.1123   11.5808  -18.7352 O   0  0  0  0  0  0  0  0  0  0  0  0
  -18.4310   13.8398  -19.0317 N   0  0  0  0  0  0  0  0  0  0  0  0
  -17.7013   14.3999  -19.5749 H   0  0  0  0  0  0  0  0  0  0  0  0
  -16.2376   12.1980  -22.2708 C   0  0  0  0  0  0  0  0  0  0  0  0
  -15.5788   11.0261  -22.0149 C   0  0  0  0  0  0  0  0  0  0  0  0
  -15.8169   10.3073  -20.8753 N   0  0  0  0  0  0  0  0  0  0  0  0
  -16.7240   10.7617  -19.9766 C   0  0  0  0  0  0  0  0  0  0  0  0
  -16.9972   10.0363  -18.7739 N   0  0  0  0  0  0  0  0  0  0  0  0
  -17.3885   11.9254  -20.2148 C   0  0  0  0  0  0  0  0  0  0  0  0
  -17.1287   12.6172  -21.3590 N   0  0  0  0  0  0  0  0  0  0  0  0
  -17.8351    9.4264  -18.6882 H   0  0  0  0  0  0  0  0  0  0  0  0
  -16.3518   10.1229  -17.9845 H   0  0  0  0  0  0  0  0  0  0  0  0
  -15.5033   14.5622  -25.7490 C   0  0  0  0  0  0  0  0  0  0  0  0
  -16.6065   13.7465  -25.6992 C   0  0  0  0  0  0  0  0  0  0  0  0
  -16.8253   12.9934  -24.5720 C   0  0  0  0  0  0  0  0  0  0  0  0
  -16.0159   12.9869  -23.4653 C   0  0  0  0  0  0  0  0  0  0  0  0
  -14.8980   13.8300  -23.5469 C   0  0  0  0  0  0  0  0  0  0  0  0
  -14.6437   14.6024  -24.6626 C   0  0  0  0  0  0  0  0  0  0  0  0
  -16.1978   15.2820  -27.9431 C   0  0  0  0  0  0  0  0  0  0  0  0
  -15.2803   15.3201  -26.8794 O   0  0  0  0  0  0  0  0  0  0  0  0
  -19.2807   14.5734  -18.1784 C   0  0  0  0  0  0  0  0  0  0  0  0
  -19.9770   14.0028  -17.1559 C   0  0  0  0  0  0  0  0  0  0  0  0
  -20.7460   14.7304  -16.3269 N   0  0  0  0  0  0  0  0  0  0  0  0
  -20.8683   16.0558  -16.4623 C   0  0  0  0  0  0  0  0  0  0  0  0
  -20.1914   16.6875  -17.4744 C   0  0  0  0  0  0  0  0  0  0  0  0
  -19.3900   15.9494  -18.3444 C   0  0  0  0  0  0  0  0  0  0  0  0
  -18.7298   16.6082  -19.4071 N   0  0  0  0  0  0  0  0  0  0  0  0
  -17.3480   16.4288  -19.7508 C   0  0  0  0  0  0  0  0  0  0  0  0
  -17.2187   16.1716  -21.2344 C   0  0  0  0  0  0  0  0  0  0  0  0
  -18.5570   15.8913  -21.8398 C   0  0  0  0  0  0  0  0  0  0  0  0
  -18.4334   15.7730  -23.2992 N   0  0  0  0  0  0  0  0  0  0  0  0
  -19.5862   16.9641  -21.6082 C   0  0  0  0  0  0  0  0  0  0  0  0
  -19.4987   17.5369  -20.2242 C   0  0  0  0  0  0  0  0  0  0  0  0
  -19.3612   15.8210  -23.7314 H   0  0  0  0  0  0  0  0  0  0  0  0
  -17.8655   14.9430  -23.5623 H   0  0  0  0  0  0  0  0  0  0  0  0
 20 21  1  0  0  0
 21 14  1  0  0  0
 14 15  2  0  0  0
 15 16  1  0  0  0
 16 17  2  0  0  0
 17  5  1  0  0  0
  5  6  2  0  0  0
  6  7  1  0  0  0
  7  8  2  0  0  0
  8  9  1  0  0  0
  8 10  1  0  0  0
 10  1  1  0  0  0
  1  2  2  0  0  0
  1  3  1  0  0  0
  3 22  1  0  0  0
 22 23  2  0  0  0
 23 24  1  0  0  0
 24 25  2  0  0  0
 25 26  1  0  0  0
 26 27  2  0  0  0
 27 28  1  0  0  0
 28 29  1  0  0  0
 29 30  1  0  0  0
 30 31  1  0  0  0
 31 32  1  0  0  0
 31 33  1  0  0  0
 33 34  1  0  0  0
 10 11  2  0  0  0
 17 18  1  0  0  0
 18 19  2  0  0  0
 19 14  1  0  0  0
 11  5  1  0  0  0
 27 22  1  0  0  0
 34 28  1  0  0  0
  9 12  1  0  0  0
  9 13  1  0  0  0
  3  4  1  0  0  0
 32 35  1  0  0  0
 32 36  1  0  0  0
M  END
> <minimizedAffinity>
-8.82315

> <CNNscore>
0.7897514701

> <CNNaffinity>
7.8037080765

> <CNN_VS>
6.1629900932

> <CNNaffinity_variance>
0.1037851572

$$$$
[H]c1nc(N([H])[H])c(C(=O)N([H])c2c([H])nc([H])c([H])c2N2C([H])([H])C([H])([H])C([H])(N([H])[H])C([H])([H])C2([H])[H])nc1-c1c([H])c([H])c(OC([H])([H])[H])c([H])c1[H]


 36 39  0  0  0  0  0  0  0  0999 V2000
  -16.9644   12.7643  -22.3216 C   0  0  0  0  0  0  0  0  0  0  0  0
  -17.4505   12.1569  -23.2955 O   0  0  0  0  0  0  0  0  0  0  0  0
  -16.1258   13.8874  -22.3438 N   0  0  0  0  0  0  0  0  0  0  0  0
  -15.8449   14.2541  -21.3805 H   0  0  0  0  0  0  0  0  0  0  0  0
  -18.7006   12.3587  -19.0608 C   0  0  0  0  0  0  0  0  0  0  0  0
  -18.0930   11.2278  -18.5866 C   0  0  0  0  0  0  0  0  0  0  0  0
  -17.1227   10.5839  -19.3048 N   0  0  0  0  0  0  0  0  0  0  0  0
  -16.7515   11.0725  -20.5133 C   0  0  0  0  0  0  0  0  0  0  0  0
  -15.7410   10.4243  -21.2917 N   0  0  0  0  0  0  0  0  0  0  0  0
  -17.3452   12.1962  -21.0005 C   0  0  0  0  0  0  0  0  0  0  0  0
  -18.3078   12.8137  -20.2607 N   0  0  0  0  0  0  0  0  0  0  0  0
  -14.7633   10.7778  -21.3119 H   0  0  0  0  0  0  0  0  0  0  0  0
  -15.9907    9.5960  -21.8384 H   0  0  0  0  0  0  0  0  0  0  0  0
  -21.7587   14.5037  -16.9936 C   0  0  0  0  0  0  0  0  0  0  0  0
  -20.9608   13.6221  -16.3071 C   0  0  0  0  0  0  0  0  0  0  0  0
  -19.9830   12.9413  -16.9897 C   0  0  0  0  0  0  0  0  0  0  0  0
  -19.7299   13.0704  -18.3310 C   0  0  0  0  0  0  0  0  0  0  0  0
  -20.5611   13.9778  -19.0037 C   0  0  0  0  0  0  0  0  0  0  0  0
  -21.5550   14.6811  -18.3529 C   0  0  0  0  0  0  0  0  0  0  0  0
  -22.5252   15.5906  -14.9821 C   0  0  0  0  0  0  0  0  0  0  0  0
  -22.7417   15.1894  -16.3113 O   0  0  0  0  0  0  0  0  0  0  0  0
  -15.6323   14.5986  -23.4568 C   0  0  0  0  0  0  0  0  0  0  0  0
  -14.7729   14.0543  -24.3629 C   0  0  0  0  0  0  0  0  0  0  0  0
  -14.3512   14.7374  -25.4416 N   0  0  0  0  0  0  0  0  0  0  0  0
  -14.7542   15.9902  -25.6829 C   0  0  0  0  0  0  0  0  0  0  0  0
  -15.6194   16.5925  -24.8054 C   0  0  0  0  0  0  0  0  0  0  0  0
  -16.0667   15.9002  -23.6809 C   0  0  0  0  0  0  0  0  0  0  0  0
  -16.9270   16.5474  -22.7643 N   0  0  0  0  0  0  0  0  0  0  0  0
  -18.3225   16.2542  -22.6022 C   0  0  0  0  0  0  0  0  0  0  0  0
  -18.6390   16.0643  -21.1367 C   0  0  0  0  0  0  0  0  0  0  0  0
  -17.3813   15.9462  -20.3365 C   0  0  0  0  0  0  0  0  0  0  0  0
  -17.7009   15.8935  -18.9032 N   0  0  0  0  0  0  0  0  0  0  0  0
  -16.4279   17.0993  -20.4946 C   0  0  0  0  0  0  0  0  0  0  0  0
  -16.3671   17.5874  -21.9121 C   0  0  0  0  0  0  0  0  0  0  0  0
  -16.8521   16.0533  -18.3520 H   0  0  0  0  0  0  0  0  0  0  0  0
  -18.2254   15.0278  -18.6667 H   0  0  0  0  0  0  0  0  0  0  0  0
 20 21  1  0  0  0
 21 14  1  0  0  0
 14 15  2  0  0  0
 15 16  1  0  0  0
 16 17  2  0  0  0
 17  5  1  0  0  0
  5  6  2  0  0  0
  6  7  1  0  0  0
  7  8  2  0  0  0
  8  9  1  0  0  0
  8 10  1  0  0  0
 10  1  1  0  0  0
  1  2  2  0  0  0
  1  3  1  0  0  0
  3 22  1  0  0  0
 22 23  2  0  0  0
 23 24  1  0  0  0
 24 25  2  0  0  0
 25 26  1  0  0  0
 26 27  2  0  0  0
 27 28  1  0  0  0
 28 29  1  0  0  0
 29 30  1  0  0  0
 30 31  1  0  0  0
 31 32  1  0  0  0
 31 33  1  0  0  0
 33 34  1  0  0  0
 10 11  2  0  0  0
 17 18  1  0  0  0
 18 19  2  0  0  0
 19 14  1  0  0  0
 11  5  1  0  0  0
 27 22  1  0  0  0
 34 28  1  0  0  0
  9 12  1  0  0  0
  9 13  1  0  0  0
  3  4  1  0  0  0
 32 35  1  0  0  0
 32 36  1  0  0  0
M  END
> <minimizedAffinity>
-7.95997

> <CNNscore>
0.7015151381

> <CNNaffinity>
7.5445489883

> <CNN_VS>
5.2926154137

> <CNNaffinity_variance>
0.0895463824

$$$$
[H]c1nc(N([H])[H])c(C(=O)N([H])c2c([H])nc([H])c([H])c2N2C([H])([H])C([H])([H])C([H])(N([H])[H])C([H])([H])C2([H])[H])nc1-c1c([H])c([H])c(OC([H])([H])[H])c([H])c1[H]


 36 39  0  0  0  0  0  0  0  0999 V2000
  -17.5914   14.0215  -20.8622 C   0  0  0  0  0  0  0  0  0  0  0  0
  -16.7205   14.7537  -20.3531 O   0  0  0  0  0  0  0  0  0  0  0  0
  -18.6304   14.3980  -21.7245 N   0  0  0  0  0  0  0  0  0  0  0  0
  -19.2505   13.5932  -22.0547 H   0  0  0  0  0  0  0  0  0  0  0  0
  -18.0439   10.8632  -18.9562 C   0  0  0  0  0  0  0  0  0  0  0  0
  -17.3141    9.9954  -19.7226 C   0  0  0  0  0  0  0  0  0  0  0  0
  -16.6705   10.4115  -20.8561 N   0  0  0  0  0  0  0  0  0  0  0  0
  -16.7547   11.7107  -21.2329 C   0  0  0  0  0  0  0  0  0  0  0  0
  -16.0954   12.1801  -22.4128 N   0  0  0  0  0  0  0  0  0  0  0  0
  -17.4763   12.5877  -20.4827 C   0  0  0  0  0  0  0  0  0  0  0  0
  -18.1050   12.1417  -19.3597 N   0  0  0  0  0  0  0  0  0  0  0  0
  -15.1878   12.6850  -22.3610 H   0  0  0  0  0  0  0  0  0  0  0  0
  -16.5302   12.0133  -23.3240 H   0  0  0  0  0  0  0  0  0  0  0  0
  -20.1282    9.7750  -15.3929 C   0  0  0  0  0  0  0  0  0  0  0  0
  -19.3032    8.8646  -16.0055 C   0  0  0  0  0  0  0  0  0  0  0  0
  -18.6417    9.2332  -17.1510 C   0  0  0  0  0  0  0  0  0  0  0  0
  -18.7377   10.4631  -17.7492 C   0  0  0  0  0  0  0  0  0  0  0  0
  -19.5875   11.3704  -17.0999 C   0  0  0  0  0  0  0  0  0  0  0  0
  -20.2697   11.0376  -15.9467 C   0  0  0  0  0  0  0  0  0  0  0  0
  -21.2739    8.0957  -14.0959 C   0  0  0  0  0  0  0  0  0  0  0  0
  -20.7940    9.4084  -14.2421 O   0  0  0  0  0  0  0  0  0  0  0  0
  -18.9429   15.6793  -22.2234 C   0  0  0  0  0  0  0  0  0  0  0  0
  -19.8680   16.4948  -21.6448 C   0  0  0  0  0  0  0  0  0  0  0  0
  -20.1167   17.7311  -22.1119 N   0  0  0  0  0  0  0  0  0  0  0  0
  -19.4673   18.2267  -23.1714 C   0  0  0  0  0  0  0  0  0  0  0  0
  -18.5240   17.4520  -23.7971 C   0  0  0  0  0  0  0  0  0  0  0  0
  -18.2534   16.1673  -23.3277 C   0  0  0  0  0  0  0  0  0  0  0  0
  -17.3072   15.3655  -24.0066 N   0  0  0  0  0  0  0  0  0  0  0  0
  -17.6329   14.3341  -24.9499 C   0  0  0  0  0  0  0  0  0  0  0  0
  -16.8077   14.5080  -26.2039 C   0  0  0  0  0  0  0  0  0  0  0  0
  -16.1304   15.8413  -26.2090 C   0  0  0  0  0  0  0  0  0  0  0  0
  -15.2312   15.9436  -27.3667 N   0  0  0  0  0  0  0  0  0  0  0  0
  -15.2693   16.1108  -25.0049 C   0  0  0  0  0  0  0  0  0  0  0  0
  -15.8937   15.5960  -23.7415 C   0  0  0  0  0  0  0  0  0  0  0  0
  -14.5978   16.7397  -27.2452 H   0  0  0  0  0  0  0  0  0  0  0  0
  -15.7647   15.9351  -28.2588 H   0  0  0  0  0  0  0  0  0  0  0  0
 20 21  1  0  0  0
 21 14  1  0  0  0
 14 15  2  0  0  0
 15 16  1  0  0  0
 16 17  2  0  0  0
 17  5  1  0  0  0
  5  6  2  0  0  0
  6  7  1  0  0  0
  7  8  2  0  0  0
  8  9  1  0  0  0
  8 10  1  0  0  0
 10  1  1  0  0  0
  1  2  2  0  0  0
  1  3  1  0  0  0
  3 22  1  0  0  0
 22 23  2  0  0  0
 23 24  1  0  0  0
 24 25  2  0  0  0
 25 26  1  0  0  0
 26 27  2  0  0  0
 27 28  1  0  0  0
 28 29  1  0  0  0
 29 30  1  0  0  0
 30 31  1  0  0  0
 31 32  1  0  0  0
 31 33  1  0  0  0
 33 34  1  0  0  0
 10 11  2  0  0  0
 17 18  1  0  0  0
 18 19  2  0  0  0
 19 14  1  0  0  0
 11  5  1  0  0  0
 27 22  1  0  0  0
 34 28  1  0  0  0
  9 12  1  0  0  0
  9 13  1  0  0  0
  3  4  1  0  0  0
 32 35  1  0  0  0
 32 36  1  0  0  0
M  END
> <minimizedAffinity>
-8.31547

> <CNNscore>
0.6903882623

> <CNNaffinity>
7.5544495583

> <CNN_VS>
5.2155032158

> <CNNaffinity_variance>
0.1556141078

$$$$
[H]c1nc(N([H])[H])c(C(=O)N([H])c2c([H])nc([H])c([H])c2N2C([H])([H])C([H])([H])C([H])(N([H])[H])C([H])([H])C2([H])[H])nc1-c1c([H])c([H])c(OC([H])([H])[H])c([H])c1[H]


 36 39  0  0  0  0  0  0  0  0999 V2000
  -17.4626   11.6092  -19.0574 C   0  0  0  0  0  0  0  0  0  0  0  0
  -16.4992   11.0977  -18.4543 O   0  0  0  0  0  0  0  0  0  0  0  0
  -18.7831   11.7422  -18.6062 N   0  0  0  0  0  0  0  0  0  0  0  0
  -19.4409   12.2345  -19.2890 H   0  0  0  0  0  0  0  0  0  0  0  0
  -17.1518   13.9498  -21.9275 C   0  0  0  0  0  0  0  0  0  0  0  0
  -16.5485   13.1415  -22.8524 C   0  0  0  0  0  0  0  0  0  0  0  0
  -16.2350   11.8405  -22.5674 N   0  0  0  0  0  0  0  0  0  0  0  0
  -16.5260   11.3363  -21.3434 C   0  0  0  0  0  0  0  0  0  0  0  0
  -16.2115    9.9807  -21.0108 N   0  0  0  0  0  0  0  0  0  0  0  0
  -17.1259   12.1260  -20.4112 C   0  0  0  0  0  0  0  0  0  0  0  0
  -17.4251   13.4169  -20.7264 N   0  0  0  0  0  0  0  0  0  0  0  0
  -16.9367    9.2358  -21.0325 H   0  0  0  0  0  0  0  0  0  0  0  0
  -15.2515    9.7444  -20.7465 H   0  0  0  0  0  0  0  0  0  0  0  0
  -18.1275   18.0473  -22.6241 C   0  0  0  0  0  0  0  0  0  0  0  0
  -18.6596   17.0726  -23.4315 C   0  0  0  0  0  0  0  0  0  0  0  0
  -18.3335   15.7605  -23.1918 C   0  0  0  0  0  0  0  0  0  0  0  0
  -17.5015   15.3308  -22.1903 C   0  0  0  0  0  0  0  0  0  0  0  0
  -16.9745   16.3496  -21.3832 C   0  0  0  0  0  0  0  0  0  0  0  0
  -17.2783   17.6800  -21.5922 C   0  0  0  0  0  0  0  0  0  0  0  0
  -18.7410   20.2236  -21.7863 C   0  0  0  0  0  0  0  0  0  0  0  0
  -18.4529   19.3662  -22.8617 O   0  0  0  0  0  0  0  0  0  0  0  0
  -19.3406   11.3372  -17.3760 C   0  0  0  0  0  0  0  0  0  0  0  0
  -19.3811   10.0366  -16.9728 C   0  0  0  0  0  0  0  0  0  0  0  0
  -19.8769    9.6792  -15.7750 N   0  0  0  0  0  0  0  0  0  0  0  0
  -20.3574   10.5836  -14.9141 C   0  0  0  0  0  0  0  0  0  0  0  0
  -20.3440   11.9097  -15.2642 C   0  0  0  0  0  0  0  0  0  0  0  0
  -19.8347   12.2992  -16.5023 C   0  0  0  0  0  0  0  0  0  0  0  0
  -19.8638   13.6652  -16.8660 N   0  0  0  0  0  0  0  0  0  0  0  0
  -18.7114   14.4446  -17.2185 C   0  0  0  0  0  0  0  0  0  0  0  0
  -18.9713   15.1884  -18.5081 C   0  0  0  0  0  0  0  0  0  0  0  0
  -20.2076   14.6738  -19.1739 C   0  0  0  0  0  0  0  0  0  0  0  0
  -20.5195   15.4909  -20.3547 N   0  0  0  0  0  0  0  0  0  0  0  0
  -21.4438   14.7154  -18.3172 C   0  0  0  0  0  0  0  0  0  0  0  0
  -21.1529   14.3425  -16.8932 C   0  0  0  0  0  0  0  0  0  0  0  0
  -21.4760   15.2983  -20.6676 H   0  0  0  0  0  0  0  0  0  0  0  0
  -19.7867   15.3909  -21.0851 H   0  0  0  0  0  0  0  0  0  0  0  0
 20 21  1  0  0  0
 21 14  1  0  0  0
 14 15  2  0  0  0
 15 16  1  0  0  0
 16 17  2  0  0  0
 17  5  1  0  0  0
  5  6  2  0  0  0
  6  7  1  0  0  0
  7  8  2  0  0  0
  8  9  1  0  0  0
  8 10  1  0  0  0
 10  1  1  0  0  0
  1  2  2  0  0  0
  1  3  1  0  0  0
  3 22  1  0  0  0
 22 23  2  0  0  0
 23 24  1  0  0  0
 24 25  2  0  0  0
 25 26  1  0  0  0
 26 27  2  0  0  0
 27 28  1  0  0  0
 28 29  1  0  0  0
 29 30  1  0  0  0
 30 31  1  0  0  0
 31 32  1  0  0  0
 31 33  1  0  0  0
 33 34  1  0  0  0
 10 11  2  0  0  0
 17 18  1  0  0  0
 18 19  2  0  0  0
 19 14  1  0  0  0
 11  5  1  0  0  0
 27 22  1  0  0  0
 34 28  1  0  0  0
  9 12  1  0  0  0
  9 13  1  0  0  0
  3  4  1  0  0  0
 32 35  1  0  0  0
 32 36  1  0  0  0
M  END
> <minimizedAffinity>
-7.95236

> <CNNscore>
0.5303229690

> <CNNaffinity>
7.0363454819

> <CNN_VS>
3.7315356731

> <CNNaffinity_variance>
0.0372673832

$$$$
[H]c1nc(N([H])[H])c(C(=O)N([H])c2c([H])nc([H])c([H])c2N2C([H])([H])C([H])([H])C([H])(N([H])[H])C([H])([H])C2([H])[H])nc1-c1c([H])c([H])c(OC([H])([H])[H])c([H])c1[H]


 36 39  0  0  0  0  0  0  0  0999 V2000
  -18.0442   14.0738  -20.9023 C   0  0  0  0  0  0  0  0  0  0  0  0
  -18.6717   14.1839  -21.9736 O   0  0  0  0  0  0  0  0  0  0  0  0
  -17.6399   15.0995  -20.0366 N   0  0  0  0  0  0  0  0  0  0  0  0
  -17.1273   14.7679  -19.1599 H   0  0  0  0  0  0  0  0  0  0  0  0
  -17.9912   10.8636  -19.0304 C   0  0  0  0  0  0  0  0  0  0  0  0
  -17.1376   10.1285  -19.8077 C   0  0  0  0  0  0  0  0  0  0  0  0
  -16.5710   10.6520  -20.9377 N   0  0  0  0  0  0  0  0  0  0  0  0
  -16.8583   11.9260  -21.3000 C   0  0  0  0  0  0  0  0  0  0  0  0
  -16.2846   12.5051  -22.4759 N   0  0  0  0  0  0  0  0  0  0  0  0
  -17.7053   12.6716  -20.5389 C   0  0  0  0  0  0  0  0  0  0  0  0
  -18.2526   12.1211  -19.4197 N   0  0  0  0  0  0  0  0  0  0  0  0
  -15.4668   13.1449  -22.4204 H   0  0  0  0  0  0  0  0  0  0  0  0
  -16.6913   12.2821  -23.3881 H   0  0  0  0  0  0  0  0  0  0  0  0
  -19.8648    9.4271  -15.4735 C   0  0  0  0  0  0  0  0  0  0  0  0
  -18.9400    8.6455  -16.1206 C   0  0  0  0  0  0  0  0  0  0  0  0
  -18.3487    9.1248  -17.2634 C   0  0  0  0  0  0  0  0  0  0  0  0
  -18.6098   10.3473  -17.8266 C   0  0  0  0  0  0  0  0  0  0  0  0
  -19.5582   11.1217  -17.1425 C   0  0  0  0  0  0  0  0  0  0  0  0
  -20.1746   10.6749  -15.9908 C   0  0  0  0  0  0  0  0  0  0  0  0
  -21.7859    9.3044  -14.0211 C   0  0  0  0  0  0  0  0  0  0  0  0
  -20.4608    8.9490  -14.3253 O   0  0  0  0  0  0  0  0  0  0  0  0
  -17.8408   16.4897  -20.1606 C   0  0  0  0  0  0  0  0  0  0  0  0
  -17.1328   17.2667  -21.0270 C   0  0  0  0  0  0  0  0  0  0  0  0
  -17.3734   18.5830  -21.1603 N   0  0  0  0  0  0  0  0  0  0  0  0
  -18.3228   19.2004  -20.4479 C   0  0  0  0  0  0  0  0  0  0  0  0
  -19.0689   18.4704  -19.5581 C   0  0  0  0  0  0  0  0  0  0  0  0
  -18.8332   17.1047  -19.4056 C   0  0  0  0  0  0  0  0  0  0  0  0
  -19.5829   16.3729  -18.4561 N   0  0  0  0  0  0  0  0  0  0  0  0
  -19.1975   16.1677  -17.0890 C   0  0  0  0  0  0  0  0  0  0  0  0
  -20.3550   16.4989  -16.1755 C   0  0  0  0  0  0  0  0  0  0  0  0
  -21.4346   17.2088  -16.9283 C   0  0  0  0  0  0  0  0  0  0  0  0
  -22.6043   17.4075  -16.0614 N   0  0  0  0  0  0  0  0  0  0  0  0
  -21.9477   16.4692  -18.1339 C   0  0  0  0  0  0  0  0  0  0  0  0
  -20.8439   15.7821  -18.8829 C   0  0  0  0  0  0  0  0  0  0  0  0
  -23.4164   17.6698  -16.6284 H   0  0  0  0  0  0  0  0  0  0  0  0
  -22.3853   18.0536  -15.2770 H   0  0  0  0  0  0  0  0  0  0  0  0
 20 21  1  0  0  0
 21 14  1  0  0  0
 14 15  2  0  0  0
 15 16  1  0  0  0
 16 17  2  0  0  0
 17  5  1  0  0  0
  5  6  2  0  0  0
  6  7  1  0  0  0
  7  8  2  0  0  0
  8  9  1  0  0  0
  8 10  1  0  0  0
 10  1  1  0  0  0
  1  2  2  0  0  0
  1  3  1  0  0  0
  3 22  1  0  0  0
 22 23  2  0  0  0
 23 24  1  0  0  0
 24 25  2  0  0  0
 25 26  1  0  0  0
 26 27  2  0  0  0
 27 28  1  0  0  0
 28 29  1  0  0  0
 29 30  1  0  0  0
 30 31  1  0  0  0
 31 32  1  0  0  0
 31 33  1  0  0  0
 33 34  1  0  0  0
 10 11  2  0  0  0
 17 18  1  0  0  0
 18 19  2  0  0  0
 19 14  1  0  0  0
 11  5  1  0  0  0
 27 22  1  0  0  0
 34 28  1  0  0  0
  9 12  1  0  0  0
  9 13  1  0  0  0
  3  4  1  0  0  0
 32 35  1  0  0  0
 32 36  1  0  0  0
M  END
> <minimizedAffinity>
-7.38266

> <CNNscore>
0.5121521950

> <CNNaffinity>
7.1229429245

> <CNN_VS>
3.6480307579

> <CNNaffinity_variance>
0.1875449419

$$$$
[H]c1nc(N([H])[H])c(C(=O)N([H])c2c([H])nc([H])c([H])c2N2C([H])([H])C([H])([H])C([H])(N([H])[H])C([H])([H])C2([H])[H])nc1-c1c([H])c([H])c(OC([H])([H])[H])c([H])c1[H]


 36 39  0  0  0  0  0  0  0  0999 V2000
  -18.7374   12.9736  -17.9074 C   0  0  0  0  0  0  0  0  0  0  0  0
  -17.9482   13.5274  -17.1175 O   0  0  0  0  0  0  0  0  0  0  0  0
  -20.1365   12.9311  -17.8321 N   0  0  0  0  0  0  0  0  0  0  0  0
  -20.6115   12.4124  -18.6361 H   0  0  0  0  0  0  0  0  0  0  0  0
  -17.2691   12.4231  -21.2769 C   0  0  0  0  0  0  0  0  0  0  0  0
  -16.8733   11.1172  -21.1730 C   0  0  0  0  0  0  0  0  0  0  0  0
  -17.0718   10.4001  -20.0248 N   0  0  0  0  0  0  0  0  0  0  0  0
  -17.6729   10.9915  -18.9637 C   0  0  0  0  0  0  0  0  0  0  0  0
  -17.8954   10.2720  -17.7472 N   0  0  0  0  0  0  0  0  0  0  0  0
  -18.0729   12.2897  -19.0493 C   0  0  0  0  0  0  0  0  0  0  0  0
  -17.8609   12.9759  -20.2067 N   0  0  0  0  0  0  0  0  0  0  0  0
  -18.8258    9.8666  -17.5206 H   0  0  0  0  0  0  0  0  0  0  0  0
  -17.1197   10.1567  -17.0897 H   0  0  0  0  0  0  0  0  0  0  0  0
  -16.6253   14.7093  -24.8244 C   0  0  0  0  0  0  0  0  0  0  0  0
  -17.7202   14.9660  -24.0370 C   0  0  0  0  0  0  0  0  0  0  0  0
  -17.9103   14.2196  -22.9001 C   0  0  0  0  0  0  0  0  0  0  0  0
  -17.0792   13.2156  -22.4745 C   0  0  0  0  0  0  0  0  0  0  0  0
  -15.9704   12.9778  -23.2998 C   0  0  0  0  0  0  0  0  0  0  0  0
  -15.7448   13.7065  -24.4504 C   0  0  0  0  0  0  0  0  0  0  0  0
  -15.1429   15.5813  -26.5147 C   0  0  0  0  0  0  0  0  0  0  0  0
  -16.4310   15.4570  -25.9669 O   0  0  0  0  0  0  0  0  0  0  0  0
  -20.9856   13.4968  -16.8588 C   0  0  0  0  0  0  0  0  0  0  0  0
  -21.5657   14.7210  -17.0023 C   0  0  0  0  0  0  0  0  0  0  0  0
  -22.4082   15.2204  -16.0809 N   0  0  0  0  0  0  0  0  0  0  0  0
  -22.7221   14.5402  -14.9724 C   0  0  0  0  0  0  0  0  0  0  0  0
  -22.1686   13.3014  -14.7715 C   0  0  0  0  0  0  0  0  0  0  0  0
  -21.2922   12.7676  -15.7154 C   0  0  0  0  0  0  0  0  0  0  0  0
  -20.6984   11.5070  -15.4761 N   0  0  0  0  0  0  0  0  0  0  0  0
  -19.5529   11.2856  -14.6403 C   0  0  0  0  0  0  0  0  0  0  0  0
  -19.8313   10.1527  -13.6796 C   0  0  0  0  0  0  0  0  0  0  0  0
  -21.2856    9.8042  -13.6823 C   0  0  0  0  0  0  0  0  0  0  0  0
  -21.5199    8.6196  -12.8451 N   0  0  0  0  0  0  0  0  0  0  0  0
  -21.8440    9.4579  -15.0358 C   0  0  0  0  0  0  0  0  0  0  0  0
  -21.2857   10.3375  -16.1155 C   0  0  0  0  0  0  0  0  0  0  0  0
  -22.4532    8.2408  -13.0326 H   0  0  0  0  0  0  0  0  0  0  0  0
  -21.3165    8.8196  -11.8455 H   0  0  0  0  0  0  0  0  0  0  0  0
 20 21  1  0  0  0
 21 14  1  0  0  0
 14 15  2  0  0  0
 15 16  1  0  0  0
 16 17  2  0  0  0
 17  5  1  0  0  0
  5  6  2  0  0  0
  6  7  1  0  0  0
  7  8  2  0  0  0
  8  9  1  0  0  0
  8 10  1  0  0  0
 10  1  1  0  0  0
  1  2  2  0  0  0
  1  3  1  0  0  0
  3 22  1  0  0  0
 22 23  2  0  0  0
 23 24  1  0  0  0
 24 25  2  0  0  0
 25 26  1  0  0  0
 26 27  2  0  0  0
 27 28  1  0  0  0
 28 29  1  0  0  0
 29 30  1  0  0  0
 30 31  1  0  0  0
 31 32  1  0  0  0
 31 33  1  0  0  0
 33 34  1  0  0  0
 10 11  2  0  0  0
 17 18  1  0  0  0
 18 19  2  0  0  0
 19 14  1  0  0  0
 11  5  1  0  0  0
 27 22  1  0  0  0
 34 28  1  0  0  0
  9 12  1  0  0  0
  9 13  1  0  0  0
  3  4  1  0  0  0
 32 35  1  0  0  0
 32 36  1  0  0  0
M  END
> <minimizedAffinity>
-7.96050

> <CNNscore>
0.4263263345

> <CNNaffinity>
6.8511795998

> <CNN_VS>
2.9208383560

> <CNNaffinity_variance>
0.1825452745

$$$$
[H]c1c([H])c(N([H])C(=O)N([H])[C@]([H])(C(=O)N([H])[C@]([H])(C(=O)N([H])[H])C([H])([H])C([H])([H])C([H])([H])[H])C([H])([H])C([H])(C([H])([H])[H])C([H])([H])[H])c([H])c([H])c1Br


 31 31  0  0  0  0  0  0  0  0999 V2000
  -19.8655   18.5161  -18.3175 C   0  0  0  0  0  0  0  0  0  0  0  0
  -19.9568   19.4803  -17.2277 N   0  0  0  0  0  0  0  0  0  0  0  0
  -20.9759   19.3394  -16.2573 C   0  0  0  0  0  0  0  0  0  0  0  0
  -21.8086   18.3778  -16.3339 O   0  0  0  0  0  0  0  0  0  0  0  0
  -21.0845   20.2498  -15.2030 N   0  0  0  0  0  0  0  0  0  0  0  0
  -19.2879   20.2429  -17.1771 H   0  0  0  0  0  0  0  0  0  0  0  0
  -20.3505   21.0322  -15.2154 H   0  0  0  0  0  0  0  0  0  0  0  0
  -22.0188   20.2624  -14.1435 C   0  0  0  0  0  0  0  0  0  0  0  0
  -23.2791   19.7320  -14.1768 C   0  0  0  0  0  0  0  0  0  0  0  0
  -24.1527   19.8094  -13.0767 C   0  0  0  0  0  0  0  0  0  0  0  0
  -23.7766   20.4252  -11.9101 C   0  0  0  0  0  0  0  0  0  0  0  0
  -24.9652   20.5297  -10.4159 Br  0  0  0  0  0  0  0  0  0  0  0  0
  -22.5155   20.9614  -11.8619 C   0  0  0  0  0  0  0  0  0  0  0  0
  -21.6621   20.8865  -12.9355 C   0  0  0  0  0  0  0  0  0  0  0  0
  -20.0617   19.5147  -20.6090 N   0  0  0  0  0  0  0  0  0  0  0  0
  -20.6881   19.0364  -19.4097 C   0  0  0  0  0  0  0  0  0  0  0  0
  -21.9584   19.0782  -19.3017 O   0  0  0  0  0  0  0  0  0  0  0  0
  -19.0266   19.4556  -20.6664 H   0  0  0  0  0  0  0  0  0  0  0  0
  -20.8438   20.0589  -21.6965 C   0  0  0  0  0  0  0  0  0  0  0  0
  -22.2695   19.6970  -21.5072 C   0  0  0  0  0  0  0  0  0  0  0  0
  -22.5947   18.5331  -20.7299 N   0  0  0  0  0  0  0  0  0  0  0  0
  -23.2187   20.3377  -21.9799 O   0  0  0  0  0  0  0  0  0  0  0  0
  -21.8932   17.7752  -20.6919 H   0  0  0  0  0  0  0  0  0  0  0  0
  -23.5029   18.4432  -20.2171 H   0  0  0  0  0  0  0  0  0  0  0  0
  -20.3750   19.5082  -23.0095 C   0  0  0  0  0  0  0  0  0  0  0  0
  -22.1730   19.8677  -24.7658 C   0  0  0  0  0  0  0  0  0  0  0  0
  -21.3692   18.9439  -23.9331 C   0  0  0  0  0  0  0  0  0  0  0  0
  -20.0928   17.1398  -17.8476 C   0  0  0  0  0  0  0  0  0  0  0  0
  -19.8738   16.7680  -16.4491 C   0  0  0  0  0  0  0  0  0  0  0  0
  -19.0123   15.4674  -16.4256 C   0  0  0  0  0  0  0  0  0  0  0  0
  -21.0933   16.3810  -15.6601 C   0  0  0  0  0  0  0  0  0  0  0  0
 26 27  1  0  0  0
 27 25  1  0  0  0
 25 19  1  0  0  0
 19 15  1  0  0  0
 15 16  1  0  0  0
 16 17  2  0  0  0
 16  1  1  0  0  0
  1 28  1  0  0  0
 28 29  1  0  0  0
 29 30  1  0  0  0
 29 31  1  0  0  0
  1  2  1  0  0  0
  2  3  1  0  0  0
  3  4  2  0  0  0
  3  5  1  0  0  0
  5  8  1  0  0  0
  8  9  2  0  0  0
  9 10  1  0  0  0
 10 11  2  0  0  0
 11 12  1  0  0  0
 11 13  1  0  0  0
 13 14  2  0  0  0
 19 20  1  0  0  0
 20 21  1  0  0  0
 20 22  2  0  0  0
 14  8  1  0  0  0
 15 18  1  0  0  0
  2  6  1  0  0  0
  5  7  1  0  0  0
 21 23  1  0  0  0
 21 24  1  0  0  0
M  END
> <minimizedAffinity>
-2.70654

> <CNNscore>
0.5629719496

> <CNNaffinity>
5.6138257980

> <CNN_VS>
3.1604263783

> <CNNaffinity_variance>
2.6009068489

$$$$
[H]c1c([H])c(N([H])C(=O)N([H])[C@]([H])(C(=O)N([H])[C@]([H])(C(=O)N([H])[H])C([H])([H])C([H])([H])C([H])([H])[H])C([H])([H])C([H])(C([H])([H])[H])C([H])([H])[H])c([H])c([H])c1Br


 31 31  0  0  0  0  0  0  0  0999 V2000
  -18.3992   15.4599  -22.1163 C   0  0  0  0  0  0  0  0  0  0  0  0
  -17.6750   14.3382  -21.5307 N   0  0  0  0  0  0  0  0  0  0  0  0
  -18.3032   13.5429  -20.5442 C   0  0  0  0  0  0  0  0  0  0  0  0
  -19.4928   13.8040  -20.1691 O   0  0  0  0  0  0  0  0  0  0  0  0
  -17.6308   12.4622  -19.9679 N   0  0  0  0  0  0  0  0  0  0  0  0
  -16.7272   14.1398  -21.8371 H   0  0  0  0  0  0  0  0  0  0  0  0
  -16.6329   12.3149  -20.3334 H   0  0  0  0  0  0  0  0  0  0  0  0
  -18.0963   11.5567  -18.9886 C   0  0  0  0  0  0  0  0  0  0  0  0
  -17.6634   10.2712  -18.8119 C   0  0  0  0  0  0  0  0  0  0  0  0
  -18.2008    9.4306  -17.8200 C   0  0  0  0  0  0  0  0  0  0  0  0
  -19.1916    9.8659  -16.9772 C   0  0  0  0  0  0  0  0  0  0  0  0
  -19.9210    8.7220  -15.6297 Br  0  0  0  0  0  0  0  0  0  0  0  0
  -19.6354   11.1527  -17.1423 C   0  0  0  0  0  0  0  0  0  0  0  0
  -19.1115   11.9741  -18.1106 C   0  0  0  0  0  0  0  0  0  0  0  0
  -17.7648   14.1199  -24.1382 N   0  0  0  0  0  0  0  0  0  0  0  0
  -18.2561   15.3415  -23.5674 C   0  0  0  0  0  0  0  0  0  0  0  0
  -18.5550   16.3189  -24.3305 O   0  0  0  0  0  0  0  0  0  0  0  0
  -17.5416   13.3418  -23.4879 H   0  0  0  0  0  0  0  0  0  0  0  0
  -17.5872   13.9790  -25.5662 C   0  0  0  0  0  0  0  0  0  0  0  0
  -17.8287   12.5686  -25.9559 C   0  0  0  0  0  0  0  0  0  0  0  0
  -17.0959   12.0171  -27.0621 N   0  0  0  0  0  0  0  0  0  0  0  0
  -18.6320   11.8170  -25.3860 O   0  0  0  0  0  0  0  0  0  0  0  0
  -16.7715   12.6728  -27.7920 H   0  0  0  0  0  0  0  0  0  0  0  0
  -16.8917   10.9932  -27.1382 H   0  0  0  0  0  0  0  0  0  0  0  0
  -16.1926   14.3587  -25.9635 C   0  0  0  0  0  0  0  0  0  0  0  0
  -15.6390   15.5093  -28.1581 C   0  0  0  0  0  0  0  0  0  0  0  0
  -15.9887   15.6008  -26.7221 C   0  0  0  0  0  0  0  0  0  0  0  0
  -18.0478   16.7335  -21.4673 C   0  0  0  0  0  0  0  0  0  0  0  0
  -17.0534   16.7915  -20.3950 C   0  0  0  0  0  0  0  0  0  0  0  0
  -17.8129   16.9515  -19.0417 C   0  0  0  0  0  0  0  0  0  0  0  0
  -16.1258   17.9744  -20.4050 C   0  0  0  0  0  0  0  0  0  0  0  0
 26 27  1  0  0  0
 27 25  1  0  0  0
 25 19  1  0  0  0
 19 15  1  0  0  0
 15 16  1  0  0  0
 16 17  2  0  0  0
 16  1  1  0  0  0
  1 28  1  0  0  0
 28 29  1  0  0  0
 29 30  1  0  0  0
 29 31  1  0  0  0
  1  2  1  0  0  0
  2  3  1  0  0  0
  3  4  2  0  0  0
  3  5  1  0  0  0
  5  8  1  0  0  0
  8  9  2  0  0  0
  9 10  1  0  0  0
 10 11  2  0  0  0
 11 12  1  0  0  0
 11 13  1  0  0  0
 13 14  2  0  0  0
 19 20  1  0  0  0
 20 21  1  0  0  0
 20 22  2  0  0  0
 14  8  1  0  0  0
 15 18  1  0  0  0
  2  6  1  0  0  0
  5  7  1  0  0  0
 21 23  1  0  0  0
 21 24  1  0  0  0
M  END
> <minimizedAffinity>
-7.57414

> <CNNscore>
0.4599168003

> <CNNaffinity>
6.4251151085

> <CNN_VS>
2.9550182819

> <CNNaffinity_variance>
0.0525090210

$$$$
[H]c1c([H])c(N([H])C(=O)N([H])[C@]([H])(C(=O)N([H])[C@]([H])(C(=O)N([H])[H])C([H])([H])C([H])([H])C([H])([H])[H])C([H])([H])C([H])(C([H])([H])[H])C([H])([H])[H])c([H])c([H])c1Br


 31 31  0  0  0  0  0  0  0  0999 V2000
  -18.8071   12.4239  -18.9407 C   0  0  0  0  0  0  0  0  0  0  0  0
  -17.7801   12.0992  -19.9234 N   0  0  0  0  0  0  0  0  0  0  0  0
  -17.7027   12.8457  -21.1221 C   0  0  0  0  0  0  0  0  0  0  0  0
  -18.5239   13.7949  -21.3428 O   0  0  0  0  0  0  0  0  0  0  0  0
  -16.7275   12.5546  -22.0793 N   0  0  0  0  0  0  0  0  0  0  0  0
  -17.1313   11.3403  -19.7368 H   0  0  0  0  0  0  0  0  0  0  0  0
  -16.0815   11.7382  -21.8201 H   0  0  0  0  0  0  0  0  0  0  0  0
  -16.4904   13.1934  -23.3168 C   0  0  0  0  0  0  0  0  0  0  0  0
  -15.4324   14.0091  -23.6106 C   0  0  0  0  0  0  0  0  0  0  0  0
  -15.2872   14.6221  -24.8685 C   0  0  0  0  0  0  0  0  0  0  0  0
  -16.2076   14.4272  -25.8667 C   0  0  0  0  0  0  0  0  0  0  0  0
  -16.0088   15.2613  -27.5758 Br  0  0  0  0  0  0  0  0  0  0  0  0
  -17.2736   13.6114  -25.5868 C   0  0  0  0  0  0  0  0  0  0  0  0
  -17.4163   13.0128  -24.3588 C   0  0  0  0  0  0  0  0  0  0  0  0
  -18.9109   14.9219  -18.7510 N   0  0  0  0  0  0  0  0  0  0  0  0
  -18.3896   13.6664  -18.2910 C   0  0  0  0  0  0  0  0  0  0  0  0
  -17.5577   13.6450  -17.3243 O   0  0  0  0  0  0  0  0  0  0  0  0
  -19.5939   14.9006  -19.5328 H   0  0  0  0  0  0  0  0  0  0  0  0
  -18.4992   16.1698  -18.1478 C   0  0  0  0  0  0  0  0  0  0  0  0
  -19.6319   16.7443  -17.3823 C   0  0  0  0  0  0  0  0  0  0  0  0
  -19.8251   16.3401  -16.0169 N   0  0  0  0  0  0  0  0  0  0  0  0
  -20.4393   17.5630  -17.8434 O   0  0  0  0  0  0  0  0  0  0  0  0
  -19.4811   15.4045  -15.7446 H   0  0  0  0  0  0  0  0  0  0  0  0
  -20.2943   16.9593  -15.3152 H   0  0  0  0  0  0  0  0  0  0  0  0
  -18.0799   17.1507  -19.2010 C   0  0  0  0  0  0  0  0  0  0  0  0
  -16.9049   17.0079  -21.4472 C   0  0  0  0  0  0  0  0  0  0  0  0
  -16.8593   16.8783  -19.9728 C   0  0  0  0  0  0  0  0  0  0  0  0
  -19.1473   11.2617  -18.1040 C   0  0  0  0  0  0  0  0  0  0  0  0
  -19.6673   11.4286  -16.7461 C   0  0  0  0  0  0  0  0  0  0  0  0
  -19.8682   10.0096  -16.1294 C   0  0  0  0  0  0  0  0  0  0  0  0
  -21.0314   12.0480  -16.6227 C   0  0  0  0  0  0  0  0  0  0  0  0
 26 27  1  0  0  0
 27 25  1  0  0  0
 25 19  1  0  0  0
 19 15  1  0  0  0
 15 16  1  0  0  0
 16 17  2  0  0  0
 16  1  1  0  0  0
  1 28  1  0  0  0
 28 29  1  0  0  0
 29 30  1  0  0  0
 29 31  1  0  0  0
  1  2  1  0  0  0
  2  3  1  0  0  0
  3  4  2  0  0  0
  3  5  1  0  0  0
  5  8  1  0  0  0
  8  9  2  0  0  0
  9 10  1  0  0  0
 10 11  2  0  0  0
 11 12  1  0  0  0
 11 13  1  0  0  0
 13 14  2  0  0  0
 19 20  1  0  0  0
 20 21  1  0  0  0
 20 22  2  0  0  0
 14  8  1  0  0  0
 15 18  1  0  0  0
  2  6  1  0  0  0
  5  7  1  0  0  0
 21 23  1  0  0  0
 21 24  1  0  0  0
M  END
> <minimizedAffinity>
-6.80501

> <CNNscore>
0.4003278613

> <CNNaffinity>
6.4339952469

> <CNN_VS>
2.5757076740

> <CNNaffinity_variance>
0.2311491519

$$$$
[H]c1c([H])c(N([H])C(=O)N([H])[C@]([H])(C(=O)N([H])[C@]([H])(C(=O)N([H])[H])C([H])([H])C([H])([H])C([H])([H])[H])C([H])([H])C([H])(C([H])([H])[H])C([H])([H])[H])c([H])c([H])c1Br


 31 31  0  0  0  0  0  0  0  0999 V2000
  -19.6985    8.0760  -14.9029 C   0  0  0  0  0  0  0  0  0  0  0  0
  -18.6208    8.2144  -15.8752 N   0  0  0  0  0  0  0  0  0  0  0  0
  -18.6894    9.2372  -16.8495 C   0  0  0  0  0  0  0  0  0  0  0  0
  -19.6851   10.0321  -16.8786 O   0  0  0  0  0  0  0  0  0  0  0  0
  -17.6695    9.3910  -17.7919 N   0  0  0  0  0  0  0  0  0  0  0  0
  -17.8325    7.5749  -15.8426 H   0  0  0  0  0  0  0  0  0  0  0  0
  -16.8726    8.6782  -17.7032 H   0  0  0  0  0  0  0  0  0  0  0  0
  -17.5595   10.3525  -18.8210 C   0  0  0  0  0  0  0  0  0  0  0  0
  -18.0820   11.6164  -18.7994 C   0  0  0  0  0  0  0  0  0  0  0  0
  -17.9408   12.5029  -19.8827 C   0  0  0  0  0  0  0  0  0  0  0  0
  -17.2661   12.1370  -21.0196 C   0  0  0  0  0  0  0  0  0  0  0  0
  -17.0752   13.3431  -22.4911 Br  0  0  0  0  0  0  0  0  0  0  0  0
  -16.7363   10.8729  -21.0555 C   0  0  0  0  0  0  0  0  0  0  0  0
  -16.8739   10.0066  -19.9984 C   0  0  0  0  0  0  0  0  0  0  0  0
  -18.6783    7.6455  -12.6534 N   0  0  0  0  0  0  0  0  0  0  0  0
  -19.1807    8.5717  -13.6277 C   0  0  0  0  0  0  0  0  0  0  0  0
  -19.1807    9.8208  -13.3692 O   0  0  0  0  0  0  0  0  0  0  0  0
  -18.6837    6.6373  -12.9019 H   0  0  0  0  0  0  0  0  0  0  0  0
  -18.1835    8.1003  -11.3732 C   0  0  0  0  0  0  0  0  0  0  0  0
  -17.2199    7.1087  -10.8370 C   0  0  0  0  0  0  0  0  0  0  0  0
  -17.1103    5.8276  -11.4785 N   0  0  0  0  0  0  0  0  0  0  0  0
  -16.4886    7.3085   -9.8571 O   0  0  0  0  0  0  0  0  0  0  0  0
  -17.9423    5.4733  -11.9787 H   0  0  0  0  0  0  0  0  0  0  0  0
  -16.2282    5.2645  -11.4483 H   0  0  0  0  0  0  0  0  0  0  0  0
  -19.3110    8.2557  -10.3978 C   0  0  0  0  0  0  0  0  0  0  0  0
  -18.3288   10.5046   -9.7464 C   0  0  0  0  0  0  0  0  0  0  0  0
  -19.3275    9.4349   -9.5208 C   0  0  0  0  0  0  0  0  0  0  0  0
  -20.3081    6.7372  -14.9523 C   0  0  0  0  0  0  0  0  0  0  0  0
  -21.7597    6.5648  -15.0235 C   0  0  0  0  0  0  0  0  0  0  0  0
  -22.0763    5.6438  -16.2424 C   0  0  0  0  0  0  0  0  0  0  0  0
  -22.5674    7.7992  -15.3126 C   0  0  0  0  0  0  0  0  0  0  0  0
 26 27  1  0  0  0
 27 25  1  0  0  0
 25 19  1  0  0  0
 19 15  1  0  0  0
 15 16  1  0  0  0
 16 17  2  0  0  0
 16  1  1  0  0  0
  1 28  1  0  0  0
 28 29  1  0  0  0
 29 30  1  0  0  0
 29 31  1  0  0  0
  1  2  1  0  0  0
  2  3  1  0  0  0
  3  4  2  0  0  0
  3  5  1  0  0  0
  5  8  1  0  0  0
  8  9  2  0  0  0
  9 10  1  0  0  0
 10 11  2  0  0  0
 11 12  1  0  0  0
 11 13  1  0  0  0
 13 14  2  0  0  0
 19 20  1  0  0  0
 20 21  1  0  0  0
 20 22  2  0  0  0
 14  8  1  0  0  0
 15 18  1  0  0  0
  2  6  1  0  0  0
  5  7  1  0  0  0
 21 23  1  0  0  0
 21 24  1  0  0  0
M  END
> <minimizedAffinity>
-7.31701

> <CNNscore>
0.3599194288

> <CNNaffinity>
5.2169494629

> <CNN_VS>
1.8776814938

> <CNNaffinity_variance>
0.1432130635

$$$$
[H]c1c([H])c(N([H])C(=O)N([H])[C@]([H])(C(=O)N([H])[C@]([H])(C(=O)N([H])[H])C([H])([H])C([H])([H])C([H])([H])[H])C([H])([H])C([H])(C([H])([H])[H])C([H])([H])[H])c([H])c([H])c1Br


 31 31  0  0  0  0  0  0  0  0999 V2000
  -17.9523   15.4432  -19.5010 C   0  0  0  0  0  0  0  0  0  0  0  0
  -18.5941   14.1398  -19.6242 N   0  0  0  0  0  0  0  0  0  0  0  0
  -18.5658   13.2438  -18.5303 C   0  0  0  0  0  0  0  0  0  0  0  0
  -17.9840   13.5719  -17.4450 O   0  0  0  0  0  0  0  0  0  0  0  0
  -19.1737   11.9892  -18.6230 N   0  0  0  0  0  0  0  0  0  0  0  0
  -19.0544   13.8891  -20.4941 H   0  0  0  0  0  0  0  0  0  0  0  0
  -19.6345   11.7887  -19.5709 H   0  0  0  0  0  0  0  0  0  0  0  0
  -19.2585   10.9774  -17.6409 C   0  0  0  0  0  0  0  0  0  0  0  0
  -18.5233    9.8244  -17.6091 C   0  0  0  0  0  0  0  0  0  0  0  0
  -18.6897    8.8585  -16.5998 C   0  0  0  0  0  0  0  0  0  0  0  0
  -19.6045    9.0310  -15.5924 C   0  0  0  0  0  0  0  0  0  0  0  0
  -19.8297    7.7171  -14.2215 Br  0  0  0  0  0  0  0  0  0  0  0  0
  -20.3487   10.1825  -15.6109 C   0  0  0  0  0  0  0  0  0  0  0  0
  -20.1870   11.1259  -16.5961 C   0  0  0  0  0  0  0  0  0  0  0  0
  -18.8221   17.3787  -18.1654 N   0  0  0  0  0  0  0  0  0  0  0  0
  -19.0119   16.4074  -19.2047 C   0  0  0  0  0  0  0  0  0  0  0  0
  -20.1085   16.3865  -19.8559 O   0  0  0  0  0  0  0  0  0  0  0  0
  -17.9131   17.3734  -17.6635 H   0  0  0  0  0  0  0  0  0  0  0  0
  -19.8590   18.3289  -17.8302 C   0  0  0  0  0  0  0  0  0  0  0  0
  -19.3592   19.7058  -18.0618 C   0  0  0  0  0  0  0  0  0  0  0  0
  -18.1412   19.8886  -18.8020 N   0  0  0  0  0  0  0  0  0  0  0  0
  -19.9265   20.7295  -17.6556 O   0  0  0  0  0  0  0  0  0  0  0  0
  -17.4509   19.1198  -18.7794 H   0  0  0  0  0  0  0  0  0  0  0  0
  -17.9478   20.7612  -19.3471 H   0  0  0  0  0  0  0  0  0  0  0  0
  -20.2524   18.1928  -16.3901 C   0  0  0  0  0  0  0  0  0  0  0  0
  -19.5429   18.6971  -14.0050 C   0  0  0  0  0  0  0  0  0  0  0  0
  -19.1995   18.2235  -15.3653 C   0  0  0  0  0  0  0  0  0  0  0  0
  -17.0403   15.7097  -20.6252 C   0  0  0  0  0  0  0  0  0  0  0  0
  -16.8569   17.0632  -21.1510 C   0  0  0  0  0  0  0  0  0  0  0  0
  -16.2950   16.9445  -22.6016 C   0  0  0  0  0  0  0  0  0  0  0  0
  -15.8315   17.9173  -20.4592 C   0  0  0  0  0  0  0  0  0  0  0  0
 26 27  1  0  0  0
 27 25  1  0  0  0
 25 19  1  0  0  0
 19 15  1  0  0  0
 15 16  1  0  0  0
 16 17  2  0  0  0
 16  1  1  0  0  0
  1 28  1  0  0  0
 28 29  1  0  0  0
 29 30  1  0  0  0
 29 31  1  0  0  0
  1  2  1  0  0  0
  2  3  1  0  0  0
  3  4  2  0  0  0
  3  5  1  0  0  0
  5  8  1  0  0  0
  8  9  2  0  0  0
  9 10  1  0  0  0
 10 11  2  0  0  0
 11 12  1  0  0  0
 11 13  1  0  0  0
 13 14  2  0  0  0
 19 20  1  0  0  0
 20 21  1  0  0  0
 20 22  2  0  0  0
 14  8  1  0  0  0
 15 18  1  0  0  0
  2  6  1  0  0  0
  5  7  1  0  0  0
 21 23  1  0  0  0
 21 24  1  0  0  0
M  END
> <minimizedAffinity>
-6.34727

> <CNNscore>
0.3096210659

> <CNNaffinity>
5.5436954498

> <CNN_VS>
1.7164448500

> <CNNaffinity_variance>
0.0904412866

$$$$
[H]c1c([H])c(N([H])C(=O)N([H])[C@]([H])(C(=O)N([H])[C@]([H])(C(=O)N([H])[H])C([H])([H])C([H])([H])C([H])([H])[H])C([H])([H])C([H])(C([H])([H])[H])C([H])([H])[H])c([H])c([H])c1Br


 31 31  0  0  0  0  0  0  0  0999 V2000
  -17.8304   14.3636  -21.6235 C   0  0  0  0  0  0  0  0  0  0  0  0
  -17.3849   13.6122  -20.4562 N   0  0  0  0  0  0  0  0  0  0  0  0
  -18.3035   12.7857  -19.7682 C   0  0  0  0  0  0  0  0  0  0  0  0
  -19.5116   12.6979  -20.1644 O   0  0  0  0  0  0  0  0  0  0  0  0
  -17.9014   12.0551  -18.6473 N   0  0  0  0  0  0  0  0  0  0  0  0
  -16.4199   13.6902  -20.1494 H   0  0  0  0  0  0  0  0  0  0  0  0
  -16.8721   12.1899  -18.3760 H   0  0  0  0  0  0  0  0  0  0  0  0
  -18.6662   11.1760  -17.8486 C   0  0  0  0  0  0  0  0  0  0  0  0
  -19.7477   11.5192  -17.0847 C   0  0  0  0  0  0  0  0  0  0  0  0
  -20.4391   10.5774  -16.3009 C   0  0  0  0  0  0  0  0  0  0  0  0
  -20.0572    9.2604  -16.2675 C   0  0  0  0  0  0  0  0  0  0  0  0
  -20.9979    7.9817  -15.2015 Br  0  0  0  0  0  0  0  0  0  0  0  0
  -18.9747    8.9014  -17.0287 C   0  0  0  0  0  0  0  0  0  0  0  0
  -18.2989    9.8203  -17.7940 C   0  0  0  0  0  0  0  0  0  0  0  0
  -16.6986   14.8624  -23.8044 N   0  0  0  0  0  0  0  0  0  0  0  0
  -16.9875   13.9417  -22.7422 C   0  0  0  0  0  0  0  0  0  0  0  0
  -16.5144   12.7580  -22.7874 O   0  0  0  0  0  0  0  0  0  0  0  0
  -17.0916   15.8206  -23.7293 H   0  0  0  0  0  0  0  0  0  0  0  0
  -15.8904   14.4693  -24.9371 C   0  0  0  0  0  0  0  0  0  0  0  0
  -14.6910   15.3383  -25.0118 C   0  0  0  0  0  0  0  0  0  0  0  0
  -14.8370   16.6864  -25.4874 N   0  0  0  0  0  0  0  0  0  0  0  0
  -13.5504   14.9793  -24.6879 O   0  0  0  0  0  0  0  0  0  0  0  0
  -15.6168   16.8797  -26.1374 H   0  0  0  0  0  0  0  0  0  0  0  0
  -14.1862   17.4524  -25.1949 H   0  0  0  0  0  0  0  0  0  0  0  0
  -16.6676   14.6065  -26.2115 C   0  0  0  0  0  0  0  0  0  0  0  0
  -17.7360   12.3068  -26.0840 C   0  0  0  0  0  0  0  0  0  0  0  0
  -17.1270   13.3878  -26.8923 C   0  0  0  0  0  0  0  0  0  0  0  0
  -17.9584   15.8003  -21.3301 C   0  0  0  0  0  0  0  0  0  0  0  0
  -17.2531   16.4119  -20.2029 C   0  0  0  0  0  0  0  0  0  0  0  0
  -18.2909   17.2260  -19.3696 C   0  0  0  0  0  0  0  0  0  0  0  0
  -16.2106   17.4399  -20.5434 C   0  0  0  0  0  0  0  0  0  0  0  0
 26 27  1  0  0  0
 27 25  1  0  0  0
 25 19  1  0  0  0
 19 15  1  0  0  0
 15 16  1  0  0  0
 16 17  2  0  0  0
 16  1  1  0  0  0
  1 28  1  0  0  0
 28 29  1  0  0  0
 29 30  1  0  0  0
 29 31  1  0  0  0
  1  2  1  0  0  0
  2  3  1  0  0  0
  3  4  2  0  0  0
  3  5  1  0  0  0
  5  8  1  0  0  0
  8  9  2  0  0  0
  9 10  1  0  0  0
 10 11  2  0  0  0
 11 12  1  0  0  0
 11 13  1  0  0  0
 13 14  2  0  0  0
 19 20  1  0  0  0
 20 21  1  0  0  0
 20 22  2  0  0  0
 14  8  1  0  0  0
 15 18  1  0  0  0
  2  6  1  0  0  0
  5  7  1  0  0  0
 21 23  1  0  0  0
 21 24  1  0  0  0
M  END
> <minimizedAffinity>
-7.45836

> <CNNscore>
0.3015495539

> <CNNaffinity>
6.3711295128

> <CNN_VS>
1.9212112427

> <CNNaffinity_variance>
0.1536520720

$$$$
[H]c1c([H])c(N([H])C(=O)N([H])[C@]([H])(C(=O)N([H])[C@]([H])(C(=O)N([H])[H])C([H])([H])C([H])([H])C([H])([H])[H])C([H])([H])C([H])(C([H])([H])[H])C([H])([H])[H])c([H])c([H])c1Br


 31 31  0  0  0  0  0  0  0  0999 V2000
  -18.5394   11.5909  -19.0771 C   0  0  0  0  0  0  0  0  0  0  0  0
  -17.3986   11.5614  -19.9845 N   0  0  0  0  0  0  0  0  0  0  0  0
  -17.4444   12.3080  -21.1848 C   0  0  0  0  0  0  0  0  0  0  0  0
  -18.4743   13.0012  -21.4722 O   0  0  0  0  0  0  0  0  0  0  0  0
  -16.3641   12.2967  -22.0708 N   0  0  0  0  0  0  0  0  0  0  0  0
  -16.5833   11.0050  -19.7452 H   0  0  0  0  0  0  0  0  0  0  0  0
  -15.5408   11.6838  -21.7584 H   0  0  0  0  0  0  0  0  0  0  0  0
  -16.2246   12.9829  -23.2977 C   0  0  0  0  0  0  0  0  0  0  0  0
  -15.2021   13.8265  -23.6352 C   0  0  0  0  0  0  0  0  0  0  0  0
  -15.1555   14.4860  -24.8770 C   0  0  0  0  0  0  0  0  0  0  0  0
  -16.1415   14.3110  -25.8143 C   0  0  0  0  0  0  0  0  0  0  0  0
  -16.0766   15.2085  -27.5015 Br  0  0  0  0  0  0  0  0  0  0  0  0
  -17.1730   13.4677  -25.4901 C   0  0  0  0  0  0  0  0  0  0  0  0
  -17.2195   12.8236  -24.2778 C   0  0  0  0  0  0  0  0  0  0  0  0
  -19.6998   13.8044  -18.8759 N   0  0  0  0  0  0  0  0  0  0  0  0
  -18.6046   12.9450  -18.5273 C   0  0  0  0  0  0  0  0  0  0  0  0
  -17.6904   13.3732  -17.7475 O   0  0  0  0  0  0  0  0  0  0  0  0
  -20.4312   13.4191  -19.5043 H   0  0  0  0  0  0  0  0  0  0  0  0
  -19.7809   15.1566  -18.3705 C   0  0  0  0  0  0  0  0  0  0  0  0
  -18.5719   15.9100  -18.7830 C   0  0  0  0  0  0  0  0  0  0  0  0
  -17.7555   16.5233  -17.7720 N   0  0  0  0  0  0  0  0  0  0  0  0
  -18.2077   16.0517  -19.9587 O   0  0  0  0  0  0  0  0  0  0  0  0
  -18.2167   16.7936  -16.8875 H   0  0  0  0  0  0  0  0  0  0  0  0
  -16.7325   16.6953  -17.9125 H   0  0  0  0  0  0  0  0  0  0  0  0
  -19.8630   15.1555  -16.8738 C   0  0  0  0  0  0  0  0  0  0  0  0
  -22.0189   14.5091  -15.6986 C   0  0  0  0  0  0  0  0  0  0  0  0
  -21.1241   15.5593  -16.2363 C   0  0  0  0  0  0  0  0  0  0  0  0
  -18.5293   10.4461  -18.1520 C   0  0  0  0  0  0  0  0  0  0  0  0
  -19.1613   10.5276  -16.8344 C   0  0  0  0  0  0  0  0  0  0  0  0
  -19.2988    9.0775  -16.2755 C   0  0  0  0  0  0  0  0  0  0  0  0
  -20.5742   11.0396  -16.7998 C   0  0  0  0  0  0  0  0  0  0  0  0
 26 27  1  0  0  0
 27 25  1  0  0  0
 25 19  1  0  0  0
 19 15  1  0  0  0
 15 16  1  0  0  0
 16 17  2  0  0  0
 16  1  1  0  0  0
  1 28  1  0  0  0
 28 29  1  0  0  0
 29 30  1  0  0  0
 29 31  1  0  0  0
  1  2  1  0  0  0
  2  3  1  0  0  0
  3  4  2  0  0  0
  3  5  1  0  0  0
  5  8  1  0  0  0
  8  9  2  0  0  0
  9 10  1  0  0  0
 10 11  2  0  0  0
 11 12  1  0  0  0
 11 13  1  0  0  0
 13 14  2  0  0  0
 19 20  1  0  0  0
 20 21  1  0  0  0
 20 22  2  0  0  0
 14  8  1  0  0  0
 15 18  1  0  0  0
  2  6  1  0  0  0
  5  7  1  0  0  0
 21 23  1  0  0  0
 21 24  1  0  0  0
M  END
> <minimizedAffinity>
-6.46819

> <CNNscore>
0.2868800163

> <CNNaffinity>
6.1724419594

> <CNN_VS>
1.7707502842

> <CNNaffinity_variance>
0.2628068626

$$$$
[H]c1c([H])c(N([H])C(=O)N([H])[C@]([H])(C(=O)N([H])[C@]([H])(C(=O)N([H])[H])C([H])([H])C([H])([H])C([H])([H])[H])C([H])([H])C([H])(C([H])([H])[H])C([H])([H])[H])c([H])c([H])c1Br


 31 31  0  0  0  0  0  0  0  0999 V2000
  -17.0107   14.2062  -22.9623 C   0  0  0  0  0  0  0  0  0  0  0  0
  -16.5475   13.4541  -21.8022 N   0  0  0  0  0  0  0  0  0  0  0  0
  -17.4936   12.8641  -20.9322 C   0  0  0  0  0  0  0  0  0  0  0  0
  -18.7414   12.9884  -21.1591 O   0  0  0  0  0  0  0  0  0  0  0  0
  -17.0754   12.1380  -19.8141 N   0  0  0  0  0  0  0  0  0  0  0  0
  -15.5506   13.3619  -21.6312 H   0  0  0  0  0  0  0  0  0  0  0  0
  -16.0108   12.0869  -19.6914 H   0  0  0  0  0  0  0  0  0  0  0  0
  -17.8656   11.4733  -18.8501 C   0  0  0  0  0  0  0  0  0  0  0  0
  -17.7861   10.1481  -18.5207 C   0  0  0  0  0  0  0  0  0  0  0  0
  -18.6311    9.5641  -17.5594 C   0  0  0  0  0  0  0  0  0  0  0  0
  -19.5812   10.3039  -16.9024 C   0  0  0  0  0  0  0  0  0  0  0  0
  -20.7291    9.5085  -15.5962 Br  0  0  0  0  0  0  0  0  0  0  0  0
  -19.6724   11.6342  -17.2220 C   0  0  0  0  0  0  0  0  0  0  0  0
  -18.8479   12.2050  -18.1606 C   0  0  0  0  0  0  0  0  0  0  0  0
  -17.3603   15.9971  -21.2427 N   0  0  0  0  0  0  0  0  0  0  0  0
  -17.7779   15.3411  -22.4488 C   0  0  0  0  0  0  0  0  0  0  0  0
  -18.8219   15.7473  -23.0588 O   0  0  0  0  0  0  0  0  0  0  0  0
  -16.5001   15.6465  -20.7786 H   0  0  0  0  0  0  0  0  0  0  0  0
  -18.1106   17.1048  -20.6945 C   0  0  0  0  0  0  0  0  0  0  0  0
  -17.1712   18.1527  -20.2269 C   0  0  0  0  0  0  0  0  0  0  0  0
  -17.6868   19.2661  -19.4791 N   0  0  0  0  0  0  0  0  0  0  0  0
  -15.9505   18.1376  -20.4384 O   0  0  0  0  0  0  0  0  0  0  0  0
  -18.6704   19.5363  -19.6455 H   0  0  0  0  0  0  0  0  0  0  0  0
  -17.1003   19.7919  -18.7895 H   0  0  0  0  0  0  0  0  0  0  0  0
  -18.9467   16.6524  -19.5355 C   0  0  0  0  0  0  0  0  0  0  0  0
  -18.6164   15.8955  -17.1345 C   0  0  0  0  0  0  0  0  0  0  0  0
  -18.3701   15.6953  -18.5809 C   0  0  0  0  0  0  0  0  0  0  0  0
  -17.6260   13.3280  -23.9706 C   0  0  0  0  0  0  0  0  0  0  0  0
  -17.6124   13.6762  -25.3921 C   0  0  0  0  0  0  0  0  0  0  0  0
  -17.5530   12.3504  -26.2124 C   0  0  0  0  0  0  0  0  0  0  0  0
  -16.4111   14.4337  -25.8847 C   0  0  0  0  0  0  0  0  0  0  0  0
 26 27  1  0  0  0
 27 25  1  0  0  0
 25 19  1  0  0  0
 19 15  1  0  0  0
 15 16  1  0  0  0
 16 17  2  0  0  0
 16  1  1  0  0  0
  1 28  1  0  0  0
 28 29  1  0  0  0
 29 30  1  0  0  0
 29 31  1  0  0  0
  1  2  1  0  0  0
  2  3  1  0  0  0
  3  4  2  0  0  0
  3  5  1  0  0  0
  5  8  1  0  0  0
  8  9  2  0  0  0
  9 10  1  0  0  0
 10 11  2  0  0  0
 11 12  1  0  0  0
 11 13  1  0  0  0
 13 14  2  0  0  0
 19 20  1  0  0  0
 20 21  1  0  0  0
 20 22  2  0  0  0
 14  8  1  0  0  0
 15 18  1  0  0  0
  2  6  1  0  0  0
  5  7  1  0  0  0
 21 23  1  0  0  0
 21 24  1  0  0  0
M  END
> <minimizedAffinity>
-6.98940

> <CNNscore>
0.2791701257

> <CNNaffinity>
6.2210617065

> <CNN_VS>
1.7367346287

> <CNNaffinity_variance>
0.0846355557

$$$$
[H]c1c([H])c(N([H])C(=O)N([H])[C@]([H])(C(=O)N([H])[C@]([H])(C(=O)N([H])[H])C([H])([H])C([H])([H])C([H])([H])[H])C([H])([H])C([H])(C([H])([H])[H])C([H])([H])[H])c([H])c([H])c1Br


 31 31  0  0  0  0  0  0  0  0999 V2000
  -17.8746   13.5666  -21.3644 C   0  0  0  0  0  0  0  0  0  0  0  0
  -19.0383   14.1673  -20.7236 N   0  0  0  0  0  0  0  0  0  0  0  0
  -18.8730   14.8956  -19.5226 C   0  0  0  0  0  0  0  0  0  0  0  0
  -17.7165   15.0263  -19.0035 O   0  0  0  0  0  0  0  0  0  0  0  0
  -19.9721   15.4812  -18.8893 N   0  0  0  0  0  0  0  0  0  0  0  0
  -19.9551   14.0562  -21.1462 H   0  0  0  0  0  0  0  0  0  0  0  0
  -20.9089   15.3187  -19.3864 H   0  0  0  0  0  0  0  0  0  0  0  0
  -19.9991   16.2487  -17.7036 C   0  0  0  0  0  0  0  0  0  0  0  0
  -19.1747   17.2992  -17.4071 C   0  0  0  0  0  0  0  0  0  0  0  0
  -19.2593   17.9955  -16.1875 C   0  0  0  0  0  0  0  0  0  0  0  0
  -20.1809   17.6500  -15.2322 C   0  0  0  0  0  0  0  0  0  0  0  0
  -20.2944   18.5973  -13.5751 Br  0  0  0  0  0  0  0  0  0  0  0  0
  -21.0146   16.5989  -15.5156 C   0  0  0  0  0  0  0  0  0  0  0  0
  -20.9325   15.9184  -16.7059 C   0  0  0  0  0  0  0  0  0  0  0  0
  -16.9936   13.4883  -23.7105 N   0  0  0  0  0  0  0  0  0  0  0  0
  -17.7968   14.1329  -22.7111 C   0  0  0  0  0  0  0  0  0  0  0  0
  -18.4293   15.2014  -23.0028 O   0  0  0  0  0  0  0  0  0  0  0  0
  -16.5013   12.6148  -23.4409 H   0  0  0  0  0  0  0  0  0  0  0  0
  -16.8747   14.0361  -25.0434 C   0  0  0  0  0  0  0  0  0  0  0  0
  -17.4355   13.0744  -26.0231 C   0  0  0  0  0  0  0  0  0  0  0  0
  -17.0414   13.1754  -27.4012 N   0  0  0  0  0  0  0  0  0  0  0  0
  -18.2347   12.1729  -25.7341 O   0  0  0  0  0  0  0  0  0  0  0  0
  -16.7522   14.1057  -27.7463 H   0  0  0  0  0  0  0  0  0  0  0  0
  -17.0423   12.3474  -28.0417 H   0  0  0  0  0  0  0  0  0  0  0  0
  -15.4366   14.2890  -25.3824 C   0  0  0  0  0  0  0  0  0  0  0  0
  -15.8056   16.7159  -24.7341 C   0  0  0  0  0  0  0  0  0  0  0  0
  -14.9072   15.6524  -25.2385 C   0  0  0  0  0  0  0  0  0  0  0  0
  -17.8595   12.1034  -21.2048 C   0  0  0  0  0  0  0  0  0  0  0  0
  -17.0758   11.4618  -20.1484 C   0  0  0  0  0  0  0  0  0  0  0  0
  -16.7015   10.0260  -20.6306 C   0  0  0  0  0  0  0  0  0  0  0  0
  -17.7857   11.2082  -18.8478 C   0  0  0  0  0  0  0  0  0  0  0  0
 26 27  1  0  0  0
 27 25  1  0  0  0
 25 19  1  0  0  0
 19 15  1  0  0  0
 15 16  1  0  0  0
 16 17  2  0  0  0
 16  1  1  0  0  0
  1 28  1  0  0  0
 28 29  1  0  0  0
 29 30  1  0  0  0
 29 31  1  0  0  0
  1  2  1  0  0  0
  2  3  1  0  0  0
  3  4  2  0  0  0
  3  5  1  0  0  0
  5  8  1  0  0  0
  8  9  2  0  0  0
  9 10  1  0  0  0
 10 11  2  0  0  0
 11 12  1  0  0  0
 11 13  1  0  0  0
 13 14  2  0  0  0
 19 20  1  0  0  0
 20 21  1  0  0  0
 20 22  2  0  0  0
 14  8  1  0  0  0
 15 18  1  0  0  0
  2  6  1  0  0  0
  5  7  1  0  0  0
 21 23  1  0  0  0
 21 24  1  0  0  0
M  END
> <minimizedAffinity>
-6.71808

> <CNNscore>
0.2789638937

> <CNNaffinity>
5.9595007896

> <CNN_VS>
1.6624855995

> <CNNaffinity_variance>
0.1390598714

$$$$
[H]OC(C([H])([H])[H])(C([H])([H])[H])C([H])([H])C(=O)N([H])C([H])([H])C([H])([H])c1c([H])c([H])c2nc([H])nc(N([H])c3c([H])c([H])c(Oc4c([H])c([H])c([H])c(C(F)(F)F)c4[H])c(Cl)c3[H])c2c1[H]


 42 45  0  0  0  0  0  0  0  0999 V2000
  -17.2156   12.9660  -23.9892 C   0  0  0  0  0  0  0  0  0  0  0  0
  -17.6514   12.2071  -25.0383 C   0  0  0  0  0  0  0  0  0  0  0  0
  -17.4546   12.6135  -26.3217 C   0  0  0  0  0  0  0  0  0  0  0  0
  -16.8114   13.8097  -26.6092 C   0  0  0  0  0  0  0  0  0  0  0  0
  -16.6669   14.1516  -27.9055 N   0  0  0  0  0  0  0  0  0  0  0  0
  -16.0658   15.3130  -28.2005 C   0  0  0  0  0  0  0  0  0  0  0  0
  -15.6513   16.0550  -27.1808 N   0  0  0  0  0  0  0  0  0  0  0  0
  -15.7537   15.7918  -25.8876 C   0  0  0  0  0  0  0  0  0  0  0  0
  -16.3739   14.5814  -25.5544 C   0  0  0  0  0  0  0  0  0  0  0  0
  -16.5594   14.1861  -24.2699 C   0  0  0  0  0  0  0  0  0  0  0  0
  -15.3405   16.6848  -24.8826 N   0  0  0  0  0  0  0  0  0  0  0  0
  -14.3416   16.9979  -24.7776 H   0  0  0  0  0  0  0  0  0  0  0  0
  -16.2339   17.2295  -23.9229 C   0  0  0  0  0  0  0  0  0  0  0  0
  -17.3799   17.9020  -24.2139 C   0  0  0  0  0  0  0  0  0  0  0  0
  -18.2741   18.3174  -23.2229 C   0  0  0  0  0  0  0  0  0  0  0  0
  -17.9998   18.0443  -21.8710 C   0  0  0  0  0  0  0  0  0  0  0  0
  -16.8428   17.3694  -21.5565 C   0  0  0  0  0  0  0  0  0  0  0  0
  -16.4160   17.0093  -19.8724 Cl  0  0  0  0  0  0  0  0  0  0  0  0
  -15.9991   16.9821  -22.5730 C   0  0  0  0  0  0  0  0  0  0  0  0
  -18.9031   18.4633  -20.9701 O   0  0  0  0  0  0  0  0  0  0  0  0
  -20.0625   18.0263  -20.4506 C   0  0  0  0  0  0  0  0  0  0  0  0
  -20.0207   17.2706  -19.2672 C   0  0  0  0  0  0  0  0  0  0  0  0
  -21.1872   16.8177  -18.7192 C   0  0  0  0  0  0  0  0  0  0  0  0
  -22.3872   17.1057  -19.3319 C   0  0  0  0  0  0  0  0  0  0  0  0
  -22.4627   17.8413  -20.4927 C   0  0  0  0  0  0  0  0  0  0  0  0
  -21.2991   18.3006  -21.0479 C   0  0  0  0  0  0  0  0  0  0  0  0
  -23.7971   18.0867  -21.1015 C   0  0  0  0  0  0  0  0  0  0  0  0
  -24.7470   18.3023  -20.0841 F   0  0  0  0  0  0  0  0  0  0  0  0
  -23.7230   19.2677  -21.8108 F   0  0  0  0  0  0  0  0  0  0  0  0
  -24.1778   17.0779  -21.9399 F   0  0  0  0  0  0  0  0  0  0  0  0
  -17.4486   12.5949  -22.6127 C   0  0  0  0  0  0  0  0  0  0  0  0
  -16.4968   11.5875  -22.0002 C   0  0  0  0  0  0  0  0  0  0  0  0
  -16.8695   11.2172  -19.3004 C   0  0  0  0  0  0  0  0  0  0  0  0
  -15.9883   11.1500  -18.4210 O   0  0  0  0  0  0  0  0  0  0  0  0
  -16.6849   11.4022  -20.6496 N   0  0  0  0  0  0  0  0  0  0  0  0
  -15.3500   11.6032  -20.4329 H   0  0  0  0  0  0  0  0  0  0  0  0
  -18.2788   11.0729  -18.7746 C   0  0  0  0  0  0  0  0  0  0  0  0
  -19.9163   12.1031  -17.2548 C   0  0  0  0  0  0  0  0  0  0  0  0
  -18.9464   12.3195  -18.3741 C   0  0  0  0  0  0  0  0  0  0  0  0
  -19.5447   13.0992  -19.5333 C   0  0  0  0  0  0  0  0  0  0  0  0
  -17.9050   13.1581  -17.8383 O   0  0  0  0  0  0  0  0  0  0  0  0
  -17.1179   13.0082  -18.4283 H   0  0  0  0  0  0  0  0  0  0  0  0
 38 39  1  0  0  0
 39 40  1  0  0  0
 39 41  1  0  0  0
 39 37  1  0  0  0
 37 33  1  0  0  0
 33 34  2  0  0  0
 33 35  1  0  0  0
 35 32  1  0  0  0
 32 31  1  0  0  0
 31  1  1  0  0  0
  1  2  2  0  0  0
  2  3  1  0  0  0
  3  4  2  0  0  0
  4  5  1  0  0  0
  5  6  2  0  0  0
  6  7  1  0  0  0
  7  8  2  0  0  0
  8 11  1  0  0  0
 11 13  1  0  0  0
 13 14  2  0  0  0
 14 15  1  0  0  0
 15 16  2  0  0  0
 16 20  1  0  0  0
 20 21  1  0  0  0
 21 22  2  0  0  0
 22 23  1  0  0  0
 23 24  2  0  0  0
 24 25  1  0  0  0
 25 27  1  0  0  0
 27 28  1  0  0  0
 27 29  1  0  0  0
 27 30  1  0  0  0
 25 26  2  0  0  0
 16 17  1  0  0  0
 17 18  1  0  0  0
 17 19  2  0  0  0
  8  9  1  0  0  0
  9 10  2  0  0  0
 10  1  1  0  0  0
  9  4  1  0  0  0
 19 13  1  0  0  0
 26 21  1  0  0  0
 41 42  1  0  0  0
 35 36  1  0  0  0
 11 12  1  0  0  0
M  END
> <minimizedAffinity>
-8.80203

> <CNNscore>
0.2638296783

> <CNNaffinity>
7.6095480919

> <CNN_VS>
2.0076246262

> <CNNaffinity_variance>
0.3439624906

$$$$
[H]OC(C([H])([H])[H])(C([H])([H])[H])C([H])([H])C(=O)N([H])C([H])([H])C([H])([H])c1c([H])c([H])c2nc([H])nc(N([H])c3c([H])c([H])c(Oc4c([H])c([H])c([H])c(C(F)(F)F)c4[H])c(Cl)c3[H])c2c1[H]


 42 45  0  0  0  0  0  0  0  0999 V2000
  -17.9646   12.0588  -19.9983 C   0  0  0  0  0  0  0  0  0  0  0  0
  -17.1238   10.9970  -19.8190 C   0  0  0  0  0  0  0  0  0  0  0  0
  -17.2949   10.1410  -18.7755 C   0  0  0  0  0  0  0  0  0  0  0  0
  -18.3216   10.3177  -17.8580 C   0  0  0  0  0  0  0  0  0  0  0  0
  -18.4176    9.4361  -16.8423 N   0  0  0  0  0  0  0  0  0  0  0  0
  -19.3912    9.6035  -15.9361 C   0  0  0  0  0  0  0  0  0  0  0  0
  -20.2019   10.6409  -16.1048 N   0  0  0  0  0  0  0  0  0  0  0  0
  -20.1755   11.5465  -17.0698 C   0  0  0  0  0  0  0  0  0  0  0  0
  -19.1698   11.3900  -18.0316 C   0  0  0  0  0  0  0  0  0  0  0  0
  -19.0136   12.2488  -19.0702 C   0  0  0  0  0  0  0  0  0  0  0  0
  -21.0440   12.6518  -17.1157 N   0  0  0  0  0  0  0  0  0  0  0  0
  -21.9807   12.6575  -16.6366 H   0  0  0  0  0  0  0  0  0  0  0  0
  -20.7332   13.8457  -17.8186 C   0  0  0  0  0  0  0  0  0  0  0  0
  -21.1565   14.1463  -19.0757 C   0  0  0  0  0  0  0  0  0  0  0  0
  -20.9081   15.3867  -19.6707 C   0  0  0  0  0  0  0  0  0  0  0  0
  -20.1957   16.3730  -18.9657 C   0  0  0  0  0  0  0  0  0  0  0  0
  -19.7548   16.0857  -17.6945 C   0  0  0  0  0  0  0  0  0  0  0  0
  -18.8290   17.2699  -16.7517 Cl  0  0  0  0  0  0  0  0  0  0  0  0
  -20.0295   14.8486  -17.1569 C   0  0  0  0  0  0  0  0  0  0  0  0
  -19.9982   17.5449  -19.5911 O   0  0  0  0  0  0  0  0  0  0  0  0
  -19.9999   18.0093  -20.8518 C   0  0  0  0  0  0  0  0  0  0  0  0
  -18.7778   18.4094  -21.4172 C   0  0  0  0  0  0  0  0  0  0  0  0
  -18.7548   18.8825  -22.6986 C   0  0  0  0  0  0  0  0  0  0  0  0
  -19.9266   18.9624  -23.4188 C   0  0  0  0  0  0  0  0  0  0  0  0
  -21.1403   18.5808  -22.8938 C   0  0  0  0  0  0  0  0  0  0  0  0
  -21.1727   18.1040  -21.6113 C   0  0  0  0  0  0  0  0  0  0  0  0
  -22.3610   18.7218  -23.7315 C   0  0  0  0  0  0  0  0  0  0  0  0
  -22.4123   20.0200  -24.2751 F   0  0  0  0  0  0  0  0  0  0  0  0
  -22.2340   17.8636  -24.8043 F   0  0  0  0  0  0  0  0  0  0  0  0
  -23.5006   18.4194  -23.0420 F   0  0  0  0  0  0  0  0  0  0  0  0
  -17.7874   13.0185  -21.0634 C   0  0  0  0  0  0  0  0  0  0  0  0
  -16.9795   12.5724  -22.2652 C   0  0  0  0  0  0  0  0  0  0  0  0
  -17.5917   13.9428  -24.5700 C   0  0  0  0  0  0  0  0  0  0  0  0
  -18.6087   14.6295  -24.7901 O   0  0  0  0  0  0  0  0  0  0  0  0
  -17.2843   13.2576  -23.4190 N   0  0  0  0  0  0  0  0  0  0  0  0
  -18.3731   13.8124  -22.8057 H   0  0  0  0  0  0  0  0  0  0  0  0
  -16.6212   13.8884  -25.7270 C   0  0  0  0  0  0  0  0  0  0  0  0
  -15.6496   15.5083  -27.3034 C   0  0  0  0  0  0  0  0  0  0  0  0
  -15.7375   15.0528  -25.8803 C   0  0  0  0  0  0  0  0  0  0  0  0
  -14.3755   14.8839  -25.2277 C   0  0  0  0  0  0  0  0  0  0  0  0
  -16.3825   16.1219  -25.1620 O   0  0  0  0  0  0  0  0  0  0  0  0
  -16.7568   15.6990  -24.3428 H   0  0  0  0  0  0  0  0  0  0  0  0
 38 39  1  0  0  0
 39 40  1  0  0  0
 39 41  1  0  0  0
 39 37  1  0  0  0
 37 33  1  0  0  0
 33 34  2  0  0  0
 33 35  1  0  0  0
 35 32  1  0  0  0
 32 31  1  0  0  0
 31  1  1  0  0  0
  1  2  2  0  0  0
  2  3  1  0  0  0
  3  4  2  0  0  0
  4  5  1  0  0  0
  5  6  2  0  0  0
  6  7  1  0  0  0
  7  8  2  0  0  0
  8 11  1  0  0  0
 11 13  1  0  0  0
 13 14  2  0  0  0
 14 15  1  0  0  0
 15 16  2  0  0  0
 16 20  1  0  0  0
 20 21  1  0  0  0
 21 22  2  0  0  0
 22 23  1  0  0  0
 23 24  2  0  0  0
 24 25  1  0  0  0
 25 27  1  0  0  0
 27 28  1  0  0  0
 27 29  1  0  0  0
 27 30  1  0  0  0
 25 26  2  0  0  0
 16 17  1  0  0  0
 17 18  1  0  0  0
 17 19  2  0  0  0
  8  9  1  0  0  0
  9 10  2  0  0  0
 10  1  1  0  0  0
  9  4  1  0  0  0
 19 13  1  0  0  0
 26 21  1  0  0  0
 41 42  1  0  0  0
 35 36  1  0  0  0
 11 12  1  0  0  0
M  END
> <minimizedAffinity>
-9.19152

> <CNNscore>
0.1559075117

> <CNNaffinity>
7.2124810219

> <CNN_VS>
1.1244800091

> <CNNaffinity_variance>
0.5472058654

$$$$
[H]OC(C([H])([H])[H])(C([H])([H])[H])C([H])([H])C(=O)N([H])C([H])([H])C([H])([H])c1c([H])c([H])c2nc([H])nc(N([H])c3c([H])c([H])c(Oc4c([H])c([H])c([H])c(C(F)(F)F)c4[H])c(Cl)c3[H])c2c1[H]


 42 45  0  0  0  0  0  0  0  0999 V2000
  -17.0332   12.0419  -21.5104 C   0  0  0  0  0  0  0  0  0  0  0  0
  -16.2946   10.9456  -21.1655 C   0  0  0  0  0  0  0  0  0  0  0  0
  -16.5679   10.2509  -20.0281 C   0  0  0  0  0  0  0  0  0  0  0  0
  -17.5985   10.6320  -19.1797 C   0  0  0  0  0  0  0  0  0  0  0  0
  -17.7986    9.9021  -18.0639 N   0  0  0  0  0  0  0  0  0  0  0  0
  -18.7769   10.2680  -17.2235 C   0  0  0  0  0  0  0  0  0  0  0  0
  -19.4880   11.3391  -17.5538 N   0  0  0  0  0  0  0  0  0  0  0  0
  -19.3564   12.1052  -18.6252 C   0  0  0  0  0  0  0  0  0  0  0  0
  -18.3438   11.7400  -19.5207 C   0  0  0  0  0  0  0  0  0  0  0  0
  -18.0852   12.4394  -20.6542 C   0  0  0  0  0  0  0  0  0  0  0  0
  -20.1223   13.2643  -18.8446 N   0  0  0  0  0  0  0  0  0  0  0  0
  -20.8728   13.3175  -19.5800 H   0  0  0  0  0  0  0  0  0  0  0  0
  -19.9402   14.4590  -18.0993 C   0  0  0  0  0  0  0  0  0  0  0  0
  -18.7457   14.9211  -17.6412 C   0  0  0  0  0  0  0  0  0  0  0  0
  -18.6176   16.1612  -17.0088 C   0  0  0  0  0  0  0  0  0  0  0  0
  -19.7490   16.9760  -16.8263 C   0  0  0  0  0  0  0  0  0  0  0  0
  -20.9671   16.5235  -17.2785 C   0  0  0  0  0  0  0  0  0  0  0  0
  -22.4434   17.4838  -17.0633 Cl  0  0  0  0  0  0  0  0  0  0  0  0
  -21.0349   15.2951  -17.8961 C   0  0  0  0  0  0  0  0  0  0  0  0
  -19.5560   18.1581  -16.2191 O   0  0  0  0  0  0  0  0  0  0  0  0
  -20.0363   18.8142  -15.1496 C   0  0  0  0  0  0  0  0  0  0  0  0
  -20.2188   18.0989  -13.9544 C   0  0  0  0  0  0  0  0  0  0  0  0
  -20.7036   18.7457  -12.8532 C   0  0  0  0  0  0  0  0  0  0  0  0
  -21.0077   20.0875  -12.9274 C   0  0  0  0  0  0  0  0  0  0  0  0
  -20.8427   20.8165  -14.0830 C   0  0  0  0  0  0  0  0  0  0  0  0
  -20.3559   20.1771  -15.1909 C   0  0  0  0  0  0  0  0  0  0  0  0
  -21.2179   22.2555  -14.0837 C   0  0  0  0  0  0  0  0  0  0  0  0
  -22.5416   22.3973  -14.5434 F   0  0  0  0  0  0  0  0  0  0  0  0
  -21.2206   22.6882  -12.7737 F   0  0  0  0  0  0  0  0  0  0  0  0
  -20.3482   23.0176  -14.8106 F   0  0  0  0  0  0  0  0  0  0  0  0
  -16.7442   12.8357  -22.6823 C   0  0  0  0  0  0  0  0  0  0  0  0
  -17.6131   14.0539  -22.9207 C   0  0  0  0  0  0  0  0  0  0  0  0
  -16.1823   16.3799  -23.2488 C   0  0  0  0  0  0  0  0  0  0  0  0
  -15.7874   17.1534  -22.3544 O   0  0  0  0  0  0  0  0  0  0  0  0
  -16.8972   15.2174  -23.0865 N   0  0  0  0  0  0  0  0  0  0  0  0
  -16.7566   15.3278  -21.7310 H   0  0  0  0  0  0  0  0  0  0  0  0
  -15.8097   16.8123  -24.6479 C   0  0  0  0  0  0  0  0  0  0  0  0
  -15.8527   15.0870  -26.4013 C   0  0  0  0  0  0  0  0  0  0  0  0
  -15.0138   15.8531  -25.4269 C   0  0  0  0  0  0  0  0  0  0  0  0
  -14.1240   14.9582  -24.5802 C   0  0  0  0  0  0  0  0  0  0  0  0
  -14.1169   16.6533  -26.2208 O   0  0  0  0  0  0  0  0  0  0  0  0
  -13.8299   17.3959  -25.6240 H   0  0  0  0  0  0  0  0  0  0  0  0
 38 39  1  0  0  0
 39 40  1  0  0  0
 39 41  1  0  0  0
 39 37  1  0  0  0
 37 33  1  0  0  0
 33 34  2  0  0  0
 33 35  1  0  0  0
 35 32  1  0  0  0
 32 31  1  0  0  0
 31  1  1  0  0  0
  1  2  2  0  0  0
  2  3  1  0  0  0
  3  4  2  0  0  0
  4  5  1  0  0  0
  5  6  2  0  0  0
  6  7  1  0  0  0
  7  8  2  0  0  0
  8 11  1  0  0  0
 11 13  1  0  0  0
 13 14  2  0  0  0
 14 15  1  0  0  0
 15 16  2  0  0  0
 16 20  1  0  0  0
 20 21  1  0  0  0
 21 22  2  0  0  0
 22 23  1  0  0  0
 23 24  2  0  0  0
 24 25  1  0  0  0
 25 27  1  0  0  0
 27 28  1  0  0  0
 27 29  1  0  0  0
 27 30  1  0  0  0
 25 26  2  0  0  0
 16 17  1  0  0  0
 17 18  1  0  0  0
 17 19  2  0  0  0
  8  9  1  0  0  0
  9 10  2  0  0  0
 10  1  1  0  0  0
  9  4  1  0  0  0
 19 13  1  0  0  0
 26 21  1  0  0  0
 41 42  1  0  0  0
 35 36  1  0  0  0
 11 12  1  0  0  0
M  END
> <minimizedAffinity>
-8.69085

> <CNNscore>
0.1522905827

> <CNNaffinity>
6.9158425331

> <CNN_VS>
1.0532176495

> <CNNaffinity_variance>
0.0997187346

$$$$
[H]OC(C([H])([H])[H])(C([H])([H])[H])C([H])([H])C(=O)N([H])C([H])([H])C([H])([H])c1c([H])c([H])c2nc([H])nc(N([H])c3c([H])c([H])c(Oc4c([H])c([H])c([H])c(C(F)(F)F)c4[H])c(Cl)c3[H])c2c1[H]


 42 45  0  0  0  0  0  0  0  0999 V2000
  -17.3199   13.0380  -24.0741 C   0  0  0  0  0  0  0  0  0  0  0  0
  -17.7334   12.2821  -25.1343 C   0  0  0  0  0  0  0  0  0  0  0  0
  -17.4713   12.6705  -26.4115 C   0  0  0  0  0  0  0  0  0  0  0  0
  -16.7822   13.8449  -26.6817 C   0  0  0  0  0  0  0  0  0  0  0  0
  -16.5737   14.1703  -27.9734 N   0  0  0  0  0  0  0  0  0  0  0  0
  -15.9273   15.3111  -28.2525 C   0  0  0  0  0  0  0  0  0  0  0  0
  -15.5344   16.0505  -27.2225 N   0  0  0  0  0  0  0  0  0  0  0  0
  -15.6983   15.8025  -25.9326 C   0  0  0  0  0  0  0  0  0  0  0  0
  -16.3669   14.6136  -25.6158 C   0  0  0  0  0  0  0  0  0  0  0  0
  -16.6174   14.2361  -24.3370 C   0  0  0  0  0  0  0  0  0  0  0  0
  -15.3018   16.6928  -24.9185 N   0  0  0  0  0  0  0  0  0  0  0  0
  -14.3116   17.0345  -24.8188 H   0  0  0  0  0  0  0  0  0  0  0  0
  -16.2011   17.1961  -23.9419 C   0  0  0  0  0  0  0  0  0  0  0  0
  -17.3922   17.7956  -24.2102 C   0  0  0  0  0  0  0  0  0  0  0  0
  -18.2838   18.1702  -23.2007 C   0  0  0  0  0  0  0  0  0  0  0  0
  -17.9590   17.9316  -21.8535 C   0  0  0  0  0  0  0  0  0  0  0  0
  -16.7561   17.3308  -21.5620 C   0  0  0  0  0  0  0  0  0  0  0  0
  -16.2655   17.0188  -19.8856 Cl  0  0  0  0  0  0  0  0  0  0  0  0
  -15.9173   16.9809  -22.5958 C   0  0  0  0  0  0  0  0  0  0  0  0
  -18.8623   18.3081  -20.9339 O   0  0  0  0  0  0  0  0  0  0  0  0
  -19.7728   17.7212  -20.1393 C   0  0  0  0  0  0  0  0  0  0  0  0
  -20.9617   17.2504  -20.7210 C   0  0  0  0  0  0  0  0  0  0  0  0
  -21.9010   16.6480  -19.9329 C   0  0  0  0  0  0  0  0  0  0  0  0
  -21.6726   16.5103  -18.5812 C   0  0  0  0  0  0  0  0  0  0  0  0
  -20.5200   16.9623  -17.9799 C   0  0  0  0  0  0  0  0  0  0  0  0
  -19.5727   17.5657  -18.7620 C   0  0  0  0  0  0  0  0  0  0  0  0
  -20.3637   16.7947  -16.5106 C   0  0  0  0  0  0  0  0  0  0  0  0
  -19.1069   16.2230  -16.2325 F   0  0  0  0  0  0  0  0  0  0  0  0
  -20.3439   18.0531  -15.9453 F   0  0  0  0  0  0  0  0  0  0  0  0
  -21.3804   16.0671  -15.9607 F   0  0  0  0  0  0  0  0  0  0  0  0
  -17.6210   12.6869  -22.7056 C   0  0  0  0  0  0  0  0  0  0  0  0
  -16.6495   11.7609  -22.0022 C   0  0  0  0  0  0  0  0  0  0  0  0
  -17.1074   11.5263  -19.3003 C   0  0  0  0  0  0  0  0  0  0  0  0
  -16.2703   11.2620  -18.4150 O   0  0  0  0  0  0  0  0  0  0  0  0
  -16.8802   11.6439  -20.6506 N   0  0  0  0  0  0  0  0  0  0  0  0
  -15.5365   11.5229  -20.4286 H   0  0  0  0  0  0  0  0  0  0  0  0
  -18.5118   11.7299  -18.7812 C   0  0  0  0  0  0  0  0  0  0  0  0
  -20.2484   13.1948  -17.8371 C   0  0  0  0  0  0  0  0  0  0  0  0
  -18.8548   13.1001  -18.3750 C   0  0  0  0  0  0  0  0  0  0  0  0
  -18.5557   14.1503  -19.4320 C   0  0  0  0  0  0  0  0  0  0  0  0
  -17.9827   13.4027  -17.2691 O   0  0  0  0  0  0  0  0  0  0  0  0
  -17.1046   13.0016  -17.5102 H   0  0  0  0  0  0  0  0  0  0  0  0
 38 39  1  0  0  0
 39 40  1  0  0  0
 39 41  1  0  0  0
 39 37  1  0  0  0
 37 33  1  0  0  0
 33 34  2  0  0  0
 33 35  1  0  0  0
 35 32  1  0  0  0
 32 31  1  0  0  0
 31  1  1  0  0  0
  1  2  2  0  0  0
  2  3  1  0  0  0
  3  4  2  0  0  0
  4  5  1  0  0  0
  5  6  2  0  0  0
  6  7  1  0  0  0
  7  8  2  0  0  0
  8 11  1  0  0  0
 11 13  1  0  0  0
 13 14  2  0  0  0
 14 15  1  0  0  0
 15 16  2  0  0  0
 16 20  1  0  0  0
 20 21  1  0  0  0
 21 22  2  0  0  0
 22 23  1  0  0  0
 23 24  2  0  0  0
 24 25  1  0  0  0
 25 27  1  0  0  0
 27 28  1  0  0  0
 27 29  1  0  0  0
 27 30  1  0  0  0
 25 26  2  0  0  0
 16 17  1  0  0  0
 17 18  1  0  0  0
 17 19  2  0  0  0
  8  9  1  0  0  0
  9 10  2  0  0  0
 10  1  1  0  0  0
  9  4  1  0  0  0
 19 13  1  0  0  0
 26 21  1  0  0  0
 41 42  1  0  0  0
 35 36  1  0  0  0
 11 12  1  0  0  0
M  END
> <minimizedAffinity>
-8.53918

> <CNNscore>
0.1485339850

> <CNNaffinity>
7.3288040161

> <CNN_VS>
1.0885764360

> <CNNaffinity_variance>
0.6642236114

$$$$
[H]OC(C([H])([H])[H])(C([H])([H])[H])C([H])([H])C(=O)N([H])C([H])([H])C([H])([H])c1c([H])c([H])c2nc([H])nc(N([H])c3c([H])c([H])c(Oc4c([H])c([H])c([H])c(C(F)(F)F)c4[H])c(Cl)c3[H])c2c1[H]


 42 45  0  0  0  0  0  0  0  0999 V2000
  -16.9741   12.9841  -23.4135 C   0  0  0  0  0  0  0  0  0  0  0  0
  -15.7751   12.3352  -23.5032 C   0  0  0  0  0  0  0  0  0  0  0  0
  -15.3510   11.5134  -22.5054 C   0  0  0  0  0  0  0  0  0  0  0  0
  -16.1152   11.3096  -21.3645 C   0  0  0  0  0  0  0  0  0  0  0  0
  -15.6209   10.4923  -20.4128 N   0  0  0  0  0  0  0  0  0  0  0  0
  -16.3368   10.3000  -19.2958 C   0  0  0  0  0  0  0  0  0  0  0  0
  -17.4971   10.9383  -19.2044 N   0  0  0  0  0  0  0  0  0  0  0  0
  -18.0505   11.7525  -20.0892 C   0  0  0  0  0  0  0  0  0  0  0  0
  -17.3234   11.9654  -21.2668 C   0  0  0  0  0  0  0  0  0  0  0  0
  -17.7607   12.7842  -22.2563 C   0  0  0  0  0  0  0  0  0  0  0  0
  -19.2588   12.4351  -19.8607 N   0  0  0  0  0  0  0  0  0  0  0  0
  -20.1069   12.3065  -20.4700 H   0  0  0  0  0  0  0  0  0  0  0  0
  -19.4310   13.3591  -18.7965 C   0  0  0  0  0  0  0  0  0  0  0  0
  -18.4380   13.8105  -17.9839 C   0  0  0  0  0  0  0  0  0  0  0  0
  -18.6520   14.8046  -17.0247 C   0  0  0  0  0  0  0  0  0  0  0  0
  -19.9302   15.3712  -16.8744 C   0  0  0  0  0  0  0  0  0  0  0  0
  -20.9488   14.9239  -17.6840 C   0  0  0  0  0  0  0  0  0  0  0  0
  -22.5936   15.5731  -17.5375 Cl  0  0  0  0  0  0  0  0  0  0  0  0
  -20.6812   13.9441  -18.6131 C   0  0  0  0  0  0  0  0  0  0  0  0
  -20.0663   16.3268  -15.9408 O   0  0  0  0  0  0  0  0  0  0  0  0
  -20.2510   17.6570  -15.9022 C   0  0  0  0  0  0  0  0  0  0  0  0
  -20.8810   18.2109  -14.7754 C   0  0  0  0  0  0  0  0  0  0  0  0
  -21.0772   19.5614  -14.7131 C   0  0  0  0  0  0  0  0  0  0  0  0
  -20.6572   20.3618  -15.7529 C   0  0  0  0  0  0  0  0  0  0  0  0
  -20.0390   19.8508  -16.8714 C   0  0  0  0  0  0  0  0  0  0  0  0
  -19.8368   18.4990  -16.9418 C   0  0  0  0  0  0  0  0  0  0  0  0
  -19.6381   20.7826  -17.9588 C   0  0  0  0  0  0  0  0  0  0  0  0
  -18.4584   20.3146  -18.5696 F   0  0  0  0  0  0  0  0  0  0  0  0
  -20.6155   20.7365  -18.9314 F   0  0  0  0  0  0  0  0  0  0  0  0
  -19.5001   22.0673  -17.5160 F   0  0  0  0  0  0  0  0  0  0  0  0
  -17.4375   13.9031  -24.4270 C   0  0  0  0  0  0  0  0  0  0  0  0
  -18.4784   14.9219  -24.0092 C   0  0  0  0  0  0  0  0  0  0  0  0
  -17.4398   17.4209  -23.5181 C   0  0  0  0  0  0  0  0  0  0  0  0
  -17.6031   18.4515  -24.2003 O   0  0  0  0  0  0  0  0  0  0  0  0
  -17.9580   16.1717  -23.7621 N   0  0  0  0  0  0  0  0  0  0  0  0
  -18.6947   16.6857  -24.7928 H   0  0  0  0  0  0  0  0  0  0  0  0
  -16.5676   17.6186  -22.3000 C   0  0  0  0  0  0  0  0  0  0  0  0
  -17.3689   16.3096  -20.3772 C   0  0  0  0  0  0  0  0  0  0  0  0
  -17.2676   17.6630  -21.0084 C   0  0  0  0  0  0  0  0  0  0  0  0
  -18.5976   18.3968  -21.0521 C   0  0  0  0  0  0  0  0  0  0  0  0
  -16.4225   18.4420  -20.1401 O   0  0  0  0  0  0  0  0  0  0  0  0
  -16.0698   19.1784  -20.7088 H   0  0  0  0  0  0  0  0  0  0  0  0
 38 39  1  0  0  0
 39 40  1  0  0  0
 39 41  1  0  0  0
 39 37  1  0  0  0
 37 33  1  0  0  0
 33 34  2  0  0  0
 33 35  1  0  0  0
 35 32  1  0  0  0
 32 31  1  0  0  0
 31  1  1  0  0  0
  1  2  2  0  0  0
  2  3  1  0  0  0
  3  4  2  0  0  0
  4  5  1  0  0  0
  5  6  2  0  0  0
  6  7  1  0  0  0
  7  8  2  0  0  0
  8 11  1  0  0  0
 11 13  1  0  0  0
 13 14  2  0  0  0
 14 15  1  0  0  0
 15 16  2  0  0  0
 16 20  1  0  0  0
 20 21  1  0  0  0
 21 22  2  0  0  0
 22 23  1  0  0  0
 23 24  2  0  0  0
 24 25  1  0  0  0
 25 27  1  0  0  0
 27 28  1  0  0  0
 27 29  1  0  0  0
 27 30  1  0  0  0
 25 26  2  0  0  0
 16 17  1  0  0  0
 17 18  1  0  0  0
 17 19  2  0  0  0
  8  9  1  0  0  0
  9 10  2  0  0  0
 10  1  1  0  0  0
  9  4  1  0  0  0
 19 13  1  0  0  0
 26 21  1  0  0  0
 41 42  1  0  0  0
 35 36  1  0  0  0
 11 12  1  0  0  0
M  END
> <minimizedAffinity>
-7.66671

> <CNNscore>
0.1273889095

> <CNNaffinity>
7.1791596413

> <CNN_VS>
0.9145452976

> <CNNaffinity_variance>
0.0995973200

$$$$
[H]OC(C([H])([H])[H])(C([H])([H])[H])C([H])([H])C(=O)N([H])C([H])([H])C([H])([H])c1c([H])c([H])c2nc([H])nc(N([H])c3c([H])c([H])c(Oc4c([H])c([H])c([H])c(C(F)(F)F)c4[H])c(Cl)c3[H])c2c1[H]


 42 45  0  0  0  0  0  0  0  0999 V2000
  -16.6821   11.8050  -21.6228 C   0  0  0  0  0  0  0  0  0  0  0  0
  -16.0682   10.6739  -21.1643 C   0  0  0  0  0  0  0  0  0  0  0  0
  -16.4816   10.0733  -20.0157 C   0  0  0  0  0  0  0  0  0  0  0  0
  -17.5333   10.5884  -19.2701 C   0  0  0  0  0  0  0  0  0  0  0  0
  -17.8754    9.9454  -18.1354 N   0  0  0  0  0  0  0  0  0  0  0  0
  -18.8759   10.4406  -17.3930 C   0  0  0  0  0  0  0  0  0  0  0  0
  -19.4657   11.5452  -17.8334 N   0  0  0  0  0  0  0  0  0  0  0  0
  -19.1916   12.2325  -18.9310 C   0  0  0  0  0  0  0  0  0  0  0  0
  -18.1531   11.7319  -19.7258 C   0  0  0  0  0  0  0  0  0  0  0  0
  -17.7541   12.3386  -20.8718 C   0  0  0  0  0  0  0  0  0  0  0  0
  -19.8361   13.4358  -19.2698 N   0  0  0  0  0  0  0  0  0  0  0  0
  -20.4415   13.5338  -20.1247 H   0  0  0  0  0  0  0  0  0  0  0  0
  -19.7160   14.6180  -18.4927 C   0  0  0  0  0  0  0  0  0  0  0  0
  -18.5571   15.0889  -17.9587 C   0  0  0  0  0  0  0  0  0  0  0  0
  -18.4852   16.3179  -17.2965 C   0  0  0  0  0  0  0  0  0  0  0  0
  -19.6383   17.1116  -17.1629 C   0  0  0  0  0  0  0  0  0  0  0  0
  -20.8213   16.6497  -17.6922 C   0  0  0  0  0  0  0  0  0  0  0  0
  -22.3230   17.5828  -17.5429 Cl  0  0  0  0  0  0  0  0  0  0  0  0
  -20.8340   15.4330  -18.3360 C   0  0  0  0  0  0  0  0  0  0  0  0
  -19.4993   18.2841  -16.5233 O   0  0  0  0  0  0  0  0  0  0  0  0
  -19.9744   18.8702  -15.4116 C   0  0  0  0  0  0  0  0  0  0  0  0
  -19.9970   18.1242  -14.2215 C   0  0  0  0  0  0  0  0  0  0  0  0
  -20.4734   18.7002  -13.0781 C   0  0  0  0  0  0  0  0  0  0  0  0
  -20.9254   20.0014  -13.1053 C   0  0  0  0  0  0  0  0  0  0  0  0
  -20.9189   20.7586  -14.2546 C   0  0  0  0  0  0  0  0  0  0  0  0
  -20.4418   20.1903  -15.4046 C   0  0  0  0  0  0  0  0  0  0  0  0
  -21.4469   22.1479  -14.2020 C   0  0  0  0  0  0  0  0  0  0  0  0
  -20.5044   22.9870  -13.5765 F   0  0  0  0  0  0  0  0  0  0  0  0
  -21.5605   22.6022  -15.4997 F   0  0  0  0  0  0  0  0  0  0  0  0
  -22.6661   22.2163  -13.5899 F   0  0  0  0  0  0  0  0  0  0  0  0
  -16.2419   12.5007  -22.8098 C   0  0  0  0  0  0  0  0  0  0  0  0
  -17.1346   13.6095  -23.3293 C   0  0  0  0  0  0  0  0  0  0  0  0
  -16.2638   16.1305  -22.6577 C   0  0  0  0  0  0  0  0  0  0  0  0
  -15.5597   16.8928  -23.3488 O   0  0  0  0  0  0  0  0  0  0  0  0
  -16.6997   14.8707  -22.9919 N   0  0  0  0  0  0  0  0  0  0  0  0
  -16.1908   15.0354  -24.2502 H   0  0  0  0  0  0  0  0  0  0  0  0
  -16.6537   16.6996  -21.3133 C   0  0  0  0  0  0  0  0  0  0  0  0
  -17.8345   18.5362  -20.1794 C   0  0  0  0  0  0  0  0  0  0  0  0
  -17.8595   17.5398  -21.2960 C   0  0  0  0  0  0  0  0  0  0  0  0
  -19.1594   16.7551  -21.3601 C   0  0  0  0  0  0  0  0  0  0  0  0
  -17.8096   18.3086  -22.5132 O   0  0  0  0  0  0  0  0  0  0  0  0
  -17.4703   17.6806  -23.2064 H   0  0  0  0  0  0  0  0  0  0  0  0
 38 39  1  0  0  0
 39 40  1  0  0  0
 39 41  1  0  0  0
 39 37  1  0  0  0
 37 33  1  0  0  0
 33 34  2  0  0  0
 33 35  1  0  0  0
 35 32  1  0  0  0
 32 31  1  0  0  0
 31  1  1  0  0  0
  1  2  2  0  0  0
  2  3  1  0  0  0
  3  4  2  0  0  0
  4  5  1  0  0  0
  5  6  2  0  0  0
  6  7  1  0  0  0
  7  8  2  0  0  0
  8 11  1  0  0  0
 11 13  1  0  0  0
 13 14  2  0  0  0
 14 15  1  0  0  0
 15 16  2  0  0  0
 16 20  1  0  0  0
 20 21  1  0  0  0
 21 22  2  0  0  0
 22 23  1  0  0  0
 23 24  2  0  0  0
 24 25  1  0  0  0
 25 27  1  0  0  0
 27 28  1  0  0  0
 27 29  1  0  0  0
 27 30  1  0  0  0
 25 26  2  0  0  0
 16 17  1  0  0  0
 17 18  1  0  0  0
 17 19  2  0  0  0
  8  9  1  0  0  0
  9 10  2  0  0  0
 10  1  1  0  0  0
  9  4  1  0  0  0
 19 13  1  0  0  0
 26 21  1  0  0  0
 41 42  1  0  0  0
 35 36  1  0  0  0
 11 12  1  0  0  0
M  END
> <minimizedAffinity>
-7.84872

> <CNNscore>
0.1131592169

> <CNNaffinity>
6.7881536484

> <CNN_VS>
0.7681421638

> <CNNaffinity_variance>
0.2710765004

$$$$
[H]OC(C([H])([H])[H])(C([H])([H])[H])C([H])([H])C(=O)N([H])C([H])([H])C([H])([H])c1c([H])c([H])c2nc([H])nc(N([H])c3c([H])c([H])c(Oc4c([H])c([H])c([H])c(C(F)(F)F)c4[H])c(Cl)c3[H])c2c1[H]


 42 45  0  0  0  0  0  0  0  0999 V2000
  -17.2512   12.8290  -23.9682 C   0  0  0  0  0  0  0  0  0  0  0  0
  -17.6904   12.1282  -25.0556 C   0  0  0  0  0  0  0  0  0  0  0  0
  -17.4774   12.5926  -26.3165 C   0  0  0  0  0  0  0  0  0  0  0  0
  -16.8139   13.7910  -26.5417 C   0  0  0  0  0  0  0  0  0  0  0  0
  -16.6541   14.1923  -27.8190 N   0  0  0  0  0  0  0  0  0  0  0  0
  -16.0330   15.3570  -28.0535 C   0  0  0  0  0  0  0  0  0  0  0  0
  -15.6151   16.0426  -26.9965 N   0  0  0  0  0  0  0  0  0  0  0  0
  -15.7315   15.7193  -25.7182 C   0  0  0  0  0  0  0  0  0  0  0  0
  -16.3728   14.5042  -25.4480 C   0  0  0  0  0  0  0  0  0  0  0  0
  -16.5743   14.0507  -24.1853 C   0  0  0  0  0  0  0  0  0  0  0  0
  -15.3126   16.5565  -24.6686 N   0  0  0  0  0  0  0  0  0  0  0  0
  -14.3013   16.7940  -24.5015 H   0  0  0  0  0  0  0  0  0  0  0  0
  -16.2171   17.1420  -23.7439 C   0  0  0  0  0  0  0  0  0  0  0  0
  -17.3535   17.8108  -24.0776 C   0  0  0  0  0  0  0  0  0  0  0  0
  -18.2602   18.2682  -23.1169 C   0  0  0  0  0  0  0  0  0  0  0  0
  -18.0091   18.0432  -21.7517 C   0  0  0  0  0  0  0  0  0  0  0  0
  -16.8620   17.3728  -21.3942 C   0  0  0  0  0  0  0  0  0  0  0  0
  -16.4644   17.0722  -19.6914 Cl  0  0  0  0  0  0  0  0  0  0  0  0
  -16.0052   16.9429  -22.3822 C   0  0  0  0  0  0  0  0  0  0  0  0
  -18.9235   18.5010  -20.8813 O   0  0  0  0  0  0  0  0  0  0  0  0
  -19.9614   19.3541  -20.8897 C   0  0  0  0  0  0  0  0  0  0  0  0
  -21.2618   18.8231  -20.8739 C   0  0  0  0  0  0  0  0  0  0  0  0
  -22.3326   19.6714  -20.8795 C   0  0  0  0  0  0  0  0  0  0  0  0
  -22.1254   21.0333  -20.9015 C   0  0  0  0  0  0  0  0  0  0  0  0
  -20.8650   21.5856  -20.9196 C   0  0  0  0  0  0  0  0  0  0  0  0
  -19.7862   20.7434  -20.9124 C   0  0  0  0  0  0  0  0  0  0  0  0
  -20.7304   23.0659  -20.9667 C   0  0  0  0  0  0  0  0  0  0  0  0
  -20.8473   23.5915  -19.6652 F   0  0  0  0  0  0  0  0  0  0  0  0
  -19.4473   23.3568  -21.3819 F   0  0  0  0  0  0  0  0  0  0  0  0
  -21.6251   23.6407  -21.8239 F   0  0  0  0  0  0  0  0  0  0  0  0
  -17.5006   12.3960  -22.6128 C   0  0  0  0  0  0  0  0  0  0  0  0
  -16.4357   11.5415  -21.9556 C   0  0  0  0  0  0  0  0  0  0  0  0
  -16.8124   11.1932  -19.2534 C   0  0  0  0  0  0  0  0  0  0  0  0
  -15.9345   11.1616  -18.3688 O   0  0  0  0  0  0  0  0  0  0  0  0
  -16.6258   11.3672  -20.6038 N   0  0  0  0  0  0  0  0  0  0  0  0
  -15.2983   11.6087  -20.3828 H   0  0  0  0  0  0  0  0  0  0  0  0
  -18.2199   11.0151  -18.7331 C   0  0  0  0  0  0  0  0  0  0  0  0
  -19.9327   12.0040  -17.2698 C   0  0  0  0  0  0  0  0  0  0  0  0
  -18.9239   12.2467  -18.3486 C   0  0  0  0  0  0  0  0  0  0  0  0
  -19.4899   13.0266  -19.5237 C   0  0  0  0  0  0  0  0  0  0  0  0
  -17.9185   13.0978  -17.7656 O   0  0  0  0  0  0  0  0  0  0  0  0
  -17.1067   12.9665  -18.3257 H   0  0  0  0  0  0  0  0  0  0  0  0
 38 39  1  0  0  0
 39 40  1  0  0  0
 39 41  1  0  0  0
 39 37  1  0  0  0
 37 33  1  0  0  0
 33 34  2  0  0  0
 33 35  1  0  0  0
 35 32  1  0  0  0
 32 31  1  0  0  0
 31  1  1  0  0  0
  1  2  2  0  0  0
  2  3  1  0  0  0
  3  4  2  0  0  0
  4  5  1  0  0  0
  5  6  2  0  0  0
  6  7  1  0  0  0
  7  8  2  0  0  0
  8 11  1  0  0  0
 11 13  1  0  0  0
 13 14  2  0  0  0
 14 15  1  0  0  0
 15 16  2  0  0  0
 16 20  1  0  0  0
 20 21  1  0  0  0
 21 22  2  0  0  0
 22 23  1  0  0  0
 23 24  2  0  0  0
 24 25  1  0  0  0
 25 27  1  0  0  0
 27 28  1  0  0  0
 27 29  1  0  0  0
 27 30  1  0  0  0
 25 26  2  0  0  0
 16 17  1  0  0  0
 17 18  1  0  0  0
 17 19  2  0  0  0
  8  9  1  0  0  0
  9 10  2  0  0  0
 10  1  1  0  0  0
  9  4  1  0  0  0
 19 13  1  0  0  0
 26 21  1  0  0  0
 41 42  1  0  0  0
 35 36  1  0  0  0
 11 12  1  0  0  0
M  END
> <minimizedAffinity>
-8.12581

> <CNNscore>
0.1010701805

> <CNNaffinity>
7.1043157578

> <CNN_VS>
0.7180345058

> <CNNaffinity_variance>
0.3421295285

$$$$
[H]OC(C([H])([H])[H])(C([H])([H])[H])C([H])([H])C(=O)N([H])C([H])([H])C([H])([H])c1c([H])c([H])c2nc([H])nc(N([H])c3c([H])c([H])c(Oc4c([H])c([H])c([H])c(C(F)(F)F)c4[H])c(Cl)c3[H])c2c1[H]


 42 45  0  0  0  0  0  0  0  0999 V2000
  -19.4202   19.1261  -21.9297 C   0  0  0  0  0  0  0  0  0  0  0  0
  -19.5385   19.2410  -23.2859 C   0  0  0  0  0  0  0  0  0  0  0  0
  -20.6887   18.8824  -23.9180 C   0  0  0  0  0  0  0  0  0  0  0  0
  -21.7755   18.3853  -23.2117 C   0  0  0  0  0  0  0  0  0  0  0  0
  -22.8752   18.0377  -23.9102 N   0  0  0  0  0  0  0  0  0  0  0  0
  -23.9266   17.5372  -23.2460 C   0  0  0  0  0  0  0  0  0  0  0  0
  -23.8079   17.4163  -21.9294 N   0  0  0  0  0  0  0  0  0  0  0  0
  -22.7690   17.7335  -21.1730 C   0  0  0  0  0  0  0  0  0  0  0  0
  -21.6597   18.2630  -21.8438 C   0  0  0  0  0  0  0  0  0  0  0  0
  -20.5204   18.6210  -21.2001 C   0  0  0  0  0  0  0  0  0  0  0  0
  -22.7222   17.4985  -19.7871 N   0  0  0  0  0  0  0  0  0  0  0  0
  -23.2824   18.0615  -19.0970 H   0  0  0  0  0  0  0  0  0  0  0  0
  -21.9100   16.4898  -19.2050 C   0  0  0  0  0  0  0  0  0  0  0  0
  -21.6968   15.2549  -19.7338 C   0  0  0  0  0  0  0  0  0  0  0  0
  -20.7978   14.3457  -19.1688 C   0  0  0  0  0  0  0  0  0  0  0  0
  -20.0791   14.6962  -18.0120 C   0  0  0  0  0  0  0  0  0  0  0  0
  -20.2851   15.9393  -17.4595 C   0  0  0  0  0  0  0  0  0  0  0  0
  -19.4335   16.4448  -15.9872 Cl  0  0  0  0  0  0  0  0  0  0  0  0
  -21.1809   16.7956  -18.0589 C   0  0  0  0  0  0  0  0  0  0  0  0
  -19.2260   13.7806  -17.5248 O   0  0  0  0  0  0  0  0  0  0  0  0
  -18.8492   12.5236  -17.8125 C   0  0  0  0  0  0  0  0  0  0  0  0
  -19.4244   11.4707  -17.0817 C   0  0  0  0  0  0  0  0  0  0  0  0
  -19.0583   10.1840  -17.3584 C   0  0  0  0  0  0  0  0  0  0  0  0
  -18.1318    9.9346  -18.3472 C   0  0  0  0  0  0  0  0  0  0  0  0
  -17.5481   10.9430  -19.0797 C   0  0  0  0  0  0  0  0  0  0  0  0
  -17.9100   12.2352  -18.8105 C   0  0  0  0  0  0  0  0  0  0  0  0
  -16.5391   10.5881  -20.1130 C   0  0  0  0  0  0  0  0  0  0  0  0
  -16.4418   11.6310  -21.0546 F   0  0  0  0  0  0  0  0  0  0  0  0
  -15.3094   10.5192  -19.4913 F   0  0  0  0  0  0  0  0  0  0  0  0
  -16.8107    9.3917  -20.7134 F   0  0  0  0  0  0  0  0  0  0  0  0
  -18.2002   19.4485  -21.2266 C   0  0  0  0  0  0  0  0  0  0  0  0
  -17.3553   18.2868  -20.7445 C   0  0  0  0  0  0  0  0  0  0  0  0
  -16.2594   16.8037  -22.7852 C   0  0  0  0  0  0  0  0  0  0  0  0
  -15.7367   17.2341  -23.8320 O   0  0  0  0  0  0  0  0  0  0  0  0
  -16.8073   17.5433  -21.7647 N   0  0  0  0  0  0  0  0  0  0  0  0
  -16.3616   18.6885  -22.3641 H   0  0  0  0  0  0  0  0  0  0  0  0
  -16.2681   15.2967  -22.6738 C   0  0  0  0  0  0  0  0  0  0  0  0
  -18.3076   15.4316  -24.0432 C   0  0  0  0  0  0  0  0  0  0  0  0
  -17.5232   14.6313  -23.0509 C   0  0  0  0  0  0  0  0  0  0  0  0
  -18.3587   14.1732  -21.8671 C   0  0  0  0  0  0  0  0  0  0  0  0
  -17.1288   13.4277  -23.7370 O   0  0  0  0  0  0  0  0  0  0  0  0
  -16.3423   13.0845  -23.2335 H   0  0  0  0  0  0  0  0  0  0  0  0
 38 39  1  0  0  0
 39 40  1  0  0  0
 39 41  1  0  0  0
 39 37  1  0  0  0
 37 33  1  0  0  0
 33 34  2  0  0  0
 33 35  1  0  0  0
 35 32  1  0  0  0
 32 31  1  0  0  0
 31  1  1  0  0  0
  1  2  2  0  0  0
  2  3  1  0  0  0
  3  4  2  0  0  0
  4  5  1  0  0  0
  5  6  2  0  0  0
  6  7  1  0  0  0
  7  8  2  0  0  0
  8 11  1  0  0  0
 11 13  1  0  0  0
 13 14  2  0  0  0
 14 15  1  0  0  0
 15 16  2  0  0  0
 16 20  1  0  0  0
 20 21  1  0  0  0
 21 22  2  0  0  0
 22 23  1  0  0  0
 23 24  2  0  0  0
 24 25  1  0  0  0
 25 27  1  0  0  0
 27 28  1  0  0  0
 27 29  1  0  0  0
 27 30  1  0  0  0
 25 26  2  0  0  0
 16 17  1  0  0  0
 17 18  1  0  0  0
 17 19  2  0  0  0
  8  9  1  0  0  0
  9 10  2  0  0  0
 10  1  1  0  0  0
  9  4  1  0  0  0
 19 13  1  0  0  0
 26 21  1  0  0  0
 41 42  1  0  0  0
 35 36  1  0  0  0
 11 12  1  0  0  0
M  END
> <minimizedAffinity>
-8.47973

> <CNNscore>
0.0718590915

> <CNNaffinity>
6.6279945374

> <CNN_VS>
0.4762816727

> <CNNaffinity_variance>
0.8271842003

$$$$
[H]OC(C([H])([H])[H])(C([H])([H])[H])C([H])([H])C(=O)N([H])C([H])([H])C([H])([H])c1c([H])c([H])c2nc([H])nc(N([H])c3c([H])c([H])c(Oc4c([H])c([H])c([H])c(C(F)(F)F)c4[H])c(Cl)c3[H])c2c1[H]


 42 45  0  0  0  0  0  0  0  0999 V2000
  -17.1484   12.1856  -22.0193 C   0  0  0  0  0  0  0  0  0  0  0  0
  -16.2376   11.2233  -21.6862 C   0  0  0  0  0  0  0  0  0  0  0  0
  -16.3298   10.5556  -20.5044 C   0  0  0  0  0  0  0  0  0  0  0  0
  -17.3445   10.8302  -19.5976 C   0  0  0  0  0  0  0  0  0  0  0  0
  -17.3607   10.1370  -18.4413 N   0  0  0  0  0  0  0  0  0  0  0  0
  -18.3221   10.4036  -17.5458 C   0  0  0  0  0  0  0  0  0  0  0  0
  -19.2011   11.3455  -17.8652 N   0  0  0  0  0  0  0  0  0  0  0  0
  -19.2546   12.0672  -18.9736 C   0  0  0  0  0  0  0  0  0  0  0  0
  -18.2633   11.8034  -19.9267 C   0  0  0  0  0  0  0  0  0  0  0  0
  -18.1860   12.4738  -21.1037 C   0  0  0  0  0  0  0  0  0  0  0  0
  -20.1928   13.0941  -19.1820 N   0  0  0  0  0  0  0  0  0  0  0  0
  -21.0554   12.9636  -19.7703 H   0  0  0  0  0  0  0  0  0  0  0  0
  -20.0493   14.3919  -18.6244 C   0  0  0  0  0  0  0  0  0  0  0  0
  -18.8658   14.9744  -18.2927 C   0  0  0  0  0  0  0  0  0  0  0  0
  -18.7830   16.2980  -17.8506 C   0  0  0  0  0  0  0  0  0  0  0  0
  -19.9503   17.0734  -17.7343 C   0  0  0  0  0  0  0  0  0  0  0  0
  -21.1577   16.4999  -18.0604 C   0  0  0  0  0  0  0  0  0  0  0  0
  -22.6761   17.4065  -17.9166 Cl  0  0  0  0  0  0  0  0  0  0  0  0
  -21.1805   15.1930  -18.4923 C   0  0  0  0  0  0  0  0  0  0  0  0
  -19.8005   18.3392  -17.3119 O   0  0  0  0  0  0  0  0  0  0  0  0
  -19.8395   19.5731  -17.8419 C   0  0  0  0  0  0  0  0  0  0  0  0
  -20.3127   20.6277  -17.0436 C   0  0  0  0  0  0  0  0  0  0  0  0
  -20.3590   21.8914  -17.5605 C   0  0  0  0  0  0  0  0  0  0  0  0
  -19.9434   22.1161  -18.8547 C   0  0  0  0  0  0  0  0  0  0  0  0
  -19.4768   21.1051  -19.6636 C   0  0  0  0  0  0  0  0  0  0  0  0
  -19.4252   19.8361  -19.1536 C   0  0  0  0  0  0  0  0  0  0  0  0
  -19.0701   21.4301  -21.0566 C   0  0  0  0  0  0  0  0  0  0  0  0
  -18.1355   20.4785  -21.5091 F   0  0  0  0  0  0  0  0  0  0  0  0
  -20.1812   21.2863  -21.8617 F   0  0  0  0  0  0  0  0  0  0  0  0
  -18.5885   22.7030  -21.1725 F   0  0  0  0  0  0  0  0  0  0  0  0
  -17.0573   12.9516  -23.2406 C   0  0  0  0  0  0  0  0  0  0  0  0
  -17.7841   14.2807  -23.2760 C   0  0  0  0  0  0  0  0  0  0  0  0
  -16.1012   16.4539  -23.3768 C   0  0  0  0  0  0  0  0  0  0  0  0
  -15.6574   17.1078  -22.4126 O   0  0  0  0  0  0  0  0  0  0  0  0
  -16.9420   15.3679  -23.3281 N   0  0  0  0  0  0  0  0  0  0  0  0
  -16.8383   15.3569  -21.9648 H   0  0  0  0  0  0  0  0  0  0  0  0
  -15.6352   16.9499  -24.7260 C   0  0  0  0  0  0  0  0  0  0  0  0
  -15.8739   15.4278  -26.6441 C   0  0  0  0  0  0  0  0  0  0  0  0
  -14.9655   15.9582  -25.5793 C   0  0  0  0  0  0  0  0  0  0  0  0
  -14.2539   14.8596  -24.8072 C   0  0  0  0  0  0  0  0  0  0  0  0
  -13.9286   16.6824  -26.2689 O   0  0  0  0  0  0  0  0  0  0  0  0
  -13.5547   17.3111  -25.5944 H   0  0  0  0  0  0  0  0  0  0  0  0
 38 39  1  0  0  0
 39 40  1  0  0  0
 39 41  1  0  0  0
 39 37  1  0  0  0
 37 33  1  0  0  0
 33 34  2  0  0  0
 33 35  1  0  0  0
 35 32  1  0  0  0
 32 31  1  0  0  0
 31  1  1  0  0  0
  1  2  2  0  0  0
  2  3  1  0  0  0
  3  4  2  0  0  0
  4  5  1  0  0  0
  5  6  2  0  0  0
  6  7  1  0  0  0
  7  8  2  0  0  0
  8 11  1  0  0  0
 11 13  1  0  0  0
 13 14  2  0  0  0
 14 15  1  0  0  0
 15 16  2  0  0  0
 16 20  1  0  0  0
 20 21  1  0  0  0
 21 22  2  0  0  0
 22 23  1  0  0  0
 23 24  2  0  0  0
 24 25  1  0  0  0
 25 27  1  0  0  0
 27 28  1  0  0  0
 27 29  1  0  0  0
 27 30  1  0  0  0
 25 26  2  0  0  0
 16 17  1  0  0  0
 17 18  1  0  0  0
 17 19  2  0  0  0
  8  9  1  0  0  0
  9 10  2  0  0  0
 10  1  1  0  0  0
  9  4  1  0  0  0
 19 13  1  0  0  0
 26 21  1  0  0  0
 41 42  1  0  0  0
 35 36  1  0  0  0
 11 12  1  0  0  0
M  END
> <minimizedAffinity>
-8.26550

> <CNNscore>
0.0714066029

> <CNNaffinity>
7.0680541992

> <CNN_VS>
0.5047057271

> <CNNaffinity_variance>
0.2586126029

$$$$
[H]OC(=O)c1c([H])c([H])c(C([H])([H])N([H])C(=O)c2c([H])c([H])c(C(C([H])([H])[H])(C([H])([H])[H])C([H])([H])[H])c([H])c2[H])c([H])c1F


 26 27  0  0  0  0  0  0  0  0999 V2000
  -16.7864   10.6421  -20.1367 C   0  0  0  0  0  0  0  0  0  0  0  0
  -15.9937    9.6552  -20.1055 O   0  0  0  0  0  0  0  0  0  0  0  0
  -16.7105   11.5425  -21.2062 N   0  0  0  0  0  0  0  0  0  0  0  0
  -17.4002   12.3557  -21.2100 H   0  0  0  0  0  0  0  0  0  0  0  0
  -19.6245   11.2816  -17.0132 C   0  0  0  0  0  0  0  0  0  0  0  0
  -19.0123   10.0557  -17.1930 C   0  0  0  0  0  0  0  0  0  0  0  0
  -18.1008    9.8354  -18.2036 C   0  0  0  0  0  0  0  0  0  0  0  0
  -17.7670   10.8446  -19.0809 C   0  0  0  0  0  0  0  0  0  0  0  0
  -18.3515   12.0720  -18.9379 C   0  0  0  0  0  0  0  0  0  0  0  0
  -19.2698   12.2633  -17.9036 C   0  0  0  0  0  0  0  0  0  0  0  0
  -19.8959   11.3193  -14.5992 C   0  0  0  0  0  0  0  0  0  0  0  0
  -20.6142   11.5289  -15.9172 C   0  0  0  0  0  0  0  0  0  0  0  0
  -21.7183   10.5007  -15.9939 C   0  0  0  0  0  0  0  0  0  0  0  0
  -21.2165   12.9161  -16.0094 C   0  0  0  0  0  0  0  0  0  0  0  0
  -15.8173   11.4923  -22.3252 C   0  0  0  0  0  0  0  0  0  0  0  0
  -15.8956   12.7015  -23.1796 C   0  0  0  0  0  0  0  0  0  0  0  0
  -17.1779   13.1828  -23.5148 C   0  0  0  0  0  0  0  0  0  0  0  0
  -17.3301   14.3128  -24.2752 C   0  0  0  0  0  0  0  0  0  0  0  0
  -16.2487   15.0470  -24.7584 C   0  0  0  0  0  0  0  0  0  0  0  0
  -14.9898   14.5821  -24.4367 C   0  0  0  0  0  0  0  0  0  0  0  0
  -13.9015   15.2633  -24.8772 F   0  0  0  0  0  0  0  0  0  0  0  0
  -14.8416   13.4272  -23.6596 C   0  0  0  0  0  0  0  0  0  0  0  0
  -16.4777   16.2433  -25.5446 C   0  0  0  0  0  0  0  0  0  0  0  0
  -17.0360   17.2221  -24.9752 O   0  0  0  0  0  0  0  0  0  0  0  0
  -16.1022   16.3159  -26.8578 O   0  0  0  0  0  0  0  0  0  0  0  0
  -15.1777   16.6076  -27.1934 H   0  0  0  0  0  0  0  0  0  0  0  0
 11 12  1  0  0  0
 12 13  1  0  0  0
 12 14  1  0  0  0
 12  5  1  0  0  0
  5  6  2  0  0  0
  6  7  1  0  0  0
  7  8  2  0  0  0
  8  1  1  0  0  0
  1  2  2  0  0  0
  1  3  1  0  0  0
  3 15  1  0  0  0
 15 16  1  0  0  0
 16 17  2  0  0  0
 17 18  1  0  0  0
 18 19  2  0  0  0
 19 23  1  0  0  0
 23 24  2  0  0  0
 23 25  1  0  0  0
 19 20  1  0  0  0
 20 21  1  0  0  0
 20 22  2  0  0  0
  8  9  1  0  0  0
  9 10  2  0  0  0
 10  5  1  0  0  0
 22 16  1  0  0  0
  3  4  1  0  0  0
 25 26  1  0  0  0
M  END
> <minimizedAffinity>
-8.69896

> <CNNscore>
0.7252559066

> <CNNaffinity>
6.0785422325

> <CNN_VS>
4.4084987640

> <CNNaffinity_variance>
0.1326287687

$$$$
[H]OC(=O)c1c([H])c([H])c(C([H])([H])N([H])C(=O)c2c([H])c([H])c(C(C([H])([H])[H])(C([H])([H])[H])C([H])([H])[H])c([H])c2[H])c([H])c1F


 26 27  0  0  0  0  0  0  0  0999 V2000
  -16.8285   10.6152  -20.1055 C   0  0  0  0  0  0  0  0  0  0  0  0
  -16.0472    9.6188  -20.1208 O   0  0  0  0  0  0  0  0  0  0  0  0
  -16.7394   11.5658  -21.1296 N   0  0  0  0  0  0  0  0  0  0  0  0
  -17.4197   12.3861  -21.0951 H   0  0  0  0  0  0  0  0  0  0  0  0
  -19.6689   11.1365  -16.9621 C   0  0  0  0  0  0  0  0  0  0  0  0
  -19.0303    9.9278  -17.1655 C   0  0  0  0  0  0  0  0  0  0  0  0
  -18.1178    9.7456  -18.1827 C   0  0  0  0  0  0  0  0  0  0  0  0
  -17.8096   10.7772  -19.0431 C   0  0  0  0  0  0  0  0  0  0  0  0
  -18.4206   11.9887  -18.8767 C   0  0  0  0  0  0  0  0  0  0  0  0
  -19.3393   12.1413  -17.8363 C   0  0  0  0  0  0  0  0  0  0  0  0
  -21.1939   12.7553  -15.9844 C   0  0  0  0  0  0  0  0  0  0  0  0
  -20.6599   11.3424  -15.8589 C   0  0  0  0  0  0  0  0  0  0  0  0
  -19.9567   11.2463  -14.5254 C   0  0  0  0  0  0  0  0  0  0  0  0
  -21.7754   10.3183  -15.9102 C   0  0  0  0  0  0  0  0  0  0  0  0
  -15.8438   11.5599  -22.2478 C   0  0  0  0  0  0  0  0  0  0  0  0
  -16.0477   12.7144  -23.1554 C   0  0  0  0  0  0  0  0  0  0  0  0
  -14.9001   13.3429  -23.6811 C   0  0  0  0  0  0  0  0  0  0  0  0
  -15.0093   14.3965  -24.5507 C   0  0  0  0  0  0  0  0  0  0  0  0
  -16.2380   14.9070  -24.9651 C   0  0  0  0  0  0  0  0  0  0  0  0
  -17.3666   14.2990  -24.4542 C   0  0  0  0  0  0  0  0  0  0  0  0
  -18.5892   14.7534  -24.8299 F   0  0  0  0  0  0  0  0  0  0  0  0
  -17.2478   13.2233  -23.5663 C   0  0  0  0  0  0  0  0  0  0  0  0
  -16.2851   16.0139  -25.9001 C   0  0  0  0  0  0  0  0  0  0  0  0
  -15.9535   15.7863  -27.0968 O   0  0  0  0  0  0  0  0  0  0  0  0
  -16.6767   17.2637  -25.5057 O   0  0  0  0  0  0  0  0  0  0  0  0
  -17.6451   17.6015  -25.4860 H   0  0  0  0  0  0  0  0  0  0  0  0
 11 12  1  0  0  0
 12 13  1  0  0  0
 12 14  1  0  0  0
 12  5  1  0  0  0
  5  6  2  0  0  0
  6  7  1  0  0  0
  7  8  2  0  0  0
  8  1  1  0  0  0
  1  2  2  0  0  0
  1  3  1  0  0  0
  3 15  1  0  0  0
 15 16  1  0  0  0
 16 17  2  0  0  0
 17 18  1  0  0  0
 18 19  2  0  0  0
 19 23  1  0  0  0
 23 24  2  0  0  0
 23 25  1  0  0  0
 19 20  1  0  0  0
 20 21  1  0  0  0
 20 22  2  0  0  0
  8  9  1  0  0  0
  9 10  2  0  0  0
 10  5  1  0  0  0
 22 16  1  0  0  0
  3  4  1  0  0  0
 25 26  1  0  0  0
M  END
> <minimizedAffinity>
-8.98473

> <CNNscore>
0.6639447212

> <CNNaffinity>
5.9703812599

> <CNN_VS>
3.9640030861

> <CNNaffinity_variance>
0.1380467117

$$$$
[H]OC(=O)c1c([H])c([H])c(C([H])([H])N([H])C(=O)c2c([H])c([H])c(C(C([H])([H])[H])(C([H])([H])[H])C([H])([H])[H])c([H])c2[H])c([H])c1F


 26 27  0  0  0  0  0  0  0  0999 V2000
  -16.1674   11.0239  -21.2458 C   0  0  0  0  0  0  0  0  0  0  0  0
  -15.3480   10.0586  -21.2632 O   0  0  0  0  0  0  0  0  0  0  0  0
  -17.0834   11.1203  -20.1913 N   0  0  0  0  0  0  0  0  0  0  0  0
  -17.7512   11.9515  -20.1989 H   0  0  0  0  0  0  0  0  0  0  0  0
  -16.1110   13.9948  -24.3103 C   0  0  0  0  0  0  0  0  0  0  0  0
  -17.2679   13.6949  -23.6163 C   0  0  0  0  0  0  0  0  0  0  0  0
  -17.2997   12.7313  -22.6307 C   0  0  0  0  0  0  0  0  0  0  0  0
  -16.1630   12.0248  -22.3021 C   0  0  0  0  0  0  0  0  0  0  0  0
  -14.9981   12.2905  -22.9663 C   0  0  0  0  0  0  0  0  0  0  0  0
  -14.9986   13.2730  -23.9584 C   0  0  0  0  0  0  0  0  0  0  0  0
  -16.6572   14.4307  -26.6370 C   0  0  0  0  0  0  0  0  0  0  0  0
  -16.0683   15.0407  -25.3808 C   0  0  0  0  0  0  0  0  0  0  0  0
  -14.6310   15.3921  -25.6850 C   0  0  0  0  0  0  0  0  0  0  0  0
  -16.8124   16.2945  -24.9684 C   0  0  0  0  0  0  0  0  0  0  0  0
  -17.2217   10.2341  -19.0743 C   0  0  0  0  0  0  0  0  0  0  0  0
  -18.3633   10.5873  -18.1965 C   0  0  0  0  0  0  0  0  0  0  0  0
  -18.8306    9.6009  -17.3037 C   0  0  0  0  0  0  0  0  0  0  0  0
  -19.8618    9.8635  -16.4400 C   0  0  0  0  0  0  0  0  0  0  0  0
  -20.5046   11.0988  -16.3877 C   0  0  0  0  0  0  0  0  0  0  0  0
  -20.0549   12.0697  -17.2593 C   0  0  0  0  0  0  0  0  0  0  0  0
  -20.6426   13.2931  -17.2457 F   0  0  0  0  0  0  0  0  0  0  0  0
  -19.0012   11.7946  -18.1389 C   0  0  0  0  0  0  0  0  0  0  0  0
  -21.5790   11.3175  -15.4393 C   0  0  0  0  0  0  0  0  0  0  0  0
  -21.3412   12.0546  -14.4423 O   0  0  0  0  0  0  0  0  0  0  0  0
  -22.8108   10.7493  -15.6143 O   0  0  0  0  0  0  0  0  0  0  0  0
  -23.5794   11.1586  -16.1565 H   0  0  0  0  0  0  0  0  0  0  0  0
 11 12  1  0  0  0
 12 13  1  0  0  0
 12 14  1  0  0  0
 12  5  1  0  0  0
  5  6  2  0  0  0
  6  7  1  0  0  0
  7  8  2  0  0  0
  8  1  1  0  0  0
  1  2  2  0  0  0
  1  3  1  0  0  0
  3 15  1  0  0  0
 15 16  1  0  0  0
 16 17  2  0  0  0
 17 18  1  0  0  0
 18 19  2  0  0  0
 19 23  1  0  0  0
 23 24  2  0  0  0
 23 25  1  0  0  0
 19 20  1  0  0  0
 20 21  1  0  0  0
 20 22  2  0  0  0
  8  9  1  0  0  0
  9 10  2  0  0  0
 10  5  1  0  0  0
 22 16  1  0  0  0
  3  4  1  0  0  0
 25 26  1  0  0  0
M  END
> <minimizedAffinity>
-8.25284

> <CNNscore>
0.6423149109

> <CNNaffinity>
5.9727768898

> <CNN_VS>
3.8364036083

> <CNNaffinity_variance>
0.2206834257

$$$$
[H]OC(=O)c1c([H])c([H])c(C([H])([H])N([H])C(=O)c2c([H])c([H])c(C(C([H])([H])[H])(C([H])([H])[H])C([H])([H])[H])c([H])c2[H])c([H])c1F


 26 27  0  0  0  0  0  0  0  0999 V2000
  -16.7235   10.8676  -20.4843 C   0  0  0  0  0  0  0  0  0  0  0  0
  -15.8640    9.9480  -20.6221 O   0  0  0  0  0  0  0  0  0  0  0  0
  -17.5699   10.8468  -19.3692 N   0  0  0  0  0  0  0  0  0  0  0  0
  -18.2739   11.6421  -19.2754 H   0  0  0  0  0  0  0  0  0  0  0  0
  -16.9915   14.0195  -23.3504 C   0  0  0  0  0  0  0  0  0  0  0  0
  -17.8080   13.9853  -22.2360 C   0  0  0  0  0  0  0  0  0  0  0  0
  -17.7362   12.9679  -21.3084 C   0  0  0  0  0  0  0  0  0  0  0  0
  -16.8359   11.9362  -21.4656 C   0  0  0  0  0  0  0  0  0  0  0  0
  -16.0110   11.9322  -22.5557 C   0  0  0  0  0  0  0  0  0  0  0  0
  -16.1078   12.9776  -23.4762 C   0  0  0  0  0  0  0  0  0  0  0  0
  -16.9826   14.4857  -25.7347 C   0  0  0  0  0  0  0  0  0  0  0  0
  -17.0628   15.1216  -24.3613 C   0  0  0  0  0  0  0  0  0  0  0  0
  -15.8576   16.0202  -24.2128 C   0  0  0  0  0  0  0  0  0  0  0  0
  -18.3236   15.9467  -24.2018 C   0  0  0  0  0  0  0  0  0  0  0  0
  -17.5921    9.8817  -18.3107 C   0  0  0  0  0  0  0  0  0  0  0  0
  -18.7785   10.0175  -17.4319 C   0  0  0  0  0  0  0  0  0  0  0  0
  -19.4479   11.2586  -17.4249 C   0  0  0  0  0  0  0  0  0  0  0  0
  -20.5699   11.4501  -16.6617 C   0  0  0  0  0  0  0  0  0  0  0  0
  -21.1133   10.4504  -15.8572 C   0  0  0  0  0  0  0  0  0  0  0  0
  -20.4637    9.2329  -15.8564 C   0  0  0  0  0  0  0  0  0  0  0  0
  -20.9547    8.2226  -15.0946 F   0  0  0  0  0  0  0  0  0  0  0  0
  -19.3180    9.0442  -16.6384 C   0  0  0  0  0  0  0  0  0  0  0  0
  -22.3124   10.7124  -15.0856 C   0  0  0  0  0  0  0  0  0  0  0  0
  -22.1844   11.3352  -13.9949 O   0  0  0  0  0  0  0  0  0  0  0  0
  -23.5431   10.3033  -15.5202 O   0  0  0  0  0  0  0  0  0  0  0  0
  -24.1597   10.8394  -16.1405 H   0  0  0  0  0  0  0  0  0  0  0  0
 11 12  1  0  0  0
 12 13  1  0  0  0
 12 14  1  0  0  0
 12  5  1  0  0  0
  5  6  2  0  0  0
  6  7  1  0  0  0
  7  8  2  0  0  0
  8  1  1  0  0  0
  1  2  2  0  0  0
  1  3  1  0  0  0
  3 15  1  0  0  0
 15 16  1  0  0  0
 16 17  2  0  0  0
 17 18  1  0  0  0
 18 19  2  0  0  0
 19 23  1  0  0  0
 23 24  2  0  0  0
 23 25  1  0  0  0
 19 20  1  0  0  0
 20 21  1  0  0  0
 20 22  2  0  0  0
  8  9  1  0  0  0
  9 10  2  0  0  0
 10  5  1  0  0  0
 22 16  1  0  0  0
  3  4  1  0  0  0
 25 26  1  0  0  0
M  END
> <minimizedAffinity>
-8.08850

> <CNNscore>
0.6210319400

> <CNNaffinity>
5.8064360619

> <CNN_VS>
3.6059823036

> <CNNaffinity_variance>
0.2000371665

$$$$
[H]OC(=O)c1c([H])c([H])c(C([H])([H])N([H])C(=O)c2c([H])c([H])c(C(C([H])([H])[H])(C([H])([H])[H])C([H])([H])[H])c([H])c2[H])c([H])c1F


 26 27  0  0  0  0  0  0  0  0999 V2000
  -16.8955   10.9497  -20.0302 C   0  0  0  0  0  0  0  0  0  0  0  0
  -15.7805   10.3505  -20.0608 O   0  0  0  0  0  0  0  0  0  0  0  0
  -17.2593   11.7660  -21.1081 N   0  0  0  0  0  0  0  0  0  0  0  0
  -18.2099   12.2464  -21.0579 H   0  0  0  0  0  0  0  0  0  0  0  0
  -19.5610   10.4525  -16.7335 C   0  0  0  0  0  0  0  0  0  0  0  0
  -19.4870   11.6444  -17.4290 C   0  0  0  0  0  0  0  0  0  0  0  0
  -18.6237   11.8190  -18.4897 C   0  0  0  0  0  0  0  0  0  0  0  0
  -17.7936   10.7965  -18.8956 C   0  0  0  0  0  0  0  0  0  0  0  0
  -17.8352    9.6016  -18.2327 C   0  0  0  0  0  0  0  0  0  0  0  0
  -18.7212    9.4563  -17.1633 C   0  0  0  0  0  0  0  0  0  0  0  0
  -20.7314    8.7646  -15.4361 C   0  0  0  0  0  0  0  0  0  0  0  0
  -20.4968   10.2549  -15.5816 C   0  0  0  0  0  0  0  0  0  0  0  0
  -21.8302   10.8890  -15.9010 C   0  0  0  0  0  0  0  0  0  0  0  0
  -19.9490   10.8602  -14.3052 C   0  0  0  0  0  0  0  0  0  0  0  0
  -16.5058   12.0229  -22.2991 C   0  0  0  0  0  0  0  0  0  0  0  0
  -16.7850   13.3577  -22.8809 C   0  0  0  0  0  0  0  0  0  0  0  0
  -17.0999   14.4054  -21.9912 C   0  0  0  0  0  0  0  0  0  0  0  0
  -17.3398   15.6736  -22.4523 C   0  0  0  0  0  0  0  0  0  0  0  0
  -17.2896   16.0054  -23.8048 C   0  0  0  0  0  0  0  0  0  0  0  0
  -16.9839   14.9857  -24.6830 C   0  0  0  0  0  0  0  0  0  0  0  0
  -16.9163   15.2560  -26.0114 F   0  0  0  0  0  0  0  0  0  0  0  0
  -16.7400   13.6927  -24.2052 C   0  0  0  0  0  0  0  0  0  0  0  0
  -17.5381   17.3701  -24.2263 C   0  0  0  0  0  0  0  0  0  0  0  0
  -18.6125   17.9150  -23.8486 O   0  0  0  0  0  0  0  0  0  0  0  0
  -16.6420   18.0499  -25.0045 O   0  0  0  0  0  0  0  0  0  0  0  0
  -15.8486   18.5969  -24.6529 H   0  0  0  0  0  0  0  0  0  0  0  0
 11 12  1  0  0  0
 12 13  1  0  0  0
 12 14  1  0  0  0
 12  5  1  0  0  0
  5  6  2  0  0  0
  6  7  1  0  0  0
  7  8  2  0  0  0
  8  1  1  0  0  0
  1  2  2  0  0  0
  1  3  1  0  0  0
  3 15  1  0  0  0
 15 16  1  0  0  0
 16 17  2  0  0  0
 17 18  1  0  0  0
 18 19  2  0  0  0
 19 23  1  0  0  0
 23 24  2  0  0  0
 23 25  1  0  0  0
 19 20  1  0  0  0
 20 21  1  0  0  0
 20 22  2  0  0  0
  8  9  1  0  0  0
  9 10  2  0  0  0
 10  5  1  0  0  0
 22 16  1  0  0  0
  3  4  1  0  0  0
 25 26  1  0  0  0
M  END
> <minimizedAffinity>
-8.39078

> <CNNscore>
0.6174620390

> <CNNaffinity>
5.9213147163

> <CNN_VS>
3.6561870575

> <CNNaffinity_variance>
0.2330313921

$$$$
[H]OC(=O)c1c([H])c([H])c(C([H])([H])N([H])C(=O)c2c([H])c([H])c(C(C([H])([H])[H])(C([H])([H])[H])C([H])([H])[H])c([H])c2[H])c([H])c1F


 26 27  0  0  0  0  0  0  0  0999 V2000
  -16.7386   10.8206  -20.5178 C   0  0  0  0  0  0  0  0  0  0  0  0
  -15.9721    9.8301  -20.7046 O   0  0  0  0  0  0  0  0  0  0  0  0
  -17.5329   10.8587  -19.3654 N   0  0  0  0  0  0  0  0  0  0  0  0
  -18.1578   11.7121  -19.2310 H   0  0  0  0  0  0  0  0  0  0  0  0
  -16.9759   13.9999  -23.3561 C   0  0  0  0  0  0  0  0  0  0  0  0
  -16.0987   12.9454  -23.5245 C   0  0  0  0  0  0  0  0  0  0  0  0
  -16.0075   11.9177  -22.6100 C   0  0  0  0  0  0  0  0  0  0  0  0
  -16.7982   11.9094  -21.4813 C   0  0  0  0  0  0  0  0  0  0  0  0
  -17.6782   12.9354  -21.2768 C   0  0  0  0  0  0  0  0  0  0  0  0
  -17.7475   13.9605  -22.2223 C   0  0  0  0  0  0  0  0  0  0  0  0
  -16.0538   16.1644  -23.9619 C   0  0  0  0  0  0  0  0  0  0  0  0
  -17.0817   15.1187  -24.3454 C   0  0  0  0  0  0  0  0  0  0  0  0
  -18.4422   15.7652  -24.2314 C   0  0  0  0  0  0  0  0  0  0  0  0
  -16.8779   14.6313  -25.7655 C   0  0  0  0  0  0  0  0  0  0  0  0
  -17.5944    9.8838  -18.3175 C   0  0  0  0  0  0  0  0  0  0  0  0
  -18.7862   10.0445  -17.4503 C   0  0  0  0  0  0  0  0  0  0  0  0
  -19.4423   11.2926  -17.4661 C   0  0  0  0  0  0  0  0  0  0  0  0
  -20.5683   11.5066  -16.7146 C   0  0  0  0  0  0  0  0  0  0  0  0
  -21.1286   10.5241  -15.9006 C   0  0  0  0  0  0  0  0  0  0  0  0
  -20.4920    9.2999  -15.8775 C   0  0  0  0  0  0  0  0  0  0  0  0
  -20.9997    8.3057  -15.1056 F   0  0  0  0  0  0  0  0  0  0  0  0
  -19.3423    9.0882  -16.6476 C   0  0  0  0  0  0  0  0  0  0  0  0
  -22.3309   10.8096  -15.1424 C   0  0  0  0  0  0  0  0  0  0  0  0
  -22.2171   11.5255  -14.1087 O   0  0  0  0  0  0  0  0  0  0  0  0
  -23.5497   10.3247  -15.5298 O   0  0  0  0  0  0  0  0  0  0  0  0
  -24.1882   10.7860  -16.1869 H   0  0  0  0  0  0  0  0  0  0  0  0
 11 12  1  0  0  0
 12 13  1  0  0  0
 12 14  1  0  0  0
 12  5  1  0  0  0
  5  6  2  0  0  0
  6  7  1  0  0  0
  7  8  2  0  0  0
  8  1  1  0  0  0
  1  2  2  0  0  0
  1  3  1  0  0  0
  3 15  1  0  0  0
 15 16  1  0  0  0
 16 17  2  0  0  0
 17 18  1  0  0  0
 18 19  2  0  0  0
 19 23  1  0  0  0
 23 24  2  0  0  0
 23 25  1  0  0  0
 19 20  1  0  0  0
 20 21  1  0  0  0
 20 22  2  0  0  0
  8  9  1  0  0  0
  9 10  2  0  0  0
 10  5  1  0  0  0
 22 16  1  0  0  0
  3  4  1  0  0  0
 25 26  1  0  0  0
M  END
> <minimizedAffinity>
-8.06487

> <CNNscore>
0.5989633203

> <CNNaffinity>
5.7770056725

> <CNN_VS>
3.4602146149

> <CNNaffinity_variance>
0.1796912551

$$$$
[H]OC(=O)c1c([H])c([H])c(C([H])([H])N([H])C(=O)c2c([H])c([H])c(C(C([H])([H])[H])(C([H])([H])[H])C([H])([H])[H])c([H])c2[H])c([H])c1F


 26 27  0  0  0  0  0  0  0  0999 V2000
  -17.1754   10.6530  -19.7985 C   0  0  0  0  0  0  0  0  0  0  0  0
  -16.3262    9.7414  -20.0246 O   0  0  0  0  0  0  0  0  0  0  0  0
  -17.9611   10.5797  -18.6419 N   0  0  0  0  0  0  0  0  0  0  0  0
  -18.6576   11.3693  -18.4737 H   0  0  0  0  0  0  0  0  0  0  0  0
  -17.5896   13.9342  -22.4972 C   0  0  0  0  0  0  0  0  0  0  0  0
  -18.3256   13.8619  -21.3297 C   0  0  0  0  0  0  0  0  0  0  0  0
  -18.2063   12.8028  -20.4551 C   0  0  0  0  0  0  0  0  0  0  0  0
  -17.3380   11.7662  -20.7214 C   0  0  0  0  0  0  0  0  0  0  0  0
  -16.5925   11.7991  -21.8669 C   0  0  0  0  0  0  0  0  0  0  0  0
  -16.7356   12.8862  -22.7314 C   0  0  0  0  0  0  0  0  0  0  0  0
  -18.2353   14.5296  -24.7623 C   0  0  0  0  0  0  0  0  0  0  0  0
  -17.7127   15.0816  -23.4511 C   0  0  0  0  0  0  0  0  0  0  0  0
  -16.3439   15.6602  -23.7226 C   0  0  0  0  0  0  0  0  0  0  0  0
  -18.6152   16.1692  -22.9049 C   0  0  0  0  0  0  0  0  0  0  0  0
  -17.9286    9.5662  -17.6299 C   0  0  0  0  0  0  0  0  0  0  0  0
  -19.1919    9.4816  -16.8584 C   0  0  0  0  0  0  0  0  0  0  0  0
  -19.4683    8.2723  -16.1879 C   0  0  0  0  0  0  0  0  0  0  0  0
  -20.6011    8.1296  -15.4298 C   0  0  0  0  0  0  0  0  0  0  0  0
  -21.5371    9.1503  -15.2744 C   0  0  0  0  0  0  0  0  0  0  0  0
  -21.2755   10.3369  -15.9286 C   0  0  0  0  0  0  0  0  0  0  0  0
  -22.1521   11.3659  -15.8061 F   0  0  0  0  0  0  0  0  0  0  0  0
  -20.1165   10.4758  -16.7013 C   0  0  0  0  0  0  0  0  0  0  0  0
  -22.7076    8.9406  -14.4452 C   0  0  0  0  0  0  0  0  0  0  0  0
  -23.5894    8.1408  -14.8656 O   0  0  0  0  0  0  0  0  0  0  0  0
  -22.8562    9.5825  -13.2466 O   0  0  0  0  0  0  0  0  0  0  0  0
  -22.5003    9.2439  -12.3461 H   0  0  0  0  0  0  0  0  0  0  0  0
 11 12  1  0  0  0
 12 13  1  0  0  0
 12 14  1  0  0  0
 12  5  1  0  0  0
  5  6  2  0  0  0
  6  7  1  0  0  0
  7  8  2  0  0  0
  8  1  1  0  0  0
  1  2  2  0  0  0
  1  3  1  0  0  0
  3 15  1  0  0  0
 15 16  1  0  0  0
 16 17  2  0  0  0
 17 18  1  0  0  0
 18 19  2  0  0  0
 19 23  1  0  0  0
 23 24  2  0  0  0
 23 25  1  0  0  0
 19 20  1  0  0  0
 20 21  1  0  0  0
 20 22  2  0  0  0
  8  9  1  0  0  0
  9 10  2  0  0  0
 10  5  1  0  0  0
 22 16  1  0  0  0
  3  4  1  0  0  0
 25 26  1  0  0  0
M  END
> <minimizedAffinity>
-7.65152

> <CNNscore>
0.5788897276

> <CNNaffinity>
5.6616196632

> <CNN_VS>
3.2774534225

> <CNNaffinity_variance>
0.3409345746

$$$$
[H]OC(=O)c1c([H])c([H])c(C([H])([H])N([H])C(=O)c2c([H])c([H])c(C(C([H])([H])[H])(C([H])([H])[H])C([H])([H])[H])c([H])c2[H])c([H])c1F


 26 27  0  0  0  0  0  0  0  0999 V2000
  -17.0125   11.0335  -20.0398 C   0  0  0  0  0  0  0  0  0  0  0  0
  -15.9444   10.3636  -20.1567 O   0  0  0  0  0  0  0  0  0  0  0  0
  -17.3623   11.9386  -21.0492 N   0  0  0  0  0  0  0  0  0  0  0  0
  -18.2740   12.4778  -20.9273 H   0  0  0  0  0  0  0  0  0  0  0  0
  -19.5678   10.5104  -16.6609 C   0  0  0  0  0  0  0  0  0  0  0  0
  -19.4487   11.7331  -17.2939 C   0  0  0  0  0  0  0  0  0  0  0  0
  -18.6200   11.9157  -18.3805 C   0  0  0  0  0  0  0  0  0  0  0  0
  -17.8716   10.8701  -18.8767 C   0  0  0  0  0  0  0  0  0  0  0  0
  -17.9599    9.6445  -18.2778 C   0  0  0  0  0  0  0  0  0  0  0  0
  -18.8091    9.4920  -17.1800 C   0  0  0  0  0  0  0  0  0  0  0  0
  -20.2359   11.4578  -14.5259 C   0  0  0  0  0  0  0  0  0  0  0  0
  -20.4666   10.3041  -15.4813 C   0  0  0  0  0  0  0  0  0  0  0  0
  -20.0682    9.0383  -14.7595 C   0  0  0  0  0  0  0  0  0  0  0  0
  -21.9206   10.2059  -15.8959 C   0  0  0  0  0  0  0  0  0  0  0  0
  -16.6423   12.2184  -22.2557 C   0  0  0  0  0  0  0  0  0  0  0  0
  -16.8117   13.6174  -22.7165 C   0  0  0  0  0  0  0  0  0  0  0  0
  -17.6803   13.8468  -23.8034 C   0  0  0  0  0  0  0  0  0  0  0  0
  -17.9111   15.1161  -24.2656 C   0  0  0  0  0  0  0  0  0  0  0  0
  -17.3142   16.2428  -23.7032 C   0  0  0  0  0  0  0  0  0  0  0  0
  -16.4611   16.0276  -22.6400 C   0  0  0  0  0  0  0  0  0  0  0  0
  -15.8576   17.0913  -22.0514 F   0  0  0  0  0  0  0  0  0  0  0  0
  -16.2298   14.7283  -22.1730 C   0  0  0  0  0  0  0  0  0  0  0  0
  -17.6128   17.5604  -24.2290 C   0  0  0  0  0  0  0  0  0  0  0  0
  -18.6954   18.1034  -23.8725 O   0  0  0  0  0  0  0  0  0  0  0  0
  -16.7541   18.1992  -25.0807 O   0  0  0  0  0  0  0  0  0  0  0  0
  -15.9707   18.7959  -24.7934 H   0  0  0  0  0  0  0  0  0  0  0  0
 11 12  1  0  0  0
 12 13  1  0  0  0
 12 14  1  0  0  0
 12  5  1  0  0  0
  5  6  2  0  0  0
  6  7  1  0  0  0
  7  8  2  0  0  0
  8  1  1  0  0  0
  1  2  2  0  0  0
  1  3  1  0  0  0
  3 15  1  0  0  0
 15 16  1  0  0  0
 16 17  2  0  0  0
 17 18  1  0  0  0
 18 19  2  0  0  0
 19 23  1  0  0  0
 23 24  2  0  0  0
 23 25  1  0  0  0
 19 20  1  0  0  0
 20 21  1  0  0  0
 20 22  2  0  0  0
  8  9  1  0  0  0
  9 10  2  0  0  0
 10  5  1  0  0  0
 22 16  1  0  0  0
  3  4  1  0  0  0
 25 26  1  0  0  0
M  END
> <minimizedAffinity>
-8.32340

> <CNNscore>
0.5719743371

> <CNNaffinity>
5.8218202591

> <CNN_VS>
3.3299317360

> <CNNaffinity_variance>
0.1587958783

$$$$
[H]OC(=O)c1c([H])c([H])c(C([H])([H])N([H])C(=O)c2c([H])c([H])c(C(C([H])([H])[H])(C([H])([H])[H])C([H])([H])[H])c([H])c2[H])c([H])c1F


 26 27  0  0  0  0  0  0  0  0999 V2000
  -15.8731   11.1125  -21.6467 C   0  0  0  0  0  0  0  0  0  0  0  0
  -14.9244   10.2770  -21.5742 O   0  0  0  0  0  0  0  0  0  0  0  0
  -16.9357   11.0162  -20.7400 N   0  0  0  0  0  0  0  0  0  0  0  0
  -17.7124   11.7423  -20.8190 H   0  0  0  0  0  0  0  0  0  0  0  0
  -15.8820   14.1520  -24.6438 C   0  0  0  0  0  0  0  0  0  0  0  0
  -14.7039   13.6833  -24.0940 C   0  0  0  0  0  0  0  0  0  0  0  0
  -14.6895   12.7082  -23.1194 C   0  0  0  0  0  0  0  0  0  0  0  0
  -15.8665   12.1627  -22.6540 C   0  0  0  0  0  0  0  0  0  0  0  0
  -17.0539   12.6001  -23.1712 C   0  0  0  0  0  0  0  0  0  0  0  0
  -17.0345   13.5880  -24.1579 C   0  0  0  0  0  0  0  0  0  0  0  0
  -16.7489   16.3564  -25.1832 C   0  0  0  0  0  0  0  0  0  0  0  0
  -15.9056   15.2095  -25.7033 C   0  0  0  0  0  0  0  0  0  0  0  0
  -16.5925   14.6719  -26.9367 C   0  0  0  0  0  0  0  0  0  0  0  0
  -14.5080   15.6664  -26.0693 C   0  0  0  0  0  0  0  0  0  0  0  0
  -17.0992   10.0568  -19.6888 C   0  0  0  0  0  0  0  0  0  0  0  0
  -17.9896   10.5362  -18.6045 C   0  0  0  0  0  0  0  0  0  0  0  0
  -18.1691   11.9288  -18.4742 C   0  0  0  0  0  0  0  0  0  0  0  0
  -19.0010   12.4456  -17.5155 C   0  0  0  0  0  0  0  0  0  0  0  0
  -19.7109   11.6448  -16.6229 C   0  0  0  0  0  0  0  0  0  0  0  0
  -19.5399   10.2806  -16.7421 C   0  0  0  0  0  0  0  0  0  0  0  0
  -20.2127    9.4545  -15.9012 F   0  0  0  0  0  0  0  0  0  0  0  0
  -18.6886    9.7595  -17.7236 C   0  0  0  0  0  0  0  0  0  0  0  0
  -20.5874   12.2536  -15.6417 C   0  0  0  0  0  0  0  0  0  0  0  0
  -21.5283   12.9808  -16.0659 O   0  0  0  0  0  0  0  0  0  0  0  0
  -20.4076   12.0493  -14.3013 O   0  0  0  0  0  0  0  0  0  0  0  0
  -20.8036   11.2708  -13.7632 H   0  0  0  0  0  0  0  0  0  0  0  0
 11 12  1  0  0  0
 12 13  1  0  0  0
 12 14  1  0  0  0
 12  5  1  0  0  0
  5  6  2  0  0  0
  6  7  1  0  0  0
  7  8  2  0  0  0
  8  1  1  0  0  0
  1  2  2  0  0  0
  1  3  1  0  0  0
  3 15  1  0  0  0
 15 16  1  0  0  0
 16 17  2  0  0  0
 17 18  1  0  0  0
 18 19  2  0  0  0
 19 23  1  0  0  0
 23 24  2  0  0  0
 23 25  1  0  0  0
 19 20  1  0  0  0
 20 21  1  0  0  0
 20 22  2  0  0  0
  8  9  1  0  0  0
  9 10  2  0  0  0
 10  5  1  0  0  0
 22 16  1  0  0  0
  3  4  1  0  0  0
 25 26  1  0  0  0
M  END
> <minimizedAffinity>
-8.03865

> <CNNscore>
0.5703188777

> <CNNaffinity>
5.8413801193

> <CNN_VS>
3.3314492702

> <CNNaffinity_variance>
0.1591009796

$$$$
[H]Oc1c([H])c(O[H])c([H])c([C@@]([H])(O[H])C([H])([H])N([H])[C@@]([H])(C([H])([H])[H])C([H])([H])c2c([H])c([H])c(OC([H])([H])[H])c([H])c2[H])c1[H]


 27 28  0  0  0  0  0  0  0  0999 V2000
  -18.1465   16.6485  -20.3246 C   0  0  0  0  0  0  0  0  0  0  0  0
  -16.7461   16.2544  -20.6389 C   0  0  0  0  0  0  0  0  0  0  0  0
  -15.8719   17.3455  -20.2776 O   0  0  0  0  0  0  0  0  0  0  0  0
  -15.3275   17.0115  -19.5465 H   0  0  0  0  0  0  0  0  0  0  0  0
  -16.4612   16.0666  -22.0969 C   0  0  0  0  0  0  0  0  0  0  0  0
  -16.0024   14.9018  -22.6369 C   0  0  0  0  0  0  0  0  0  0  0  0
  -15.7514   14.7676  -24.0069 C   0  0  0  0  0  0  0  0  0  0  0  0
  -15.2854   13.5922  -24.5705 O   0  0  0  0  0  0  0  0  0  0  0  0
  -15.9793   15.8500  -24.8182 C   0  0  0  0  0  0  0  0  0  0  0  0
  -16.4407   17.0472  -24.3327 C   0  0  0  0  0  0  0  0  0  0  0  0
  -16.6599   18.1206  -25.1858 O   0  0  0  0  0  0  0  0  0  0  0  0
  -16.6738   17.1332  -22.9767 C   0  0  0  0  0  0  0  0  0  0  0  0
  -16.0206   12.9363  -24.8788 H   0  0  0  0  0  0  0  0  0  0  0  0
  -17.6103   18.1626  -25.5840 H   0  0  0  0  0  0  0  0  0  0  0  0
  -18.6251   16.5645  -19.0218 N   0  0  0  0  0  0  0  0  0  0  0  0
  -18.5710   17.4523  -18.4619 H   0  0  0  0  0  0  0  0  0  0  0  0
  -18.7249   15.3880  -18.2949 C   0  0  0  0  0  0  0  0  0  0  0  0
  -19.0794   15.6087  -16.8524 C   0  0  0  0  0  0  0  0  0  0  0  0
  -19.5394   14.2803  -18.9052 C   0  0  0  0  0  0  0  0  0  0  0  0
  -16.8890   11.1124  -20.1561 C   0  0  0  0  0  0  0  0  0  0  0  0
  -17.5910   11.8692  -21.0706 C   0  0  0  0  0  0  0  0  0  0  0  0
  -18.4395   12.8881  -20.6697 C   0  0  0  0  0  0  0  0  0  0  0  0
  -18.6202   13.1917  -19.3322 C   0  0  0  0  0  0  0  0  0  0  0  0
  -17.9179   12.4347  -18.4155 C   0  0  0  0  0  0  0  0  0  0  0  0
  -17.0721   11.4183  -18.8240 C   0  0  0  0  0  0  0  0  0  0  0  0
  -15.0974   10.2271  -21.5820 C   0  0  0  0  0  0  0  0  0  0  0  0
  -16.0296   10.0825  -20.5341 O   0  0  0  0  0  0  0  0  0  0  0  0
 26 27  1  0  0  0
 27 20  1  0  0  0
 20 21  2  0  0  0
 21 22  1  0  0  0
 22 23  2  0  0  0
 23 19  1  0  0  0
 19 17  1  0  0  0
 17 18  1  0  0  0
 17 15  1  0  0  0
 15  1  1  0  0  0
  1  2  1  0  0  0
  2  3  1  0  0  0
  2  5  1  0  0  0
  5  6  2  0  0  0
  6  7  1  0  0  0
  7  8  1  0  0  0
  7  9  2  0  0  0
  9 10  1  0  0  0
 10 11  1  0  0  0
 10 12  2  0  0  0
 23 24  1  0  0  0
 24 25  2  0  0  0
 25 20  1  0  0  0
 12  5  1  0  0  0
 15 16  1  0  0  0
  3  4  1  0  0  0
  8 13  1  0  0  0
 11 14  1  0  0  0
M  END
> <minimizedAffinity>
-7.15924

> <CNNscore>
0.6183435917

> <CNNaffinity>
5.7976360321

> <CNN_VS>
3.5849311352

> <CNNaffinity_variance>
0.0240565948

$$$$
[H]Oc1c([H])c(O[H])c([H])c([C@@]([H])(O[H])C([H])([H])N([H])[C@@]([H])(C([H])([H])[H])C([H])([H])c2c([H])c([H])c(OC([H])([H])[H])c([H])c2[H])c1[H]


 27 28  0  0  0  0  0  0  0  0999 V2000
  -18.8560   14.4804  -21.3602 C   0  0  0  0  0  0  0  0  0  0  0  0
  -19.0785   13.5421  -20.2266 C   0  0  0  0  0  0  0  0  0  0  0  0
  -18.7953   14.2390  -18.9939 O   0  0  0  0  0  0  0  0  0  0  0  0
  -19.6444   14.2967  -18.5268 H   0  0  0  0  0  0  0  0  0  0  0  0
  -18.1327   12.3821  -20.1796 C   0  0  0  0  0  0  0  0  0  0  0  0
  -17.1905   12.1317  -21.1327 C   0  0  0  0  0  0  0  0  0  0  0  0
  -16.3235   11.0366  -21.0489 C   0  0  0  0  0  0  0  0  0  0  0  0
  -15.3620   10.7686  -22.0081 O   0  0  0  0  0  0  0  0  0  0  0  0
  -16.4374   10.1990  -19.9686 C   0  0  0  0  0  0  0  0  0  0  0  0
  -17.3654   10.3999  -18.9785 C   0  0  0  0  0  0  0  0  0  0  0  0
  -17.4500    9.5300  -17.8995 O   0  0  0  0  0  0  0  0  0  0  0  0
  -18.1983   11.4914  -19.1030 C   0  0  0  0  0  0  0  0  0  0  0  0
  -14.4443   11.2104  -21.8393 H   0  0  0  0  0  0  0  0  0  0  0  0
  -16.8559    9.7865  -17.0964 H   0  0  0  0  0  0  0  0  0  0  0  0
  -18.7250   15.8451  -21.1282 N   0  0  0  0  0  0  0  0  0  0  0  0
  -19.6123   16.4036  -21.2016 H   0  0  0  0  0  0  0  0  0  0  0  0
  -17.5420   16.5557  -21.2623 C   0  0  0  0  0  0  0  0  0  0  0  0
  -17.3959   17.6622  -20.2575 C   0  0  0  0  0  0  0  0  0  0  0  0
  -16.2777   15.7508  -21.3919 C   0  0  0  0  0  0  0  0  0  0  0  0
  -15.1250   15.6055  -25.5482 C   0  0  0  0  0  0  0  0  0  0  0  0
  -14.8770   14.5522  -24.6933 C   0  0  0  0  0  0  0  0  0  0  0  0
  -15.2495   14.5971  -23.3599 C   0  0  0  0  0  0  0  0  0  0  0  0
  -15.8878   15.7025  -22.8264 C   0  0  0  0  0  0  0  0  0  0  0  0
  -16.1367   16.7579  -23.6813 C   0  0  0  0  0  0  0  0  0  0  0  0
  -15.7613   16.7052  -25.0123 C   0  0  0  0  0  0  0  0  0  0  0  0
  -15.7107   15.4728  -27.9285 C   0  0  0  0  0  0  0  0  0  0  0  0
  -14.7603   15.5844  -26.8931 O   0  0  0  0  0  0  0  0  0  0  0  0
 26 27  1  0  0  0
 27 20  1  0  0  0
 20 21  2  0  0  0
 21 22  1  0  0  0
 22 23  2  0  0  0
 23 19  1  0  0  0
 19 17  1  0  0  0
 17 18  1  0  0  0
 17 15  1  0  0  0
 15  1  1  0  0  0
  1  2  1  0  0  0
  2  3  1  0  0  0
  2  5  1  0  0  0
  5  6  2  0  0  0
  6  7  1  0  0  0
  7  8  1  0  0  0
  7  9  2  0  0  0
  9 10  1  0  0  0
 10 11  1  0  0  0
 10 12  2  0  0  0
 23 24  1  0  0  0
 24 25  2  0  0  0
 25 20  1  0  0  0
 12  5  1  0  0  0
 15 16  1  0  0  0
  3  4  1  0  0  0
  8 13  1  0  0  0
 11 14  1  0  0  0
M  END
> <minimizedAffinity>
-7.53618

> <CNNscore>
0.5469214916

> <CNNaffinity>
6.0795135498

> <CNN_VS>
3.3250167370

> <CNNaffinity_variance>
0.0464698337

$$$$
[H]Oc1c([H])c(O[H])c([H])c([C@@]([H])(O[H])C([H])([H])N([H])[C@@]([H])(C([H])([H])[H])C([H])([H])c2c([H])c([H])c(OC([H])([H])[H])c([H])c2[H])c1[H]


 27 28  0  0  0  0  0  0  0  0999 V2000
  -18.4975   14.6330  -19.2847 C   0  0  0  0  0  0  0  0  0  0  0  0
  -19.4332   13.4896  -19.4635 C   0  0  0  0  0  0  0  0  0  0  0  0
  -20.6132   13.7356  -18.6682 O   0  0  0  0  0  0  0  0  0  0  0  0
  -21.3374   13.8470  -19.3049 H   0  0  0  0  0  0  0  0  0  0  0  0
  -18.9349   12.1834  -18.9271 C   0  0  0  0  0  0  0  0  0  0  0  0
  -19.5005   11.5305  -17.8722 C   0  0  0  0  0  0  0  0  0  0  0  0
  -19.0045   10.3088  -17.4038 C   0  0  0  0  0  0  0  0  0  0  0  0
  -19.5671    9.6337  -16.3342 O   0  0  0  0  0  0  0  0  0  0  0  0
  -17.9158    9.7642  -18.0361 C   0  0  0  0  0  0  0  0  0  0  0  0
  -17.3048   10.3743  -19.1022 C   0  0  0  0  0  0  0  0  0  0  0  0
  -16.2045    9.7915  -19.7168 O   0  0  0  0  0  0  0  0  0  0  0  0
  -17.8276   11.5764  -19.5290 C   0  0  0  0  0  0  0  0  0  0  0  0
  -20.3146    8.9672  -16.5852 H   0  0  0  0  0  0  0  0  0  0  0  0
  -16.4370    9.1530  -20.4926 H   0  0  0  0  0  0  0  0  0  0  0  0
  -18.4022   15.6224  -20.2570 N   0  0  0  0  0  0  0  0  0  0  0  0
  -19.3163   16.0260  -20.5827 H   0  0  0  0  0  0  0  0  0  0  0  0
  -17.3230   15.7830  -21.1125 C   0  0  0  0  0  0  0  0  0  0  0  0
  -16.3497   16.8298  -20.6518 C   0  0  0  0  0  0  0  0  0  0  0  0
  -16.6219   14.5307  -21.5632 C   0  0  0  0  0  0  0  0  0  0  0  0
  -16.5903   14.4508  -25.8779 C   0  0  0  0  0  0  0  0  0  0  0  0
  -15.4260   14.5788  -25.1500 C   0  0  0  0  0  0  0  0  0  0  0  0
  -15.4353   14.6014  -23.7650 C   0  0  0  0  0  0  0  0  0  0  0  0
  -16.6150   14.4965  -23.0501 C   0  0  0  0  0  0  0  0  0  0  0  0
  -17.7815   14.3682  -23.7777 C   0  0  0  0  0  0  0  0  0  0  0  0
  -17.7638   14.3464  -25.1614 C   0  0  0  0  0  0  0  0  0  0  0  0
  -15.9762   15.4173  -28.0495 C   0  0  0  0  0  0  0  0  0  0  0  0
  -16.6071   14.4252  -27.2713 O   0  0  0  0  0  0  0  0  0  0  0  0
 26 27  1  0  0  0
 27 20  1  0  0  0
 20 21  2  0  0  0
 21 22  1  0  0  0
 22 23  2  0  0  0
 23 19  1  0  0  0
 19 17  1  0  0  0
 17 18  1  0  0  0
 17 15  1  0  0  0
 15  1  1  0  0  0
  1  2  1  0  0  0
  2  3  1  0  0  0
  2  5  1  0  0  0
  5  6  2  0  0  0
  6  7  1  0  0  0
  7  8  1  0  0  0
  7  9  2  0  0  0
  9 10  1  0  0  0
 10 11  1  0  0  0
 10 12  2  0  0  0
 23 24  1  0  0  0
 24 25  2  0  0  0
 25 20  1  0  0  0
 12  5  1  0  0  0
 15 16  1  0  0  0
  3  4  1  0  0  0
  8 13  1  0  0  0
 11 14  1  0  0  0
M  END
> <minimizedAffinity>
-7.32053

> <CNNscore>
0.5161949396

> <CNNaffinity>
5.6505594254

> <CNN_VS>
2.9167902470

> <CNNaffinity_variance>
0.0048605278

$$$$
[H]Oc1c([H])c(O[H])c([H])c([C@@]([H])(O[H])C([H])([H])N([H])[C@@]([H])(C([H])([H])[H])C([H])([H])c2c([H])c([H])c(OC([H])([H])[H])c([H])c2[H])c1[H]


 27 28  0  0  0  0  0  0  0  0999 V2000
  -18.4403   14.7260  -19.3637 C   0  0  0  0  0  0  0  0  0  0  0  0
  -18.9333   13.5624  -20.1499 C   0  0  0  0  0  0  0  0  0  0  0  0
  -19.6085   12.6562  -19.2511 O   0  0  0  0  0  0  0  0  0  0  0  0
  -20.5400   12.6647  -19.5244 H   0  0  0  0  0  0  0  0  0  0  0  0
  -17.8569   12.7060  -20.7418 C   0  0  0  0  0  0  0  0  0  0  0  0
  -17.2517   12.9644  -21.9359 C   0  0  0  0  0  0  0  0  0  0  0  0
  -16.2468   12.1387  -22.4521 C   0  0  0  0  0  0  0  0  0  0  0  0
  -15.6229   12.3872  -23.6626 O   0  0  0  0  0  0  0  0  0  0  0  0
  -15.8700   11.0400  -21.7224 C   0  0  0  0  0  0  0  0  0  0  0  0
  -16.4422   10.7292  -20.5149 C   0  0  0  0  0  0  0  0  0  0  0  0
  -16.0335    9.6081  -19.8049 O   0  0  0  0  0  0  0  0  0  0  0  0
  -17.4281   11.5708  -20.0458 C   0  0  0  0  0  0  0  0  0  0  0  0
  -14.7804   12.9811  -23.6038 H   0  0  0  0  0  0  0  0  0  0  0  0
  -15.2566    9.7780  -19.1483 H   0  0  0  0  0  0  0  0  0  0  0  0
  -18.9086   16.0069  -19.6345 N   0  0  0  0  0  0  0  0  0  0  0  0
  -19.2290   16.5575  -18.7985 H   0  0  0  0  0  0  0  0  0  0  0  0
  -19.3959   16.4225  -20.8642 C   0  0  0  0  0  0  0  0  0  0  0  0
  -20.8564   16.7714  -20.8378 C   0  0  0  0  0  0  0  0  0  0  0  0
  -18.5893   17.4579  -21.5992 C   0  0  0  0  0  0  0  0  0  0  0  0
  -16.2815   15.4701  -24.6566 C   0  0  0  0  0  0  0  0  0  0  0  0
  -17.6593   15.4146  -24.6419 C   0  0  0  0  0  0  0  0  0  0  0  0
  -18.4006   16.0550  -23.6626 C   0  0  0  0  0  0  0  0  0  0  0  0
  -17.7902   16.7795  -22.6545 C   0  0  0  0  0  0  0  0  0  0  0  0
  -16.4107   16.8359  -22.6679 C   0  0  0  0  0  0  0  0  0  0  0  0
  -15.6772   16.1933  -23.6500 C   0  0  0  0  0  0  0  0  0  0  0  0
  -14.8080   15.5521  -26.6184 C   0  0  0  0  0  0  0  0  0  0  0  0
  -15.5135   14.8348  -25.6307 O   0  0  0  0  0  0  0  0  0  0  0  0
 26 27  1  0  0  0
 27 20  1  0  0  0
 20 21  2  0  0  0
 21 22  1  0  0  0
 22 23  2  0  0  0
 23 19  1  0  0  0
 19 17  1  0  0  0
 17 18  1  0  0  0
 17 15  1  0  0  0
 15  1  1  0  0  0
  1  2  1  0  0  0
  2  3  1  0  0  0
  2  5  1  0  0  0
  5  6  2  0  0  0
  6  7  1  0  0  0
  7  8  1  0  0  0
  7  9  2  0  0  0
  9 10  1  0  0  0
 10 11  1  0  0  0
 10 12  2  0  0  0
 23 24  1  0  0  0
 24 25  2  0  0  0
 25 20  1  0  0  0
 12  5  1  0  0  0
 15 16  1  0  0  0
  3  4  1  0  0  0
  8 13  1  0  0  0
 11 14  1  0  0  0
M  END
> <minimizedAffinity>
-6.93850

> <CNNscore>
0.4669584334

> <CNNaffinity>
5.7013702393

> <CNN_VS>
2.6623029709

> <CNNaffinity_variance>
0.1384722590

$$$$
[H]Oc1c([H])c(O[H])c([H])c([C@@]([H])(O[H])C([H])([H])N([H])[C@@]([H])(C([H])([H])[H])C([H])([H])c2c([H])c([H])c(OC([H])([H])[H])c([H])c2[H])c1[H]


 27 28  0  0  0  0  0  0  0  0999 V2000
  -18.7662   14.6910  -18.8822 C   0  0  0  0  0  0  0  0  0  0  0  0
  -19.2282   13.3267  -19.2569 C   0  0  0  0  0  0  0  0  0  0  0  0
  -19.4559   12.5726  -18.0467 O   0  0  0  0  0  0  0  0  0  0  0  0
  -20.4114   12.4025  -18.0221 H   0  0  0  0  0  0  0  0  0  0  0  0
  -18.2118   12.4987  -19.9805 C   0  0  0  0  0  0  0  0  0  0  0  0
  -17.6129   11.3956  -19.4480 C   0  0  0  0  0  0  0  0  0  0  0  0
  -16.6690   10.6475  -20.1603 C   0  0  0  0  0  0  0  0  0  0  0  0
  -16.0520    9.5256  -19.6340 O   0  0  0  0  0  0  0  0  0  0  0  0
  -16.3475   11.0488  -21.4321 C   0  0  0  0  0  0  0  0  0  0  0  0
  -16.9169   12.1494  -22.0206 C   0  0  0  0  0  0  0  0  0  0  0  0
  -16.5661   12.5241  -23.3108 O   0  0  0  0  0  0  0  0  0  0  0  0
  -17.8414   12.8559  -21.2812 C   0  0  0  0  0  0  0  0  0  0  0  0
  -16.5448    8.6356  -19.8096 H   0  0  0  0  0  0  0  0  0  0  0  0
  -17.1435   12.0979  -24.0513 H   0  0  0  0  0  0  0  0  0  0  0  0
  -19.3368   15.8134  -19.4720 N   0  0  0  0  0  0  0  0  0  0  0  0
  -20.3870   15.8502  -19.4523 H   0  0  0  0  0  0  0  0  0  0  0  0
  -18.7149   16.6012  -20.4286 C   0  0  0  0  0  0  0  0  0  0  0  0
  -18.9743   18.0695  -20.2497 C   0  0  0  0  0  0  0  0  0  0  0  0
  -17.2616   16.3213  -20.6980 C   0  0  0  0  0  0  0  0  0  0  0  0
  -16.6461   16.1735  -24.9670 C   0  0  0  0  0  0  0  0  0  0  0  0
  -15.6543   16.6005  -24.1093 C   0  0  0  0  0  0  0  0  0  0  0  0
  -15.8503   16.6452  -22.7387 C   0  0  0  0  0  0  0  0  0  0  0  0
  -17.0517   16.2629  -22.1693 C   0  0  0  0  0  0  0  0  0  0  0  0
  -18.0457   15.8351  -23.0270 C   0  0  0  0  0  0  0  0  0  0  0  0
  -17.8420   15.7933  -24.3953 C   0  0  0  0  0  0  0  0  0  0  0  0
  -15.3369   15.5330  -26.9425 C   0  0  0  0  0  0  0  0  0  0  0  0
  -16.4735   16.1192  -26.3488 O   0  0  0  0  0  0  0  0  0  0  0  0
 26 27  1  0  0  0
 27 20  1  0  0  0
 20 21  2  0  0  0
 21 22  1  0  0  0
 22 23  2  0  0  0
 23 19  1  0  0  0
 19 17  1  0  0  0
 17 18  1  0  0  0
 17 15  1  0  0  0
 15  1  1  0  0  0
  1  2  1  0  0  0
  2  3  1  0  0  0
  2  5  1  0  0  0
  5  6  2  0  0  0
  6  7  1  0  0  0
  7  8  1  0  0  0
  7  9  2  0  0  0
  9 10  1  0  0  0
 10 11  1  0  0  0
 10 12  2  0  0  0
 23 24  1  0  0  0
 24 25  2  0  0  0
 25 20  1  0  0  0
 12  5  1  0  0  0
 15 16  1  0  0  0
  3  4  1  0  0  0
  8 13  1  0  0  0
 11 14  1  0  0  0
M  END
> <minimizedAffinity>
-6.79981

> <CNNscore>
0.4628160000

> <CNNaffinity>
5.7747063637

> <CNN_VS>
2.6726264954

> <CNNaffinity_variance>
0.1283554435

$$$$
[H]Oc1c([H])c(O[H])c([H])c([C@@]([H])(O[H])C([H])([H])N([H])[C@@]([H])(C([H])([H])[H])C([H])([H])c2c([H])c([H])c(OC([H])([H])[H])c([H])c2[H])c1[H]


 27 28  0  0  0  0  0  0  0  0999 V2000
  -17.5946   11.3523  -20.8076 C   0  0  0  0  0  0  0  0  0  0  0  0
  -16.9898   10.9942  -19.4957 C   0  0  0  0  0  0  0  0  0  0  0  0
  -16.2638    9.7554  -19.6498 O   0  0  0  0  0  0  0  0  0  0  0  0
  -15.3301    9.9822  -19.5121 H   0  0  0  0  0  0  0  0  0  0  0  0
  -17.9783   10.6705  -18.4185 C   0  0  0  0  0  0  0  0  0  0  0  0
  -18.9859   11.5060  -18.0368 C   0  0  0  0  0  0  0  0  0  0  0  0
  -19.8909   11.1631  -17.0262 C   0  0  0  0  0  0  0  0  0  0  0  0
  -20.9189   12.0000  -16.6272 O   0  0  0  0  0  0  0  0  0  0  0  0
  -19.7468    9.9458  -16.4106 C   0  0  0  0  0  0  0  0  0  0  0  0
  -18.7532    9.0636  -16.7517 C   0  0  0  0  0  0  0  0  0  0  0  0
  -18.6397    7.8397  -16.1058 O   0  0  0  0  0  0  0  0  0  0  0  0
  -17.8847    9.4439  -17.7526 C   0  0  0  0  0  0  0  0  0  0  0  0
  -21.8056   11.8752  -17.1410 H   0  0  0  0  0  0  0  0  0  0  0  0
  -19.1730    7.0740  -16.5448 H   0  0  0  0  0  0  0  0  0  0  0  0
  -17.0666   12.3920  -21.5649 N   0  0  0  0  0  0  0  0  0  0  0  0
  -16.0221   12.3817  -21.6814 H   0  0  0  0  0  0  0  0  0  0  0  0
  -17.6932   13.6115  -21.7716 C   0  0  0  0  0  0  0  0  0  0  0  0
  -18.8699   13.8364  -20.8659 C   0  0  0  0  0  0  0  0  0  0  0  0
  -16.8079   14.8255  -21.8460 C   0  0  0  0  0  0  0  0  0  0  0  0
  -15.4031   15.2412  -25.9054 C   0  0  0  0  0  0  0  0  0  0  0  0
  -16.7491   15.2224  -25.6060 C   0  0  0  0  0  0  0  0  0  0  0  0
  -17.2005   15.0921  -24.3029 C   0  0  0  0  0  0  0  0  0  0  0  0
  -16.3193   14.9748  -23.2429 C   0  0  0  0  0  0  0  0  0  0  0  0
  -14.9712   14.9934  -23.5413 C   0  0  0  0  0  0  0  0  0  0  0  0
  -14.5283   15.1240  -24.8459 C   0  0  0  0  0  0  0  0  0  0  0  0
  -15.7804   15.5935  -28.3054 C   0  0  0  0  0  0  0  0  0  0  0  0
  -14.9241   15.3714  -27.2076 O   0  0  0  0  0  0  0  0  0  0  0  0
 26 27  1  0  0  0
 27 20  1  0  0  0
 20 21  2  0  0  0
 21 22  1  0  0  0
 22 23  2  0  0  0
 23 19  1  0  0  0
 19 17  1  0  0  0
 17 18  1  0  0  0
 17 15  1  0  0  0
 15  1  1  0  0  0
  1  2  1  0  0  0
  2  3  1  0  0  0
  2  5  1  0  0  0
  5  6  2  0  0  0
  6  7  1  0  0  0
  7  8  1  0  0  0
  7  9  2  0  0  0
  9 10  1  0  0  0
 10 11  1  0  0  0
 10 12  2  0  0  0
 23 24  1  0  0  0
 24 25  2  0  0  0
 25 20  1  0  0  0
 12  5  1  0  0  0
 15 16  1  0  0  0
  3  4  1  0  0  0
  8 13  1  0  0  0
 11 14  1  0  0  0
M  END
> <minimizedAffinity>
-7.95701

> <CNNscore>
0.4257630408

> <CNNaffinity>
5.4334158897

> <CNN_VS>
2.3133475780

> <CNNaffinity_variance>
0.0333808064

$$$$
[H]Oc1c([H])c(O[H])c([H])c([C@@]([H])(O[H])C([H])([H])N([H])[C@@]([H])(C([H])([H])[H])C([H])([H])c2c([H])c([H])c(OC([H])([H])[H])c([H])c2[H])c1[H]


 27 28  0  0  0  0  0  0  0  0999 V2000
  -17.8932   14.1401  -22.0465 C   0  0  0  0  0  0  0  0  0  0  0  0
  -16.6882   14.6217  -22.7753 C   0  0  0  0  0  0  0  0  0  0  0  0
  -16.6531   16.0633  -22.6989 O   0  0  0  0  0  0  0  0  0  0  0  0
  -15.8674   16.2766  -22.1702 H   0  0  0  0  0  0  0  0  0  0  0  0
  -16.7053   14.3655  -24.2506 C   0  0  0  0  0  0  0  0  0  0  0  0
  -17.2331   13.2450  -24.8205 C   0  0  0  0  0  0  0  0  0  0  0  0
  -17.2313   13.0462  -26.2056 C   0  0  0  0  0  0  0  0  0  0  0  0
  -17.7628   11.9144  -26.7995 O   0  0  0  0  0  0  0  0  0  0  0  0
  -16.6781   14.0175  -27.0007 C   0  0  0  0  0  0  0  0  0  0  0  0
  -16.1325   15.1657  -26.4850 C   0  0  0  0  0  0  0  0  0  0  0  0
  -15.5821   16.1269  -27.3224 O   0  0  0  0  0  0  0  0  0  0  0  0
  -16.1565   15.3186  -25.1151 C   0  0  0  0  0  0  0  0  0  0  0  0
  -18.7632   11.9815  -27.0458 H   0  0  0  0  0  0  0  0  0  0  0  0
  -16.2484   16.8453  -27.6441 H   0  0  0  0  0  0  0  0  0  0  0  0
  -17.7803   13.6411  -20.7537 N   0  0  0  0  0  0  0  0  0  0  0  0
  -17.2386   14.2418  -20.0826 H   0  0  0  0  0  0  0  0  0  0  0  0
  -17.9041   12.3026  -20.4137 C   0  0  0  0  0  0  0  0  0  0  0  0
  -17.7065   11.3731  -21.5766 C   0  0  0  0  0  0  0  0  0  0  0  0
  -17.1515   11.8391  -19.1964 C   0  0  0  0  0  0  0  0  0  0  0  0
  -19.9137    9.8362  -16.5538 C   0  0  0  0  0  0  0  0  0  0  0  0
  -18.8949    9.1537  -17.1846 C   0  0  0  0  0  0  0  0  0  0  0  0
  -18.0062    9.7967  -18.0305 C   0  0  0  0  0  0  0  0  0  0  0  0
  -18.1019   11.1540  -18.2801 C   0  0  0  0  0  0  0  0  0  0  0  0
  -19.1215   11.8387  -17.6490 C   0  0  0  0  0  0  0  0  0  0  0  0
  -20.0054   11.1889  -16.8052 C   0  0  0  0  0  0  0  0  0  0  0  0
  -20.7463    7.8368  -15.3979 C   0  0  0  0  0  0  0  0  0  0  0  0
  -20.8200    9.2124  -15.6984 O   0  0  0  0  0  0  0  0  0  0  0  0
 26 27  1  0  0  0
 27 20  1  0  0  0
 20 21  2  0  0  0
 21 22  1  0  0  0
 22 23  2  0  0  0
 23 19  1  0  0  0
 19 17  1  0  0  0
 17 18  1  0  0  0
 17 15  1  0  0  0
 15  1  1  0  0  0
  1  2  1  0  0  0
  2  3  1  0  0  0
  2  5  1  0  0  0
  5  6  2  0  0  0
  6  7  1  0  0  0
  7  8  1  0  0  0
  7  9  2  0  0  0
  9 10  1  0  0  0
 10 11  1  0  0  0
 10 12  2  0  0  0
 23 24  1  0  0  0
 24 25  2  0  0  0
 25 20  1  0  0  0
 12  5  1  0  0  0
 15 16  1  0  0  0
  3  4  1  0  0  0
  8 13  1  0  0  0
 11 14  1  0  0  0
M  END
> <minimizedAffinity>
-7.73803

> <CNNscore>
0.4095296860

> <CNNaffinity>
5.5174946785

> <CNN_VS>
2.2595777512

> <CNNaffinity_variance>
0.0576459169

$$$$
[H]Oc1c([H])c(O[H])c([H])c([C@@]([H])(O[H])C([H])([H])N([H])[C@@]([H])(C([H])([H])[H])C([H])([H])c2c([H])c([H])c(OC([H])([H])[H])c([H])c2[H])c1[H]


 27 28  0  0  0  0  0  0  0  0999 V2000
  -18.2531   14.6118  -18.5584 C   0  0  0  0  0  0  0  0  0  0  0  0
  -19.1132   13.7688  -17.6841 C   0  0  0  0  0  0  0  0  0  0  0  0
  -18.8221   14.0924  -16.3072 O   0  0  0  0  0  0  0  0  0  0  0  0
  -19.6334   14.4949  -15.9576 H   0  0  0  0  0  0  0  0  0  0  0  0
  -18.8247   12.3009  -17.7507 C   0  0  0  0  0  0  0  0  0  0  0  0
  -17.8517   11.7531  -18.5330 C   0  0  0  0  0  0  0  0  0  0  0  0
  -17.6130   10.3747  -18.5635 C   0  0  0  0  0  0  0  0  0  0  0  0
  -16.6294    9.8031  -19.3522 O   0  0  0  0  0  0  0  0  0  0  0  0
  -18.3898    9.5632  -17.7763 C   0  0  0  0  0  0  0  0  0  0  0  0
  -19.3830   10.0564  -16.9687 C   0  0  0  0  0  0  0  0  0  0  0  0
  -20.1485    9.2030  -16.1853 O   0  0  0  0  0  0  0  0  0  0  0  0
  -19.5824   11.4205  -16.9711 C   0  0  0  0  0  0  0  0  0  0  0  0
  -15.7051    9.7168  -18.9004 H   0  0  0  0  0  0  0  0  0  0  0  0
  -19.7661    9.0297  -15.2433 H   0  0  0  0  0  0  0  0  0  0  0  0
  -18.6951   14.9966  -19.8193 N   0  0  0  0  0  0  0  0  0  0  0  0
  -19.7112   14.8152  -20.0172 H   0  0  0  0  0  0  0  0  0  0  0  0
  -17.8749   15.1541  -20.9261 C   0  0  0  0  0  0  0  0  0  0  0  0
  -16.8789   16.2679  -20.7743 C   0  0  0  0  0  0  0  0  0  0  0  0
  -17.2380   13.9096  -21.4815 C   0  0  0  0  0  0  0  0  0  0  0  0
  -16.6169   14.4535  -25.7174 C   0  0  0  0  0  0  0  0  0  0  0  0
  -15.5733   14.1514  -24.8680 C   0  0  0  0  0  0  0  0  0  0  0  0
  -15.7727   13.9737  -23.5088 C   0  0  0  0  0  0  0  0  0  0  0  0
  -17.0295   14.0917  -22.9429 C   0  0  0  0  0  0  0  0  0  0  0  0
  -18.0753   14.3942  -23.7922 C   0  0  0  0  0  0  0  0  0  0  0  0
  -17.8678   14.5702  -25.1492 C   0  0  0  0  0  0  0  0  0  0  0  0
  -15.4357   15.4731  -27.6127 C   0  0  0  0  0  0  0  0  0  0  0  0
  -16.4421   14.6367  -27.0879 O   0  0  0  0  0  0  0  0  0  0  0  0
 26 27  1  0  0  0
 27 20  1  0  0  0
 20 21  2  0  0  0
 21 22  1  0  0  0
 22 23  2  0  0  0
 23 19  1  0  0  0
 19 17  1  0  0  0
 17 18  1  0  0  0
 17 15  1  0  0  0
 15  1  1  0  0  0
  1  2  1  0  0  0
  2  3  1  0  0  0
  2  5  1  0  0  0
  5  6  2  0  0  0
  6  7  1  0  0  0
  7  8  1  0  0  0
  7  9  2  0  0  0
  9 10  1  0  0  0
 10 11  1  0  0  0
 10 12  2  0  0  0
 23 24  1  0  0  0
 24 25  2  0  0  0
 25 20  1  0  0  0
 12  5  1  0  0  0
 15 16  1  0  0  0
  3  4  1  0  0  0
  8 13  1  0  0  0
 11 14  1  0  0  0
M  END
> <minimizedAffinity>
-7.46912

> <CNNscore>
0.3718299568

> <CNNaffinity>
5.5247125626

> <CNN_VS>
2.0542535782

> <CNNaffinity_variance>
0.0104990052

$$$$
[H]Oc1c([H])c(O[H])c([H])c([C@@]([H])(O[H])C([H])([H])N([H])[C@@]([H])(C([H])([H])[H])C([H])([H])c2c([H])c([H])c(OC([H])([H])[H])c([H])c2[H])c1[H]


 27 28  0  0  0  0  0  0  0  0999 V2000
  -18.5819   17.2116  -23.5717 C   0  0  0  0  0  0  0  0  0  0  0  0
  -17.2068   16.9943  -24.0980 C   0  0  0  0  0  0  0  0  0  0  0  0
  -16.8261   18.1511  -24.8740 O   0  0  0  0  0  0  0  0  0  0  0  0
  -16.0923   18.5604  -24.3878 H   0  0  0  0  0  0  0  0  0  0  0  0
  -17.0842   15.8747  -25.0848 C   0  0  0  0  0  0  0  0  0  0  0  0
  -17.7043   14.6685  -24.9453 C   0  0  0  0  0  0  0  0  0  0  0  0
  -17.5652   13.6490  -25.8936 C   0  0  0  0  0  0  0  0  0  0  0  0
  -18.1878   12.4191  -25.7666 O   0  0  0  0  0  0  0  0  0  0  0  0
  -16.7779   13.8860  -26.9916 C   0  0  0  0  0  0  0  0  0  0  0  0
  -16.1296   15.0792  -27.1864 C   0  0  0  0  0  0  0  0  0  0  0  0
  -15.3413   15.2820  -28.3113 O   0  0  0  0  0  0  0  0  0  0  0  0
  -16.2956   16.0544  -26.2261 C   0  0  0  0  0  0  0  0  0  0  0  0
  -19.1288   12.3625  -26.1874 H   0  0  0  0  0  0  0  0  0  0  0  0
  -15.8460   15.6715  -29.1220 H   0  0  0  0  0  0  0  0  0  0  0  0
  -18.7966   17.3625  -22.2063 N   0  0  0  0  0  0  0  0  0  0  0  0
  -18.8808   18.3542  -21.8685 H   0  0  0  0  0  0  0  0  0  0  0  0
  -18.4652   16.4161  -21.2487 C   0  0  0  0  0  0  0  0  0  0  0  0
  -17.8776   17.0124  -20.0019 C   0  0  0  0  0  0  0  0  0  0  0  0
  -19.5065   15.3777  -20.9319 C   0  0  0  0  0  0  0  0  0  0  0  0
  -17.5420   11.5860  -20.3081 C   0  0  0  0  0  0  0  0  0  0  0  0
  -17.2639   12.3706  -21.4077 C   0  0  0  0  0  0  0  0  0  0  0  0
  -17.8919   13.5891  -21.6067 C   0  0  0  0  0  0  0  0  0  0  0  0
  -18.8273   14.0732  -20.7098 C   0  0  0  0  0  0  0  0  0  0  0  0
  -19.1067   13.2887  -19.6084 C   0  0  0  0  0  0  0  0  0  0  0  0
  -18.4749   12.0724  -19.4167 C   0  0  0  0  0  0  0  0  0  0  0  0
  -15.7882    9.9436  -20.8118 C   0  0  0  0  0  0  0  0  0  0  0  0
  -16.9237   10.3571  -20.0854 O   0  0  0  0  0  0  0  0  0  0  0  0
 26 27  1  0  0  0
 27 20  1  0  0  0
 20 21  2  0  0  0
 21 22  1  0  0  0
 22 23  2  0  0  0
 23 19  1  0  0  0
 19 17  1  0  0  0
 17 18  1  0  0  0
 17 15  1  0  0  0
 15  1  1  0  0  0
  1  2  1  0  0  0
  2  3  1  0  0  0
  2  5  1  0  0  0
  5  6  2  0  0  0
  6  7  1  0  0  0
  7  8  1  0  0  0
  7  9  2  0  0  0
  9 10  1  0  0  0
 10 11  1  0  0  0
 10 12  2  0  0  0
 23 24  1  0  0  0
 24 25  2  0  0  0
 25 20  1  0  0  0
 12  5  1  0  0  0
 15 16  1  0  0  0
  3  4  1  0  0  0
  8 13  1  0  0  0
 11 14  1  0  0  0
M  END
> <minimizedAffinity>
-7.54709

> <CNNscore>
0.3625636399

> <CNNaffinity>
5.6726245880

> <CNN_VS>
2.0566873550

> <CNNaffinity_variance>
0.0959339291

$$$$
[H]c1nc(N2C([H])([H])C([H])([H])C(N3C([H])([H])C([H])([H])OC([H])([H])C3([H])[H])(C([H])(C([H])([H])[H])C([H])([H])[H])C([H])([H])C2([H])[H])c([H])c2c1C(=O)c1c(n([H])c3c([H])c(C#N)c([H])c([H])c13)C2(C([H])([H])[H])C([H])([H])[H]


 38 43  0  0  0  0  0  0  0  0999 V2000
  -19.1106   10.8094  -17.0589 C   0  0  0  0  0  0  0  0  0  0  0  0
  -19.3640   11.9557  -17.7657 C   0  0  0  0  0  0  0  0  0  0  0  0
  -18.7530   12.2047  -19.0025 C   0  0  0  0  0  0  0  0  0  0  0  0
  -17.8883   11.2558  -19.4828 C   0  0  0  0  0  0  0  0  0  0  0  0
  -17.6490   10.1061  -18.7495 C   0  0  0  0  0  0  0  0  0  0  0  0
  -18.2553    9.9072  -17.5692 N   0  0  0  0  0  0  0  0  0  0  0  0
  -17.2280   11.4636  -20.7609 C   0  0  0  0  0  0  0  0  0  0  0  0
  -16.4265   10.5916  -21.2133 O   0  0  0  0  0  0  0  0  0  0  0  0
  -17.4998   12.6778  -21.5060 C   0  0  0  0  0  0  0  0  0  0  0  0
  -18.3740   13.5985  -20.9829 C   0  0  0  0  0  0  0  0  0  0  0  0
  -18.4693   14.6451  -21.8507 N   0  0  0  0  0  0  0  0  0  0  0  0
  -17.6738   14.4152  -22.9207 C   0  0  0  0  0  0  0  0  0  0  0  0
  -17.4118   15.1491  -24.0640 C   0  0  0  0  0  0  0  0  0  0  0  0
  -16.5395   14.6553  -25.0010 C   0  0  0  0  0  0  0  0  0  0  0  0
  -15.9485   13.4311  -24.7670 C   0  0  0  0  0  0  0  0  0  0  0  0
  -16.2072   12.6987  -23.6303 C   0  0  0  0  0  0  0  0  0  0  0  0
  -17.0744   13.1916  -22.7006 C   0  0  0  0  0  0  0  0  0  0  0  0
  -19.0698   13.4480  -19.7041 C   0  0  0  0  0  0  0  0  0  0  0  0
  -20.5729   13.5369  -20.0024 C   0  0  0  0  0  0  0  0  0  0  0  0
  -18.7535   14.6901  -18.8727 C   0  0  0  0  0  0  0  0  0  0  0  0
  -19.0455   15.5001  -21.7492 H   0  0  0  0  0  0  0  0  0  0  0  0
  -21.3203    9.8342  -13.3631 C   0  0  0  0  0  0  0  0  0  0  0  0
  -21.7509   10.7819  -14.5032 C   0  0  0  0  0  0  0  0  0  0  0  0
  -20.6080   11.5058  -15.1385 C   0  0  0  0  0  0  0  0  0  0  0  0
  -19.7355   10.5514  -15.7946 N   0  0  0  0  0  0  0  0  0  0  0  0
  -19.5376    9.3023  -15.0695 C   0  0  0  0  0  0  0  0  0  0  0  0
  -19.8430    9.6281  -13.6225 C   0  0  0  0  0  0  0  0  0  0  0  0
  -22.0909    8.6814  -13.5263 N   0  0  0  0  0  0  0  0  0  0  0  0
  -21.9711    7.5327  -12.7887 C   0  0  0  0  0  0  0  0  0  0  0  0
  -21.9758    6.2821  -13.6340 C   0  0  0  0  0  0  0  0  0  0  0  0
  -22.8878    6.3072  -14.6549 O   0  0  0  0  0  0  0  0  0  0  0  0
  -22.7629    7.4492  -15.4519 C   0  0  0  0  0  0  0  0  0  0  0  0
  -23.0577    8.6292  -14.5489 C   0  0  0  0  0  0  0  0  0  0  0  0
  -20.2342   10.9122  -11.3465 C   0  0  0  0  0  0  0  0  0  0  0  0
  -21.5310   10.4816  -12.0353 C   0  0  0  0  0  0  0  0  0  0  0  0
  -22.4114   11.6794  -11.9736 C   0  0  0  0  0  0  0  0  0  0  0  0
  -16.2400   15.4022  -26.2183 C   0  0  0  0  0  0  0  0  0  0  0  0
  -16.0107   15.9814  -27.1921 N   0  0  0  0  0  0  0  0  0  0  0  0
 34 35  1  0  0  0
 35 36  1  0  0  0
 35 22  1  0  0  0
 22 28  1  0  0  0
 28 29  1  0  0  0
 29 30  1  0  0  0
 30 31  1  0  0  0
 31 32  1  0  0  0
 32 33  1  0  0  0
 22 23  1  0  0  0
 23 24  1  0  0  0
 24 25  1  0  0  0
 25  1  1  0  0  0
  1  2  2  0  0  0
  2  3  1  0  0  0
  3  4  2  0  0  0
  4  5  1  0  0  0
  5  6  2  0  0  0
  4  7  1  0  0  0
  7  8  2  0  0  0
  7  9  1  0  0  0
  9 10  2  0  0  0
 10 11  1  0  0  0
 11 12  1  0  0  0
 12 13  2  0  0  0
 13 14  1  0  0  0
 14 37  1  0  0  0
 37 38  3  0  0  0
 14 15  2  0  0  0
 15 16  1  0  0  0
 16 17  2  0  0  0
 10 18  1  0  0  0
 18 19  1  0  0  0
 18 20  1  0  0  0
 25 26  1  0  0  0
 26 27  1  0  0  0
 27 22  1  0  0  0
 33 28  1  0  0  0
  6  1  1  0  0  0
 17  9  1  0  0  0
 18  3  1  0  0  0
 17 12  1  0  0  0
 11 21  1  0  0  0
M  END
> <minimizedAffinity>
-9.88762

> <CNNscore>
0.7843631506

> <CNNaffinity>
7.4892005920

> <CNN_VS>
5.8742527962

> <CNNaffinity_variance>
0.2046671808

$$$$
[H]c1nc(N2C([H])([H])C([H])([H])C(N3C([H])([H])C([H])([H])OC([H])([H])C3([H])[H])(C([H])(C([H])([H])[H])C([H])([H])[H])C([H])([H])C2([H])[H])c([H])c2c1C(=O)c1c(n([H])c3c([H])c(C#N)c([H])c([H])c13)C2(C([H])([H])[H])C([H])([H])[H]


 38 43  0  0  0  0  0  0  0  0999 V2000
  -19.1492   10.8408  -17.0781 C   0  0  0  0  0  0  0  0  0  0  0  0
  -19.4109   11.9781  -17.7963 C   0  0  0  0  0  0  0  0  0  0  0  0
  -18.7887   12.2274  -19.0274 C   0  0  0  0  0  0  0  0  0  0  0  0
  -17.9042   11.2881  -19.4904 C   0  0  0  0  0  0  0  0  0  0  0  0
  -17.6569   10.1473  -18.7458 C   0  0  0  0  0  0  0  0  0  0  0  0
  -18.2744    9.9478  -17.5715 N   0  0  0  0  0  0  0  0  0  0  0  0
  -17.2316   11.4966  -20.7619 C   0  0  0  0  0  0  0  0  0  0  0  0
  -16.4118   10.6335  -21.1982 O   0  0  0  0  0  0  0  0  0  0  0  0
  -17.5123   12.7013  -21.5191 C   0  0  0  0  0  0  0  0  0  0  0  0
  -18.4063   13.6125  -21.0132 C   0  0  0  0  0  0  0  0  0  0  0  0
  -18.5066   14.6514  -21.8898 N   0  0  0  0  0  0  0  0  0  0  0  0
  -17.6948   14.4258  -22.9484 C   0  0  0  0  0  0  0  0  0  0  0  0
  -17.4298   15.1553  -24.0938 C   0  0  0  0  0  0  0  0  0  0  0  0
  -16.5390   14.6679  -25.0165 C   0  0  0  0  0  0  0  0  0  0  0  0
  -15.9328   13.4544  -24.7666 C   0  0  0  0  0  0  0  0  0  0  0  0
  -16.1945   12.7263  -23.6277 C   0  0  0  0  0  0  0  0  0  0  0  0
  -17.0801   13.2129  -22.7121 C   0  0  0  0  0  0  0  0  0  0  0  0
  -19.1153   13.4608  -19.7419 C   0  0  0  0  0  0  0  0  0  0  0  0
  -20.6159   13.5252  -20.0589 C   0  0  0  0  0  0  0  0  0  0  0  0
  -18.8276   14.7134  -18.9158 C   0  0  0  0  0  0  0  0  0  0  0  0
  -19.0966   15.4984  -21.8014 H   0  0  0  0  0  0  0  0  0  0  0  0
  -21.4466   10.0200  -13.3984 C   0  0  0  0  0  0  0  0  0  0  0  0
  -21.5332   11.2604  -14.3134 C   0  0  0  0  0  0  0  0  0  0  0  0
  -20.2244   11.6385  -14.9281 C   0  0  0  0  0  0  0  0  0  0  0  0
  -19.7856   10.5826  -15.8197 N   0  0  0  0  0  0  0  0  0  0  0  0
  -20.0390    9.2297  -15.3392 C   0  0  0  0  0  0  0  0  0  0  0  0
  -20.1579    9.3561  -13.8349 C   0  0  0  0  0  0  0  0  0  0  0  0
  -22.5923    9.2719  -13.6762 N   0  0  0  0  0  0  0  0  0  0  0  0
  -23.6339    9.6761  -14.4699 C   0  0  0  0  0  0  0  0  0  0  0  0
  -24.9864    9.4037  -13.8575 C   0  0  0  0  0  0  0  0  0  0  0  0
  -25.0774    8.1879  -13.2344 O   0  0  0  0  0  0  0  0  0  0  0  0
  -24.0564    7.9915  -12.2996 C   0  0  0  0  0  0  0  0  0  0  0  0
  -22.7589    8.0064  -13.0815 C   0  0  0  0  0  0  0  0  0  0  0  0
  -19.9439   10.3877  -11.3947 C   0  0  0  0  0  0  0  0  0  0  0  0
  -21.3627   10.4298  -11.9661 C   0  0  0  0  0  0  0  0  0  0  0  0
  -21.8850   11.7717  -11.5913 C   0  0  0  0  0  0  0  0  0  0  0  0
  -16.2358   15.4105  -26.2356 C   0  0  0  0  0  0  0  0  0  0  0  0
  -15.9868   15.9848  -27.2074 N   0  0  0  0  0  0  0  0  0  0  0  0
 34 35  1  0  0  0
 35 36  1  0  0  0
 35 22  1  0  0  0
 22 28  1  0  0  0
 28 29  1  0  0  0
 29 30  1  0  0  0
 30 31  1  0  0  0
 31 32  1  0  0  0
 32 33  1  0  0  0
 22 23  1  0  0  0
 23 24  1  0  0  0
 24 25  1  0  0  0
 25  1  1  0  0  0
  1  2  2  0  0  0
  2  3  1  0  0  0
  3  4  2  0  0  0
  4  5  1  0  0  0
  5  6  2  0  0  0
  4  7  1  0  0  0
  7  8  2  0  0  0
  7  9  1  0  0  0
  9 10  2  0  0  0
 10 11  1  0  0  0
 11 12  1  0  0  0
 12 13  2  0  0  0
 13 14  1  0  0  0
 14 37  1  0  0  0
 37 38  3  0  0  0
 14 15  2  0  0  0
 15 16  1  0  0  0
 16 17  2  0  0  0
 10 18  1  0  0  0
 18 19  1  0  0  0
 18 20  1  0  0  0
 25 26  1  0  0  0
 26 27  1  0  0  0
 27 22  1  0  0  0
 33 28  1  0  0  0
  6  1  1  0  0  0
 17  9  1  0  0  0
 18  3  1  0  0  0
 17 12  1  0  0  0
 11 21  1  0  0  0
M  END
> <minimizedAffinity>
-9.72136

> <CNNscore>
0.7589974999

> <CNNaffinity>
7.4006433487

> <CNN_VS>
5.6170697212

> <CNNaffinity_variance>
0.2242473662

$$$$
[H]c1nc(N2C([H])([H])C([H])([H])C(N3C([H])([H])C([H])([H])OC([H])([H])C3([H])[H])(C([H])(C([H])([H])[H])C([H])([H])[H])C([H])([H])C2([H])[H])c([H])c2c1C(=O)c1c(n([H])c3c([H])c(C#N)c([H])c([H])c13)C2(C([H])([H])[H])C([H])([H])[H]


 38 43  0  0  0  0  0  0  0  0999 V2000
  -19.3403   10.8054  -17.0355 C   0  0  0  0  0  0  0  0  0  0  0  0
  -19.4765   11.9700  -17.7447 C   0  0  0  0  0  0  0  0  0  0  0  0
  -18.7541   12.1992  -18.9239 C   0  0  0  0  0  0  0  0  0  0  0  0
  -17.9018   11.2118  -19.3452 C   0  0  0  0  0  0  0  0  0  0  0  0
  -17.7820   10.0442  -18.6108 C   0  0  0  0  0  0  0  0  0  0  0  0
  -18.4925    9.8654  -17.4868 N   0  0  0  0  0  0  0  0  0  0  0  0
  -17.1291   11.3977  -20.5621 C   0  0  0  0  0  0  0  0  0  0  0  0
  -16.3381   10.4901  -20.9596 O   0  0  0  0  0  0  0  0  0  0  0  0
  -17.2770   12.6315  -21.3100 C   0  0  0  0  0  0  0  0  0  0  0  0
  -18.1436   13.5908  -20.8472 C   0  0  0  0  0  0  0  0  0  0  0  0
  -18.1144   14.6493  -21.7053 N   0  0  0  0  0  0  0  0  0  0  0  0
  -17.2462   14.3892  -22.7099 C   0  0  0  0  0  0  0  0  0  0  0  0
  -16.8543   15.1197  -23.8177 C   0  0  0  0  0  0  0  0  0  0  0  0
  -15.9340   14.5907  -24.6871 C   0  0  0  0  0  0  0  0  0  0  0  0
  -15.4268   13.3355  -24.4227 C   0  0  0  0  0  0  0  0  0  0  0  0
  -15.8148   12.6065  -23.3212 C   0  0  0  0  0  0  0  0  0  0  0  0
  -16.7295   13.1343  -22.4586 C   0  0  0  0  0  0  0  0  0  0  0  0
  -18.9490   13.4640  -19.6317 C   0  0  0  0  0  0  0  0  0  0  0  0
  -20.4161   13.6330  -20.0504 C   0  0  0  0  0  0  0  0  0  0  0  0
  -18.6398   14.6800  -18.7601 C   0  0  0  0  0  0  0  0  0  0  0  0
  -18.6531   15.5318  -21.6393 H   0  0  0  0  0  0  0  0  0  0  0  0
  -21.2782   10.1114  -13.1297 C   0  0  0  0  0  0  0  0  0  0  0  0
  -20.2432    9.2180  -13.8467 C   0  0  0  0  0  0  0  0  0  0  0  0
  -20.3718    9.2364  -15.3357 C   0  0  0  0  0  0  0  0  0  0  0  0
  -20.0792   10.5677  -15.8302 N   0  0  0  0  0  0  0  0  0  0  0  0
  -20.5960   11.6546  -15.0074 C   0  0  0  0  0  0  0  0  0  0  0  0
  -21.7417   11.0510  -14.2225 C   0  0  0  0  0  0  0  0  0  0  0  0
  -20.5763   10.7413  -12.1002 N   0  0  0  0  0  0  0  0  0  0  0  0
  -19.2798   10.4773  -11.7430 C   0  0  0  0  0  0  0  0  0  0  0  0
  -19.0915   10.3428  -10.2513 C   0  0  0  0  0  0  0  0  0  0  0  0
  -19.7931   11.2630   -9.5194 O   0  0  0  0  0  0  0  0  0  0  0  0
  -21.1510   11.2838   -9.8522 C   0  0  0  0  0  0  0  0  0  0  0  0
  -21.2236   11.7066  -11.3051 C   0  0  0  0  0  0  0  0  0  0  0  0
  -23.6345    9.2916  -13.5583 C   0  0  0  0  0  0  0  0  0  0  0  0
  -22.4198    9.2921  -12.6278 C   0  0  0  0  0  0  0  0  0  0  0  0
  -22.1704    7.8567  -12.3256 C   0  0  0  0  0  0  0  0  0  0  0  0
  -15.4981   15.3330  -25.8655 C   0  0  0  0  0  0  0  0  0  0  0  0
  -15.1486   15.9059  -26.8067 N   0  0  0  0  0  0  0  0  0  0  0  0
 34 35  1  0  0  0
 35 36  1  0  0  0
 35 22  1  0  0  0
 22 28  1  0  0  0
 28 29  1  0  0  0
 29 30  1  0  0  0
 30 31  1  0  0  0
 31 32  1  0  0  0
 32 33  1  0  0  0
 22 23  1  0  0  0
 23 24  1  0  0  0
 24 25  1  0  0  0
 25  1  1  0  0  0
  1  2  2  0  0  0
  2  3  1  0  0  0
  3  4  2  0  0  0
  4  5  1  0  0  0
  5  6  2  0  0  0
  4  7  1  0  0  0
  7  8  2  0  0  0
  7  9  1  0  0  0
  9 10  2  0  0  0
 10 11  1  0  0  0
 11 12  1  0  0  0
 12 13  2  0  0  0
 13 14  1  0  0  0
 14 37  1  0  0  0
 37 38  3  0  0  0
 14 15  2  0  0  0
 15 16  1  0  0  0
 16 17  2  0  0  0
 10 18  1  0  0  0
 18 19  1  0  0  0
 18 20  1  0  0  0
 25 26  1  0  0  0
 26 27  1  0  0  0
 27 22  1  0  0  0
 33 28  1  0  0  0
  6  1  1  0  0  0
 17  9  1  0  0  0
 18  3  1  0  0  0
 17 12  1  0  0  0
 11 21  1  0  0  0
M  END
> <minimizedAffinity>
-10.00580

> <CNNscore>
0.7568680048

> <CNNaffinity>
7.3813109398

> <CNN_VS>
5.5866780281

> <CNNaffinity_variance>
0.1882158071

$$$$
[H]c1nc(N2C([H])([H])C([H])([H])C(N3C([H])([H])C([H])([H])OC([H])([H])C3([H])[H])(C([H])(C([H])([H])[H])C([H])([H])[H])C([H])([H])C2([H])[H])c([H])c2c1C(=O)c1c(n([H])c3c([H])c(C#N)c([H])c([H])c13)C2(C([H])([H])[H])C([H])([H])[H]


 38 43  0  0  0  0  0  0  0  0999 V2000
  -19.5158   10.6592  -17.0132 C   0  0  0  0  0  0  0  0  0  0  0  0
  -19.5964   11.8424  -17.6998 C   0  0  0  0  0  0  0  0  0  0  0  0
  -18.8120   12.0859  -18.8357 C   0  0  0  0  0  0  0  0  0  0  0  0
  -17.9565   11.0932  -19.2379 C   0  0  0  0  0  0  0  0  0  0  0  0
  -17.8936    9.9068  -18.5269 C   0  0  0  0  0  0  0  0  0  0  0  0
  -18.6626    9.7147  -17.4443 N   0  0  0  0  0  0  0  0  0  0  0  0
  -17.1207   11.2934  -20.4100 C   0  0  0  0  0  0  0  0  0  0  0  0
  -16.3263   10.3811  -20.7895 O   0  0  0  0  0  0  0  0  0  0  0  0
  -17.2098   12.5468  -21.1342 C   0  0  0  0  0  0  0  0  0  0  0  0
  -18.0822   13.5106  -20.6920 C   0  0  0  0  0  0  0  0  0  0  0  0
  -17.9919   14.5882  -21.5217 N   0  0  0  0  0  0  0  0  0  0  0  0
  -17.0789   14.3358  -22.4879 C   0  0  0  0  0  0  0  0  0  0  0  0
  -16.6196   15.0847  -23.5568 C   0  0  0  0  0  0  0  0  0  0  0  0
  -15.6660   14.5595  -24.3919 C   0  0  0  0  0  0  0  0  0  0  0  0
  -15.1941   13.2895  -24.1331 C   0  0  0  0  0  0  0  0  0  0  0  0
  -15.6492   12.5421  -23.0702 C   0  0  0  0  0  0  0  0  0  0  0  0
  -16.5969   13.0662  -22.2416 C   0  0  0  0  0  0  0  0  0  0  0  0
  -18.9495   13.3702  -19.5215 C   0  0  0  0  0  0  0  0  0  0  0  0
  -20.3907   13.5756  -20.0085 C   0  0  0  0  0  0  0  0  0  0  0  0
  -18.6638   14.5597  -18.6064 C   0  0  0  0  0  0  0  0  0  0  0  0
  -18.5181   15.4786  -21.4612 H   0  0  0  0  0  0  0  0  0  0  0  0
  -22.0049   10.2700  -13.3876 C   0  0  0  0  0  0  0  0  0  0  0  0
  -20.5611   10.8062  -13.4934 C   0  0  0  0  0  0  0  0  0  0  0  0
  -19.7498   10.1259  -14.5483 C   0  0  0  0  0  0  0  0  0  0  0  0
  -20.3182   10.4070  -15.8522 N   0  0  0  0  0  0  0  0  0  0  0  0
  -21.7754   10.4131  -15.8974 C   0  0  0  0  0  0  0  0  0  0  0  0
  -22.2149    9.5744  -14.7157 C   0  0  0  0  0  0  0  0  0  0  0  0
  -22.8081   11.3973  -13.2046 N   0  0  0  0  0  0  0  0  0  0  0  0
  -24.1773   11.3983  -13.1465 C   0  0  0  0  0  0  0  0  0  0  0  0
  -24.8052   12.4903  -13.9783 C   0  0  0  0  0  0  0  0  0  0  0  0
  -24.1503   13.6903  -13.9022 O   0  0  0  0  0  0  0  0  0  0  0  0
  -22.7857   13.5702  -14.1823 C   0  0  0  0  0  0  0  0  0  0  0  0
  -22.2115   12.6692  -13.1083 C   0  0  0  0  0  0  0  0  0  0  0  0
  -22.0491    7.8320  -12.7076 C   0  0  0  0  0  0  0  0  0  0  0  0
  -22.1210    9.2947  -12.2642 C   0  0  0  0  0  0  0  0  0  0  0  0
  -21.1491    9.4014  -11.1427 C   0  0  0  0  0  0  0  0  0  0  0  0
  -15.1589   15.3211  -25.5287 C   0  0  0  0  0  0  0  0  0  0  0  0
  -14.7472   15.9106  -26.4338 N   0  0  0  0  0  0  0  0  0  0  0  0
 34 35  1  0  0  0
 35 36  1  0  0  0
 35 22  1  0  0  0
 22 28  1  0  0  0
 28 29  1  0  0  0
 29 30  1  0  0  0
 30 31  1  0  0  0
 31 32  1  0  0  0
 32 33  1  0  0  0
 22 23  1  0  0  0
 23 24  1  0  0  0
 24 25  1  0  0  0
 25  1  1  0  0  0
  1  2  2  0  0  0
  2  3  1  0  0  0
  3  4  2  0  0  0
  4  5  1  0  0  0
  5  6  2  0  0  0
  4  7  1  0  0  0
  7  8  2  0  0  0
  7  9  1  0  0  0
  9 10  2  0  0  0
 10 11  1  0  0  0
 11 12  1  0  0  0
 12 13  2  0  0  0
 13 14  1  0  0  0
 14 37  1  0  0  0
 37 38  3  0  0  0
 14 15  2  0  0  0
 15 16  1  0  0  0
 16 17  2  0  0  0
 10 18  1  0  0  0
 18 19  1  0  0  0
 18 20  1  0  0  0
 25 26  1  0  0  0
 26 27  1  0  0  0
 27 22  1  0  0  0
 33 28  1  0  0  0
  6  1  1  0  0  0
 17  9  1  0  0  0
 18  3  1  0  0  0
 17 12  1  0  0  0
 11 21  1  0  0  0
M  END
> <minimizedAffinity>
-9.67433

> <CNNscore>
0.7103365064

> <CNNaffinity>
7.3851418495

> <CNN_VS>
5.2459359169

> <CNNaffinity_variance>
0.2004270107

$$$$
[H]c1nc(N2C([H])([H])C([H])([H])C(N3C([H])([H])C([H])([H])OC([H])([H])C3([H])[H])(C([H])(C([H])([H])[H])C([H])([H])[H])C([H])([H])C2([H])[H])c([H])c2c1C(=O)c1c(n([H])c3c([H])c(C#N)c([H])c([H])c13)C2(C([H])([H])[H])C([H])([H])[H]


 38 43  0  0  0  0  0  0  0  0999 V2000
  -19.4070   10.0950  -16.2408 C   0  0  0  0  0  0  0  0  0  0  0  0
  -19.6221   11.4042  -16.5838 C   0  0  0  0  0  0  0  0  0  0  0  0
  -19.0983   11.9484  -17.7647 C   0  0  0  0  0  0  0  0  0  0  0  0
  -18.3592   11.1202  -18.5689 C   0  0  0  0  0  0  0  0  0  0  0  0
  -18.1563    9.8013  -18.2000 C   0  0  0  0  0  0  0  0  0  0  0  0
  -18.6759    9.3204  -17.0603 N   0  0  0  0  0  0  0  0  0  0  0  0
  -17.7935   11.6334  -19.8055 C   0  0  0  0  0  0  0  0  0  0  0  0
  -17.1084   10.8750  -20.5558 O   0  0  0  0  0  0  0  0  0  0  0  0
  -18.0243   13.0193  -20.1650 C   0  0  0  0  0  0  0  0  0  0  0  0
  -18.7715   13.8092  -19.3263 C   0  0  0  0  0  0  0  0  0  0  0  0
  -18.8515   15.0579  -19.8666 N   0  0  0  0  0  0  0  0  0  0  0  0
  -18.1705   15.0860  -21.0354 C   0  0  0  0  0  0  0  0  0  0  0  0
  -17.9449   16.0899  -21.9605 C   0  0  0  0  0  0  0  0  0  0  0  0
  -17.1986   15.8237  -23.0806 C   0  0  0  0  0  0  0  0  0  0  0  0
  -16.6944   14.5505  -23.2464 C   0  0  0  0  0  0  0  0  0  0  0  0
  -16.9173   13.5497  -22.3276 C   0  0  0  0  0  0  0  0  0  0  0  0
  -17.6592   13.8167  -21.2151 C   0  0  0  0  0  0  0  0  0  0  0  0
  -19.3678   13.3529  -18.0700 C   0  0  0  0  0  0  0  0  0  0  0  0
  -20.8779   13.6068  -18.1763 C   0  0  0  0  0  0  0  0  0  0  0  0
  -18.8802   14.2978  -16.9730 C   0  0  0  0  0  0  0  0  0  0  0  0
  -19.3437   15.8836  -19.4802 H   0  0  0  0  0  0  0  0  0  0  0  0
  -21.0880    8.0321  -12.7178 C   0  0  0  0  0  0  0  0  0  0  0  0
  -21.7845    8.3326  -14.0625 C   0  0  0  0  0  0  0  0  0  0  0  0
  -21.3475    9.6197  -14.6840 C   0  0  0  0  0  0  0  0  0  0  0  0
  -19.9431    9.5354  -15.0346 N   0  0  0  0  0  0  0  0  0  0  0  0
  -19.1097    8.8366  -14.0638 C   0  0  0  0  0  0  0  0  0  0  0  0
  -19.8646    8.9232  -12.7540 C   0  0  0  0  0  0  0  0  0  0  0  0
  -20.7963    6.6670  -12.7468 N   0  0  0  0  0  0  0  0  0  0  0  0
  -20.1003    5.9811  -11.7860 C   0  0  0  0  0  0  0  0  0  0  0  0
  -19.0528    5.0573  -12.3585 C   0  0  0  0  0  0  0  0  0  0  0  0
  -19.4639    4.3773  -13.4735 O   0  0  0  0  0  0  0  0  0  0  0  0
  -19.9721    5.2292  -14.4590 C   0  0  0  0  0  0  0  0  0  0  0  0
  -21.1922    5.8936  -13.8551 C   0  0  0  0  0  0  0  0  0  0  0  0
  -21.6260    9.7564  -10.9443 C   0  0  0  0  0  0  0  0  0  0  0  0
  -21.9714    8.4056  -11.5748 C   0  0  0  0  0  0  0  0  0  0  0  0
  -23.4388    8.4608  -11.8145 C   0  0  0  0  0  0  0  0  0  0  0  0
  -16.9409   16.8584  -24.0769 C   0  0  0  0  0  0  0  0  0  0  0  0
  -16.7499   17.6716  -24.8759 N   0  0  0  0  0  0  0  0  0  0  0  0
 34 35  1  0  0  0
 35 36  1  0  0  0
 35 22  1  0  0  0
 22 28  1  0  0  0
 28 29  1  0  0  0
 29 30  1  0  0  0
 30 31  1  0  0  0
 31 32  1  0  0  0
 32 33  1  0  0  0
 22 23  1  0  0  0
 23 24  1  0  0  0
 24 25  1  0  0  0
 25  1  1  0  0  0
  1  2  2  0  0  0
  2  3  1  0  0  0
  3  4  2  0  0  0
  4  5  1  0  0  0
  5  6  2  0  0  0
  4  7  1  0  0  0
  7  8  2  0  0  0
  7  9  1  0  0  0
  9 10  2  0  0  0
 10 11  1  0  0  0
 11 12  1  0  0  0
 12 13  2  0  0  0
 13 14  1  0  0  0
 14 37  1  0  0  0
 37 38  3  0  0  0
 14 15  2  0  0  0
 15 16  1  0  0  0
 16 17  2  0  0  0
 10 18  1  0  0  0
 18 19  1  0  0  0
 18 20  1  0  0  0
 25 26  1  0  0  0
 26 27  1  0  0  0
 27 22  1  0  0  0
 33 28  1  0  0  0
  6  1  1  0  0  0
 17  9  1  0  0  0
 18  3  1  0  0  0
 17 12  1  0  0  0
 11 21  1  0  0  0
M  END
> <minimizedAffinity>
-8.74208

> <CNNscore>
0.4750075936

> <CNNaffinity>
7.0155601501

> <CNN_VS>
3.3324444294

> <CNNaffinity_variance>
0.2372250110

$$$$
[H]c1nc(N2C([H])([H])C([H])([H])C(N3C([H])([H])C([H])([H])OC([H])([H])C3([H])[H])(C([H])(C([H])([H])[H])C([H])([H])[H])C([H])([H])C2([H])[H])c([H])c2c1C(=O)c1c(n([H])c3c([H])c(C#N)c([H])c([H])c13)C2(C([H])([H])[H])C([H])([H])[H]


 38 43  0  0  0  0  0  0  0  0999 V2000
  -21.0701   10.0298  -11.0995 C   0  0  0  0  0  0  0  0  0  0  0  0
  -21.6727   10.7975  -12.0614 C   0  0  0  0  0  0  0  0  0  0  0  0
  -22.2357   12.0448  -11.7577 C   0  0  0  0  0  0  0  0  0  0  0  0
  -22.1620   12.4719  -10.4573 C   0  0  0  0  0  0  0  0  0  0  0  0
  -21.5480   11.6775   -9.5041 C   0  0  0  0  0  0  0  0  0  0  0  0
  -21.0215   10.4893   -9.8376 N   0  0  0  0  0  0  0  0  0  0  0  0
  -22.7294   13.7582  -10.0881 C   0  0  0  0  0  0  0  0  0  0  0  0
  -22.6662   14.1616   -8.8878 O   0  0  0  0  0  0  0  0  0  0  0  0
  -23.3654   14.5678  -11.1095 C   0  0  0  0  0  0  0  0  0  0  0  0
  -23.4142   14.0964  -12.3983 C   0  0  0  0  0  0  0  0  0  0  0  0
  -24.0525   15.0194  -13.1718 N   0  0  0  0  0  0  0  0  0  0  0  0
  -24.4149   16.0740  -12.4057 C   0  0  0  0  0  0  0  0  0  0  0  0
  -25.0760   17.2546  -12.6950 C   0  0  0  0  0  0  0  0  0  0  0  0
  -25.3116   18.1621  -11.6932 C   0  0  0  0  0  0  0  0  0  0  0  0
  -24.8761   17.8617  -10.4193 C   0  0  0  0  0  0  0  0  0  0  0  0
  -24.2181   16.6878  -10.1286 C   0  0  0  0  0  0  0  0  0  0  0  0
  -23.9852   15.7874  -11.1258 C   0  0  0  0  0  0  0  0  0  0  0  0
  -22.8620   12.8127  -12.8332 C   0  0  0  0  0  0  0  0  0  0  0  0
  -21.8488   13.1181  -13.9452 C   0  0  0  0  0  0  0  0  0  0  0  0
  -23.9919   12.0486  -13.5213 C   0  0  0  0  0  0  0  0  0  0  0  0
  -24.2507   14.9649  -14.1873 H   0  0  0  0  0  0  0  0  0  0  0  0
  -19.6513    5.9774  -12.1284 C   0  0  0  0  0  0  0  0  0  0  0  0
  -20.5450    6.3962  -10.9412 C   0  0  0  0  0  0  0  0  0  0  0  0
  -20.2176    7.7500  -10.3989 C   0  0  0  0  0  0  0  0  0  0  0  0
  -20.4918    8.7546  -11.4078 N   0  0  0  0  0  0  0  0  0  0  0  0
  -20.1329    8.3715  -12.7679 C   0  0  0  0  0  0  0  0  0  0  0  0
  -19.0812    7.2930  -12.6144 C   0  0  0  0  0  0  0  0  0  0  0  0
  -20.5094    5.3598  -13.0403 N   0  0  0  0  0  0  0  0  0  0  0  0
  -20.6054    5.6622  -14.3736 C   0  0  0  0  0  0  0  0  0  0  0  0
  -22.0316    5.7868  -14.8520 C   0  0  0  0  0  0  0  0  0  0  0  0
  -22.8730    4.8365  -14.3385 O   0  0  0  0  0  0  0  0  0  0  0  0
  -22.8173    4.7748  -12.9428 C   0  0  0  0  0  0  0  0  0  0  0  0
  -21.4011    4.3654  -12.5940 C   0  0  0  0  0  0  0  0  0  0  0  0
  -18.8709    4.3417  -10.3611 C   0  0  0  0  0  0  0  0  0  0  0  0
  -18.5571    5.0735  -11.6678 C   0  0  0  0  0  0  0  0  0  0  0  0
  -18.0911    4.0099  -12.5980 C   0  0  0  0  0  0  0  0  0  0  0  0
  -26.0057   19.4173  -11.9623 C   0  0  0  0  0  0  0  0  0  0  0  0
  -26.5583   20.4134  -12.1583 N   0  0  0  0  0  0  0  0  0  0  0  0
 34 35  1  0  0  0
 35 36  1  0  0  0
 35 22  1  0  0  0
 22 28  1  0  0  0
 28 29  1  0  0  0
 29 30  1  0  0  0
 30 31  1  0  0  0
 31 32  1  0  0  0
 32 33  1  0  0  0
 22 23  1  0  0  0
 23 24  1  0  0  0
 24 25  1  0  0  0
 25  1  1  0  0  0
  1  2  2  0  0  0
  2  3  1  0  0  0
  3  4  2  0  0  0
  4  5  1  0  0  0
  5  6  2  0  0  0
  4  7  1  0  0  0
  7  8  2  0  0  0
  7  9  1  0  0  0
  9 10  2  0  0  0
 10 11  1  0  0  0
 11 12  1  0  0  0
 12 13  2  0  0  0
 13 14  1  0  0  0
 14 37  1  0  0  0
 37 38  3  0  0  0
 14 15  2  0  0  0
 15 16  1  0  0  0
 16 17  2  0  0  0
 10 18  1  0  0  0
 18 19  1  0  0  0
 18 20  1  0  0  0
 25 26  1  0  0  0
 26 27  1  0  0  0
 27 22  1  0  0  0
 33 28  1  0  0  0
  6  1  1  0  0  0
 17  9  1  0  0  0
 18  3  1  0  0  0
 17 12  1  0  0  0
 11 21  1  0  0  0
M  END
> <minimizedAffinity>
-3.57919

> <CNNscore>
0.3947106004

> <CNNaffinity>
5.7598266602

> <CNN_VS>
2.2734646797

> <CNNaffinity_variance>
0.4712934494

$$$$
[H]c1nc(N2C([H])([H])C([H])([H])C(N3C([H])([H])C([H])([H])OC([H])([H])C3([H])[H])(C([H])(C([H])([H])[H])C([H])([H])[H])C([H])([H])C2([H])[H])c([H])c2c1C(=O)c1c(n([H])c3c([H])c(C#N)c([H])c([H])c13)C2(C([H])([H])[H])C([H])([H])[H]


 38 43  0  0  0  0  0  0  0  0999 V2000
  -19.9046   17.6162  -22.6841 C   0  0  0  0  0  0  0  0  0  0  0  0
  -19.5701   16.5620  -21.8750 C   0  0  0  0  0  0  0  0  0  0  0  0
  -18.4623   15.7486  -22.1507 C   0  0  0  0  0  0  0  0  0  0  0  0
  -17.7210   16.0464  -23.2646 C   0  0  0  0  0  0  0  0  0  0  0  0
  -18.0798   17.1168  -24.0661 C   0  0  0  0  0  0  0  0  0  0  0  0
  -19.1485   17.8703  -23.7657 N   0  0  0  0  0  0  0  0  0  0  0  0
  -16.5615   15.2353  -23.5965 C   0  0  0  0  0  0  0  0  0  0  0  0
  -15.8698   15.5029  -24.6248 O   0  0  0  0  0  0  0  0  0  0  0  0
  -16.2107   14.1211  -22.7369 C   0  0  0  0  0  0  0  0  0  0  0  0
  -16.9845   13.8630  -21.6323 C   0  0  0  0  0  0  0  0  0  0  0  0
  -16.4665   12.7809  -20.9855 N   0  0  0  0  0  0  0  0  0  0  0  0
  -15.3756   12.3387  -21.6526 C   0  0  0  0  0  0  0  0  0  0  0  0
  -14.5014   11.2913  -21.4221 C   0  0  0  0  0  0  0  0  0  0  0  0
  -13.4591   11.0757  -22.2880 C   0  0  0  0  0  0  0  0  0  0  0  0
  -13.3185   11.9203  -23.3694 C   0  0  0  0  0  0  0  0  0  0  0  0
  -14.1869   12.9632  -23.6013 C   0  0  0  0  0  0  0  0  0  0  0  0
  -15.2220   13.1754  -22.7394 C   0  0  0  0  0  0  0  0  0  0  0  0
  -18.1617   14.6412  -21.2442 C   0  0  0  0  0  0  0  0  0  0  0  0
  -17.9049   15.1569  -19.8214 C   0  0  0  0  0  0  0  0  0  0  0  0
  -19.3240   13.6589  -21.1092 C   0  0  0  0  0  0  0  0  0  0  0  0
  -16.8179   12.3341  -20.1193 H   0  0  0  0  0  0  0  0  0  0  0  0
  -23.2937   20.3926  -22.1380 C   0  0  0  0  0  0  0  0  0  0  0  0
  -21.7853   20.7063  -22.0384 C   0  0  0  0  0  0  0  0  0  0  0  0
  -20.9775   19.5750  -21.4896 C   0  0  0  0  0  0  0  0  0  0  0  0
  -21.0360   18.4507  -22.4034 N   0  0  0  0  0  0  0  0  0  0  0  0
  -22.3386   18.2283  -23.0191 C   0  0  0  0  0  0  0  0  0  0  0  0
  -23.3375   18.8801  -22.0863 C   0  0  0  0  0  0  0  0  0  0  0  0
  -23.7059   20.9305  -23.3587 N   0  0  0  0  0  0  0  0  0  0  0  0
  -24.6306   20.3730  -24.2026 C   0  0  0  0  0  0  0  0  0  0  0  0
  -24.1921   20.3745  -25.6469 C   0  0  0  0  0  0  0  0  0  0  0  0
  -23.5707   21.5309  -26.0358 O   0  0  0  0  0  0  0  0  0  0  0  0
  -22.5111   21.8754  -25.1911 C   0  0  0  0  0  0  0  0  0  0  0  0
  -23.1215   22.1231  -23.8269 C   0  0  0  0  0  0  0  0  0  0  0  0
  -25.2238   21.8428  -21.3767 C   0  0  0  0  0  0  0  0  0  0  0  0
  -24.0282   20.9753  -20.9772 C   0  0  0  0  0  0  0  0  0  0  0  0
  -24.5609   20.0427  -19.9476 C   0  0  0  0  0  0  0  0  0  0  0  0
  -12.5180    9.9808  -22.0756 C   0  0  0  0  0  0  0  0  0  0  0  0
  -11.7661    9.1220  -21.8933 N   0  0  0  0  0  0  0  0  0  0  0  0
 34 35  1  0  0  0
 35 36  1  0  0  0
 35 22  1  0  0  0
 22 28  1  0  0  0
 28 29  1  0  0  0
 29 30  1  0  0  0
 30 31  1  0  0  0
 31 32  1  0  0  0
 32 33  1  0  0  0
 22 23  1  0  0  0
 23 24  1  0  0  0
 24 25  1  0  0  0
 25  1  1  0  0  0
  1  2  2  0  0  0
  2  3  1  0  0  0
  3  4  2  0  0  0
  4  5  1  0  0  0
  5  6  2  0  0  0
  4  7  1  0  0  0
  7  8  2  0  0  0
  7  9  1  0  0  0
  9 10  2  0  0  0
 10 11  1  0  0  0
 11 12  1  0  0  0
 12 13  2  0  0  0
 13 14  1  0  0  0
 14 37  1  0  0  0
 37 38  3  0  0  0
 14 15  2  0  0  0
 15 16  1  0  0  0
 16 17  2  0  0  0
 10 18  1  0  0  0
 18 19  1  0  0  0
 18 20  1  0  0  0
 25 26  1  0  0  0
 26 27  1  0  0  0
 27 22  1  0  0  0
 33 28  1  0  0  0
  6  1  1  0  0  0
 17  9  1  0  0  0
 18  3  1  0  0  0
 17 12  1  0  0  0
 11 21  1  0  0  0
M  END
> <minimizedAffinity>
10.42309

> <CNNscore>
0.3843018711

> <CNNaffinity>
6.6300439835

> <CNN_VS>
2.5479383469

> <CNNaffinity_variance>
1.6656672955

$$$$
[H]c1nc(N2C([H])([H])C([H])([H])C(N3C([H])([H])C([H])([H])OC([H])([H])C3([H])[H])(C([H])(C([H])([H])[H])C([H])([H])[H])C([H])([H])C2([H])[H])c([H])c2c1C(=O)c1c(n([H])c3c([H])c(C#N)c([H])c([H])c13)C2(C([H])([H])[H])C([H])([H])[H]


 38 43  0  0  0  0  0  0  0  0999 V2000
  -19.5652   11.2197  -17.0152 C   0  0  0  0  0  0  0  0  0  0  0  0
  -18.6172   10.9233  -17.9593 C   0  0  0  0  0  0  0  0  0  0  0  0
  -18.4445   11.7194  -19.1001 C   0  0  0  0  0  0  0  0  0  0  0  0
  -19.2618   12.8111  -19.2388 C   0  0  0  0  0  0  0  0  0  0  0  0
  -20.2119   13.0889  -18.2709 C   0  0  0  0  0  0  0  0  0  0  0  0
  -20.3441   12.3003  -17.1935 N   0  0  0  0  0  0  0  0  0  0  0  0
  -19.1245   13.6707  -20.4028 C   0  0  0  0  0  0  0  0  0  0  0  0
  -19.8760   14.6826  -20.5399 O   0  0  0  0  0  0  0  0  0  0  0  0
  -18.1193   13.3537  -21.3991 C   0  0  0  0  0  0  0  0  0  0  0  0
  -17.3245   12.2492  -21.2151 C   0  0  0  0  0  0  0  0  0  0  0  0
  -16.4652   12.1552  -22.2688 N   0  0  0  0  0  0  0  0  0  0  0  0
  -16.6922   13.1772  -23.1260 C   0  0  0  0  0  0  0  0  0  0  0  0
  -16.1060   13.5361  -24.3269 C   0  0  0  0  0  0  0  0  0  0  0  0
  -16.5523   14.6498  -24.9924 C   0  0  0  0  0  0  0  0  0  0  0  0
  -17.5807   15.3802  -24.4342 C   0  0  0  0  0  0  0  0  0  0  0  0
  -18.1659   15.0254  -23.2395 C   0  0  0  0  0  0  0  0  0  0  0  0
  -17.7207   13.9180  -22.5800 C   0  0  0  0  0  0  0  0  0  0  0  0
  -17.4127   11.3460  -20.0668 C   0  0  0  0  0  0  0  0  0  0  0  0
  -16.0274   11.3304  -19.4057 C   0  0  0  0  0  0  0  0  0  0  0  0
  -17.6071    9.9352  -20.6199 C   0  0  0  0  0  0  0  0  0  0  0  0
  -15.7383   11.4346  -22.4296 H   0  0  0  0  0  0  0  0  0  0  0  0
  -20.4632    8.6236  -13.5588 C   0  0  0  0  0  0  0  0  0  0  0  0
  -21.1643    9.9376  -13.9653 C   0  0  0  0  0  0  0  0  0  0  0  0
  -20.2432   10.9341  -14.5916 C   0  0  0  0  0  0  0  0  0  0  0  0
  -19.7427   10.4082  -15.8467 N   0  0  0  0  0  0  0  0  0  0  0  0
  -19.4295    8.9845  -15.8335 C   0  0  0  0  0  0  0  0  0  0  0  0
  -19.1902    8.6420  -14.3780 C   0  0  0  0  0  0  0  0  0  0  0  0
  -21.3498    7.6043  -13.9115 N   0  0  0  0  0  0  0  0  0  0  0  0
  -21.0417    6.2709  -13.9836 C   0  0  0  0  0  0  0  0  0  0  0  0
  -21.5678    5.6076  -15.2333 C   0  0  0  0  0  0  0  0  0  0  0  0
  -22.8323    6.0025  -15.5795 O   0  0  0  0  0  0  0  0  0  0  0  0
  -22.9510    7.3931  -15.6635 C   0  0  0  0  0  0  0  0  0  0  0  0
  -22.6723    7.9258  -14.2730 C   0  0  0  0  0  0  0  0  0  0  0  0
  -18.6456    8.6475  -11.7971 C   0  0  0  0  0  0  0  0  0  0  0  0
  -20.1451    8.6282  -12.1010 C   0  0  0  0  0  0  0  0  0  0  0  0
  -20.7179    9.7169  -11.2641 C   0  0  0  0  0  0  0  0  0  0  0  0
  -15.9572   15.0578  -26.2609 C   0  0  0  0  0  0  0  0  0  0  0  0
  -15.4924   15.3970  -27.2633 N   0  0  0  0  0  0  0  0  0  0  0  0
 34 35  1  0  0  0
 35 36  1  0  0  0
 35 22  1  0  0  0
 22 28  1  0  0  0
 28 29  1  0  0  0
 29 30  1  0  0  0
 30 31  1  0  0  0
 31 32  1  0  0  0
 32 33  1  0  0  0
 22 23  1  0  0  0
 23 24  1  0  0  0
 24 25  1  0  0  0
 25  1  1  0  0  0
  1  2  2  0  0  0
  2  3  1  0  0  0
  3  4  2  0  0  0
  4  5  1  0  0  0
  5  6  2  0  0  0
  4  7  1  0  0  0
  7  8  2  0  0  0
  7  9  1  0  0  0
  9 10  2  0  0  0
 10 11  1  0  0  0
 11 12  1  0  0  0
 12 13  2  0  0  0
 13 14  1  0  0  0
 14 37  1  0  0  0
 37 38  3  0  0  0
 14 15  2  0  0  0
 15 16  1  0  0  0
 16 17  2  0  0  0
 10 18  1  0  0  0
 18 19  1  0  0  0
 18 20  1  0  0  0
 25 26  1  0  0  0
 26 27  1  0  0  0
 27 22  1  0  0  0
 33 28  1  0  0  0
  6  1  1  0  0  0
 17  9  1  0  0  0
 18  3  1  0  0  0
 17 12  1  0  0  0
 11 21  1  0  0  0
M  END
> <minimizedAffinity>
-9.94137

> <CNNscore>
0.3762011528

> <CNNaffinity>
7.1316628456

> <CNN_VS>
2.6829397678

> <CNNaffinity_variance>
0.1030732840

$$$$
[H]c1nc(N2C([H])([H])C([H])([H])C(N3C([H])([H])C([H])([H])OC([H])([H])C3([H])[H])(C([H])(C([H])([H])[H])C([H])([H])[H])C([H])([H])C2([H])[H])c([H])c2c1C(=O)c1c(n([H])c3c([H])c(C#N)c([H])c([H])c13)C2(C([H])([H])[H])C([H])([H])[H]


 38 43  0  0  0  0  0  0  0  0999 V2000
  -19.4859   10.9262  -17.2756 C   0  0  0  0  0  0  0  0  0  0  0  0
  -18.6355   10.6048  -18.3009 C   0  0  0  0  0  0  0  0  0  0  0  0
  -18.2300   11.5596  -19.2438 C   0  0  0  0  0  0  0  0  0  0  0  0
  -18.7167   12.8333  -19.1033 C   0  0  0  0  0  0  0  0  0  0  0  0
  -19.5747   13.1325  -18.0587 C   0  0  0  0  0  0  0  0  0  0  0  0
  -19.9379   12.1880  -17.1777 N   0  0  0  0  0  0  0  0  0  0  0  0
  -18.3275   13.8623  -20.0532 C   0  0  0  0  0  0  0  0  0  0  0  0
  -18.7726   15.0431  -19.9315 O   0  0  0  0  0  0  0  0  0  0  0  0
  -17.4266   13.5179  -21.1363 C   0  0  0  0  0  0  0  0  0  0  0  0
  -16.9660   12.2281  -21.2347 C   0  0  0  0  0  0  0  0  0  0  0  0
  -16.1436   12.1447  -22.3183 N   0  0  0  0  0  0  0  0  0  0  0  0
  -16.0669   13.3551  -22.9181 C   0  0  0  0  0  0  0  0  0  0  0  0
  -15.3813   13.8024  -24.0336 C   0  0  0  0  0  0  0  0  0  0  0  0
  -15.4944   15.1150  -24.4171 C   0  0  0  0  0  0  0  0  0  0  0  0
  -16.2966   15.9509  -23.6684 C   0  0  0  0  0  0  0  0  0  0  0  0
  -16.9800   15.5085  -22.5582 C   0  0  0  0  0  0  0  0  0  0  0  0
  -16.8660   14.2036  -22.1791 C   0  0  0  0  0  0  0  0  0  0  0  0
  -17.3194   11.1486  -20.3117 C   0  0  0  0  0  0  0  0  0  0  0  0
  -16.0041   10.6127  -19.7293 C   0  0  0  0  0  0  0  0  0  0  0  0
  -17.8789   10.0035  -21.1542 C   0  0  0  0  0  0  0  0  0  0  0  0
  -15.6369   11.3100  -22.6649 H   0  0  0  0  0  0  0  0  0  0  0  0
  -20.5425    8.1167  -14.0378 C   0  0  0  0  0  0  0  0  0  0  0  0
  -19.1606    8.3347  -14.6907 C   0  0  0  0  0  0  0  0  0  0  0  0
  -19.2364    8.6739  -16.1443 C   0  0  0  0  0  0  0  0  0  0  0  0
  -19.9008    9.9521  -16.3089 N   0  0  0  0  0  0  0  0  0  0  0  0
  -21.0301   10.1757  -15.4146 C   0  0  0  0  0  0  0  0  0  0  0  0
  -21.4927    8.7940  -15.0025 C   0  0  0  0  0  0  0  0  0  0  0  0
  -20.4658    8.7359  -12.7887 N   0  0  0  0  0  0  0  0  0  0  0  0
  -21.5136    8.9162  -11.9240 C   0  0  0  0  0  0  0  0  0  0  0  0
  -21.5699   10.3083  -11.3431 C   0  0  0  0  0  0  0  0  0  0  0  0
  -20.3457   10.8133  -10.9956 O   0  0  0  0  0  0  0  0  0  0  0  0
  -19.4251   10.7465  -12.0458 C   0  0  0  0  0  0  0  0  0  0  0  0
  -19.2400    9.2747  -12.3527 C   0  0  0  0  0  0  0  0  0  0  0  0
  -21.7775    6.1492  -15.0436 C   0  0  0  0  0  0  0  0  0  0  0  0
  -20.8514    6.6603  -13.9380 C   0  0  0  0  0  0  0  0  0  0  0  0
  -19.7119    5.7037  -13.9225 C   0  0  0  0  0  0  0  0  0  0  0  0
  -14.7855   15.6210  -25.5880 C   0  0  0  0  0  0  0  0  0  0  0  0
  -14.2393   16.0226  -26.5241 N   0  0  0  0  0  0  0  0  0  0  0  0
 34 35  1  0  0  0
 35 36  1  0  0  0
 35 22  1  0  0  0
 22 28  1  0  0  0
 28 29  1  0  0  0
 29 30  1  0  0  0
 30 31  1  0  0  0
 31 32  1  0  0  0
 32 33  1  0  0  0
 22 23  1  0  0  0
 23 24  1  0  0  0
 24 25  1  0  0  0
 25  1  1  0  0  0
  1  2  2  0  0  0
  2  3  1  0  0  0
  3  4  2  0  0  0
  4  5  1  0  0  0
  5  6  2  0  0  0
  4  7  1  0  0  0
  7  8  2  0  0  0
  7  9  1  0  0  0
  9 10  2  0  0  0
 10 11  1  0  0  0
 11 12  1  0  0  0
 12 13  2  0  0  0
 13 14  1  0  0  0
 14 37  1  0  0  0
 37 38  3  0  0  0
 14 15  2  0  0  0
 15 16  1  0  0  0
 16 17  2  0  0  0
 10 18  1  0  0  0
 18 19  1  0  0  0
 18 20  1  0  0  0
 25 26  1  0  0  0
 26 27  1  0  0  0
 27 22  1  0  0  0
 33 28  1  0  0  0
  6  1  1  0  0  0
 17  9  1  0  0  0
 18  3  1  0  0  0
 17 12  1  0  0  0
 11 21  1  0  0  0
M  END
> <minimizedAffinity>
-9.32603

> <CNNscore>
0.3103984594

> <CNNaffinity>
7.1066827774

> <CNN_VS>
2.2059032917

> <CNNaffinity_variance>
0.1081654206

$$$$
[H]OC(=O)c1c([H])c([H])nc([H])c1N([H])C([H])([H])C1([H])c2c([H])c([H])c(Sc3sc([H])c([H])c3[H])c([H])c2OC([H])([H])C1([H])[H]


 29 32  0  0  0  0  0  0  0  0999 V2000
  -17.5282   16.5527  -20.7766 C   0  0  0  0  0  0  0  0  0  0  0  0
  -17.5702   16.5643  -19.2568 C   0  0  0  0  0  0  0  0  0  0  0  0
  -18.7263   15.7476  -18.7681 C   0  0  0  0  0  0  0  0  0  0  0  0
  -19.9141   16.1130  -19.4035 O   0  0  0  0  0  0  0  0  0  0  0  0
  -19.9499   16.9175  -20.5425 C   0  0  0  0  0  0  0  0  0  0  0  0
  -21.1610   17.4789  -20.9670 C   0  0  0  0  0  0  0  0  0  0  0  0
  -21.2255   18.2792  -22.0914 C   0  0  0  0  0  0  0  0  0  0  0  0
  -20.0511   18.5039  -22.7795 C   0  0  0  0  0  0  0  0  0  0  0  0
  -18.8378   17.9461  -22.3609 C   0  0  0  0  0  0  0  0  0  0  0  0
  -18.8065   17.1604  -21.2472 C   0  0  0  0  0  0  0  0  0  0  0  0
  -17.4130   15.1181  -21.2146 C   0  0  0  0  0  0  0  0  0  0  0  0
  -17.5451   14.9475  -22.6594 N   0  0  0  0  0  0  0  0  0  0  0  0
  -18.4878   14.7649  -23.0470 H   0  0  0  0  0  0  0  0  0  0  0  0
  -15.5999   13.9213  -23.7651 C   0  0  0  0  0  0  0  0  0  0  0  0
  -14.4925   14.1272  -24.6191 C   0  0  0  0  0  0  0  0  0  0  0  0
  -14.2414   15.3315  -25.2066 C   0  0  0  0  0  0  0  0  0  0  0  0
  -15.0644   16.3501  -24.9700 N   0  0  0  0  0  0  0  0  0  0  0  0
  -16.1270   16.2116  -24.1695 C   0  0  0  0  0  0  0  0  0  0  0  0
  -16.4291   14.9946  -23.5415 C   0  0  0  0  0  0  0  0  0  0  0  0
  -16.8554   12.1956  -22.6983 O   0  0  0  0  0  0  0  0  0  0  0  0
  -15.8223   12.6160  -23.2100 C   0  0  0  0  0  0  0  0  0  0  0  0
  -14.7551   11.6931  -23.2410 O   0  0  0  0  0  0  0  0  0  0  0  0
  -14.2906   11.3878  -22.4023 H   0  0  0  0  0  0  0  0  0  0  0  0
  -22.7951   18.9511  -22.5617 S   0  0  0  0  0  0  0  0  0  0  0  0
  -23.1662   18.5863  -24.2907 C   0  0  0  0  0  0  0  0  0  0  0  0
  -23.2816   17.3475  -24.8706 C   0  0  0  0  0  0  0  0  0  0  0  0
  -23.5661   17.3154  -26.1865 C   0  0  0  0  0  0  0  0  0  0  0  0
  -23.7142   18.5191  -26.8260 C   0  0  0  0  0  0  0  0  0  0  0  0
  -23.4544   19.6504  -25.5831 S   0  0  0  0  0  0  0  0  0  0  0  0
 20 21  2  0  0  0
 21 22  1  0  0  0
 21 14  1  0  0  0
 14 15  2  0  0  0
 15 16  1  0  0  0
 16 17  2  0  0  0
 17 18  1  0  0  0
 18 19  2  0  0  0
 19 12  1  0  0  0
 12 11  1  0  0  0
 11  1  1  0  0  0
  1  2  1  0  0  0
  2  3  1  0  0  0
  3  4  1  0  0  0
  4  5  1  0  0  0
  5  6  2  0  0  0
  6  7  1  0  0  0
  7 24  1  0  0  0
 24 25  1  0  0  0
 25 26  2  0  0  0
 26 27  1  0  0  0
 27 28  2  0  0  0
 28 29  1  0  0  0
  7  8  2  0  0  0
  8  9  1  0  0  0
  9 10  2  0  0  0
 19 14  1  0  0  0
 10  1  1  0  0  0
 10  5  1  0  0  0
 29 25  1  0  0  0
 22 23  1  0  0  0
 12 13  1  0  0  0
M  END
> <minimizedAffinity>
-7.49335

> <CNNscore>
0.2594317794

> <CNNaffinity>
6.1965160370

> <CNN_VS>
1.6075731516

> <CNNaffinity_variance>
0.2063968927

$$$$
[H]OC(=O)c1c([H])c([H])nc([H])c1N([H])C([H])([H])C1([H])c2c([H])c([H])c(Sc3sc([H])c([H])c3[H])c([H])c2OC([H])([H])C1([H])[H]


 29 32  0  0  0  0  0  0  0  0999 V2000
  -19.1568   14.2649  -20.2468 C   0  0  0  0  0  0  0  0  0  0  0  0
  -18.3009   13.8152  -21.4203 C   0  0  0  0  0  0  0  0  0  0  0  0
  -17.3812   14.9203  -21.8392 C   0  0  0  0  0  0  0  0  0  0  0  0
  -18.0739   16.1174  -22.0264 O   0  0  0  0  0  0  0  0  0  0  0  0
  -19.3849   16.3125  -21.5915 C   0  0  0  0  0  0  0  0  0  0  0  0
  -20.1188   17.4146  -22.0484 C   0  0  0  0  0  0  0  0  0  0  0  0
  -21.4188   17.6323  -21.6340 C   0  0  0  0  0  0  0  0  0  0  0  0
  -21.9655   16.7222  -20.7530 C   0  0  0  0  0  0  0  0  0  0  0  0
  -21.2379   15.6192  -20.2926 C   0  0  0  0  0  0  0  0  0  0  0  0
  -19.9569   15.4315  -20.7199 C   0  0  0  0  0  0  0  0  0  0  0  0
  -18.2257   14.6583  -19.1328 C   0  0  0  0  0  0  0  0  0  0  0  0
  -18.4552   13.9064  -17.9015 N   0  0  0  0  0  0  0  0  0  0  0  0
  -18.5464   14.4339  -17.0151 H   0  0  0  0  0  0  0  0  0  0  0  0
  -19.5535   11.7954  -17.2715 C   0  0  0  0  0  0  0  0  0  0  0  0
  -19.4671   10.3845  -17.2659 C   0  0  0  0  0  0  0  0  0  0  0  0
  -18.4204    9.7179  -17.8302 C   0  0  0  0  0  0  0  0  0  0  0  0
  -17.4448   10.4158  -18.4064 N   0  0  0  0  0  0  0  0  0  0  0  0
  -17.4750   11.7526  -18.4398 C   0  0  0  0  0  0  0  0  0  0  0  0
  -18.5285   12.4852  -17.8742 C   0  0  0  0  0  0  0  0  0  0  0  0
  -21.2269   12.1651  -15.6117 O   0  0  0  0  0  0  0  0  0  0  0  0
  -20.7034   12.4284  -16.6897 C   0  0  0  0  0  0  0  0  0  0  0  0
  -21.3216   13.4708  -17.4129 O   0  0  0  0  0  0  0  0  0  0  0  0
  -22.2400   13.3705  -17.8114 H   0  0  0  0  0  0  0  0  0  0  0  0
  -22.2789   19.0490  -22.2580 S   0  0  0  0  0  0  0  0  0  0  0  0
  -22.8629   18.7647  -23.9426 C   0  0  0  0  0  0  0  0  0  0  0  0
  -23.0175   17.5555  -24.5739 C   0  0  0  0  0  0  0  0  0  0  0  0
  -23.4710   17.5840  -25.8415 C   0  0  0  0  0  0  0  0  0  0  0  0
  -23.7366   18.8143  -26.3854 C   0  0  0  0  0  0  0  0  0  0  0  0
  -23.3489   19.8857  -25.1229 S   0  0  0  0  0  0  0  0  0  0  0  0
 20 21  2  0  0  0
 21 22  1  0  0  0
 21 14  1  0  0  0
 14 15  2  0  0  0
 15 16  1  0  0  0
 16 17  2  0  0  0
 17 18  1  0  0  0
 18 19  2  0  0  0
 19 12  1  0  0  0
 12 11  1  0  0  0
 11  1  1  0  0  0
  1  2  1  0  0  0
  2  3  1  0  0  0
  3  4  1  0  0  0
  4  5  1  0  0  0
  5  6  2  0  0  0
  6  7  1  0  0  0
  7 24  1  0  0  0
 24 25  1  0  0  0
 25 26  2  0  0  0
 26 27  1  0  0  0
 27 28  2  0  0  0
 28 29  1  0  0  0
  7  8  2  0  0  0
  8  9  1  0  0  0
  9 10  2  0  0  0
 19 14  1  0  0  0
 10  1  1  0  0  0
 10  5  1  0  0  0
 29 25  1  0  0  0
 22 23  1  0  0  0
 12 13  1  0  0  0
M  END
> <minimizedAffinity>
-7.14512

> <CNNscore>
0.2191657722

> <CNNaffinity>
5.7806549072

> <CNN_VS>
1.2669216394

> <CNNaffinity_variance>
0.1259430945

$$$$
[H]OC(=O)c1c([H])c([H])nc([H])c1N([H])C([H])([H])C1([H])c2c([H])c([H])c(Sc3sc([H])c([H])c3[H])c([H])c2OC([H])([H])C1([H])[H]


 29 32  0  0  0  0  0  0  0  0999 V2000
  -18.4039   13.6423  -18.7443 C   0  0  0  0  0  0  0  0  0  0  0  0
  -18.3656   15.1442  -18.5107 C   0  0  0  0  0  0  0  0  0  0  0  0
  -19.3914   15.8237  -19.3642 C   0  0  0  0  0  0  0  0  0  0  0  0
  -19.2938   15.4215  -20.6972 O   0  0  0  0  0  0  0  0  0  0  0  0
  -18.5408   14.3204  -21.1052 C   0  0  0  0  0  0  0  0  0  0  0  0
  -18.2513   14.1329  -22.4628 C   0  0  0  0  0  0  0  0  0  0  0  0
  -17.5080   13.0513  -22.8949 C   0  0  0  0  0  0  0  0  0  0  0  0
  -17.0621   12.1637  -21.9376 C   0  0  0  0  0  0  0  0  0  0  0  0
  -17.3478   12.3451  -20.5797 C   0  0  0  0  0  0  0  0  0  0  0  0
  -18.0839   13.4224  -20.1845 C   0  0  0  0  0  0  0  0  0  0  0  0
  -19.7936   13.1692  -18.4163 C   0  0  0  0  0  0  0  0  0  0  0  0
  -19.9072   12.6137  -17.0700 N   0  0  0  0  0  0  0  0  0  0  0  0
  -20.0481   13.2683  -16.2801 H   0  0  0  0  0  0  0  0  0  0  0  0
  -20.4849   10.5922  -15.7896 C   0  0  0  0  0  0  0  0  0  0  0  0
  -20.2397    9.2128  -15.6020 C   0  0  0  0  0  0  0  0  0  0  0  0
  -19.3688    8.5159  -16.3858 C   0  0  0  0  0  0  0  0  0  0  0  0
  -18.7256    9.1526  -17.3613 N   0  0  0  0  0  0  0  0  0  0  0  0
  -18.9188   10.4575  -17.5830 C   0  0  0  0  0  0  0  0  0  0  0  0
  -19.8033   11.2190  -16.8055 C   0  0  0  0  0  0  0  0  0  0  0  0
  -21.6147   11.0820  -13.7461 O   0  0  0  0  0  0  0  0  0  0  0  0
  -21.4427   11.2534  -14.9489 C   0  0  0  0  0  0  0  0  0  0  0  0
  -22.2942   12.2102  -15.5416 O   0  0  0  0  0  0  0  0  0  0  0  0
  -23.2832   12.0540  -15.6407 H   0  0  0  0  0  0  0  0  0  0  0  0
  -17.1853   12.8858  -24.6283 S   0  0  0  0  0  0  0  0  0  0  0  0
  -15.9123   14.0478  -25.1662 C   0  0  0  0  0  0  0  0  0  0  0  0
  -14.6482   14.1904  -24.6504 C   0  0  0  0  0  0  0  0  0  0  0  0
  -13.8634   15.1292  -25.2127 C   0  0  0  0  0  0  0  0  0  0  0  0
  -14.3963   15.8555  -26.2464 C   0  0  0  0  0  0  0  0  0  0  0  0
  -15.9630   15.2126  -26.4017 S   0  0  0  0  0  0  0  0  0  0  0  0
 20 21  2  0  0  0
 21 22  1  0  0  0
 21 14  1  0  0  0
 14 15  2  0  0  0
 15 16  1  0  0  0
 16 17  2  0  0  0
 17 18  1  0  0  0
 18 19  2  0  0  0
 19 12  1  0  0  0
 12 11  1  0  0  0
 11  1  1  0  0  0
  1  2  1  0  0  0
  2  3  1  0  0  0
  3  4  1  0  0  0
  4  5  1  0  0  0
  5  6  2  0  0  0
  6  7  1  0  0  0
  7 24  1  0  0  0
 24 25  1  0  0  0
 25 26  2  0  0  0
 26 27  1  0  0  0
 27 28  2  0  0  0
 28 29  1  0  0  0
  7  8  2  0  0  0
  8  9  1  0  0  0
  9 10  2  0  0  0
 19 14  1  0  0  0
 10  1  1  0  0  0
 10  5  1  0  0  0
 29 25  1  0  0  0
 22 23  1  0  0  0
 12 13  1  0  0  0
M  END
> <minimizedAffinity>
-7.72467

> <CNNscore>
0.2184194922

> <CNNaffinity>
6.4079122543

> <CNN_VS>
1.3996129036

> <CNNaffinity_variance>
0.1554218531

$$$$
[H]OC(=O)c1c([H])c([H])nc([H])c1N([H])C([H])([H])C1([H])c2c([H])c([H])c(Sc3sc([H])c([H])c3[H])c([H])c2OC([H])([H])C1([H])[H]


 29 32  0  0  0  0  0  0  0  0999 V2000
  -17.6035   12.3668  -19.2896 C   0  0  0  0  0  0  0  0  0  0  0  0
  -16.4114   11.4249  -19.3500 C   0  0  0  0  0  0  0  0  0  0  0  0
  -16.8712   10.0323  -19.6529 C   0  0  0  0  0  0  0  0  0  0  0  0
  -17.9035    9.6389  -18.7998 O   0  0  0  0  0  0  0  0  0  0  0  0
  -18.5987   10.5332  -17.9857 C   0  0  0  0  0  0  0  0  0  0  0  0
  -19.4189   10.0530  -16.9568 C   0  0  0  0  0  0  0  0  0  0  0  0
  -20.1189   10.9159  -16.1356 C   0  0  0  0  0  0  0  0  0  0  0  0
  -19.9786   12.2685  -16.3685 C   0  0  0  0  0  0  0  0  0  0  0  0
  -19.1609   12.7549  -17.3946 C   0  0  0  0  0  0  0  0  0  0  0  0
  -18.4828   11.8779  -18.1884 C   0  0  0  0  0  0  0  0  0  0  0  0
  -18.3039   12.2952  -20.6189 C   0  0  0  0  0  0  0  0  0  0  0  0
  -18.1312   13.5021  -21.4236 N   0  0  0  0  0  0  0  0  0  0  0  0
  -18.8573   14.2380  -21.3652 H   0  0  0  0  0  0  0  0  0  0  0  0
  -16.3292   14.8696  -22.3943 C   0  0  0  0  0  0  0  0  0  0  0  0
  -15.2898   14.9326  -23.3503 C   0  0  0  0  0  0  0  0  0  0  0  0
  -14.9740   13.8760  -24.1517 C   0  0  0  0  0  0  0  0  0  0  0  0
  -15.6657   12.7454  -24.0330 N   0  0  0  0  0  0  0  0  0  0  0  0
  -16.6600   12.6307  -23.1457 C   0  0  0  0  0  0  0  0  0  0  0  0
  -17.0240   13.6874  -22.2987 C   0  0  0  0  0  0  0  0  0  0  0  0
  -16.9422   16.0031  -20.3865 O   0  0  0  0  0  0  0  0  0  0  0  0
  -16.5823   16.0100  -21.5596 C   0  0  0  0  0  0  0  0  0  0  0  0
  -16.4070   17.2929  -22.1209 O   0  0  0  0  0  0  0  0  0  0  0  0
  -17.1830   17.9110  -22.2892 H   0  0  0  0  0  0  0  0  0  0  0  0
  -21.1344   10.2294  -14.8575 S   0  0  0  0  0  0  0  0  0  0  0  0
  -20.1665    9.8868  -13.3722 C   0  0  0  0  0  0  0  0  0  0  0  0
  -19.9105   10.7459  -12.3327 C   0  0  0  0  0  0  0  0  0  0  0  0
  -19.1587   10.2711  -11.3213 C   0  0  0  0  0  0  0  0  0  0  0  0
  -18.7183    8.9765  -11.4212 C   0  0  0  0  0  0  0  0  0  0  0  0
  -19.3605    8.4645  -12.9103 S   0  0  0  0  0  0  0  0  0  0  0  0
 20 21  2  0  0  0
 21 22  1  0  0  0
 21 14  1  0  0  0
 14 15  2  0  0  0
 15 16  1  0  0  0
 16 17  2  0  0  0
 17 18  1  0  0  0
 18 19  2  0  0  0
 19 12  1  0  0  0
 12 11  1  0  0  0
 11  1  1  0  0  0
  1  2  1  0  0  0
  2  3  1  0  0  0
  3  4  1  0  0  0
  4  5  1  0  0  0
  5  6  2  0  0  0
  6  7  1  0  0  0
  7 24  1  0  0  0
 24 25  1  0  0  0
 25 26  2  0  0  0
 26 27  1  0  0  0
 27 28  2  0  0  0
 28 29  1  0  0  0
  7  8  2  0  0  0
  8  9  1  0  0  0
  9 10  2  0  0  0
 19 14  1  0  0  0
 10  1  1  0  0  0
 10  5  1  0  0  0
 29 25  1  0  0  0
 22 23  1  0  0  0
 12 13  1  0  0  0
M  END
> <minimizedAffinity>
-7.62760

> <CNNscore>
0.1981077194

> <CNNaffinity>
5.7403740883

> <CNN_VS>
1.1372123957

> <CNNaffinity_variance>
0.2256370485

$$$$
[H]OC(=O)c1c([H])c([H])nc([H])c1N([H])C([H])([H])C1([H])c2c([H])c([H])c(Sc3sc([H])c([H])c3[H])c([H])c2OC([H])([H])C1([H])[H]


 29 32  0  0  0  0  0  0  0  0999 V2000
  -16.7479   16.8055  -21.7669 C   0  0  0  0  0  0  0  0  0  0  0  0
  -16.4423   17.2156  -20.3350 C   0  0  0  0  0  0  0  0  0  0  0  0
  -17.3513   16.4943  -19.3884 C   0  0  0  0  0  0  0  0  0  0  0  0
  -18.6875   16.6128  -19.7739 O   0  0  0  0  0  0  0  0  0  0  0  0
  -19.0776   17.0848  -21.0272 C   0  0  0  0  0  0  0  0  0  0  0  0
  -20.4113   17.4465  -21.2566 C   0  0  0  0  0  0  0  0  0  0  0  0
  -20.8253   17.9167  -22.4880 C   0  0  0  0  0  0  0  0  0  0  0  0
  -19.8743   18.0163  -23.4825 C   0  0  0  0  0  0  0  0  0  0  0  0
  -18.5403   17.6567  -23.2601 C   0  0  0  0  0  0  0  0  0  0  0  0
  -18.1625   17.1959  -22.0338 C   0  0  0  0  0  0  0  0  0  0  0  0
  -16.5673   15.3149  -21.8584 C   0  0  0  0  0  0  0  0  0  0  0  0
  -15.7184   14.9078  -22.9754 N   0  0  0  0  0  0  0  0  0  0  0  0
  -14.7010   15.0885  -22.9089 H   0  0  0  0  0  0  0  0  0  0  0  0
  -16.0526   14.8211  -25.4127 C   0  0  0  0  0  0  0  0  0  0  0  0
  -16.6800   14.1506  -26.4873 C   0  0  0  0  0  0  0  0  0  0  0  0
  -17.4418   13.0352  -26.3031 C   0  0  0  0  0  0  0  0  0  0  0  0
  -17.6028   12.5588  -25.0710 N   0  0  0  0  0  0  0  0  0  0  0  0
  -17.0329   13.1540  -24.0174 C   0  0  0  0  0  0  0  0  0  0  0  0
  -16.2404   14.3029  -24.1534 C   0  0  0  0  0  0  0  0  0  0  0  0
  -14.2253   16.0103  -26.3816 O   0  0  0  0  0  0  0  0  0  0  0  0
  -15.2352   15.9694  -25.6859 C   0  0  0  0  0  0  0  0  0  0  0  0
  -15.6079   17.2002  -25.1047 O   0  0  0  0  0  0  0  0  0  0  0  0
  -15.0551   17.6397  -24.3880 H   0  0  0  0  0  0  0  0  0  0  0  0
  -22.5289   18.3529  -22.6972 S   0  0  0  0  0  0  0  0  0  0  0  0
  -22.9978   18.3234  -24.4405 C   0  0  0  0  0  0  0  0  0  0  0  0
  -23.2920   17.2196  -25.2017 C   0  0  0  0  0  0  0  0  0  0  0  0
  -23.6188   17.4378  -26.4897 C   0  0  0  0  0  0  0  0  0  0  0  0
  -23.6280   18.7386  -26.9231 C   0  0  0  0  0  0  0  0  0  0  0  0
  -23.1844   19.6113  -25.5325 S   0  0  0  0  0  0  0  0  0  0  0  0
 20 21  2  0  0  0
 21 22  1  0  0  0
 21 14  1  0  0  0
 14 15  2  0  0  0
 15 16  1  0  0  0
 16 17  2  0  0  0
 17 18  1  0  0  0
 18 19  2  0  0  0
 19 12  1  0  0  0
 12 11  1  0  0  0
 11  1  1  0  0  0
  1  2  1  0  0  0
  2  3  1  0  0  0
  3  4  1  0  0  0
  4  5  1  0  0  0
  5  6  2  0  0  0
  6  7  1  0  0  0
  7 24  1  0  0  0
 24 25  1  0  0  0
 25 26  2  0  0  0
 26 27  1  0  0  0
 27 28  2  0  0  0
 28 29  1  0  0  0
  7  8  2  0  0  0
  8  9  1  0  0  0
  9 10  2  0  0  0
 19 14  1  0  0  0
 10  1  1  0  0  0
 10  5  1  0  0  0
 29 25  1  0  0  0
 22 23  1  0  0  0
 12 13  1  0  0  0
M  END
> <minimizedAffinity>
-7.93207

> <CNNscore>
0.1921618581

> <CNNaffinity>
5.8520479202

> <CNN_VS>
1.1245404482

> <CNNaffinity_variance>
0.7173042893

$$$$
[H]OC(=O)c1c([H])c([H])nc([H])c1N([H])C([H])([H])C1([H])c2c([H])c([H])c(Sc3sc([H])c([H])c3[H])c([H])c2OC([H])([H])C1([H])[H]


 29 32  0  0  0  0  0  0  0  0999 V2000
  -19.4371   14.6858  -18.7249 C   0  0  0  0  0  0  0  0  0  0  0  0
  -20.2156   13.4857  -18.2093 C   0  0  0  0  0  0  0  0  0  0  0  0
  -19.2713   12.4004  -17.7935 C   0  0  0  0  0  0  0  0  0  0  0  0
  -18.3381   12.1248  -18.7941 O   0  0  0  0  0  0  0  0  0  0  0  0
  -18.1392   12.9554  -19.8970 C   0  0  0  0  0  0  0  0  0  0  0  0
  -17.4050   12.4959  -20.9979 C   0  0  0  0  0  0  0  0  0  0  0  0
  -17.1924   13.2972  -22.1032 C   0  0  0  0  0  0  0  0  0  0  0  0
  -17.7313   14.5670  -22.0804 C   0  0  0  0  0  0  0  0  0  0  0  0
  -18.4658   15.0323  -20.9839 C   0  0  0  0  0  0  0  0  0  0  0  0
  -18.6583   14.2177  -19.9078 C   0  0  0  0  0  0  0  0  0  0  0  0
  -18.5261   15.1427  -17.6185 C   0  0  0  0  0  0  0  0  0  0  0  0
  -18.0706   16.5209  -17.7834 N   0  0  0  0  0  0  0  0  0  0  0  0
  -17.0527   16.7079  -17.7498 H   0  0  0  0  0  0  0  0  0  0  0  0
  -19.6977   18.1586  -16.9287 C   0  0  0  0  0  0  0  0  0  0  0  0
  -20.6007   19.1954  -17.2566 C   0  0  0  0  0  0  0  0  0  0  0  0
  -20.7574   19.6464  -18.5335 C   0  0  0  0  0  0  0  0  0  0  0  0
  -20.0378   19.0938  -19.5070 N   0  0  0  0  0  0  0  0  0  0  0  0
  -19.1691   18.1088  -19.2536 C   0  0  0  0  0  0  0  0  0  0  0  0
  -18.9710   17.6094  -17.9582 C   0  0  0  0  0  0  0  0  0  0  0  0
  -18.9112   18.3273  -14.6826 O   0  0  0  0  0  0  0  0  0  0  0  0
  -19.5588   17.7594  -15.5566 C   0  0  0  0  0  0  0  0  0  0  0  0
  -20.2280   16.5901  -15.1366 O   0  0  0  0  0  0  0  0  0  0  0  0
  -19.7295   15.7560  -14.8753 H   0  0  0  0  0  0  0  0  0  0  0  0
  -16.2535   12.6420  -23.4542 S   0  0  0  0  0  0  0  0  0  0  0  0
  -15.7965   13.9433  -24.6195 C   0  0  0  0  0  0  0  0  0  0  0  0
  -16.5463   14.4206  -25.6656 C   0  0  0  0  0  0  0  0  0  0  0  0
  -15.9998   15.4020  -26.4084 C   0  0  0  0  0  0  0  0  0  0  0  0
  -14.7479   15.8343  -26.0537 C   0  0  0  0  0  0  0  0  0  0  0  0
  -14.3735   14.8671  -24.7060 S   0  0  0  0  0  0  0  0  0  0  0  0
 20 21  2  0  0  0
 21 22  1  0  0  0
 21 14  1  0  0  0
 14 15  2  0  0  0
 15 16  1  0  0  0
 16 17  2  0  0  0
 17 18  1  0  0  0
 18 19  2  0  0  0
 19 12  1  0  0  0
 12 11  1  0  0  0
 11  1  1  0  0  0
  1  2  1  0  0  0
  2  3  1  0  0  0
  3  4  1  0  0  0
  4  5  1  0  0  0
  5  6  2  0  0  0
  6  7  1  0  0  0
  7 24  1  0  0  0
 24 25  1  0  0  0
 25 26  2  0  0  0
 26 27  1  0  0  0
 27 28  2  0  0  0
 28 29  1  0  0  0
  7  8  2  0  0  0
  8  9  1  0  0  0
  9 10  2  0  0  0
 19 14  1  0  0  0
 10  1  1  0  0  0
 10  5  1  0  0  0
 29 25  1  0  0  0
 22 23  1  0  0  0
 12 13  1  0  0  0
M  END
> <minimizedAffinity>
-7.52707

> <CNNscore>
0.1767760515

> <CNNaffinity>
6.1925644875

> <CNN_VS>
1.0946971178

> <CNNaffinity_variance>
0.1450243443

$$$$
[H]OC(=O)c1c([H])c([H])nc([H])c1N([H])C([H])([H])C1([H])c2c([H])c([H])c(Sc3sc([H])c([H])c3[H])c([H])c2OC([H])([H])C1([H])[H]


 29 32  0  0  0  0  0  0  0  0999 V2000
  -18.2724   12.1426  -20.8167 C   0  0  0  0  0  0  0  0  0  0  0  0
  -17.5821   12.1517  -22.1715 C   0  0  0  0  0  0  0  0  0  0  0  0
  -16.5933   13.2743  -22.2372 C   0  0  0  0  0  0  0  0  0  0  0  0
  -17.1694   14.4852  -21.8496 O   0  0  0  0  0  0  0  0  0  0  0  0
  -18.4059   14.5676  -21.2093 C   0  0  0  0  0  0  0  0  0  0  0  0
  -19.0580   15.8024  -21.0995 C   0  0  0  0  0  0  0  0  0  0  0  0
  -20.2832   15.9131  -20.4704 C   0  0  0  0  0  0  0  0  0  0  0  0
  -20.8391   14.7604  -19.9549 C   0  0  0  0  0  0  0  0  0  0  0  0
  -20.1930   13.5237  -20.0612 C   0  0  0  0  0  0  0  0  0  0  0  0
  -18.9845   13.4468  -20.6878 C   0  0  0  0  0  0  0  0  0  0  0  0
  -17.2050   11.9982  -19.7666 C   0  0  0  0  0  0  0  0  0  0  0  0
  -17.7144   12.1535  -18.4063 N   0  0  0  0  0  0  0  0  0  0  0  0
  -17.5087   13.0351  -17.9037 H   0  0  0  0  0  0  0  0  0  0  0  0
  -19.4588   11.3939  -16.8444 C   0  0  0  0  0  0  0  0  0  0  0  0
  -20.0661   10.2841  -16.2139 C   0  0  0  0  0  0  0  0  0  0  0  0
  -19.6848    9.0014  -16.4744 C   0  0  0  0  0  0  0  0  0  0  0  0
  -18.7077    8.7830  -17.3510 N   0  0  0  0  0  0  0  0  0  0  0  0
  -18.0977    9.7960  -17.9761 C   0  0  0  0  0  0  0  0  0  0  0  0
  -18.4525   11.1327  -17.7436 C   0  0  0  0  0  0  0  0  0  0  0  0
  -21.0939   13.1166  -16.6187 O   0  0  0  0  0  0  0  0  0  0  0  0
  -19.9366   12.7150  -16.5480 C   0  0  0  0  0  0  0  0  0  0  0  0
  -18.9965   13.6797  -16.1271 O   0  0  0  0  0  0  0  0  0  0  0  0
  -18.7539   14.4715  -16.6985 H   0  0  0  0  0  0  0  0  0  0  0  0
  -21.0423   17.5101  -20.3732 S   0  0  0  0  0  0  0  0  0  0  0  0
  -22.1101   17.8098  -21.7980 C   0  0  0  0  0  0  0  0  0  0  0  0
  -23.3601   17.2886  -22.0218 C   0  0  0  0  0  0  0  0  0  0  0  0
  -23.9767   17.6533  -23.1621 C   0  0  0  0  0  0  0  0  0  0  0  0
  -23.3022   18.5096  -23.9938 C   0  0  0  0  0  0  0  0  0  0  0  0
  -21.8404   18.7781  -23.1674 S   0  0  0  0  0  0  0  0  0  0  0  0
 20 21  2  0  0  0
 21 22  1  0  0  0
 21 14  1  0  0  0
 14 15  2  0  0  0
 15 16  1  0  0  0
 16 17  2  0  0  0
 17 18  1  0  0  0
 18 19  2  0  0  0
 19 12  1  0  0  0
 12 11  1  0  0  0
 11  1  1  0  0  0
  1  2  1  0  0  0
  2  3  1  0  0  0
  3  4  1  0  0  0
  4  5  1  0  0  0
  5  6  2  0  0  0
  6  7  1  0  0  0
  7 24  1  0  0  0
 24 25  1  0  0  0
 25 26  2  0  0  0
 26 27  1  0  0  0
 27 28  2  0  0  0
 28 29  1  0  0  0
  7  8  2  0  0  0
  8  9  1  0  0  0
  9 10  2  0  0  0
 19 14  1  0  0  0
 10  1  1  0  0  0
 10  5  1  0  0  0
 29 25  1  0  0  0
 22 23  1  0  0  0
 12 13  1  0  0  0
M  END
> <minimizedAffinity>
-7.31397

> <CNNscore>
0.1710498631

> <CNNaffinity>
5.7327723503

> <CNN_VS>
0.9805899262

> <CNNaffinity_variance>
0.2666229606

$$$$
[H]OC(=O)c1c([H])c([H])nc([H])c1N([H])C([H])([H])C1([H])c2c([H])c([H])c(Sc3sc([H])c([H])c3[H])c([H])c2OC([H])([H])C1([H])[H]


 29 32  0  0  0  0  0  0  0  0999 V2000
  -17.3181   15.0504  -22.6740 C   0  0  0  0  0  0  0  0  0  0  0  0
  -17.3119   16.5685  -22.5879 C   0  0  0  0  0  0  0  0  0  0  0  0
  -16.5048   17.0133  -21.4076 C   0  0  0  0  0  0  0  0  0  0  0  0
  -16.8937   16.3484  -20.2436 O   0  0  0  0  0  0  0  0  0  0  0  0
  -17.7123   15.2189  -20.2514 C   0  0  0  0  0  0  0  0  0  0  0  0
  -18.2948   14.7667  -19.0605 C   0  0  0  0  0  0  0  0  0  0  0  0
  -19.1095   13.6510  -19.0391 C   0  0  0  0  0  0  0  0  0  0  0  0
  -19.3268   12.9999  -20.2359 C   0  0  0  0  0  0  0  0  0  0  0  0
  -18.7479   13.4464  -21.4291 C   0  0  0  0  0  0  0  0  0  0  0  0
  -17.9484   14.5507  -21.4179 C   0  0  0  0  0  0  0  0  0  0  0  0
  -15.8876   14.5982  -22.7833 C   0  0  0  0  0  0  0  0  0  0  0  0
  -15.6222   13.8232  -23.9928 N   0  0  0  0  0  0  0  0  0  0  0  0
  -15.3556   12.8281  -23.8885 H   0  0  0  0  0  0  0  0  0  0  0  0
  -16.5186   13.9148  -26.2836 C   0  0  0  0  0  0  0  0  0  0  0  0
  -16.4371   14.5356  -27.5509 C   0  0  0  0  0  0  0  0  0  0  0  0
  -15.5795   15.5649  -27.8026 C   0  0  0  0  0  0  0  0  0  0  0  0
  -14.7905   16.0026  -26.8245 N   0  0  0  0  0  0  0  0  0  0  0  0
  -14.8253   15.4513  -25.6063 C   0  0  0  0  0  0  0  0  0  0  0  0
  -15.6890   14.3909  -25.2964 C   0  0  0  0  0  0  0  0  0  0  0  0
  -18.2306   12.7215  -25.1272 O   0  0  0  0  0  0  0  0  0  0  0  0
  -17.4711   12.8598  -26.0810 C   0  0  0  0  0  0  0  0  0  0  0  0
  -17.5678   11.8570  -27.0692 O   0  0  0  0  0  0  0  0  0  0  0  0
  -17.2794   10.9088  -26.8956 H   0  0  0  0  0  0  0  0  0  0  0  0
  -19.8079   13.1438  -17.4927 S   0  0  0  0  0  0  0  0  0  0  0  0
  -19.5072   11.3897  -17.1881 C   0  0  0  0  0  0  0  0  0  0  0  0
  -18.5947   10.5826  -17.8207 C   0  0  0  0  0  0  0  0  0  0  0  0
  -18.5443    9.2957  -17.4273 C   0  0  0  0  0  0  0  0  0  0  0  0
  -19.4064    8.9092  -16.4336 C   0  0  0  0  0  0  0  0  0  0  0  0
  -20.2543   10.3404  -16.0806 S   0  0  0  0  0  0  0  0  0  0  0  0
 20 21  2  0  0  0
 21 22  1  0  0  0
 21 14  1  0  0  0
 14 15  2  0  0  0
 15 16  1  0  0  0
 16 17  2  0  0  0
 17 18  1  0  0  0
 18 19  2  0  0  0
 19 12  1  0  0  0
 12 11  1  0  0  0
 11  1  1  0  0  0
  1  2  1  0  0  0
  2  3  1  0  0  0
  3  4  1  0  0  0
  4  5  1  0  0  0
  5  6  2  0  0  0
  6  7  1  0  0  0
  7 24  1  0  0  0
 24 25  1  0  0  0
 25 26  2  0  0  0
 26 27  1  0  0  0
 27 28  2  0  0  0
 28 29  1  0  0  0
  7  8  2  0  0  0
  8  9  1  0  0  0
  9 10  2  0  0  0
 19 14  1  0  0  0
 10  1  1  0  0  0
 10  5  1  0  0  0
 29 25  1  0  0  0
 22 23  1  0  0  0
 12 13  1  0  0  0
M  END
> <minimizedAffinity>
-8.58763

> <CNNscore>
0.1707552224

> <CNNaffinity>
5.9926719666

> <CNN_VS>
1.0232800245

> <CNNaffinity_variance>
0.3976804614

$$$$
[H]OC(=O)c1c([H])c([H])nc([H])c1N([H])C([H])([H])C1([H])c2c([H])c([H])c(Sc3sc([H])c([H])c3[H])c([H])c2OC([H])([H])C1([H])[H]


 29 32  0  0  0  0  0  0  0  0999 V2000
  -18.1072   14.9711  -18.5876 C   0  0  0  0  0  0  0  0  0  0  0  0
  -18.3935   16.4139  -18.2028 C   0  0  0  0  0  0  0  0  0  0  0  0
  -19.7411   16.8239  -18.7109 C   0  0  0  0  0  0  0  0  0  0  0  0
  -19.8885   16.5243  -20.0661 O   0  0  0  0  0  0  0  0  0  0  0  0
  -19.0106   15.6911  -20.7597 C   0  0  0  0  0  0  0  0  0  0  0  0
  -19.0398   15.6513  -22.1595 C   0  0  0  0  0  0  0  0  0  0  0  0
  -18.1821   14.8354  -22.8719 C   0  0  0  0  0  0  0  0  0  0  0  0
  -17.2960   14.0618  -22.1511 C   0  0  0  0  0  0  0  0  0  0  0  0
  -17.2616   14.0967  -20.7526 C   0  0  0  0  0  0  0  0  0  0  0  0
  -18.1210   14.9123  -20.0779 C   0  0  0  0  0  0  0  0  0  0  0  0
  -19.1996   14.1210  -17.9984 C   0  0  0  0  0  0  0  0  0  0  0  0
  -19.2996   12.8034  -18.6213 N   0  0  0  0  0  0  0  0  0  0  0  0
  -19.4293   12.7551  -19.6474 H   0  0  0  0  0  0  0  0  0  0  0  0
  -18.3471   10.5913  -18.1123 C   0  0  0  0  0  0  0  0  0  0  0  0
  -18.4557    9.4197  -17.3290 C   0  0  0  0  0  0  0  0  0  0  0  0
  -19.4116    9.2734  -16.3682 C   0  0  0  0  0  0  0  0  0  0  0  0
  -20.2737   10.2651  -16.1579 N   0  0  0  0  0  0  0  0  0  0  0  0
  -20.2175   11.3956  -16.8706 C   0  0  0  0  0  0  0  0  0  0  0  0
  -19.2540   11.5955  -17.8697 C   0  0  0  0  0  0  0  0  0  0  0  0
  -17.4095   10.7075  -20.3030 O   0  0  0  0  0  0  0  0  0  0  0  0
  -17.2926   10.6898  -19.0817 C   0  0  0  0  0  0  0  0  0  0  0  0
  -15.9657   10.7770  -18.6093 O   0  0  0  0  0  0  0  0  0  0  0  0
  -15.3015   10.0338  -18.7471 H   0  0  0  0  0  0  0  0  0  0  0  0
  -18.2820   14.8427  -24.6400 S   0  0  0  0  0  0  0  0  0  0  0  0
  -16.6849   15.2460  -25.3794 C   0  0  0  0  0  0  0  0  0  0  0  0
  -16.3197   15.1014  -26.6947 C   0  0  0  0  0  0  0  0  0  0  0  0
  -15.0666   15.4697  -27.0228 C   0  0  0  0  0  0  0  0  0  0  0  0
  -14.2713   15.9544  -26.0164 C   0  0  0  0  0  0  0  0  0  0  0  0
  -15.2867   15.8823  -24.6541 S   0  0  0  0  0  0  0  0  0  0  0  0
 20 21  2  0  0  0
 21 22  1  0  0  0
 21 14  1  0  0  0
 14 15  2  0  0  0
 15 16  1  0  0  0
 16 17  2  0  0  0
 17 18  1  0  0  0
 18 19  2  0  0  0
 19 12  1  0  0  0
 12 11  1  0  0  0
 11  1  1  0  0  0
  1  2  1  0  0  0
  2  3  1  0  0  0
  3  4  1  0  0  0
  4  5  1  0  0  0
  5  6  2  0  0  0
  6  7  1  0  0  0
  7 24  1  0  0  0
 24 25  1  0  0  0
 25 26  2  0  0  0
 26 27  1  0  0  0
 27 28  2  0  0  0
 28 29  1  0  0  0
  7  8  2  0  0  0
  8  9  1  0  0  0
  9 10  2  0  0  0
 19 14  1  0  0  0
 10  1  1  0  0  0
 10  5  1  0  0  0
 29 25  1  0  0  0
 22 23  1  0  0  0
 12 13  1  0  0  0
M  END
> <minimizedAffinity>
-7.78157

> <CNNscore>
0.1625621915

> <CNNaffinity>
6.1572613716

> <CNN_VS>
1.0009379387

> <CNNaffinity_variance>
0.0603843629

$$$$
[H]N=c1c(C(=O)N([H])C([H])([H])c2oc([H])c([H])c2[H])c([H])c2c(=O)n3c([H])c([H])c([H])c([H])c3nc2n1C([H])([H])c1c([H])c([H])c(C([H])([H])[H])c([H])c1[H]


 35 39  0  0  0  0  0  0  0  0999 V2000
  -18.9596   13.7517  -20.4221 N   0  0  0  0  0  0  0  0  0  0  0  0
  -18.1490   13.9510  -21.4962 C   0  0  0  0  0  0  0  0  0  0  0  0
  -18.4083   14.9475  -22.2087 N   0  0  0  0  0  0  0  0  0  0  0  0
  -17.1339   13.1041  -21.8586 C   0  0  0  0  0  0  0  0  0  0  0  0
  -16.9468   11.9711  -21.0598 C   0  0  0  0  0  0  0  0  0  0  0  0
  -17.7366   11.7378  -19.9825 C   0  0  0  0  0  0  0  0  0  0  0  0
  -17.5455   10.6117  -19.2220 C   0  0  0  0  0  0  0  0  0  0  0  0
  -16.6378    9.7865  -19.4874 O   0  0  0  0  0  0  0  0  0  0  0  0
  -18.3380   10.3701  -18.1653 N   0  0  0  0  0  0  0  0  0  0  0  0
  -18.1623    9.2679  -17.4087 C   0  0  0  0  0  0  0  0  0  0  0  0
  -18.9386    8.9783  -16.3281 C   0  0  0  0  0  0  0  0  0  0  0  0
  -19.9629    9.8533  -15.9804 C   0  0  0  0  0  0  0  0  0  0  0  0
  -20.1142   10.9665  -16.7726 C   0  0  0  0  0  0  0  0  0  0  0  0
  -19.3186   11.2435  -17.8629 C   0  0  0  0  0  0  0  0  0  0  0  0
  -19.4887   12.3388  -18.6181 N   0  0  0  0  0  0  0  0  0  0  0  0
  -18.7355   12.6494  -19.6903 C   0  0  0  0  0  0  0  0  0  0  0  0
  -18.0106   15.3360  -23.0282 H   0  0  0  0  0  0  0  0  0  0  0  0
  -16.1709   13.2894  -22.9128 C   0  0  0  0  0  0  0  0  0  0  0  0
  -15.7000   12.1889  -23.4136 O   0  0  0  0  0  0  0  0  0  0  0  0
  -15.6920   14.5018  -23.4400 N   0  0  0  0  0  0  0  0  0  0  0  0
  -16.0093   15.3979  -23.0466 H   0  0  0  0  0  0  0  0  0  0  0  0
  -14.7156   14.5395  -24.5226 C   0  0  0  0  0  0  0  0  0  0  0  0
  -15.3479   14.7420  -25.8336 C   0  0  0  0  0  0  0  0  0  0  0  0
  -14.9566   15.6086  -26.8178 C   0  0  0  0  0  0  0  0  0  0  0  0
  -15.8499   15.4639  -27.8894 C   0  0  0  0  0  0  0  0  0  0  0  0
  -16.7358   14.5026  -27.4722 C   0  0  0  0  0  0  0  0  0  0  0  0
  -16.4087   14.1126  -26.2775 O   0  0  0  0  0  0  0  0  0  0  0  0
  -20.0314   14.6526  -20.1108 C   0  0  0  0  0  0  0  0  0  0  0  0
  -19.5784   17.9522  -15.3588 C   0  0  0  0  0  0  0  0  0  0  0  0
  -19.6340   17.1330  -16.6016 C   0  0  0  0  0  0  0  0  0  0  0  0
  -18.6208   17.0490  -17.4980 C   0  0  0  0  0  0  0  0  0  0  0  0
  -18.7371   16.2530  -18.6530 C   0  0  0  0  0  0  0  0  0  0  0  0
  -19.8609   15.5273  -18.9376 C   0  0  0  0  0  0  0  0  0  0  0  0
  -20.8878   15.6363  -17.9903 C   0  0  0  0  0  0  0  0  0  0  0  0
  -20.7787   16.4204  -16.8492 C   0  0  0  0  0  0  0  0  0  0  0  0
 29 30  1  0  0  0
 30 31  2  0  0  0
 31 32  1  0  0  0
 32 33  2  0  0  0
 33 28  1  0  0  0
 28  1  1  0  0  0
  1  2  1  0  0  0
  2  3  2  0  0  0
  2  4  1  0  0  0
  4 18  1  0  0  0
 18 19  2  0  0  0
 18 20  1  0  0  0
 20 22  1  0  0  0
 22 23  1  0  0  0
 23 24  2  0  0  0
 24 25  1  0  0  0
 25 26  2  0  0  0
 26 27  1  0  0  0
  4  5  2  0  0  0
  5  6  1  0  0  0
  6  7  1  0  0  0
  7  8  2  0  0  0
  7  9  1  0  0  0
  9 10  1  0  0  0
 10 11  2  0  0  0
 11 12  1  0  0  0
 12 13  2  0  0  0
 13 14  1  0  0  0
 14 15  2  0  0  0
 15 16  1  0  0  0
 33 34  1  0  0  0
 34 35  2  0  0  0
 35 30  1  0  0  0
 16  1  1  0  0  0
 27 23  1  0  0  0
 16  6  2  0  0  0
 14  9  1  0  0  0
  3 17  1  0  0  0
 20 21  1  0  0  0
M  END
> <minimizedAffinity>
-9.92843

> <CNNscore>
0.6817969680

> <CNNaffinity>
7.3926010132

> <CNN_VS>
5.0402531624

> <CNNaffinity_variance>
0.2969443202

$$$$
[H]N=c1c(C(=O)N([H])C([H])([H])c2oc([H])c([H])c2[H])c([H])c2c(=O)n3c([H])c([H])c([H])c([H])c3nc2n1C([H])([H])c1c([H])c([H])c(C([H])([H])[H])c([H])c1[H]


 35 39  0  0  0  0  0  0  0  0999 V2000
  -19.7107   12.3243  -18.4788 N   0  0  0  0  0  0  0  0  0  0  0  0
  -19.7872   11.4294  -17.4571 C   0  0  0  0  0  0  0  0  0  0  0  0
  -20.6513   11.6613  -16.5810 N   0  0  0  0  0  0  0  0  0  0  0  0
  -18.9476   10.3555  -17.3137 C   0  0  0  0  0  0  0  0  0  0  0  0
  -17.9580   10.1981  -18.2899 C   0  0  0  0  0  0  0  0  0  0  0  0
  -17.8495   11.0712  -19.3216 C   0  0  0  0  0  0  0  0  0  0  0  0
  -16.8612   10.9067  -20.2593 C   0  0  0  0  0  0  0  0  0  0  0  0
  -16.0522    9.9489  -20.1993 O   0  0  0  0  0  0  0  0  0  0  0  0
  -16.7413   11.7803  -21.2719 N   0  0  0  0  0  0  0  0  0  0  0  0
  -15.7753   11.6317  -22.2008 C   0  0  0  0  0  0  0  0  0  0  0  0
  -15.6123   12.4895  -23.2456 C   0  0  0  0  0  0  0  0  0  0  0  0
  -16.4771   13.5725  -23.3694 C   0  0  0  0  0  0  0  0  0  0  0  0
  -17.4499   13.6941  -22.4059 C   0  0  0  0  0  0  0  0  0  0  0  0
  -17.5999   12.8156  -21.3550 C   0  0  0  0  0  0  0  0  0  0  0  0
  -18.5595   12.9586  -20.4290 N   0  0  0  0  0  0  0  0  0  0  0  0
  -18.7433   12.1252  -19.3873 C   0  0  0  0  0  0  0  0  0  0  0  0
  -20.9319   11.2071  -15.7470 H   0  0  0  0  0  0  0  0  0  0  0  0
  -19.0208    9.3102  -16.3262 C   0  0  0  0  0  0  0  0  0  0  0  0
  -18.0354    8.4666  -16.3587 O   0  0  0  0  0  0  0  0  0  0  0  0
  -20.0218    9.1051  -15.3604 N   0  0  0  0  0  0  0  0  0  0  0  0
  -20.8407    9.7269  -15.3240 H   0  0  0  0  0  0  0  0  0  0  0  0
  -19.9613    8.0005  -14.4100 C   0  0  0  0  0  0  0  0  0  0  0  0
  -20.8049    6.8691  -14.8195 C   0  0  0  0  0  0  0  0  0  0  0  0
  -20.8997    5.6446  -14.2158 C   0  0  0  0  0  0  0  0  0  0  0  0
  -21.8232    4.8826  -14.9466 C   0  0  0  0  0  0  0  0  0  0  0  0
  -22.2305    5.7134  -15.9598 C   0  0  0  0  0  0  0  0  0  0  0  0
  -21.6165    6.8522  -15.8487 O   0  0  0  0  0  0  0  0  0  0  0  0
  -20.5931   13.4522  -18.5589 C   0  0  0  0  0  0  0  0  0  0  0  0
  -19.0884   18.1560  -15.5119 C   0  0  0  0  0  0  0  0  0  0  0  0
  -19.5315   16.9421  -16.2528 C   0  0  0  0  0  0  0  0  0  0  0  0
  -20.7323   16.3406  -16.0695 C   0  0  0  0  0  0  0  0  0  0  0  0
  -21.0908   15.1956  -16.8055 C   0  0  0  0  0  0  0  0  0  0  0  0
  -20.2637   14.6287  -17.7356 C   0  0  0  0  0  0  0  0  0  0  0  0
  -19.0317   15.2759  -17.9002 C   0  0  0  0  0  0  0  0  0  0  0  0
  -18.6724   16.4055  -17.1766 C   0  0  0  0  0  0  0  0  0  0  0  0
 29 30  1  0  0  0
 30 31  2  0  0  0
 31 32  1  0  0  0
 32 33  2  0  0  0
 33 28  1  0  0  0
 28  1  1  0  0  0
  1  2  1  0  0  0
  2  3  2  0  0  0
  2  4  1  0  0  0
  4 18  1  0  0  0
 18 19  2  0  0  0
 18 20  1  0  0  0
 20 22  1  0  0  0
 22 23  1  0  0  0
 23 24  2  0  0  0
 24 25  1  0  0  0
 25 26  2  0  0  0
 26 27  1  0  0  0
  4  5  2  0  0  0
  5  6  1  0  0  0
  6  7  1  0  0  0
  7  8  2  0  0  0
  7  9  1  0  0  0
  9 10  1  0  0  0
 10 11  2  0  0  0
 11 12  1  0  0  0
 12 13  2  0  0  0
 13 14  1  0  0  0
 14 15  2  0  0  0
 15 16  1  0  0  0
 33 34  1  0  0  0
 34 35  2  0  0  0
 35 30  1  0  0  0
 16  1  1  0  0  0
 27 23  1  0  0  0
 16  6  2  0  0  0
 14  9  1  0  0  0
  3 17  1  0  0  0
 20 21  1  0  0  0
M  END
> <minimizedAffinity>
-8.70875

> <CNNscore>
0.6035469770

> <CNNaffinity>
6.8163690567

> <CNN_VS>
4.1139988899

> <CNNaffinity_variance>
0.3207498491

$$$$
[H]N=c1c(C(=O)N([H])C([H])([H])c2oc([H])c([H])c2[H])c([H])c2c(=O)n3c([H])c([H])c([H])c([H])c3nc2n1C([H])([H])c1c([H])c([H])c(C([H])([H])[H])c([H])c1[H]


 35 39  0  0  0  0  0  0  0  0999 V2000
  -17.9626   14.5811  -20.3206 N   0  0  0  0  0  0  0  0  0  0  0  0
  -17.9838   13.4601  -19.5502 C   0  0  0  0  0  0  0  0  0  0  0  0
  -18.3835   13.6047  -18.3724 N   0  0  0  0  0  0  0  0  0  0  0  0
  -17.5429   12.2322  -19.9706 C   0  0  0  0  0  0  0  0  0  0  0  0
  -17.0409   12.1584  -21.2742 C   0  0  0  0  0  0  0  0  0  0  0  0
  -17.0016   13.2551  -22.0707 C   0  0  0  0  0  0  0  0  0  0  0  0
  -16.4904   13.1633  -23.3409 C   0  0  0  0  0  0  0  0  0  0  0  0
  -16.0663   12.0753  -23.8008 O   0  0  0  0  0  0  0  0  0  0  0  0
  -16.4345   14.2521  -24.1247 N   0  0  0  0  0  0  0  0  0  0  0  0
  -15.9348   14.1774  -25.3749 C   0  0  0  0  0  0  0  0  0  0  0  0
  -15.8567   15.2516  -26.2081 C   0  0  0  0  0  0  0  0  0  0  0  0
  -16.3105   16.4876  -25.7583 C   0  0  0  0  0  0  0  0  0  0  0  0
  -16.8135   16.5282  -24.4796 C   0  0  0  0  0  0  0  0  0  0  0  0
  -16.8849   15.4302  -23.6503 C   0  0  0  0  0  0  0  0  0  0  0  0
  -17.3817   15.4991  -22.4064 N   0  0  0  0  0  0  0  0  0  0  0  0
  -17.4713   14.4532  -21.5629 C   0  0  0  0  0  0  0  0  0  0  0  0
  -18.5041   12.9948  -17.6017 H   0  0  0  0  0  0  0  0  0  0  0  0
  -17.6217   10.9817  -19.2614 C   0  0  0  0  0  0  0  0  0  0  0  0
  -16.8228   10.0592  -19.7028 O   0  0  0  0  0  0  0  0  0  0  0  0
  -18.4537   10.6572  -18.1753 N   0  0  0  0  0  0  0  0  0  0  0  0
  -19.1297   11.3456  -17.8181 H   0  0  0  0  0  0  0  0  0  0  0  0
  -18.4201    9.3429  -17.5441 C   0  0  0  0  0  0  0  0  0  0  0  0
  -19.1078    9.3331  -16.2455 C   0  0  0  0  0  0  0  0  0  0  0  0
  -20.3390    9.8552  -15.9554 C   0  0  0  0  0  0  0  0  0  0  0  0
  -20.5904    9.6172  -14.5962 C   0  0  0  0  0  0  0  0  0  0  0  0
  -19.4742    8.9557  -14.1499 C   0  0  0  0  0  0  0  0  0  0  0  0
  -18.6419    8.8125  -15.1363 O   0  0  0  0  0  0  0  0  0  0  0  0
  -18.4029   15.8494  -19.8159 C   0  0  0  0  0  0  0  0  0  0  0  0
  -23.6974   17.6172  -21.4024 C   0  0  0  0  0  0  0  0  0  0  0  0
  -22.3110   17.2136  -21.0365 C   0  0  0  0  0  0  0  0  0  0  0  0
  -21.2033   17.9137  -21.3830 C   0  0  0  0  0  0  0  0  0  0  0  0
  -19.9202   17.4780  -21.0022 C   0  0  0  0  0  0  0  0  0  0  0  0
  -19.7152   16.3402  -20.2714 C   0  0  0  0  0  0  0  0  0  0  0  0
  -20.8811   15.6417  -19.9299 C   0  0  0  0  0  0  0  0  0  0  0  0
  -22.1495   16.0667  -20.3032 C   0  0  0  0  0  0  0  0  0  0  0  0
 29 30  1  0  0  0
 30 31  2  0  0  0
 31 32  1  0  0  0
 32 33  2  0  0  0
 33 28  1  0  0  0
 28  1  1  0  0  0
  1  2  1  0  0  0
  2  3  2  0  0  0
  2  4  1  0  0  0
  4 18  1  0  0  0
 18 19  2  0  0  0
 18 20  1  0  0  0
 20 22  1  0  0  0
 22 23  1  0  0  0
 23 24  2  0  0  0
 24 25  1  0  0  0
 25 26  2  0  0  0
 26 27  1  0  0  0
  4  5  2  0  0  0
  5  6  1  0  0  0
  6  7  1  0  0  0
  7  8  2  0  0  0
  7  9  1  0  0  0
  9 10  1  0  0  0
 10 11  2  0  0  0
 11 12  1  0  0  0
 12 13  2  0  0  0
 13 14  1  0  0  0
 14 15  2  0  0  0
 15 16  1  0  0  0
 33 34  1  0  0  0
 34 35  2  0  0  0
 35 30  1  0  0  0
 16  1  1  0  0  0
 27 23  1  0  0  0
 16  6  2  0  0  0
 14  9  1  0  0  0
  3 17  1  0  0  0
 20 21  1  0  0  0
M  END
> <minimizedAffinity>
-9.27349

> <CNNscore>
0.4931659102

> <CNNaffinity>
7.1549720764

> <CNN_VS>
3.5285882950

> <CNNaffinity_variance>
0.3284598887

$$$$
[H]N=c1c(C(=O)N([H])C([H])([H])c2oc([H])c([H])c2[H])c([H])c2c(=O)n3c([H])c([H])c([H])c([H])c3nc2n1C([H])([H])c1c([H])c([H])c(C([H])([H])[H])c([H])c1[H]


 35 39  0  0  0  0  0  0  0  0999 V2000
  -17.9480   14.6750  -20.1449 N   0  0  0  0  0  0  0  0  0  0  0  0
  -17.2390   14.7407  -21.3040 C   0  0  0  0  0  0  0  0  0  0  0  0
  -17.1711   15.8660  -21.8489 N   0  0  0  0  0  0  0  0  0  0  0  0
  -16.6675   13.6555  -21.9160 C   0  0  0  0  0  0  0  0  0  0  0  0
  -16.8449   12.4169  -21.2905 C   0  0  0  0  0  0  0  0  0  0  0  0
  -17.5474   12.3119  -20.1354 C   0  0  0  0  0  0  0  0  0  0  0  0
  -17.7224   11.0845  -19.5473 C   0  0  0  0  0  0  0  0  0  0  0  0
  -17.2310   10.0422  -20.0447 O   0  0  0  0  0  0  0  0  0  0  0  0
  -18.4326   10.9763  -18.4130 N   0  0  0  0  0  0  0  0  0  0  0  0
  -18.6132    9.7771  -17.8235 C   0  0  0  0  0  0  0  0  0  0  0  0
  -19.3244    9.6150  -16.6737 C   0  0  0  0  0  0  0  0  0  0  0  0
  -19.8952   10.7319  -16.0715 C   0  0  0  0  0  0  0  0  0  0  0  0
  -19.6918   11.9382  -16.6984 C   0  0  0  0  0  0  0  0  0  0  0  0
  -18.9687   12.0833  -17.8622 C   0  0  0  0  0  0  0  0  0  0  0  0
  -18.7856   13.2739  -18.4519 N   0  0  0  0  0  0  0  0  0  0  0  0
  -18.0867   13.4621  -19.5875 C   0  0  0  0  0  0  0  0  0  0  0  0
  -16.7428   16.2130  -22.6715 H   0  0  0  0  0  0  0  0  0  0  0  0
  -15.8218   13.6498  -23.0813 C   0  0  0  0  0  0  0  0  0  0  0  0
  -15.5609   12.4696  -23.5534 O   0  0  0  0  0  0  0  0  0  0  0  0
  -15.2565   14.7548  -23.7418 N   0  0  0  0  0  0  0  0  0  0  0  0
  -15.4054   15.7060  -23.3790 H   0  0  0  0  0  0  0  0  0  0  0  0
  -14.4202   14.5997  -24.9265 C   0  0  0  0  0  0  0  0  0  0  0  0
  -15.1691   14.8331  -26.1691 C   0  0  0  0  0  0  0  0  0  0  0  0
  -16.3827   14.3051  -26.5172 C   0  0  0  0  0  0  0  0  0  0  0  0
  -16.7119   14.8013  -27.7872 C   0  0  0  0  0  0  0  0  0  0  0  0
  -15.6560   15.6095  -28.1257 C   0  0  0  0  0  0  0  0  0  0  0  0
  -14.7862   15.5990  -27.1616 O   0  0  0  0  0  0  0  0  0  0  0  0
  -18.5564   15.8387  -19.5679 C   0  0  0  0  0  0  0  0  0  0  0  0
  -23.7190   17.4699  -21.6563 C   0  0  0  0  0  0  0  0  0  0  0  0
  -22.3638   17.1009  -21.1603 C   0  0  0  0  0  0  0  0  0  0  0  0
  -21.2412   17.8122  -21.4271 C   0  0  0  0  0  0  0  0  0  0  0  0
  -19.9897   17.4094  -20.9245 C   0  0  0  0  0  0  0  0  0  0  0  0
  -19.8314   16.2941  -20.1489 C   0  0  0  0  0  0  0  0  0  0  0  0
  -21.0115   15.5832  -19.8922 C   0  0  0  0  0  0  0  0  0  0  0  0
  -22.2489   15.9756  -20.3858 C   0  0  0  0  0  0  0  0  0  0  0  0
 29 30  1  0  0  0
 30 31  2  0  0  0
 31 32  1  0  0  0
 32 33  2  0  0  0
 33 28  1  0  0  0
 28  1  1  0  0  0
  1  2  1  0  0  0
  2  3  2  0  0  0
  2  4  1  0  0  0
  4 18  1  0  0  0
 18 19  2  0  0  0
 18 20  1  0  0  0
 20 22  1  0  0  0
 22 23  1  0  0  0
 23 24  2  0  0  0
 24 25  1  0  0  0
 25 26  2  0  0  0
 26 27  1  0  0  0
  4  5  2  0  0  0
  5  6  1  0  0  0
  6  7  1  0  0  0
  7  8  2  0  0  0
  7  9  1  0  0  0
  9 10  1  0  0  0
 10 11  2  0  0  0
 11 12  1  0  0  0
 12 13  2  0  0  0
 13 14  1  0  0  0
 14 15  2  0  0  0
 15 16  1  0  0  0
 33 34  1  0  0  0
 34 35  2  0  0  0
 35 30  1  0  0  0
 16  1  1  0  0  0
 27 23  1  0  0  0
 16  6  2  0  0  0
 14  9  1  0  0  0
  3 17  1  0  0  0
 20 21  1  0  0  0
M  END
> <minimizedAffinity>
-9.52237

> <CNNscore>
0.4631175995

> <CNNaffinity>
7.2867784500

> <CNN_VS>
3.3746354580

> <CNNaffinity_variance>
0.3970775008

$$$$
[H]N=c1c(C(=O)N([H])C([H])([H])c2oc([H])c([H])c2[H])c([H])c2c(=O)n3c([H])c([H])c([H])c([H])c3nc2n1C([H])([H])c1c([H])c([H])c(C([H])([H])[H])c([H])c1[H]


 35 39  0  0  0  0  0  0  0  0999 V2000
  -18.7281   14.2913  -18.6210 N   0  0  0  0  0  0  0  0  0  0  0  0
  -19.0913   13.3431  -17.7157 C   0  0  0  0  0  0  0  0  0  0  0  0
  -19.6051   13.7601  -16.6526 N   0  0  0  0  0  0  0  0  0  0  0  0
  -18.8707   12.0005  -17.8810 C   0  0  0  0  0  0  0  0  0  0  0  0
  -18.2260   11.6111  -19.0599 C   0  0  0  0  0  0  0  0  0  0  0  0
  -17.8470   12.5278  -19.9843 C   0  0  0  0  0  0  0  0  0  0  0  0
  -17.2017   12.1250  -21.1264 C   0  0  0  0  0  0  0  0  0  0  0  0
  -16.9622   10.9139  -21.3526 O   0  0  0  0  0  0  0  0  0  0  0  0
  -16.8101   13.0331  -22.0346 N   0  0  0  0  0  0  0  0  0  0  0  0
  -16.1750   12.6525  -23.1615 C   0  0  0  0  0  0  0  0  0  0  0  0
  -15.7582   13.5338  -24.1122 C   0  0  0  0  0  0  0  0  0  0  0  0
  -15.9936   14.8918  -23.9214 C   0  0  0  0  0  0  0  0  0  0  0  0
  -16.6429   15.2451  -22.7625 C   0  0  0  0  0  0  0  0  0  0  0  0
  -17.0577   14.3388  -21.8111 C   0  0  0  0  0  0  0  0  0  0  0  0
  -17.6904   14.7122  -20.6890 N   0  0  0  0  0  0  0  0  0  0  0  0
  -18.1136   13.8622  -19.7342 C   0  0  0  0  0  0  0  0  0  0  0  0
  -19.9553   13.3250  -15.8349 H   0  0  0  0  0  0  0  0  0  0  0  0
  -19.3091   10.9275  -17.0268 C   0  0  0  0  0  0  0  0  0  0  0  0
  -19.0101    9.7397  -17.4551 O   0  0  0  0  0  0  0  0  0  0  0  0
  -20.0143   11.0240  -15.8141 N   0  0  0  0  0  0  0  0  0  0  0  0
  -20.3055   11.9438  -15.4570 H   0  0  0  0  0  0  0  0  0  0  0  0
  -20.3878    9.8435  -15.0436 C   0  0  0  0  0  0  0  0  0  0  0  0
  -21.7860    9.4523  -15.2702 C   0  0  0  0  0  0  0  0  0  0  0  0
  -22.8761   10.2764  -15.3429 C   0  0  0  0  0  0  0  0  0  0  0  0
  -24.0016    9.4708  -15.5703 C   0  0  0  0  0  0  0  0  0  0  0  0
  -23.5060    8.1923  -15.6205 C   0  0  0  0  0  0  0  0  0  0  0  0
  -22.2202    8.2274  -15.4419 O   0  0  0  0  0  0  0  0  0  0  0  0
  -18.9508   15.6874  -18.3789 C   0  0  0  0  0  0  0  0  0  0  0  0
  -22.9474   18.2469  -21.7181 C   0  0  0  0  0  0  0  0  0  0  0  0
  -21.8763   17.6410  -20.8788 C   0  0  0  0  0  0  0  0  0  0  0  0
  -20.6878   18.2396  -20.6213 C   0  0  0  0  0  0  0  0  0  0  0  0
  -19.7180   17.6125  -19.8166 C   0  0  0  0  0  0  0  0  0  0  0  0
  -19.9118   16.3810  -19.2542 C   0  0  0  0  0  0  0  0  0  0  0  0
  -21.1506   15.7914  -19.5400 C   0  0  0  0  0  0  0  0  0  0  0  0
  -22.1108   16.4053  -20.3336 C   0  0  0  0  0  0  0  0  0  0  0  0
 29 30  1  0  0  0
 30 31  2  0  0  0
 31 32  1  0  0  0
 32 33  2  0  0  0
 33 28  1  0  0  0
 28  1  1  0  0  0
  1  2  1  0  0  0
  2  3  2  0  0  0
  2  4  1  0  0  0
  4 18  1  0  0  0
 18 19  2  0  0  0
 18 20  1  0  0  0
 20 22  1  0  0  0
 22 23  1  0  0  0
 23 24  2  0  0  0
 24 25  1  0  0  0
 25 26  2  0  0  0
 26 27  1  0  0  0
  4  5  2  0  0  0
  5  6  1  0  0  0
  6  7  1  0  0  0
  7  8  2  0  0  0
  7  9  1  0  0  0
  9 10  1  0  0  0
 10 11  2  0  0  0
 11 12  1  0  0  0
 12 13  2  0  0  0
 13 14  1  0  0  0
 14 15  2  0  0  0
 15 16  1  0  0  0
 33 34  1  0  0  0
 34 35  2  0  0  0
 35 30  1  0  0  0
 16  1  1  0  0  0
 27 23  1  0  0  0
 16  6  2  0  0  0
 14  9  1  0  0  0
  3 17  1  0  0  0
 20 21  1  0  0  0
M  END
> <minimizedAffinity>
-8.26492

> <CNNscore>
0.4368202388

> <CNNaffinity>
6.7816329002

> <CNN_VS>
2.9623544216

> <CNNaffinity_variance>
0.4685173035

$$$$
[H]N=c1c(C(=O)N([H])C([H])([H])c2oc([H])c([H])c2[H])c([H])c2c(=O)n3c([H])c([H])c([H])c([H])c3nc2n1C([H])([H])c1c([H])c([H])c(C([H])([H])[H])c([H])c1[H]


 35 39  0  0  0  0  0  0  0  0999 V2000
  -20.1458   13.6157  -19.1492 N   0  0  0  0  0  0  0  0  0  0  0  0
  -20.1964   12.8039  -18.0588 C   0  0  0  0  0  0  0  0  0  0  0  0
  -21.0380   13.1056  -17.1821 N   0  0  0  0  0  0  0  0  0  0  0  0
  -19.3536   11.7428  -17.8528 C   0  0  0  0  0  0  0  0  0  0  0  0
  -18.3891   11.5072  -18.8382 C   0  0  0  0  0  0  0  0  0  0  0  0
  -18.3066   12.2965  -19.9378 C   0  0  0  0  0  0  0  0  0  0  0  0
  -17.3424   12.0568  -20.8843 C   0  0  0  0  0  0  0  0  0  0  0  0
  -16.5323   11.1051  -20.7698 O   0  0  0  0  0  0  0  0  0  0  0  0
  -17.2481   12.8481  -21.9650 N   0  0  0  0  0  0  0  0  0  0  0  0
  -16.3059   12.6250  -22.9035 C   0  0  0  0  0  0  0  0  0  0  0  0
  -16.1694   13.3979  -24.0162 C   0  0  0  0  0  0  0  0  0  0  0  0
  -17.0369   14.4696  -24.2028 C   0  0  0  0  0  0  0  0  0  0  0  0
  -17.9850   14.6685  -23.2274 C   0  0  0  0  0  0  0  0  0  0  0  0
  -18.1084   13.8755  -22.1074 C   0  0  0  0  0  0  0  0  0  0  0  0
  -19.0443   14.0927  -21.1716 N   0  0  0  0  0  0  0  0  0  0  0  0
  -19.2017   13.3439  -20.0634 C   0  0  0  0  0  0  0  0  0  0  0  0
  -21.2975   12.7189  -16.3082 H   0  0  0  0  0  0  0  0  0  0  0  0
  -19.4019   10.7784  -16.7848 C   0  0  0  0  0  0  0  0  0  0  0  0
  -19.7477   11.2653  -15.6328 O   0  0  0  0  0  0  0  0  0  0  0  0
  -19.1153    9.4034  -16.8509 N   0  0  0  0  0  0  0  0  0  0  0  0
  -18.8000    8.9828  -17.7354 H   0  0  0  0  0  0  0  0  0  0  0  0
  -19.2158    8.5378  -15.6815 C   0  0  0  0  0  0  0  0  0  0  0  0
  -20.4721    7.7757  -15.6614 C   0  0  0  0  0  0  0  0  0  0  0  0
  -21.7001    8.2124  -15.2441 C   0  0  0  0  0  0  0  0  0  0  0  0
  -22.6033    7.1510  -15.4022 C   0  0  0  0  0  0  0  0  0  0  0  0
  -21.8460    6.1273  -15.9134 C   0  0  0  0  0  0  0  0  0  0  0  0
  -20.6193    6.5316  -16.0473 O   0  0  0  0  0  0  0  0  0  0  0  0
  -21.0298   14.7357  -19.2952 C   0  0  0  0  0  0  0  0  0  0  0  0
  -19.0672   20.1192  -18.3785 C   0  0  0  0  0  0  0  0  0  0  0  0
  -19.5282   18.7147  -18.5625 C   0  0  0  0  0  0  0  0  0  0  0  0
  -19.1976   17.6954  -17.7325 C   0  0  0  0  0  0  0  0  0  0  0  0
  -19.6699   16.3895  -17.9621 C   0  0  0  0  0  0  0  0  0  0  0  0
  -20.4781   16.0736  -19.0193 C   0  0  0  0  0  0  0  0  0  0  0  0
  -20.8007   17.1504  -19.8562 C   0  0  0  0  0  0  0  0  0  0  0  0
  -20.3372   18.4407  -19.6348 C   0  0  0  0  0  0  0  0  0  0  0  0
 29 30  1  0  0  0
 30 31  2  0  0  0
 31 32  1  0  0  0
 32 33  2  0  0  0
 33 28  1  0  0  0
 28  1  1  0  0  0
  1  2  1  0  0  0
  2  3  2  0  0  0
  2  4  1  0  0  0
  4 18  1  0  0  0
 18 19  2  0  0  0
 18 20  1  0  0  0
 20 22  1  0  0  0
 22 23  1  0  0  0
 23 24  2  0  0  0
 24 25  1  0  0  0
 25 26  2  0  0  0
 26 27  1  0  0  0
  4  5  2  0  0  0
  5  6  1  0  0  0
  6  7  1  0  0  0
  7  8  2  0  0  0
  7  9  1  0  0  0
  9 10  1  0  0  0
 10 11  2  0  0  0
 11 12  1  0  0  0
 12 13  2  0  0  0
 13 14  1  0  0  0
 14 15  2  0  0  0
 15 16  1  0  0  0
 33 34  1  0  0  0
 34 35  2  0  0  0
 35 30  1  0  0  0
 16  1  1  0  0  0
 27 23  1  0  0  0
 16  6  2  0  0  0
 14  9  1  0  0  0
  3 17  1  0  0  0
 20 21  1  0  0  0
M  END
> <minimizedAffinity>
-8.63302

> <CNNscore>
0.4020650685

> <CNNaffinity>
6.6797804832

> <CNN_VS>
2.6857063770

> <CNNaffinity_variance>
0.4918905199

$$$$
[H]N=c1c(C(=O)N([H])C([H])([H])c2oc([H])c([H])c2[H])c([H])c2c(=O)n3c([H])c([H])c([H])c([H])c3nc2n1C([H])([H])c1c([H])c([H])c(C([H])([H])[H])c([H])c1[H]


 35 39  0  0  0  0  0  0  0  0999 V2000
  -18.6720   14.4559  -19.0795 N   0  0  0  0  0  0  0  0  0  0  0  0
  -17.9767   14.2583  -20.2318 C   0  0  0  0  0  0  0  0  0  0  0  0
  -17.7721   15.2731  -20.9363 N   0  0  0  0  0  0  0  0  0  0  0  0
  -17.5581   13.0303  -20.6740 C   0  0  0  0  0  0  0  0  0  0  0  0
  -17.8846   11.9305  -19.8736 C   0  0  0  0  0  0  0  0  0  0  0  0
  -18.5787   12.0881  -18.7194 C   0  0  0  0  0  0  0  0  0  0  0  0
  -18.9020   10.9935  -17.9577 C   0  0  0  0  0  0  0  0  0  0  0  0
  -18.5558    9.8347  -18.2933 O   0  0  0  0  0  0  0  0  0  0  0  0
  -19.6044   11.1459  -16.8235 N   0  0  0  0  0  0  0  0  0  0  0  0
  -19.9296   10.0798  -16.0647 C   0  0  0  0  0  0  0  0  0  0  0  0
  -20.6397   10.1817  -14.9073 C   0  0  0  0  0  0  0  0  0  0  0  0
  -21.0536   11.4393  -14.4794 C   0  0  0  0  0  0  0  0  0  0  0  0
  -20.7054   12.5039  -15.2762 C   0  0  0  0  0  0  0  0  0  0  0  0
  -19.9859   12.3816  -16.4449 C   0  0  0  0  0  0  0  0  0  0  0  0
  -19.6593   13.4389  -17.2028 N   0  0  0  0  0  0  0  0  0  0  0  0
  -18.9578   13.3663  -18.3500 C   0  0  0  0  0  0  0  0  0  0  0  0
  -17.3141   15.4371  -21.7989 H   0  0  0  0  0  0  0  0  0  0  0  0
  -16.7364   12.7442  -21.8212 C   0  0  0  0  0  0  0  0  0  0  0  0
  -16.2655   11.5356  -21.8603 O   0  0  0  0  0  0  0  0  0  0  0  0
  -16.3916   13.6115  -22.8728 N   0  0  0  0  0  0  0  0  0  0  0  0
  -16.7110   14.5895  -22.8624 H   0  0  0  0  0  0  0  0  0  0  0  0
  -15.5516   13.1799  -23.9842 C   0  0  0  0  0  0  0  0  0  0  0  0
  -15.4789   14.1894  -25.0496 C   0  0  0  0  0  0  0  0  0  0  0  0
  -16.4945   14.6083  -25.8655 C   0  0  0  0  0  0  0  0  0  0  0  0
  -15.9699   15.5807  -26.7296 C   0  0  0  0  0  0  0  0  0  0  0  0
  -14.6497   15.6849  -26.3704 C   0  0  0  0  0  0  0  0  0  0  0  0
  -14.4082   14.8623  -25.3950 O   0  0  0  0  0  0  0  0  0  0  0  0
  -19.1175   15.7605  -18.6836 C   0  0  0  0  0  0  0  0  0  0  0  0
  -23.6540   17.8892  -21.6099 C   0  0  0  0  0  0  0  0  0  0  0  0
  -22.4559   17.4038  -20.8699 C   0  0  0  0  0  0  0  0  0  0  0  0
  -21.3997   18.1880  -20.5434 C   0  0  0  0  0  0  0  0  0  0  0  0
  -20.2979   17.6663  -19.8396 C   0  0  0  0  0  0  0  0  0  0  0  0
  -20.2262   16.3578  -19.4483 C   0  0  0  0  0  0  0  0  0  0  0  0
  -21.3345   15.5761  -19.8012 C   0  0  0  0  0  0  0  0  0  0  0  0
  -22.4240   16.0853  -20.4958 C   0  0  0  0  0  0  0  0  0  0  0  0
 29 30  1  0  0  0
 30 31  2  0  0  0
 31 32  1  0  0  0
 32 33  2  0  0  0
 33 28  1  0  0  0
 28  1  1  0  0  0
  1  2  1  0  0  0
  2  3  2  0  0  0
  2  4  1  0  0  0
  4 18  1  0  0  0
 18 19  2  0  0  0
 18 20  1  0  0  0
 20 22  1  0  0  0
 22 23  1  0  0  0
 23 24  2  0  0  0
 24 25  1  0  0  0
 25 26  2  0  0  0
 26 27  1  0  0  0
  4  5  2  0  0  0
  5  6  1  0  0  0
  6  7  1  0  0  0
  7  8  2  0  0  0
  7  9  1  0  0  0
  9 10  1  0  0  0
 10 11  2  0  0  0
 11 12  1  0  0  0
 12 13  2  0  0  0
 13 14  1  0  0  0
 14 15  2  0  0  0
 15 16  1  0  0  0
 33 34  1  0  0  0
 34 35  2  0  0  0
 35 30  1  0  0  0
 16  1  1  0  0  0
 27 23  1  0  0  0
 16  6  2  0  0  0
 14  9  1  0  0  0
  3 17  1  0  0  0
 20 21  1  0  0  0
M  END
> <minimizedAffinity>
-8.46793

> <CNNscore>
0.3922513127

> <CNNaffinity>
6.9922547340

> <CNN_VS>
2.7427210808

> <CNNaffinity_variance>
0.3927224278

$$$$
[H]N=c1c(C(=O)N([H])C([H])([H])c2oc([H])c([H])c2[H])c([H])c2c(=O)n3c([H])c([H])c([H])c([H])c3nc2n1C([H])([H])c1c([H])c([H])c(C([H])([H])[H])c([H])c1[H]


 35 39  0  0  0  0  0  0  0  0999 V2000
  -19.0149   13.8595  -20.8990 N   0  0  0  0  0  0  0  0  0  0  0  0
  -18.9059   12.8567  -19.9863 C   0  0  0  0  0  0  0  0  0  0  0  0
  -19.7096   12.8911  -19.0267 N   0  0  0  0  0  0  0  0  0  0  0  0
  -17.9475   11.8779  -20.0331 C   0  0  0  0  0  0  0  0  0  0  0  0
  -17.0362   11.9423  -21.0925 C   0  0  0  0  0  0  0  0  0  0  0  0
  -17.1120   12.9285  -22.0201 C   0  0  0  0  0  0  0  0  0  0  0  0
  -16.1978   12.9816  -23.0421 C   0  0  0  0  0  0  0  0  0  0  0  0
  -15.2894   12.1230  -23.1556 O   0  0  0  0  0  0  0  0  0  0  0  0
  -16.2608   13.9674  -23.9515 N   0  0  0  0  0  0  0  0  0  0  0  0
  -15.3695   14.0328  -24.9613 C   0  0  0  0  0  0  0  0  0  0  0  0
  -15.3910   15.0115  -25.9077 C   0  0  0  0  0  0  0  0  0  0  0  0
  -16.3736   15.9942  -25.8386 C   0  0  0  0  0  0  0  0  0  0  0  0
  -17.2656   15.8977  -24.7971 C   0  0  0  0  0  0  0  0  0  0  0  0
  -17.2286   14.8994  -23.8480 C   0  0  0  0  0  0  0  0  0  0  0  0
  -18.1131   14.8296  -22.8423 N   0  0  0  0  0  0  0  0  0  0  0  0
  -18.1151   13.8729  -21.8946 C   0  0  0  0  0  0  0  0  0  0  0  0
  -19.8662   12.3201  -18.2330 H   0  0  0  0  0  0  0  0  0  0  0  0
  -17.8223   10.7306  -19.1722 C   0  0  0  0  0  0  0  0  0  0  0  0
  -16.8236    9.9511  -19.4531 O   0  0  0  0  0  0  0  0  0  0  0  0
  -18.6473   10.3684  -18.0928 N   0  0  0  0  0  0  0  0  0  0  0  0
  -19.4726   10.9366  -17.8593 H   0  0  0  0  0  0  0  0  0  0  0  0
  -18.3938    9.1737  -17.2957 C   0  0  0  0  0  0  0  0  0  0  0  0
  -19.1175    9.1958  -16.0169 C   0  0  0  0  0  0  0  0  0  0  0  0
  -20.4079    9.5970  -15.8013 C   0  0  0  0  0  0  0  0  0  0  0  0
  -20.6747    9.4481  -14.4324 C   0  0  0  0  0  0  0  0  0  0  0  0
  -19.5065    8.9582  -13.9049 C   0  0  0  0  0  0  0  0  0  0  0  0
  -18.6322    8.8276  -14.8561 O   0  0  0  0  0  0  0  0  0  0  0  0
  -20.0159   14.8798  -20.7800 C   0  0  0  0  0  0  0  0  0  0  0  0
  -19.5030   18.7772  -16.5113 C   0  0  0  0  0  0  0  0  0  0  0  0
  -19.5703   17.7952  -17.6294 C   0  0  0  0  0  0  0  0  0  0  0  0
  -18.5218   17.4906  -18.4325 C   0  0  0  0  0  0  0  0  0  0  0  0
  -18.6520   16.5498  -19.4713 C   0  0  0  0  0  0  0  0  0  0  0  0
  -19.8250   15.8959  -19.7303 C   0  0  0  0  0  0  0  0  0  0  0  0
  -20.8874   16.2339  -18.8813 C   0  0  0  0  0  0  0  0  0  0  0  0
  -20.7648   17.1616  -17.8552 C   0  0  0  0  0  0  0  0  0  0  0  0
 29 30  1  0  0  0
 30 31  2  0  0  0
 31 32  1  0  0  0
 32 33  2  0  0  0
 33 28  1  0  0  0
 28  1  1  0  0  0
  1  2  1  0  0  0
  2  3  2  0  0  0
  2  4  1  0  0  0
  4 18  1  0  0  0
 18 19  2  0  0  0
 18 20  1  0  0  0
 20 22  1  0  0  0
 22 23  1  0  0  0
 23 24  2  0  0  0
 24 25  1  0  0  0
 25 26  2  0  0  0
 26 27  1  0  0  0
  4  5  2  0  0  0
  5  6  1  0  0  0
  6  7  1  0  0  0
  7  8  2  0  0  0
  7  9  1  0  0  0
  9 10  1  0  0  0
 10 11  2  0  0  0
 11 12  1  0  0  0
 12 13  2  0  0  0
 13 14  1  0  0  0
 14 15  2  0  0  0
 15 16  1  0  0  0
 33 34  1  0  0  0
 34 35  2  0  0  0
 35 30  1  0  0  0
 16  1  1  0  0  0
 27 23  1  0  0  0
 16  6  2  0  0  0
 14  9  1  0  0  0
  3 17  1  0  0  0
 20 21  1  0  0  0
M  END
> <minimizedAffinity>
-9.08680

> <CNNscore>
0.3853816092

> <CNNaffinity>
6.9897603989

> <CNN_VS>
2.6937251091

> <CNNaffinity_variance>
0.5845813155

$$$$
[H]N=c1c(C(=O)N([H])C([H])([H])c2oc([H])c([H])c2[H])c([H])c2c(=O)n3c([H])c([H])c([H])c([H])c3nc2n1C([H])([H])c1c([H])c([H])c(C([H])([H])[H])c([H])c1[H]


 35 39  0  0  0  0  0  0  0  0999 V2000
  -17.7156   12.7452  -21.9839 N   0  0  0  0  0  0  0  0  0  0  0  0
  -17.7756   11.8734  -20.9414 C   0  0  0  0  0  0  0  0  0  0  0  0
  -17.3883   10.7054  -21.1729 N   0  0  0  0  0  0  0  0  0  0  0  0
  -18.2828   12.1873  -19.7073 C   0  0  0  0  0  0  0  0  0  0  0  0
  -18.7657   13.4895  -19.5402 C   0  0  0  0  0  0  0  0  0  0  0  0
  -18.7247   14.3856  -20.5571 C   0  0  0  0  0  0  0  0  0  0  0  0
  -19.2185   15.6530  -20.3759 C   0  0  0  0  0  0  0  0  0  0  0  0
  -19.6997   16.0190  -19.2760 O   0  0  0  0  0  0  0  0  0  0  0  0
  -19.1947   16.5361  -21.3870 N   0  0  0  0  0  0  0  0  0  0  0  0
  -19.6763   17.7850  -21.2240 C   0  0  0  0  0  0  0  0  0  0  0  0
  -19.6749   18.7163  -22.2174 C   0  0  0  0  0  0  0  0  0  0  0  0
  -19.1548   18.3735  -23.4616 C   0  0  0  0  0  0  0  0  0  0  0  0
  -18.6725   17.0931  -23.5933 C   0  0  0  0  0  0  0  0  0  0  0  0
  -18.6821   16.1634  -22.5763 C   0  0  0  0  0  0  0  0  0  0  0  0
  -18.2036   14.9204  -22.7332 N   0  0  0  0  0  0  0  0  0  0  0  0
  -18.1921   13.9811  -21.7682 C   0  0  0  0  0  0  0  0  0  0  0  0
  -17.3182    9.8785  -20.6326 H   0  0  0  0  0  0  0  0  0  0  0  0
  -18.2922   11.3629  -18.5269 C   0  0  0  0  0  0  0  0  0  0  0  0
  -17.1808   10.7329  -18.2994 O   0  0  0  0  0  0  0  0  0  0  0  0
  -19.3496   11.1653  -17.6215 N   0  0  0  0  0  0  0  0  0  0  0  0
  -20.2607   11.6146  -17.7844 H   0  0  0  0  0  0  0  0  0  0  0  0
  -19.2137   10.3021  -16.4539 C   0  0  0  0  0  0  0  0  0  0  0  0
  -20.5115    9.8022  -15.9791 C   0  0  0  0  0  0  0  0  0  0  0  0
  -21.6986   10.4819  -15.9424 C   0  0  0  0  0  0  0  0  0  0  0  0
  -22.6670    9.6148  -15.4152 C   0  0  0  0  0  0  0  0  0  0  0  0
  -21.9868    8.4497  -15.1651 C   0  0  0  0  0  0  0  0  0  0  0  0
  -20.7429    8.6019  -15.5057 O   0  0  0  0  0  0  0  0  0  0  0  0
  -17.2081   12.3511  -23.2662 C   0  0  0  0  0  0  0  0  0  0  0  0
  -13.9977   16.1940  -26.1988 C   0  0  0  0  0  0  0  0  0  0  0  0
  -14.7679   15.1993  -25.4011 C   0  0  0  0  0  0  0  0  0  0  0  0
  -14.3556   14.7036  -24.2089 C   0  0  0  0  0  0  0  0  0  0  0  0
  -15.1338   13.7663  -23.5039 C   0  0  0  0  0  0  0  0  0  0  0  0
  -16.3340   13.3055  -23.9704 C   0  0  0  0  0  0  0  0  0  0  0  0
  -16.7302   13.8389  -25.2042 C   0  0  0  0  0  0  0  0  0  0  0  0
  -15.9663   14.7635  -25.9044 C   0  0  0  0  0  0  0  0  0  0  0  0
 29 30  1  0  0  0
 30 31  2  0  0  0
 31 32  1  0  0  0
 32 33  2  0  0  0
 33 28  1  0  0  0
 28  1  1  0  0  0
  1  2  1  0  0  0
  2  3  2  0  0  0
  2  4  1  0  0  0
  4 18  1  0  0  0
 18 19  2  0  0  0
 18 20  1  0  0  0
 20 22  1  0  0  0
 22 23  1  0  0  0
 23 24  2  0  0  0
 24 25  1  0  0  0
 25 26  2  0  0  0
 26 27  1  0  0  0
  4  5  2  0  0  0
  5  6  1  0  0  0
  6  7  1  0  0  0
  7  8  2  0  0  0
  7  9  1  0  0  0
  9 10  1  0  0  0
 10 11  2  0  0  0
 11 12  1  0  0  0
 12 13  2  0  0  0
 13 14  1  0  0  0
 14 15  2  0  0  0
 15 16  1  0  0  0
 33 34  1  0  0  0
 34 35  2  0  0  0
 35 30  1  0  0  0
 16  1  1  0  0  0
 27 23  1  0  0  0
 16  6  2  0  0  0
 14  9  1  0  0  0
  3 17  1  0  0  0
 20 21  1  0  0  0
M  END
> <minimizedAffinity>
-9.12378

> <CNNscore>
0.3745623231

> <CNNaffinity>
6.8662595749

> <CNN_VS>
2.5718421936

> <CNNaffinity_variance>
0.4297118783

$$$$
[H]/C(=C(\[H])C([H])([H])C([H])([H])N([H])C(=O)/C([H])=C([H])/C([H])=C([H])/C([H])=C(\[H])c1sc([H])c([H])c1[H])C([H])([H])OC(=O)C([H])([H])C([H])(C([H])([H])[H])C([H])([H])[H]


 27 27  0  0  0  0  0  0  0  0999 V2000
  -16.5414   11.8519  -21.8208 N   0  0  0  0  0  0  0  0  0  0  0  0
  -16.4356   10.8443  -20.8444 C   0  0  0  0  0  0  0  0  0  0  0  0
  -15.4695   10.0435  -20.9048 O   0  0  0  0  0  0  0  0  0  0  0  0
  -17.3437   12.5245  -21.7753 H   0  0  0  0  0  0  0  0  0  0  0  0
  -17.4049   10.7131  -19.7846 C   0  0  0  0  0  0  0  0  0  0  0  0
  -17.2885    9.9131  -18.7641 C   0  0  0  0  0  0  0  0  0  0  0  0
  -18.3107    9.8242  -17.7156 C   0  0  0  0  0  0  0  0  0  0  0  0
  -19.2632   10.6991  -17.5665 C   0  0  0  0  0  0  0  0  0  0  0  0
  -20.2796   10.5852  -16.5021 C   0  0  0  0  0  0  0  0  0  0  0  0
  -20.9935   11.6255  -16.1382 C   0  0  0  0  0  0  0  0  0  0  0  0
  -22.0119   11.4988  -15.0677 C   0  0  0  0  0  0  0  0  0  0  0  0
  -22.2237   12.3416  -14.0101 C   0  0  0  0  0  0  0  0  0  0  0  0
  -23.2118   12.0251  -13.1577 C   0  0  0  0  0  0  0  0  0  0  0  0
  -23.9233   10.8850  -13.4206 C   0  0  0  0  0  0  0  0  0  0  0  0
  -23.1954   10.2937  -14.8406 S   0  0  0  0  0  0  0  0  0  0  0  0
  -15.5990   12.0212  -22.8997 C   0  0  0  0  0  0  0  0  0  0  0  0
  -15.8925   13.2271  -23.7723 C   0  0  0  0  0  0  0  0  0  0  0  0
  -17.8078   14.0016  -25.1305 C   0  0  0  0  0  0  0  0  0  0  0  0
  -17.1445   13.0487  -24.5304 C   0  0  0  0  0  0  0  0  0  0  0  0
  -17.3648   15.3974  -25.1138 C   0  0  0  0  0  0  0  0  0  0  0  0
  -18.0865   16.1168  -24.1388 O   0  0  0  0  0  0  0  0  0  0  0  0
  -17.7842   17.4303  -23.8733 C   0  0  0  0  0  0  0  0  0  0  0  0
  -17.1226   18.0948  -24.6972 O   0  0  0  0  0  0  0  0  0  0  0  0
  -18.2213   18.1105  -22.6171 C   0  0  0  0  0  0  0  0  0  0  0  0
  -20.2850   19.3032  -23.3782 C   0  0  0  0  0  0  0  0  0  0  0  0
  -18.8580   19.4416  -22.9531 C   0  0  0  0  0  0  0  0  0  0  0  0
  -18.7643   20.4169  -21.8172 C   0  0  0  0  0  0  0  0  0  0  0  0
 25 26  1  0  0  0
 26 27  1  0  0  0
 26 24  1  0  0  0
 24 22  1  0  0  0
 22 23  2  0  0  0
 22 21  1  0  0  0
 21 20  1  0  0  0
 20 18  1  0  0  0
 18 19  2  0  0  0
 19 17  1  0  0  0
 17 16  1  0  0  0
 16  1  1  0  0  0
  1  2  1  0  0  0
  2  3  2  0  0  0
  2  5  1  0  0  0
  5  6  2  0  0  0
  6  7  1  0  0  0
  7  8  2  0  0  0
  8  9  1  0  0  0
  9 10  2  0  0  0
 10 11  1  0  0  0
 11 12  2  0  0  0
 12 13  1  0  0  0
 13 14  2  0  0  0
 14 15  1  0  0  0
 15 11  1  0  0  0
  1  4  1  0  0  0
M  END
> <minimizedAffinity>
-6.01386

> <CNNscore>
0.4349080026

> <CNNaffinity>
6.1191840172

> <CNN_VS>
2.6612820625

> <CNNaffinity_variance>
0.2285924405

$$$$
[H]/C(=C(\[H])C([H])([H])C([H])([H])N([H])C(=O)/C([H])=C([H])/C([H])=C([H])/C([H])=C(\[H])c1sc([H])c([H])c1[H])C([H])([H])OC(=O)C([H])([H])C([H])(C([H])([H])[H])C([H])([H])[H]


 27 27  0  0  0  0  0  0  0  0999 V2000
  -16.3634   11.9277  -22.0095 N   0  0  0  0  0  0  0  0  0  0  0  0
  -16.1003   10.8457  -21.1492 C   0  0  0  0  0  0  0  0  0  0  0  0
  -15.1138   10.1068  -21.3919 O   0  0  0  0  0  0  0  0  0  0  0  0
  -17.1836   12.5492  -21.8117 H   0  0  0  0  0  0  0  0  0  0  0  0
  -16.9326   10.5701  -20.0041 C   0  0  0  0  0  0  0  0  0  0  0  0
  -17.6609   11.4529  -19.3833 C   0  0  0  0  0  0  0  0  0  0  0  0
  -18.4888   11.1108  -18.2215 C   0  0  0  0  0  0  0  0  0  0  0  0
  -18.5381    9.9180  -17.7022 C   0  0  0  0  0  0  0  0  0  0  0  0
  -19.3802    9.6010  -16.5320 C   0  0  0  0  0  0  0  0  0  0  0  0
  -19.1671    8.5169  -15.8224 C   0  0  0  0  0  0  0  0  0  0  0  0
  -20.0198    8.2091  -14.6487 C   0  0  0  0  0  0  0  0  0  0  0  0
  -19.6435    8.1465  -13.3342 C   0  0  0  0  0  0  0  0  0  0  0  0
  -20.5941    7.8477  -12.4342 C   0  0  0  0  0  0  0  0  0  0  0  0
  -21.8598    7.6313  -12.9098 C   0  0  0  0  0  0  0  0  0  0  0  0
  -21.6847    7.8501  -14.5884 S   0  0  0  0  0  0  0  0  0  0  0  0
  -15.5618   12.2414  -23.1669 C   0  0  0  0  0  0  0  0  0  0  0  0
  -15.4437   13.7306  -23.4323 C   0  0  0  0  0  0  0  0  0  0  0  0
  -16.6800   14.1901  -25.5235 C   0  0  0  0  0  0  0  0  0  0  0  0
  -15.5587   14.0296  -24.8715 C   0  0  0  0  0  0  0  0  0  0  0  0
  -17.9882   14.0858  -24.8734 C   0  0  0  0  0  0  0  0  0  0  0  0
  -18.3585   15.3376  -24.3397 O   0  0  0  0  0  0  0  0  0  0  0  0
  -18.4961   15.5059  -22.9834 C   0  0  0  0  0  0  0  0  0  0  0  0
  -18.4767   14.5122  -22.2283 O   0  0  0  0  0  0  0  0  0  0  0  0
  -18.6716   16.8528  -22.3612 C   0  0  0  0  0  0  0  0  0  0  0  0
  -20.7015   17.8929  -23.3899 C   0  0  0  0  0  0  0  0  0  0  0  0
  -19.2077   17.8239  -23.3905 C   0  0  0  0  0  0  0  0  0  0  0  0
  -18.6409   19.2021  -23.2182 C   0  0  0  0  0  0  0  0  0  0  0  0
 25 26  1  0  0  0
 26 27  1  0  0  0
 26 24  1  0  0  0
 24 22  1  0  0  0
 22 23  2  0  0  0
 22 21  1  0  0  0
 21 20  1  0  0  0
 20 18  1  0  0  0
 18 19  2  0  0  0
 19 17  1  0  0  0
 17 16  1  0  0  0
 16  1  1  0  0  0
  1  2  1  0  0  0
  2  3  2  0  0  0
  2  5  1  0  0  0
  5  6  2  0  0  0
  6  7  1  0  0  0
  7  8  2  0  0  0
  8  9  1  0  0  0
  9 10  2  0  0  0
 10 11  1  0  0  0
 11 12  2  0  0  0
 12 13  1  0  0  0
 13 14  2  0  0  0
 14 15  1  0  0  0
 15 11  1  0  0  0
  1  4  1  0  0  0
M  END
> <minimizedAffinity>
-6.18480

> <CNNscore>
0.4332157075

> <CNNaffinity>
6.1048789024

> <CNN_VS>
2.6447293758

> <CNNaffinity_variance>
0.1556052119

$$$$
[H]/C(=C(\[H])C([H])([H])C([H])([H])N([H])C(=O)/C([H])=C([H])/C([H])=C([H])/C([H])=C(\[H])c1sc([H])c([H])c1[H])C([H])([H])OC(=O)C([H])([H])C([H])(C([H])([H])[H])C([H])([H])[H]


 27 27  0  0  0  0  0  0  0  0999 V2000
  -18.4569   13.0190  -20.1233 N   0  0  0  0  0  0  0  0  0  0  0  0
  -17.8180   11.7772  -19.9515 C   0  0  0  0  0  0  0  0  0  0  0  0
  -17.1178   11.3229  -20.8905 O   0  0  0  0  0  0  0  0  0  0  0  0
  -19.0409   13.4047  -19.3434 H   0  0  0  0  0  0  0  0  0  0  0  0
  -17.9490   11.0217  -18.7301 C   0  0  0  0  0  0  0  0  0  0  0  0
  -19.0029   11.0193  -17.9656 C   0  0  0  0  0  0  0  0  0  0  0  0
  -19.0765   10.2279  -16.7325 C   0  0  0  0  0  0  0  0  0  0  0  0
  -20.1973    9.8891  -16.1636 C   0  0  0  0  0  0  0  0  0  0  0  0
  -20.2426    9.0916  -14.9222 C   0  0  0  0  0  0  0  0  0  0  0  0
  -19.1756    8.9565  -14.1688 C   0  0  0  0  0  0  0  0  0  0  0  0
  -19.2334    8.1529  -12.9238 C   0  0  0  0  0  0  0  0  0  0  0  0
  -18.5609    8.3749  -11.7525 C   0  0  0  0  0  0  0  0  0  0  0  0
  -18.7696    7.5087  -10.7479 C   0  0  0  0  0  0  0  0  0  0  0  0
  -19.6385    6.4767  -10.9824 C   0  0  0  0  0  0  0  0  0  0  0  0
  -20.1341    6.7457  -12.5880 S   0  0  0  0  0  0  0  0  0  0  0  0
  -18.3575   13.8092  -21.3260 C   0  0  0  0  0  0  0  0  0  0  0  0
  -18.3763   15.3041  -21.0680 C   0  0  0  0  0  0  0  0  0  0  0  0
  -16.4489   16.7626  -20.5475 C   0  0  0  0  0  0  0  0  0  0  0  0
  -17.2022   15.7278  -20.2832 C   0  0  0  0  0  0  0  0  0  0  0  0
  -16.6973   17.6429  -21.6913 C   0  0  0  0  0  0  0  0  0  0  0  0
  -15.8826   17.2588  -22.7765 O   0  0  0  0  0  0  0  0  0  0  0  0
  -16.4436   16.7972  -23.9424 C   0  0  0  0  0  0  0  0  0  0  0  0
  -16.9286   17.6047  -24.7613 O   0  0  0  0  0  0  0  0  0  0  0  0
  -16.4994   15.3426  -24.2787 C   0  0  0  0  0  0  0  0  0  0  0  0
  -15.4571   13.1939  -23.5323 C   0  0  0  0  0  0  0  0  0  0  0  0
  -15.2490   14.6547  -23.7756 C   0  0  0  0  0  0  0  0  0  0  0  0
  -14.0844   14.8491  -24.7008 C   0  0  0  0  0  0  0  0  0  0  0  0
 25 26  1  0  0  0
 26 27  1  0  0  0
 26 24  1  0  0  0
 24 22  1  0  0  0
 22 23  2  0  0  0
 22 21  1  0  0  0
 21 20  1  0  0  0
 20 18  1  0  0  0
 18 19  2  0  0  0
 19 17  1  0  0  0
 17 16  1  0  0  0
 16  1  1  0  0  0
  1  2  1  0  0  0
  2  3  2  0  0  0
  2  5  1  0  0  0
  5  6  2  0  0  0
  6  7  1  0  0  0
  7  8  2  0  0  0
  8  9  1  0  0  0
  9 10  2  0  0  0
 10 11  1  0  0  0
 11 12  2  0  0  0
 12 13  1  0  0  0
 13 14  2  0  0  0
 14 15  1  0  0  0
 15 11  1  0  0  0
  1  4  1  0  0  0
M  END
> <minimizedAffinity>
-5.91656

> <CNNscore>
0.3850730956

> <CNNaffinity>
5.9155526161

> <CNN_VS>
2.2779202461

> <CNNaffinity_variance>
0.0492837951

$$$$
[H]/C(=C(\[H])C([H])([H])C([H])([H])N([H])C(=O)/C([H])=C([H])/C([H])=C([H])/C([H])=C(\[H])c1sc([H])c([H])c1[H])C([H])([H])OC(=O)C([H])([H])C([H])(C([H])([H])[H])C([H])([H])[H]


 27 27  0  0  0  0  0  0  0  0999 V2000
  -17.8469   13.4897  -19.6472 N   0  0  0  0  0  0  0  0  0  0  0  0
  -18.0487   12.1000  -19.5588 C   0  0  0  0  0  0  0  0  0  0  0  0
  -17.6318   11.3684  -20.4911 O   0  0  0  0  0  0  0  0  0  0  0  0
  -18.1904   14.1056  -18.8722 H   0  0  0  0  0  0  0  0  0  0  0  0
  -18.7183   11.5032  -18.4295 C   0  0  0  0  0  0  0  0  0  0  0  0
  -18.4083   10.3537  -17.9025 C   0  0  0  0  0  0  0  0  0  0  0  0
  -19.1284    9.7980  -16.7513 C   0  0  0  0  0  0  0  0  0  0  0  0
  -18.8714    8.6282  -16.2413 C   0  0  0  0  0  0  0  0  0  0  0  0
  -19.6118    8.0931  -15.0818 C   0  0  0  0  0  0  0  0  0  0  0  0
  -19.4902    8.6398  -13.8941 C   0  0  0  0  0  0  0  0  0  0  0  0
  -20.2393    8.0934  -12.7367 C   0  0  0  0  0  0  0  0  0  0  0  0
  -21.5797    8.2007  -12.4812 C   0  0  0  0  0  0  0  0  0  0  0  0
  -22.0424    7.6213  -11.3617 C   0  0  0  0  0  0  0  0  0  0  0  0
  -21.1320    6.9721  -10.5713 C   0  0  0  0  0  0  0  0  0  0  0  0
  -19.6673    7.1893  -11.4101 S   0  0  0  0  0  0  0  0  0  0  0  0
  -17.1855   14.1321  -20.7566 C   0  0  0  0  0  0  0  0  0  0  0  0
  -17.2460   15.6470  -20.6989 C   0  0  0  0  0  0  0  0  0  0  0  0
  -16.8926   16.4859  -22.9976 C   0  0  0  0  0  0  0  0  0  0  0  0
  -16.4588   16.2570  -21.7861 C   0  0  0  0  0  0  0  0  0  0  0  0
  -18.2535   16.1490  -23.4211 C   0  0  0  0  0  0  0  0  0  0  0  0
  -18.2267   15.5852  -24.7134 O   0  0  0  0  0  0  0  0  0  0  0  0
  -17.5504   14.4133  -24.9508 C   0  0  0  0  0  0  0  0  0  0  0  0
  -17.5384   13.5158  -24.0835 O   0  0  0  0  0  0  0  0  0  0  0  0
  -16.8145   14.1622  -26.2264 C   0  0  0  0  0  0  0  0  0  0  0  0
  -14.7082   15.4880  -25.9687 C   0  0  0  0  0  0  0  0  0  0  0  0
  -16.0487   15.4047  -26.6263 C   0  0  0  0  0  0  0  0  0  0  0  0
  -15.8866   15.5160  -28.1134 C   0  0  0  0  0  0  0  0  0  0  0  0
 25 26  1  0  0  0
 26 27  1  0  0  0
 26 24  1  0  0  0
 24 22  1  0  0  0
 22 23  2  0  0  0
 22 21  1  0  0  0
 21 20  1  0  0  0
 20 18  1  0  0  0
 18 19  2  0  0  0
 19 17  1  0  0  0
 17 16  1  0  0  0
 16  1  1  0  0  0
  1  2  1  0  0  0
  2  3  2  0  0  0
  2  5  1  0  0  0
  5  6  2  0  0  0
  6  7  1  0  0  0
  7  8  2  0  0  0
  8  9  1  0  0  0
  9 10  2  0  0  0
 10 11  1  0  0  0
 11 12  2  0  0  0
 12 13  1  0  0  0
 13 14  2  0  0  0
 14 15  1  0  0  0
 15 11  1  0  0  0
  1  4  1  0  0  0
M  END
> <minimizedAffinity>
-5.82476

> <CNNscore>
0.3602194488

> <CNNaffinity>
5.4577455521

> <CNN_VS>
1.9659861326

> <CNNaffinity_variance>
0.0269992407

$$$$
[H]/C(=C(\[H])C([H])([H])C([H])([H])N([H])C(=O)/C([H])=C([H])/C([H])=C([H])/C([H])=C(\[H])c1sc([H])c([H])c1[H])C([H])([H])OC(=O)C([H])([H])C([H])(C([H])([H])[H])C([H])([H])[H]


 27 27  0  0  0  0  0  0  0  0999 V2000
  -16.5429   11.7785  -21.7309 N   0  0  0  0  0  0  0  0  0  0  0  0
  -16.3595   10.7963  -20.7402 C   0  0  0  0  0  0  0  0  0  0  0  0
  -15.4004    9.9932  -20.8558 O   0  0  0  0  0  0  0  0  0  0  0  0
  -17.3398   12.4528  -21.6398 H   0  0  0  0  0  0  0  0  0  0  0  0
  -17.2423   10.6935  -19.6044 C   0  0  0  0  0  0  0  0  0  0  0  0
  -18.0146   11.6488  -19.1730 C   0  0  0  0  0  0  0  0  0  0  0  0
  -18.8927   11.4834  -18.0094 C   0  0  0  0  0  0  0  0  0  0  0  0
  -19.1311   10.3330  -17.4486 C   0  0  0  0  0  0  0  0  0  0  0  0
  -20.0194   10.1950  -16.2777 C   0  0  0  0  0  0  0  0  0  0  0  0
  -21.0989   10.9333  -16.1602 C   0  0  0  0  0  0  0  0  0  0  0  0
  -21.9838   10.7856  -14.9794 C   0  0  0  0  0  0  0  0  0  0  0  0
  -22.2394    9.6481  -14.2623 C   0  0  0  0  0  0  0  0  0  0  0  0
  -23.0818    9.7514  -13.2217 C   0  0  0  0  0  0  0  0  0  0  0  0
  -23.6129   10.9877  -12.9674 C   0  0  0  0  0  0  0  0  0  0  0  0
  -22.9244   11.9615  -14.1813 S   0  0  0  0  0  0  0  0  0  0  0  0
  -15.6885   11.9189  -22.8847 C   0  0  0  0  0  0  0  0  0  0  0  0
  -15.8647   13.2411  -23.6075 C   0  0  0  0  0  0  0  0  0  0  0  0
  -14.3912   15.0069  -24.5151 C   0  0  0  0  0  0  0  0  0  0  0  0
  -14.5680   13.9053  -23.8343 C   0  0  0  0  0  0  0  0  0  0  0  0
  -15.4993   15.7248  -25.1486 C   0  0  0  0  0  0  0  0  0  0  0  0
  -15.6928   16.9667  -24.5090 O   0  0  0  0  0  0  0  0  0  0  0  0
  -16.9146   17.2937  -23.9728 C   0  0  0  0  0  0  0  0  0  0  0  0
  -17.5106   18.3186  -24.3630 O   0  0  0  0  0  0  0  0  0  0  0  0
  -17.5731   16.4596  -22.9228 C   0  0  0  0  0  0  0  0  0  0  0  0
  -16.3389   17.5782  -21.0557 C   0  0  0  0  0  0  0  0  0  0  0  0
  -16.6359   16.2861  -21.7474 C   0  0  0  0  0  0  0  0  0  0  0  0
  -17.1541   15.2907  -20.7520 C   0  0  0  0  0  0  0  0  0  0  0  0
 25 26  1  0  0  0
 26 27  1  0  0  0
 26 24  1  0  0  0
 24 22  1  0  0  0
 22 23  2  0  0  0
 22 21  1  0  0  0
 21 20  1  0  0  0
 20 18  1  0  0  0
 18 19  2  0  0  0
 19 17  1  0  0  0
 17 16  1  0  0  0
 16  1  1  0  0  0
  1  2  1  0  0  0
  2  3  2  0  0  0
  2  5  1  0  0  0
  5  6  2  0  0  0
  6  7  1  0  0  0
  7  8  2  0  0  0
  8  9  1  0  0  0
  9 10  2  0  0  0
 10 11  1  0  0  0
 11 12  2  0  0  0
 12 13  1  0  0  0
 13 14  2  0  0  0
 14 15  1  0  0  0
 15 11  1  0  0  0
  1  4  1  0  0  0
M  END
> <minimizedAffinity>
-6.59146

> <CNNscore>
0.3499281108

> <CNNaffinity>
6.2512555122

> <CNN_VS>
2.1874899864

> <CNNaffinity_variance>
0.0853876546

$$$$
[H]/C(=C(\[H])C([H])([H])C([H])([H])N([H])C(=O)/C([H])=C([H])/C([H])=C([H])/C([H])=C(\[H])c1sc([H])c([H])c1[H])C([H])([H])OC(=O)C([H])([H])C([H])(C([H])([H])[H])C([H])([H])[H]


 27 27  0  0  0  0  0  0  0  0999 V2000
  -16.2695   11.8785  -22.0200 N   0  0  0  0  0  0  0  0  0  0  0  0
  -16.1681   10.8099  -21.1103 C   0  0  0  0  0  0  0  0  0  0  0  0
  -15.1773   10.0416  -21.1887 O   0  0  0  0  0  0  0  0  0  0  0  0
  -17.0924   12.5244  -21.9590 H   0  0  0  0  0  0  0  0  0  0  0  0
  -17.1695   10.5806  -20.0981 C   0  0  0  0  0  0  0  0  0  0  0  0
  -17.4707   11.4160  -19.1461 C   0  0  0  0  0  0  0  0  0  0  0  0
  -18.5015   11.1254  -18.1434 C   0  0  0  0  0  0  0  0  0  0  0  0
  -19.4132   11.9820  -17.7831 C   0  0  0  0  0  0  0  0  0  0  0  0
  -20.4395   11.6631  -16.7711 C   0  0  0  0  0  0  0  0  0  0  0  0
  -20.5763   10.4403  -16.3123 C   0  0  0  0  0  0  0  0  0  0  0  0
  -21.6109   10.1321  -15.2956 C   0  0  0  0  0  0  0  0  0  0  0  0
  -22.9263    9.8191  -15.5083 C   0  0  0  0  0  0  0  0  0  0  0  0
  -23.6848    9.5754  -14.4274 C   0  0  0  0  0  0  0  0  0  0  0  0
  -23.0759    9.6610  -13.2039 C   0  0  0  0  0  0  0  0  0  0  0  0
  -21.4733   10.0765  -13.5978 S   0  0  0  0  0  0  0  0  0  0  0  0
  -15.2955   12.1465  -23.0496 C   0  0  0  0  0  0  0  0  0  0  0  0
  -15.4340   13.5260  -23.6658 C   0  0  0  0  0  0  0  0  0  0  0  0
  -17.7189   14.1830  -24.3444 C   0  0  0  0  0  0  0  0  0  0  0  0
  -16.5814   13.5879  -24.5897 C   0  0  0  0  0  0  0  0  0  0  0  0
  -17.9865   14.8755  -23.0820 C   0  0  0  0  0  0  0  0  0  0  0  0
  -18.4598   13.9562  -22.1229 O   0  0  0  0  0  0  0  0  0  0  0  0
  -18.8472   14.3840  -20.8763 C   0  0  0  0  0  0  0  0  0  0  0  0
  -20.0262   14.2194  -20.5010 O   0  0  0  0  0  0  0  0  0  0  0  0
  -17.9001   15.0507  -19.9326 C   0  0  0  0  0  0  0  0  0  0  0  0
  -18.3349   15.4733  -17.5051 C   0  0  0  0  0  0  0  0  0  0  0  0
  -18.6777   15.8513  -18.9107 C   0  0  0  0  0  0  0  0  0  0  0  0
  -18.4963   17.3293  -19.0920 C   0  0  0  0  0  0  0  0  0  0  0  0
 25 26  1  0  0  0
 26 27  1  0  0  0
 26 24  1  0  0  0
 24 22  1  0  0  0
 22 23  2  0  0  0
 22 21  1  0  0  0
 21 20  1  0  0  0
 20 18  1  0  0  0
 18 19  2  0  0  0
 19 17  1  0  0  0
 17 16  1  0  0  0
 16  1  1  0  0  0
  1  2  1  0  0  0
  2  3  2  0  0  0
  2  5  1  0  0  0
  5  6  2  0  0  0
  6  7  1  0  0  0
  7  8  2  0  0  0
  8  9  1  0  0  0
  9 10  2  0  0  0
 10 11  1  0  0  0
 11 12  2  0  0  0
 12 13  1  0  0  0
 13 14  2  0  0  0
 14 15  1  0  0  0
 15 11  1  0  0  0
  1  4  1  0  0  0
M  END
> <minimizedAffinity>
-5.98435

> <CNNscore>
0.3092424273

> <CNNaffinity>
5.9792509079

> <CNN_VS>
1.8490381241

> <CNNaffinity_variance>
0.2981274724

$$$$
[H]/C(=C(\[H])C([H])([H])C([H])([H])N([H])C(=O)/C([H])=C([H])/C([H])=C([H])/C([H])=C(\[H])c1sc([H])c([H])c1[H])C([H])([H])OC(=O)C([H])([H])C([H])(C([H])([H])[H])C([H])([H])[H]


 27 27  0  0  0  0  0  0  0  0999 V2000
  -16.5176   17.0744  -25.2573 N   0  0  0  0  0  0  0  0  0  0  0  0
  -16.7037   17.4913  -23.9264 C   0  0  0  0  0  0  0  0  0  0  0  0
  -15.8265   17.2029  -23.0746 O   0  0  0  0  0  0  0  0  0  0  0  0
  -17.2445   17.3132  -25.9733 H   0  0  0  0  0  0  0  0  0  0  0  0
  -17.8706   18.2368  -23.5233 C   0  0  0  0  0  0  0  0  0  0  0  0
  -19.0740   17.7473  -23.4383 C   0  0  0  0  0  0  0  0  0  0  0  0
  -20.2236   18.5577  -23.0211 C   0  0  0  0  0  0  0  0  0  0  0  0
  -20.5623   18.7350  -21.7766 C   0  0  0  0  0  0  0  0  0  0  0  0
  -21.7246   19.5561  -21.3845 C   0  0  0  0  0  0  0  0  0  0  0  0
  -21.7832   20.8313  -21.6925 C   0  0  0  0  0  0  0  0  0  0  0  0
  -22.9562   21.6461  -21.2932 C   0  0  0  0  0  0  0  0  0  0  0  0
  -24.2674   21.2568  -21.2425 C   0  0  0  0  0  0  0  0  0  0  0  0
  -25.1676   22.1717  -20.8478 C   0  0  0  0  0  0  0  0  0  0  0  0
  -24.6952   23.4169  -20.5294 C   0  0  0  0  0  0  0  0  0  0  0  0
  -23.0196   23.2730  -20.7895 S   0  0  0  0  0  0  0  0  0  0  0  0
  -15.3695   16.3258  -25.7070 C   0  0  0  0  0  0  0  0  0  0  0  0
  -15.6061   14.8278  -25.7499 C   0  0  0  0  0  0  0  0  0  0  0  0
  -14.9347   13.6474  -23.6838 C   0  0  0  0  0  0  0  0  0  0  0  0
  -14.6608   14.1102  -24.8751 C   0  0  0  0  0  0  0  0  0  0  0  0
  -16.2547   13.7974  -23.0676 C   0  0  0  0  0  0  0  0  0  0  0  0
  -16.7384   12.5370  -22.6599 O   0  0  0  0  0  0  0  0  0  0  0  0
  -17.5376   12.4212  -21.5485 C   0  0  0  0  0  0  0  0  0  0  0  0
  -18.2876   13.3637  -21.2212 O   0  0  0  0  0  0  0  0  0  0  0  0
  -17.5478   11.1926  -20.6987 C   0  0  0  0  0  0  0  0  0  0  0  0
  -18.4456   11.2015  -18.3632 C   0  0  0  0  0  0  0  0  0  0  0  0
  -17.3023   11.5699  -19.2539 C   0  0  0  0  0  0  0  0  0  0  0  0
  -16.0354   10.9704  -18.7194 C   0  0  0  0  0  0  0  0  0  0  0  0
 25 26  1  0  0  0
 26 27  1  0  0  0
 26 24  1  0  0  0
 24 22  1  0  0  0
 22 23  2  0  0  0
 22 21  1  0  0  0
 21 20  1  0  0  0
 20 18  1  0  0  0
 18 19  2  0  0  0
 19 17  1  0  0  0
 17 16  1  0  0  0
 16  1  1  0  0  0
  1  2  1  0  0  0
  2  3  2  0  0  0
  2  5  1  0  0  0
  5  6  2  0  0  0
  6  7  1  0  0  0
  7  8  2  0  0  0
  8  9  1  0  0  0
  9 10  2  0  0  0
 10 11  1  0  0  0
 11 12  2  0  0  0
 12 13  1  0  0  0
 13 14  2  0  0  0
 14 15  1  0  0  0
 15 11  1  0  0  0
  1  4  1  0  0  0
M  END
> <minimizedAffinity>
-5.59884

> <CNNscore>
0.2739773095

> <CNNaffinity>
5.9218177795

> <CNN_VS>
1.6224436760

> <CNNaffinity_variance>
0.1018725857

$$$$
[H]/C(=C(\[H])C([H])([H])C([H])([H])N([H])C(=O)/C([H])=C([H])/C([H])=C([H])/C([H])=C(\[H])c1sc([H])c([H])c1[H])C([H])([H])OC(=O)C([H])([H])C([H])(C([H])([H])[H])C([H])([H])[H]


 27 27  0  0  0  0  0  0  0  0999 V2000
  -19.9579   10.3408  -16.5514 N   0  0  0  0  0  0  0  0  0  0  0  0
  -18.9285    9.7190  -17.2818 C   0  0  0  0  0  0  0  0  0  0  0  0
  -18.6519    8.5188  -17.0342 O   0  0  0  0  0  0  0  0  0  0  0  0
  -20.1950   11.3412  -16.7542 H   0  0  0  0  0  0  0  0  0  0  0  0
  -18.1906   10.4249  -18.3002 C   0  0  0  0  0  0  0  0  0  0  0  0
  -17.2409    9.9075  -19.0250 C   0  0  0  0  0  0  0  0  0  0  0  0
  -16.5255   10.6782  -20.0481 C   0  0  0  0  0  0  0  0  0  0  0  0
  -17.1236   11.3371  -20.9983 C   0  0  0  0  0  0  0  0  0  0  0  0
  -16.3789   12.1050  -22.0155 C   0  0  0  0  0  0  0  0  0  0  0  0
  -17.0110   12.8407  -22.9007 C   0  0  0  0  0  0  0  0  0  0  0  0
  -16.2520   13.6079  -23.9177 C   0  0  0  0  0  0  0  0  0  0  0  0
  -14.9217   13.9299  -23.9023 C   0  0  0  0  0  0  0  0  0  0  0  0
  -14.4466   14.6379  -24.9396 C   0  0  0  0  0  0  0  0  0  0  0  0
  -15.3351   14.9768  -25.9249 C   0  0  0  0  0  0  0  0  0  0  0  0
  -16.7973   14.3011  -25.3760 S   0  0  0  0  0  0  0  0  0  0  0  0
  -20.7213    9.6771  -15.5231 C   0  0  0  0  0  0  0  0  0  0  0  0
  -20.2026    9.9418  -14.1221 C   0  0  0  0  0  0  0  0  0  0  0  0
  -20.7531    8.2385  -12.4167 C   0  0  0  0  0  0  0  0  0  0  0  0
  -21.0597    9.3070  -13.1041 C   0  0  0  0  0  0  0  0  0  0  0  0
  -19.4824    7.5313  -12.5896 C   0  0  0  0  0  0  0  0  0  0  0  0
  -19.3900    6.4780  -11.6564 O   0  0  0  0  0  0  0  0  0  0  0  0
  -18.4246    6.4927  -10.6793 C   0  0  0  0  0  0  0  0  0  0  0  0
  -18.4413    5.6317   -9.7757 O   0  0  0  0  0  0  0  0  0  0  0  0
  -17.3349    7.5143  -10.6508 C   0  0  0  0  0  0  0  0  0  0  0  0
  -16.4308    9.4421   -9.3368 C   0  0  0  0  0  0  0  0  0  0  0  0
  -17.4666    8.3658   -9.4068 C   0  0  0  0  0  0  0  0  0  0  0  0
  -18.8321    8.9733   -9.2783 C   0  0  0  0  0  0  0  0  0  0  0  0
 25 26  1  0  0  0
 26 27  1  0  0  0
 26 24  1  0  0  0
 24 22  1  0  0  0
 22 23  2  0  0  0
 22 21  1  0  0  0
 21 20  1  0  0  0
 20 18  1  0  0  0
 18 19  2  0  0  0
 19 17  1  0  0  0
 17 16  1  0  0  0
 16  1  1  0  0  0
  1  2  1  0  0  0
  2  3  2  0  0  0
  2  5  1  0  0  0
  5  6  2  0  0  0
  6  7  1  0  0  0
  7  8  2  0  0  0
  8  9  1  0  0  0
  9 10  2  0  0  0
 10 11  1  0  0  0
 11 12  2  0  0  0
 12 13  1  0  0  0
 13 14  2  0  0  0
 14 15  1  0  0  0
 15 11  1  0  0  0
  1  4  1  0  0  0
M  END
> <minimizedAffinity>
-6.10695

> <CNNscore>
0.2507473826

> <CNNaffinity>
5.3115010262

> <CNN_VS>
1.3318449259

> <CNNaffinity_variance>
0.0739568621

$$$$
[H]/C(=C(\[H])C([H])([H])C([H])([H])N([H])C(=O)/C([H])=C([H])/C([H])=C([H])/C([H])=C(\[H])c1sc([H])c([H])c1[H])C([H])([H])OC(=O)C([H])([H])C([H])(C([H])([H])[H])C([H])([H])[H]


 27 27  0  0  0  0  0  0  0  0999 V2000
  -19.5576   13.1598  -19.4705 N   0  0  0  0  0  0  0  0  0  0  0  0
  -18.9021   12.3064  -18.5639 C   0  0  0  0  0  0  0  0  0  0  0  0
  -17.9395   11.6121  -18.9756 O   0  0  0  0  0  0  0  0  0  0  0  0
  -20.3601   13.7432  -19.1333 H   0  0  0  0  0  0  0  0  0  0  0  0
  -19.3088   12.2134  -17.1834 C   0  0  0  0  0  0  0  0  0  0  0  0
  -20.5424   12.2349  -16.7677 C   0  0  0  0  0  0  0  0  0  0  0  0
  -20.8940   12.1360  -15.3468 C   0  0  0  0  0  0  0  0  0  0  0  0
  -20.2178   11.4285  -14.4883 C   0  0  0  0  0  0  0  0  0  0  0  0
  -20.5938   11.3465  -13.0632 C   0  0  0  0  0  0  0  0  0  0  0  0
  -21.4633   10.4553  -12.6460 C   0  0  0  0  0  0  0  0  0  0  0  0
  -21.8331   10.3824  -11.2117 C   0  0  0  0  0  0  0  0  0  0  0  0
  -21.1970   10.9714  -10.1525 C   0  0  0  0  0  0  0  0  0  0  0  0
  -21.7148   10.7662   -8.9306 C   0  0  0  0  0  0  0  0  0  0  0  0
  -22.8361    9.9846   -8.8497 C   0  0  0  0  0  0  0  0  0  0  0  0
  -23.1312    9.5626  -10.4718 S   0  0  0  0  0  0  0  0  0  0  0  0
  -19.1887   13.2850  -20.8594 C   0  0  0  0  0  0  0  0  0  0  0  0
  -18.6628   14.6613  -21.2213 C   0  0  0  0  0  0  0  0  0  0  0  0
  -16.5160   15.8729  -21.0315 C   0  0  0  0  0  0  0  0  0  0  0  0
  -17.2733   14.8423  -20.7623 C   0  0  0  0  0  0  0  0  0  0  0  0
  -16.9807   16.9974  -21.8466 C   0  0  0  0  0  0  0  0  0  0  0  0
  -16.0941   17.2065  -22.9232 O   0  0  0  0  0  0  0  0  0  0  0  0
  -16.4734   16.9070  -24.2091 C   0  0  0  0  0  0  0  0  0  0  0  0
  -17.0285   17.7763  -24.9121 O   0  0  0  0  0  0  0  0  0  0  0  0
  -16.2459   15.5600  -24.8139 C   0  0  0  0  0  0  0  0  0  0  0  0
  -15.0276   13.6458  -23.7593 C   0  0  0  0  0  0  0  0  0  0  0  0
  -14.9121   15.0132  -24.3535 C   0  0  0  0  0  0  0  0  0  0  0  0
  -13.8953   14.9975  -25.4563 C   0  0  0  0  0  0  0  0  0  0  0  0
 25 26  1  0  0  0
 26 27  1  0  0  0
 26 24  1  0  0  0
 24 22  1  0  0  0
 22 23  2  0  0  0
 22 21  1  0  0  0
 21 20  1  0  0  0
 20 18  1  0  0  0
 18 19  2  0  0  0
 19 17  1  0  0  0
 17 16  1  0  0  0
 16  1  1  0  0  0
  1  2  1  0  0  0
  2  3  2  0  0  0
  2  5  1  0  0  0
  5  6  2  0  0  0
  6  7  1  0  0  0
  7  8  2  0  0  0
  8  9  1  0  0  0
  9 10  2  0  0  0
 10 11  1  0  0  0
 11 12  2  0  0  0
 12 13  1  0  0  0
 13 14  2  0  0  0
 14 15  1  0  0  0
 15 11  1  0  0  0
  1  4  1  0  0  0
M  END
> <minimizedAffinity>
-5.25013

> <CNNscore>
0.2411892861

> <CNNaffinity>
5.5020513535

> <CNN_VS>
1.3270357847

> <CNNaffinity_variance>
0.2735385299

$$$$
[H]Oc1nc(N([H])c2c([H])c(OC([H])([H])[H])c([H])c([H])c2OC([H])([H])[H])c([H])c2c([H])c([H])c([H])c([H])c12


 24 26  0  0  0  0  0  0  0  0999 V2000
  -16.0857   12.7406  -23.0556 N   0  0  0  0  0  0  0  0  0  0  0  0
  -15.5943   12.0409  -23.7284 H   0  0  0  0  0  0  0  0  0  0  0  0
  -16.5695   12.1746  -21.8793 C   0  0  0  0  0  0  0  0  0  0  0  0
  -17.6047   12.8088  -21.1928 C   0  0  0  0  0  0  0  0  0  0  0  0
  -18.1188   12.2851  -20.0198 C   0  0  0  0  0  0  0  0  0  0  0  0
  -19.1434   12.9057  -19.3333 C   0  0  0  0  0  0  0  0  0  0  0  0
  -19.6199   12.3450  -18.1713 C   0  0  0  0  0  0  0  0  0  0  0  0
  -19.0956   11.1863  -17.6882 C   0  0  0  0  0  0  0  0  0  0  0  0
  -18.0771   10.5659  -18.3672 C   0  0  0  0  0  0  0  0  0  0  0  0
  -17.5963   11.1168  -19.5249 C   0  0  0  0  0  0  0  0  0  0  0  0
  -16.5733   10.5018  -20.2150 C   0  0  0  0  0  0  0  0  0  0  0  0
  -16.0410    9.3223  -19.7214 O   0  0  0  0  0  0  0  0  0  0  0  0
  -16.1235   11.0616  -21.3419 N   0  0  0  0  0  0  0  0  0  0  0  0
  -16.4054    8.4640  -20.1067 H   0  0  0  0  0  0  0  0  0  0  0  0
  -16.0445   16.4872  -23.2105 C   0  0  0  0  0  0  0  0  0  0  0  0
  -16.2037   16.6412  -24.5628 C   0  0  0  0  0  0  0  0  0  0  0  0
  -16.3221   15.5592  -25.4084 C   0  0  0  0  0  0  0  0  0  0  0  0
  -16.2812   14.2719  -24.8954 C   0  0  0  0  0  0  0  0  0  0  0  0
  -16.1209   14.0575  -23.5262 C   0  0  0  0  0  0  0  0  0  0  0  0
  -16.0069   15.1754  -22.7215 C   0  0  0  0  0  0  0  0  0  0  0  0
  -16.3023   17.5865  -21.0261 C   0  0  0  0  0  0  0  0  0  0  0  0
  -15.9260   17.5859  -22.3660 O   0  0  0  0  0  0  0  0  0  0  0  0
  -16.3971   13.1663  -25.7168 O   0  0  0  0  0  0  0  0  0  0  0  0
  -17.6896   12.7354  -26.1298 C   0  0  0  0  0  0  0  0  0  0  0  0
 21 22  1  0  0  0
 22 15  1  0  0  0
 15 16  2  0  0  0
 16 17  1  0  0  0
 17 18  2  0  0  0
 18 23  1  0  0  0
 23 24  1  0  0  0
 18 19  1  0  0  0
 19  1  1  0  0  0
  1  3  1  0  0  0
  3  4  2  0  0  0
  4  5  1  0  0  0
  5  6  2  0  0  0
  6  7  1  0  0  0
  7  8  2  0  0  0
  8  9  1  0  0  0
  9 10  2  0  0  0
 10 11  1  0  0  0
 11 12  1  0  0  0
 11 13  2  0  0  0
 19 20  2  0  0  0
 20 15  1  0  0  0
 13  3  1  0  0  0
 10  5  1  0  0  0
  1  2  1  0  0  0
 12 14  1  0  0  0
M  END
> <minimizedAffinity>
-8.14824

> <CNNscore>
0.7977926731

> <CNNaffinity>
6.2929992676

> <CNN_VS>
5.0205087662

> <CNNaffinity_variance>
0.0664367601

$$$$
[H]Oc1nc(N([H])c2c([H])c(OC([H])([H])[H])c([H])c([H])c2OC([H])([H])[H])c([H])c2c([H])c([H])c([H])c([H])c12


 24 26  0  0  0  0  0  0  0  0999 V2000
  -17.8316   13.9175  -20.6843 N   0  0  0  0  0  0  0  0  0  0  0  0
  -18.4075   14.7578  -20.3022 H   0  0  0  0  0  0  0  0  0  0  0  0
  -17.9083   12.7609  -19.9133 C   0  0  0  0  0  0  0  0  0  0  0  0
  -18.8852   12.6653  -18.9225 C   0  0  0  0  0  0  0  0  0  0  0  0
  -19.0010   11.5364  -18.1308 C   0  0  0  0  0  0  0  0  0  0  0  0
  -19.9647   11.4326  -17.1477 C   0  0  0  0  0  0  0  0  0  0  0  0
  -20.0388   10.2891  -16.3869 C   0  0  0  0  0  0  0  0  0  0  0  0
  -19.1750    9.2577  -16.5897 C   0  0  0  0  0  0  0  0  0  0  0  0
  -18.2155    9.3565  -17.5657 C   0  0  0  0  0  0  0  0  0  0  0  0
  -18.1342   10.4910  -18.3280 C   0  0  0  0  0  0  0  0  0  0  0  0
  -17.1739   10.6007  -19.3113 C   0  0  0  0  0  0  0  0  0  0  0  0
  -16.2957    9.5495  -19.5159 O   0  0  0  0  0  0  0  0  0  0  0  0
  -17.1174   11.7193  -20.0401 N   0  0  0  0  0  0  0  0  0  0  0  0
  -16.5323    8.8967  -20.2479 H   0  0  0  0  0  0  0  0  0  0  0  0
  -16.4578   13.6629  -24.1644 C   0  0  0  0  0  0  0  0  0  0  0  0
  -15.7277   14.8224  -24.1851 C   0  0  0  0  0  0  0  0  0  0  0  0
  -15.6789   15.6698  -23.0992 C   0  0  0  0  0  0  0  0  0  0  0  0
  -16.3811   15.3577  -21.9452 C   0  0  0  0  0  0  0  0  0  0  0  0
  -17.1405   14.1897  -21.8697 C   0  0  0  0  0  0  0  0  0  0  0  0
  -17.1564   13.3741  -22.9853 C   0  0  0  0  0  0  0  0  0  0  0  0
  -17.6673   12.4645  -25.9385 C   0  0  0  0  0  0  0  0  0  0  0  0
  -16.5004   12.8147  -25.2657 O   0  0  0  0  0  0  0  0  0  0  0  0
  -16.3525   16.1865  -20.8395 O   0  0  0  0  0  0  0  0  0  0  0  0
  -16.3292   17.5978  -21.0249 C   0  0  0  0  0  0  0  0  0  0  0  0
 21 22  1  0  0  0
 22 15  1  0  0  0
 15 16  2  0  0  0
 16 17  1  0  0  0
 17 18  2  0  0  0
 18 23  1  0  0  0
 23 24  1  0  0  0
 18 19  1  0  0  0
 19  1  1  0  0  0
  1  3  1  0  0  0
  3  4  2  0  0  0
  4  5  1  0  0  0
  5  6  2  0  0  0
  6  7  1  0  0  0
  7  8  2  0  0  0
  8  9  1  0  0  0
  9 10  2  0  0  0
 10 11  1  0  0  0
 11 12  1  0  0  0
 11 13  2  0  0  0
 19 20  2  0  0  0
 20 15  1  0  0  0
 13  3  1  0  0  0
 10  5  1  0  0  0
  1  2  1  0  0  0
 12 14  1  0  0  0
M  END
> <minimizedAffinity>
-8.55005

> <CNNscore>
0.6855942011

> <CNNaffinity>
6.0150742531

> <CNN_VS>
4.1238999367

> <CNNaffinity_variance>
0.1026048064

$$$$
[H]Oc1nc(N([H])c2c([H])c(OC([H])([H])[H])c([H])c([H])c2OC([H])([H])[H])c([H])c2c([H])c([H])c([H])c([H])c12


 24 26  0  0  0  0  0  0  0  0999 V2000
  -17.6122   11.3439  -18.9623 N   0  0  0  0  0  0  0  0  0  0  0  0
  -16.8881   10.6670  -18.5136 H   0  0  0  0  0  0  0  0  0  0  0  0
  -17.2637   11.8148  -20.2253 C   0  0  0  0  0  0  0  0  0  0  0  0
  -17.9362   12.9175  -20.7514 C   0  0  0  0  0  0  0  0  0  0  0  0
  -17.6257   13.4220  -22.0019 C   0  0  0  0  0  0  0  0  0  0  0  0
  -18.2858   14.5130  -22.5310 C   0  0  0  0  0  0  0  0  0  0  0  0
  -17.9401   14.9767  -23.7789 C   0  0  0  0  0  0  0  0  0  0  0  0
  -16.9558   14.3750  -24.5000 C   0  0  0  0  0  0  0  0  0  0  0  0
  -16.2970   13.2902  -23.9781 C   0  0  0  0  0  0  0  0  0  0  0  0
  -16.6343   12.8216  -22.7366 C   0  0  0  0  0  0  0  0  0  0  0  0
  -15.9787   11.7324  -22.2027 C   0  0  0  0  0  0  0  0  0  0  0  0
  -14.9771   11.1215  -22.9386 O   0  0  0  0  0  0  0  0  0  0  0  0
  -16.3286   11.2964  -20.9890 N   0  0  0  0  0  0  0  0  0  0  0  0
  -14.0297   11.4039  -22.7372 H   0  0  0  0  0  0  0  0  0  0  0  0
  -20.5148   13.0326  -17.2933 C   0  0  0  0  0  0  0  0  0  0  0  0
  -20.9673   11.9773  -16.5453 C   0  0  0  0  0  0  0  0  0  0  0  0
  -20.3494   10.7458  -16.5779 C   0  0  0  0  0  0  0  0  0  0  0  0
  -19.2383   10.5496  -17.3834 C   0  0  0  0  0  0  0  0  0  0  0  0
  -18.7355   11.5898  -18.1656 C   0  0  0  0  0  0  0  0  0  0  0  0
  -19.3908   12.8046  -18.0972 C   0  0  0  0  0  0  0  0  0  0  0  0
  -21.4619   15.0249  -18.3797 C   0  0  0  0  0  0  0  0  0  0  0  0
  -21.1457   14.2714  -17.2531 O   0  0  0  0  0  0  0  0  0  0  0  0
  -18.5964    9.3268  -17.4382 O   0  0  0  0  0  0  0  0  0  0  0  0
  -18.5579    8.5055  -16.2760 C   0  0  0  0  0  0  0  0  0  0  0  0
 21 22  1  0  0  0
 22 15  1  0  0  0
 15 16  2  0  0  0
 16 17  1  0  0  0
 17 18  2  0  0  0
 18 23  1  0  0  0
 23 24  1  0  0  0
 18 19  1  0  0  0
 19  1  1  0  0  0
  1  3  1  0  0  0
  3  4  2  0  0  0
  4  5  1  0  0  0
  5  6  2  0  0  0
  6  7  1  0  0  0
  7  8  2  0  0  0
  8  9  1  0  0  0
  9 10  2  0  0  0
 10 11  1  0  0  0
 11 12  1  0  0  0
 11 13  2  0  0  0
 19 20  2  0  0  0
 20 15  1  0  0  0
 13  3  1  0  0  0
 10  5  1  0  0  0
  1  2  1  0  0  0
 12 14  1  0  0  0
M  END
> <minimizedAffinity>
-7.51098

> <CNNscore>
0.6552659869

> <CNNaffinity>
5.8378057480

> <CNN_VS>
3.8253154755

> <CNNaffinity_variance>
0.1731609404

$$$$
[H]Oc1nc(N([H])c2c([H])c(OC([H])([H])[H])c([H])c([H])c2OC([H])([H])[H])c([H])c2c([H])c([H])c([H])c([H])c12


 24 26  0  0  0  0  0  0  0  0999 V2000
  -17.5500   14.0255  -20.6007 N   0  0  0  0  0  0  0  0  0  0  0  0
  -17.2939   14.9037  -20.0117 H   0  0  0  0  0  0  0  0  0  0  0  0
  -17.7173   12.8576  -19.8616 C   0  0  0  0  0  0  0  0  0  0  0  0
  -18.7259   12.7976  -18.9002 C   0  0  0  0  0  0  0  0  0  0  0  0
  -18.9311   11.6593  -18.1408 C   0  0  0  0  0  0  0  0  0  0  0  0
  -19.9268   11.5905  -17.1869 C   0  0  0  0  0  0  0  0  0  0  0  0
  -20.0905   10.4359  -16.4577 C   0  0  0  0  0  0  0  0  0  0  0  0
  -19.2843    9.3594  -16.6632 C   0  0  0  0  0  0  0  0  0  0  0  0
  -18.2933    9.4232  -17.6103 C   0  0  0  0  0  0  0  0  0  0  0  0
  -18.1230   10.5686  -18.3410 C   0  0  0  0  0  0  0  0  0  0  0  0
  -17.1303   10.6434  -19.2950 C   0  0  0  0  0  0  0  0  0  0  0  0
  -16.3109    9.5464  -19.5025 O   0  0  0  0  0  0  0  0  0  0  0  0
  -16.9866   11.7736  -19.9935 N   0  0  0  0  0  0  0  0  0  0  0  0
  -16.5651    8.9266  -20.2569 H   0  0  0  0  0  0  0  0  0  0  0  0
  -17.2682   13.6903  -24.3252 C   0  0  0  0  0  0  0  0  0  0  0  0
  -17.9132   14.8439  -24.6871 C   0  0  0  0  0  0  0  0  0  0  0  0
  -18.4288   15.7129  -23.7497 C   0  0  0  0  0  0  0  0  0  0  0  0
  -18.3014   15.4293  -22.3987 C   0  0  0  0  0  0  0  0  0  0  0  0
  -17.6539   14.2686  -21.9745 C   0  0  0  0  0  0  0  0  0  0  0  0
  -17.1547   13.4306  -22.9536 C   0  0  0  0  0  0  0  0  0  0  0  0
  -17.4814   12.3087  -26.3480 C   0  0  0  0  0  0  0  0  0  0  0  0
  -16.7515   12.8202  -25.2791 O   0  0  0  0  0  0  0  0  0  0  0  0
  -18.8075   16.2803  -21.4343 O   0  0  0  0  0  0  0  0  0  0  0  0
  -19.8983   17.1351  -21.7599 C   0  0  0  0  0  0  0  0  0  0  0  0
 21 22  1  0  0  0
 22 15  1  0  0  0
 15 16  2  0  0  0
 16 17  1  0  0  0
 17 18  2  0  0  0
 18 23  1  0  0  0
 23 24  1  0  0  0
 18 19  1  0  0  0
 19  1  1  0  0  0
  1  3  1  0  0  0
  3  4  2  0  0  0
  4  5  1  0  0  0
  5  6  2  0  0  0
  6  7  1  0  0  0
  7  8  2  0  0  0
  8  9  1  0  0  0
  9 10  2  0  0  0
 10 11  1  0  0  0
 11 12  1  0  0  0
 11 13  2  0  0  0
 19 20  2  0  0  0
 20 15  1  0  0  0
 13  3  1  0  0  0
 10  5  1  0  0  0
  1  2  1  0  0  0
 12 14  1  0  0  0
M  END
> <minimizedAffinity>
-8.58608

> <CNNscore>
0.5729050636

> <CNNaffinity>
5.9652719498

> <CNN_VS>
3.4175345898

> <CNNaffinity_variance>
0.2110727578

$$$$
[H]Oc1nc(N([H])c2c([H])c(OC([H])([H])[H])c([H])c([H])c2OC([H])([H])[H])c([H])c2c([H])c([H])c([H])c([H])c12


 24 26  0  0  0  0  0  0  0  0999 V2000
  -18.6934   12.0792  -17.6806 N   0  0  0  0  0  0  0  0  0  0  0  0
  -18.4814   12.9830  -17.1133 H   0  0  0  0  0  0  0  0  0  0  0  0
  -18.0693   12.0123  -18.9233 C   0  0  0  0  0  0  0  0  0  0  0  0
  -18.3335   12.9990  -19.8731 C   0  0  0  0  0  0  0  0  0  0  0  0
  -17.7377   12.9755  -21.1217 C   0  0  0  0  0  0  0  0  0  0  0  0
  -17.9930   13.9476  -22.0682 C   0  0  0  0  0  0  0  0  0  0  0  0
  -17.3755   13.8798  -23.2954 C   0  0  0  0  0  0  0  0  0  0  0  0
  -16.5158   12.8674  -23.5901 C   0  0  0  0  0  0  0  0  0  0  0  0
  -16.2591   11.8989  -22.6523 C   0  0  0  0  0  0  0  0  0  0  0  0
  -16.8692   11.9583  -21.4280 C   0  0  0  0  0  0  0  0  0  0  0  0
  -16.6183   10.9904  -20.4785 C   0  0  0  0  0  0  0  0  0  0  0  0
  -15.7429    9.9608  -20.7807 O   0  0  0  0  0  0  0  0  0  0  0  0
  -17.2277   11.0732  -19.2921 N   0  0  0  0  0  0  0  0  0  0  0  0
  -14.7879   10.0730  -20.4752 H   0  0  0  0  0  0  0  0  0  0  0  0
  -20.1353    8.9643  -16.1703 C   0  0  0  0  0  0  0  0  0  0  0  0
  -21.3234    9.4807  -15.7232 C   0  0  0  0  0  0  0  0  0  0  0  0
  -21.6535   10.8065  -15.9048 C   0  0  0  0  0  0  0  0  0  0  0  0
  -20.7725   11.6566  -16.5551 C   0  0  0  0  0  0  0  0  0  0  0  0
  -19.5492   11.1835  -17.0307 C   0  0  0  0  0  0  0  0  0  0  0  0
  -19.2659    9.8468  -16.8235 C   0  0  0  0  0  0  0  0  0  0  0  0
  -20.3184    6.8351  -14.9540 C   0  0  0  0  0  0  0  0  0  0  0  0
  -19.8119    7.6248  -15.9819 O   0  0  0  0  0  0  0  0  0  0  0  0
  -21.0742   12.9909  -16.7529 O   0  0  0  0  0  0  0  0  0  0  0  0
  -21.6755   13.7347  -15.6984 C   0  0  0  0  0  0  0  0  0  0  0  0
 21 22  1  0  0  0
 22 15  1  0  0  0
 15 16  2  0  0  0
 16 17  1  0  0  0
 17 18  2  0  0  0
 18 23  1  0  0  0
 23 24  1  0  0  0
 18 19  1  0  0  0
 19  1  1  0  0  0
  1  3  1  0  0  0
  3  4  2  0  0  0
  4  5  1  0  0  0
  5  6  2  0  0  0
  6  7  1  0  0  0
  7  8  2  0  0  0
  8  9  1  0  0  0
  9 10  2  0  0  0
 10 11  1  0  0  0
 11 12  1  0  0  0
 11 13  2  0  0  0
 19 20  2  0  0  0
 20 15  1  0  0  0
 13  3  1  0  0  0
 10  5  1  0  0  0
  1  2  1  0  0  0
 12 14  1  0  0  0
M  END
> <minimizedAffinity>
-7.31749

> <CNNscore>
0.5571969748

> <CNNaffinity>
5.5346250534

> <CNN_VS>
3.0838763714

> <CNNaffinity_variance>
0.1658041030

$$$$
[H]Oc1nc(N([H])c2c([H])c(OC([H])([H])[H])c([H])c([H])c2OC([H])([H])[H])c([H])c2c([H])c([H])c([H])c([H])c12


 24 26  0  0  0  0  0  0  0  0999 V2000
  -16.6677   12.7462  -22.2799 N   0  0  0  0  0  0  0  0  0  0  0  0
  -15.7819   12.2177  -21.9335 H   0  0  0  0  0  0  0  0  0  0  0  0
  -16.6467   13.0964  -23.6272 C   0  0  0  0  0  0  0  0  0  0  0  0
  -15.9298   14.2238  -24.0276 C   0  0  0  0  0  0  0  0  0  0  0  0
  -15.8793   14.6119  -25.3548 C   0  0  0  0  0  0  0  0  0  0  0  0
  -15.1724   15.7262  -25.7608 C   0  0  0  0  0  0  0  0  0  0  0  0
  -15.1530   16.0706  -27.0922 C   0  0  0  0  0  0  0  0  0  0  0  0
  -15.8210   15.3280  -28.0159 C   0  0  0  0  0  0  0  0  0  0  0  0
  -16.5250   14.2196  -27.6170 C   0  0  0  0  0  0  0  0  0  0  0  0
  -16.5500   13.8691  -26.2936 C   0  0  0  0  0  0  0  0  0  0  0  0
  -17.2541   12.7574  -25.8820 C   0  0  0  0  0  0  0  0  0  0  0  0
  -17.9334   12.0030  -26.8241 O   0  0  0  0  0  0  0  0  0  0  0  0
  -17.2614   12.4388  -24.5843 N   0  0  0  0  0  0  0  0  0  0  0  0
  -17.4568   11.1895  -27.1831 H   0  0  0  0  0  0  0  0  0  0  0  0
  -19.5608   14.1346  -20.3395 C   0  0  0  0  0  0  0  0  0  0  0  0
  -19.5116   13.2910  -19.2607 C   0  0  0  0  0  0  0  0  0  0  0  0
  -18.5649   12.2943  -19.1602 C   0  0  0  0  0  0  0  0  0  0  0  0
  -17.6283   12.1249  -20.1682 C   0  0  0  0  0  0  0  0  0  0  0  0
  -17.6326   12.9557  -21.2890 C   0  0  0  0  0  0  0  0  0  0  0  0
  -18.6021   13.9393  -21.3416 C   0  0  0  0  0  0  0  0  0  0  0  0
  -20.2450   16.4523  -20.7936 C   0  0  0  0  0  0  0  0  0  0  0  0
  -20.5203   15.1371  -20.4311 O   0  0  0  0  0  0  0  0  0  0  0  0
  -16.6663   11.1350  -20.0972 O   0  0  0  0  0  0  0  0  0  0  0  0
  -16.0757   10.8239  -18.8397 C   0  0  0  0  0  0  0  0  0  0  0  0
 21 22  1  0  0  0
 22 15  1  0  0  0
 15 16  2  0  0  0
 16 17  1  0  0  0
 17 18  2  0  0  0
 18 23  1  0  0  0
 23 24  1  0  0  0
 18 19  1  0  0  0
 19  1  1  0  0  0
  1  3  1  0  0  0
  3  4  2  0  0  0
  4  5  1  0  0  0
  5  6  2  0  0  0
  6  7  1  0  0  0
  7  8  2  0  0  0
  8  9  1  0  0  0
  9 10  2  0  0  0
 10 11  1  0  0  0
 11 12  1  0  0  0
 11 13  2  0  0  0
 19 20  2  0  0  0
 20 15  1  0  0  0
 13  3  1  0  0  0
 10  5  1  0  0  0
  1  2  1  0  0  0
 12 14  1  0  0  0
M  END
> <minimizedAffinity>
-8.12959

> <CNNscore>
0.5566437840

> <CNNaffinity>
6.0136666298

> <CNN_VS>
3.3474700451

> <CNNaffinity_variance>
0.0765954703

$$$$
[H]Oc1nc(N([H])c2c([H])c(OC([H])([H])[H])c([H])c([H])c2OC([H])([H])[H])c([H])c2c([H])c([H])c([H])c([H])c12


 24 26  0  0  0  0  0  0  0  0999 V2000
  -16.7999   12.8506  -21.9404 N   0  0  0  0  0  0  0  0  0  0  0  0
  -16.1260   12.0147  -21.7647 H   0  0  0  0  0  0  0  0  0  0  0  0
  -16.5326   13.5807  -23.0953 C   0  0  0  0  0  0  0  0  0  0  0  0
  -16.9569   13.0860  -24.3284 C   0  0  0  0  0  0  0  0  0  0  0  0
  -16.7148   13.7751  -25.5035 C   0  0  0  0  0  0  0  0  0  0  0  0
  -17.1309   13.2935  -26.7286 C   0  0  0  0  0  0  0  0  0  0  0  0
  -16.8658   14.0162  -27.8684 C   0  0  0  0  0  0  0  0  0  0  0  0
  -16.1988   15.2003  -27.8057 C   0  0  0  0  0  0  0  0  0  0  0  0
  -15.7832   15.6829  -26.5902 C   0  0  0  0  0  0  0  0  0  0  0  0
  -16.0427   14.9703  -25.4502 C   0  0  0  0  0  0  0  0  0  0  0  0
  -15.6296   15.4461  -24.2237 C   0  0  0  0  0  0  0  0  0  0  0  0
  -14.9507   16.6516  -24.1624 O   0  0  0  0  0  0  0  0  0  0  0  0
  -15.8963   14.7298  -23.1275 N   0  0  0  0  0  0  0  0  0  0  0  0
  -15.5001   17.4713  -23.9520 H   0  0  0  0  0  0  0  0  0  0  0  0
  -19.8244   14.0313  -20.0639 C   0  0  0  0  0  0  0  0  0  0  0  0
  -19.7052   13.2348  -18.9552 C   0  0  0  0  0  0  0  0  0  0  0  0
  -18.6707   12.3349  -18.8147 C   0  0  0  0  0  0  0  0  0  0  0  0
  -17.7147   12.2178  -19.8119 C   0  0  0  0  0  0  0  0  0  0  0  0
  -17.7877   13.0043  -20.9619 C   0  0  0  0  0  0  0  0  0  0  0  0
  -18.8440   13.8908  -21.0542 C   0  0  0  0  0  0  0  0  0  0  0  0
  -21.4930   15.5750  -19.1264 C   0  0  0  0  0  0  0  0  0  0  0  0
  -20.8722   14.9362  -20.1957 O   0  0  0  0  0  0  0  0  0  0  0  0
  -16.6654   11.3251  -19.7010 O   0  0  0  0  0  0  0  0  0  0  0  0
  -16.9199    9.9296  -19.8215 C   0  0  0  0  0  0  0  0  0  0  0  0
 21 22  1  0  0  0
 22 15  1  0  0  0
 15 16  2  0  0  0
 16 17  1  0  0  0
 17 18  2  0  0  0
 18 23  1  0  0  0
 23 24  1  0  0  0
 18 19  1  0  0  0
 19  1  1  0  0  0
  1  3  1  0  0  0
  3  4  2  0  0  0
  4  5  1  0  0  0
  5  6  2  0  0  0
  6  7  1  0  0  0
  7  8  2  0  0  0
  8  9  1  0  0  0
  9 10  2  0  0  0
 10 11  1  0  0  0
 11 12  1  0  0  0
 11 13  2  0  0  0
 19 20  2  0  0  0
 20 15  1  0  0  0
 13  3  1  0  0  0
 10  5  1  0  0  0
  1  2  1  0  0  0
 12 14  1  0  0  0
M  END
> <minimizedAffinity>
-7.84942

> <CNNscore>
0.5237917900

> <CNNaffinity>
5.9124507904

> <CNN_VS>
3.0968930721

> <CNNaffinity_variance>
0.0549702421

$$$$
[H]Oc1nc(N([H])c2c([H])c(OC([H])([H])[H])c([H])c([H])c2OC([H])([H])[H])c([H])c2c([H])c([H])c([H])c([H])c12


 24 26  0  0  0  0  0  0  0  0999 V2000
  -18.7346   12.3399  -20.8672 N   0  0  0  0  0  0  0  0  0  0  0  0
  -19.2838   11.4737  -21.2300 H   0  0  0  0  0  0  0  0  0  0  0  0
  -17.6756   12.7391  -21.6781 C   0  0  0  0  0  0  0  0  0  0  0  0
  -17.6270   14.0550  -22.1376 C   0  0  0  0  0  0  0  0  0  0  0  0
  -16.5951   14.4987  -22.9457 C   0  0  0  0  0  0  0  0  0  0  0  0
  -16.5383   15.7992  -23.4054 C   0  0  0  0  0  0  0  0  0  0  0  0
  -15.4914   16.1916  -24.2064 C   0  0  0  0  0  0  0  0  0  0  0  0
  -14.5098   15.3155  -24.5525 C   0  0  0  0  0  0  0  0  0  0  0  0
  -14.5620   14.0217  -24.0979 C   0  0  0  0  0  0  0  0  0  0  0  0
  -15.6005   13.6222  -23.2999 C   0  0  0  0  0  0  0  0  0  0  0  0
  -15.6627   12.3246  -22.8377 C   0  0  0  0  0  0  0  0  0  0  0  0
  -14.6624   11.4345  -23.1913 O   0  0  0  0  0  0  0  0  0  0  0  0
  -16.6876   11.9620  -22.0606 N   0  0  0  0  0  0  0  0  0  0  0  0
  -13.9113   11.3099  -22.5292 H   0  0  0  0  0  0  0  0  0  0  0  0
  -20.7014   14.3072  -18.3523 C   0  0  0  0  0  0  0  0  0  0  0  0
  -20.1106   13.8338  -17.2100 C   0  0  0  0  0  0  0  0  0  0  0  0
  -19.0985   12.8992  -17.2491 C   0  0  0  0  0  0  0  0  0  0  0  0
  -18.6521   12.4125  -18.4680 C   0  0  0  0  0  0  0  0  0  0  0  0
  -19.2183   12.8601  -19.6620 C   0  0  0  0  0  0  0  0  0  0  0  0
  -20.2296   13.7974  -19.5685 C   0  0  0  0  0  0  0  0  0  0  0  0
  -21.8441   16.3188  -19.1855 C   0  0  0  0  0  0  0  0  0  0  0  0
  -21.7221   15.2505  -18.3018 O   0  0  0  0  0  0  0  0  0  0  0  0
  -17.6391   11.4749  -18.5408 O   0  0  0  0  0  0  0  0  0  0  0  0
  -17.9173   10.1188  -18.2088 C   0  0  0  0  0  0  0  0  0  0  0  0
 21 22  1  0  0  0
 22 15  1  0  0  0
 15 16  2  0  0  0
 16 17  1  0  0  0
 17 18  2  0  0  0
 18 23  1  0  0  0
 23 24  1  0  0  0
 18 19  1  0  0  0
 19  1  1  0  0  0
  1  3  1  0  0  0
  3  4  2  0  0  0
  4  5  1  0  0  0
  5  6  2  0  0  0
  6  7  1  0  0  0
  7  8  2  0  0  0
  8  9  1  0  0  0
  9 10  2  0  0  0
 10 11  1  0  0  0
 11 12  1  0  0  0
 11 13  2  0  0  0
 19 20  2  0  0  0
 20 15  1  0  0  0
 13  3  1  0  0  0
 10  5  1  0  0  0
  1  2  1  0  0  0
 12 14  1  0  0  0
M  END
> <minimizedAffinity>
-7.25938

> <CNNscore>
0.4793673158

> <CNNaffinity>
5.7621960640

> <CNN_VS>
2.7622084618

> <CNNaffinity_variance>
0.1475743949

$$$$
[H]Oc1nc(N([H])c2c([H])c(OC([H])([H])[H])c([H])c([H])c2OC([H])([H])[H])c([H])c2c([H])c([H])c([H])c([H])c12


 24 26  0  0  0  0  0  0  0  0999 V2000
  -17.8818   13.8174  -21.2293 N   0  0  0  0  0  0  0  0  0  0  0  0
  -18.1451   13.5937  -22.2610 H   0  0  0  0  0  0  0  0  0  0  0  0
  -17.8865   12.7174  -20.3760 C   0  0  0  0  0  0  0  0  0  0  0  0
  -18.8382   12.6475  -19.3588 C   0  0  0  0  0  0  0  0  0  0  0  0
  -18.8829   11.5748  -18.4859 C   0  0  0  0  0  0  0  0  0  0  0  0
  -19.8212   11.4968  -17.4761 C   0  0  0  0  0  0  0  0  0  0  0  0
  -19.8242   10.4094  -16.6340 C   0  0  0  0  0  0  0  0  0  0  0  0
  -18.9148    9.4083  -16.7822 C   0  0  0  0  0  0  0  0  0  0  0  0
  -17.9803    9.4816  -17.7844 C   0  0  0  0  0  0  0  0  0  0  0  0
  -17.9698   10.5604  -18.6276 C   0  0  0  0  0  0  0  0  0  0  0  0
  -17.0353   10.6440  -19.6379 C   0  0  0  0  0  0  0  0  0  0  0  0
  -16.1106    9.6238  -19.7868 O   0  0  0  0  0  0  0  0  0  0  0  0
  -17.0480   11.7083  -20.4460 N   0  0  0  0  0  0  0  0  0  0  0  0
  -16.3289    8.9091  -20.4646 H   0  0  0  0  0  0  0  0  0  0  0  0
  -17.9819   17.3095  -19.8663 C   0  0  0  0  0  0  0  0  0  0  0  0
  -16.9492   17.8451  -20.5905 C   0  0  0  0  0  0  0  0  0  0  0  0
  -16.2344   17.0959  -21.5002 C   0  0  0  0  0  0  0  0  0  0  0  0
  -16.5541   15.7621  -21.7020 C   0  0  0  0  0  0  0  0  0  0  0  0
  -17.5964   15.1661  -20.9914 C   0  0  0  0  0  0  0  0  0  0  0  0
  -18.2818   15.9601  -20.0916 C   0  0  0  0  0  0  0  0  0  0  0  0
  -18.7653   19.4641  -18.9773 C   0  0  0  0  0  0  0  0  0  0  0  0
  -18.6968   18.0743  -18.9508 O   0  0  0  0  0  0  0  0  0  0  0  0
  -15.8567   14.9842  -22.6069 O   0  0  0  0  0  0  0  0  0  0  0  0
  -15.3195   15.5880  -23.7788 C   0  0  0  0  0  0  0  0  0  0  0  0
 21 22  1  0  0  0
 22 15  1  0  0  0
 15 16  2  0  0  0
 16 17  1  0  0  0
 17 18  2  0  0  0
 18 23  1  0  0  0
 23 24  1  0  0  0
 18 19  1  0  0  0
 19  1  1  0  0  0
  1  3  1  0  0  0
  3  4  2  0  0  0
  4  5  1  0  0  0
  5  6  2  0  0  0
  6  7  1  0  0  0
  7  8  2  0  0  0
  8  9  1  0  0  0
  9 10  2  0  0  0
 10 11  1  0  0  0
 11 12  1  0  0  0
 11 13  2  0  0  0
 19 20  2  0  0  0
 20 15  1  0  0  0
 13  3  1  0  0  0
 10  5  1  0  0  0
  1  2  1  0  0  0
 12 14  1  0  0  0
M  END
> <minimizedAffinity>
-7.61767

> <CNNscore>
0.4058693349

> <CNNaffinity>
5.7724137306

> <CNN_VS>
2.3428456783

> <CNNaffinity_variance>
0.0806683078

$$$$
[H]Oc1c([H])c2c(c([H])c1O[H])[C@]1([H])c3c(sc(Cl)c3[H])C([H])([H])N([H])[C@@]1([H])C([H])([H])C2([H])[H]


 23 26  0  0  0  0  0  0  0  0999 V2000
  -17.1791    9.7113  -18.5054 O   0  0  0  0  0  0  0  0  0  0  0  0
  -17.3074   10.7896  -19.3606 C   0  0  0  0  0  0  0  0  0  0  0  0
  -18.0299   11.8844  -18.9166 C   0  0  0  0  0  0  0  0  0  0  0  0
  -18.1646   12.9508  -19.7459 C   0  0  0  0  0  0  0  0  0  0  0  0
  -17.5833   12.9395  -21.0254 C   0  0  0  0  0  0  0  0  0  0  0  0
  -16.8732   11.8555  -21.4500 C   0  0  0  0  0  0  0  0  0  0  0  0
  -16.7262   10.7483  -20.6044 C   0  0  0  0  0  0  0  0  0  0  0  0
  -16.0171    9.6208  -20.9829 O   0  0  0  0  0  0  0  0  0  0  0  0
  -17.8454   14.1861  -21.7722 C   0  0  0  0  0  0  0  0  0  0  0  0
  -17.4084   14.2029  -23.1870 C   0  0  0  0  0  0  0  0  0  0  0  0
  -17.6447   13.2257  -24.1135 C   0  0  0  0  0  0  0  0  0  0  0  0
  -17.1635   13.4325  -25.3662 C   0  0  0  0  0  0  0  0  0  0  0  0
  -17.3005   12.3738  -26.7647 Cl  0  0  0  0  0  0  0  0  0  0  0  0
  -16.4018   14.9513  -25.2537 S   0  0  0  0  0  0  0  0  0  0  0  0
  -16.7110   15.2903  -23.6214 C   0  0  0  0  0  0  0  0  0  0  0  0
  -16.3783   16.4707  -22.7644 C   0  0  0  0  0  0  0  0  0  0  0  0
  -17.3722   16.5307  -21.6976 N   0  0  0  0  0  0  0  0  0  0  0  0
  -17.2771   15.2913  -20.9649 C   0  0  0  0  0  0  0  0  0  0  0  0
  -17.9776   15.3815  -19.6212 C   0  0  0  0  0  0  0  0  0  0  0  0
  -18.8969   14.1963  -19.3668 C   0  0  0  0  0  0  0  0  0  0  0  0
  -17.5934    9.7082  -17.5843 H   0  0  0  0  0  0  0  0  0  0  0  0
  -15.5659    9.5095  -21.8648 H   0  0  0  0  0  0  0  0  0  0  0  0
  -17.1805   17.3729  -21.1315 H   0  0  0  0  0  0  0  0  0  0  0  0
  1  2  1  0  0  0
  2  3  2  0  0  0
  3  4  1  0  0  0
  4  5  2  0  0  0
  5  6  1  0  0  0
  6  7  2  0  0  0
  7  8  1  0  0  0
  5  9  1  0  0  0
  9 10  1  0  0  0
 10 11  1  0  0  0
 11 12  2  0  0  0
 12 13  1  0  0  0
 12 14  1  0  0  0
 14 15  1  0  0  0
 15 16  1  0  0  0
 16 17  1  0  0  0
 17 18  1  0  0  0
 18 19  1  0  0  0
 19 20  1  0  0  0
  7  2  1  0  0  0
 18  9  1  0  0  0
 20  4  1  0  0  0
 15 10  2  0  0  0
  1 21  1  0  0  0
  8 22  1  0  0  0
 17 23  1  0  0  0
M  END
> <minimizedAffinity>
-9.04970

> <CNNscore>
0.6023504138

> <CNNaffinity>
6.2423062325

> <CNN_VS>
3.7600557804

> <CNNaffinity_variance>
0.1728772372

$$$$
[H]Oc1c([H])c2c(c([H])c1O[H])[C@]1([H])c3c(sc(Cl)c3[H])C([H])([H])N([H])[C@@]1([H])C([H])([H])C2([H])[H]


 23 26  0  0  0  0  0  0  0  0999 V2000
  -16.2300    9.8420  -19.5031 O   0  0  0  0  0  0  0  0  0  0  0  0
  -17.2924   10.5798  -19.0154 C   0  0  0  0  0  0  0  0  0  0  0  0
  -18.1217    9.9800  -18.0825 C   0  0  0  0  0  0  0  0  0  0  0  0
  -19.1695   10.6925  -17.5949 C   0  0  0  0  0  0  0  0  0  0  0  0
  -19.4041   12.0079  -18.0303 C   0  0  0  0  0  0  0  0  0  0  0  0
  -18.5791   12.5873  -18.9487 C   0  0  0  0  0  0  0  0  0  0  0  0
  -17.4941   11.8636  -19.4600 C   0  0  0  0  0  0  0  0  0  0  0  0
  -16.6246   12.4005  -20.3944 O   0  0  0  0  0  0  0  0  0  0  0  0
  -20.5895   12.6092  -17.3871 C   0  0  0  0  0  0  0  0  0  0  0  0
  -21.0083   13.9339  -17.9000 C   0  0  0  0  0  0  0  0  0  0  0  0
  -21.1559   14.2773  -19.2150 C   0  0  0  0  0  0  0  0  0  0  0  0
  -21.5562   15.5472  -19.4808 C   0  0  0  0  0  0  0  0  0  0  0  0
  -21.8326   16.2861  -21.0534 Cl  0  0  0  0  0  0  0  0  0  0  0  0
  -21.7228   16.2431  -17.9357 S   0  0  0  0  0  0  0  0  0  0  0  0
  -21.2818   14.9085  -16.9874 C   0  0  0  0  0  0  0  0  0  0  0  0
  -21.2032   14.7162  -15.5057 C   0  0  0  0  0  0  0  0  0  0  0  0
  -21.3905   13.2940  -15.2386 N   0  0  0  0  0  0  0  0  0  0  0  0
  -20.3331   12.5945  -15.9276 C   0  0  0  0  0  0  0  0  0  0  0  0
  -20.1890   11.1682  -15.4285 C   0  0  0  0  0  0  0  0  0  0  0  0
  -20.1138   10.1613  -16.5666 C   0  0  0  0  0  0  0  0  0  0  0  0
  -16.0525    8.8957  -19.1979 H   0  0  0  0  0  0  0  0  0  0  0  0
  -16.6992   13.3216  -20.7684 H   0  0  0  0  0  0  0  0  0  0  0  0
  -21.3896   13.1599  -14.2147 H   0  0  0  0  0  0  0  0  0  0  0  0
  1  2  1  0  0  0
  2  3  2  0  0  0
  3  4  1  0  0  0
  4  5  2  0  0  0
  5  6  1  0  0  0
  6  7  2  0  0  0
  7  8  1  0  0  0
  5  9  1  0  0  0
  9 10  1  0  0  0
 10 11  1  0  0  0
 11 12  2  0  0  0
 12 13  1  0  0  0
 12 14  1  0  0  0
 14 15  1  0  0  0
 15 16  1  0  0  0
 16 17  1  0  0  0
 17 18  1  0  0  0
 18 19  1  0  0  0
 19 20  1  0  0  0
  7  2  1  0  0  0
 18  9  1  0  0  0
 20  4  1  0  0  0
 15 10  2  0  0  0
  1 21  1  0  0  0
  8 22  1  0  0  0
 17 23  1  0  0  0
M  END
> <minimizedAffinity>
-6.89386

> <CNNscore>
0.4583195150

> <CNNaffinity>
5.0893654823

> <CNN_VS>
2.3325555325

> <CNNaffinity_variance>
0.2380275279

$$$$
[H]Oc1c([H])c2c(c([H])c1O[H])[C@]1([H])c3c(sc(Cl)c3[H])C([H])([H])N([H])[C@@]1([H])C([H])([H])C2([H])[H]


 23 26  0  0  0  0  0  0  0  0999 V2000
  -18.2302   11.0881  -18.4946 O   0  0  0  0  0  0  0  0  0  0  0  0
  -18.1870   12.0222  -19.5125 C   0  0  0  0  0  0  0  0  0  0  0  0
  -18.8748   13.2101  -19.3294 C   0  0  0  0  0  0  0  0  0  0  0  0
  -18.8416   14.1369  -20.3209 C   0  0  0  0  0  0  0  0  0  0  0  0
  -18.1252   13.8920  -21.5049 C   0  0  0  0  0  0  0  0  0  0  0  0
  -17.4511   12.7184  -21.6722 C   0  0  0  0  0  0  0  0  0  0  0  0
  -17.4768   11.7534  -20.6570 C   0  0  0  0  0  0  0  0  0  0  0  0
  -16.8119   10.5443  -20.7724 O   0  0  0  0  0  0  0  0  0  0  0  0
  -18.2146   15.0163  -22.4580 C   0  0  0  0  0  0  0  0  0  0  0  0
  -17.6245   14.7851  -23.7964 C   0  0  0  0  0  0  0  0  0  0  0  0
  -17.8259   13.6871  -24.5856 C   0  0  0  0  0  0  0  0  0  0  0  0
  -17.1962   13.6667  -25.7884 C   0  0  0  0  0  0  0  0  0  0  0  0
  -17.2529   12.4081  -27.0164 Cl  0  0  0  0  0  0  0  0  0  0  0  0
  -16.3461   15.1418  -25.8170 S   0  0  0  0  0  0  0  0  0  0  0  0
  -16.8083   15.7515  -24.3039 C   0  0  0  0  0  0  0  0  0  0  0  0
  -16.4894   17.0338  -23.6021 C   0  0  0  0  0  0  0  0  0  0  0  0
  -17.5879   17.3147  -22.6837 N   0  0  0  0  0  0  0  0  0  0  0  0
  -17.6620   16.2042  -21.7654 C   0  0  0  0  0  0  0  0  0  0  0  0
  -18.4980   16.5433  -20.5447 C   0  0  0  0  0  0  0  0  0  0  0  0
  -19.5213   15.4637  -20.2254 C   0  0  0  0  0  0  0  0  0  0  0  0
  -18.7426   11.2532  -17.6399 H   0  0  0  0  0  0  0  0  0  0  0  0
  -16.2753   10.2708  -21.5668 H   0  0  0  0  0  0  0  0  0  0  0  0
  -17.4007   18.2248  -22.2330 H   0  0  0  0  0  0  0  0  0  0  0  0
  1  2  1  0  0  0
  2  3  2  0  0  0
  3  4  1  0  0  0
  4  5  2  0  0  0
  5  6  1  0  0  0
  6  7  2  0  0  0
  7  8  1  0  0  0
  5  9  1  0  0  0
  9 10  1  0  0  0
 10 11  1  0  0  0
 11 12  2  0  0  0
 12 13  1  0  0  0
 12 14  1  0  0  0
 14 15  1  0  0  0
 15 16  1  0  0  0
 16 17  1  0  0  0
 17 18  1  0  0  0
 18 19  1  0  0  0
 19 20  1  0  0  0
  7  2  1  0  0  0
 18  9  1  0  0  0
 20  4  1  0  0  0
 15 10  2  0  0  0
  1 21  1  0  0  0
  8 22  1  0  0  0
 17 23  1  0  0  0
M  END
> <minimizedAffinity>
-8.11335

> <CNNscore>
0.4473890960

> <CNNaffinity>
6.0643115044

> <CNN_VS>
2.7131068707

> <CNNaffinity_variance>
0.3843674958

$$$$
[H]Oc1c([H])c2c(c([H])c1O[H])[C@]1([H])c3c(sc(Cl)c3[H])C([H])([H])N([H])[C@@]1([H])C([H])([H])C2([H])[H]


 23 26  0  0  0  0  0  0  0  0999 V2000
  -17.9245    9.0088  -17.5589 O   0  0  0  0  0  0  0  0  0  0  0  0
  -18.0123   10.2311  -18.1983 C   0  0  0  0  0  0  0  0  0  0  0  0
  -19.0188   11.0964  -17.8035 C   0  0  0  0  0  0  0  0  0  0  0  0
  -19.1174   12.3004  -18.4229 C   0  0  0  0  0  0  0  0  0  0  0  0
  -18.2172   12.6563  -19.4417 C   0  0  0  0  0  0  0  0  0  0  0  0
  -17.2297   11.7954  -19.8203 C   0  0  0  0  0  0  0  0  0  0  0  0
  -17.1163   10.5498  -19.1894 C   0  0  0  0  0  0  0  0  0  0  0  0
  -16.1343    9.6360  -19.5332 O   0  0  0  0  0  0  0  0  0  0  0  0
  -18.4920   13.9995  -19.9900 C   0  0  0  0  0  0  0  0  0  0  0  0
  -17.6962   14.3960  -21.1743 C   0  0  0  0  0  0  0  0  0  0  0  0
  -17.4848   13.6375  -22.2919 C   0  0  0  0  0  0  0  0  0  0  0  0
  -16.7268   14.1853  -23.2762 C   0  0  0  0  0  0  0  0  0  0  0  0
  -16.2776   13.4692  -24.8192 Cl  0  0  0  0  0  0  0  0  0  0  0  0
  -16.3206   15.7190  -22.6580 S   0  0  0  0  0  0  0  0  0  0  0  0
  -17.1212   15.6316  -21.1660 C   0  0  0  0  0  0  0  0  0  0  0  0
  -17.2605   16.6141  -20.0462 C   0  0  0  0  0  0  0  0  0  0  0  0
  -18.5010   16.3036  -19.3436 N   0  0  0  0  0  0  0  0  0  0  0  0
  -18.3813   14.9500  -18.8583 C   0  0  0  0  0  0  0  0  0  0  0  0
  -19.4263   14.6408  -17.8016 C   0  0  0  0  0  0  0  0  0  0  0  0
  -20.1435   13.3250  -18.0639 C   0  0  0  0  0  0  0  0  0  0  0  0
  -18.5667    8.7423  -16.8262 H   0  0  0  0  0  0  0  0  0  0  0  0
  -15.4468    9.7876  -20.2390 H   0  0  0  0  0  0  0  0  0  0  0  0
  -18.6312   17.0095  -18.6011 H   0  0  0  0  0  0  0  0  0  0  0  0
  1  2  1  0  0  0
  2  3  2  0  0  0
  3  4  1  0  0  0
  4  5  2  0  0  0
  5  6  1  0  0  0
  6  7  2  0  0  0
  7  8  1  0  0  0
  5  9  1  0  0  0
  9 10  1  0  0  0
 10 11  1  0  0  0
 11 12  2  0  0  0
 12 13  1  0  0  0
 12 14  1  0  0  0
 14 15  1  0  0  0
 15 16  1  0  0  0
 16 17  1  0  0  0
 17 18  1  0  0  0
 18 19  1  0  0  0
 19 20  1  0  0  0
  7  2  1  0  0  0
 18  9  1  0  0  0
 20  4  1  0  0  0
 15 10  2  0  0  0
  1 21  1  0  0  0
  8 22  1  0  0  0
 17 23  1  0  0  0
M  END
> <minimizedAffinity>
-8.78707

> <CNNscore>
0.4370396137

> <CNNaffinity>
5.8368382454

> <CNN_VS>
2.5509295464

> <CNNaffinity_variance>
0.1042485684

$$$$
[H]Oc1c([H])c2c(c([H])c1O[H])[C@]1([H])c3c(sc(Cl)c3[H])C([H])([H])N([H])[C@@]1([H])C([H])([H])C2([H])[H]


 23 26  0  0  0  0  0  0  0  0999 V2000
  -16.5898   14.0832  -28.1603 O   0  0  0  0  0  0  0  0  0  0  0  0
  -16.8044   14.2108  -26.8007 C   0  0  0  0  0  0  0  0  0  0  0  0
  -16.5686   15.4468  -26.2224 C   0  0  0  0  0  0  0  0  0  0  0  0
  -16.7747   15.5870  -24.8878 C   0  0  0  0  0  0  0  0  0  0  0  0
  -17.2165   14.4999  -24.1145 C   0  0  0  0  0  0  0  0  0  0  0  0
  -17.4462   13.2883  -24.6966 C   0  0  0  0  0  0  0  0  0  0  0  0
  -17.2377   13.1297  -26.0728 C   0  0  0  0  0  0  0  0  0  0  0  0
  -17.4538   11.9231  -26.7168 O   0  0  0  0  0  0  0  0  0  0  0  0
  -17.3766   14.8528  -22.6896 C   0  0  0  0  0  0  0  0  0  0  0  0
  -17.6850   13.7328  -21.7710 C   0  0  0  0  0  0  0  0  0  0  0  0
  -17.0397   12.5284  -21.7260 C   0  0  0  0  0  0  0  0  0  0  0  0
  -17.4707   11.6306  -20.8032 C   0  0  0  0  0  0  0  0  0  0  0  0
  -16.8532   10.0111  -20.5007 Cl  0  0  0  0  0  0  0  0  0  0  0  0
  -18.7427   12.4466  -20.0186 S   0  0  0  0  0  0  0  0  0  0  0  0
  -18.6993   13.9078  -20.8776 C   0  0  0  0  0  0  0  0  0  0  0  0
  -19.5034   15.1636  -20.7567 C   0  0  0  0  0  0  0  0  0  0  0  0
  -18.6815   16.2595  -21.2595 N   0  0  0  0  0  0  0  0  0  0  0  0
  -18.3681   15.9528  -22.6342 C   0  0  0  0  0  0  0  0  0  0  0  0
  -17.8494   17.1724  -23.3744 C   0  0  0  0  0  0  0  0  0  0  0  0
  -16.5803   16.8767  -24.1597 C   0  0  0  0  0  0  0  0  0  0  0  0
  -16.2716   14.8574  -28.7255 H   0  0  0  0  0  0  0  0  0  0  0  0
  -17.7672   11.0919  -26.2643 H   0  0  0  0  0  0  0  0  0  0  0  0
  -19.2095   17.1377  -21.1315 H   0  0  0  0  0  0  0  0  0  0  0  0
  1  2  1  0  0  0
  2  3  2  0  0  0
  3  4  1  0  0  0
  4  5  2  0  0  0
  5  6  1  0  0  0
  6  7  2  0  0  0
  7  8  1  0  0  0
  5  9  1  0  0  0
  9 10  1  0  0  0
 10 11  1  0  0  0
 11 12  2  0  0  0
 12 13  1  0  0  0
 12 14  1  0  0  0
 14 15  1  0  0  0
 15 16  1  0  0  0
 16 17  1  0  0  0
 17 18  1  0  0  0
 18 19  1  0  0  0
 19 20  1  0  0  0
  7  2  1  0  0  0
 18  9  1  0  0  0
 20  4  1  0  0  0
 15 10  2  0  0  0
  1 21  1  0  0  0
  8 22  1  0  0  0
 17 23  1  0  0  0
M  END
> <minimizedAffinity>
-9.10976

> <CNNscore>
0.4258067310

> <CNNaffinity>
6.1253900528

> <CNN_VS>
2.6082322598

> <CNNaffinity_variance>
0.0692815930

$$$$
[H]Oc1c([H])c2c(c([H])c1O[H])[C@]1([H])c3c(sc(Cl)c3[H])C([H])([H])N([H])[C@@]1([H])C([H])([H])C2([H])[H]


 23 26  0  0  0  0  0  0  0  0999 V2000
  -18.5976   18.6040  -20.2094 O   0  0  0  0  0  0  0  0  0  0  0  0
  -18.3144   17.3319  -20.6702 C   0  0  0  0  0  0  0  0  0  0  0  0
  -18.5091   17.0739  -22.0167 C   0  0  0  0  0  0  0  0  0  0  0  0
  -18.2355   15.8288  -22.4835 C   0  0  0  0  0  0  0  0  0  0  0  0
  -17.7664   14.8272  -21.6164 C   0  0  0  0  0  0  0  0  0  0  0  0
  -17.5777   15.0948  -20.2926 C   0  0  0  0  0  0  0  0  0  0  0  0
  -17.8560   16.3754  -19.7976 C   0  0  0  0  0  0  0  0  0  0  0  0
  -17.6840   16.7034  -18.4634 O   0  0  0  0  0  0  0  0  0  0  0  0
  -17.5321   13.5463  -22.3127 C   0  0  0  0  0  0  0  0  0  0  0  0
  -17.1893   12.3900  -21.4533 C   0  0  0  0  0  0  0  0  0  0  0  0
  -17.8432   12.0132  -20.3134 C   0  0  0  0  0  0  0  0  0  0  0  0
  -17.3756   10.9144  -19.6673 C   0  0  0  0  0  0  0  0  0  0  0  0
  -17.9931   10.1853  -18.1899 Cl  0  0  0  0  0  0  0  0  0  0  0  0
  -16.0583   10.4200  -20.6263 S   0  0  0  0  0  0  0  0  0  0  0  0
  -16.1301   11.6169  -21.8250 C   0  0  0  0  0  0  0  0  0  0  0  0
  -15.3088   11.8537  -23.0529 C   0  0  0  0  0  0  0  0  0  0  0  0
  -16.1440   12.5785  -24.0048 N   0  0  0  0  0  0  0  0  0  0  0  0
  -16.5284   13.8156  -23.3693 C   0  0  0  0  0  0  0  0  0  0  0  0
  -17.0714   14.8151  -24.3746 C   0  0  0  0  0  0  0  0  0  0  0  0
  -18.3808   15.4415  -23.9189 C   0  0  0  0  0  0  0  0  0  0  0  0
  -18.9360   19.3312  -20.8234 H   0  0  0  0  0  0  0  0  0  0  0  0
  -17.3565   16.0706  -17.7660 H   0  0  0  0  0  0  0  0  0  0  0  0
  -15.6017   12.7005  -24.8752 H   0  0  0  0  0  0  0  0  0  0  0  0
  1  2  1  0  0  0
  2  3  2  0  0  0
  3  4  1  0  0  0
  4  5  2  0  0  0
  5  6  1  0  0  0
  6  7  2  0  0  0
  7  8  1  0  0  0
  5  9  1  0  0  0
  9 10  1  0  0  0
 10 11  1  0  0  0
 11 12  2  0  0  0
 12 13  1  0  0  0
 12 14  1  0  0  0
 14 15  1  0  0  0
 15 16  1  0  0  0
 16 17  1  0  0  0
 17 18  1  0  0  0
 18 19  1  0  0  0
 19 20  1  0  0  0
  7  2  1  0  0  0
 18  9  1  0  0  0
 20  4  1  0  0  0
 15 10  2  0  0  0
  1 21  1  0  0  0
  8 22  1  0  0  0
 17 23  1  0  0  0
M  END
> <minimizedAffinity>
-8.03736

> <CNNscore>
0.4151252210

> <CNNaffinity>
6.2186818123

> <CNN_VS>
2.5815317631

> <CNNaffinity_variance>
0.1079522595

$$$$
[H]Oc1c([H])c2c(c([H])c1O[H])[C@]1([H])c3c(sc(Cl)c3[H])C([H])([H])N([H])[C@@]1([H])C([H])([H])C2([H])[H]


 23 26  0  0  0  0  0  0  0  0999 V2000
  -18.2475   10.2195  -18.1735 O   0  0  0  0  0  0  0  0  0  0  0  0
  -18.1660   11.4693  -18.7584 C   0  0  0  0  0  0  0  0  0  0  0  0
  -18.8120   12.5206  -18.1298 C   0  0  0  0  0  0  0  0  0  0  0  0
  -18.7409   13.7538  -18.6930 C   0  0  0  0  0  0  0  0  0  0  0  0
  -18.0277   13.9544  -19.8872 C   0  0  0  0  0  0  0  0  0  0  0  0
  -17.3950   12.9108  -20.4956 C   0  0  0  0  0  0  0  0  0  0  0  0
  -17.4600   11.6330  -19.9252 C   0  0  0  0  0  0  0  0  0  0  0  0
  -16.8380   10.5370  -20.4990 O   0  0  0  0  0  0  0  0  0  0  0  0
  -18.0723   15.3597  -20.3385 C   0  0  0  0  0  0  0  0  0  0  0  0
  -17.4840   15.6364  -21.6691 C   0  0  0  0  0  0  0  0  0  0  0  0
  -17.7203   14.9303  -22.8157 C   0  0  0  0  0  0  0  0  0  0  0  0
  -17.0857   15.3485  -23.9408 C   0  0  0  0  0  0  0  0  0  0  0  0
  -17.1810   14.6564  -25.5556 Cl  0  0  0  0  0  0  0  0  0  0  0  0
  -16.1836   16.6923  -23.4121 S   0  0  0  0  0  0  0  0  0  0  0  0
  -16.6314   16.6943  -21.7768 C   0  0  0  0  0  0  0  0  0  0  0  0
  -16.2706   17.5998  -20.6418 C   0  0  0  0  0  0  0  0  0  0  0  0
  -17.3631   17.5470  -19.6758 N   0  0  0  0  0  0  0  0  0  0  0  0
  -17.4812   16.1735  -19.2501 C   0  0  0  0  0  0  0  0  0  0  0  0
  -18.3108   16.0500  -17.9848 C   0  0  0  0  0  0  0  0  0  0  0  0
  -19.3735   14.9666  -18.0926 C   0  0  0  0  0  0  0  0  0  0  0  0
  -18.7581   10.0638  -17.3159 H   0  0  0  0  0  0  0  0  0  0  0  0
  -16.3075   10.5688  -21.3425 H   0  0  0  0  0  0  0  0  0  0  0  0
  -17.1459   18.2092  -18.9137 H   0  0  0  0  0  0  0  0  0  0  0  0
  1  2  1  0  0  0
  2  3  2  0  0  0
  3  4  1  0  0  0
  4  5  2  0  0  0
  5  6  1  0  0  0
  6  7  2  0  0  0
  7  8  1  0  0  0
  5  9  1  0  0  0
  9 10  1  0  0  0
 10 11  1  0  0  0
 11 12  2  0  0  0
 12 13  1  0  0  0
 12 14  1  0  0  0
 14 15  1  0  0  0
 15 16  1  0  0  0
 16 17  1  0  0  0
 17 18  1  0  0  0
 18 19  1  0  0  0
 19 20  1  0  0  0
  7  2  1  0  0  0
 18  9  1  0  0  0
 20  4  1  0  0  0
 15 10  2  0  0  0
  1 21  1  0  0  0
  8 22  1  0  0  0
 17 23  1  0  0  0
M  END
> <minimizedAffinity>
-7.68876

> <CNNscore>
0.3313637674

> <CNNaffinity>
5.7408146858

> <CNN_VS>
1.9022979736

> <CNNaffinity_variance>
0.2071963847

$$$$
[H]Oc1c([H])c2c(c([H])c1O[H])[C@]1([H])c3c(sc(Cl)c3[H])C([H])([H])N([H])[C@@]1([H])C([H])([H])C2([H])[H]


 23 26  0  0  0  0  0  0  0  0999 V2000
  -15.6658   14.8178  -26.5460 O   0  0  0  0  0  0  0  0  0  0  0  0
  -16.0737   14.8019  -25.2254 C   0  0  0  0  0  0  0  0  0  0  0  0
  -15.8910   15.9536  -24.4786 C   0  0  0  0  0  0  0  0  0  0  0  0
  -16.2866   15.9526  -23.1798 C   0  0  0  0  0  0  0  0  0  0  0  0
  -16.8669   14.8065  -22.6101 C   0  0  0  0  0  0  0  0  0  0  0  0
  -17.0423   13.6791  -23.3569 C   0  0  0  0  0  0  0  0  0  0  0  0
  -16.6388   13.6664  -24.6984 C   0  0  0  0  0  0  0  0  0  0  0  0
  -16.7915   12.5502  -25.5035 O   0  0  0  0  0  0  0  0  0  0  0  0
  -17.2244   15.0045  -21.1911 C   0  0  0  0  0  0  0  0  0  0  0  0
  -17.6950   13.8036  -20.4634 C   0  0  0  0  0  0  0  0  0  0  0  0
  -17.0969   12.5742  -20.4684 C   0  0  0  0  0  0  0  0  0  0  0  0
  -17.6833   11.5988  -19.7280 C   0  0  0  0  0  0  0  0  0  0  0  0
  -17.1619    9.9298  -19.5326 Cl  0  0  0  0  0  0  0  0  0  0  0  0
  -19.0334   12.3775  -19.0424 S   0  0  0  0  0  0  0  0  0  0  0  0
  -18.8240   13.9223  -19.7093 C   0  0  0  0  0  0  0  0  0  0  0  0
  -19.6021   15.1912  -19.5578 C   0  0  0  0  0  0  0  0  0  0  0  0
  -18.6852   16.2988  -19.8065 N   0  0  0  0  0  0  0  0  0  0  0  0
  -18.1823   16.1344  -21.1489 C   0  0  0  0  0  0  0  0  0  0  0  0
  -17.5272   17.4049  -21.6597 C   0  0  0  0  0  0  0  0  0  0  0  0
  -16.1654   17.1429  -22.2854 C   0  0  0  0  0  0  0  0  0  0  0  0
  -15.2468   15.6355  -26.9655 H   0  0  0  0  0  0  0  0  0  0  0  0
  -17.1908   11.6884  -25.2008 H   0  0  0  0  0  0  0  0  0  0  0  0
  -19.2018   17.1798  -19.6530 H   0  0  0  0  0  0  0  0  0  0  0  0
  1  2  1  0  0  0
  2  3  2  0  0  0
  3  4  1  0  0  0
  4  5  2  0  0  0
  5  6  1  0  0  0
  6  7  2  0  0  0
  7  8  1  0  0  0
  5  9  1  0  0  0
  9 10  1  0  0  0
 10 11  1  0  0  0
 11 12  2  0  0  0
 12 13  1  0  0  0
 12 14  1  0  0  0
 14 15  1  0  0  0
 15 16  1  0  0  0
 16 17  1  0  0  0
 17 18  1  0  0  0
 18 19  1  0  0  0
 19 20  1  0  0  0
  7  2  1  0  0  0
 18  9  1  0  0  0
 20  4  1  0  0  0
 15 10  2  0  0  0
  1 21  1  0  0  0
  8 22  1  0  0  0
 17 23  1  0  0  0
M  END
> <minimizedAffinity>
-7.76774

> <CNNscore>
0.3206411004

> <CNNaffinity>
5.8982419968

> <CNN_VS>
1.8912187815

> <CNNaffinity_variance>
0.0527727976

$$$$
[H]Oc1c([H])c2c(c([H])c1O[H])[C@]1([H])c3c(sc(Cl)c3[H])C([H])([H])N([H])[C@@]1([H])C([H])([H])C2([H])[H]


 23 26  0  0  0  0  0  0  0  0999 V2000
  -19.0707   14.3866  -21.5987 O   0  0  0  0  0  0  0  0  0  0  0  0
  -19.4367   15.3688  -20.6975 C   0  0  0  0  0  0  0  0  0  0  0  0
  -18.6876   16.5331  -20.6708 C   0  0  0  0  0  0  0  0  0  0  0  0
  -19.0351   17.5065  -19.7905 C   0  0  0  0  0  0  0  0  0  0  0  0
  -20.1302   17.3321  -18.9272 C   0  0  0  0  0  0  0  0  0  0  0  0
  -20.8605   16.1810  -18.9645 C   0  0  0  0  0  0  0  0  0  0  0  0
  -20.5130   15.1684  -19.8681 C   0  0  0  0  0  0  0  0  0  0  0  0
  -21.2177   13.9792  -19.9492 O   0  0  0  0  0  0  0  0  0  0  0  0
  -20.3427   18.4984  -18.0470 C   0  0  0  0  0  0  0  0  0  0  0  0
  -21.3737   18.3427  -16.9953 C   0  0  0  0  0  0  0  0  0  0  0  0
  -21.5011   17.2797  -16.1450 C   0  0  0  0  0  0  0  0  0  0  0  0
  -22.5139   17.3287  -15.2421 C   0  0  0  0  0  0  0  0  0  0  0  0
  -22.9366   16.1291  -14.0265 Cl  0  0  0  0  0  0  0  0  0  0  0  0
  -23.2678   18.8196  -15.5710 S   0  0  0  0  0  0  0  0  0  0  0  0
  -22.2820   19.3477  -16.8454 C   0  0  0  0  0  0  0  0  0  0  0  0
  -22.2888   20.6010  -17.6624 C   0  0  0  0  0  0  0  0  0  0  0  0
  -20.9284   20.8167  -18.1440 N   0  0  0  0  0  0  0  0  0  0  0  0
  -20.5747   19.6625  -18.9344 C   0  0  0  0  0  0  0  0  0  0  0  0
  -19.3515   19.9270  -19.7934 C   0  0  0  0  0  0  0  0  0  0  0  0
  -18.3195   18.8139  -19.6899 C   0  0  0  0  0  0  0  0  0  0  0  0
  -18.2850   14.5010  -22.2231 H   0  0  0  0  0  0  0  0  0  0  0  0
  -22.0086   13.7542  -19.3857 H   0  0  0  0  0  0  0  0  0  0  0  0
  -20.9133   21.7078  -18.6657 H   0  0  0  0  0  0  0  0  0  0  0  0
  1  2  1  0  0  0
  2  3  2  0  0  0
  3  4  1  0  0  0
  4  5  2  0  0  0
  5  6  1  0  0  0
  6  7  2  0  0  0
  7  8  1  0  0  0
  5  9  1  0  0  0
  9 10  1  0  0  0
 10 11  1  0  0  0
 11 12  2  0  0  0
 12 13  1  0  0  0
 12 14  1  0  0  0
 14 15  1  0  0  0
 15 16  1  0  0  0
 16 17  1  0  0  0
 17 18  1  0  0  0
 18 19  1  0  0  0
 19 20  1  0  0  0
  7  2  1  0  0  0
 18  9  1  0  0  0
 20  4  1  0  0  0
 15 10  2  0  0  0
  1 21  1  0  0  0
  8 22  1  0  0  0
 17 23  1  0  0  0
M  END
> <minimizedAffinity>
-3.95851

> <CNNscore>
0.2820931375

> <CNNaffinity>
4.8826899529

> <CNN_VS>
1.3773733377

> <CNNaffinity_variance>
1.1072890759

$$$$
[H]c1c(-c2c([H])c([H])c([H])c(C([H])([H])n3nc(-c4c([H])c(F)c([H])c(F)c4[H])c([H])c([H])c3=O)c2[H])nnc(C([H])([H])[H])c1[H]


 29 32  0  0  0  0  0  0  0  0999 V2000
  -16.5514   11.6494  -21.4124 N   0  0  0  0  0  0  0  0  0  0  0  0
  -17.5657   12.3469  -20.9090 N   0  0  0  0  0  0  0  0  0  0  0  0
  -18.1994   12.0438  -19.7591 C   0  0  0  0  0  0  0  0  0  0  0  0
  -17.7725   10.9374  -19.0527 C   0  0  0  0  0  0  0  0  0  0  0  0
  -16.7204   10.1856  -19.5432 C   0  0  0  0  0  0  0  0  0  0  0  0
  -16.1216   10.5701  -20.7405 C   0  0  0  0  0  0  0  0  0  0  0  0
  -15.1728    9.9362  -21.2342 O   0  0  0  0  0  0  0  0  0  0  0  0
  -19.3105   12.8853  -19.2950 C   0  0  0  0  0  0  0  0  0  0  0  0
  -19.9985   13.7634  -20.0836 C   0  0  0  0  0  0  0  0  0  0  0  0
  -21.0454   14.5345  -19.5802 C   0  0  0  0  0  0  0  0  0  0  0  0
  -21.7090   15.3931  -20.3761 F   0  0  0  0  0  0  0  0  0  0  0  0
  -21.4251   14.4374  -18.2621 C   0  0  0  0  0  0  0  0  0  0  0  0
  -20.7372   13.5546  -17.4591 C   0  0  0  0  0  0  0  0  0  0  0  0
  -21.1080   13.4564  -16.1618 F   0  0  0  0  0  0  0  0  0  0  0  0
  -19.7039   12.7984  -17.9707 C   0  0  0  0  0  0  0  0  0  0  0  0
  -15.9841   12.1090  -22.6415 C   0  0  0  0  0  0  0  0  0  0  0  0
  -17.8598   15.1762  -23.7128 C   0  0  0  0  0  0  0  0  0  0  0  0
  -18.2839   14.7287  -24.9531 C   0  0  0  0  0  0  0  0  0  0  0  0
  -17.9868   13.4839  -25.4429 C   0  0  0  0  0  0  0  0  0  0  0  0
  -17.2341   12.6236  -24.6846 C   0  0  0  0  0  0  0  0  0  0  0  0
  -16.7879   13.0116  -23.4524 C   0  0  0  0  0  0  0  0  0  0  0  0
  -17.1065   14.2680  -22.9952 C   0  0  0  0  0  0  0  0  0  0  0  0
  -19.1028   20.5455  -22.2605 C   0  0  0  0  0  0  0  0  0  0  0  0
  -18.7938   19.1089  -22.5926 C   0  0  0  0  0  0  0  0  0  0  0  0
  -19.0495   18.1000  -21.6912 C   0  0  0  0  0  0  0  0  0  0  0  0
  -18.7548   16.7744  -22.0205 C   0  0  0  0  0  0  0  0  0  0  0  0
  -18.2096   16.5080  -23.2528 C   0  0  0  0  0  0  0  0  0  0  0  0
  -17.9888   17.5394  -24.0767 N   0  0  0  0  0  0  0  0  0  0  0  0
  -18.2647   18.7910  -23.7716 N   0  0  0  0  0  0  0  0  0  0  0  0
 23 24  1  0  0  0
 24 25  2  0  0  0
 25 26  1  0  0  0
 26 27  2  0  0  0
 27 17  1  0  0  0
 17 18  2  0  0  0
 18 19  1  0  0  0
 19 20  2  0  0  0
 20 21  1  0  0  0
 21 16  1  0  0  0
 16  1  1  0  0  0
  1  2  1  0  0  0
  2  3  2  0  0  0
  3  8  1  0  0  0
  8  9  2  0  0  0
  9 10  1  0  0  0
 10 11  1  0  0  0
 10 12  2  0  0  0
 12 13  1  0  0  0
 13 14  1  0  0  0
 13 15  2  0  0  0
  3  4  1  0  0  0
  4  5  2  0  0  0
  5  6  1  0  0  0
  6  7  2  0  0  0
 21 22  2  0  0  0
 27 28  1  0  0  0
 28 29  2  0  0  0
 29 24  1  0  0  0
 22 17  1  0  0  0
  6  1  1  0  0  0
 15  8  1  0  0  0
M  END
> <minimizedAffinity>
-9.76597

> <CNNscore>
0.7280336022

> <CNNaffinity>
7.3170371056

> <CNN_VS>
5.3270487785

> <CNNaffinity_variance>
0.3433638215

$$$$
[H]c1c(-c2c([H])c([H])c([H])c(C([H])([H])n3nc(-c4c([H])c(F)c([H])c(F)c4[H])c([H])c([H])c3=O)c2[H])nnc(C([H])([H])[H])c1[H]


 29 32  0  0  0  0  0  0  0  0999 V2000
  -16.5880   11.6013  -21.5429 N   0  0  0  0  0  0  0  0  0  0  0  0
  -17.6014   12.3093  -21.0525 N   0  0  0  0  0  0  0  0  0  0  0  0
  -18.1642   12.0956  -19.8470 C   0  0  0  0  0  0  0  0  0  0  0  0
  -17.6602   11.0759  -19.0649 C   0  0  0  0  0  0  0  0  0  0  0  0
  -16.6064   10.3164  -19.5394 C   0  0  0  0  0  0  0  0  0  0  0  0
  -16.0840   10.6053  -20.7978 C   0  0  0  0  0  0  0  0  0  0  0  0
  -15.1379    9.9595  -21.2809 O   0  0  0  0  0  0  0  0  0  0  0  0
  -19.2816   12.9400  -19.4038 C   0  0  0  0  0  0  0  0  0  0  0  0
  -19.9194   13.8562  -20.1912 C   0  0  0  0  0  0  0  0  0  0  0  0
  -20.9757   14.6277  -19.7084 C   0  0  0  0  0  0  0  0  0  0  0  0
  -21.5892   15.5242  -20.5027 F   0  0  0  0  0  0  0  0  0  0  0  0
  -21.4159   14.4924  -18.4127 C   0  0  0  0  0  0  0  0  0  0  0  0
  -20.7788   13.5711  -17.6110 C   0  0  0  0  0  0  0  0  0  0  0  0
  -21.2092   13.4353  -16.3357 F   0  0  0  0  0  0  0  0  0  0  0  0
  -19.7356   12.8150  -18.1021 C   0  0  0  0  0  0  0  0  0  0  0  0
  -16.1016   11.9609  -22.8382 C   0  0  0  0  0  0  0  0  0  0  0  0
  -17.0855   15.5699  -23.1224 C   0  0  0  0  0  0  0  0  0  0  0  0
  -15.9364   16.0433  -23.7338 C   0  0  0  0  0  0  0  0  0  0  0  0
  -14.8718   15.2415  -24.0525 C   0  0  0  0  0  0  0  0  0  0  0  0
  -14.9261   13.9022  -23.7607 C   0  0  0  0  0  0  0  0  0  0  0  0
  -16.0353   13.3794  -23.1572 C   0  0  0  0  0  0  0  0  0  0  0  0
  -17.0830   14.2154  -22.8530 C   0  0  0  0  0  0  0  0  0  0  0  0
  -21.2478   19.1180  -21.5196 C   0  0  0  0  0  0  0  0  0  0  0  0
  -20.1684   18.1821  -21.9974 C   0  0  0  0  0  0  0  0  0  0  0  0
  -20.0967   17.7938  -23.3164 C   0  0  0  0  0  0  0  0  0  0  0  0
  -19.0868   16.9247  -23.7375 C   0  0  0  0  0  0  0  0  0  0  0  0
  -18.1783   16.4736  -22.8113 C   0  0  0  0  0  0  0  0  0  0  0  0
  -18.3105   16.8936  -21.5474 N   0  0  0  0  0  0  0  0  0  0  0  0
  -19.2606   17.7128  -21.1448 N   0  0  0  0  0  0  0  0  0  0  0  0
 23 24  1  0  0  0
 24 25  2  0  0  0
 25 26  1  0  0  0
 26 27  2  0  0  0
 27 17  1  0  0  0
 17 18  2  0  0  0
 18 19  1  0  0  0
 19 20  2  0  0  0
 20 21  1  0  0  0
 21 16  1  0  0  0
 16  1  1  0  0  0
  1  2  1  0  0  0
  2  3  2  0  0  0
  3  8  1  0  0  0
  8  9  2  0  0  0
  9 10  1  0  0  0
 10 11  1  0  0  0
 10 12  2  0  0  0
 12 13  1  0  0  0
 13 14  1  0  0  0
 13 15  2  0  0  0
  3  4  1  0  0  0
  4  5  2  0  0  0
  5  6  1  0  0  0
  6  7  2  0  0  0
 21 22  2  0  0  0
 27 28  1  0  0  0
 28 29  2  0  0  0
 29 24  1  0  0  0
 22 17  1  0  0  0
  6  1  1  0  0  0
 15  8  1  0  0  0
M  END
> <minimizedAffinity>
-9.35119

> <CNNscore>
0.7069898844

> <CNNaffinity>
7.1691923141

> <CNN_VS>
5.0685462952

> <CNNaffinity_variance>
0.2085062563

$$$$
[H]c1c(-c2c([H])c([H])c([H])c(C([H])([H])n3nc(-c4c([H])c(F)c([H])c(F)c4[H])c([H])c([H])c3=O)c2[H])nnc(C([H])([H])[H])c1[H]


 29 32  0  0  0  0  0  0  0  0999 V2000
  -16.5360   11.6511  -21.4226 N   0  0  0  0  0  0  0  0  0  0  0  0
  -17.5425   12.3377  -20.8893 N   0  0  0  0  0  0  0  0  0  0  0  0
  -18.1681   12.0024  -19.7439 C   0  0  0  0  0  0  0  0  0  0  0  0
  -17.7410   10.8726  -19.0756 C   0  0  0  0  0  0  0  0  0  0  0  0
  -16.6969   10.1312  -19.5980 C   0  0  0  0  0  0  0  0  0  0  0  0
  -16.1062   10.5495  -20.7880 C   0  0  0  0  0  0  0  0  0  0  0  0
  -15.1649    9.9266  -21.3090 O   0  0  0  0  0  0  0  0  0  0  0  0
  -19.2709   12.8345  -19.2446 C   0  0  0  0  0  0  0  0  0  0  0  0
  -19.7932   12.7531  -17.9849 C   0  0  0  0  0  0  0  0  0  0  0  0
  -20.8423   13.5739  -17.5726 C   0  0  0  0  0  0  0  0  0  0  0  0
  -21.3406   13.4759  -16.3264 F   0  0  0  0  0  0  0  0  0  0  0  0
  -21.3923   14.5011  -18.4262 C   0  0  0  0  0  0  0  0  0  0  0  0
  -20.8723   14.5905  -19.6986 C   0  0  0  0  0  0  0  0  0  0  0  0
  -21.4109   15.5017  -20.5411 F   0  0  0  0  0  0  0  0  0  0  0  0
  -19.8346   13.7723  -20.0924 C   0  0  0  0  0  0  0  0  0  0  0  0
  -15.9768   12.1457  -22.6418 C   0  0  0  0  0  0  0  0  0  0  0  0
  -17.8422   15.2417  -23.6460 C   0  0  0  0  0  0  0  0  0  0  0  0
  -18.3025   14.8075  -24.8781 C   0  0  0  0  0  0  0  0  0  0  0  0
  -18.0325   13.5626  -25.3832 C   0  0  0  0  0  0  0  0  0  0  0  0
  -17.2713   12.6885  -24.6495 C   0  0  0  0  0  0  0  0  0  0  0  0
  -16.7898   13.0630  -23.4265 C   0  0  0  0  0  0  0  0  0  0  0  0
  -17.0820   14.3199  -22.9533 C   0  0  0  0  0  0  0  0  0  0  0  0
  -19.0225   20.6106  -22.1412 C   0  0  0  0  0  0  0  0  0  0  0  0
  -18.7235   19.1747  -22.4850 C   0  0  0  0  0  0  0  0  0  0  0  0
  -18.8519   18.1770  -21.5449 C   0  0  0  0  0  0  0  0  0  0  0  0
  -18.5692   16.8518  -21.8859 C   0  0  0  0  0  0  0  0  0  0  0  0
  -18.1646   16.5743  -23.1688 C   0  0  0  0  0  0  0  0  0  0  0  0
  -18.0624   17.5951  -24.0284 N   0  0  0  0  0  0  0  0  0  0  0  0
  -18.3276   18.8464  -23.7124 N   0  0  0  0  0  0  0  0  0  0  0  0
 23 24  1  0  0  0
 24 25  2  0  0  0
 25 26  1  0  0  0
 26 27  2  0  0  0
 27 17  1  0  0  0
 17 18  2  0  0  0
 18 19  1  0  0  0
 19 20  2  0  0  0
 20 21  1  0  0  0
 21 16  1  0  0  0
 16  1  1  0  0  0
  1  2  1  0  0  0
  2  3  2  0  0  0
  3  8  1  0  0  0
  8  9  2  0  0  0
  9 10  1  0  0  0
 10 11  1  0  0  0
 10 12  2  0  0  0
 12 13  1  0  0  0
 13 14  1  0  0  0
 13 15  2  0  0  0
  3  4  1  0  0  0
  4  5  2  0  0  0
  5  6  1  0  0  0
  6  7  2  0  0  0
 21 22  2  0  0  0
 27 28  1  0  0  0
 28 29  2  0  0  0
 29 24  1  0  0  0
 22 17  1  0  0  0
  6  1  1  0  0  0
 15  8  1  0  0  0
M  END
> <minimizedAffinity>
-9.73655

> <CNNscore>
0.7069278955

> <CNNaffinity>
7.2956018448

> <CNN_VS>
5.1574645042

> <CNNaffinity_variance>
0.3517776728

$$$$
[H]c1c(-c2c([H])c([H])c([H])c(C([H])([H])n3nc(-c4c([H])c(F)c([H])c(F)c4[H])c([H])c([H])c3=O)c2[H])nnc(C([H])([H])[H])c1[H]


 29 32  0  0  0  0  0  0  0  0999 V2000
  -17.0007   11.2632  -20.1523 N   0  0  0  0  0  0  0  0  0  0  0  0
  -17.6209   12.4176  -20.3794 N   0  0  0  0  0  0  0  0  0  0  0  0
  -17.4819   13.1461  -21.5045 C   0  0  0  0  0  0  0  0  0  0  0  0
  -16.6417   12.6680  -22.4898 C   0  0  0  0  0  0  0  0  0  0  0  0
  -15.9782   11.4709  -22.2916 C   0  0  0  0  0  0  0  0  0  0  0  0
  -16.1794   10.7817  -21.0982 C   0  0  0  0  0  0  0  0  0  0  0  0
  -15.6122    9.7014  -20.8592 O   0  0  0  0  0  0  0  0  0  0  0  0
  -18.2164   14.4099  -21.6505 C   0  0  0  0  0  0  0  0  0  0  0  0
  -19.0517   14.9336  -20.7048 C   0  0  0  0  0  0  0  0  0  0  0  0
  -19.7205   16.1404  -20.9059 C   0  0  0  0  0  0  0  0  0  0  0  0
  -20.5385   16.6370  -19.9597 F   0  0  0  0  0  0  0  0  0  0  0  0
  -19.5617   16.8511  -22.0723 C   0  0  0  0  0  0  0  0  0  0  0  0
  -18.7216   16.3309  -23.0319 C   0  0  0  0  0  0  0  0  0  0  0  0
  -18.5629   17.0275  -24.1807 F   0  0  0  0  0  0  0  0  0  0  0  0
  -18.0666   15.1363  -22.8192 C   0  0  0  0  0  0  0  0  0  0  0  0
  -17.2622   10.6111  -18.9073 C   0  0  0  0  0  0  0  0  0  0  0  0
  -19.4832   13.0901  -17.1768 C   0  0  0  0  0  0  0  0  0  0  0  0
  -20.3318   12.1941  -16.5480 C   0  0  0  0  0  0  0  0  0  0  0  0
  -20.2067   10.8345  -16.6648 C   0  0  0  0  0  0  0  0  0  0  0  0
  -19.1990   10.3146  -17.4370 C   0  0  0  0  0  0  0  0  0  0  0  0
  -18.3316   11.1515  -18.0812 C   0  0  0  0  0  0  0  0  0  0  0  0
  -18.4891   12.5095  -17.9398 C   0  0  0  0  0  0  0  0  0  0  0  0
  -19.8268   18.7499  -16.6006 C   0  0  0  0  0  0  0  0  0  0  0  0
  -19.7929   17.2505  -16.7421 C   0  0  0  0  0  0  0  0  0  0  0  0
  -20.9338   16.4957  -16.5864 C   0  0  0  0  0  0  0  0  0  0  0  0
  -20.8790   15.1060  -16.7221 C   0  0  0  0  0  0  0  0  0  0  0  0
  -19.6709   14.5202  -17.0114 C   0  0  0  0  0  0  0  0  0  0  0  0
  -18.6045   15.3174  -17.1486 N   0  0  0  0  0  0  0  0  0  0  0  0
  -18.6504   16.6280  -17.0218 N   0  0  0  0  0  0  0  0  0  0  0  0
 23 24  1  0  0  0
 24 25  2  0  0  0
 25 26  1  0  0  0
 26 27  2  0  0  0
 27 17  1  0  0  0
 17 18  2  0  0  0
 18 19  1  0  0  0
 19 20  2  0  0  0
 20 21  1  0  0  0
 21 16  1  0  0  0
 16  1  1  0  0  0
  1  2  1  0  0  0
  2  3  2  0  0  0
  3  8  1  0  0  0
  8  9  2  0  0  0
  9 10  1  0  0  0
 10 11  1  0  0  0
 10 12  2  0  0  0
 12 13  1  0  0  0
 13 14  1  0  0  0
 13 15  2  0  0  0
  3  4  1  0  0  0
  4  5  2  0  0  0
  5  6  1  0  0  0
  6  7  2  0  0  0
 21 22  2  0  0  0
 27 28  1  0  0  0
 28 29  2  0  0  0
 29 24  1  0  0  0
 22 17  1  0  0  0
  6  1  1  0  0  0
 15  8  1  0  0  0
M  END
> <minimizedAffinity>
-8.74571

> <CNNscore>
0.6274701357

> <CNNaffinity>
6.9215035439

> <CNN_VS>
4.3430366516

> <CNNaffinity_variance>
0.2098271102

$$$$
[H]c1c(-c2c([H])c([H])c([H])c(C([H])([H])n3nc(-c4c([H])c(F)c([H])c(F)c4[H])c([H])c([H])c3=O)c2[H])nnc(C([H])([H])[H])c1[H]


 29 32  0  0  0  0  0  0  0  0999 V2000
  -16.8751   11.5414  -20.1354 N   0  0  0  0  0  0  0  0  0  0  0  0
  -17.5515   12.6745  -20.3009 N   0  0  0  0  0  0  0  0  0  0  0  0
  -17.6460   13.3390  -21.4693 C   0  0  0  0  0  0  0  0  0  0  0  0
  -17.0001   12.8142  -22.5707 C   0  0  0  0  0  0  0  0  0  0  0  0
  -16.2859   11.6372  -22.4395 C   0  0  0  0  0  0  0  0  0  0  0  0
  -16.2402   11.0152  -21.1942 C   0  0  0  0  0  0  0  0  0  0  0  0
  -15.6151    9.9562  -21.0109 O   0  0  0  0  0  0  0  0  0  0  0  0
  -18.4213   14.5847  -21.5393 C   0  0  0  0  0  0  0  0  0  0  0  0
  -19.2625   15.0291  -20.5589 C   0  0  0  0  0  0  0  0  0  0  0  0
  -19.9711   16.2231  -20.6875 C   0  0  0  0  0  0  0  0  0  0  0  0
  -20.7941   16.6410  -19.7084 F   0  0  0  0  0  0  0  0  0  0  0  0
  -19.8471   17.0011  -21.8146 C   0  0  0  0  0  0  0  0  0  0  0  0
  -19.0012   16.5612  -22.8087 C   0  0  0  0  0  0  0  0  0  0  0  0
  -18.8767   17.3240  -23.9190 F   0  0  0  0  0  0  0  0  0  0  0  0
  -18.3068   15.3783  -22.6676 C   0  0  0  0  0  0  0  0  0  0  0  0
  -16.8794   10.9586  -18.8300 C   0  0  0  0  0  0  0  0  0  0  0  0
  -19.7572    9.9092  -16.6642 C   0  0  0  0  0  0  0  0  0  0  0  0
  -20.4394   11.1144  -16.6397 C   0  0  0  0  0  0  0  0  0  0  0  0
  -20.0030   12.2365  -17.2940 C   0  0  0  0  0  0  0  0  0  0  0  0
  -18.8365   12.1856  -18.0141 C   0  0  0  0  0  0  0  0  0  0  0  0
  -18.1212   11.0226  -18.0735 C   0  0  0  0  0  0  0  0  0  0  0  0
  -18.5910    9.9180  -17.4040 C   0  0  0  0  0  0  0  0  0  0  0  0
  -21.4391    5.2002  -13.9293 C   0  0  0  0  0  0  0  0  0  0  0  0
  -21.0458    6.4690  -14.6399 C   0  0  0  0  0  0  0  0  0  0  0  0
  -21.9088    7.5393  -14.7136 C   0  0  0  0  0  0  0  0  0  0  0  0
  -21.5229    8.7065  -15.3779 C   0  0  0  0  0  0  0  0  0  0  0  0
  -20.2746    8.7570  -15.9485 C   0  0  0  0  0  0  0  0  0  0  0  0
  -19.4902    7.6782  -15.8366 N   0  0  0  0  0  0  0  0  0  0  0  0
  -19.8488    6.5752  -15.2116 N   0  0  0  0  0  0  0  0  0  0  0  0
 23 24  1  0  0  0
 24 25  2  0  0  0
 25 26  1  0  0  0
 26 27  2  0  0  0
 27 17  1  0  0  0
 17 18  2  0  0  0
 18 19  1  0  0  0
 19 20  2  0  0  0
 20 21  1  0  0  0
 21 16  1  0  0  0
 16  1  1  0  0  0
  1  2  1  0  0  0
  2  3  2  0  0  0
  3  8  1  0  0  0
  8  9  2  0  0  0
  9 10  1  0  0  0
 10 11  1  0  0  0
 10 12  2  0  0  0
 12 13  1  0  0  0
 13 14  1  0  0  0
 13 15  2  0  0  0
  3  4  1  0  0  0
  4  5  2  0  0  0
  5  6  1  0  0  0
  6  7  2  0  0  0
 21 22  2  0  0  0
 27 28  1  0  0  0
 28 29  2  0  0  0
 29 24  1  0  0  0
 22 17  1  0  0  0
  6  1  1  0  0  0
 15  8  1  0  0  0
M  END
> <minimizedAffinity>
-8.84244

> <CNNscore>
0.6216003895

> <CNNaffinity>
6.6168656349

> <CNN_VS>
4.1130461693

> <CNNaffinity_variance>
0.2152788639

$$$$
[H]c1c(-c2c([H])c([H])c([H])c(C([H])([H])n3nc(-c4c([H])c(F)c([H])c(F)c4[H])c([H])c([H])c3=O)c2[H])nnc(C([H])([H])[H])c1[H]


 29 32  0  0  0  0  0  0  0  0999 V2000
  -17.3535   11.9017  -19.8208 N   0  0  0  0  0  0  0  0  0  0  0  0
  -17.4680   13.2259  -19.8662 N   0  0  0  0  0  0  0  0  0  0  0  0
  -17.5208   13.9453  -21.0044 C   0  0  0  0  0  0  0  0  0  0  0  0
  -17.4518   13.2688  -22.2057 C   0  0  0  0  0  0  0  0  0  0  0  0
  -17.3322   11.8910  -22.2009 C   0  0  0  0  0  0  0  0  0  0  0  0
  -17.2848   11.2257  -20.9782 C   0  0  0  0  0  0  0  0  0  0  0  0
  -17.1773    9.9892  -20.9065 O   0  0  0  0  0  0  0  0  0  0  0  0
  -17.6482   15.4072  -20.9379 C   0  0  0  0  0  0  0  0  0  0  0  0
  -16.6046   16.2673  -20.7444 C   0  0  0  0  0  0  0  0  0  0  0  0
  -16.7935   17.6477  -20.6911 C   0  0  0  0  0  0  0  0  0  0  0  0
  -15.7502   18.4758  -20.4996 F   0  0  0  0  0  0  0  0  0  0  0  0
  -18.0466   18.1961  -20.8325 C   0  0  0  0  0  0  0  0  0  0  0  0
  -19.1053   17.3367  -21.0280 C   0  0  0  0  0  0  0  0  0  0  0  0
  -20.3395   17.8726  -21.1675 F   0  0  0  0  0  0  0  0  0  0  0  0
  -18.9034   15.9736  -21.0785 C   0  0  0  0  0  0  0  0  0  0  0  0
  -17.3179   11.2893  -18.5295 C   0  0  0  0  0  0  0  0  0  0  0  0
  -20.1278    9.9110  -16.4612 C   0  0  0  0  0  0  0  0  0  0  0  0
  -20.9017   11.0573  -16.3853 C   0  0  0  0  0  0  0  0  0  0  0  0
  -20.5469   12.2420  -16.9756 C   0  0  0  0  0  0  0  0  0  0  0  0
  -19.3725   12.3183  -17.6805 C   0  0  0  0  0  0  0  0  0  0  0  0
  -18.5686   11.2184  -17.7886 C   0  0  0  0  0  0  0  0  0  0  0  0
  -18.9582   10.0478  -17.1828 C   0  0  0  0  0  0  0  0  0  0  0  0
  -21.4794    4.9411  -14.0207 C   0  0  0  0  0  0  0  0  0  0  0  0
  -21.1736    6.2757  -14.6490 C   0  0  0  0  0  0  0  0  0  0  0  0
  -22.0796    7.3111  -14.5954 C   0  0  0  0  0  0  0  0  0  0  0  0
  -21.7748    8.5406  -15.1852 C   0  0  0  0  0  0  0  0  0  0  0  0
  -20.5616    8.6870  -15.8124 C   0  0  0  0  0  0  0  0  0  0  0  0
  -19.7317    7.6370  -15.8247 N   0  0  0  0  0  0  0  0  0  0  0  0
  -20.0138    6.4755  -15.2703 N   0  0  0  0  0  0  0  0  0  0  0  0
 23 24  1  0  0  0
 24 25  2  0  0  0
 25 26  1  0  0  0
 26 27  2  0  0  0
 27 17  1  0  0  0
 17 18  2  0  0  0
 18 19  1  0  0  0
 19 20  2  0  0  0
 20 21  1  0  0  0
 21 16  1  0  0  0
 16  1  1  0  0  0
  1  2  1  0  0  0
  2  3  2  0  0  0
  3  8  1  0  0  0
  8  9  2  0  0  0
  9 10  1  0  0  0
 10 11  1  0  0  0
 10 12  2  0  0  0
 12 13  1  0  0  0
 13 14  1  0  0  0
 13 15  2  0  0  0
  3  4  1  0  0  0
  4  5  2  0  0  0
  5  6  1  0  0  0
  6  7  2  0  0  0
 21 22  2  0  0  0
 27 28  1  0  0  0
 28 29  2  0  0  0
 29 24  1  0  0  0
 22 17  1  0  0  0
  6  1  1  0  0  0
 15  8  1  0  0  0
M  END
> <minimizedAffinity>
-8.68640

> <CNNscore>
0.4764572978

> <CNNaffinity>
6.0935902596

> <CNN_VS>
2.9033355713

> <CNNaffinity_variance>
0.1208708659

$$$$
[H]c1c(-c2c([H])c([H])c([H])c(C([H])([H])n3nc(-c4c([H])c(F)c([H])c(F)c4[H])c([H])c([H])c3=O)c2[H])nnc(C([H])([H])[H])c1[H]


 29 32  0  0  0  0  0  0  0  0999 V2000
  -17.9503   14.8227  -21.2475 N   0  0  0  0  0  0  0  0  0  0  0  0
  -17.7739   14.5345  -22.5338 N   0  0  0  0  0  0  0  0  0  0  0  0
  -16.9890   15.2419  -23.3701 C   0  0  0  0  0  0  0  0  0  0  0  0
  -16.3215   16.3392  -22.8642 C   0  0  0  0  0  0  0  0  0  0  0  0
  -16.4790   16.6721  -21.5312 C   0  0  0  0  0  0  0  0  0  0  0  0
  -17.3101   15.8860  -20.7368 C   0  0  0  0  0  0  0  0  0  0  0  0
  -17.4938   16.1328  -19.5322 O   0  0  0  0  0  0  0  0  0  0  0  0
  -16.8662   14.8333  -24.7757 C   0  0  0  0  0  0  0  0  0  0  0  0
  -16.3494   15.6177  -25.7677 C   0  0  0  0  0  0  0  0  0  0  0  0
  -16.2607   15.1690  -27.0849 C   0  0  0  0  0  0  0  0  0  0  0  0
  -15.7477   15.9595  -28.0455 F   0  0  0  0  0  0  0  0  0  0  0  0
  -16.6938   13.9115  -27.4343 C   0  0  0  0  0  0  0  0  0  0  0  0
  -17.2166   13.1133  -26.4409 C   0  0  0  0  0  0  0  0  0  0  0  0
  -17.6436   11.8755  -26.7811 F   0  0  0  0  0  0  0  0  0  0  0  0
  -17.2979   13.5703  -25.1426 C   0  0  0  0  0  0  0  0  0  0  0  0
  -18.8129   13.9665  -20.4949 C   0  0  0  0  0  0  0  0  0  0  0  0
  -18.3729   10.7980  -18.5352 C   0  0  0  0  0  0  0  0  0  0  0  0
  -17.2827   10.2881  -19.2208 C   0  0  0  0  0  0  0  0  0  0  0  0
  -16.6955   10.9302  -20.2794 C   0  0  0  0  0  0  0  0  0  0  0  0
  -17.1957   12.1375  -20.6966 C   0  0  0  0  0  0  0  0  0  0  0  0
  -18.2706   12.6887  -20.0574 C   0  0  0  0  0  0  0  0  0  0  0  0
  -18.8325   12.0147  -18.9995 C   0  0  0  0  0  0  0  0  0  0  0  0
  -20.3726    7.6286  -14.2411 C   0  0  0  0  0  0  0  0  0  0  0  0
  -19.8825    8.5075  -15.3622 C   0  0  0  0  0  0  0  0  0  0  0  0
  -20.4404    9.7452  -15.5911 C   0  0  0  0  0  0  0  0  0  0  0  0
  -19.9700   10.5437  -16.6369 C   0  0  0  0  0  0  0  0  0  0  0  0
  -18.9483   10.0664  -17.4211 C   0  0  0  0  0  0  0  0  0  0  0  0
  -18.4554    8.8544  -17.1391 N   0  0  0  0  0  0  0  0  0  0  0  0
  -18.8950    8.0973  -16.1545 N   0  0  0  0  0  0  0  0  0  0  0  0
 23 24  1  0  0  0
 24 25  2  0  0  0
 25 26  1  0  0  0
 26 27  2  0  0  0
 27 17  1  0  0  0
 17 18  2  0  0  0
 18 19  1  0  0  0
 19 20  2  0  0  0
 20 21  1  0  0  0
 21 16  1  0  0  0
 16  1  1  0  0  0
  1  2  1  0  0  0
  2  3  2  0  0  0
  3  8  1  0  0  0
  8  9  2  0  0  0
  9 10  1  0  0  0
 10 11  1  0  0  0
 10 12  2  0  0  0
 12 13  1  0  0  0
 13 14  1  0  0  0
 13 15  2  0  0  0
  3  4  1  0  0  0
  4  5  2  0  0  0
  5  6  1  0  0  0
  6  7  2  0  0  0
 21 22  2  0  0  0
 27 28  1  0  0  0
 28 29  2  0  0  0
 29 24  1  0  0  0
 22 17  1  0  0  0
  6  1  1  0  0  0
 15  8  1  0  0  0
M  END
> <minimizedAffinity>
-10.55775

> <CNNscore>
0.4504213035

> <CNNaffinity>
6.5653753281

> <CNN_VS>
2.9571850300

> <CNNaffinity_variance>
0.2107309401

$$$$
[H]c1c(-c2c([H])c([H])c([H])c(C([H])([H])n3nc(-c4c([H])c(F)c([H])c(F)c4[H])c([H])c([H])c3=O)c2[H])nnc(C([H])([H])[H])c1[H]


 29 32  0  0  0  0  0  0  0  0999 V2000
  -17.5629   12.2131  -19.5682 N   0  0  0  0  0  0  0  0  0  0  0  0
  -17.4007   12.8985  -20.6964 N   0  0  0  0  0  0  0  0  0  0  0  0
  -16.7995   12.4130  -21.8003 C   0  0  0  0  0  0  0  0  0  0  0  0
  -16.3181   11.1198  -21.7640 C   0  0  0  0  0  0  0  0  0  0  0  0
  -16.4672   10.3741  -20.6089 C   0  0  0  0  0  0  0  0  0  0  0  0
  -17.1015   10.9541  -19.5129 C   0  0  0  0  0  0  0  0  0  0  0  0
  -17.2658   10.3370  -18.4462 O   0  0  0  0  0  0  0  0  0  0  0  0
  -16.6741   13.2593  -22.9945 C   0  0  0  0  0  0  0  0  0  0  0  0
  -17.0739   12.8930  -24.2484 C   0  0  0  0  0  0  0  0  0  0  0  0
  -16.9265   13.7451  -25.3422 C   0  0  0  0  0  0  0  0  0  0  0  0
  -17.3278   13.3627  -26.5684 F   0  0  0  0  0  0  0  0  0  0  0  0
  -16.3691   14.9937  -25.1959 C   0  0  0  0  0  0  0  0  0  0  0  0
  -15.9629   15.3719  -23.9352 C   0  0  0  0  0  0  0  0  0  0  0  0
  -15.4141   16.5996  -23.7876 F   0  0  0  0  0  0  0  0  0  0  0  0
  -16.1150   14.5187  -22.8628 C   0  0  0  0  0  0  0  0  0  0  0  0
  -18.2289   12.8728  -18.4890 C   0  0  0  0  0  0  0  0  0  0  0  0
  -19.9119   15.8343  -20.0608 C   0  0  0  0  0  0  0  0  0  0  0  0
  -21.1681   15.6716  -19.5006 C   0  0  0  0  0  0  0  0  0  0  0  0
  -21.4798   14.6498  -18.6424 C   0  0  0  0  0  0  0  0  0  0  0  0
  -20.5158   13.7325  -18.3088 C   0  0  0  0  0  0  0  0  0  0  0  0
  -19.2580   13.8433  -18.8318 C   0  0  0  0  0  0  0  0  0  0  0  0
  -18.9834   14.8819  -19.6891 C   0  0  0  0  0  0  0  0  0  0  0  0
  -19.2483   20.3028  -23.5358 C   0  0  0  0  0  0  0  0  0  0  0  0
  -19.3693   19.1057  -22.6293 C   0  0  0  0  0  0  0  0  0  0  0  0
  -18.3173   18.2339  -22.4586 C   0  0  0  0  0  0  0  0  0  0  0  0
  -18.4518   17.1299  -21.6127 C   0  0  0  0  0  0  0  0  0  0  0  0
  -19.6473   16.9399  -20.9638 C   0  0  0  0  0  0  0  0  0  0  0  0
  -20.6251   17.8284  -21.1782 N   0  0  0  0  0  0  0  0  0  0  0  0
  -20.5039   18.8709  -21.9746 N   0  0  0  0  0  0  0  0  0  0  0  0
 23 24  1  0  0  0
 24 25  2  0  0  0
 25 26  1  0  0  0
 26 27  2  0  0  0
 27 17  1  0  0  0
 17 18  2  0  0  0
 18 19  1  0  0  0
 19 20  2  0  0  0
 20 21  1  0  0  0
 21 16  1  0  0  0
 16  1  1  0  0  0
  1  2  1  0  0  0
  2  3  2  0  0  0
  3  8  1  0  0  0
  8  9  2  0  0  0
  9 10  1  0  0  0
 10 11  1  0  0  0
 10 12  2  0  0  0
 12 13  1  0  0  0
 13 14  1  0  0  0
 13 15  2  0  0  0
  3  4  1  0  0  0
  4  5  2  0  0  0
  5  6  1  0  0  0
  6  7  2  0  0  0
 21 22  2  0  0  0
 27 28  1  0  0  0
 28 29  2  0  0  0
 29 24  1  0  0  0
 22 17  1  0  0  0
  6  1  1  0  0  0
 15  8  1  0  0  0
M  END
> <minimizedAffinity>
-8.41344

> <CNNscore>
0.4275050759

> <CNNaffinity>
6.9016847610

> <CNN_VS>
2.9505052567

> <CNNaffinity_variance>
0.1126961932

$$$$
[H]c1c(-c2c([H])c([H])c([H])c(C([H])([H])n3nc(-c4c([H])c(F)c([H])c(F)c4[H])c([H])c([H])c3=O)c2[H])nnc(C([H])([H])[H])c1[H]


 29 32  0  0  0  0  0  0  0  0999 V2000
  -17.4691   11.8814  -20.8333 N   0  0  0  0  0  0  0  0  0  0  0  0
  -17.1553   12.8273  -21.7139 N   0  0  0  0  0  0  0  0  0  0  0  0
  -16.1264   12.7472  -22.5805 C   0  0  0  0  0  0  0  0  0  0  0  0
  -15.3428   11.6111  -22.5572 C   0  0  0  0  0  0  0  0  0  0  0  0
  -15.6365   10.6044  -21.6556 C   0  0  0  0  0  0  0  0  0  0  0  0
  -16.7190   10.7691  -20.7949 C   0  0  0  0  0  0  0  0  0  0  0  0
  -17.0343    9.9019  -19.9617 O   0  0  0  0  0  0  0  0  0  0  0  0
  -15.8698   13.8535  -23.5122 C   0  0  0  0  0  0  0  0  0  0  0  0
  -16.7686   14.8379  -23.8115 C   0  0  0  0  0  0  0  0  0  0  0  0
  -16.4620   15.8621  -24.7065 C   0  0  0  0  0  0  0  0  0  0  0  0
  -17.3634   16.8214  -24.9860 F   0  0  0  0  0  0  0  0  0  0  0  0
  -15.2346   15.9176  -25.3242 C   0  0  0  0  0  0  0  0  0  0  0  0
  -14.3217   14.9293  -25.0288 C   0  0  0  0  0  0  0  0  0  0  0  0
  -13.1133   14.9808  -25.6346 F   0  0  0  0  0  0  0  0  0  0  0  0
  -14.6389   13.9227  -24.1415 C   0  0  0  0  0  0  0  0  0  0  0  0
  -18.5972   12.1191  -19.9880 C   0  0  0  0  0  0  0  0  0  0  0  0
  -19.6760   15.7064  -20.1922 C   0  0  0  0  0  0  0  0  0  0  0  0
  -19.3769   16.0798  -18.8924 C   0  0  0  0  0  0  0  0  0  0  0  0
  -18.8438   15.2193  -17.9688 C   0  0  0  0  0  0  0  0  0  0  0  0
  -18.5862   13.9206  -18.3280 C   0  0  0  0  0  0  0  0  0  0  0  0
  -18.8615   13.4961  -19.5975 C   0  0  0  0  0  0  0  0  0  0  0  0
  -19.3957   14.3886  -20.4960 C   0  0  0  0  0  0  0  0  0  0  0  0
  -21.5724   19.4155  -24.0818 C   0  0  0  0  0  0  0  0  0  0  0  0
  -21.1179   18.4468  -23.0214 C   0  0  0  0  0  0  0  0  0  0  0  0
  -21.8609   18.2413  -21.8806 C   0  0  0  0  0  0  0  0  0  0  0  0
  -21.4201   17.3378  -20.9101 C   0  0  0  0  0  0  0  0  0  0  0  0
  -20.2397   16.6681  -21.1221 C   0  0  0  0  0  0  0  0  0  0  0  0
  -19.5714   16.9190  -22.2543 N   0  0  0  0  0  0  0  0  0  0  0  0
  -19.9822   17.7697  -23.1727 N   0  0  0  0  0  0  0  0  0  0  0  0
 23 24  1  0  0  0
 24 25  2  0  0  0
 25 26  1  0  0  0
 26 27  2  0  0  0
 27 17  1  0  0  0
 17 18  2  0  0  0
 18 19  1  0  0  0
 19 20  2  0  0  0
 20 21  1  0  0  0
 21 16  1  0  0  0
 16  1  1  0  0  0
  1  2  1  0  0  0
  2  3  2  0  0  0
  3  8  1  0  0  0
  8  9  2  0  0  0
  9 10  1  0  0  0
 10 11  1  0  0  0
 10 12  2  0  0  0
 12 13  1  0  0  0
 13 14  1  0  0  0
 13 15  2  0  0  0
  3  4  1  0  0  0
  4  5  2  0  0  0
  5  6  1  0  0  0
  6  7  2  0  0  0
 21 22  2  0  0  0
 27 28  1  0  0  0
 28 29  2  0  0  0
 29 24  1  0  0  0
 22 17  1  0  0  0
  6  1  1  0  0  0
 15  8  1  0  0  0
M  END
> <minimizedAffinity>
-8.61590

> <CNNscore>
0.3853846192

> <CNNaffinity>
6.8145303726

> <CNN_VS>
2.6262152195

> <CNNaffinity_variance>
0.2040911168

$$$$
[H]c1c([H])c([H])c(-c2c([H])c([H])c(C([H])([H])Sc3nnc(-c4c([H])c([H])c5c(c4[H])O[C@@]([H])(C([H])([H])OC([H])([H])[H])C([H])([H])O5)o3)c([H])c2[H])c(C#N)c1[H]


 34 38  0  0  0  0  0  0  0  0999 V2000
  -16.9168   10.8630  -20.0724 C   0  0  0  0  0  0  0  0  0  0  0  0
  -15.9267   10.0056  -20.3160 N   0  0  0  0  0  0  0  0  0  0  0  0
  -15.3053   10.3950  -21.4078 N   0  0  0  0  0  0  0  0  0  0  0  0
  -15.9001   11.5018  -21.8602 C   0  0  0  0  0  0  0  0  0  0  0  0
  -16.8912   11.7516  -21.0004 O   0  0  0  0  0  0  0  0  0  0  0  0
  -20.1775    8.1924  -15.6353 C   0  0  0  0  0  0  0  0  0  0  0  0
  -20.2222    9.4680  -14.8068 C   0  0  0  0  0  0  0  0  0  0  0  0
  -20.4827   10.5405  -15.7331 O   0  0  0  0  0  0  0  0  0  0  0  0
  -19.6144   10.6456  -16.8051 C   0  0  0  0  0  0  0  0  0  0  0  0
  -19.5208   11.8289  -17.5442 C   0  0  0  0  0  0  0  0  0  0  0  0
  -18.6326   11.8591  -18.5994 C   0  0  0  0  0  0  0  0  0  0  0  0
  -17.8522   10.7779  -18.9371 C   0  0  0  0  0  0  0  0  0  0  0  0
  -17.9609    9.6387  -18.2042 C   0  0  0  0  0  0  0  0  0  0  0  0
  -18.8407    9.5512  -17.1282 C   0  0  0  0  0  0  0  0  0  0  0  0
  -18.9327    8.3770  -16.3956 O   0  0  0  0  0  0  0  0  0  0  0  0
  -20.0348    6.9529  -14.8226 C   0  0  0  0  0  0  0  0  0  0  0  0
  -21.1649    5.2302  -13.6540 C   0  0  0  0  0  0  0  0  0  0  0  0
  -21.0490    6.1145  -14.6519 O   0  0  0  0  0  0  0  0  0  0  0  0
  -15.4837   12.4562  -23.2945 S   0  0  0  0  0  0  0  0  0  0  0  0
  -16.6971   13.7095  -23.7206 C   0  0  0  0  0  0  0  0  0  0  0  0
  -17.1914   14.4576  -22.5473 C   0  0  0  0  0  0  0  0  0  0  0  0
  -16.3025   15.3052  -21.8865 C   0  0  0  0  0  0  0  0  0  0  0  0
  -16.7047   16.0099  -20.7740 C   0  0  0  0  0  0  0  0  0  0  0  0
  -17.9747   15.9206  -20.2640 C   0  0  0  0  0  0  0  0  0  0  0  0
  -18.8500   15.0796  -20.9222 C   0  0  0  0  0  0  0  0  0  0  0  0
  -18.4505   14.3684  -22.0408 C   0  0  0  0  0  0  0  0  0  0  0  0
  -18.4518   16.6508  -19.0999 C   0  0  0  0  0  0  0  0  0  0  0  0
  -18.6071   15.9990  -17.8692 C   0  0  0  0  0  0  0  0  0  0  0  0
  -19.0435   16.6761  -16.7565 C   0  0  0  0  0  0  0  0  0  0  0  0
  -19.3485   18.0190  -16.7929 C   0  0  0  0  0  0  0  0  0  0  0  0
  -19.2014   18.6728  -17.9941 C   0  0  0  0  0  0  0  0  0  0  0  0
  -18.7574   17.9872  -19.1297 C   0  0  0  0  0  0  0  0  0  0  0  0
  -18.6335   18.7112  -20.3668 C   0  0  0  0  0  0  0  0  0  0  0  0
  -18.5534   19.2853  -21.3767 N   0  0  0  0  0  0  0  0  0  0  0  0
 17 18  1  0  0  0
 18 16  1  0  0  0
 16  6  1  0  0  0
  6  7  1  0  0  0
  7  8  1  0  0  0
  8  9  1  0  0  0
  9 10  2  0  0  0
 10 11  1  0  0  0
 11 12  2  0  0  0
 12  1  1  0  0  0
  1  2  2  0  0  0
  2  3  1  0  0  0
  3  4  2  0  0  0
  4 19  1  0  0  0
 19 20  1  0  0  0
 20 21  1  0  0  0
 21 22  2  0  0  0
 22 23  1  0  0  0
 23 24  2  0  0  0
 24 27  1  0  0  0
 27 28  2  0  0  0
 28 29  1  0  0  0
 29 30  2  0  0  0
 30 31  1  0  0  0
 31 32  2  0  0  0
 32 33  1  0  0  0
 33 34  3  0  0  0
 24 25  1  0  0  0
 25 26  2  0  0  0
  4  5  1  0  0  0
 12 13  1  0  0  0
 13 14  2  0  0  0
 14 15  1  0  0  0
 15  6  1  0  0  0
 14  9  1  0  0  0
  5  1  1  0  0  0
 26 21  1  0  0  0
 32 27  1  0  0  0
M  END
> <minimizedAffinity>
-8.36363

> <CNNscore>
0.6600759029

> <CNNaffinity>
7.1331162453

> <CNN_VS>
4.7083983421

> <CNNaffinity_variance>
0.1446006447

$$$$
[H]c1c([H])c([H])c(-c2c([H])c([H])c(C([H])([H])Sc3nnc(-c4c([H])c([H])c5c(c4[H])O[C@@]([H])(C([H])([H])OC([H])([H])[H])C([H])([H])O5)o3)c([H])c2[H])c(C#N)c1[H]


 34 38  0  0  0  0  0  0  0  0999 V2000
  -17.3700   10.5020  -19.4161 C   0  0  0  0  0  0  0  0  0  0  0  0
  -16.3831    9.6702  -19.7462 N   0  0  0  0  0  0  0  0  0  0  0  0
  -15.7844   10.1470  -20.8158 N   0  0  0  0  0  0  0  0  0  0  0  0
  -16.3905   11.2839  -21.1674 C   0  0  0  0  0  0  0  0  0  0  0  0
  -17.3649   11.4612  -20.2712 O   0  0  0  0  0  0  0  0  0  0  0  0
  -21.2376   12.1576  -14.9716 C   0  0  0  0  0  0  0  0  0  0  0  0
  -21.9155   10.7951  -14.9605 C   0  0  0  0  0  0  0  0  0  0  0  0
  -20.8594    9.8196  -15.0563 O   0  0  0  0  0  0  0  0  0  0  0  0
  -19.9923    9.9616  -16.1250 C   0  0  0  0  0  0  0  0  0  0  0  0
  -19.1836    8.9004  -16.5435 C   0  0  0  0  0  0  0  0  0  0  0  0
  -18.3440    9.1165  -17.6168 C   0  0  0  0  0  0  0  0  0  0  0  0
  -18.2825   10.3238  -18.2729 C   0  0  0  0  0  0  0  0  0  0  0  0
  -19.0779   11.3404  -17.8478 C   0  0  0  0  0  0  0  0  0  0  0  0
  -19.9448   11.1791  -16.7698 C   0  0  0  0  0  0  0  0  0  0  0  0
  -20.7466   12.2323  -16.3555 O   0  0  0  0  0  0  0  0  0  0  0  0
  -22.1736   13.2959  -14.7587 C   0  0  0  0  0  0  0  0  0  0  0  0
  -22.3407   15.6575  -14.8358 C   0  0  0  0  0  0  0  0  0  0  0  0
  -21.9795   14.4720  -15.3415 O   0  0  0  0  0  0  0  0  0  0  0  0
  -16.0048   12.3502  -22.5296 S   0  0  0  0  0  0  0  0  0  0  0  0
  -17.3487   13.4384  -23.0141 C   0  0  0  0  0  0  0  0  0  0  0  0
  -17.7442   14.3788  -21.9464 C   0  0  0  0  0  0  0  0  0  0  0  0
  -16.7924   15.2889  -21.4869 C   0  0  0  0  0  0  0  0  0  0  0  0
  -17.1012   16.1736  -20.4780 C   0  0  0  0  0  0  0  0  0  0  0  0
  -18.3355   16.2096  -19.8810 C   0  0  0  0  0  0  0  0  0  0  0  0
  -19.2733   15.3059  -20.3400 C   0  0  0  0  0  0  0  0  0  0  0  0
  -18.9677   14.4140  -21.3536 C   0  0  0  0  0  0  0  0  0  0  0  0
  -18.7149   17.1302  -18.8207 C   0  0  0  0  0  0  0  0  0  0  0  0
  -19.0497   18.4574  -19.1206 C   0  0  0  0  0  0  0  0  0  0  0  0
  -19.4233   19.3366  -18.1334 C   0  0  0  0  0  0  0  0  0  0  0  0
  -19.4874   18.9621  -16.8092 C   0  0  0  0  0  0  0  0  0  0  0  0
  -19.1613   17.6624  -16.4989 C   0  0  0  0  0  0  0  0  0  0  0  0
  -18.7802   16.7638  -17.5009 C   0  0  0  0  0  0  0  0  0  0  0  0
  -18.4342   15.4188  -17.1248 C   0  0  0  0  0  0  0  0  0  0  0  0
  -18.1481   14.3256  -16.8441 N   0  0  0  0  0  0  0  0  0  0  0  0
 17 18  1  0  0  0
 18 16  1  0  0  0
 16  6  1  0  0  0
  6  7  1  0  0  0
  7  8  1  0  0  0
  8  9  1  0  0  0
  9 10  2  0  0  0
 10 11  1  0  0  0
 11 12  2  0  0  0
 12  1  1  0  0  0
  1  2  2  0  0  0
  2  3  1  0  0  0
  3  4  2  0  0  0
  4 19  1  0  0  0
 19 20  1  0  0  0
 20 21  1  0  0  0
 21 22  2  0  0  0
 22 23  1  0  0  0
 23 24  2  0  0  0
 24 27  1  0  0  0
 27 28  2  0  0  0
 28 29  1  0  0  0
 29 30  2  0  0  0
 30 31  1  0  0  0
 31 32  2  0  0  0
 32 33  1  0  0  0
 33 34  3  0  0  0
 24 25  1  0  0  0
 25 26  2  0  0  0
  4  5  1  0  0  0
 12 13  1  0  0  0
 13 14  2  0  0  0
 14 15  1  0  0  0
 15  6  1  0  0  0
 14  9  1  0  0  0
  5  1  1  0  0  0
 26 21  1  0  0  0
 32 27  1  0  0  0
M  END
> <minimizedAffinity>
-8.47159

> <CNNscore>
0.6032688022

> <CNNaffinity>
6.9038782120

> <CNN_VS>
4.1648941040

> <CNNaffinity_variance>
0.2390487939

$$$$
[H]c1c([H])c([H])c(-c2c([H])c([H])c(C([H])([H])Sc3nnc(-c4c([H])c([H])c5c(c4[H])O[C@@]([H])(C([H])([H])OC([H])([H])[H])C([H])([H])O5)o3)c([H])c2[H])c(C#N)c1[H]


 34 38  0  0  0  0  0  0  0  0999 V2000
  -17.0843   10.6735  -19.8070 C   0  0  0  0  0  0  0  0  0  0  0  0
  -16.0672    9.8505  -20.0579 N   0  0  0  0  0  0  0  0  0  0  0  0
  -15.4634   10.2648  -21.1504 N   0  0  0  0  0  0  0  0  0  0  0  0
  -16.0965   11.3531  -21.5960 C   0  0  0  0  0  0  0  0  0  0  0  0
  -17.0920   11.5662  -20.7313 O   0  0  0  0  0  0  0  0  0  0  0  0
  -21.0289   12.5452  -15.5186 C   0  0  0  0  0  0  0  0  0  0  0  0
  -21.6962   11.1798  -15.4397 C   0  0  0  0  0  0  0  0  0  0  0  0
  -20.6313   10.2096  -15.4650 O   0  0  0  0  0  0  0  0  0  0  0  0
  -19.7499   10.2981  -16.5277 C   0  0  0  0  0  0  0  0  0  0  0  0
  -18.9270    9.2219  -16.8738 C   0  0  0  0  0  0  0  0  0  0  0  0
  -18.0736    9.3840  -17.9457 C   0  0  0  0  0  0  0  0  0  0  0  0
  -18.0119   10.5527  -18.6685 C   0  0  0  0  0  0  0  0  0  0  0  0
  -18.8213   11.5849  -18.3130 C   0  0  0  0  0  0  0  0  0  0  0  0
  -19.7025   11.4775  -17.2399 C   0  0  0  0  0  0  0  0  0  0  0  0
  -20.5185   12.5456  -16.8975 O   0  0  0  0  0  0  0  0  0  0  0  0
  -21.9767   13.6857  -15.3840 C   0  0  0  0  0  0  0  0  0  0  0  0
  -22.8095   15.6586  -16.3964 C   0  0  0  0  0  0  0  0  0  0  0  0
  -21.8310   14.7966  -16.0949 O   0  0  0  0  0  0  0  0  0  0  0  0
  -15.7178   12.3266  -23.0278 S   0  0  0  0  0  0  0  0  0  0  0  0
  -17.1580   12.8341  -23.9729 C   0  0  0  0  0  0  0  0  0  0  0  0
  -17.5890   14.2142  -23.6726 C   0  0  0  0  0  0  0  0  0  0  0  0
  -18.1604   14.4674  -22.4257 C   0  0  0  0  0  0  0  0  0  0  0  0
  -18.5995   15.7315  -22.1017 C   0  0  0  0  0  0  0  0  0  0  0  0
  -18.5019   16.7905  -22.9677 C   0  0  0  0  0  0  0  0  0  0  0  0
  -17.9358   16.5336  -24.2007 C   0  0  0  0  0  0  0  0  0  0  0  0
  -17.4932   15.2643  -24.5316 C   0  0  0  0  0  0  0  0  0  0  0  0
  -18.9402   18.1453  -22.6704 C   0  0  0  0  0  0  0  0  0  0  0  0
  -20.0522   18.6902  -23.3260 C   0  0  0  0  0  0  0  0  0  0  0  0
  -20.4881   19.9629  -23.0478 C   0  0  0  0  0  0  0  0  0  0  0  0
  -19.8598   20.7620  -22.1181 C   0  0  0  0  0  0  0  0  0  0  0  0
  -18.7664   20.2412  -21.4662 C   0  0  0  0  0  0  0  0  0  0  0  0
  -18.3190   18.9458  -21.7465 C   0  0  0  0  0  0  0  0  0  0  0  0
  -17.1619   18.4508  -21.0493 C   0  0  0  0  0  0  0  0  0  0  0  0
  -16.2266   18.0291  -20.4986 N   0  0  0  0  0  0  0  0  0  0  0  0
 17 18  1  0  0  0
 18 16  1  0  0  0
 16  6  1  0  0  0
  6  7  1  0  0  0
  7  8  1  0  0  0
  8  9  1  0  0  0
  9 10  2  0  0  0
 10 11  1  0  0  0
 11 12  2  0  0  0
 12  1  1  0  0  0
  1  2  2  0  0  0
  2  3  1  0  0  0
  3  4  2  0  0  0
  4 19  1  0  0  0
 19 20  1  0  0  0
 20 21  1  0  0  0
 21 22  2  0  0  0
 22 23  1  0  0  0
 23 24  2  0  0  0
 24 27  1  0  0  0
 27 28  2  0  0  0
 28 29  1  0  0  0
 29 30  2  0  0  0
 30 31  1  0  0  0
 31 32  2  0  0  0
 32 33  1  0  0  0
 33 34  3  0  0  0
 24 25  1  0  0  0
 25 26  2  0  0  0
  4  5  1  0  0  0
 12 13  1  0  0  0
 13 14  2  0  0  0
 14 15  1  0  0  0
 15  6  1  0  0  0
 14  9  1  0  0  0
  5  1  1  0  0  0
 26 21  1  0  0  0
 32 27  1  0  0  0
M  END
> <minimizedAffinity>
-8.32015

> <CNNscore>
0.5857676268

> <CNNaffinity>
7.0000829697

> <CNN_VS>
4.1004219055

> <CNNaffinity_variance>
0.1424328238

$$$$
[H]c1c([H])c([H])c(-c2c([H])c([H])c(C([H])([H])Sc3nnc(-c4c([H])c([H])c5c(c4[H])O[C@@]([H])(C([H])([H])OC([H])([H])[H])C([H])([H])O5)o3)c([H])c2[H])c(C#N)c1[H]


 34 38  0  0  0  0  0  0  0  0999 V2000
  -17.3679   10.4944  -19.4244 C   0  0  0  0  0  0  0  0  0  0  0  0
  -16.3554    9.6894  -19.7433 N   0  0  0  0  0  0  0  0  0  0  0  0
  -15.7660   10.1750  -20.8141 N   0  0  0  0  0  0  0  0  0  0  0  0
  -16.4038   11.2906  -21.1778 C   0  0  0  0  0  0  0  0  0  0  0  0
  -17.3871   11.4464  -20.2874 O   0  0  0  0  0  0  0  0  0  0  0  0
  -20.3708    7.4280  -15.0617 C   0  0  0  0  0  0  0  0  0  0  0  0
  -20.4961    8.6645  -14.1837 C   0  0  0  0  0  0  0  0  0  0  0  0
  -20.8449    9.7499  -15.0648 O   0  0  0  0  0  0  0  0  0  0  0  0
  -20.0004    9.9582  -16.1407 C   0  0  0  0  0  0  0  0  0  0  0  0
  -20.0015   11.1725  -16.8340 C   0  0  0  0  0  0  0  0  0  0  0  0
  -19.1315   11.3071  -17.8963 C   0  0  0  0  0  0  0  0  0  0  0  0
  -18.2801   10.2987  -18.2838 C   0  0  0  0  0  0  0  0  0  0  0  0
  -18.2972    9.1274  -17.5948 C   0  0  0  0  0  0  0  0  0  0  0  0
  -19.1544    8.9358  -16.5141 C   0  0  0  0  0  0  0  0  0  0  0  0
  -19.1524    7.7309  -15.8269 O   0  0  0  0  0  0  0  0  0  0  0  0
  -20.1289    6.1720  -14.2994 C   0  0  0  0  0  0  0  0  0  0  0  0
  -19.5647    3.8802  -14.4999 C   0  0  0  0  0  0  0  0  0  0  0  0
  -19.4221    5.1736  -14.8135 O   0  0  0  0  0  0  0  0  0  0  0  0
  -16.0434   12.3568  -22.5470 S   0  0  0  0  0  0  0  0  0  0  0  0
  -17.3970   13.4429  -23.0085 C   0  0  0  0  0  0  0  0  0  0  0  0
  -17.7812   14.3770  -21.9312 C   0  0  0  0  0  0  0  0  0  0  0  0
  -16.8146   15.2615  -21.4529 C   0  0  0  0  0  0  0  0  0  0  0  0
  -17.1129   16.1389  -20.4345 C   0  0  0  0  0  0  0  0  0  0  0  0
  -18.3505   16.1921  -19.8458 C   0  0  0  0  0  0  0  0  0  0  0  0
  -19.3030   15.3137  -20.3234 C   0  0  0  0  0  0  0  0  0  0  0  0
  -19.0081   14.4292  -21.3466 C   0  0  0  0  0  0  0  0  0  0  0  0
  -18.7189   17.1061  -18.7760 C   0  0  0  0  0  0  0  0  0  0  0  0
  -19.0539   18.4359  -19.0640 C   0  0  0  0  0  0  0  0  0  0  0  0
  -19.4174   19.3091  -18.0677 C   0  0  0  0  0  0  0  0  0  0  0  0
  -19.4706   18.9257  -16.7456 C   0  0  0  0  0  0  0  0  0  0  0  0
  -19.1442   17.6233  -16.4469 C   0  0  0  0  0  0  0  0  0  0  0  0
  -18.7735   16.7309  -17.4582 C   0  0  0  0  0  0  0  0  0  0  0  0
  -18.4267   15.3828  -17.0942 C   0  0  0  0  0  0  0  0  0  0  0  0
  -18.1401   14.2872  -16.8235 N   0  0  0  0  0  0  0  0  0  0  0  0
 17 18  1  0  0  0
 18 16  1  0  0  0
 16  6  1  0  0  0
  6  7  1  0  0  0
  7  8  1  0  0  0
  8  9  1  0  0  0
  9 10  2  0  0  0
 10 11  1  0  0  0
 11 12  2  0  0  0
 12  1  1  0  0  0
  1  2  2  0  0  0
  2  3  1  0  0  0
  3  4  2  0  0  0
  4 19  1  0  0  0
 19 20  1  0  0  0
 20 21  1  0  0  0
 21 22  2  0  0  0
 22 23  1  0  0  0
 23 24  2  0  0  0
 24 27  1  0  0  0
 27 28  2  0  0  0
 28 29  1  0  0  0
 29 30  2  0  0  0
 30 31  1  0  0  0
 31 32  2  0  0  0
 32 33  1  0  0  0
 33 34  3  0  0  0
 24 25  1  0  0  0
 25 26  2  0  0  0
  4  5  1  0  0  0
 12 13  1  0  0  0
 13 14  2  0  0  0
 14 15  1  0  0  0
 15  6  1  0  0  0
 14  9  1  0  0  0
  5  1  1  0  0  0
 26 21  1  0  0  0
 32 27  1  0  0  0
M  END
> <minimizedAffinity>
-8.77585

> <CNNscore>
0.5779039264

> <CNNaffinity>
6.8095259666

> <CNN_VS>
3.9352517128

> <CNNaffinity_variance>
0.2593387663

$$$$
[H]c1c([H])c([H])c(-c2c([H])c([H])c(C([H])([H])Sc3nnc(-c4c([H])c([H])c5c(c4[H])O[C@@]([H])(C([H])([H])OC([H])([H])[H])C([H])([H])O5)o3)c([H])c2[H])c(C#N)c1[H]


 34 38  0  0  0  0  0  0  0  0999 V2000
  -17.0713   10.6848  -19.8029 C   0  0  0  0  0  0  0  0  0  0  0  0
  -16.0519    9.8651  -20.0552 N   0  0  0  0  0  0  0  0  0  0  0  0
  -15.4511   10.2812  -21.1487 N   0  0  0  0  0  0  0  0  0  0  0  0
  -16.0884   11.3674  -21.5934 C   0  0  0  0  0  0  0  0  0  0  0  0
  -17.0833   11.5774  -20.7272 O   0  0  0  0  0  0  0  0  0  0  0  0
  -20.3226    7.8609  -15.4546 C   0  0  0  0  0  0  0  0  0  0  0  0
  -20.3433    9.0992  -14.5703 C   0  0  0  0  0  0  0  0  0  0  0  0
  -20.5991   10.2146  -15.4459 O   0  0  0  0  0  0  0  0  0  0  0  0
  -19.7399   10.3563  -16.5210 C   0  0  0  0  0  0  0  0  0  0  0  0
  -19.6386   11.5698  -17.2082 C   0  0  0  0  0  0  0  0  0  0  0  0
  -18.7602   11.6358  -18.2701 C   0  0  0  0  0  0  0  0  0  0  0  0
  -17.9968   10.5611  -18.6630 C   0  0  0  0  0  0  0  0  0  0  0  0
  -18.1127    9.3920  -17.9797 C   0  0  0  0  0  0  0  0  0  0  0  0
  -18.9832    9.2679  -16.8997 C   0  0  0  0  0  0  0  0  0  0  0  0
  -19.0829    8.0638  -16.2187 O   0  0  0  0  0  0  0  0  0  0  0  0
  -20.1877    6.5852  -14.6987 C   0  0  0  0  0  0  0  0  0  0  0  0
  -19.8352    5.5899  -12.5783 C   0  0  0  0  0  0  0  0  0  0  0  0
  -19.6390    6.5490  -13.4910 O   0  0  0  0  0  0  0  0  0  0  0  0
  -15.7149   12.3420  -23.0258 S   0  0  0  0  0  0  0  0  0  0  0  0
  -17.1589   12.8563  -23.9613 C   0  0  0  0  0  0  0  0  0  0  0  0
  -17.5720   14.2438  -23.6701 C   0  0  0  0  0  0  0  0  0  0  0  0
  -18.1925   14.5017  -22.4479 C   0  0  0  0  0  0  0  0  0  0  0  0
  -18.6172   15.7733  -22.1342 C   0  0  0  0  0  0  0  0  0  0  0  0
  -18.4574   16.8355  -22.9870 C   0  0  0  0  0  0  0  0  0  0  0  0
  -17.8428   16.5738  -24.1956 C   0  0  0  0  0  0  0  0  0  0  0  0
  -17.4144   15.2970  -24.5160 C   0  0  0  0  0  0  0  0  0  0  0  0
  -18.8780   18.1979  -22.6993 C   0  0  0  0  0  0  0  0  0  0  0  0
  -19.9651   18.7625  -23.3797 C   0  0  0  0  0  0  0  0  0  0  0  0
  -20.3844   20.0428  -23.1110 C   0  0  0  0  0  0  0  0  0  0  0  0
  -19.7631   20.8307  -22.1670 C   0  0  0  0  0  0  0  0  0  0  0  0
  -18.6941   20.2905  -21.4908 C   0  0  0  0  0  0  0  0  0  0  0  0
  -18.2637   18.9873  -21.7614 C   0  0  0  0  0  0  0  0  0  0  0  0
  -17.1317   18.4718  -21.0383 C   0  0  0  0  0  0  0  0  0  0  0  0
  -16.2167   18.0336  -20.4668 N   0  0  0  0  0  0  0  0  0  0  0  0
 17 18  1  0  0  0
 18 16  1  0  0  0
 16  6  1  0  0  0
  6  7  1  0  0  0
  7  8  1  0  0  0
  8  9  1  0  0  0
  9 10  2  0  0  0
 10 11  1  0  0  0
 11 12  2  0  0  0
 12  1  1  0  0  0
  1  2  2  0  0  0
  2  3  1  0  0  0
  3  4  2  0  0  0
  4 19  1  0  0  0
 19 20  1  0  0  0
 20 21  1  0  0  0
 21 22  2  0  0  0
 22 23  1  0  0  0
 23 24  2  0  0  0
 24 27  1  0  0  0
 27 28  2  0  0  0
 28 29  1  0  0  0
 29 30  2  0  0  0
 30 31  1  0  0  0
 31 32  2  0  0  0
 32 33  1  0  0  0
 33 34  3  0  0  0
 24 25  1  0  0  0
 25 26  2  0  0  0
  4  5  1  0  0  0
 12 13  1  0  0  0
 13 14  2  0  0  0
 14 15  1  0  0  0
 15  6  1  0  0  0
 14  9  1  0  0  0
  5  1  1  0  0  0
 26 21  1  0  0  0
 32 27  1  0  0  0
M  END
> <minimizedAffinity>
-8.50082

> <CNNscore>
0.5751676559

> <CNNaffinity>
6.8169660568

> <CNN_VS>
3.9208984375

> <CNNaffinity_variance>
0.1888681650

$$$$
[H]c1c([H])c([H])c(-c2c([H])c([H])c(C([H])([H])Sc3nnc(-c4c([H])c([H])c5c(c4[H])O[C@@]([H])(C([H])([H])OC([H])([H])[H])C([H])([H])O5)o3)c([H])c2[H])c(C#N)c1[H]


 34 38  0  0  0  0  0  0  0  0999 V2000
  -16.7296   11.8498  -21.3591 C   0  0  0  0  0  0  0  0  0  0  0  0
  -15.7868   11.0937  -21.9196 N   0  0  0  0  0  0  0  0  0  0  0  0
  -15.3554   11.7082  -22.9995 N   0  0  0  0  0  0  0  0  0  0  0  0
  -16.0242   12.8572  -23.1270 C   0  0  0  0  0  0  0  0  0  0  0  0
  -16.8628   12.8996  -22.0882 O   0  0  0  0  0  0  0  0  0  0  0  0
  -20.3582   12.7830  -16.5202 C   0  0  0  0  0  0  0  0  0  0  0  0
  -20.7547   11.3156  -16.4487 C   0  0  0  0  0  0  0  0  0  0  0  0
  -19.5457   10.5614  -16.6624 O   0  0  0  0  0  0  0  0  0  0  0  0
  -18.8390   10.8546  -17.8151 C   0  0  0  0  0  0  0  0  0  0  0  0
  -17.8886    9.9645  -18.3246 C   0  0  0  0  0  0  0  0  0  0  0  0
  -17.2236   10.3252  -19.4784 C   0  0  0  0  0  0  0  0  0  0  0  0
  -17.4657   11.5132  -20.1278 C   0  0  0  0  0  0  0  0  0  0  0  0
  -18.3940   12.3623  -19.6136 C   0  0  0  0  0  0  0  0  0  0  0  0
  -19.0957   12.0502  -18.4518 C   0  0  0  0  0  0  0  0  0  0  0  0
  -20.0384   12.9337  -17.9474 O   0  0  0  0  0  0  0  0  0  0  0  0
  -21.4693   13.7216  -16.2013 C   0  0  0  0  0  0  0  0  0  0  0  0
  -23.0254   13.6880  -14.4157 C   0  0  0  0  0  0  0  0  0  0  0  0
  -21.8303   13.9694  -14.9487 O   0  0  0  0  0  0  0  0  0  0  0  0
  -15.8552   14.0833  -24.3956 S   0  0  0  0  0  0  0  0  0  0  0  0
  -15.6853   15.7609  -23.7778 C   0  0  0  0  0  0  0  0  0  0  0  0
  -16.9833   16.4104  -23.5053 C   0  0  0  0  0  0  0  0  0  0  0  0
  -17.1800   17.7085  -23.9758 C   0  0  0  0  0  0  0  0  0  0  0  0
  -18.3631   18.3690  -23.7311 C   0  0  0  0  0  0  0  0  0  0  0  0
  -19.3931   17.8000  -23.0264 C   0  0  0  0  0  0  0  0  0  0  0  0
  -19.1922   16.5149  -22.5628 C   0  0  0  0  0  0  0  0  0  0  0  0
  -18.0043   15.8467  -22.8057 C   0  0  0  0  0  0  0  0  0  0  0  0
  -20.6647   18.4500  -22.7503 C   0  0  0  0  0  0  0  0  0  0  0  0
  -21.7256   18.3467  -23.6598 C   0  0  0  0  0  0  0  0  0  0  0  0
  -22.9376   18.9427  -23.4089 C   0  0  0  0  0  0  0  0  0  0  0  0
  -23.1703   19.6666  -22.2601 C   0  0  0  0  0  0  0  0  0  0  0  0
  -22.1383   19.7773  -21.3575 C   0  0  0  0  0  0  0  0  0  0  0  0
  -20.9026   19.1721  -21.6092 C   0  0  0  0  0  0  0  0  0  0  0  0
  -19.8492   19.3287  -20.6417 C   0  0  0  0  0  0  0  0  0  0  0  0
  -19.0135   19.4523  -19.8404 N   0  0  0  0  0  0  0  0  0  0  0  0
 17 18  1  0  0  0
 18 16  1  0  0  0
 16  6  1  0  0  0
  6  7  1  0  0  0
  7  8  1  0  0  0
  8  9  1  0  0  0
  9 10  2  0  0  0
 10 11  1  0  0  0
 11 12  2  0  0  0
 12  1  1  0  0  0
  1  2  2  0  0  0
  2  3  1  0  0  0
  3  4  2  0  0  0
  4 19  1  0  0  0
 19 20  1  0  0  0
 20 21  1  0  0  0
 21 22  2  0  0  0
 22 23  1  0  0  0
 23 24  2  0  0  0
 24 27  1  0  0  0
 27 28  2  0  0  0
 28 29  1  0  0  0
 29 30  2  0  0  0
 30 31  1  0  0  0
 31 32  2  0  0  0
 32 33  1  0  0  0
 33 34  3  0  0  0
 24 25  1  0  0  0
 25 26  2  0  0  0
  4  5  1  0  0  0
 12 13  1  0  0  0
 13 14  2  0  0  0
 14 15  1  0  0  0
 15  6  1  0  0  0
 14  9  1  0  0  0
  5  1  1  0  0  0
 26 21  1  0  0  0
 32 27  1  0  0  0
M  END
> <minimizedAffinity>
-7.75561

> <CNNscore>
0.5205105543

> <CNNaffinity>
7.1327843666

> <CNN_VS>
3.7126896381

> <CNNaffinity_variance>
0.2066830099

$$$$
[H]c1c([H])c([H])c(-c2c([H])c([H])c(C([H])([H])Sc3nnc(-c4c([H])c([H])c5c(c4[H])O[C@@]([H])(C([H])([H])OC([H])([H])[H])C([H])([H])O5)o3)c([H])c2[H])c(C#N)c1[H]


 34 38  0  0  0  0  0  0  0  0999 V2000
  -17.3990   11.9426  -20.4587 C   0  0  0  0  0  0  0  0  0  0  0  0
  -16.7833   10.7647  -20.5490 N   0  0  0  0  0  0  0  0  0  0  0  0
  -17.1658   10.0222  -19.5330 N   0  0  0  0  0  0  0  0  0  0  0  0
  -18.0262   10.7279  -18.7946 C   0  0  0  0  0  0  0  0  0  0  0  0
  -18.1381   11.9091  -19.4080 O   0  0  0  0  0  0  0  0  0  0  0  0
  -16.4012   14.6695  -25.8458 C   0  0  0  0  0  0  0  0  0  0  0  0
  -17.1813   15.9111  -25.4389 C   0  0  0  0  0  0  0  0  0  0  0  0
  -16.7936   16.2031  -24.0823 O   0  0  0  0  0  0  0  0  0  0  0  0
  -16.9405   15.1732  -23.1702 C   0  0  0  0  0  0  0  0  0  0  0  0
  -16.9661   15.4257  -21.7952 C   0  0  0  0  0  0  0  0  0  0  0  0
  -17.1160   14.3484  -20.9465 C   0  0  0  0  0  0  0  0  0  0  0  0
  -17.2384   13.0583  -21.4077 C   0  0  0  0  0  0  0  0  0  0  0  0
  -17.2105   12.8378  -22.7484 C   0  0  0  0  0  0  0  0  0  0  0  0
  -17.0617   13.8872  -23.6517 C   0  0  0  0  0  0  0  0  0  0  0  0
  -17.0366   13.6357  -25.0155 O   0  0  0  0  0  0  0  0  0  0  0  0
  -16.5860   14.2846  -27.2723 C   0  0  0  0  0  0  0  0  0  0  0  0
  -15.3351   15.7380  -28.6628 C   0  0  0  0  0  0  0  0  0  0  0  0
  -16.4769   15.1743  -28.2507 O   0  0  0  0  0  0  0  0  0  0  0  0
  -18.8573   10.2279  -17.3112 S   0  0  0  0  0  0  0  0  0  0  0  0
  -20.2338   11.2844  -16.8486 C   0  0  0  0  0  0  0  0  0  0  0  0
  -19.9787   12.7146  -17.1134 C   0  0  0  0  0  0  0  0  0  0  0  0
  -20.8840   13.4052  -17.9190 C   0  0  0  0  0  0  0  0  0  0  0  0
  -20.6828   14.7346  -18.2158 C   0  0  0  0  0  0  0  0  0  0  0  0
  -19.6044   15.4399  -17.7460 C   0  0  0  0  0  0  0  0  0  0  0  0
  -18.7115   14.7508  -16.9494 C   0  0  0  0  0  0  0  0  0  0  0  0
  -18.9090   13.4140  -16.6485 C   0  0  0  0  0  0  0  0  0  0  0  0
  -19.3521   16.8458  -18.0211 C   0  0  0  0  0  0  0  0  0  0  0  0
  -18.7596   17.2362  -19.2293 C   0  0  0  0  0  0  0  0  0  0  0  0
  -18.5265   18.5603  -19.5114 C   0  0  0  0  0  0  0  0  0  0  0  0
  -18.8602   19.5638  -18.6285 C   0  0  0  0  0  0  0  0  0  0  0  0
  -19.4424   19.1963  -17.4378 C   0  0  0  0  0  0  0  0  0  0  0  0
  -19.6814   17.8492  -17.1464 C   0  0  0  0  0  0  0  0  0  0  0  0
  -20.2793   17.5137  -15.8814 C   0  0  0  0  0  0  0  0  0  0  0  0
  -20.7507   17.2611  -14.8472 N   0  0  0  0  0  0  0  0  0  0  0  0
 17 18  1  0  0  0
 18 16  1  0  0  0
 16  6  1  0  0  0
  6  7  1  0  0  0
  7  8  1  0  0  0
  8  9  1  0  0  0
  9 10  2  0  0  0
 10 11  1  0  0  0
 11 12  2  0  0  0
 12  1  1  0  0  0
  1  2  2  0  0  0
  2  3  1  0  0  0
  3  4  2  0  0  0
  4 19  1  0  0  0
 19 20  1  0  0  0
 20 21  1  0  0  0
 21 22  2  0  0  0
 22 23  1  0  0  0
 23 24  2  0  0  0
 24 27  1  0  0  0
 27 28  2  0  0  0
 28 29  1  0  0  0
 29 30  2  0  0  0
 30 31  1  0  0  0
 31 32  2  0  0  0
 32 33  1  0  0  0
 33 34  3  0  0  0
 24 25  1  0  0  0
 25 26  2  0  0  0
  4  5  1  0  0  0
 12 13  1  0  0  0
 13 14  2  0  0  0
 14 15  1  0  0  0
 15  6  1  0  0  0
 14  9  1  0  0  0
  5  1  1  0  0  0
 26 21  1  0  0  0
 32 27  1  0  0  0
M  END
> <minimizedAffinity>
-7.52602

> <CNNscore>
0.4061402977

> <CNNaffinity>
7.1886076927

> <CNN_VS>
2.9195833206

> <CNNaffinity_variance>
0.3062929511

$$$$
[H]c1c([H])c([H])c(-c2c([H])c([H])c(C([H])([H])Sc3nnc(-c4c([H])c([H])c5c(c4[H])O[C@@]([H])(C([H])([H])OC([H])([H])[H])C([H])([H])O5)o3)c([H])c2[H])c(C#N)c1[H]


 34 38  0  0  0  0  0  0  0  0999 V2000
  -17.5707   10.9295  -19.5822 C   0  0  0  0  0  0  0  0  0  0  0  0
  -16.3932   10.3859  -19.8870 N   0  0  0  0  0  0  0  0  0  0  0  0
  -15.9846   10.9026  -21.0253 N   0  0  0  0  0  0  0  0  0  0  0  0
  -16.9027   11.7764  -21.4461 C   0  0  0  0  0  0  0  0  0  0  0  0
  -17.8646   11.7578  -20.5196 O   0  0  0  0  0  0  0  0  0  0  0  0
  -21.3225   11.9807  -14.8629 C   0  0  0  0  0  0  0  0  0  0  0  0
  -21.7870   10.5321  -14.8215 C   0  0  0  0  0  0  0  0  0  0  0  0
  -20.6064    9.7259  -15.0012 O   0  0  0  0  0  0  0  0  0  0  0  0
  -19.8469    9.9976  -16.1253 C   0  0  0  0  0  0  0  0  0  0  0  0
  -18.9201    9.0701  -16.6110 C   0  0  0  0  0  0  0  0  0  0  0  0
  -18.1991    9.4111  -17.7368 C   0  0  0  0  0  0  0  0  0  0  0  0
  -18.3644   10.6150  -18.3812 C   0  0  0  0  0  0  0  0  0  0  0  0
  -19.2710   11.5005  -17.8902 C   0  0  0  0  0  0  0  0  0  0  0  0
  -20.0267   11.2096  -16.7572 C   0  0  0  0  0  0  0  0  0  0  0  0
  -20.9459   12.1302  -16.2762 O   0  0  0  0  0  0  0  0  0  0  0  0
  -22.4007   12.9658  -14.5725 C   0  0  0  0  0  0  0  0  0  0  0  0
  -21.9820   15.0369  -15.6431 C   0  0  0  0  0  0  0  0  0  0  0  0
  -22.1630   14.2711  -14.5603 O   0  0  0  0  0  0  0  0  0  0  0  0
  -16.8759   12.7640  -22.9176 S   0  0  0  0  0  0  0  0  0  0  0  0
  -16.5669   14.5088  -22.6258 C   0  0  0  0  0  0  0  0  0  0  0  0
  -17.7517   15.2280  -22.1162 C   0  0  0  0  0  0  0  0  0  0  0  0
  -18.3454   16.1833  -22.9411 C   0  0  0  0  0  0  0  0  0  0  0  0
  -19.4392   16.8985  -22.5075 C   0  0  0  0  0  0  0  0  0  0  0  0
  -19.9951   16.7158  -21.2671 C   0  0  0  0  0  0  0  0  0  0  0  0
  -19.4027   15.7691  -20.4549 C   0  0  0  0  0  0  0  0  0  0  0  0
  -18.3025   15.0478  -20.8858 C   0  0  0  0  0  0  0  0  0  0  0  0
  -21.1548   17.4368  -20.7661 C   0  0  0  0  0  0  0  0  0  0  0  0
  -22.4493   16.9840  -21.0536 C   0  0  0  0  0  0  0  0  0  0  0  0
  -23.5556   17.6447  -20.5775 C   0  0  0  0  0  0  0  0  0  0  0  0
  -23.4502   18.7769  -19.7997 C   0  0  0  0  0  0  0  0  0  0  0  0
  -22.1859   19.2340  -19.5090 C   0  0  0  0  0  0  0  0  0  0  0  0
  -21.0567   18.5643  -19.9919 C   0  0  0  0  0  0  0  0  0  0  0  0
  -19.7557   19.0896  -19.6733 C   0  0  0  0  0  0  0  0  0  0  0  0
  -18.7009   19.4980  -19.3968 N   0  0  0  0  0  0  0  0  0  0  0  0
 17 18  1  0  0  0
 18 16  1  0  0  0
 16  6  1  0  0  0
  6  7  1  0  0  0
  7  8  1  0  0  0
  8  9  1  0  0  0
  9 10  2  0  0  0
 10 11  1  0  0  0
 11 12  2  0  0  0
 12  1  1  0  0  0
  1  2  2  0  0  0
  2  3  1  0  0  0
  3  4  2  0  0  0
  4 19  1  0  0  0
 19 20  1  0  0  0
 20 21  1  0  0  0
 21 22  2  0  0  0
 22 23  1  0  0  0
 23 24  2  0  0  0
 24 27  1  0  0  0
 27 28  2  0  0  0
 28 29  1  0  0  0
 29 30  2  0  0  0
 30 31  1  0  0  0
 31 32  2  0  0  0
 32 33  1  0  0  0
 33 34  3  0  0  0
 24 25  1  0  0  0
 25 26  2  0  0  0
  4  5  1  0  0  0
 12 13  1  0  0  0
 13 14  2  0  0  0
 14 15  1  0  0  0
 15  6  1  0  0  0
 14  9  1  0  0  0
  5  1  1  0  0  0
 26 21  1  0  0  0
 32 27  1  0  0  0
M  END
> <minimizedAffinity>
-7.33748

> <CNNscore>
0.4043869972

> <CNNaffinity>
6.7123541832

> <CNN_VS>
2.7143888474

> <CNNaffinity_variance>
0.0963351279

$$$$
[H]c1c([H])c([H])c(-c2c([H])c([H])c(C([H])([H])Sc3nnc(-c4c([H])c([H])c5c(c4[H])O[C@@]([H])(C([H])([H])OC([H])([H])[H])C([H])([H])O5)o3)c([H])c2[H])c(C#N)c1[H]


 34 38  0  0  0  0  0  0  0  0999 V2000
  -17.1141   12.7301  -22.1876 C   0  0  0  0  0  0  0  0  0  0  0  0
  -16.0022   12.0659  -22.4996 N   0  0  0  0  0  0  0  0  0  0  0  0
  -15.5887   12.4864  -23.6753 N   0  0  0  0  0  0  0  0  0  0  0  0
  -16.4382   13.4195  -24.1127 C   0  0  0  0  0  0  0  0  0  0  0  0
  -17.3646   13.5350  -23.1575 O   0  0  0  0  0  0  0  0  0  0  0  0
  -19.1831    9.8628  -17.1925 C   0  0  0  0  0  0  0  0  0  0  0  0
  -19.4682   11.1741  -16.4748 C   0  0  0  0  0  0  0  0  0  0  0  0
  -20.0720   12.0444  -17.4516 O   0  0  0  0  0  0  0  0  0  0  0  0
  -19.3598   12.2352  -18.6223 C   0  0  0  0  0  0  0  0  0  0  0  0
  -19.6327   13.3177  -19.4642 C   0  0  0  0  0  0  0  0  0  0  0  0
  -18.8811   13.4430  -20.6143 C   0  0  0  0  0  0  0  0  0  0  0  0
  -17.8902   12.5494  -20.9482 C   0  0  0  0  0  0  0  0  0  0  0  0
  -17.6433   11.5051  -20.1142 C   0  0  0  0  0  0  0  0  0  0  0  0
  -18.3707   11.3289  -18.9398 C   0  0  0  0  0  0  0  0  0  0  0  0
  -18.0991   10.2549  -18.1052 O   0  0  0  0  0  0  0  0  0  0  0  0
  -18.6616    8.7908  -16.3004 C   0  0  0  0  0  0  0  0  0  0  0  0
  -19.4421    8.2047  -14.1421 C   0  0  0  0  0  0  0  0  0  0  0  0
  -18.6793    8.9175  -14.9797 O   0  0  0  0  0  0  0  0  0  0  0  0
  -16.3739   14.3271  -25.6336 S   0  0  0  0  0  0  0  0  0  0  0  0
  -16.4086   16.1106  -25.4268 C   0  0  0  0  0  0  0  0  0  0  0  0
  -16.9453   16.5299  -24.1165 C   0  0  0  0  0  0  0  0  0  0  0  0
  -16.0380   16.8306  -23.1008 C   0  0  0  0  0  0  0  0  0  0  0  0
  -16.4843   17.2057  -21.8534 C   0  0  0  0  0  0  0  0  0  0  0  0
  -17.8173   17.3032  -21.5457 C   0  0  0  0  0  0  0  0  0  0  0  0
  -18.7106   17.0038  -22.5553 C   0  0  0  0  0  0  0  0  0  0  0  0
  -18.2670   16.6257  -23.8110 C   0  0  0  0  0  0  0  0  0  0  0  0
  -18.3396   17.7046  -20.2489 C   0  0  0  0  0  0  0  0  0  0  0  0
  -18.4132   16.7810  -19.1978 C   0  0  0  0  0  0  0  0  0  0  0  0
  -18.8911   17.1462  -17.9627 C   0  0  0  0  0  0  0  0  0  0  0  0
  -19.3190   18.4283  -17.6963 C   0  0  0  0  0  0  0  0  0  0  0  0
  -19.2532   19.3466  -18.7183 C   0  0  0  0  0  0  0  0  0  0  0  0
  -18.7674   18.9789  -19.9774 C   0  0  0  0  0  0  0  0  0  0  0  0
  -18.7319   19.9712  -21.0187 C   0  0  0  0  0  0  0  0  0  0  0  0
  -18.7059   20.7561  -21.8784 N   0  0  0  0  0  0  0  0  0  0  0  0
 17 18  1  0  0  0
 18 16  1  0  0  0
 16  6  1  0  0  0
  6  7  1  0  0  0
  7  8  1  0  0  0
  8  9  1  0  0  0
  9 10  2  0  0  0
 10 11  1  0  0  0
 11 12  2  0  0  0
 12  1  1  0  0  0
  1  2  2  0  0  0
  2  3  1  0  0  0
  3  4  2  0  0  0
  4 19  1  0  0  0
 19 20  1  0  0  0
 20 21  1  0  0  0
 21 22  2  0  0  0
 22 23  1  0  0  0
 23 24  2  0  0  0
 24 27  1  0  0  0
 27 28  2  0  0  0
 28 29  1  0  0  0
 29 30  2  0  0  0
 30 31  1  0  0  0
 31 32  2  0  0  0
 32 33  1  0  0  0
 33 34  3  0  0  0
 24 25  1  0  0  0
 25 26  2  0  0  0
  4  5  1  0  0  0
 12 13  1  0  0  0
 13 14  2  0  0  0
 14 15  1  0  0  0
 15  6  1  0  0  0
 14  9  1  0  0  0
  5  1  1  0  0  0
 26 21  1  0  0  0
 32 27  1  0  0  0
M  END
> <minimizedAffinity>
-8.55679

> <CNNscore>
0.3910219371

> <CNNaffinity>
7.0242071152

> <CNN_VS>
2.7466189861

> <CNNaffinity_variance>
0.1966031492

$$$$
[H]c1c([H])c([H])c(C2([H])C([H])([H])[C@]2([H])N([H])C([H])([H])c2c([H])c([H])c(OC([H])([H])[H])c3c([H])c([H])c([H])c([H])c23)c([H])c1[H]


 24 27  0  0  0  0  0  0  0  0999 V2000
  -17.1905   10.9007  -19.5451 C   0  0  0  0  0  0  0  0  0  0  0  0
  -17.1630   12.1141  -20.1862 C   0  0  0  0  0  0  0  0  0  0  0  0
  -18.0095   13.1555  -19.8326 C   0  0  0  0  0  0  0  0  0  0  0  0
  -18.9198   13.0036  -18.8109 C   0  0  0  0  0  0  0  0  0  0  0  0
  -18.9543   11.7723  -18.1534 C   0  0  0  0  0  0  0  0  0  0  0  0
  -19.8696   11.6301  -17.1309 C   0  0  0  0  0  0  0  0  0  0  0  0
  -19.8912   10.4026  -16.4886 C   0  0  0  0  0  0  0  0  0  0  0  0
  -19.0548    9.3716  -16.8366 C   0  0  0  0  0  0  0  0  0  0  0  0
  -18.1456    9.5280  -17.8600 C   0  0  0  0  0  0  0  0  0  0  0  0
  -18.1063   10.7578  -18.5219 C   0  0  0  0  0  0  0  0  0  0  0  0
  -15.5799    9.9382  -21.1048 C   0  0  0  0  0  0  0  0  0  0  0  0
  -16.3338    9.8555  -19.9073 O   0  0  0  0  0  0  0  0  0  0  0  0
  -19.8365   14.1002  -18.3988 C   0  0  0  0  0  0  0  0  0  0  0  0
  -19.0901   15.3140  -18.2814 N   0  0  0  0  0  0  0  0  0  0  0  0
  -18.1670   15.1853  -17.7971 H   0  0  0  0  0  0  0  0  0  0  0  0
  -18.9507   16.0390  -19.5148 C   0  0  0  0  0  0  0  0  0  0  0  0
  -18.4567   17.4761  -19.3122 C   0  0  0  0  0  0  0  0  0  0  0  0
  -17.6556   16.4772  -20.0600 C   0  0  0  0  0  0  0  0  0  0  0  0
  -17.5503   16.5934  -21.5336 C   0  0  0  0  0  0  0  0  0  0  0  0
  -16.3785   16.8725  -22.1979 C   0  0  0  0  0  0  0  0  0  0  0  0
  -16.3071   16.9747  -23.5595 C   0  0  0  0  0  0  0  0  0  0  0  0
  -17.4280   16.7976  -24.3207 C   0  0  0  0  0  0  0  0  0  0  0  0
  -18.6181   16.5166  -23.6847 C   0  0  0  0  0  0  0  0  0  0  0  0
  -18.6735   16.4166  -22.3062 C   0  0  0  0  0  0  0  0  0  0  0  0
 11 12  1  0  0  0
 12  1  1  0  0  0
  1  2  2  0  0  0
  2  3  1  0  0  0
  3  4  2  0  0  0
  4 13  1  0  0  0
 13 14  1  0  0  0
 14 16  1  0  0  0
 16 17  1  0  0  0
 17 18  1  0  0  0
 18 19  1  0  0  0
 19 20  2  0  0  0
 20 21  1  0  0  0
 21 22  2  0  0  0
 22 23  1  0  0  0
 23 24  2  0  0  0
  4  5  1  0  0  0
  5  6  2  0  0  0
  6  7  1  0  0  0
  7  8  2  0  0  0
  8  9  1  0  0  0
  9 10  2  0  0  0
 10  1  1  0  0  0
 18 16  1  0  0  0
 24 19  1  0  0  0
 10  5  1  0  0  0
 14 15  1  0  0  0
M  END
> <minimizedAffinity>
-7.57488

> <CNNscore>
0.4932937622

> <CNNaffinity>
5.8745470047

> <CNN_VS>
2.8978774548

> <CNNaffinity_variance>
0.2463455647

$$$$
[H]c1c([H])c([H])c(C2([H])C([H])([H])[C@]2([H])N([H])C([H])([H])c2c([H])c([H])c(OC([H])([H])[H])c3c([H])c([H])c([H])c([H])c23)c([H])c1[H]


 24 27  0  0  0  0  0  0  0  0999 V2000
  -18.2990   10.9179  -18.1319 C   0  0  0  0  0  0  0  0  0  0  0  0
  -19.2667   11.8358  -17.8079 C   0  0  0  0  0  0  0  0  0  0  0  0
  -19.6062   12.8813  -18.6551 C   0  0  0  0  0  0  0  0  0  0  0  0
  -18.9732   13.0351  -19.8680 C   0  0  0  0  0  0  0  0  0  0  0  0
  -17.9875   12.1056  -20.2054 C   0  0  0  0  0  0  0  0  0  0  0  0
  -17.3592   12.2683  -21.4230 C   0  0  0  0  0  0  0  0  0  0  0  0
  -16.3837   11.3377  -21.7429 C   0  0  0  0  0  0  0  0  0  0  0  0
  -16.0467   10.3031  -20.9066 C   0  0  0  0  0  0  0  0  0  0  0  0
  -16.6826   10.1531  -19.6935 C   0  0  0  0  0  0  0  0  0  0  0  0
  -17.6700   11.0802  -19.3501 C   0  0  0  0  0  0  0  0  0  0  0  0
  -18.9548    8.9435  -16.8571 C   0  0  0  0  0  0  0  0  0  0  0  0
  -17.9623    9.8664  -17.2724 O   0  0  0  0  0  0  0  0  0  0  0  0
  -19.3168   14.1380  -20.8051 C   0  0  0  0  0  0  0  0  0  0  0  0
  -18.6343   15.3267  -20.3984 N   0  0  0  0  0  0  0  0  0  0  0  0
  -18.1622   15.2322  -19.4649 H   0  0  0  0  0  0  0  0  0  0  0  0
  -17.7481   15.8646  -21.3942 C   0  0  0  0  0  0  0  0  0  0  0  0
  -16.5725   16.6430  -20.7920 C   0  0  0  0  0  0  0  0  0  0  0  0
  -16.3620   15.4069  -21.5835 C   0  0  0  0  0  0  0  0  0  0  0  0
  -15.7992   15.5122  -22.9504 C   0  0  0  0  0  0  0  0  0  0  0  0
  -15.9708   16.6059  -23.7669 C   0  0  0  0  0  0  0  0  0  0  0  0
  -15.4410   16.6791  -25.0252 C   0  0  0  0  0  0  0  0  0  0  0  0
  -14.7058   15.6400  -25.5218 C   0  0  0  0  0  0  0  0  0  0  0  0
  -14.5157   14.5294  -24.7280 C   0  0  0  0  0  0  0  0  0  0  0  0
  -15.0584   14.4709  -23.4570 C   0  0  0  0  0  0  0  0  0  0  0  0
 11 12  1  0  0  0
 12  1  1  0  0  0
  1  2  2  0  0  0
  2  3  1  0  0  0
  3  4  2  0  0  0
  4 13  1  0  0  0
 13 14  1  0  0  0
 14 16  1  0  0  0
 16 17  1  0  0  0
 17 18  1  0  0  0
 18 19  1  0  0  0
 19 20  2  0  0  0
 20 21  1  0  0  0
 21 22  2  0  0  0
 22 23  1  0  0  0
 23 24  2  0  0  0
  4  5  1  0  0  0
  5  6  2  0  0  0
  6  7  1  0  0  0
  7  8  2  0  0  0
  8  9  1  0  0  0
  9 10  2  0  0  0
 10  1  1  0  0  0
 18 16  1  0  0  0
 24 19  1  0  0  0
 10  5  1  0  0  0
 14 15  1  0  0  0
M  END
> <minimizedAffinity>
-8.55461

> <CNNscore>
0.4222052097

> <CNNaffinity>
5.9375596046

> <CNN_VS>
2.5068686008

> <CNNaffinity_variance>
0.1339462996

$$$$
[H]c1c([H])c([H])c(C2([H])C([H])([H])[C@]2([H])N([H])C([H])([H])c2c([H])c([H])c(OC([H])([H])[H])c3c([H])c([H])c([H])c([H])c23)c([H])c1[H]


 24 27  0  0  0  0  0  0  0  0999 V2000
  -17.5376   13.1625  -21.6338 C   0  0  0  0  0  0  0  0  0  0  0  0
  -17.8076   14.0404  -20.6139 C   0  0  0  0  0  0  0  0  0  0  0  0
  -18.0005   15.3964  -20.8382 C   0  0  0  0  0  0  0  0  0  0  0  0
  -17.9258   15.9142  -22.1118 C   0  0  0  0  0  0  0  0  0  0  0  0
  -17.6516   15.0279  -23.1551 C   0  0  0  0  0  0  0  0  0  0  0  0
  -17.5791   15.5565  -24.4275 C   0  0  0  0  0  0  0  0  0  0  0  0
  -17.3062   14.6639  -25.4516 C   0  0  0  0  0  0  0  0  0  0  0  0
  -17.1154   13.3227  -25.2318 C   0  0  0  0  0  0  0  0  0  0  0  0
  -17.1908   12.8088  -23.9556 C   0  0  0  0  0  0  0  0  0  0  0  0
  -17.4648   13.6908  -22.9072 C   0  0  0  0  0  0  0  0  0  0  0  0
  -17.0083   11.3397  -20.1006 C   0  0  0  0  0  0  0  0  0  0  0  0
  -17.3444   11.7966  -21.3996 O   0  0  0  0  0  0  0  0  0  0  0  0
  -18.1355   17.3601  -22.3911 C   0  0  0  0  0  0  0  0  0  0  0  0
  -19.3424   17.7887  -21.7557 N   0  0  0  0  0  0  0  0  0  0  0  0
  -19.2752   18.7565  -21.3530 H   0  0  0  0  0  0  0  0  0  0  0  0
  -20.5207   17.6255  -22.5627 C   0  0  0  0  0  0  0  0  0  0  0  0
  -21.8194   17.7333  -21.7551 C   0  0  0  0  0  0  0  0  0  0  0  0
  -21.4855   18.7063  -22.8231 C   0  0  0  0  0  0  0  0  0  0  0  0
  -22.2261   18.6526  -24.1056 C   0  0  0  0  0  0  0  0  0  0  0  0
  -22.7854   17.5056  -24.6194 C   0  0  0  0  0  0  0  0  0  0  0  0
  -23.4646   17.4819  -25.8059 C   0  0  0  0  0  0  0  0  0  0  0  0
  -23.6115   18.6278  -26.5356 C   0  0  0  0  0  0  0  0  0  0  0  0
  -23.0624   19.7940  -26.0476 C   0  0  0  0  0  0  0  0  0  0  0  0
  -22.3782   19.8012  -24.8454 C   0  0  0  0  0  0  0  0  0  0  0  0
 11 12  1  0  0  0
 12  1  1  0  0  0
  1  2  2  0  0  0
  2  3  1  0  0  0
  3  4  2  0  0  0
  4 13  1  0  0  0
 13 14  1  0  0  0
 14 16  1  0  0  0
 16 17  1  0  0  0
 17 18  1  0  0  0
 18 19  1  0  0  0
 19 20  2  0  0  0
 20 21  1  0  0  0
 21 22  2  0  0  0
 22 23  1  0  0  0
 23 24  2  0  0  0
  4  5  1  0  0  0
  5  6  2  0  0  0
  6  7  1  0  0  0
  7  8  2  0  0  0
  8  9  1  0  0  0
  9 10  2  0  0  0
 10  1  1  0  0  0
 18 16  1  0  0  0
 24 19  1  0  0  0
 10  5  1  0  0  0
 14 15  1  0  0  0
M  END
> <minimizedAffinity>
-7.40796

> <CNNscore>
0.4166041017

> <CNNaffinity>
5.4487137794

> <CNN_VS>
2.2699565887

> <CNNaffinity_variance>
0.1584377438

$$$$
[H]c1c([H])c([H])c(C2([H])C([H])([H])[C@]2([H])N([H])C([H])([H])c2c([H])c([H])c(OC([H])([H])[H])c3c([H])c([H])c([H])c([H])c23)c([H])c1[H]


 24 27  0  0  0  0  0  0  0  0999 V2000
  -19.9221   13.1186  -18.1958 C   0  0  0  0  0  0  0  0  0  0  0  0
  -20.7436   12.8662  -17.1256 C   0  0  0  0  0  0  0  0  0  0  0  0
  -20.6707   11.6845  -16.4012 C   0  0  0  0  0  0  0  0  0  0  0  0
  -19.7576   10.7106  -16.7378 C   0  0  0  0  0  0  0  0  0  0  0  0
  -18.9181   10.9594  -17.8253 C   0  0  0  0  0  0  0  0  0  0  0  0
  -18.0064    9.9775  -18.1544 C   0  0  0  0  0  0  0  0  0  0  0  0
  -17.1807   10.2398  -19.2357 C   0  0  0  0  0  0  0  0  0  0  0  0
  -17.2511   11.4077  -19.9531 C   0  0  0  0  0  0  0  0  0  0  0  0
  -18.1666   12.3796  -19.6129 C   0  0  0  0  0  0  0  0  0  0  0  0
  -19.0097   12.1364  -18.5256 C   0  0  0  0  0  0  0  0  0  0  0  0
  -21.1938   14.6458  -19.6113 C   0  0  0  0  0  0  0  0  0  0  0  0
  -20.0015   14.3125  -18.9211 O   0  0  0  0  0  0  0  0  0  0  0  0
  -19.6452    9.4360  -15.9793 C   0  0  0  0  0  0  0  0  0  0  0  0
  -20.3462    9.5662  -14.7400 N   0  0  0  0  0  0  0  0  0  0  0  0
  -20.9747    8.7502  -14.5342 H   0  0  0  0  0  0  0  0  0  0  0  0
  -19.5043    9.8890  -13.6205 C   0  0  0  0  0  0  0  0  0  0  0  0
  -20.0399   11.0583  -12.7860 C   0  0  0  0  0  0  0  0  0  0  0  0
  -19.9054    9.6955  -12.2175 C   0  0  0  0  0  0  0  0  0  0  0  0
  -18.8250    9.4247  -11.2399 C   0  0  0  0  0  0  0  0  0  0  0  0
  -18.1472    8.2303  -11.1592 C   0  0  0  0  0  0  0  0  0  0  0  0
  -17.1533    8.0048  -10.2478 C   0  0  0  0  0  0  0  0  0  0  0  0
  -16.7946    8.9857   -9.3667 C   0  0  0  0  0  0  0  0  0  0  0  0
  -17.4551   10.1941   -9.4221 C   0  0  0  0  0  0  0  0  0  0  0  0
  -18.4585   10.4064  -10.3503 C   0  0  0  0  0  0  0  0  0  0  0  0
 11 12  1  0  0  0
 12  1  1  0  0  0
  1  2  2  0  0  0
  2  3  1  0  0  0
  3  4  2  0  0  0
  4 13  1  0  0  0
 13 14  1  0  0  0
 14 16  1  0  0  0
 16 17  1  0  0  0
 17 18  1  0  0  0
 18 19  1  0  0  0
 19 20  2  0  0  0
 20 21  1  0  0  0
 21 22  2  0  0  0
 22 23  1  0  0  0
 23 24  2  0  0  0
  4  5  1  0  0  0
  5  6  2  0  0  0
  6  7  1  0  0  0
  7  8  2  0  0  0
  8  9  1  0  0  0
  9 10  2  0  0  0
 10  1  1  0  0  0
 18 16  1  0  0  0
 24 19  1  0  0  0
 10  5  1  0  0  0
 14 15  1  0  0  0
M  END
> <minimizedAffinity>
-7.44310

> <CNNscore>
0.4074693918

> <CNNaffinity>
4.8824982643

> <CNN_VS>
1.9894685745

> <CNNaffinity_variance>
0.1379164755

$$$$
[H]c1c([H])c([H])c(C2([H])C([H])([H])[C@]2([H])N([H])C([H])([H])c2c([H])c([H])c(OC([H])([H])[H])c3c([H])c([H])c([H])c([H])c23)c([H])c1[H]


 24 27  0  0  0  0  0  0  0  0999 V2000
  -18.2807   10.8013  -18.1884 C   0  0  0  0  0  0  0  0  0  0  0  0
  -19.2519   11.7062  -17.8394 C   0  0  0  0  0  0  0  0  0  0  0  0
  -19.5632   12.7994  -18.6358 C   0  0  0  0  0  0  0  0  0  0  0  0
  -18.8970   13.0162  -19.8211 C   0  0  0  0  0  0  0  0  0  0  0  0
  -17.9075   12.1003  -20.1835 C   0  0  0  0  0  0  0  0  0  0  0  0
  -17.2460   12.3261  -21.3731 C   0  0  0  0  0  0  0  0  0  0  0  0
  -16.2672   11.4082  -21.7184 C   0  0  0  0  0  0  0  0  0  0  0  0
  -15.9581   10.3265  -20.9324 C   0  0  0  0  0  0  0  0  0  0  0  0
  -16.6271   10.1136  -19.7468 C   0  0  0  0  0  0  0  0  0  0  0  0
  -17.6184   11.0268  -19.3785 C   0  0  0  0  0  0  0  0  0  0  0  0
  -19.0068    9.0019  -16.7091 C   0  0  0  0  0  0  0  0  0  0  0  0
  -17.9727    9.7014  -17.3802 O   0  0  0  0  0  0  0  0  0  0  0  0
  -19.2097   14.1717  -20.7040 C   0  0  0  0  0  0  0  0  0  0  0  0
  -19.1567   15.3756  -19.9347 N   0  0  0  0  0  0  0  0  0  0  0  0
  -18.1872   15.7720  -19.8555 H   0  0  0  0  0  0  0  0  0  0  0  0
  -20.1111   16.3722  -20.3375 C   0  0  0  0  0  0  0  0  0  0  0  0
  -19.5228   17.7877  -20.3665 C   0  0  0  0  0  0  0  0  0  0  0  0
  -20.0178   17.1266  -21.5980 C   0  0  0  0  0  0  0  0  0  0  0  0
  -21.2902   17.5868  -22.2026 C   0  0  0  0  0  0  0  0  0  0  0  0
  -22.5105   17.5055  -21.5729 C   0  0  0  0  0  0  0  0  0  0  0  0
  -23.6713   17.9373  -22.1522 C   0  0  0  0  0  0  0  0  0  0  0  0
  -23.6525   18.4769  -23.4075 C   0  0  0  0  0  0  0  0  0  0  0  0
  -22.4449   18.5722  -24.0651 C   0  0  0  0  0  0  0  0  0  0  0  0
  -21.2794   18.1307  -23.4650 C   0  0  0  0  0  0  0  0  0  0  0  0
 11 12  1  0  0  0
 12  1  1  0  0  0
  1  2  2  0  0  0
  2  3  1  0  0  0
  3  4  2  0  0  0
  4 13  1  0  0  0
 13 14  1  0  0  0
 14 16  1  0  0  0
 16 17  1  0  0  0
 17 18  1  0  0  0
 18 19  1  0  0  0
 19 20  2  0  0  0
 20 21  1  0  0  0
 21 22  2  0  0  0
 22 23  1  0  0  0
 23 24  2  0  0  0
  4  5  1  0  0  0
  5  6  2  0  0  0
  6  7  1  0  0  0
  7  8  2  0  0  0
  8  9  1  0  0  0
  9 10  2  0  0  0
 10  1  1  0  0  0
 18 16  1  0  0  0
 24 19  1  0  0  0
 10  5  1  0  0  0
 14 15  1  0  0  0
M  END
> <minimizedAffinity>
-7.24644

> <CNNscore>
0.4056948423

> <CNNaffinity>
5.5248923302

> <CNN_VS>
2.2414202690

> <CNNaffinity_variance>
0.0554046854

$$$$
[H]c1c([H])c([H])c(C2([H])C([H])([H])[C@]2([H])N([H])C([H])([H])c2c([H])c([H])c(OC([H])([H])[H])c3c([H])c([H])c([H])c([H])c23)c([H])c1[H]


 24 27  0  0  0  0  0  0  0  0999 V2000
  -15.8316   15.7416  -26.1913 C   0  0  0  0  0  0  0  0  0  0  0  0
  -15.8760   16.8666  -25.4063 C   0  0  0  0  0  0  0  0  0  0  0  0
  -16.7217   16.9698  -24.3107 C   0  0  0  0  0  0  0  0  0  0  0  0
  -17.5580   15.9306  -23.9698 C   0  0  0  0  0  0  0  0  0  0  0  0
  -17.5191   14.7824  -24.7632 C   0  0  0  0  0  0  0  0  0  0  0  0
  -18.3607   13.7466  -24.4132 C   0  0  0  0  0  0  0  0  0  0  0  0
  -18.3101   12.6144  -25.2104 C   0  0  0  0  0  0  0  0  0  0  0  0
  -17.4743   12.5103  -26.2940 C   0  0  0  0  0  0  0  0  0  0  0  0
  -16.6392   13.5530  -26.6318 C   0  0  0  0  0  0  0  0  0  0  0  0
  -16.6735   14.7048  -25.8416 C   0  0  0  0  0  0  0  0  0  0  0  0
  -15.4880   15.8070  -28.6061 C   0  0  0  0  0  0  0  0  0  0  0  0
  -14.9761   15.6450  -27.2943 O   0  0  0  0  0  0  0  0  0  0  0  0
  -18.4712   16.0022  -22.7978 C   0  0  0  0  0  0  0  0  0  0  0  0
  -17.7065   16.2993  -21.6269 N   0  0  0  0  0  0  0  0  0  0  0  0
  -18.1348   17.0541  -21.0352 H   0  0  0  0  0  0  0  0  0  0  0  0
  -17.3535   15.1441  -20.8477 C   0  0  0  0  0  0  0  0  0  0  0  0
  -18.2187   14.9812  -19.5925 C   0  0  0  0  0  0  0  0  0  0  0  0
  -18.2317   13.9747  -20.6812 C   0  0  0  0  0  0  0  0  0  0  0  0
  -17.5740   12.6650  -20.4613 C   0  0  0  0  0  0  0  0  0  0  0  0
  -16.9884   11.9246  -21.4619 C   0  0  0  0  0  0  0  0  0  0  0  0
  -16.3873   10.7180  -21.2334 C   0  0  0  0  0  0  0  0  0  0  0  0
  -16.3496   10.1984  -19.9702 C   0  0  0  0  0  0  0  0  0  0  0  0
  -16.9277   10.9163  -18.9454 C   0  0  0  0  0  0  0  0  0  0  0  0
  -17.5319   12.1357  -19.1933 C   0  0  0  0  0  0  0  0  0  0  0  0
 11 12  1  0  0  0
 12  1  1  0  0  0
  1  2  2  0  0  0
  2  3  1  0  0  0
  3  4  2  0  0  0
  4 13  1  0  0  0
 13 14  1  0  0  0
 14 16  1  0  0  0
 16 17  1  0  0  0
 17 18  1  0  0  0
 18 19  1  0  0  0
 19 20  2  0  0  0
 20 21  1  0  0  0
 21 22  2  0  0  0
 22 23  1  0  0  0
 23 24  2  0  0  0
  4  5  1  0  0  0
  5  6  2  0  0  0
  6  7  1  0  0  0
  7  8  2  0  0  0
  8  9  1  0  0  0
  9 10  2  0  0  0
 10  1  1  0  0  0
 18 16  1  0  0  0
 24 19  1  0  0  0
 10  5  1  0  0  0
 14 15  1  0  0  0
M  END
> <minimizedAffinity>
-8.09508

> <CNNscore>
0.3588263094

> <CNNaffinity>
6.0467596054

> <CNN_VS>
2.1697363853

> <CNNaffinity_variance>
0.1480433047

$$$$
[H]c1c([H])c([H])c(C2([H])C([H])([H])[C@]2([H])N([H])C([H])([H])c2c([H])c([H])c(OC([H])([H])[H])c3c([H])c([H])c([H])c([H])c23)c([H])c1[H]


 24 27  0  0  0  0  0  0  0  0999 V2000
  -19.1246   12.0944  -18.3424 C   0  0  0  0  0  0  0  0  0  0  0  0
  -19.7706   13.2527  -18.6958 C   0  0  0  0  0  0  0  0  0  0  0  0
  -19.4956   13.9196  -19.8815 C   0  0  0  0  0  0  0  0  0  0  0  0
  -18.5502   13.4337  -20.7565 C   0  0  0  0  0  0  0  0  0  0  0  0
  -17.8884   12.2557  -20.4047 C   0  0  0  0  0  0  0  0  0  0  0  0
  -16.9431   11.7768  -21.2883 C   0  0  0  0  0  0  0  0  0  0  0  0
  -16.2954   10.6071  -20.9247 C   0  0  0  0  0  0  0  0  0  0  0  0
  -16.5661    9.9462  -19.7527 C   0  0  0  0  0  0  0  0  0  0  0  0
  -17.5128   10.4362  -18.8798 C   0  0  0  0  0  0  0  0  0  0  0  0
  -18.1785   11.6148  -19.2262 C   0  0  0  0  0  0  0  0  0  0  0  0
  -20.6134   11.6969  -16.4506 C   0  0  0  0  0  0  0  0  0  0  0  0
  -19.4074   11.4278  -17.1453 O   0  0  0  0  0  0  0  0  0  0  0  0
  -18.2355   14.1166  -22.0400 C   0  0  0  0  0  0  0  0  0  0  0  0
  -17.0334   14.8746  -21.8836 N   0  0  0  0  0  0  0  0  0  0  0  0
  -16.4027   14.4973  -21.1332 H   0  0  0  0  0  0  0  0  0  0  0  0
  -16.3235   15.1091  -23.1113 C   0  0  0  0  0  0  0  0  0  0  0  0
  -14.9810   14.3716  -23.1771 C   0  0  0  0  0  0  0  0  0  0  0  0
  -16.0813   14.0683  -24.1237 C   0  0  0  0  0  0  0  0  0  0  0  0
  -15.9650   14.5137  -25.5323 C   0  0  0  0  0  0  0  0  0  0  0  0
  -16.8171   14.1127  -26.5350 C   0  0  0  0  0  0  0  0  0  0  0  0
  -16.6889   14.5381  -27.8281 C   0  0  0  0  0  0  0  0  0  0  0  0
  -15.6833   15.3973  -28.1713 C   0  0  0  0  0  0  0  0  0  0  0  0
  -14.8126   15.8178  -27.1891 C   0  0  0  0  0  0  0  0  0  0  0  0
  -14.9561   15.3781  -25.8854 C   0  0  0  0  0  0  0  0  0  0  0  0
 11 12  1  0  0  0
 12  1  1  0  0  0
  1  2  2  0  0  0
  2  3  1  0  0  0
  3  4  2  0  0  0
  4 13  1  0  0  0
 13 14  1  0  0  0
 14 16  1  0  0  0
 16 17  1  0  0  0
 17 18  1  0  0  0
 18 19  1  0  0  0
 19 20  2  0  0  0
 20 21  1  0  0  0
 21 22  2  0  0  0
 22 23  1  0  0  0
 23 24  2  0  0  0
  4  5  1  0  0  0
  5  6  2  0  0  0
  6  7  1  0  0  0
  7  8  2  0  0  0
  8  9  1  0  0  0
  9 10  2  0  0  0
 10  1  1  0  0  0
 18 16  1  0  0  0
 24 19  1  0  0  0
 10  5  1  0  0  0
 14 15  1  0  0  0
M  END
> <minimizedAffinity>
-8.63019

> <CNNscore>
0.3480701745

> <CNNaffinity>
5.8098602295

> <CNN_VS>
2.0222389698

> <CNNaffinity_variance>
0.1129351109

$$$$
[H]c1c([H])c([H])c(C2([H])C([H])([H])[C@]2([H])N([H])C([H])([H])c2c([H])c([H])c(OC([H])([H])[H])c3c([H])c([H])c([H])c([H])c23)c([H])c1[H]


 24 27  0  0  0  0  0  0  0  0999 V2000
  -17.4457   11.4212  -20.4676 C   0  0  0  0  0  0  0  0  0  0  0  0
  -17.2752   12.1630  -21.6099 C   0  0  0  0  0  0  0  0  0  0  0  0
  -17.9367   13.3658  -21.8150 C   0  0  0  0  0  0  0  0  0  0  0  0
  -18.7999   13.8626  -20.8644 C   0  0  0  0  0  0  0  0  0  0  0  0
  -18.9789   13.1142  -19.6993 C   0  0  0  0  0  0  0  0  0  0  0  0
  -19.8457   13.6206  -18.7528 C   0  0  0  0  0  0  0  0  0  0  0  0
  -20.0123   12.8662  -17.6026 C   0  0  0  0  0  0  0  0  0  0  0  0
  -19.3590   11.6767  -17.3979 C   0  0  0  0  0  0  0  0  0  0  0  0
  -18.4962   11.1831  -18.3521 C   0  0  0  0  0  0  0  0  0  0  0  0
  -18.3129   11.9275  -19.5202 C   0  0  0  0  0  0  0  0  0  0  0  0
  -15.5514    9.9568  -20.9374 C   0  0  0  0  0  0  0  0  0  0  0  0
  -16.7751   10.2095  -20.2681 O   0  0  0  0  0  0  0  0  0  0  0  0
  -19.5191   15.1519  -21.0459 C   0  0  0  0  0  0  0  0  0  0  0  0
  -18.5940   16.2300  -20.8842 N   0  0  0  0  0  0  0  0  0  0  0  0
  -18.0304   16.1606  -20.0006 H   0  0  0  0  0  0  0  0  0  0  0  0
  -17.7622   16.4669  -22.0323 C   0  0  0  0  0  0  0  0  0  0  0  0
  -16.8296   17.6713  -21.8579 C   0  0  0  0  0  0  0  0  0  0  0  0
  -16.3000   16.2967  -22.0277 C   0  0  0  0  0  0  0  0  0  0  0  0
  -15.6620   15.9226  -23.3118 C   0  0  0  0  0  0  0  0  0  0  0  0
  -14.9335   14.7706  -23.4978 C   0  0  0  0  0  0  0  0  0  0  0  0
  -14.3542   14.4474  -24.6934 C   0  0  0  0  0  0  0  0  0  0  0  0
  -14.4855   15.2820  -25.7674 C   0  0  0  0  0  0  0  0  0  0  0  0
  -15.2097   16.4445  -25.6132 C   0  0  0  0  0  0  0  0  0  0  0  0
  -15.7897   16.7569  -24.3969 C   0  0  0  0  0  0  0  0  0  0  0  0
 11 12  1  0  0  0
 12  1  1  0  0  0
  1  2  2  0  0  0
  2  3  1  0  0  0
  3  4  2  0  0  0
  4 13  1  0  0  0
 13 14  1  0  0  0
 14 16  1  0  0  0
 16 17  1  0  0  0
 17 18  1  0  0  0
 18 19  1  0  0  0
 19 20  2  0  0  0
 20 21  1  0  0  0
 21 22  2  0  0  0
 22 23  1  0  0  0
 23 24  2  0  0  0
  4  5  1  0  0  0
  5  6  2  0  0  0
  6  7  1  0  0  0
  7  8  2  0  0  0
  8  9  1  0  0  0
  9 10  2  0  0  0
 10  1  1  0  0  0
 18 16  1  0  0  0
 24 19  1  0  0  0
 10  5  1  0  0  0
 14 15  1  0  0  0
M  END
> <minimizedAffinity>
-7.82727

> <CNNscore>
0.3034661710

> <CNNaffinity>
5.7275567055

> <CNN_VS>
1.7381197214

> <CNNaffinity_variance>
0.1873133481

$$$$
[H]c1c([H])c([H])c(C2([H])C([H])([H])[C@]2([H])N([H])C([H])([H])c2c([H])c([H])c(OC([H])([H])[H])c3c([H])c([H])c([H])c([H])c23)c([H])c1[H]


 24 27  0  0  0  0  0  0  0  0999 V2000
  -17.6329   12.0622  -20.0732 C   0  0  0  0  0  0  0  0  0  0  0  0
  -17.5827   12.3432  -21.4157 C   0  0  0  0  0  0  0  0  0  0  0  0
  -18.0268   13.5515  -21.9345 C   0  0  0  0  0  0  0  0  0  0  0  0
  -18.5412   14.5237  -21.1064 C   0  0  0  0  0  0  0  0  0  0  0  0
  -18.5958   14.2459  -19.7392 C   0  0  0  0  0  0  0  0  0  0  0  0
  -19.1125   15.2266  -18.9177 C   0  0  0  0  0  0  0  0  0  0  0  0
  -19.1598   14.9355  -17.5639 C   0  0  0  0  0  0  0  0  0  0  0  0
  -18.7210   13.7414  -17.0489 C   0  0  0  0  0  0  0  0  0  0  0  0
  -18.2072   12.7711  -17.8814 C   0  0  0  0  0  0  0  0  0  0  0  0
  -18.1500   13.0431  -19.2507 C   0  0  0  0  0  0  0  0  0  0  0  0
  -16.3476   10.0055  -20.3399 C   0  0  0  0  0  0  0  0  0  0  0  0
  -17.1831   10.8417  -19.5577 O   0  0  0  0  0  0  0  0  0  0  0  0
  -19.0184   15.8334  -21.6256 C   0  0  0  0  0  0  0  0  0  0  0  0
  -17.9014   16.5736  -22.1241 N   0  0  0  0  0  0  0  0  0  0  0  0
  -17.0182   16.4025  -21.5819 H   0  0  0  0  0  0  0  0  0  0  0  0
  -17.6941   16.4410  -23.5403 C   0  0  0  0  0  0  0  0  0  0  0  0
  -16.6748   17.4441  -24.0929 C   0  0  0  0  0  0  0  0  0  0  0  0
  -16.4298   15.9824  -24.1388 C   0  0  0  0  0  0  0  0  0  0  0  0
  -16.5178   15.2764  -25.4388 C   0  0  0  0  0  0  0  0  0  0  0  0
  -16.0709   15.8034  -26.6282 C   0  0  0  0  0  0  0  0  0  0  0  0
  -16.1633   15.1316  -27.8155 C   0  0  0  0  0  0  0  0  0  0  0  0
  -16.7174   13.8832  -27.8562 C   0  0  0  0  0  0  0  0  0  0  0  0
  -17.1748   13.3272  -26.6808 C   0  0  0  0  0  0  0  0  0  0  0  0
  -17.0739   14.0201  -25.4879 C   0  0  0  0  0  0  0  0  0  0  0  0
 11 12  1  0  0  0
 12  1  1  0  0  0
  1  2  2  0  0  0
  2  3  1  0  0  0
  3  4  2  0  0  0
  4 13  1  0  0  0
 13 14  1  0  0  0
 14 16  1  0  0  0
 16 17  1  0  0  0
 17 18  1  0  0  0
 18 19  1  0  0  0
 19 20  2  0  0  0
 20 21  1  0  0  0
 21 22  2  0  0  0
 22 23  1  0  0  0
 23 24  2  0  0  0
  4  5  1  0  0  0
  5  6  2  0  0  0
  6  7  1  0  0  0
  7  8  2  0  0  0
  8  9  1  0  0  0
  9 10  2  0  0  0
 10  1  1  0  0  0
 18 16  1  0  0  0
 24 19  1  0  0  0
 10  5  1  0  0  0
 14 15  1  0  0  0
M  END
> <minimizedAffinity>
-7.65629

> <CNNscore>
0.2869993150

> <CNNaffinity>
5.8035645485

> <CNN_VS>
1.6656190157

> <CNNaffinity_variance>
0.1246145591

$$$$
[H]c1nc([H])c([C@@]2([H])N(C([H])([H])[H])C([H])([H])C([H])([H])C2([H])[H])c([H])c1[H]


 12 13  0  0  0  0  0  0  0  0999 V2000
  -17.5639   12.4399  -25.1389 C   0  0  0  0  0  0  0  0  0  0  0  0
  -17.1143   13.6766  -24.6712 N   0  0  0  0  0  0  0  0  0  0  0  0
  -17.6338   14.8571  -25.2346 C   0  0  0  0  0  0  0  0  0  0  0  0
  -18.2301   15.5822  -24.0453 C   0  0  0  0  0  0  0  0  0  0  0  0
  -18.0642   14.6410  -22.8462 C   0  0  0  0  0  0  0  0  0  0  0  0
  -16.8394   13.8451  -23.3028 C   0  0  0  0  0  0  0  0  0  0  0  0
  -16.6148   12.6593  -22.4968 C   0  0  0  0  0  0  0  0  0  0  0  0
  -17.5403   12.2762  -21.5502 C   0  0  0  0  0  0  0  0  0  0  0  0
  -17.3283   11.1327  -20.7656 C   0  0  0  0  0  0  0  0  0  0  0  0
  -16.1775   10.4021  -20.9607 C   0  0  0  0  0  0  0  0  0  0  0  0
  -15.3055   10.7919  -21.8760 N   0  0  0  0  0  0  0  0  0  0  0  0
  -15.4881   11.8847  -22.6396 C   0  0  0  0  0  0  0  0  0  0  0  0
  1  2  1  0  0  0
  2  3  1  0  0  0
  3  4  1  0  0  0
  4  5  1  0  0  0
  5  6  1  0  0  0
  6  7  1  0  0  0
  7  8  2  0  0  0
  8  9  1  0  0  0
  9 10  2  0  0  0
 10 11  1  0  0  0
 11 12  2  0  0  0
  6  2  1  0  0  0
 12  7  1  0  0  0
M  END
> <minimizedAffinity>
-4.77279

> <CNNscore>
0.4943195581

> <CNNaffinity>
4.5217471123

> <CNN_VS>
2.2351880074

> <CNNaffinity_variance>
0.1433152258

$$$$
[H]c1nc([H])c([C@@]2([H])N(C([H])([H])[H])C([H])([H])C([H])([H])C2([H])[H])c([H])c1[H]


 12 13  0  0  0  0  0  0  0  0999 V2000
  -17.5163   16.0554  -23.1643 C   0  0  0  0  0  0  0  0  0  0  0  0
  -16.7751   14.9792  -22.6718 N   0  0  0  0  0  0  0  0  0  0  0  0
  -17.2442   14.2766  -21.5460 C   0  0  0  0  0  0  0  0  0  0  0  0
  -17.3773   12.8536  -22.0492 C   0  0  0  0  0  0  0  0  0  0  0  0
  -17.0350   12.8969  -23.5433 C   0  0  0  0  0  0  0  0  0  0  0  0
  -16.1156   14.1200  -23.5682 C   0  0  0  0  0  0  0  0  0  0  0  0
  -15.8615   14.5972  -24.9150 C   0  0  0  0  0  0  0  0  0  0  0  0
  -16.7162   14.2645  -25.9436 C   0  0  0  0  0  0  0  0  0  0  0  0
  -16.4751   14.7199  -27.2484 C   0  0  0  0  0  0  0  0  0  0  0  0
  -15.3679   15.5052  -27.4796 C   0  0  0  0  0  0  0  0  0  0  0  0
  -14.5635   15.8098  -26.4745 N   0  0  0  0  0  0  0  0  0  0  0  0
  -14.7752   15.3843  -25.2155 C   0  0  0  0  0  0  0  0  0  0  0  0
  1  2  1  0  0  0
  2  3  1  0  0  0
  3  4  1  0  0  0
  4  5  1  0  0  0
  5  6  1  0  0  0
  6  7  1  0  0  0
  7  8  2  0  0  0
  8  9  1  0  0  0
  9 10  2  0  0  0
 10 11  1  0  0  0
 11 12  2  0  0  0
  6  2  1  0  0  0
 12  7  1  0  0  0
M  END
> <minimizedAffinity>
-5.27480

> <CNNscore>
0.4589368701

> <CNNaffinity>
4.6230783463

> <CNN_VS>
2.1217010021

> <CNNaffinity_variance>
0.2493197024

$$$$
[H]c1nc([H])c([C@@]2([H])N(C([H])([H])[H])C([H])([H])C([H])([H])C2([H])[H])c([H])c1[H]


 12 13  0  0  0  0  0  0  0  0999 V2000
  -18.3591   14.4987  -17.4300 C   0  0  0  0  0  0  0  0  0  0  0  0
  -19.6844   14.1248  -17.6622 N   0  0  0  0  0  0  0  0  0  0  0  0
  -20.6898   15.1097  -17.6565 C   0  0  0  0  0  0  0  0  0  0  0  0
  -21.3085   14.9894  -19.0344 C   0  0  0  0  0  0  0  0  0  0  0  0
  -20.4815   13.9363  -19.7817 C   0  0  0  0  0  0  0  0  0  0  0  0
  -19.9687   13.1140  -18.5972 C   0  0  0  0  0  0  0  0  0  0  0  0
  -18.9009   12.2055  -18.9718 C   0  0  0  0  0  0  0  0  0  0  0  0
  -18.2157   12.3872  -20.1537 C   0  0  0  0  0  0  0  0  0  0  0  0
  -17.1843   11.5111  -20.5234 C   0  0  0  0  0  0  0  0  0  0  0  0
  -16.8712   10.4672  -19.6819 C   0  0  0  0  0  0  0  0  0  0  0  0
  -17.5445   10.3154  -18.5532 N   0  0  0  0  0  0  0  0  0  0  0  0
  -18.5372   11.1432  -18.1786 C   0  0  0  0  0  0  0  0  0  0  0  0
  1  2  1  0  0  0
  2  3  1  0  0  0
  3  4  1  0  0  0
  4  5  1  0  0  0
  5  6  1  0  0  0
  6  7  1  0  0  0
  7  8  2  0  0  0
  8  9  1  0  0  0
  9 10  2  0  0  0
 10 11  1  0  0  0
 11 12  2  0  0  0
  6  2  1  0  0  0
 12  7  1  0  0  0
M  END
> <minimizedAffinity>
-4.54241

> <CNNscore>
0.4554599226

> <CNNaffinity>
3.9583868980

> <CNN_VS>
1.8028866053

> <CNNaffinity_variance>
0.0684338063

$$$$
[H]c1nc([H])c([C@@]2([H])N(C([H])([H])[H])C([H])([H])C([H])([H])C2([H])[H])c([H])c1[H]


 12 13  0  0  0  0  0  0  0  0999 V2000
  -15.0254   15.3025  -24.6157 C   0  0  0  0  0  0  0  0  0  0  0  0
  -16.1181   15.3974  -25.4802 N   0  0  0  0  0  0  0  0  0  0  0  0
  -15.8935   15.5485  -26.8614 C   0  0  0  0  0  0  0  0  0  0  0  0
  -16.6031   14.3542  -27.4663 C   0  0  0  0  0  0  0  0  0  0  0  0
  -17.1251   13.5266  -26.2857 C   0  0  0  0  0  0  0  0  0  0  0  0
  -17.2692   14.6288  -25.2338 C   0  0  0  0  0  0  0  0  0  0  0  0
  -17.4679   14.0993  -23.8973 C   0  0  0  0  0  0  0  0  0  0  0  0
  -18.1576   14.8309  -22.9548 C   0  0  0  0  0  0  0  0  0  0  0  0
  -18.3510   14.3264  -21.6601 C   0  0  0  0  0  0  0  0  0  0  0  0
  -17.8377   13.0865  -21.3511 C   0  0  0  0  0  0  0  0  0  0  0  0
  -17.1796   12.4050  -22.2745 N   0  0  0  0  0  0  0  0  0  0  0  0
  -16.9823   12.8691  -23.5221 C   0  0  0  0  0  0  0  0  0  0  0  0
  1  2  1  0  0  0
  2  3  1  0  0  0
  3  4  1  0  0  0
  4  5  1  0  0  0
  5  6  1  0  0  0
  6  7  1  0  0  0
  7  8  2  0  0  0
  8  9  1  0  0  0
  9 10  2  0  0  0
 10 11  1  0  0  0
 11 12  2  0  0  0
  6  2  1  0  0  0
 12  7  1  0  0  0
M  END
> <minimizedAffinity>
-5.27977

> <CNNscore>
0.4398884475

> <CNNaffinity>
4.6859064102

> <CNN_VS>
2.0612761974

> <CNNaffinity_variance>
0.0502603240

$$$$
[H]c1nc([H])c([C@@]2([H])N(C([H])([H])[H])C([H])([H])C([H])([H])C2([H])[H])c([H])c1[H]


 12 13  0  0  0  0  0  0  0  0999 V2000
  -17.8697   15.7364  -22.9453 C   0  0  0  0  0  0  0  0  0  0  0  0
  -16.9968   14.8080  -22.3741 N   0  0  0  0  0  0  0  0  0  0  0  0
  -17.4172   14.0634  -21.2561 C   0  0  0  0  0  0  0  0  0  0  0  0
  -17.2844   12.6269  -21.7195 C   0  0  0  0  0  0  0  0  0  0  0  0
  -16.8579   12.6921  -23.1909 C   0  0  0  0  0  0  0  0  0  0  0  0
  -16.1499   14.0489  -23.2007 C   0  0  0  0  0  0  0  0  0  0  0  0
  -15.8902   14.5308  -24.5447 C   0  0  0  0  0  0  0  0  0  0  0  0
  -14.7948   15.3278  -24.7982 C   0  0  0  0  0  0  0  0  0  0  0  0
  -14.5393   15.7996  -26.0944 C   0  0  0  0  0  0  0  0  0  0  0  0
  -15.4048   15.4501  -27.1068 C   0  0  0  0  0  0  0  0  0  0  0  0
  -16.4487   14.6839  -26.8363 N   0  0  0  0  0  0  0  0  0  0  0  0
  -16.7132   14.2202  -25.6011 C   0  0  0  0  0  0  0  0  0  0  0  0
  1  2  1  0  0  0
  2  3  1  0  0  0
  3  4  1  0  0  0
  4  5  1  0  0  0
  5  6  1  0  0  0
  6  7  1  0  0  0
  7  8  2  0  0  0
  8  9  1  0  0  0
  9 10  2  0  0  0
 10 11  1  0  0  0
 11 12  2  0  0  0
  6  2  1  0  0  0
 12  7  1  0  0  0
M  END
> <minimizedAffinity>
-5.15006

> <CNNscore>
0.3908831775

> <CNNaffinity>
4.5360598564

> <CNN_VS>
1.7730695009

> <CNNaffinity_variance>
0.1840003431

$$$$
[H]c1nc([H])c([C@@]2([H])N(C([H])([H])[H])C([H])([H])C([H])([H])C2([H])[H])c([H])c1[H]


 12 13  0  0  0  0  0  0  0  0999 V2000
  -17.3105   15.0589  -20.6525 C   0  0  0  0  0  0  0  0  0  0  0  0
  -18.3375   14.8939  -19.7207 N   0  0  0  0  0  0  0  0  0  0  0  0
  -19.3955   15.8217  -19.6891 C   0  0  0  0  0  0  0  0  0  0  0  0
  -20.6228   14.9642  -19.9221 C   0  0  0  0  0  0  0  0  0  0  0  0
  -20.1071   13.5422  -20.1729 C   0  0  0  0  0  0  0  0  0  0  0  0
  -18.7865   13.6004  -19.4017 C   0  0  0  0  0  0  0  0  0  0  0  0
  -17.9169   12.4783  -19.7027 C   0  0  0  0  0  0  0  0  0  0  0  0
  -17.1360   11.9187  -18.7145 C   0  0  0  0  0  0  0  0  0  0  0  0
  -16.2910   10.8357  -18.9991 C   0  0  0  0  0  0  0  0  0  0  0  0
  -16.2580   10.3441  -20.2849 C   0  0  0  0  0  0  0  0  0  0  0  0
  -17.0177   10.8996  -21.2147 N   0  0  0  0  0  0  0  0  0  0  0  0
  -17.8353   11.9386  -20.9644 C   0  0  0  0  0  0  0  0  0  0  0  0
  1  2  1  0  0  0
  2  3  1  0  0  0
  3  4  1  0  0  0
  4  5  1  0  0  0
  5  6  1  0  0  0
  6  7  1  0  0  0
  7  8  2  0  0  0
  8  9  1  0  0  0
  9 10  2  0  0  0
 10 11  1  0  0  0
 11 12  2  0  0  0
  6  2  1  0  0  0
 12  7  1  0  0  0
M  END
> <minimizedAffinity>
-4.80157

> <CNNscore>
0.3694101870

> <CNNaffinity>
4.1688728333

> <CNN_VS>
1.5400240421

> <CNNaffinity_variance>
0.0476274267

$$$$
[H]c1nc([H])c([C@@]2([H])N(C([H])([H])[H])C([H])([H])C([H])([H])C2([H])[H])c([H])c1[H]


 12 13  0  0  0  0  0  0  0  0999 V2000
  -17.1740   10.1045  -20.7755 C   0  0  0  0  0  0  0  0  0  0  0  0
  -17.0063   11.4705  -20.5384 N   0  0  0  0  0  0  0  0  0  0  0  0
  -16.7927   12.3379  -21.6260 C   0  0  0  0  0  0  0  0  0  0  0  0
  -17.9355   13.3269  -21.5174 C   0  0  0  0  0  0  0  0  0  0  0  0
  -18.8064   12.8443  -20.3512 C   0  0  0  0  0  0  0  0  0  0  0  0
  -17.7545   12.0983  -19.5272 C   0  0  0  0  0  0  0  0  0  0  0  0
  -18.3443   11.2677  -18.4936 C   0  0  0  0  0  0  0  0  0  0  0  0
  -19.4449   11.7084  -17.7909 C   0  0  0  0  0  0  0  0  0  0  0  0
  -20.0185   10.9120  -16.7886 C   0  0  0  0  0  0  0  0  0  0  0  0
  -19.4595    9.6821  -16.5219 C   0  0  0  0  0  0  0  0  0  0  0  0
  -18.4032    9.2831  -17.2111 N   0  0  0  0  0  0  0  0  0  0  0  0
  -17.8368   10.0301  -18.1765 C   0  0  0  0  0  0  0  0  0  0  0  0
  1  2  1  0  0  0
  2  3  1  0  0  0
  3  4  1  0  0  0
  4  5  1  0  0  0
  5  6  1  0  0  0
  6  7  1  0  0  0
  7  8  2  0  0  0
  8  9  1  0  0  0
  9 10  2  0  0  0
 10 11  1  0  0  0
 11 12  2  0  0  0
  6  2  1  0  0  0
 12  7  1  0  0  0
M  END
> <minimizedAffinity>
-5.02170

> <CNNscore>
0.3453674614

> <CNNaffinity>
4.1662011147

> <CNN_VS>
1.4388703108

> <CNNaffinity_variance>
0.1002998799

$$$$
[H]c1nc([H])c([C@@]2([H])N(C([H])([H])[H])C([H])([H])C([H])([H])C2([H])[H])c([H])c1[H]


 12 13  0  0  0  0  0  0  0  0999 V2000
  -16.0255   12.5380  -23.0937 C   0  0  0  0  0  0  0  0  0  0  0  0
  -17.0684   13.3683  -22.6775 N   0  0  0  0  0  0  0  0  0  0  0  0
  -17.4852   13.3311  -21.3337 C   0  0  0  0  0  0  0  0  0  0  0  0
  -17.2971   14.7603  -20.8669 C   0  0  0  0  0  0  0  0  0  0  0  0
  -16.6609   15.5116  -22.0425 C   0  0  0  0  0  0  0  0  0  0  0  0
  -17.1789   14.6657  -23.2079 C   0  0  0  0  0  0  0  0  0  0  0  0
  -16.4954   14.9583  -24.4542 C   0  0  0  0  0  0  0  0  0  0  0  0
  -17.0275   14.5390  -25.6544 C   0  0  0  0  0  0  0  0  0  0  0  0
  -16.3707   14.8159  -26.8626 C   0  0  0  0  0  0  0  0  0  0  0  0
  -15.1846   15.5143  -26.8244 C   0  0  0  0  0  0  0  0  0  0  0  0
  -14.6957   15.9052  -25.6590 N   0  0  0  0  0  0  0  0  0  0  0  0
  -15.3084   15.6508  -24.4882 C   0  0  0  0  0  0  0  0  0  0  0  0
  1  2  1  0  0  0
  2  3  1  0  0  0
  3  4  1  0  0  0
  4  5  1  0  0  0
  5  6  1  0  0  0
  6  7  1  0  0  0
  7  8  2  0  0  0
  8  9  1  0  0  0
  9 10  2  0  0  0
 10 11  1  0  0  0
 11 12  2  0  0  0
  6  2  1  0  0  0
 12  7  1  0  0  0
M  END
> <minimizedAffinity>
-5.04189

> <CNNscore>
0.3309392631

> <CNNaffinity>
4.4127826691

> <CNN_VS>
1.4603630304

> <CNNaffinity_variance>
0.3284682333

$$$$
[H]c1nc([H])c([C@@]2([H])N(C([H])([H])[H])C([H])([H])C([H])([H])C2([H])[H])c([H])c1[H]


 12 13  0  0  0  0  0  0  0  0999 V2000
  -18.4923   15.9265  -23.8137 C   0  0  0  0  0  0  0  0  0  0  0  0
  -17.8997   16.8272  -22.9261 N   0  0  0  0  0  0  0  0  0  0  0  0
  -18.5832   17.1863  -21.7492 C   0  0  0  0  0  0  0  0  0  0  0  0
  -17.6231   16.7849  -20.6479 C   0  0  0  0  0  0  0  0  0  0  0  0
  -16.4383   16.1039  -21.3436 C   0  0  0  0  0  0  0  0  0  0  0  0
  -16.5107   16.7827  -22.7133 C   0  0  0  0  0  0  0  0  0  0  0  0
  -15.6851   16.1205  -23.7063 C   0  0  0  0  0  0  0  0  0  0  0  0
  -15.1309   14.8872  -23.4396 C   0  0  0  0  0  0  0  0  0  0  0  0
  -14.3295   14.2427  -24.3937 C   0  0  0  0  0  0  0  0  0  0  0  0
  -14.1085   14.8674  -25.6008 C   0  0  0  0  0  0  0  0  0  0  0  0
  -14.6523   16.0511  -25.8313 N   0  0  0  0  0  0  0  0  0  0  0  0
  -15.4240   16.6875  -24.9311 C   0  0  0  0  0  0  0  0  0  0  0  0
  1  2  1  0  0  0
  2  3  1  0  0  0
  3  4  1  0  0  0
  4  5  1  0  0  0
  5  6  1  0  0  0
  6  7  1  0  0  0
  7  8  2  0  0  0
  8  9  1  0  0  0
  9 10  2  0  0  0
 10 11  1  0  0  0
 11 12  2  0  0  0
  6  2  1  0  0  0
 12  7  1  0  0  0
M  END
> <minimizedAffinity>
-4.74451

> <CNNscore>
0.3119398952

> <CNNaffinity>
4.0037612915

> <CNN_VS>
1.2489328384

> <CNNaffinity_variance>
0.5337810516

$$$$
[H]c1nc([H])c(N([H])C(=O)c2nc(-c3c(F)c([H])c([H])c([H])c3F)c([H])c([H])c2F)c([C@@]2([H])C([H])([H])[C@@]([H])(N([H])[H])C([H])([H])[C@@]([H])(C([H])([H])[H])C2([H])[H])c1[H]


 35 38  0  0  0  0  0  0  0  0999 V2000
  -18.5741   12.5821  -20.9330 N   0  0  0  0  0  0  0  0  0  0  0  0
  -18.7285   13.2533  -19.7159 C   0  0  0  0  0  0  0  0  0  0  0  0
  -17.8159   13.1140  -18.8029 O   0  0  0  0  0  0  0  0  0  0  0  0
  -19.3117   12.7127  -21.6622 H   0  0  0  0  0  0  0  0  0  0  0  0
  -19.8066   14.1373  -19.3041 C   0  0  0  0  0  0  0  0  0  0  0  0
  -20.0211   15.2752  -19.9891 N   0  0  0  0  0  0  0  0  0  0  0  0
  -20.9603   16.1930  -19.7510 C   0  0  0  0  0  0  0  0  0  0  0  0
  -21.8072   15.9378  -18.6622 C   0  0  0  0  0  0  0  0  0  0  0  0
  -21.6475   14.7926  -17.9100 C   0  0  0  0  0  0  0  0  0  0  0  0
  -20.6342   13.9023  -18.2523 C   0  0  0  0  0  0  0  0  0  0  0  0
  -20.5072   12.7661  -17.4676 F   0  0  0  0  0  0  0  0  0  0  0  0
  -21.1842   17.3767  -20.5527 C   0  0  0  0  0  0  0  0  0  0  0  0
  -20.2937   18.4403  -20.5515 C   0  0  0  0  0  0  0  0  0  0  0  0
  -19.1860   18.4138  -19.7515 F   0  0  0  0  0  0  0  0  0  0  0  0
  -20.4653   19.5646  -21.3244 C   0  0  0  0  0  0  0  0  0  0  0  0
  -21.5485   19.6784  -22.1459 C   0  0  0  0  0  0  0  0  0  0  0  0
  -22.4666   18.6270  -22.1702 C   0  0  0  0  0  0  0  0  0  0  0  0
  -22.2672   17.5133  -21.3835 C   0  0  0  0  0  0  0  0  0  0  0  0
  -23.1678   16.4734  -21.4033 F   0  0  0  0  0  0  0  0  0  0  0  0
  -16.5127   12.2751  -22.0581 C   0  0  0  0  0  0  0  0  0  0  0  0
  -15.3592   11.4957  -22.1993 C   0  0  0  0  0  0  0  0  0  0  0  0
  -15.1792   10.3075  -21.5113 C   0  0  0  0  0  0  0  0  0  0  0  0
  -16.1111    9.8602  -20.6800 N   0  0  0  0  0  0  0  0  0  0  0  0
  -17.2352   10.5957  -20.5226 C   0  0  0  0  0  0  0  0  0  0  0  0
  -17.4531   11.7631  -21.1672 C   0  0  0  0  0  0  0  0  0  0  0  0
  -17.3889   12.7502  -26.6785 C   0  0  0  0  0  0  0  0  0  0  0  0
  -17.4562   13.6414  -25.3906 C   0  0  0  0  0  0  0  0  0  0  0  0
  -16.3716   14.7104  -25.5556 C   0  0  0  0  0  0  0  0  0  0  0  0
  -16.1849   15.3712  -24.2441 C   0  0  0  0  0  0  0  0  0  0  0  0
  -15.3094   16.4850  -24.3066 N   0  0  0  0  0  0  0  0  0  0  0  0
  -15.6656   14.3604  -23.1857 C   0  0  0  0  0  0  0  0  0  0  0  0
  -16.8247   13.4142  -22.8884 C   0  0  0  0  0  0  0  0  0  0  0  0
  -17.0791   12.7380  -24.2960 C   0  0  0  0  0  0  0  0  0  0  0  0
  -15.1902   16.9836  -23.3851 H   0  0  0  0  0  0  0  0  0  0  0  0
  -15.4171   17.1331  -25.0964 H   0  0  0  0  0  0  0  0  0  0  0  0
 26 27  1  0  0  0
 27 28  1  0  0  0
 28 29  1  0  0  0
 29 30  1  0  0  0
 29 31  1  0  0  0
 31 32  1  0  0  0
 32 20  1  0  0  0
 20 21  2  0  0  0
 21 22  1  0  0  0
 22 23  2  0  0  0
 23 24  1  0  0  0
 24 25  2  0  0  0
 25  1  1  0  0  0
  1  2  1  0  0  0
  2  3  2  0  0  0
  2  5  1  0  0  0
  5  6  2  0  0  0
  6  7  1  0  0  0
  7 12  1  0  0  0
 12 13  2  0  0  0
 13 14  1  0  0  0
 13 15  1  0  0  0
 15 16  2  0  0  0
 16 17  1  0  0  0
 17 18  2  0  0  0
 18 19  1  0  0  0
  7  8  2  0  0  0
  8  9  1  0  0  0
  9 10  2  0  0  0
 10 11  1  0  0  0
 32 33  1  0  0  0
 33 27  1  0  0  0
 25 20  1  0  0  0
 10  5  1  0  0  0
 18 12  1  0  0  0
 30 34  1  0  0  0
 30 35  1  0  0  0
  1  4  1  0  0  0
M  END
> <minimizedAffinity>
-8.75406

> <CNNscore>
0.5865421891

> <CNNaffinity>
7.6250696182

> <CNN_VS>
4.4724249840

> <CNNaffinity_variance>
0.1993113756

$$$$
[H]c1nc([H])c(N([H])C(=O)c2nc(-c3c(F)c([H])c([H])c([H])c3F)c([H])c([H])c2F)c([C@@]2([H])C([H])([H])[C@@]([H])(N([H])[H])C([H])([H])[C@@]([H])(C([H])([H])[H])C2([H])[H])c1[H]


 35 38  0  0  0  0  0  0  0  0999 V2000
  -18.7419   12.4147  -20.5794 N   0  0  0  0  0  0  0  0  0  0  0  0
  -18.7419   13.2560  -19.4622 C   0  0  0  0  0  0  0  0  0  0  0  0
  -17.6586   13.3576  -18.7539 O   0  0  0  0  0  0  0  0  0  0  0  0
  -19.6183   12.3517  -21.1459 H   0  0  0  0  0  0  0  0  0  0  0  0
  -19.8246   14.0842  -18.9572 C   0  0  0  0  0  0  0  0  0  0  0  0
  -20.0537   15.2831  -19.5231 N   0  0  0  0  0  0  0  0  0  0  0  0
  -20.9991   16.1636  -19.1884 C   0  0  0  0  0  0  0  0  0  0  0  0
  -21.8360   15.7927  -18.1255 C   0  0  0  0  0  0  0  0  0  0  0  0
  -21.6613   14.5793  -17.4930 C   0  0  0  0  0  0  0  0  0  0  0  0
  -20.6428   13.7373  -17.9291 C   0  0  0  0  0  0  0  0  0  0  0  0
  -20.5004   12.5293  -17.2632 F   0  0  0  0  0  0  0  0  0  0  0  0
  -21.2389   17.4196  -19.8658 C   0  0  0  0  0  0  0  0  0  0  0  0
  -22.2285   17.5542  -20.8286 C   0  0  0  0  0  0  0  0  0  0  0  0
  -22.9872   16.4784  -21.1954 F   0  0  0  0  0  0  0  0  0  0  0  0
  -22.4984   18.7415  -21.4675 C   0  0  0  0  0  0  0  0  0  0  0  0
  -21.7829   19.8640  -21.1688 C   0  0  0  0  0  0  0  0  0  0  0  0
  -20.7772   19.7639  -20.2058 C   0  0  0  0  0  0  0  0  0  0  0  0
  -20.5302   18.5596  -19.5831 C   0  0  0  0  0  0  0  0  0  0  0  0
  -19.5409   18.4543  -18.6327 F   0  0  0  0  0  0  0  0  0  0  0  0
  -16.8011   12.2520  -21.9268 C   0  0  0  0  0  0  0  0  0  0  0  0
  -15.6110   11.5644  -22.1898 C   0  0  0  0  0  0  0  0  0  0  0  0
  -15.2595   10.4073  -21.5154 C   0  0  0  0  0  0  0  0  0  0  0  0
  -16.0534    9.9026  -20.5801 N   0  0  0  0  0  0  0  0  0  0  0  0
  -17.2088   10.5491  -20.3038 C   0  0  0  0  0  0  0  0  0  0  0  0
  -17.5914   11.6833  -20.9308 C   0  0  0  0  0  0  0  0  0  0  0  0
  -17.2987   12.8681  -26.5867 C   0  0  0  0  0  0  0  0  0  0  0  0
  -17.7088   13.6147  -25.2707 C   0  0  0  0  0  0  0  0  0  0  0  0
  -16.9051   14.9185  -25.2528 C   0  0  0  0  0  0  0  0  0  0  0  0
  -17.0167   15.4998  -23.8959 C   0  0  0  0  0  0  0  0  0  0  0  0
  -16.4359   16.7898  -23.7983 N   0  0  0  0  0  0  0  0  0  0  0  0
  -16.3765   14.5599  -22.8384 C   0  0  0  0  0  0  0  0  0  0  0  0
  -17.2951   13.3471  -22.7273 C   0  0  0  0  0  0  0  0  0  0  0  0
  -17.2356   12.7425  -24.1881 C   0  0  0  0  0  0  0  0  0  0  0  0
  -16.5341   17.2286  -22.8444 H   0  0  0  0  0  0  0  0  0  0  0  0
  -16.6178   17.4541  -24.5604 H   0  0  0  0  0  0  0  0  0  0  0  0
 26 27  1  0  0  0
 27 28  1  0  0  0
 28 29  1  0  0  0
 29 30  1  0  0  0
 29 31  1  0  0  0
 31 32  1  0  0  0
 32 20  1  0  0  0
 20 21  2  0  0  0
 21 22  1  0  0  0
 22 23  2  0  0  0
 23 24  1  0  0  0
 24 25  2  0  0  0
 25  1  1  0  0  0
  1  2  1  0  0  0
  2  3  2  0  0  0
  2  5  1  0  0  0
  5  6  2  0  0  0
  6  7  1  0  0  0
  7 12  1  0  0  0
 12 13  2  0  0  0
 13 14  1  0  0  0
 13 15  1  0  0  0
 15 16  2  0  0  0
 16 17  1  0  0  0
 17 18  2  0  0  0
 18 19  1  0  0  0
  7  8  2  0  0  0
  8  9  1  0  0  0
  9 10  2  0  0  0
 10 11  1  0  0  0
 32 33  1  0  0  0
 33 27  1  0  0  0
 25 20  1  0  0  0
 10  5  1  0  0  0
 18 12  1  0  0  0
 30 34  1  0  0  0
 30 35  1  0  0  0
  1  4  1  0  0  0
M  END
> <minimizedAffinity>
-8.60613

> <CNNscore>
0.5668752193

> <CNNaffinity>
7.4730477333

> <CNN_VS>
4.2362856865

> <CNNaffinity_variance>
0.1862371266

$$$$
[H]c1nc([H])c(N([H])C(=O)c2nc(-c3c(F)c([H])c([H])c([H])c3F)c([H])c([H])c2F)c([C@@]2([H])C([H])([H])[C@@]([H])(N([H])[H])C([H])([H])[C@@]([H])(C([H])([H])[H])C2([H])[H])c1[H]


 35 38  0  0  0  0  0  0  0  0999 V2000
  -18.6141   12.1392  -19.9134 N   0  0  0  0  0  0  0  0  0  0  0  0
  -18.4932   12.8068  -18.6905 C   0  0  0  0  0  0  0  0  0  0  0  0
  -17.3399   12.8189  -18.0942 O   0  0  0  0  0  0  0  0  0  0  0  0
  -19.5463   12.1474  -20.3866 H   0  0  0  0  0  0  0  0  0  0  0  0
  -19.5143   13.5358  -17.9563 C   0  0  0  0  0  0  0  0  0  0  0  0
  -19.5596   14.8771  -18.0502 N   0  0  0  0  0  0  0  0  0  0  0  0
  -20.4247   15.6971  -17.4500 C   0  0  0  0  0  0  0  0  0  0  0  0
  -21.3836   15.0852  -16.6290 C   0  0  0  0  0  0  0  0  0  0  0  0
  -21.3993   13.7138  -16.4806 C   0  0  0  0  0  0  0  0  0  0  0  0
  -20.4490   12.9560  -17.1582 C   0  0  0  0  0  0  0  0  0  0  0  0
  -20.4989   11.5820  -16.9780 F   0  0  0  0  0  0  0  0  0  0  0  0
  -20.4649   17.1328  -17.6268 C   0  0  0  0  0  0  0  0  0  0  0  0
  -19.7608   17.9922  -16.7960 C   0  0  0  0  0  0  0  0  0  0  0  0
  -19.0321   17.5001  -15.7499 F   0  0  0  0  0  0  0  0  0  0  0  0
  -19.7568   19.3577  -16.9577 C   0  0  0  0  0  0  0  0  0  0  0  0
  -20.4645   19.9346  -17.9713 C   0  0  0  0  0  0  0  0  0  0  0  0
  -21.1868   19.0992  -18.8253 C   0  0  0  0  0  0  0  0  0  0  0  0
  -21.1715   17.7342  -18.6372 C   0  0  0  0  0  0  0  0  0  0  0  0
  -21.8806   16.9052  -19.4756 F   0  0  0  0  0  0  0  0  0  0  0  0
  -16.9375   12.1255  -21.5860 C   0  0  0  0  0  0  0  0  0  0  0  0
  -15.7800   11.5139  -22.0803 C   0  0  0  0  0  0  0  0  0  0  0  0
  -15.2566   10.3593  -21.5233 C   0  0  0  0  0  0  0  0  0  0  0  0
  -15.8455    9.7836  -20.4834 N   0  0  0  0  0  0  0  0  0  0  0  0
  -16.9646   10.3557  -19.9837 C   0  0  0  0  0  0  0  0  0  0  0  0
  -17.5089   11.4843  -20.4894 C   0  0  0  0  0  0  0  0  0  0  0  0
  -17.0350   13.6270  -26.0668 C   0  0  0  0  0  0  0  0  0  0  0  0
  -17.7896   13.9333  -24.7273 C   0  0  0  0  0  0  0  0  0  0  0  0
  -17.3906   15.3578  -24.3300 C   0  0  0  0  0  0  0  0  0  0  0  0
  -17.8193   15.5735  -22.9296 C   0  0  0  0  0  0  0  0  0  0  0  0
  -17.6382   16.9116  -22.4965 N   0  0  0  0  0  0  0  0  0  0  0  0
  -17.0710   14.6100  -21.9687 C   0  0  0  0  0  0  0  0  0  0  0  0
  -17.6202   13.2138  -22.2443 C   0  0  0  0  0  0  0  0  0  0  0  0
  -17.2223   12.9865  -23.7586 C   0  0  0  0  0  0  0  0  0  0  0  0
  -17.9668   17.0867  -21.5099 H   0  0  0  0  0  0  0  0  0  0  0  0
  -17.9075   17.6632  -23.1429 H   0  0  0  0  0  0  0  0  0  0  0  0
 26 27  1  0  0  0
 27 28  1  0  0  0
 28 29  1  0  0  0
 29 30  1  0  0  0
 29 31  1  0  0  0
 31 32  1  0  0  0
 32 20  1  0  0  0
 20 21  2  0  0  0
 21 22  1  0  0  0
 22 23  2  0  0  0
 23 24  1  0  0  0
 24 25  2  0  0  0
 25  1  1  0  0  0
  1  2  1  0  0  0
  2  3  2  0  0  0
  2  5  1  0  0  0
  5  6  2  0  0  0
  6  7  1  0  0  0
  7 12  1  0  0  0
 12 13  2  0  0  0
 13 14  1  0  0  0
 13 15  1  0  0  0
 15 16  2  0  0  0
 16 17  1  0  0  0
 17 18  2  0  0  0
 18 19  1  0  0  0
  7  8  2  0  0  0
  8  9  1  0  0  0
  9 10  2  0  0  0
 10 11  1  0  0  0
 32 33  1  0  0  0
 33 27  1  0  0  0
 25 20  1  0  0  0
 10  5  1  0  0  0
 18 12  1  0  0  0
 30 34  1  0  0  0
 30 35  1  0  0  0
  1  4  1  0  0  0
M  END
> <minimizedAffinity>
-8.58394

> <CNNscore>
0.5487393141

> <CNNaffinity>
7.4509267807

> <CNN_VS>
4.0886163712

> <CNNaffinity_variance>
0.2567473352

$$$$
[H]c1nc([H])c(N([H])C(=O)c2nc(-c3c(F)c([H])c([H])c([H])c3F)c([H])c([H])c2F)c([C@@]2([H])C([H])([H])[C@@]([H])(N([H])[H])C([H])([H])[C@@]([H])(C([H])([H])[H])C2([H])[H])c1[H]


 35 38  0  0  0  0  0  0  0  0999 V2000
  -18.1498   13.5772  -19.5838 N   0  0  0  0  0  0  0  0  0  0  0  0
  -18.1592   13.5599  -20.9822 C   0  0  0  0  0  0  0  0  0  0  0  0
  -18.2073   12.4162  -21.5947 O   0  0  0  0  0  0  0  0  0  0  0  0
  -18.1218   14.5060  -19.1049 H   0  0  0  0  0  0  0  0  0  0  0  0
  -18.1336   14.6885  -21.8980 C   0  0  0  0  0  0  0  0  0  0  0  0
  -17.4965   14.5642  -23.0765 N   0  0  0  0  0  0  0  0  0  0  0  0
  -17.3776   15.4915  -24.0288 C   0  0  0  0  0  0  0  0  0  0  0  0
  -17.9803   16.7294  -23.7602 C   0  0  0  0  0  0  0  0  0  0  0  0
  -18.6499   16.9340  -22.5716 C   0  0  0  0  0  0  0  0  0  0  0  0
  -18.7132   15.8925  -21.6508 C   0  0  0  0  0  0  0  0  0  0  0  0
  -19.3929   16.1424  -20.4683 F   0  0  0  0  0  0  0  0  0  0  0  0
  -16.7264   15.2896  -25.3053 C   0  0  0  0  0  0  0  0  0  0  0  0
  -17.1696   14.3357  -26.2098 C   0  0  0  0  0  0  0  0  0  0  0  0
  -18.2234   13.5236  -25.8976 F   0  0  0  0  0  0  0  0  0  0  0  0
  -16.5892   14.1414  -27.4411 C   0  0  0  0  0  0  0  0  0  0  0  0
  -15.5261   14.9024  -27.8307 C   0  0  0  0  0  0  0  0  0  0  0  0
  -15.0525   15.8707  -26.9437 C   0  0  0  0  0  0  0  0  0  0  0  0
  -15.6551   16.0413  -25.7162 C   0  0  0  0  0  0  0  0  0  0  0  0
  -15.1936   16.9943  -24.8376 F   0  0  0  0  0  0  0  0  0  0  0  0
  -19.3372   12.1725  -18.0919 C   0  0  0  0  0  0  0  0  0  0  0  0
  -19.3994   10.9306  -17.4500 C   0  0  0  0  0  0  0  0  0  0  0  0
  -18.3884    9.9904  -17.5562 C   0  0  0  0  0  0  0  0  0  0  0  0
  -17.3074   10.2397  -18.2835 N   0  0  0  0  0  0  0  0  0  0  0  0
  -17.2230   11.4316  -18.9172 C   0  0  0  0  0  0  0  0  0  0  0  0
  -18.1855   12.3774  -18.8480 C   0  0  0  0  0  0  0  0  0  0  0  0
  -18.8181   16.6159  -16.5663 C   0  0  0  0  0  0  0  0  0  0  0  0
  -19.9575   15.7270  -17.1737 C   0  0  0  0  0  0  0  0  0  0  0  0
  -20.9894   15.5364  -16.0579 C   0  0  0  0  0  0  0  0  0  0  0  0
  -21.9134   14.4580  -16.4760 C   0  0  0  0  0  0  0  0  0  0  0  0
  -23.0065   14.2923  -15.5879 N   0  0  0  0  0  0  0  0  0  0  0  0
  -21.1567   13.1103  -16.6265 C   0  0  0  0  0  0  0  0  0  0  0  0
  -20.2711   13.2489  -17.8608 C   0  0  0  0  0  0  0  0  0  0  0  0
  -19.3106   14.4392  -17.4563 C   0  0  0  0  0  0  0  0  0  0  0  0
  -23.6890   13.5470  -15.8891 H   0  0  0  0  0  0  0  0  0  0  0  0
  -23.4727   15.1396  -15.2414 H   0  0  0  0  0  0  0  0  0  0  0  0
 26 27  1  0  0  0
 27 28  1  0  0  0
 28 29  1  0  0  0
 29 30  1  0  0  0
 29 31  1  0  0  0
 31 32  1  0  0  0
 32 20  1  0  0  0
 20 21  2  0  0  0
 21 22  1  0  0  0
 22 23  2  0  0  0
 23 24  1  0  0  0
 24 25  2  0  0  0
 25  1  1  0  0  0
  1  2  1  0  0  0
  2  3  2  0  0  0
  2  5  1  0  0  0
  5  6  2  0  0  0
  6  7  1  0  0  0
  7 12  1  0  0  0
 12 13  2  0  0  0
 13 14  1  0  0  0
 13 15  1  0  0  0
 15 16  2  0  0  0
 16 17  1  0  0  0
 17 18  2  0  0  0
 18 19  1  0  0  0
  7  8  2  0  0  0
  8  9  1  0  0  0
  9 10  2  0  0  0
 10 11  1  0  0  0
 32 33  1  0  0  0
 33 27  1  0  0  0
 25 20  1  0  0  0
 10  5  1  0  0  0
 18 12  1  0  0  0
 30 34  1  0  0  0
 30 35  1  0  0  0
  1  4  1  0  0  0
M  END
> <minimizedAffinity>
-8.86973

> <CNNscore>
0.4190553129

> <CNNaffinity>
7.2640190125

> <CNN_VS>
3.0440256596

> <CNNaffinity_variance>
0.3323642910

$$$$
[H]c1nc([H])c(N([H])C(=O)c2nc(-c3c(F)c([H])c([H])c([H])c3F)c([H])c([H])c2F)c([C@@]2([H])C([H])([H])[C@@]([H])(N([H])[H])C([H])([H])[C@@]([H])(C([H])([H])[H])C2([H])[H])c1[H]


 35 38  0  0  0  0  0  0  0  0999 V2000
  -18.2984   15.1793  -20.6697 N   0  0  0  0  0  0  0  0  0  0  0  0
  -19.6525   15.5167  -20.5782 C   0  0  0  0  0  0  0  0  0  0  0  0
  -20.5336   14.5647  -20.5241 O   0  0  0  0  0  0  0  0  0  0  0  0
  -17.6002   15.9567  -20.7015 H   0  0  0  0  0  0  0  0  0  0  0  0
  -20.2498   16.8408  -20.5196 C   0  0  0  0  0  0  0  0  0  0  0  0
  -20.8147   17.3563  -21.6265 N   0  0  0  0  0  0  0  0  0  0  0  0
  -21.4053   18.5468  -21.7489 C   0  0  0  0  0  0  0  0  0  0  0  0
  -21.4291   19.3428  -20.5940 C   0  0  0  0  0  0  0  0  0  0  0  0
  -20.8674   18.8836  -19.4207 C   0  0  0  0  0  0  0  0  0  0  0  0
  -20.2801   17.6221  -19.4082 C   0  0  0  0  0  0  0  0  0  0  0  0
  -19.7248   17.2016  -18.2092 F   0  0  0  0  0  0  0  0  0  0  0  0
  -22.0474   19.0337  -22.9508 C   0  0  0  0  0  0  0  0  0  0  0  0
  -21.4000   19.8883  -23.8311 C   0  0  0  0  0  0  0  0  0  0  0  0
  -20.1352   20.3300  -23.5619 F   0  0  0  0  0  0  0  0  0  0  0  0
  -21.9740   20.3437  -24.9948 C   0  0  0  0  0  0  0  0  0  0  0  0
  -23.2375   19.9597  -25.3372 C   0  0  0  0  0  0  0  0  0  0  0  0
  -23.9193   19.1016  -24.4725 C   0  0  0  0  0  0  0  0  0  0  0  0
  -23.3173   18.6627  -23.3132 C   0  0  0  0  0  0  0  0  0  0  0  0
  -23.9835   17.8164  -22.4570 F   0  0  0  0  0  0  0  0  0  0  0  0
  -17.2532   13.4330  -21.8809 C   0  0  0  0  0  0  0  0  0  0  0  0
  -16.7667   12.1211  -21.8615 C   0  0  0  0  0  0  0  0  0  0  0  0
  -16.9207   11.2901  -20.7646 C   0  0  0  0  0  0  0  0  0  0  0  0
  -17.5459   11.7174  -19.6755 N   0  0  0  0  0  0  0  0  0  0  0  0
  -18.0236   12.9828  -19.6664 C   0  0  0  0  0  0  0  0  0  0  0  0
  -17.8926   13.8317  -20.7094 C   0  0  0  0  0  0  0  0  0  0  0  0
  -17.4049   12.4691  -26.5058 C   0  0  0  0  0  0  0  0  0  0  0  0
  -17.5223   13.7305  -25.5824 C   0  0  0  0  0  0  0  0  0  0  0  0
  -16.2844   14.5855  -25.8703 C   0  0  0  0  0  0  0  0  0  0  0  0
  -16.1889   15.6143  -24.8101 C   0  0  0  0  0  0  0  0  0  0  0  0
  -15.1638   16.5636  -25.0527 N   0  0  0  0  0  0  0  0  0  0  0  0
  -15.9703   14.9563  -23.4207 C   0  0  0  0  0  0  0  0  0  0  0  0
  -17.2820   14.2665  -23.0592 C   0  0  0  0  0  0  0  0  0  0  0  0
  -17.4328   13.1984  -24.2166 C   0  0  0  0  0  0  0  0  0  0  0  0
  -15.1035   17.3199  -24.3202 H   0  0  0  0  0  0  0  0  0  0  0  0
  -15.0678   16.9290  -26.0079 H   0  0  0  0  0  0  0  0  0  0  0  0
 26 27  1  0  0  0
 27 28  1  0  0  0
 28 29  1  0  0  0
 29 30  1  0  0  0
 29 31  1  0  0  0
 31 32  1  0  0  0
 32 20  1  0  0  0
 20 21  2  0  0  0
 21 22  1  0  0  0
 22 23  2  0  0  0
 23 24  1  0  0  0
 24 25  2  0  0  0
 25  1  1  0  0  0
  1  2  1  0  0  0
  2  3  2  0  0  0
  2  5  1  0  0  0
  5  6  2  0  0  0
  6  7  1  0  0  0
  7 12  1  0  0  0
 12 13  2  0  0  0
 13 14  1  0  0  0
 13 15  1  0  0  0
 15 16  2  0  0  0
 16 17  1  0  0  0
 17 18  2  0  0  0
 18 19  1  0  0  0
  7  8  2  0  0  0
  8  9  1  0  0  0
  9 10  2  0  0  0
 10 11  1  0  0  0
 32 33  1  0  0  0
 33 27  1  0  0  0
 25 20  1  0  0  0
 10  5  1  0  0  0
 18 12  1  0  0  0
 30 34  1  0  0  0
 30 35  1  0  0  0
  1  4  1  0  0  0
M  END
> <minimizedAffinity>
-9.34419

> <CNNscore>
0.2412646115

> <CNNaffinity>
7.2315611839

> <CNN_VS>
1.7447197437

> <CNNaffinity_variance>
0.1300428808

$$$$
[H]c1nc([H])c(N([H])C(=O)c2nc(-c3c(F)c([H])c([H])c([H])c3F)c([H])c([H])c2F)c([C@@]2([H])C([H])([H])[C@@]([H])(N([H])[H])C([H])([H])[C@@]([H])(C([H])([H])[H])C2([H])[H])c1[H]


 35 38  0  0  0  0  0  0  0  0999 V2000
  -17.8794   13.0158  -21.7322 N   0  0  0  0  0  0  0  0  0  0  0  0
  -17.3136   12.1685  -20.7743 C   0  0  0  0  0  0  0  0  0  0  0  0
  -16.0727   11.8109  -20.9082 O   0  0  0  0  0  0  0  0  0  0  0  0
  -18.8764   13.3036  -21.6048 H   0  0  0  0  0  0  0  0  0  0  0  0
  -17.9353   11.6097  -19.5849 C   0  0  0  0  0  0  0  0  0  0  0  0
  -18.8067   12.3590  -18.8853 N   0  0  0  0  0  0  0  0  0  0  0  0
  -19.4651   12.0058  -17.7795 C   0  0  0  0  0  0  0  0  0  0  0  0
  -19.2096   10.7131  -17.2983 C   0  0  0  0  0  0  0  0  0  0  0  0
  -18.3260    9.8862  -17.9604 C   0  0  0  0  0  0  0  0  0  0  0  0
  -17.6974   10.3597  -19.1080 C   0  0  0  0  0  0  0  0  0  0  0  0
  -16.8146    9.4970  -19.7399 F   0  0  0  0  0  0  0  0  0  0  0  0
  -20.4352   12.8317  -17.0933 C   0  0  0  0  0  0  0  0  0  0  0  0
  -20.8704   12.5358  -15.8097 C   0  0  0  0  0  0  0  0  0  0  0  0
  -20.4170   11.4188  -15.1662 F   0  0  0  0  0  0  0  0  0  0  0  0
  -21.7686   13.3177  -15.1223 C   0  0  0  0  0  0  0  0  0  0  0  0
  -22.2790   14.4467  -15.6931 C   0  0  0  0  0  0  0  0  0  0  0  0
  -21.8644   14.7734  -16.9855 C   0  0  0  0  0  0  0  0  0  0  0  0
  -20.9631   13.9693  -17.6490 C   0  0  0  0  0  0  0  0  0  0  0  0
  -20.5498   14.2859  -18.9226 F   0  0  0  0  0  0  0  0  0  0  0  0
  -16.8002   14.8263  -22.8123 C   0  0  0  0  0  0  0  0  0  0  0  0
  -15.9627   15.2383  -23.8549 C   0  0  0  0  0  0  0  0  0  0  0  0
  -15.5032   14.3641  -24.8255 C   0  0  0  0  0  0  0  0  0  0  0  0
  -15.8476   13.0834  -24.7991 N   0  0  0  0  0  0  0  0  0  0  0  0
  -16.6541   12.6577  -23.8003 C   0  0  0  0  0  0  0  0  0  0  0  0
  -17.1226   13.4713  -22.8285 C   0  0  0  0  0  0  0  0  0  0  0  0
  -20.2284   18.0378  -23.3368 C   0  0  0  0  0  0  0  0  0  0  0  0
  -19.4348   17.3746  -22.1587 C   0  0  0  0  0  0  0  0  0  0  0  0
  -18.5809   18.4864  -21.5415 C   0  0  0  0  0  0  0  0  0  0  0  0
  -17.5904   17.8503  -20.6439 C   0  0  0  0  0  0  0  0  0  0  0  0
  -16.8378   18.7916  -19.8966 N   0  0  0  0  0  0  0  0  0  0  0  0
  -16.6273   16.9336  -21.4460 C   0  0  0  0  0  0  0  0  0  0  0  0
  -17.4508   15.7299  -21.8935 C   0  0  0  0  0  0  0  0  0  0  0  0
  -18.5541   16.3969  -22.8107 C   0  0  0  0  0  0  0  0  0  0  0  0
  -16.1484   18.3516  -19.2309 H   0  0  0  0  0  0  0  0  0  0  0  0
  -17.3427   19.5825  -19.4783 H   0  0  0  0  0  0  0  0  0  0  0  0
 26 27  1  0  0  0
 27 28  1  0  0  0
 28 29  1  0  0  0
 29 30  1  0  0  0
 29 31  1  0  0  0
 31 32  1  0  0  0
 32 20  1  0  0  0
 20 21  2  0  0  0
 21 22  1  0  0  0
 22 23  2  0  0  0
 23 24  1  0  0  0
 24 25  2  0  0  0
 25  1  1  0  0  0
  1  2  1  0  0  0
  2  3  2  0  0  0
  2  5  1  0  0  0
  5  6  2  0  0  0
  6  7  1  0  0  0
  7 12  1  0  0  0
 12 13  2  0  0  0
 13 14  1  0  0  0
 13 15  1  0  0  0
 15 16  2  0  0  0
 16 17  1  0  0  0
 17 18  2  0  0  0
 18 19  1  0  0  0
  7  8  2  0  0  0
  8  9  1  0  0  0
  9 10  2  0  0  0
 10 11  1  0  0  0
 32 33  1  0  0  0
 33 27  1  0  0  0
 25 20  1  0  0  0
 10  5  1  0  0  0
 18 12  1  0  0  0
 30 34  1  0  0  0
 30 35  1  0  0  0
  1  4  1  0  0  0
M  END
> <minimizedAffinity>
-9.04249

> <CNNscore>
0.2392919809

> <CNNaffinity>
7.3159089088

> <CNN_VS>
1.7506383657

> <CNNaffinity_variance>
0.3103034198

$$$$
[H]c1nc([H])c(N([H])C(=O)c2nc(-c3c(F)c([H])c([H])c([H])c3F)c([H])c([H])c2F)c([C@@]2([H])C([H])([H])[C@@]([H])(N([H])[H])C([H])([H])[C@@]([H])(C([H])([H])[H])C2([H])[H])c1[H]


 35 38  0  0  0  0  0  0  0  0999 V2000
  -16.5998   14.6302  -21.8071 N   0  0  0  0  0  0  0  0  0  0  0  0
  -17.0664   13.3254  -21.9958 C   0  0  0  0  0  0  0  0  0  0  0  0
  -17.5678   12.9994  -23.1482 O   0  0  0  0  0  0  0  0  0  0  0  0
  -16.1889   14.8745  -20.8774 H   0  0  0  0  0  0  0  0  0  0  0  0
  -17.0627   12.2210  -21.0506 C   0  0  0  0  0  0  0  0  0  0  0  0
  -17.8782   12.2684  -19.9816 N   0  0  0  0  0  0  0  0  0  0  0  0
  -18.0031   11.3481  -19.0232 C   0  0  0  0  0  0  0  0  0  0  0  0
  -17.1865   10.2144  -19.1493 C   0  0  0  0  0  0  0  0  0  0  0  0
  -16.3220   10.0950  -20.2176 C   0  0  0  0  0  0  0  0  0  0  0  0
  -16.2776   11.1173  -21.1607 C   0  0  0  0  0  0  0  0  0  0  0  0
  -15.3923   10.9579  -22.2160 F   0  0  0  0  0  0  0  0  0  0  0  0
  -18.9367   11.4219  -17.9200 C   0  0  0  0  0  0  0  0  0  0  0  0
  -19.4189   12.6347  -17.4498 C   0  0  0  0  0  0  0  0  0  0  0  0
  -18.9882   13.8098  -17.9986 F   0  0  0  0  0  0  0  0  0  0  0  0
  -20.3283   12.7342  -16.4231 C   0  0  0  0  0  0  0  0  0  0  0  0
  -20.8047   11.6114  -15.8121 C   0  0  0  0  0  0  0  0  0  0  0  0
  -20.3386   10.3736  -16.2588 C   0  0  0  0  0  0  0  0  0  0  0  0
  -19.4267   10.3064  -17.2897 C   0  0  0  0  0  0  0  0  0  0  0  0
  -18.9637    9.0898  -17.7351 F   0  0  0  0  0  0  0  0  0  0  0  0
  -17.4499   16.7050  -22.5697 C   0  0  0  0  0  0  0  0  0  0  0  0
  -17.4304   17.6832  -23.5701 C   0  0  0  0  0  0  0  0  0  0  0  0
  -16.7042   17.5325  -24.7394 C   0  0  0  0  0  0  0  0  0  0  0  0
  -15.9895   16.4360  -24.9545 N   0  0  0  0  0  0  0  0  0  0  0  0
  -15.9883   15.4754  -24.0022 C   0  0  0  0  0  0  0  0  0  0  0  0
  -16.6759   15.5798  -22.8438 C   0  0  0  0  0  0  0  0  0  0  0  0
  -21.8868   18.2191  -21.9672 C   0  0  0  0  0  0  0  0  0  0  0  0
  -20.8146   17.4228  -21.1464 C   0  0  0  0  0  0  0  0  0  0  0  0
  -20.4194   18.3256  -19.9738 C   0  0  0  0  0  0  0  0  0  0  0  0
  -19.1972   17.7597  -19.3594 C   0  0  0  0  0  0  0  0  0  0  0  0
  -18.8191   18.4268  -18.1665 N   0  0  0  0  0  0  0  0  0  0  0  0
  -18.0137   17.7805  -20.3645 C   0  0  0  0  0  0  0  0  0  0  0  0
  -18.3330   16.7345  -21.4280 C   0  0  0  0  0  0  0  0  0  0  0  0
  -19.6721   17.2921  -22.0597 C   0  0  0  0  0  0  0  0  0  0  0  0
  -17.9666   18.0153  -17.7018 H   0  0  0  0  0  0  0  0  0  0  0  0
  -19.5606   18.6627  -17.4959 H   0  0  0  0  0  0  0  0  0  0  0  0
 26 27  1  0  0  0
 27 28  1  0  0  0
 28 29  1  0  0  0
 29 30  1  0  0  0
 29 31  1  0  0  0
 31 32  1  0  0  0
 32 20  1  0  0  0
 20 21  2  0  0  0
 21 22  1  0  0  0
 22 23  2  0  0  0
 23 24  1  0  0  0
 24 25  2  0  0  0
 25  1  1  0  0  0
  1  2  1  0  0  0
  2  3  2  0  0  0
  2  5  1  0  0  0
  5  6  2  0  0  0
  6  7  1  0  0  0
  7 12  1  0  0  0
 12 13  2  0  0  0
 13 14  1  0  0  0
 13 15  1  0  0  0
 15 16  2  0  0  0
 16 17  1  0  0  0
 17 18  2  0  0  0
 18 19  1  0  0  0
  7  8  2  0  0  0
  8  9  1  0  0  0
  9 10  2  0  0  0
 10 11  1  0  0  0
 32 33  1  0  0  0
 33 27  1  0  0  0
 25 20  1  0  0  0
 10  5  1  0  0  0
 18 12  1  0  0  0
 30 34  1  0  0  0
 30 35  1  0  0  0
  1  4  1  0  0  0
M  END
> <minimizedAffinity>
-9.41959

> <CNNscore>
0.2151738405

> <CNNaffinity>
7.0830688477

> <CNN_VS>
1.5240911245

> <CNNaffinity_variance>
0.1296852529

$$$$
[H]c1nc([H])c(N([H])C(=O)c2nc(-c3c(F)c([H])c([H])c([H])c3F)c([H])c([H])c2F)c([C@@]2([H])C([H])([H])[C@@]([H])(N([H])[H])C([H])([H])[C@@]([H])(C([H])([H])[H])C2([H])[H])c1[H]


 35 38  0  0  0  0  0  0  0  0999 V2000
  -19.6056   12.5701  -19.2465 N   0  0  0  0  0  0  0  0  0  0  0  0
  -18.2770   12.9030  -19.5287 C   0  0  0  0  0  0  0  0  0  0  0  0
  -17.7098   13.8512  -18.8470 O   0  0  0  0  0  0  0  0  0  0  0  0
  -20.0451   11.7973  -19.7965 H   0  0  0  0  0  0  0  0  0  0  0  0
  -17.3880   12.3079  -20.5130 C   0  0  0  0  0  0  0  0  0  0  0  0
  -17.2010   12.9303  -21.6910 N   0  0  0  0  0  0  0  0  0  0  0  0
  -16.4245   12.5285  -22.6993 C   0  0  0  0  0  0  0  0  0  0  0  0
  -15.7374   11.3214  -22.5027 C   0  0  0  0  0  0  0  0  0  0  0  0
  -15.8804   10.6237  -21.3213 C   0  0  0  0  0  0  0  0  0  0  0  0
  -16.7162   11.1400  -20.3356 C   0  0  0  0  0  0  0  0  0  0  0  0
  -16.8334   10.4050  -19.1657 F   0  0  0  0  0  0  0  0  0  0  0  0
  -16.2151   13.2639  -23.9278 C   0  0  0  0  0  0  0  0  0  0  0  0
  -17.1063   13.1857  -24.9881 C   0  0  0  0  0  0  0  0  0  0  0  0
  -18.2000   12.3699  -24.9134 F   0  0  0  0  0  0  0  0  0  0  0  0
  -16.9486   13.8950  -26.1556 C   0  0  0  0  0  0  0  0  0  0  0  0
  -15.8797   14.7268  -26.3186 C   0  0  0  0  0  0  0  0  0  0  0  0
  -14.9614   14.8277  -25.2720 C   0  0  0  0  0  0  0  0  0  0  0  0
  -15.1466   14.1036  -24.1143 C   0  0  0  0  0  0  0  0  0  0  0  0
  -14.2457   14.1990  -23.0787 F   0  0  0  0  0  0  0  0  0  0  0  0
  -20.6112   12.5097  -17.1031 C   0  0  0  0  0  0  0  0  0  0  0  0
  -21.2327   13.2333  -16.0792 C   0  0  0  0  0  0  0  0  0  0  0  0
  -21.5405   14.5776  -16.2036 C   0  0  0  0  0  0  0  0  0  0  0  0
  -21.2510   15.2368  -17.3177 N   0  0  0  0  0  0  0  0  0  0  0  0
  -20.6472   14.5621  -18.3224 C   0  0  0  0  0  0  0  0  0  0  0  0
  -20.3226   13.2528  -18.2454 C   0  0  0  0  0  0  0  0  0  0  0  0
  -22.2352    9.0976  -14.2638 C   0  0  0  0  0  0  0  0  0  0  0  0
  -21.4630    9.2007  -15.6242 C   0  0  0  0  0  0  0  0  0  0  0  0
  -20.0552    8.6596  -15.3567 C   0  0  0  0  0  0  0  0  0  0  0  0
  -19.2032    9.0258  -16.5106 C   0  0  0  0  0  0  0  0  0  0  0  0
  -17.9098    8.4478  -16.4475 N   0  0  0  0  0  0  0  0  0  0  0  0
  -19.0779   10.5684  -16.6366 C   0  0  0  0  0  0  0  0  0  0  0  0
  -20.4425   11.0761  -17.0916 C   0  0  0  0  0  0  0  0  0  0  0  0
  -21.3815   10.6419  -15.8945 C   0  0  0  0  0  0  0  0  0  0  0  0
  -17.3017    8.6762  -17.2782 H   0  0  0  0  0  0  0  0  0  0  0  0
  -17.8405    7.4625  -16.1650 H   0  0  0  0  0  0  0  0  0  0  0  0
 26 27  1  0  0  0
 27 28  1  0  0  0
 28 29  1  0  0  0
 29 30  1  0  0  0
 29 31  1  0  0  0
 31 32  1  0  0  0
 32 20  1  0  0  0
 20 21  2  0  0  0
 21 22  1  0  0  0
 22 23  2  0  0  0
 23 24  1  0  0  0
 24 25  2  0  0  0
 25  1  1  0  0  0
  1  2  1  0  0  0
  2  3  2  0  0  0
  2  5  1  0  0  0
  5  6  2  0  0  0
  6  7  1  0  0  0
  7 12  1  0  0  0
 12 13  2  0  0  0
 13 14  1  0  0  0
 13 15  1  0  0  0
 15 16  2  0  0  0
 16 17  1  0  0  0
 17 18  2  0  0  0
 18 19  1  0  0  0
  7  8  2  0  0  0
  8  9  1  0  0  0
  9 10  2  0  0  0
 10 11  1  0  0  0
 32 33  1  0  0  0
 33 27  1  0  0  0
 25 20  1  0  0  0
 10  5  1  0  0  0
 18 12  1  0  0  0
 30 34  1  0  0  0
 30 35  1  0  0  0
  1  4  1  0  0  0
M  END
> <minimizedAffinity>
-9.68413

> <CNNscore>
0.2149305642

> <CNNaffinity>
7.1264352798

> <CNN_VS>
1.5316888094

> <CNNaffinity_variance>
0.0705239177

$$$$
[H]c1nc([H])c(N([H])C(=O)c2nc(-c3c(F)c([H])c([H])c([H])c3F)c([H])c([H])c2F)c([C@@]2([H])C([H])([H])[C@@]([H])(N([H])[H])C([H])([H])[C@@]([H])(C([H])([H])[H])C2([H])[H])c1[H]


 35 38  0  0  0  0  0  0  0  0999 V2000
  -17.6263   13.3359  -23.2047 N   0  0  0  0  0  0  0  0  0  0  0  0
  -16.6659   12.6272  -22.4759 C   0  0  0  0  0  0  0  0  0  0  0  0
  -15.4363   12.6277  -22.8927 O   0  0  0  0  0  0  0  0  0  0  0  0
  -18.6099   13.3351  -22.8505 H   0  0  0  0  0  0  0  0  0  0  0  0
  -16.8457   11.8615  -21.2534 C   0  0  0  0  0  0  0  0  0  0  0  0
  -17.6731   12.3289  -20.3010 N   0  0  0  0  0  0  0  0  0  0  0  0
  -17.9539   11.7579  -19.1278 C   0  0  0  0  0  0  0  0  0  0  0  0
  -17.3062   10.5416  -18.8655 C   0  0  0  0  0  0  0  0  0  0  0  0
  -16.4408    9.9998  -19.7931 C   0  0  0  0  0  0  0  0  0  0  0  0
  -16.2253   10.6823  -20.9865 C   0  0  0  0  0  0  0  0  0  0  0  0
  -15.3454   10.1039  -21.8888 F   0  0  0  0  0  0  0  0  0  0  0  0
  -18.8951   12.2759  -18.1584 C   0  0  0  0  0  0  0  0  0  0  0  0
  -19.0304   13.6366  -17.9249 C   0  0  0  0  0  0  0  0  0  0  0  0
  -18.2391   14.5337  -18.5857 F   0  0  0  0  0  0  0  0  0  0  0  0
  -19.9360   14.1590  -17.0317 C   0  0  0  0  0  0  0  0  0  0  0  0
  -20.7597   13.3346  -16.3224 C   0  0  0  0  0  0  0  0  0  0  0  0
  -20.6486   11.9588  -16.5309 C   0  0  0  0  0  0  0  0  0  0  0  0
  -19.7308   11.4655  -17.4327 C   0  0  0  0  0  0  0  0  0  0  0  0
  -19.6167   10.1107  -17.6434 F   0  0  0  0  0  0  0  0  0  0  0  0
  -17.0552   15.4009  -24.2140 C   0  0  0  0  0  0  0  0  0  0  0  0
  -16.6052   16.0585  -25.3643 C   0  0  0  0  0  0  0  0  0  0  0  0
  -16.4034   15.3976  -26.5643 C   0  0  0  0  0  0  0  0  0  0  0  0
  -16.6338   14.0952  -26.6655 N   0  0  0  0  0  0  0  0  0  0  0  0
  -17.0666   13.4343  -25.5677 C   0  0  0  0  0  0  0  0  0  0  0  0
  -17.2724   14.0345  -24.3748 C   0  0  0  0  0  0  0  0  0  0  0  0
  -19.8978   19.0809  -23.3664 C   0  0  0  0  0  0  0  0  0  0  0  0
  -19.1359   17.9920  -22.5350 C   0  0  0  0  0  0  0  0  0  0  0  0
  -18.0506   18.7368  -21.7516 C   0  0  0  0  0  0  0  0  0  0  0  0
  -17.1146   17.7282  -21.2055 C   0  0  0  0  0  0  0  0  0  0  0  0
  -16.1475   18.2880  -20.3323 N   0  0  0  0  0  0  0  0  0  0  0  0
  -16.3992   16.9617  -22.3510 C   0  0  0  0  0  0  0  0  0  0  0  0
  -17.4564   16.0757  -23.0025 C   0  0  0  0  0  0  0  0  0  0  0  0
  -18.4993   17.1353  -23.5437 C   0  0  0  0  0  0  0  0  0  0  0  0
  -15.4921   17.5765  -19.9125 H   0  0  0  0  0  0  0  0  0  0  0  0
  -16.4682   18.9835  -19.6476 H   0  0  0  0  0  0  0  0  0  0  0  0
 26 27  1  0  0  0
 27 28  1  0  0  0
 28 29  1  0  0  0
 29 30  1  0  0  0
 29 31  1  0  0  0
 31 32  1  0  0  0
 32 20  1  0  0  0
 20 21  2  0  0  0
 21 22  1  0  0  0
 22 23  2  0  0  0
 23 24  1  0  0  0
 24 25  2  0  0  0
 25  1  1  0  0  0
  1  2  1  0  0  0
  2  3  2  0  0  0
  2  5  1  0  0  0
  5  6  2  0  0  0
  6  7  1  0  0  0
  7 12  1  0  0  0
 12 13  2  0  0  0
 13 14  1  0  0  0
 13 15  1  0  0  0
 15 16  2  0  0  0
 16 17  1  0  0  0
 17 18  2  0  0  0
 18 19  1  0  0  0
  7  8  2  0  0  0
  8  9  1  0  0  0
  9 10  2  0  0  0
 10 11  1  0  0  0
 32 33  1  0  0  0
 33 27  1  0  0  0
 25 20  1  0  0  0
 10  5  1  0  0  0
 18 12  1  0  0  0
 30 34  1  0  0  0
 30 35  1  0  0  0
  1  4  1  0  0  0
M  END
> <minimizedAffinity>
-10.12239

> <CNNscore>
0.2101313770

> <CNNaffinity>
7.0988745689

> <CNN_VS>
1.4916962385

> <CNNaffinity_variance>
0.2671884596

$$$$
[H]OC(=O)C1(C([H])([H])c2c([H])nc(OC([H])([H])C([H])([H])c3nc(-c4c([H])c([H])c([H])c(Cl)c4[H])oc3C([H])([H])[H])c([H])c2[H])OC([H])([H])C([H])([H])C1([H])[H]


 32 35  0  0  0  0  0  0  0  0999 V2000
  -16.6437   10.9866  -20.3742 O   0  0  0  0  0  0  0  0  0  0  0  0
  -16.7492   11.8706  -21.4339 C   0  0  0  0  0  0  0  0  0  0  0  0
  -17.6583   12.9378  -21.3457 C   0  0  0  0  0  0  0  0  0  0  0  0
  -17.7846   13.8356  -22.3884 C   0  0  0  0  0  0  0  0  0  0  0  0
  -17.0336   13.7208  -23.5404 C   0  0  0  0  0  0  0  0  0  0  0  0
  -16.1639   12.6646  -23.5769 C   0  0  0  0  0  0  0  0  0  0  0  0
  -16.0471   11.7982  -22.5615 N   0  0  0  0  0  0  0  0  0  0  0  0
  -17.1674   14.6749  -24.6409 C   0  0  0  0  0  0  0  0  0  0  0  0
  -16.3482   15.9118  -24.5800 C   0  0  0  0  0  0  0  0  0  0  0  0
  -14.9247   15.5920  -24.1488 C   0  0  0  0  0  0  0  0  0  0  0  0
  -14.3834   14.9946  -25.4327 C   0  0  0  0  0  0  0  0  0  0  0  0
  -15.1790   15.7060  -26.4717 C   0  0  0  0  0  0  0  0  0  0  0  0
  -16.2105   16.4004  -25.8917 O   0  0  0  0  0  0  0  0  0  0  0  0
  -16.9102   17.0161  -23.7753 C   0  0  0  0  0  0  0  0  0  0  0  0
  -16.5083   17.2380  -22.5796 O   0  0  0  0  0  0  0  0  0  0  0  0
  -17.8925   17.8883  -24.2147 O   0  0  0  0  0  0  0  0  0  0  0  0
  -17.7660   18.8702  -24.0132 H   0  0  0  0  0  0  0  0  0  0  0  0
  -16.7766   11.2837  -19.0180 C   0  0  0  0  0  0  0  0  0  0  0  0
  -17.7822   10.3270  -18.3941 C   0  0  0  0  0  0  0  0  0  0  0  0
  -19.9047    9.4748  -16.2188 C   0  0  0  0  0  0  0  0  0  0  0  0
  -19.8178   10.7864  -16.9129 C   0  0  0  0  0  0  0  0  0  0  0  0
  -20.6069   11.8085  -16.7425 O   0  0  0  0  0  0  0  0  0  0  0  0
  -20.2621   12.8091  -17.5028 C   0  0  0  0  0  0  0  0  0  0  0  0
  -19.1889   12.4121  -18.2046 N   0  0  0  0  0  0  0  0  0  0  0  0
  -18.8750   11.1497  -17.8670 C   0  0  0  0  0  0  0  0  0  0  0  0
  -20.9055   14.1118  -17.5870 C   0  0  0  0  0  0  0  0  0  0  0  0
  -21.2634   14.8618  -16.4882 C   0  0  0  0  0  0  0  0  0  0  0  0
  -21.8706   16.0958  -16.6022 C   0  0  0  0  0  0  0  0  0  0  0  0
  -22.1475   16.6351  -17.8408 C   0  0  0  0  0  0  0  0  0  0  0  0
  -21.8012   15.9084  -18.9691 C   0  0  0  0  0  0  0  0  0  0  0  0
  -22.1331   16.5530  -20.5749 Cl  0  0  0  0  0  0  0  0  0  0  0  0
  -21.1961   14.6788  -18.8321 C   0  0  0  0  0  0  0  0  0  0  0  0
 20 21  1  0  0  0
 21 22  1  0  0  0
 22 23  1  0  0  0
 23 26  1  0  0  0
 26 27  2  0  0  0
 27 28  1  0  0  0
 28 29  2  0  0  0
 29 30  1  0  0  0
 30 31  1  0  0  0
 30 32  2  0  0  0
 23 24  2  0  0  0
 24 25  1  0  0  0
 25 19  1  0  0  0
 19 18  1  0  0  0
 18  1  1  0  0  0
  1  2  1  0  0  0
  2  3  2  0  0  0
  3  4  1  0  0  0
  4  5  2  0  0  0
  5  8  1  0  0  0
  8  9  1  0  0  0
  9 14  1  0  0  0
 14 15  2  0  0  0
 14 16  1  0  0  0
  9 10  1  0  0  0
 10 11  1  0  0  0
 11 12  1  0  0  0
 12 13  1  0  0  0
  5  6  1  0  0  0
  6  7  2  0  0  0
 25 21  2  0  0  0
  7  2  1  0  0  0
 32 26  1  0  0  0
 13  9  1  0  0  0
 16 17  1  0  0  0
M  END
> <minimizedAffinity>
-8.02713

> <CNNscore>
0.7356051803

> <CNNaffinity>
7.1597123146

> <CNN_VS>
5.2667212486

> <CNNaffinity_variance>
0.1319603026

$$$$
[H]OC(=O)C1(C([H])([H])c2c([H])nc(OC([H])([H])C([H])([H])c3nc(-c4c([H])c([H])c([H])c(Cl)c4[H])oc3C([H])([H])[H])c([H])c2[H])OC([H])([H])C([H])([H])C1([H])[H]


 32 35  0  0  0  0  0  0  0  0999 V2000
  -17.6323   10.8073  -19.0152 O   0  0  0  0  0  0  0  0  0  0  0  0
  -18.4192   10.3726  -17.9628 C   0  0  0  0  0  0  0  0  0  0  0  0
  -19.3969   11.2345  -17.4391 C   0  0  0  0  0  0  0  0  0  0  0  0
  -20.1967   10.8271  -16.3886 C   0  0  0  0  0  0  0  0  0  0  0  0
  -20.0683    9.5759  -15.8210 C   0  0  0  0  0  0  0  0  0  0  0  0
  -19.1017    8.7752  -16.3665 C   0  0  0  0  0  0  0  0  0  0  0  0
  -18.3300    9.1775  -17.3854 N   0  0  0  0  0  0  0  0  0  0  0  0
  -20.9190    9.1466  -14.7114 C   0  0  0  0  0  0  0  0  0  0  0  0
  -20.2846    9.0010  -13.3769 C   0  0  0  0  0  0  0  0  0  0  0  0
  -19.4342   10.2198  -13.0512 C   0  0  0  0  0  0  0  0  0  0  0  0
  -20.5200   11.2198  -12.7058 C   0  0  0  0  0  0  0  0  0  0  0  0
  -21.5964   10.3431  -12.1662 C   0  0  0  0  0  0  0  0  0  0  0  0
  -21.3067    9.0245  -12.4109 O   0  0  0  0  0  0  0  0  0  0  0  0
  -19.5262    7.7520  -13.1584 C   0  0  0  0  0  0  0  0  0  0  0  0
  -19.9184    6.6404  -13.6595 O   0  0  0  0  0  0  0  0  0  0  0  0
  -18.3604    7.6598  -12.4161 O   0  0  0  0  0  0  0  0  0  0  0  0
  -17.6063    7.1091  -12.8020 H   0  0  0  0  0  0  0  0  0  0  0  0
  -17.5781   12.0962  -19.5450 C   0  0  0  0  0  0  0  0  0  0  0  0
  -18.5411   12.1936  -20.7193 C   0  0  0  0  0  0  0  0  0  0  0  0
  -19.5002   15.2007  -20.7386 C   0  0  0  0  0  0  0  0  0  0  0  0
  -18.4578   14.5925  -21.6064 C   0  0  0  0  0  0  0  0  0  0  0  0
  -17.7634   15.1986  -22.5265 O   0  0  0  0  0  0  0  0  0  0  0  0
  -16.9298   14.3839  -23.1091 C   0  0  0  0  0  0  0  0  0  0  0  0
  -17.0938   13.1826  -22.5331 N   0  0  0  0  0  0  0  0  0  0  0  0
  -18.0426   13.2665  -21.5848 C   0  0  0  0  0  0  0  0  0  0  0  0
  -15.9950   14.6992  -24.1790 C   0  0  0  0  0  0  0  0  0  0  0  0
  -14.6284   14.7490  -24.0124 C   0  0  0  0  0  0  0  0  0  0  0  0
  -13.7682   15.0490  -25.0490 C   0  0  0  0  0  0  0  0  0  0  0  0
  -14.2510   15.3154  -26.3129 C   0  0  0  0  0  0  0  0  0  0  0  0
  -15.6212   15.2743  -26.5179 C   0  0  0  0  0  0  0  0  0  0  0  0
  -16.2891   15.6067  -28.1140 Cl  0  0  0  0  0  0  0  0  0  0  0  0
  -16.4614   14.9728  -25.4690 C   0  0  0  0  0  0  0  0  0  0  0  0
 20 21  1  0  0  0
 21 22  1  0  0  0
 22 23  1  0  0  0
 23 26  1  0  0  0
 26 27  2  0  0  0
 27 28  1  0  0  0
 28 29  2  0  0  0
 29 30  1  0  0  0
 30 31  1  0  0  0
 30 32  2  0  0  0
 23 24  2  0  0  0
 24 25  1  0  0  0
 25 19  1  0  0  0
 19 18  1  0  0  0
 18  1  1  0  0  0
  1  2  1  0  0  0
  2  3  2  0  0  0
  3  4  1  0  0  0
  4  5  2  0  0  0
  5  8  1  0  0  0
  8  9  1  0  0  0
  9 14  1  0  0  0
 14 15  2  0  0  0
 14 16  1  0  0  0
  9 10  1  0  0  0
 10 11  1  0  0  0
 11 12  1  0  0  0
 12 13  1  0  0  0
  5  6  1  0  0  0
  6  7  2  0  0  0
 25 21  2  0  0  0
  7  2  1  0  0  0
 32 26  1  0  0  0
 13  9  1  0  0  0
 16 17  1  0  0  0
M  END
> <minimizedAffinity>
-8.27540

> <CNNscore>
0.4068365097

> <CNNaffinity>
6.2614316940

> <CNN_VS>
2.5473790169

> <CNNaffinity_variance>
0.1902240515

$$$$
[H]OC(=O)C1(C([H])([H])c2c([H])nc(OC([H])([H])C([H])([H])c3nc(-c4c([H])c([H])c([H])c(Cl)c4[H])oc3C([H])([H])[H])c([H])c2[H])OC([H])([H])C([H])([H])C1([H])[H]


 32 35  0  0  0  0  0  0  0  0999 V2000
  -19.5200   13.4095  -19.1422 O   0  0  0  0  0  0  0  0  0  0  0  0
  -19.9912   14.5803  -19.7101 C   0  0  0  0  0  0  0  0  0  0  0  0
  -21.3745   14.8240  -19.7255 C   0  0  0  0  0  0  0  0  0  0  0  0
  -21.8731   15.9844  -20.2859 C   0  0  0  0  0  0  0  0  0  0  0  0
  -21.0438   16.9356  -20.8442 C   0  0  0  0  0  0  0  0  0  0  0  0
  -19.7058   16.6507  -20.8046 C   0  0  0  0  0  0  0  0  0  0  0  0
  -19.2299   15.5230  -20.2593 N   0  0  0  0  0  0  0  0  0  0  0  0
  -21.5747   18.1646  -21.4334 C   0  0  0  0  0  0  0  0  0  0  0  0
  -23.0251   18.4347  -21.2666 C   0  0  0  0  0  0  0  0  0  0  0  0
  -23.4355   19.6686  -22.0563 C   0  0  0  0  0  0  0  0  0  0  0  0
  -23.4460   19.0971  -23.4604 C   0  0  0  0  0  0  0  0  0  0  0  0
  -23.7974   17.6702  -23.2177 C   0  0  0  0  0  0  0  0  0  0  0  0
  -23.7307   17.3826  -21.8778 O   0  0  0  0  0  0  0  0  0  0  0  0
  -23.5083   18.5129  -19.8725 C   0  0  0  0  0  0  0  0  0  0  0  0
  -22.8452   19.1400  -18.9739 O   0  0  0  0  0  0  0  0  0  0  0  0
  -24.6810   17.9362  -19.4134 O   0  0  0  0  0  0  0  0  0  0  0  0
  -25.2642   18.4918  -18.8036 H   0  0  0  0  0  0  0  0  0  0  0  0
  -18.1880   13.0162  -19.0150 C   0  0  0  0  0  0  0  0  0  0  0  0
  -17.9845   11.6993  -19.7500 C   0  0  0  0  0  0  0  0  0  0  0  0
  -15.6860    9.9233  -20.9853 C   0  0  0  0  0  0  0  0  0  0  0  0
  -16.1729   11.2315  -21.4960 C   0  0  0  0  0  0  0  0  0  0  0  0
  -15.7304   11.8700  -22.5413 O   0  0  0  0  0  0  0  0  0  0  0  0
  -16.3690   12.9917  -22.7208 C   0  0  0  0  0  0  0  0  0  0  0  0
  -17.2764   13.0841  -21.7359 N   0  0  0  0  0  0  0  0  0  0  0  0
  -17.1892   12.0019  -20.9437 C   0  0  0  0  0  0  0  0  0  0  0  0
  -16.1526   13.9670  -23.7790 C   0  0  0  0  0  0  0  0  0  0  0  0
  -15.5705   15.1994  -23.5777 C   0  0  0  0  0  0  0  0  0  0  0  0
  -15.3771   16.1014  -24.6040 C   0  0  0  0  0  0  0  0  0  0  0  0
  -15.7656   15.7998  -25.8922 C   0  0  0  0  0  0  0  0  0  0  0  0
  -16.3549   14.5684  -26.1323 C   0  0  0  0  0  0  0  0  0  0  0  0
  -16.8690   14.1341  -27.7606 Cl  0  0  0  0  0  0  0  0  0  0  0  0
  -16.5383   13.6833  -25.0931 C   0  0  0  0  0  0  0  0  0  0  0  0
 20 21  1  0  0  0
 21 22  1  0  0  0
 22 23  1  0  0  0
 23 26  1  0  0  0
 26 27  2  0  0  0
 27 28  1  0  0  0
 28 29  2  0  0  0
 29 30  1  0  0  0
 30 31  1  0  0  0
 30 32  2  0  0  0
 23 24  2  0  0  0
 24 25  1  0  0  0
 25 19  1  0  0  0
 19 18  1  0  0  0
 18  1  1  0  0  0
  1  2  1  0  0  0
  2  3  2  0  0  0
  3  4  1  0  0  0
  4  5  2  0  0  0
  5  8  1  0  0  0
  8  9  1  0  0  0
  9 14  1  0  0  0
 14 15  2  0  0  0
 14 16  1  0  0  0
  9 10  1  0  0  0
 10 11  1  0  0  0
 11 12  1  0  0  0
 12 13  1  0  0  0
  5  6  1  0  0  0
  6  7  2  0  0  0
 25 21  2  0  0  0
  7  2  1  0  0  0
 32 26  1  0  0  0
 13  9  1  0  0  0
 16 17  1  0  0  0
M  END
> <minimizedAffinity>
-7.48326

> <CNNscore>
0.3671168983

> <CNNaffinity>
6.5567703247

> <CNN_VS>
2.4071011543

> <CNNaffinity_variance>
0.1982497126

$$$$
[H]OC(=O)C1(C([H])([H])c2c([H])nc(OC([H])([H])C([H])([H])c3nc(-c4c([H])c([H])c([H])c(Cl)c4[H])oc3C([H])([H])[H])c([H])c2[H])OC([H])([H])C([H])([H])C1([H])[H]


 32 35  0  0  0  0  0  0  0  0999 V2000
  -15.7700   10.5526  -21.1856 O   0  0  0  0  0  0  0  0  0  0  0  0
  -16.0817   11.5950  -22.0409 C   0  0  0  0  0  0  0  0  0  0  0  0
  -15.1458   11.9843  -23.0134 C   0  0  0  0  0  0  0  0  0  0  0  0
  -15.4302   13.0217  -23.8807 C   0  0  0  0  0  0  0  0  0  0  0  0
  -16.6272   13.7060  -23.8263 C   0  0  0  0  0  0  0  0  0  0  0  0
  -17.5039   13.2890  -22.8617 C   0  0  0  0  0  0  0  0  0  0  0  0
  -17.2208   12.2819  -22.0243 N   0  0  0  0  0  0  0  0  0  0  0  0
  -16.9264   14.8015  -24.7482 C   0  0  0  0  0  0  0  0  0  0  0  0
  -15.9402   15.9073  -24.8429 C   0  0  0  0  0  0  0  0  0  0  0  0
  -16.6472   17.2435  -25.0151 C   0  0  0  0  0  0  0  0  0  0  0  0
  -17.1429   17.4689  -23.6003 C   0  0  0  0  0  0  0  0  0  0  0  0
  -16.1103   16.7666  -22.7885 C   0  0  0  0  0  0  0  0  0  0  0  0
  -15.2956   16.0154  -23.5974 O   0  0  0  0  0  0  0  0  0  0  0  0
  -14.8772   15.7360  -25.8547 C   0  0  0  0  0  0  0  0  0  0  0  0
  -13.7150   15.3062  -25.5308 O   0  0  0  0  0  0  0  0  0  0  0  0
  -15.0237   16.0144  -27.2036 O   0  0  0  0  0  0  0  0  0  0  0  0
  -14.6507   15.3427  -27.8598 H   0  0  0  0  0  0  0  0  0  0  0  0
  -16.5985    9.9865  -20.2169 C   0  0  0  0  0  0  0  0  0  0  0  0
  -16.4104   10.7308  -18.9030 C   0  0  0  0  0  0  0  0  0  0  0  0
  -18.6837    9.3395  -17.2121 C   0  0  0  0  0  0  0  0  0  0  0  0
  -18.7249   10.6990  -17.8118 C   0  0  0  0  0  0  0  0  0  0  0  0
  -19.7102   11.5480  -17.7433 O   0  0  0  0  0  0  0  0  0  0  0  0
  -19.4319   12.6535  -18.3746 C   0  0  0  0  0  0  0  0  0  0  0  0
  -18.1964   12.5119  -18.8800 N   0  0  0  0  0  0  0  0  0  0  0  0
  -17.7144   11.3010  -18.5518 C   0  0  0  0  0  0  0  0  0  0  0  0
  -20.2845   13.8246  -18.5145 C   0  0  0  0  0  0  0  0  0  0  0  0
  -20.2878   14.6417  -19.6236 C   0  0  0  0  0  0  0  0  0  0  0  0
  -21.1111   15.7445  -19.7262 C   0  0  0  0  0  0  0  0  0  0  0  0
  -21.9766   16.0773  -18.7056 C   0  0  0  0  0  0  0  0  0  0  0  0
  -22.0005   15.2776  -17.5738 C   0  0  0  0  0  0  0  0  0  0  0  0
  -23.0884   15.6593  -16.2415 Cl  0  0  0  0  0  0  0  0  0  0  0  0
  -21.1702   14.1817  -17.4925 C   0  0  0  0  0  0  0  0  0  0  0  0
 20 21  1  0  0  0
 21 22  1  0  0  0
 22 23  1  0  0  0
 23 26  1  0  0  0
 26 27  2  0  0  0
 27 28  1  0  0  0
 28 29  2  0  0  0
 29 30  1  0  0  0
 30 31  1  0  0  0
 30 32  2  0  0  0
 23 24  2  0  0  0
 24 25  1  0  0  0
 25 19  1  0  0  0
 19 18  1  0  0  0
 18  1  1  0  0  0
  1  2  1  0  0  0
  2  3  2  0  0  0
  3  4  1  0  0  0
  4  5  2  0  0  0
  5  8  1  0  0  0
  8  9  1  0  0  0
  9 14  1  0  0  0
 14 15  2  0  0  0
 14 16  1  0  0  0
  9 10  1  0  0  0
 10 11  1  0  0  0
 11 12  1  0  0  0
 12 13  1  0  0  0
  5  6  1  0  0  0
  6  7  2  0  0  0
 25 21  2  0  0  0
  7  2  1  0  0  0
 32 26  1  0  0  0
 13  9  1  0  0  0
 16 17  1  0  0  0
M  END
> <minimizedAffinity>
-8.15502

> <CNNscore>
0.3655339479

> <CNNaffinity>
6.8134393692

> <CNN_VS>
2.4905433655

> <CNNaffinity_variance>
0.1102369279

$$$$
[H]OC(=O)C1(C([H])([H])c2c([H])nc(OC([H])([H])C([H])([H])c3nc(-c4c([H])c([H])c([H])c(Cl)c4[H])oc3C([H])([H])[H])c([H])c2[H])OC([H])([H])C([H])([H])C1([H])[H]


 32 35  0  0  0  0  0  0  0  0999 V2000
  -17.2739   11.3213  -20.2790 O   0  0  0  0  0  0  0  0  0  0  0  0
  -17.2025   12.1535  -21.3825 C   0  0  0  0  0  0  0  0  0  0  0  0
  -17.9691   13.3304  -21.4016 C   0  0  0  0  0  0  0  0  0  0  0  0
  -17.9176   14.1799  -22.4902 C   0  0  0  0  0  0  0  0  0  0  0  0
  -17.1226   13.9095  -23.5852 C   0  0  0  0  0  0  0  0  0  0  0  0
  -16.3966   12.7513  -23.5176 C   0  0  0  0  0  0  0  0  0  0  0  0
  -16.4519   11.9326  -22.4584 N   0  0  0  0  0  0  0  0  0  0  0  0
  -17.0679   14.8126  -24.7344 C   0  0  0  0  0  0  0  0  0  0  0  0
  -16.1288   15.9603  -24.6610 C   0  0  0  0  0  0  0  0  0  0  0  0
  -14.7824   15.5175  -24.1078 C   0  0  0  0  0  0  0  0  0  0  0  0
  -14.2154   14.8056  -25.3203 C   0  0  0  0  0  0  0  0  0  0  0  0
  -14.8532   15.5432  -26.4462 C   0  0  0  0  0  0  0  0  0  0  0  0
  -15.8448   16.3674  -25.9770 O   0  0  0  0  0  0  0  0  0  0  0  0
  -16.6275   17.1546  -23.9482 C   0  0  0  0  0  0  0  0  0  0  0  0
  -16.4901   17.2773  -22.6808 O   0  0  0  0  0  0  0  0  0  0  0  0
  -17.2716   18.2203  -24.5550 O   0  0  0  0  0  0  0  0  0  0  0  0
  -16.9971   19.1507  -24.2728 H   0  0  0  0  0  0  0  0  0  0  0  0
  -17.1851   11.6965  -18.9387 C   0  0  0  0  0  0  0  0  0  0  0  0
  -18.4552   11.2709  -18.2165 C   0  0  0  0  0  0  0  0  0  0  0  0
  -20.9643   11.4507  -16.3099 C   0  0  0  0  0  0  0  0  0  0  0  0
  -20.1776   12.5872  -16.8566 C   0  0  0  0  0  0  0  0  0  0  0  0
  -20.3927   13.8539  -16.6432 O   0  0  0  0  0  0  0  0  0  0  0  0
  -19.5235   14.5972  -17.2679 C   0  0  0  0  0  0  0  0  0  0  0  0
  -18.6990   13.7642  -17.9223 N   0  0  0  0  0  0  0  0  0  0  0  0
  -19.0719   12.4934  -17.6931 C   0  0  0  0  0  0  0  0  0  0  0  0
  -19.4473   16.0505  -17.2668 C   0  0  0  0  0  0  0  0  0  0  0  0
  -19.2688   16.8090  -18.4029 C   0  0  0  0  0  0  0  0  0  0  0  0
  -19.2032   18.1871  -18.3682 C   0  0  0  0  0  0  0  0  0  0  0  0
  -19.3154   18.8698  -17.1753 C   0  0  0  0  0  0  0  0  0  0  0  0
  -19.4960   18.1391  -16.0115 C   0  0  0  0  0  0  0  0  0  0  0  0
  -19.6452   18.9634  -14.4615 Cl  0  0  0  0  0  0  0  0  0  0  0  0
  -19.5585   16.7644  -16.0692 C   0  0  0  0  0  0  0  0  0  0  0  0
 20 21  1  0  0  0
 21 22  1  0  0  0
 22 23  1  0  0  0
 23 26  1  0  0  0
 26 27  2  0  0  0
 27 28  1  0  0  0
 28 29  2  0  0  0
 29 30  1  0  0  0
 30 31  1  0  0  0
 30 32  2  0  0  0
 23 24  2  0  0  0
 24 25  1  0  0  0
 25 19  1  0  0  0
 19 18  1  0  0  0
 18  1  1  0  0  0
  1  2  1  0  0  0
  2  3  2  0  0  0
  3  4  1  0  0  0
  4  5  2  0  0  0
  5  8  1  0  0  0
  8  9  1  0  0  0
  9 14  1  0  0  0
 14 15  2  0  0  0
 14 16  1  0  0  0
  9 10  1  0  0  0
 10 11  1  0  0  0
 11 12  1  0  0  0
 12 13  1  0  0  0
  5  6  1  0  0  0
  6  7  2  0  0  0
 25 21  2  0  0  0
  7  2  1  0  0  0
 32 26  1  0  0  0
 13  9  1  0  0  0
 16 17  1  0  0  0
M  END
> <minimizedAffinity>
-8.21923

> <CNNscore>
0.3655194640

> <CNNaffinity>
6.7324471474

> <CNN_VS>
2.4608404636

> <CNNaffinity_variance>
0.2350889146

$$$$
[H]OC(=O)C1(C([H])([H])c2c([H])nc(OC([H])([H])C([H])([H])c3nc(-c4c([H])c([H])c([H])c(Cl)c4[H])oc3C([H])([H])[H])c([H])c2[H])OC([H])([H])C([H])([H])C1([H])[H]


 32 35  0  0  0  0  0  0  0  0999 V2000
  -15.3324   16.7445  -23.5079 O   0  0  0  0  0  0  0  0  0  0  0  0
  -16.3745   16.9235  -22.6148 C   0  0  0  0  0  0  0  0  0  0  0  0
  -16.1058   17.4813  -21.3540 C   0  0  0  0  0  0  0  0  0  0  0  0
  -17.1267   17.6715  -20.4424 C   0  0  0  0  0  0  0  0  0  0  0  0
  -18.4312   17.3259  -20.7307 C   0  0  0  0  0  0  0  0  0  0  0  0
  -18.6399   16.7862  -21.9709 C   0  0  0  0  0  0  0  0  0  0  0  0
  -17.6446   16.6049  -22.8495 N   0  0  0  0  0  0  0  0  0  0  0  0
  -19.5100   17.5318  -19.7647 C   0  0  0  0  0  0  0  0  0  0  0  0
  -20.1211   16.3257  -19.1513 C   0  0  0  0  0  0  0  0  0  0  0  0
  -19.0480   15.3219  -18.7569 C   0  0  0  0  0  0  0  0  0  0  0  0
  -18.5020   15.9892  -17.5100 C   0  0  0  0  0  0  0  0  0  0  0  0
  -19.6940   16.7186  -16.9946 C   0  0  0  0  0  0  0  0  0  0  0  0
  -20.6991   16.7121  -17.9286 O   0  0  0  0  0  0  0  0  0  0  0  0
  -21.1908   15.6766  -19.9371 C   0  0  0  0  0  0  0  0  0  0  0  0
  -22.0054   16.3652  -20.6460 O   0  0  0  0  0  0  0  0  0  0  0  0
  -21.4138   14.3102  -19.9830 O   0  0  0  0  0  0  0  0  0  0  0  0
  -21.5992   13.9000  -20.8875 H   0  0  0  0  0  0  0  0  0  0  0  0
  -15.4269   16.3151  -24.8314 C   0  0  0  0  0  0  0  0  0  0  0  0
  -14.7366   14.9658  -24.9685 C   0  0  0  0  0  0  0  0  0  0  0  0
  -17.3073   13.6186  -26.2092 C   0  0  0  0  0  0  0  0  0  0  0  0
  -16.7432   13.3817  -24.8545 C   0  0  0  0  0  0  0  0  0  0  0  0
  -17.2171   12.5777  -23.9461 O   0  0  0  0  0  0  0  0  0  0  0  0
  -16.4899   12.5980  -22.8649 C   0  0  0  0  0  0  0  0  0  0  0  0
  -15.4885   13.4641  -23.0864 N   0  0  0  0  0  0  0  0  0  0  0  0
  -15.6075   13.9798  -24.3218 C   0  0  0  0  0  0  0  0  0  0  0  0
  -16.7075   11.8357  -21.6445 C   0  0  0  0  0  0  0  0  0  0  0  0
  -15.9646   10.7316  -21.2882 C   0  0  0  0  0  0  0  0  0  0  0  0
  -16.1950   10.0314  -20.1216 C   0  0  0  0  0  0  0  0  0  0  0  0
  -17.1944   10.4157  -19.2527 C   0  0  0  0  0  0  0  0  0  0  0  0
  -17.9623   11.5225  -19.5786 C   0  0  0  0  0  0  0  0  0  0  0  0
  -19.2516   12.0550  -18.5022 Cl  0  0  0  0  0  0  0  0  0  0  0  0
  -17.7151   12.2066  -20.7482 C   0  0  0  0  0  0  0  0  0  0  0  0
 20 21  1  0  0  0
 21 22  1  0  0  0
 22 23  1  0  0  0
 23 26  1  0  0  0
 26 27  2  0  0  0
 27 28  1  0  0  0
 28 29  2  0  0  0
 29 30  1  0  0  0
 30 31  1  0  0  0
 30 32  2  0  0  0
 23 24  2  0  0  0
 24 25  1  0  0  0
 25 19  1  0  0  0
 19 18  1  0  0  0
 18  1  1  0  0  0
  1  2  1  0  0  0
  2  3  2  0  0  0
  3  4  1  0  0  0
  4  5  2  0  0  0
  5  8  1  0  0  0
  8  9  1  0  0  0
  9 14  1  0  0  0
 14 15  2  0  0  0
 14 16  1  0  0  0
  9 10  1  0  0  0
 10 11  1  0  0  0
 11 12  1  0  0  0
 12 13  1  0  0  0
  5  6  1  0  0  0
  6  7  2  0  0  0
 25 21  2  0  0  0
  7  2  1  0  0  0
 32 26  1  0  0  0
 13  9  1  0  0  0
 16 17  1  0  0  0
M  END
> <minimizedAffinity>
-8.27972

> <CNNscore>
0.3540505469

> <CNNaffinity>
6.6618332863

> <CNN_VS>
2.3586256504

> <CNNaffinity_variance>
0.2656491399

$$$$
[H]OC(=O)C1(C([H])([H])c2c([H])nc(OC([H])([H])C([H])([H])c3nc(-c4c([H])c([H])c([H])c(Cl)c4[H])oc3C([H])([H])[H])c([H])c2[H])OC([H])([H])C([H])([H])C1([H])[H]


 32 35  0  0  0  0  0  0  0  0999 V2000
  -17.8110   10.6342  -18.8268 O   0  0  0  0  0  0  0  0  0  0  0  0
  -18.6429   10.2745  -17.7808 C   0  0  0  0  0  0  0  0  0  0  0  0
  -18.4022    9.0701  -17.0992 C   0  0  0  0  0  0  0  0  0  0  0  0
  -19.2166    8.6858  -16.0512 C   0  0  0  0  0  0  0  0  0  0  0  0
  -20.2828    9.4588  -15.6390 C   0  0  0  0  0  0  0  0  0  0  0  0
  -20.4749   10.6212  -16.3354 C   0  0  0  0  0  0  0  0  0  0  0  0
  -19.6807   10.9870  -17.3507 N   0  0  0  0  0  0  0  0  0  0  0  0
  -21.1408    9.0507  -14.5270 C   0  0  0  0  0  0  0  0  0  0  0  0
  -22.2554    8.1169  -14.8272 C   0  0  0  0  0  0  0  0  0  0  0  0
  -21.7339    6.8601  -15.5076 C   0  0  0  0  0  0  0  0  0  0  0  0
  -21.1209    6.1463  -14.3189 C   0  0  0  0  0  0  0  0  0  0  0  0
  -21.9710    6.6222  -13.1923 C   0  0  0  0  0  0  0  0  0  0  0  0
  -22.7723    7.6577  -13.6023 O   0  0  0  0  0  0  0  0  0  0  0  0
  -23.3920    8.6920  -15.5757 C   0  0  0  0  0  0  0  0  0  0  0  0
  -24.1655    7.9531  -16.2801 O   0  0  0  0  0  0  0  0  0  0  0  0
  -23.7221   10.0372  -15.5928 O   0  0  0  0  0  0  0  0  0  0  0  0
  -24.6987   10.2771  -15.4958 H   0  0  0  0  0  0  0  0  0  0  0  0
  -17.6361   11.9119  -19.3577 C   0  0  0  0  0  0  0  0  0  0  0  0
  -18.5995   12.1051  -20.5198 C   0  0  0  0  0  0  0  0  0  0  0  0
  -19.3527   15.1666  -20.3681 C   0  0  0  0  0  0  0  0  0  0  0  0
  -18.3757   14.5343  -21.2929 C   0  0  0  0  0  0  0  0  0  0  0  0
  -17.6648   15.1379  -22.2020 O   0  0  0  0  0  0  0  0  0  0  0  0
  -16.9029   14.2995  -22.8461 C   0  0  0  0  0  0  0  0  0  0  0  0
  -17.1338   13.0846  -22.3239 N   0  0  0  0  0  0  0  0  0  0  0  0
  -18.0509   13.1842  -21.3465 C   0  0  0  0  0  0  0  0  0  0  0  0
  -15.9756   14.6047  -23.9254 C   0  0  0  0  0  0  0  0  0  0  0  0
  -14.6072   14.6451  -23.7712 C   0  0  0  0  0  0  0  0  0  0  0  0
  -13.7544   14.9357  -24.8166 C   0  0  0  0  0  0  0  0  0  0  0  0
  -14.2467   15.2016  -26.0769 C   0  0  0  0  0  0  0  0  0  0  0  0
  -15.6189   15.1699  -26.2693 C   0  0  0  0  0  0  0  0  0  0  0  0
  -16.2988   15.5022  -27.8604 Cl  0  0  0  0  0  0  0  0  0  0  0  0
  -16.4517   14.8777  -25.2119 C   0  0  0  0  0  0  0  0  0  0  0  0
 20 21  1  0  0  0
 21 22  1  0  0  0
 22 23  1  0  0  0
 23 26  1  0  0  0
 26 27  2  0  0  0
 27 28  1  0  0  0
 28 29  2  0  0  0
 29 30  1  0  0  0
 30 31  1  0  0  0
 30 32  2  0  0  0
 23 24  2  0  0  0
 24 25  1  0  0  0
 25 19  1  0  0  0
 19 18  1  0  0  0
 18  1  1  0  0  0
  1  2  1  0  0  0
  2  3  2  0  0  0
  3  4  1  0  0  0
  4  5  2  0  0  0
  5  8  1  0  0  0
  8  9  1  0  0  0
  9 14  1  0  0  0
 14 15  2  0  0  0
 14 16  1  0  0  0
  9 10  1  0  0  0
 10 11  1  0  0  0
 11 12  1  0  0  0
 12 13  1  0  0  0
  5  6  1  0  0  0
  6  7  2  0  0  0
 25 21  2  0  0  0
  7  2  1  0  0  0
 32 26  1  0  0  0
 13  9  1  0  0  0
 16 17  1  0  0  0
M  END
> <minimizedAffinity>
-8.12194

> <CNNscore>
0.3208479881

> <CNNaffinity>
6.1054396629

> <CNN_VS>
1.9589179754

> <CNNaffinity_variance>
0.1846901476

$$$$
[H]OC(=O)C1(C([H])([H])c2c([H])nc(OC([H])([H])C([H])([H])c3nc(-c4c([H])c([H])c([H])c(Cl)c4[H])oc3C([H])([H])[H])c([H])c2[H])OC([H])([H])C([H])([H])C1([H])[H]


 32 35  0  0  0  0  0  0  0  0999 V2000
  -18.8491   14.3097  -18.1805 O   0  0  0  0  0  0  0  0  0  0  0  0
  -18.8577   15.3993  -19.0338 C   0  0  0  0  0  0  0  0  0  0  0  0
  -20.0292   15.6981  -19.7490 C   0  0  0  0  0  0  0  0  0  0  0  0
  -20.0664   16.7797  -20.6080 C   0  0  0  0  0  0  0  0  0  0  0  0
  -18.9702   17.5970  -20.7943 C   0  0  0  0  0  0  0  0  0  0  0  0
  -17.8544   17.2631  -20.0756 C   0  0  0  0  0  0  0  0  0  0  0  0
  -17.8261   16.2125  -19.2445 N   0  0  0  0  0  0  0  0  0  0  0  0
  -19.0141   18.7432  -21.7019 C   0  0  0  0  0  0  0  0  0  0  0  0
  -19.1010   18.4631  -23.1573 C   0  0  0  0  0  0  0  0  0  0  0  0
  -20.4592   17.8754  -23.5105 C   0  0  0  0  0  0  0  0  0  0  0  0
  -21.3172   19.1234  -23.4428 C   0  0  0  0  0  0  0  0  0  0  0  0
  -20.3503   20.1919  -23.8194 C   0  0  0  0  0  0  0  0  0  0  0  0
  -19.0712   19.6957  -23.8342 O   0  0  0  0  0  0  0  0  0  0  0  0
  -18.0071   17.6456  -23.7212 C   0  0  0  0  0  0  0  0  0  0  0  0
  -17.9130   16.3943  -23.4649 O   0  0  0  0  0  0  0  0  0  0  0  0
  -17.0094   18.1316  -24.5502 O   0  0  0  0  0  0  0  0  0  0  0  0
  -16.7663   17.5769  -25.3589 H   0  0  0  0  0  0  0  0  0  0  0  0
  -18.0989   13.1422  -18.3188 C   0  0  0  0  0  0  0  0  0  0  0  0
  -18.7952   12.2160  -19.3053 C   0  0  0  0  0  0  0  0  0  0  0  0
  -16.5159   10.1073  -19.8718 C   0  0  0  0  0  0  0  0  0  0  0  0
  -16.9319   11.2283  -20.7549 C   0  0  0  0  0  0  0  0  0  0  0  0
  -16.4229   11.5329  -21.9144 O   0  0  0  0  0  0  0  0  0  0  0  0
  -17.0110   12.5727  -22.4350 C   0  0  0  0  0  0  0  0  0  0  0  0
  -17.9542   12.9628  -21.5632 N   0  0  0  0  0  0  0  0  0  0  0  0
  -17.9404   12.1481  -20.4943 C   0  0  0  0  0  0  0  0  0  0  0  0
  -16.7147   13.2021  -23.7133 C   0  0  0  0  0  0  0  0  0  0  0  0
  -17.6017   13.2529  -24.7661 C   0  0  0  0  0  0  0  0  0  0  0  0
  -17.2905   13.8600  -25.9657 C   0  0  0  0  0  0  0  0  0  0  0  0
  -16.0590   14.4490  -26.1607 C   0  0  0  0  0  0  0  0  0  0  0  0
  -15.1408   14.4173  -25.1229 C   0  0  0  0  0  0  0  0  0  0  0  0
  -13.5534   15.1556  -25.3209 Cl  0  0  0  0  0  0  0  0  0  0  0  0
  -15.4725   13.8059  -23.9341 C   0  0  0  0  0  0  0  0  0  0  0  0
 20 21  1  0  0  0
 21 22  1  0  0  0
 22 23  1  0  0  0
 23 26  1  0  0  0
 26 27  2  0  0  0
 27 28  1  0  0  0
 28 29  2  0  0  0
 29 30  1  0  0  0
 30 31  1  0  0  0
 30 32  2  0  0  0
 23 24  2  0  0  0
 24 25  1  0  0  0
 25 19  1  0  0  0
 19 18  1  0  0  0
 18  1  1  0  0  0
  1  2  1  0  0  0
  2  3  2  0  0  0
  3  4  1  0  0  0
  4  5  2  0  0  0
  5  8  1  0  0  0
  8  9  1  0  0  0
  9 14  1  0  0  0
 14 15  2  0  0  0
 14 16  1  0  0  0
  9 10  1  0  0  0
 10 11  1  0  0  0
 11 12  1  0  0  0
 12 13  1  0  0  0
  5  6  1  0  0  0
  6  7  2  0  0  0
 25 21  2  0  0  0
  7  2  1  0  0  0
 32 26  1  0  0  0
 13  9  1  0  0  0
 16 17  1  0  0  0
M  END
> <minimizedAffinity>
-8.38160

> <CNNscore>
0.2817021012

> <CNNaffinity>
6.6260643005

> <CNN_VS>
1.8665761948

> <CNNaffinity_variance>
0.3376230299

$$$$
[H]OC(=O)C1(C([H])([H])c2c([H])nc(OC([H])([H])C([H])([H])c3nc(-c4c([H])c([H])c([H])c(Cl)c4[H])oc3C([H])([H])[H])c([H])c2[H])OC([H])([H])C([H])([H])C1([H])[H]


 32 35  0  0  0  0  0  0  0  0999 V2000
  -16.6587   16.8239  -24.8402 O   0  0  0  0  0  0  0  0  0  0  0  0
  -17.7624   17.2897  -24.1471 C   0  0  0  0  0  0  0  0  0  0  0  0
  -18.6666   16.3642  -23.6004 C   0  0  0  0  0  0  0  0  0  0  0  0
  -19.7771   16.8008  -22.9035 C   0  0  0  0  0  0  0  0  0  0  0  0
  -20.0376   18.1434  -22.7201 C   0  0  0  0  0  0  0  0  0  0  0  0
  -19.1275   19.0035  -23.2724 C   0  0  0  0  0  0  0  0  0  0  0  0
  -18.0529   18.5724  -23.9468 N   0  0  0  0  0  0  0  0  0  0  0  0
  -21.2123   18.6020  -21.9790 C   0  0  0  0  0  0  0  0  0  0  0  0
  -22.5178   18.5889  -22.6859 C   0  0  0  0  0  0  0  0  0  0  0  0
  -23.3549   17.3974  -22.2450 C   0  0  0  0  0  0  0  0  0  0  0  0
  -23.8115   17.8801  -20.8823 C   0  0  0  0  0  0  0  0  0  0  0  0
  -23.8520   19.3574  -21.0681 C   0  0  0  0  0  0  0  0  0  0  0  0
  -23.2523   19.7070  -22.2516 O   0  0  0  0  0  0  0  0  0  0  0  0
  -22.4519   18.6739  -24.1595 C   0  0  0  0  0  0  0  0  0  0  0  0
  -22.6720   17.6484  -24.8945 O   0  0  0  0  0  0  0  0  0  0  0  0
  -22.1544   19.8264  -24.8679 O   0  0  0  0  0  0  0  0  0  0  0  0
  -22.7205   20.0323  -25.6790 H   0  0  0  0  0  0  0  0  0  0  0  0
  -15.4423   16.4090  -24.2987 C   0  0  0  0  0  0  0  0  0  0  0  0
  -15.0556   15.0697  -24.9090 C   0  0  0  0  0  0  0  0  0  0  0  0
  -17.2771   13.2774  -26.2565 C   0  0  0  0  0  0  0  0  0  0  0  0
  -16.8629   13.2597  -24.8291 C   0  0  0  0  0  0  0  0  0  0  0  0
  -17.3499   12.5012  -23.8889 O   0  0  0  0  0  0  0  0  0  0  0  0
  -16.7708   12.7295  -22.7441 C   0  0  0  0  0  0  0  0  0  0  0  0
  -15.8570   13.6898  -22.9555 N   0  0  0  0  0  0  0  0  0  0  0  0
  -15.8799   14.0527  -24.2493 C   0  0  0  0  0  0  0  0  0  0  0  0
  -17.0490   12.0782  -21.4728 C   0  0  0  0  0  0  0  0  0  0  0  0
  -16.4128   10.9344  -21.0425 C   0  0  0  0  0  0  0  0  0  0  0  0
  -16.6983   10.3423  -19.8291 C   0  0  0  0  0  0  0  0  0  0  0  0
  -17.6474   10.8811  -18.9861 C   0  0  0  0  0  0  0  0  0  0  0  0
  -18.3079   12.0320  -19.3862 C   0  0  0  0  0  0  0  0  0  0  0  0
  -19.5291   12.7603  -18.3457 Cl  0  0  0  0  0  0  0  0  0  0  0  0
  -18.0073   12.6062  -20.6014 C   0  0  0  0  0  0  0  0  0  0  0  0
 20 21  1  0  0  0
 21 22  1  0  0  0
 22 23  1  0  0  0
 23 26  1  0  0  0
 26 27  2  0  0  0
 27 28  1  0  0  0
 28 29  2  0  0  0
 29 30  1  0  0  0
 30 31  1  0  0  0
 30 32  2  0  0  0
 23 24  2  0  0  0
 24 25  1  0  0  0
 25 19  1  0  0  0
 19 18  1  0  0  0
 18  1  1  0  0  0
  1  2  1  0  0  0
  2  3  2  0  0  0
  3  4  1  0  0  0
  4  5  2  0  0  0
  5  8  1  0  0  0
  8  9  1  0  0  0
  9 14  1  0  0  0
 14 15  2  0  0  0
 14 16  1  0  0  0
  9 10  1  0  0  0
 10 11  1  0  0  0
 11 12  1  0  0  0
 12 13  1  0  0  0
  5  6  1  0  0  0
  6  7  2  0  0  0
 25 21  2  0  0  0
  7  2  1  0  0  0
 32 26  1  0  0  0
 13  9  1  0  0  0
 16 17  1  0  0  0
M  END
> <minimizedAffinity>
-8.32070

> <CNNscore>
0.2735062838

> <CNNaffinity>
6.2860879898

> <CNN_VS>
1.7192845345

> <CNNaffinity_variance>
0.4018388689

$$$$
[H]OC(=O)C([H])([H])c1c([H])c([H])c(Oc2c([H])c([H])c(C(=O)N([H])C([H])(C([H])([H])[H])C([H])([H])[H])c([H])c2N([H])S(=O)(=O)c2c([H])c([H])c(Cl)c([H])c2Cl)c(OC([H])([H])[H])c1[H]


 40 42  0  0  0  0  0  0  0  0999 V2000
  -20.0684   13.8588  -18.3523 C   0  0  0  0  0  0  0  0  0  0  0  0
  -20.7028   14.2405  -17.2016 C   0  0  0  0  0  0  0  0  0  0  0  0
  -21.6199   15.2732  -17.1867 C   0  0  0  0  0  0  0  0  0  0  0  0
  -21.9099   15.9408  -18.3492 C   0  0  0  0  0  0  0  0  0  0  0  0
  -21.2640   15.5478  -19.5026 C   0  0  0  0  0  0  0  0  0  0  0  0
  -20.3483   14.5289  -19.5596 C   0  0  0  0  0  0  0  0  0  0  0  0
  -22.8821   17.0408  -18.3771 C   0  0  0  0  0  0  0  0  0  0  0  0
  -23.8128   17.0085  -17.5137 O   0  0  0  0  0  0  0  0  0  0  0  0
  -22.7891   18.0789  -19.3112 N   0  0  0  0  0  0  0  0  0  0  0  0
  -22.0449   18.1272  -20.0153 H   0  0  0  0  0  0  0  0  0  0  0  0
  -23.7812   19.1427  -19.2927 C   0  0  0  0  0  0  0  0  0  0  0  0
  -23.1270   20.3230  -18.5954 C   0  0  0  0  0  0  0  0  0  0  0  0
  -24.2103   19.4815  -20.6879 C   0  0  0  0  0  0  0  0  0  0  0  0
  -19.6632   14.1186  -20.7354 N   0  0  0  0  0  0  0  0  0  0  0  0
  -20.0172   13.2731  -21.2630 H   0  0  0  0  0  0  0  0  0  0  0  0
  -18.2903   14.9953  -21.2661 S   0  0  0  0  0  0  0  0  0  0  0  0
  -18.4799   16.5000  -21.1101 O   0  0  0  0  0  0  0  0  0  0  0  0
  -17.1037   14.5778  -20.3884 O   0  0  0  0  0  0  0  0  0  0  0  0
  -17.9176   14.5874  -22.9224 C   0  0  0  0  0  0  0  0  0  0  0  0
  -18.0000   15.5340  -23.9026 C   0  0  0  0  0  0  0  0  0  0  0  0
  -17.7087   15.1234  -25.2109 C   0  0  0  0  0  0  0  0  0  0  0  0
  -17.3554   13.8362  -25.5185 C   0  0  0  0  0  0  0  0  0  0  0  0
  -16.9973   13.3496  -27.1535 Cl  0  0  0  0  0  0  0  0  0  0  0  0
  -17.2890   12.9258  -24.4934 C   0  0  0  0  0  0  0  0  0  0  0  0
  -17.5609   13.2660  -23.2006 C   0  0  0  0  0  0  0  0  0  0  0  0
  -17.4762   12.0956  -21.8773 Cl  0  0  0  0  0  0  0  0  0  0  0  0
  -19.1533   12.8248  -18.3689 O   0  0  0  0  0  0  0  0  0  0  0  0
  -18.4694   10.5256  -18.0166 C   0  0  0  0  0  0  0  0  0  0  0  0
  -18.6552    9.3431  -17.3179 C   0  0  0  0  0  0  0  0  0  0  0  0
  -19.6133    9.1912  -16.3288 C   0  0  0  0  0  0  0  0  0  0  0  0
  -20.4087   10.2817  -16.0429 C   0  0  0  0  0  0  0  0  0  0  0  0
  -20.2415   11.4672  -16.7258 C   0  0  0  0  0  0  0  0  0  0  0  0
  -19.2683   11.6135  -17.7273 C   0  0  0  0  0  0  0  0  0  0  0  0
  -16.1713   11.0145  -18.6286 C   0  0  0  0  0  0  0  0  0  0  0  0
  -17.4839   10.6211  -19.0023 O   0  0  0  0  0  0  0  0  0  0  0  0
  -19.8018    7.9150  -15.5862 C   0  0  0  0  0  0  0  0  0  0  0  0
  -19.8142    8.1786  -14.1255 C   0  0  0  0  0  0  0  0  0  0  0  0
  -18.8323    8.5780  -13.4691 O   0  0  0  0  0  0  0  0  0  0  0  0
  -21.0279    7.9552  -13.4577 O   0  0  0  0  0  0  0  0  0  0  0  0
  -21.8457    8.4624  -13.7583 H   0  0  0  0  0  0  0  0  0  0  0  0
 34 35  1  0  0  0
 35 28  1  0  0  0
 28 29  2  0  0  0
 29 30  1  0  0  0
 30 36  1  0  0  0
 36 37  1  0  0  0
 37 38  2  0  0  0
 37 39  1  0  0  0
 30 31  2  0  0  0
 31 32  1  0  0  0
 32 33  2  0  0  0
 33 27  1  0  0  0
 27  1  1  0  0  0
  1  2  2  0  0  0
  2  3  1  0  0  0
  3  4  2  0  0  0
  4  7  1  0  0  0
  7  8  2  0  0  0
  7  9  1  0  0  0
  9 11  1  0  0  0
 11 12  1  0  0  0
 11 13  1  0  0  0
  4  5  1  0  0  0
  5  6  2  0  0  0
  6 14  1  0  0  0
 14 16  1  0  0  0
 16 17  2  0  0  0
 16 18  2  0  0  0
 16 19  1  0  0  0
 19 20  2  0  0  0
 20 21  1  0  0  0
 21 22  2  0  0  0
 22 23  1  0  0  0
 22 24  1  0  0  0
 24 25  2  0  0  0
 25 26  1  0  0  0
 33 28  1  0  0  0
  6  1  1  0  0  0
 25 19  1  0  0  0
 39 40  1  0  0  0
  9 10  1  0  0  0
 14 15  1  0  0  0
M  END
> <minimizedAffinity>
-7.42387

> <CNNscore>
0.3069922924

> <CNNaffinity>
6.8431882858

> <CNN_VS>
2.1008059978

> <CNNaffinity_variance>
0.1506618410

$$$$
[H]OC(=O)C([H])([H])c1c([H])c([H])c(Oc2c([H])c([H])c(C(=O)N([H])C([H])(C([H])([H])[H])C([H])([H])[H])c([H])c2N([H])S(=O)(=O)c2c([H])c([H])c(Cl)c([H])c2Cl)c(OC([H])([H])[H])c1[H]


 40 42  0  0  0  0  0  0  0  0999 V2000
  -18.0013   14.4834  -20.5016 C   0  0  0  0  0  0  0  0  0  0  0  0
  -19.1741   15.0449  -20.0756 C   0  0  0  0  0  0  0  0  0  0  0  0
  -19.8357   15.9993  -20.8235 C   0  0  0  0  0  0  0  0  0  0  0  0
  -19.3129   16.4024  -22.0258 C   0  0  0  0  0  0  0  0  0  0  0  0
  -18.1303   15.8300  -22.4447 C   0  0  0  0  0  0  0  0  0  0  0  0
  -17.4433   14.8806  -21.7328 C   0  0  0  0  0  0  0  0  0  0  0  0
  -19.9874   17.4105  -22.8533 C   0  0  0  0  0  0  0  0  0  0  0  0
  -19.3309   17.8856  -23.8310 O   0  0  0  0  0  0  0  0  0  0  0  0
  -21.2943   17.8298  -22.5793 N   0  0  0  0  0  0  0  0  0  0  0  0
  -21.8443   17.4581  -21.7975 H   0  0  0  0  0  0  0  0  0  0  0  0
  -21.9127   18.8325  -23.4329 C   0  0  0  0  0  0  0  0  0  0  0  0
  -22.6983   18.0697  -24.4856 C   0  0  0  0  0  0  0  0  0  0  0  0
  -22.7901   19.7384  -22.6236 C   0  0  0  0  0  0  0  0  0  0  0  0
  -16.2172   14.2893  -22.1418 N   0  0  0  0  0  0  0  0  0  0  0  0
  -15.3219   14.5918  -21.6670 H   0  0  0  0  0  0  0  0  0  0  0  0
  -16.2177   13.1107  -23.3851 S   0  0  0  0  0  0  0  0  0  0  0  0
  -15.0847   12.1045  -23.2169 O   0  0  0  0  0  0  0  0  0  0  0  0
  -17.5434   12.3442  -23.2992 O   0  0  0  0  0  0  0  0  0  0  0  0
  -16.1315   13.8834  -24.9485 C   0  0  0  0  0  0  0  0  0  0  0  0
  -17.1174   13.6866  -25.8720 C   0  0  0  0  0  0  0  0  0  0  0  0
  -16.9645   14.3216  -27.1123 C   0  0  0  0  0  0  0  0  0  0  0  0
  -15.8837   15.1089  -27.4096 C   0  0  0  0  0  0  0  0  0  0  0  0
  -15.7161   15.8887  -28.9594 Cl  0  0  0  0  0  0  0  0  0  0  0  0
  -14.9222   15.2715  -26.4436 C   0  0  0  0  0  0  0  0  0  0  0  0
  -15.0159   14.6793  -25.2182 C   0  0  0  0  0  0  0  0  0  0  0  0
  -13.7789   14.8866  -23.9711 Cl  0  0  0  0  0  0  0  0  0  0  0  0
  -17.3404   13.5273  -19.7559 O   0  0  0  0  0  0  0  0  0  0  0  0
  -17.4191   11.2409  -18.9533 C   0  0  0  0  0  0  0  0  0  0  0  0
  -18.0616   10.2981  -18.1664 C   0  0  0  0  0  0  0  0  0  0  0  0
  -19.1906   10.5820  -17.4153 C   0  0  0  0  0  0  0  0  0  0  0  0
  -19.6807   11.8706  -17.4687 C   0  0  0  0  0  0  0  0  0  0  0  0
  -19.0578   12.8239  -18.2450 C   0  0  0  0  0  0  0  0  0  0  0  0
  -17.9140   12.5286  -19.0039 C   0  0  0  0  0  0  0  0  0  0  0  0
  -16.4050    9.9713  -20.7573 C   0  0  0  0  0  0  0  0  0  0  0  0
  -16.2812   10.8972  -19.6874 O   0  0  0  0  0  0  0  0  0  0  0  0
  -19.8706    9.5593  -16.5743 C   0  0  0  0  0  0  0  0  0  0  0  0
  -18.8906    8.9309  -15.6535 C   0  0  0  0  0  0  0  0  0  0  0  0
  -18.8851    9.0796  -14.4156 O   0  0  0  0  0  0  0  0  0  0  0  0
  -17.9105    8.1163  -16.2406 O   0  0  0  0  0  0  0  0  0  0  0  0
  -18.2057    7.3231  -16.7884 H   0  0  0  0  0  0  0  0  0  0  0  0
 34 35  1  0  0  0
 35 28  1  0  0  0
 28 29  2  0  0  0
 29 30  1  0  0  0
 30 36  1  0  0  0
 36 37  1  0  0  0
 37 38  2  0  0  0
 37 39  1  0  0  0
 30 31  2  0  0  0
 31 32  1  0  0  0
 32 33  2  0  0  0
 33 27  1  0  0  0
 27  1  1  0  0  0
  1  2  2  0  0  0
  2  3  1  0  0  0
  3  4  2  0  0  0
  4  7  1  0  0  0
  7  8  2  0  0  0
  7  9  1  0  0  0
  9 11  1  0  0  0
 11 12  1  0  0  0
 11 13  1  0  0  0
  4  5  1  0  0  0
  5  6  2  0  0  0
  6 14  1  0  0  0
 14 16  1  0  0  0
 16 17  2  0  0  0
 16 18  2  0  0  0
 16 19  1  0  0  0
 19 20  2  0  0  0
 20 21  1  0  0  0
 21 22  2  0  0  0
 22 23  1  0  0  0
 22 24  1  0  0  0
 24 25  2  0  0  0
 25 26  1  0  0  0
 33 28  1  0  0  0
  6  1  1  0  0  0
 25 19  1  0  0  0
 39 40  1  0  0  0
  9 10  1  0  0  0
 14 15  1  0  0  0
M  END
> <minimizedAffinity>
-9.61047

> <CNNscore>
0.3047537208

> <CNNaffinity>
7.1978960037

> <CNN_VS>
2.1935856342

> <CNNaffinity_variance>
0.2208942622

$$$$
[H]OC(=O)C([H])([H])c1c([H])c([H])c(Oc2c([H])c([H])c(C(=O)N([H])C([H])(C([H])([H])[H])C([H])([H])[H])c([H])c2N([H])S(=O)(=O)c2c([H])c([H])c(Cl)c([H])c2Cl)c(OC([H])([H])[H])c1[H]


 40 42  0  0  0  0  0  0  0  0999 V2000
  -18.5883   15.2136  -21.6794 C   0  0  0  0  0  0  0  0  0  0  0  0
  -19.6595   15.2361  -20.8283 C   0  0  0  0  0  0  0  0  0  0  0  0
  -19.7045   14.4444  -19.6973 C   0  0  0  0  0  0  0  0  0  0  0  0
  -18.6544   13.6102  -19.4099 C   0  0  0  0  0  0  0  0  0  0  0  0
  -17.5806   13.5956  -20.2751 C   0  0  0  0  0  0  0  0  0  0  0  0
  -17.4971   14.3651  -21.4070 C   0  0  0  0  0  0  0  0  0  0  0  0
  -18.6610   12.7563  -18.2154 C   0  0  0  0  0  0  0  0  0  0  0  0
  -18.2225   13.2685  -17.1393 O   0  0  0  0  0  0  0  0  0  0  0  0
  -19.1290   11.4380  -18.2583 N   0  0  0  0  0  0  0  0  0  0  0  0
  -19.4902   11.0047  -19.1148 H   0  0  0  0  0  0  0  0  0  0  0  0
  -19.1113   10.6377  -17.0436 C   0  0  0  0  0  0  0  0  0  0  0  0
  -20.5298   10.6564  -16.5006 C   0  0  0  0  0  0  0  0  0  0  0  0
  -18.6419    9.2461  -17.3415 C   0  0  0  0  0  0  0  0  0  0  0  0
  -16.4054   14.3539  -22.3170 N   0  0  0  0  0  0  0  0  0  0  0  0
  -15.6464   15.0827  -22.2116 H   0  0  0  0  0  0  0  0  0  0  0  0
  -16.3452   13.1704  -23.5541 S   0  0  0  0  0  0  0  0  0  0  0  0
  -15.2261   12.1610  -23.3231 O   0  0  0  0  0  0  0  0  0  0  0  0
  -17.6763   12.4086  -23.5346 O   0  0  0  0  0  0  0  0  0  0  0  0
  -16.1747   13.9365  -25.1138 C   0  0  0  0  0  0  0  0  0  0  0  0
  -17.1065   13.7311  -26.0902 C   0  0  0  0  0  0  0  0  0  0  0  0
  -16.8869   14.3613  -27.3229 C   0  0  0  0  0  0  0  0  0  0  0  0
  -15.7946   15.1523  -27.5629 C   0  0  0  0  0  0  0  0  0  0  0  0
  -15.5437   15.9259  -29.1044 Cl  0  0  0  0  0  0  0  0  0  0  0  0
  -14.8896   15.3235  -26.5452 C   0  0  0  0  0  0  0  0  0  0  0  0
  -15.0492   14.7363  -25.3242 C   0  0  0  0  0  0  0  0  0  0  0  0
  -13.8851   14.9548  -24.0107 Cl  0  0  0  0  0  0  0  0  0  0  0  0
  -18.5411   16.0066  -22.8090 O   0  0  0  0  0  0  0  0  0  0  0  0
  -18.4021   18.4038  -22.4741 C   0  0  0  0  0  0  0  0  0  0  0  0
  -18.9875   19.6469  -22.6556 C   0  0  0  0  0  0  0  0  0  0  0  0
  -20.2044   19.8243  -23.2936 C   0  0  0  0  0  0  0  0  0  0  0  0
  -20.8458   18.6961  -23.7619 C   0  0  0  0  0  0  0  0  0  0  0  0
  -20.2819   17.4500  -23.5918 C   0  0  0  0  0  0  0  0  0  0  0  0
  -19.0483   17.2780  -22.9439 C   0  0  0  0  0  0  0  0  0  0  0  0
  -17.1303   18.3437  -20.4068 C   0  0  0  0  0  0  0  0  0  0  0  0
  -17.1702   18.2864  -21.8254 O   0  0  0  0  0  0  0  0  0  0  0  0
  -20.8215   21.1657  -23.4817 C   0  0  0  0  0  0  0  0  0  0  0  0
  -22.2080   21.1619  -22.9519 C   0  0  0  0  0  0  0  0  0  0  0  0
  -22.5039   21.1337  -21.7410 O   0  0  0  0  0  0  0  0  0  0  0  0
  -23.2423   21.1924  -23.8998 O   0  0  0  0  0  0  0  0  0  0  0  0
  -23.2798   21.9621  -24.5498 H   0  0  0  0  0  0  0  0  0  0  0  0
 34 35  1  0  0  0
 35 28  1  0  0  0
 28 29  2  0  0  0
 29 30  1  0  0  0
 30 36  1  0  0  0
 36 37  1  0  0  0
 37 38  2  0  0  0
 37 39  1  0  0  0
 30 31  2  0  0  0
 31 32  1  0  0  0
 32 33  2  0  0  0
 33 27  1  0  0  0
 27  1  1  0  0  0
  1  2  2  0  0  0
  2  3  1  0  0  0
  3  4  2  0  0  0
  4  7  1  0  0  0
  7  8  2  0  0  0
  7  9  1  0  0  0
  9 11  1  0  0  0
 11 12  1  0  0  0
 11 13  1  0  0  0
  4  5  1  0  0  0
  5  6  2  0  0  0
  6 14  1  0  0  0
 14 16  1  0  0  0
 16 17  2  0  0  0
 16 18  2  0  0  0
 16 19  1  0  0  0
 19 20  2  0  0  0
 20 21  1  0  0  0
 21 22  2  0  0  0
 22 23  1  0  0  0
 22 24  1  0  0  0
 24 25  2  0  0  0
 25 26  1  0  0  0
 33 28  1  0  0  0
  6  1  1  0  0  0
 25 19  1  0  0  0
 39 40  1  0  0  0
  9 10  1  0  0  0
 14 15  1  0  0  0
M  END
> <minimizedAffinity>
-8.22638

> <CNNscore>
0.1462473869

> <CNNaffinity>
6.7079110146

> <CNN_VS>
0.9810144305

> <CNNaffinity_variance>
0.4871346354

$$$$
[H]OC(=O)C([H])([H])c1c([H])c([H])c(Oc2c([H])c([H])c(C(=O)N([H])C([H])(C([H])([H])[H])C([H])([H])[H])c([H])c2N([H])S(=O)(=O)c2c([H])c([H])c(Cl)c([H])c2Cl)c(OC([H])([H])[H])c1[H]


 40 42  0  0  0  0  0  0  0  0999 V2000
  -17.7381   15.6610  -20.0769 C   0  0  0  0  0  0  0  0  0  0  0  0
  -17.7464   16.9733  -20.4644 C   0  0  0  0  0  0  0  0  0  0  0  0
  -18.2486   17.9679  -19.6482 C   0  0  0  0  0  0  0  0  0  0  0  0
  -18.7550   17.6437  -18.4154 C   0  0  0  0  0  0  0  0  0  0  0  0
  -18.7420   16.3180  -18.0358 C   0  0  0  0  0  0  0  0  0  0  0  0
  -18.2530   15.3017  -18.8157 C   0  0  0  0  0  0  0  0  0  0  0  0
  -19.2937   18.6715  -17.5157 C   0  0  0  0  0  0  0  0  0  0  0  0
  -19.2628   19.8718  -17.9291 O   0  0  0  0  0  0  0  0  0  0  0  0
  -19.8181   18.3455  -16.2598 N   0  0  0  0  0  0  0  0  0  0  0  0
  -19.8560   17.3834  -15.9066 H   0  0  0  0  0  0  0  0  0  0  0  0
  -20.3378   19.4055  -15.4096 C   0  0  0  0  0  0  0  0  0  0  0  0
  -21.8511   19.3392  -15.5233 C   0  0  0  0  0  0  0  0  0  0  0  0
  -19.8716   19.2190  -13.9978 C   0  0  0  0  0  0  0  0  0  0  0  0
  -18.2432   13.9290  -18.4472 N   0  0  0  0  0  0  0  0  0  0  0  0
  -17.3846   13.5347  -17.9721 H   0  0  0  0  0  0  0  0  0  0  0  0
  -19.6111   12.9524  -18.7795 S   0  0  0  0  0  0  0  0  0  0  0  0
  -20.9149   13.7287  -18.6314 O   0  0  0  0  0  0  0  0  0  0  0  0
  -19.5059   12.4843  -20.2363 O   0  0  0  0  0  0  0  0  0  0  0  0
  -19.6101   11.5428  -17.7492 C   0  0  0  0  0  0  0  0  0  0  0  0
  -20.5264   11.4205  -16.7445 C   0  0  0  0  0  0  0  0  0  0  0  0
  -20.4458   10.2716  -15.9453 C   0  0  0  0  0  0  0  0  0  0  0  0
  -19.4997    9.3008  -16.1423 C   0  0  0  0  0  0  0  0  0  0  0  0
  -19.4200    7.8805  -15.1352 Cl  0  0  0  0  0  0  0  0  0  0  0  0
  -18.6032    9.4761  -17.1668 C   0  0  0  0  0  0  0  0  0  0  0  0
  -18.6318   10.5726  -17.9779 C   0  0  0  0  0  0  0  0  0  0  0  0
  -17.4783   10.8016  -19.2990 Cl  0  0  0  0  0  0  0  0  0  0  0  0
  -17.2339   14.6661  -20.8911 O   0  0  0  0  0  0  0  0  0  0  0  0
  -16.3471   13.7982  -22.9740 C   0  0  0  0  0  0  0  0  0  0  0  0
  -15.6946   14.0611  -24.1682 C   0  0  0  0  0  0  0  0  0  0  0  0
  -15.2693   15.3274  -24.5352 C   0  0  0  0  0  0  0  0  0  0  0  0
  -15.5177   16.3602  -23.6547 C   0  0  0  0  0  0  0  0  0  0  0  0
  -16.1646   16.1213  -22.4614 C   0  0  0  0  0  0  0  0  0  0  0  0
  -16.5925   14.8349  -22.0961 C   0  0  0  0  0  0  0  0  0  0  0  0
  -15.7787   11.5436  -22.2748 C   0  0  0  0  0  0  0  0  0  0  0  0
  -16.7562   12.5000  -22.6586 O   0  0  0  0  0  0  0  0  0  0  0  0
  -14.5696   15.5954  -25.8214 C   0  0  0  0  0  0  0  0  0  0  0  0
  -15.5633   15.7560  -26.9122 C   0  0  0  0  0  0  0  0  0  0  0  0
  -15.5517   15.1147  -27.9814 O   0  0  0  0  0  0  0  0  0  0  0  0
  -16.5781   16.7022  -26.7027 O   0  0  0  0  0  0  0  0  0  0  0  0
  -17.1790   16.5971  -25.9001 H   0  0  0  0  0  0  0  0  0  0  0  0
 34 35  1  0  0  0
 35 28  1  0  0  0
 28 29  2  0  0  0
 29 30  1  0  0  0
 30 36  1  0  0  0
 36 37  1  0  0  0
 37 38  2  0  0  0
 37 39  1  0  0  0
 30 31  2  0  0  0
 31 32  1  0  0  0
 32 33  2  0  0  0
 33 27  1  0  0  0
 27  1  1  0  0  0
  1  2  2  0  0  0
  2  3  1  0  0  0
  3  4  2  0  0  0
  4  7  1  0  0  0
  7  8  2  0  0  0
  7  9  1  0  0  0
  9 11  1  0  0  0
 11 12  1  0  0  0
 11 13  1  0  0  0
  4  5  1  0  0  0
  5  6  2  0  0  0
  6 14  1  0  0  0
 14 16  1  0  0  0
 16 17  2  0  0  0
 16 18  2  0  0  0
 16 19  1  0  0  0
 19 20  2  0  0  0
 20 21  1  0  0  0
 21 22  2  0  0  0
 22 23  1  0  0  0
 22 24  1  0  0  0
 24 25  2  0  0  0
 25 26  1  0  0  0
 33 28  1  0  0  0
  6  1  1  0  0  0
 25 19  1  0  0  0
 39 40  1  0  0  0
  9 10  1  0  0  0
 14 15  1  0  0  0
M  END
> <minimizedAffinity>
-8.14254

> <CNNscore>
0.1193101183

> <CNNaffinity>
6.6805891991

> <CNN_VS>
0.7970618606

> <CNNaffinity_variance>
0.1731569171

$$$$
[H]OC(=O)C([H])([H])c1c([H])c([H])c(Oc2c([H])c([H])c(C(=O)N([H])C([H])(C([H])([H])[H])C([H])([H])[H])c([H])c2N([H])S(=O)(=O)c2c([H])c([H])c(Cl)c([H])c2Cl)c(OC([H])([H])[H])c1[H]


 40 42  0  0  0  0  0  0  0  0999 V2000
  -18.8792   11.1541  -17.7670 C   0  0  0  0  0  0  0  0  0  0  0  0
  -17.9573   10.2231  -18.1618 C   0  0  0  0  0  0  0  0  0  0  0  0
  -17.2487   10.3577  -19.3397 C   0  0  0  0  0  0  0  0  0  0  0  0
  -17.4663   11.4483  -20.1426 C   0  0  0  0  0  0  0  0  0  0  0  0
  -18.3981   12.3797  -19.7347 C   0  0  0  0  0  0  0  0  0  0  0  0
  -19.1216   12.2832  -18.5740 C   0  0  0  0  0  0  0  0  0  0  0  0
  -16.7305   11.6312  -21.3999 C   0  0  0  0  0  0  0  0  0  0  0  0
  -15.7748   10.8272  -21.6297 O   0  0  0  0  0  0  0  0  0  0  0  0
  -17.0656   12.6442  -22.3056 N   0  0  0  0  0  0  0  0  0  0  0  0
  -17.8348   13.3027  -22.1425 H   0  0  0  0  0  0  0  0  0  0  0  0
  -16.3011   12.7791  -23.5360 C   0  0  0  0  0  0  0  0  0  0  0  0
  -17.3178   12.9184  -24.6559 C   0  0  0  0  0  0  0  0  0  0  0  0
  -15.3871   13.9639  -23.4561 C   0  0  0  0  0  0  0  0  0  0  0  0
  -20.0949   13.2255  -18.1440 N   0  0  0  0  0  0  0  0  0  0  0  0
  -21.1189   12.9735  -18.2244 H   0  0  0  0  0  0  0  0  0  0  0  0
  -19.5911   14.7358  -17.5114 S   0  0  0  0  0  0  0  0  0  0  0  0
  -18.1945   14.6620  -16.9045 O   0  0  0  0  0  0  0  0  0  0  0  0
  -19.5460   15.7355  -18.6738 O   0  0  0  0  0  0  0  0  0  0  0  0
  -20.7463   15.3130  -16.3363 C   0  0  0  0  0  0  0  0  0  0  0  0
  -21.8226   14.5472  -15.9913 C   0  0  0  0  0  0  0  0  0  0  0  0
  -22.7180   15.0900  -15.0593 C   0  0  0  0  0  0  0  0  0  0  0  0
  -22.5441   16.3305  -14.5052 C   0  0  0  0  0  0  0  0  0  0  0  0
  -23.6716   16.9838  -13.3476 Cl  0  0  0  0  0  0  0  0  0  0  0  0
  -21.4446   17.0571  -14.8890 C   0  0  0  0  0  0  0  0  0  0  0  0
  -20.5385   16.5820  -15.7913 C   0  0  0  0  0  0  0  0  0  0  0  0
  -19.1206   17.5154  -16.2880 Cl  0  0  0  0  0  0  0  0  0  0  0  0
  -19.5864   11.0219  -16.5883 O   0  0  0  0  0  0  0  0  0  0  0  0
  -19.7252    9.9215  -14.4324 C   0  0  0  0  0  0  0  0  0  0  0  0
  -19.8305    8.7311  -13.7304 C   0  0  0  0  0  0  0  0  0  0  0  0
  -19.9026    7.4927  -14.3474 C   0  0  0  0  0  0  0  0  0  0  0  0
  -19.8661    7.4677  -15.7264 C   0  0  0  0  0  0  0  0  0  0  0  0
  -19.7612    8.6395  -16.4443 C   0  0  0  0  0  0  0  0  0  0  0  0
  -19.6882    9.8910  -15.8120 C   0  0  0  0  0  0  0  0  0  0  0  0
  -20.2522   11.2496  -12.4693 C   0  0  0  0  0  0  0  0  0  0  0  0
  -19.6593   11.1420  -13.7556 O   0  0  0  0  0  0  0  0  0  0  0  0
  -20.0156    6.2219  -13.5808 C   0  0  0  0  0  0  0  0  0  0  0  0
  -19.4918    6.4142  -12.2054 C   0  0  0  0  0  0  0  0  0  0  0  0
  -20.2006    6.6035  -11.1972 O   0  0  0  0  0  0  0  0  0  0  0  0
  -18.0973    6.3764  -12.0537 O   0  0  0  0  0  0  0  0  0  0  0  0
  -17.6021    5.5466  -12.3410 H   0  0  0  0  0  0  0  0  0  0  0  0
 34 35  1  0  0  0
 35 28  1  0  0  0
 28 29  2  0  0  0
 29 30  1  0  0  0
 30 36  1  0  0  0
 36 37  1  0  0  0
 37 38  2  0  0  0
 37 39  1  0  0  0
 30 31  2  0  0  0
 31 32  1  0  0  0
 32 33  2  0  0  0
 33 27  1  0  0  0
 27  1  1  0  0  0
  1  2  2  0  0  0
  2  3  1  0  0  0
  3  4  2  0  0  0
  4  7  1  0  0  0
  7  8  2  0  0  0
  7  9  1  0  0  0
  9 11  1  0  0  0
 11 12  1  0  0  0
 11 13  1  0  0  0
  4  5  1  0  0  0
  5  6  2  0  0  0
  6 14  1  0  0  0
 14 16  1  0  0  0
 16 17  2  0  0  0
 16 18  2  0  0  0
 16 19  1  0  0  0
 19 20  2  0  0  0
 20 21  1  0  0  0
 21 22  2  0  0  0
 22 23  1  0  0  0
 22 24  1  0  0  0
 24 25  2  0  0  0
 25 26  1  0  0  0
 33 28  1  0  0  0
  6  1  1  0  0  0
 25 19  1  0  0  0
 39 40  1  0  0  0
  9 10  1  0  0  0
 14 15  1  0  0  0
M  END
> <minimizedAffinity>
-7.54131

> <CNNscore>
0.1015829071

> <CNNaffinity>
6.6528840065

> <CNN_VS>
0.6758192778

> <CNNaffinity_variance>
0.2451580465

$$$$
[H]OC(=O)C([H])([H])c1c([H])c([H])c(Oc2c([H])c([H])c(C(=O)N([H])C([H])(C([H])([H])[H])C([H])([H])[H])c([H])c2N([H])S(=O)(=O)c2c([H])c([H])c(Cl)c([H])c2Cl)c(OC([H])([H])[H])c1[H]


 40 42  0  0  0  0  0  0  0  0999 V2000
  -18.6306   12.0849  -18.7360 C   0  0  0  0  0  0  0  0  0  0  0  0
  -17.4960   11.4029  -19.0823 C   0  0  0  0  0  0  0  0  0  0  0  0
  -16.9204   11.5380  -20.3306 C   0  0  0  0  0  0  0  0  0  0  0  0
  -17.4922   12.3743  -21.2552 C   0  0  0  0  0  0  0  0  0  0  0  0
  -18.6357   13.0561  -20.8953 C   0  0  0  0  0  0  0  0  0  0  0  0
  -19.2376   12.9499  -19.6679 C   0  0  0  0  0  0  0  0  0  0  0  0
  -16.9091   12.5497  -22.5913 C   0  0  0  0  0  0  0  0  0  0  0  0
  -15.7680   12.0307  -22.7940 O   0  0  0  0  0  0  0  0  0  0  0  0
  -17.5787   13.2558  -23.5973 N   0  0  0  0  0  0  0  0  0  0  0  0
  -18.5016   13.6806  -23.4572 H   0  0  0  0  0  0  0  0  0  0  0  0
  -16.9525   13.3988  -24.9026 C   0  0  0  0  0  0  0  0  0  0  0  0
  -17.7243   12.4930  -25.8466 C   0  0  0  0  0  0  0  0  0  0  0  0
  -16.9861   14.8303  -25.3444 C   0  0  0  0  0  0  0  0  0  0  0  0
  -20.4228   13.6338  -19.2836 N   0  0  0  0  0  0  0  0  0  0  0  0
  -21.2310   13.0739  -18.8940 H   0  0  0  0  0  0  0  0  0  0  0  0
  -20.5146   15.3354  -19.4599 S   0  0  0  0  0  0  0  0  0  0  0  0
  -19.2673   15.9075  -20.1242 O   0  0  0  0  0  0  0  0  0  0  0  0
  -21.7132   15.6454  -20.3654 O   0  0  0  0  0  0  0  0  0  0  0  0
  -20.7900   16.0884  -17.9089 C   0  0  0  0  0  0  0  0  0  0  0  0
  -22.0213   16.5844  -17.5902 C   0  0  0  0  0  0  0  0  0  0  0  0
  -22.1568   17.1957  -16.3361 C   0  0  0  0  0  0  0  0  0  0  0  0
  -21.1162   17.3039  -15.4519 C   0  0  0  0  0  0  0  0  0  0  0  0
  -21.3095   18.0683  -13.8975 Cl  0  0  0  0  0  0  0  0  0  0  0  0
  -19.9001   16.7880  -15.8249 C   0  0  0  0  0  0  0  0  0  0  0  0
  -19.7072   16.1818  -17.0317 C   0  0  0  0  0  0  0  0  0  0  0  0
  -18.1416   15.5160  -17.5155 Cl  0  0  0  0  0  0  0  0  0  0  0  0
  -19.2054   11.9526  -17.4874 O   0  0  0  0  0  0  0  0  0  0  0  0
  -20.7340   10.6871  -16.0947 C   0  0  0  0  0  0  0  0  0  0  0  0
  -21.0637    9.4655  -15.5290 C   0  0  0  0  0  0  0  0  0  0  0  0
  -20.3127    8.3168  -15.7181 C   0  0  0  0  0  0  0  0  0  0  0  0
  -19.1877    8.4173  -16.5104 C   0  0  0  0  0  0  0  0  0  0  0  0
  -18.8409    9.6224  -17.0824 C   0  0  0  0  0  0  0  0  0  0  0  0
  -19.6069   10.7826  -16.8860 C   0  0  0  0  0  0  0  0  0  0  0  0
  -22.2844   11.8955  -14.6695 C   0  0  0  0  0  0  0  0  0  0  0  0
  -21.5318   11.8121  -15.8712 O   0  0  0  0  0  0  0  0  0  0  0  0
  -20.6788    7.0110  -15.1044 C   0  0  0  0  0  0  0  0  0  0  0  0
  -21.6016    6.2727  -16.0025 C   0  0  0  0  0  0  0  0  0  0  0  0
  -21.2392    5.4831  -16.8968 O   0  0  0  0  0  0  0  0  0  0  0  0
  -22.9740    6.4951  -15.8128 O   0  0  0  0  0  0  0  0  0  0  0  0
  -23.3754    6.2978  -14.9093 H   0  0  0  0  0  0  0  0  0  0  0  0
 34 35  1  0  0  0
 35 28  1  0  0  0
 28 29  2  0  0  0
 29 30  1  0  0  0
 30 36  1  0  0  0
 36 37  1  0  0  0
 37 38  2  0  0  0
 37 39  1  0  0  0
 30 31  2  0  0  0
 31 32  1  0  0  0
 32 33  2  0  0  0
 33 27  1  0  0  0
 27  1  1  0  0  0
  1  2  2  0  0  0
  2  3  1  0  0  0
  3  4  2  0  0  0
  4  7  1  0  0  0
  7  8  2  0  0  0
  7  9  1  0  0  0
  9 11  1  0  0  0
 11 12  1  0  0  0
 11 13  1  0  0  0
  4  5  1  0  0  0
  5  6  2  0  0  0
  6 14  1  0  0  0
 14 16  1  0  0  0
 16 17  2  0  0  0
 16 18  2  0  0  0
 16 19  1  0  0  0
 19 20  2  0  0  0
 20 21  1  0  0  0
 21 22  2  0  0  0
 22 23  1  0  0  0
 22 24  1  0  0  0
 24 25  2  0  0  0
 25 26  1  0  0  0
 33 28  1  0  0  0
  6  1  1  0  0  0
 25 19  1  0  0  0
 39 40  1  0  0  0
  9 10  1  0  0  0
 14 15  1  0  0  0
M  END
> <minimizedAffinity>
-8.35845

> <CNNscore>
0.0782933310

> <CNNaffinity>
6.5687041283

> <CNN_VS>
0.5142857432

> <CNNaffinity_variance>
0.1594374180

$$$$
[H]OC(=O)C([H])([H])c1c([H])c([H])c(Oc2c([H])c([H])c(C(=O)N([H])C([H])(C([H])([H])[H])C([H])([H])[H])c([H])c2N([H])S(=O)(=O)c2c([H])c([H])c(Cl)c([H])c2Cl)c(OC([H])([H])[H])c1[H]


 40 42  0  0  0  0  0  0  0  0999 V2000
  -19.0792   16.2123  -19.7745 C   0  0  0  0  0  0  0  0  0  0  0  0
  -19.8507   17.0642  -20.5170 C   0  0  0  0  0  0  0  0  0  0  0  0
  -20.9687   17.6787  -19.9877 C   0  0  0  0  0  0  0  0  0  0  0  0
  -21.3247   17.4361  -18.6856 C   0  0  0  0  0  0  0  0  0  0  0  0
  -20.5400   16.5755  -17.9470 C   0  0  0  0  0  0  0  0  0  0  0  0
  -19.4237   15.9461  -18.4345 C   0  0  0  0  0  0  0  0  0  0  0  0
  -22.5029   18.0730  -18.0836 C   0  0  0  0  0  0  0  0  0  0  0  0
  -23.1777   18.8524  -18.8251 O   0  0  0  0  0  0  0  0  0  0  0  0
  -22.8676   17.8333  -16.7539 N   0  0  0  0  0  0  0  0  0  0  0  0
  -22.3396   17.2060  -16.1378 H   0  0  0  0  0  0  0  0  0  0  0  0
  -24.0448   18.4925  -16.2099 C   0  0  0  0  0  0  0  0  0  0  0  0
  -24.8699   17.4068  -15.5408 C   0  0  0  0  0  0  0  0  0  0  0  0
  -23.6433   19.5675  -15.2462 C   0  0  0  0  0  0  0  0  0  0  0  0
  -18.6107   15.0462  -17.6932 N   0  0  0  0  0  0  0  0  0  0  0  0
  -17.7216   15.4091  -17.2502 H   0  0  0  0  0  0  0  0  0  0  0  0
  -19.0855   13.4076  -17.5364 S   0  0  0  0  0  0  0  0  0  0  0  0
  -19.0004   12.9253  -16.0926 O   0  0  0  0  0  0  0  0  0  0  0  0
  -20.5496   13.3027  -17.9813 O   0  0  0  0  0  0  0  0  0  0  0  0
  -18.1204   12.3974  -18.5838 C   0  0  0  0  0  0  0  0  0  0  0  0
  -16.9947   11.7873  -18.1102 C   0  0  0  0  0  0  0  0  0  0  0  0
  -16.2603   11.0122  -19.0184 C   0  0  0  0  0  0  0  0  0  0  0  0
  -16.6334   10.8582  -20.3273 C   0  0  0  0  0  0  0  0  0  0  0  0
  -15.7036    9.8885  -21.4378 Cl  0  0  0  0  0  0  0  0  0  0  0  0
  -17.7738   11.4949  -20.7493 C   0  0  0  0  0  0  0  0  0  0  0  0
  -18.5298   12.2623  -19.9122 C   0  0  0  0  0  0  0  0  0  0  0  0
  -19.9998   13.0841  -20.4526 Cl  0  0  0  0  0  0  0  0  0  0  0  0
  -17.9597   15.5994  -20.3018 O   0  0  0  0  0  0  0  0  0  0  0  0
  -16.4653   16.5663  -21.9479 C   0  0  0  0  0  0  0  0  0  0  0  0
  -16.0542   16.6139  -23.2707 C   0  0  0  0  0  0  0  0  0  0  0  0
  -16.6228   15.8386  -24.2681 C   0  0  0  0  0  0  0  0  0  0  0  0
  -17.6450   14.9863  -23.9043 C   0  0  0  0  0  0  0  0  0  0  0  0
  -18.0700   14.9233  -22.5948 C   0  0  0  0  0  0  0  0  0  0  0  0
  -17.4890   15.7125  -21.5893 C   0  0  0  0  0  0  0  0  0  0  0  0
  -16.5048   18.5582  -20.5603 C   0  0  0  0  0  0  0  0  0  0  0  0
  -15.8518   17.3701  -20.9838 O   0  0  0  0  0  0  0  0  0  0  0  0
  -16.1710   15.8998  -25.6851 C   0  0  0  0  0  0  0  0  0  0  0  0
  -14.7003   15.7113  -25.7542 C   0  0  0  0  0  0  0  0  0  0  0  0
  -14.0965   14.6960  -25.3553 O   0  0  0  0  0  0  0  0  0  0  0  0
  -13.9581   16.7636  -26.3118 O   0  0  0  0  0  0  0  0  0  0  0  0
  -14.1658   17.0554  -27.2542 H   0  0  0  0  0  0  0  0  0  0  0  0
 34 35  1  0  0  0
 35 28  1  0  0  0
 28 29  2  0  0  0
 29 30  1  0  0  0
 30 36  1  0  0  0
 36 37  1  0  0  0
 37 38  2  0  0  0
 37 39  1  0  0  0
 30 31  2  0  0  0
 31 32  1  0  0  0
 32 33  2  0  0  0
 33 27  1  0  0  0
 27  1  1  0  0  0
  1  2  2  0  0  0
  2  3  1  0  0  0
  3  4  2  0  0  0
  4  7  1  0  0  0
  7  8  2  0  0  0
  7  9  1  0  0  0
  9 11  1  0  0  0
 11 12  1  0  0  0
 11 13  1  0  0  0
  4  5  1  0  0  0
  5  6  2  0  0  0
  6 14  1  0  0  0
 14 16  1  0  0  0
 16 17  2  0  0  0
 16 18  2  0  0  0
 16 19  1  0  0  0
 19 20  2  0  0  0
 20 21  1  0  0  0
 21 22  2  0  0  0
 22 23  1  0  0  0
 22 24  1  0  0  0
 24 25  2  0  0  0
 25 26  1  0  0  0
 33 28  1  0  0  0
  6  1  1  0  0  0
 25 19  1  0  0  0
 39 40  1  0  0  0
  9 10  1  0  0  0
 14 15  1  0  0  0
M  END
> <minimizedAffinity>
-7.22452

> <CNNscore>
0.0719646811

> <CNNaffinity>
6.5376448631

> <CNN_VS>
0.4704795182

> <CNNaffinity_variance>
0.3417192400

$$$$
[H]OC(=O)C([H])([H])c1c([H])c([H])c(Oc2c([H])c([H])c(C(=O)N([H])C([H])(C([H])([H])[H])C([H])([H])[H])c([H])c2N([H])S(=O)(=O)c2c([H])c([H])c(Cl)c([H])c2Cl)c(OC([H])([H])[H])c1[H]


 40 42  0  0  0  0  0  0  0  0999 V2000
  -20.7386   16.2336  -19.9917 C   0  0  0  0  0  0  0  0  0  0  0  0
  -21.4434   15.2216  -19.3989 C   0  0  0  0  0  0  0  0  0  0  0  0
  -20.8726   13.9888  -19.1495 C   0  0  0  0  0  0  0  0  0  0  0  0
  -19.5664   13.7614  -19.5010 C   0  0  0  0  0  0  0  0  0  0  0  0
  -18.8661   14.7885  -20.0982 C   0  0  0  0  0  0  0  0  0  0  0  0
  -19.3954   16.0254  -20.3627 C   0  0  0  0  0  0  0  0  0  0  0  0
  -18.9210   12.4669  -19.2489 C   0  0  0  0  0  0  0  0  0  0  0  0
  -19.4495   11.7224  -18.3663 O   0  0  0  0  0  0  0  0  0  0  0  0
  -17.7759   12.0694  -19.9485 N   0  0  0  0  0  0  0  0  0  0  0  0
  -17.3338   12.6525  -20.6671 H   0  0  0  0  0  0  0  0  0  0  0  0
  -17.1781   10.7755  -19.6566 C   0  0  0  0  0  0  0  0  0  0  0  0
  -16.6678   10.2338  -20.9808 C   0  0  0  0  0  0  0  0  0  0  0  0
  -16.0791   10.9230  -18.6488 C   0  0  0  0  0  0  0  0  0  0  0  0
  -18.6938   17.0912  -20.9889 N   0  0  0  0  0  0  0  0  0  0  0  0
  -19.1343   18.0525  -21.0036 H   0  0  0  0  0  0  0  0  0  0  0  0
  -17.1637   16.7961  -21.7007 S   0  0  0  0  0  0  0  0  0  0  0  0
  -16.5925   18.0453  -22.3621 O   0  0  0  0  0  0  0  0  0  0  0  0
  -16.2029   16.3762  -20.5812 O   0  0  0  0  0  0  0  0  0  0  0  0
  -17.2752   15.4847  -22.8481 C   0  0  0  0  0  0  0  0  0  0  0  0
  -16.4474   14.4040  -22.7451 C   0  0  0  0  0  0  0  0  0  0  0  0
  -16.5814   13.4039  -23.7181 C   0  0  0  0  0  0  0  0  0  0  0  0
  -17.4936   13.4835  -24.7369 C   0  0  0  0  0  0  0  0  0  0  0  0
  -17.6418   12.2263  -25.9351 Cl  0  0  0  0  0  0  0  0  0  0  0  0
  -18.2998   14.5930  -24.7921 C   0  0  0  0  0  0  0  0  0  0  0  0
  -18.2161   15.5985  -23.8739 C   0  0  0  0  0  0  0  0  0  0  0  0
  -19.2534   17.0294  -23.9419 Cl  0  0  0  0  0  0  0  0  0  0  0  0
  -21.3074   17.4673  -20.2391 O   0  0  0  0  0  0  0  0  0  0  0  0
  -21.5633   18.8510  -22.2134 C   0  0  0  0  0  0  0  0  0  0  0  0
  -22.3177   19.1651  -23.3329 C   0  0  0  0  0  0  0  0  0  0  0  0
  -23.4969   18.5145  -23.6575 C   0  0  0  0  0  0  0  0  0  0  0  0
  -23.9211   17.5101  -22.8120 C   0  0  0  0  0  0  0  0  0  0  0  0
  -23.1867   17.1818  -21.6929 C   0  0  0  0  0  0  0  0  0  0  0  0
  -21.9925   17.8458  -21.3701 C   0  0  0  0  0  0  0  0  0  0  0  0
  -20.4413   20.7442  -21.1877 C   0  0  0  0  0  0  0  0  0  0  0  0
  -20.3794   19.5399  -21.9383 O   0  0  0  0  0  0  0  0  0  0  0  0
  -24.2971   18.8622  -24.8635 C   0  0  0  0  0  0  0  0  0  0  0  0
  -23.6858   18.2482  -26.0687 C   0  0  0  0  0  0  0  0  0  0  0  0
  -23.0400   18.8738  -26.9325 O   0  0  0  0  0  0  0  0  0  0  0  0
  -23.8603   16.8648  -26.2255 O   0  0  0  0  0  0  0  0  0  0  0  0
  -23.5280   16.2501  -25.4988 H   0  0  0  0  0  0  0  0  0  0  0  0
 34 35  1  0  0  0
 35 28  1  0  0  0
 28 29  2  0  0  0
 29 30  1  0  0  0
 30 36  1  0  0  0
 36 37  1  0  0  0
 37 38  2  0  0  0
 37 39  1  0  0  0
 30 31  2  0  0  0
 31 32  1  0  0  0
 32 33  2  0  0  0
 33 27  1  0  0  0
 27  1  1  0  0  0
  1  2  2  0  0  0
  2  3  1  0  0  0
  3  4  2  0  0  0
  4  7  1  0  0  0
  7  8  2  0  0  0
  7  9  1  0  0  0
  9 11  1  0  0  0
 11 12  1  0  0  0
 11 13  1  0  0  0
  4  5  1  0  0  0
  5  6  2  0  0  0
  6 14  1  0  0  0
 14 16  1  0  0  0
 16 17  2  0  0  0
 16 18  2  0  0  0
 16 19  1  0  0  0
 19 20  2  0  0  0
 20 21  1  0  0  0
 21 22  2  0  0  0
 22 23  1  0  0  0
 22 24  1  0  0  0
 24 25  2  0  0  0
 25 26  1  0  0  0
 33 28  1  0  0  0
  6  1  1  0  0  0
 25 19  1  0  0  0
 39 40  1  0  0  0
  9 10  1  0  0  0
 14 15  1  0  0  0
M  END
> <minimizedAffinity>
-8.49441

> <CNNscore>
0.0496108904

> <CNNaffinity>
6.1930866241

> <CNN_VS>
0.3072445393

> <CNNaffinity_variance>
0.8751371503

$$$$
[H]OC(=O)C([H])([H])c1c([H])c([H])c(Oc2c([H])c([H])c(C(=O)N([H])C([H])(C([H])([H])[H])C([H])([H])[H])c([H])c2N([H])S(=O)(=O)c2c([H])c([H])c(Cl)c([H])c2Cl)c(OC([H])([H])[H])c1[H]


 40 42  0  0  0  0  0  0  0  0999 V2000
  -19.3160   14.8888  -20.6471 C   0  0  0  0  0  0  0  0  0  0  0  0
  -19.2159   13.5269  -20.5609 C   0  0  0  0  0  0  0  0  0  0  0  0
  -19.4895   12.8519  -19.3873 C   0  0  0  0  0  0  0  0  0  0  0  0
  -19.8720   13.5543  -18.2731 C   0  0  0  0  0  0  0  0  0  0  0  0
  -19.9690   14.9264  -18.3716 C   0  0  0  0  0  0  0  0  0  0  0  0
  -19.7066   15.6335  -19.5167 C   0  0  0  0  0  0  0  0  0  0  0  0
  -20.1765   12.8744  -17.0078 C   0  0  0  0  0  0  0  0  0  0  0  0
  -19.2343   12.2177  -16.4660 O   0  0  0  0  0  0  0  0  0  0  0  0
  -21.4463   12.9457  -16.4235 N   0  0  0  0  0  0  0  0  0  0  0  0
  -22.2209   13.4722  -16.8413 H   0  0  0  0  0  0  0  0  0  0  0  0
  -21.6913   12.2513  -15.1688 C   0  0  0  0  0  0  0  0  0  0  0  0
  -22.6380   13.1324  -14.3722 C   0  0  0  0  0  0  0  0  0  0  0  0
  -22.2708   10.8938  -15.4275 C   0  0  0  0  0  0  0  0  0  0  0  0
  -19.7882   17.0477  -19.6336 N   0  0  0  0  0  0  0  0  0  0  0  0
  -18.8931   17.6050  -19.7153 H   0  0  0  0  0  0  0  0  0  0  0  0
  -21.3221   17.8107  -19.6385 S   0  0  0  0  0  0  0  0  0  0  0  0
  -22.2828   17.1652  -18.6461 O   0  0  0  0  0  0  0  0  0  0  0  0
  -21.1173   19.2700  -19.2127 O   0  0  0  0  0  0  0  0  0  0  0  0
  -21.9963   17.7990  -21.2490 C   0  0  0  0  0  0  0  0  0  0  0  0
  -23.2419   17.2871  -21.4731 C   0  0  0  0  0  0  0  0  0  0  0  0
  -23.7036   17.2910  -22.7966 C   0  0  0  0  0  0  0  0  0  0  0  0
  -22.9581   17.7801  -23.8365 C   0  0  0  0  0  0  0  0  0  0  0  0
  -23.5544   17.7746  -25.4743 Cl  0  0  0  0  0  0  0  0  0  0  0  0
  -21.7124   18.2821  -23.5534 C   0  0  0  0  0  0  0  0  0  0  0  0
  -21.2091   18.3054  -22.2856 C   0  0  0  0  0  0  0  0  0  0  0  0
  -19.6044   18.9515  -21.9173 Cl  0  0  0  0  0  0  0  0  0  0  0  0
  -19.0453   15.5645  -21.8206 O   0  0  0  0  0  0  0  0  0  0  0  0
  -16.6683   15.6671  -22.2869 C   0  0  0  0  0  0  0  0  0  0  0  0
  -15.6416   15.4383  -23.1894 C   0  0  0  0  0  0  0  0  0  0  0  0
  -15.8500   14.9198  -24.4570 C   0  0  0  0  0  0  0  0  0  0  0  0
  -17.1491   14.6249  -24.8163 C   0  0  0  0  0  0  0  0  0  0  0  0
  -18.1854   14.8449  -23.9347 C   0  0  0  0  0  0  0  0  0  0  0  0
  -17.9664   15.3711  -22.6515 C   0  0  0  0  0  0  0  0  0  0  0  0
  -16.2908   17.5970  -20.8628 C   0  0  0  0  0  0  0  0  0  0  0  0
  -16.3972   16.1893  -21.0197 O   0  0  0  0  0  0  0  0  0  0  0  0
  -14.7376   14.6791  -25.4163 C   0  0  0  0  0  0  0  0  0  0  0  0
  -14.7519   15.7180  -26.4763 C   0  0  0  0  0  0  0  0  0  0  0  0
  -15.3051   15.5901  -27.5863 O   0  0  0  0  0  0  0  0  0  0  0  0
  -14.0894   16.9203  -26.1858 O   0  0  0  0  0  0  0  0  0  0  0  0
  -14.3838   17.4525  -25.3818 H   0  0  0  0  0  0  0  0  0  0  0  0
 34 35  1  0  0  0
 35 28  1  0  0  0
 28 29  2  0  0  0
 29 30  1  0  0  0
 30 36  1  0  0  0
 36 37  1  0  0  0
 37 38  2  0  0  0
 37 39  1  0  0  0
 30 31  2  0  0  0
 31 32  1  0  0  0
 32 33  2  0  0  0
 33 27  1  0  0  0
 27  1  1  0  0  0
  1  2  2  0  0  0
  2  3  1  0  0  0
  3  4  2  0  0  0
  4  7  1  0  0  0
  7  8  2  0  0  0
  7  9  1  0  0  0
  9 11  1  0  0  0
 11 12  1  0  0  0
 11 13  1  0  0  0
  4  5  1  0  0  0
  5  6  2  0  0  0
  6 14  1  0  0  0
 14 16  1  0  0  0
 16 17  2  0  0  0
 16 18  2  0  0  0
 16 19  1  0  0  0
 19 20  2  0  0  0
 20 21  1  0  0  0
 21 22  2  0  0  0
 22 23  1  0  0  0
 22 24  1  0  0  0
 24 25  2  0  0  0
 25 26  1  0  0  0
 33 28  1  0  0  0
  6  1  1  0  0  0
 25 19  1  0  0  0
 39 40  1  0  0  0
  9 10  1  0  0  0
 14 15  1  0  0  0
M  END
> <minimizedAffinity>
-8.09731

> <CNNscore>
0.0453404933

> <CNNaffinity>
6.1998281479

> <CNN_VS>
0.2811032534

> <CNNaffinity_variance>
0.6420647502

$$$$
[H]c1c([H])c([H])c(N([H])c2nc3c([H])nc(N([H])c4c([H])c([H])c(OC([H])([H])[H])c([H])c4[H])nc3n2C([H])(C([H])([H])[H])C([H])([H])[H])c(F)c1[H]


 31 34  0  0  0  0  0  0  0  0999 V2000
  -16.9053   10.4040  -19.4491 C   0  0  0  0  0  0  0  0  0  0  0  0
  -16.0412    9.9037  -20.3316 N   0  0  0  0  0  0  0  0  0  0  0  0
  -15.7034   10.4501  -21.4982 C   0  0  0  0  0  0  0  0  0  0  0  0
  -16.2899   11.6490  -21.8510 C   0  0  0  0  0  0  0  0  0  0  0  0
  -16.1975   12.4640  -22.9072 N   0  0  0  0  0  0  0  0  0  0  0  0
  -17.0102   13.5125  -22.7175 C   0  0  0  0  0  0  0  0  0  0  0  0
  -17.6432   13.3799  -21.5184 N   0  0  0  0  0  0  0  0  0  0  0  0
  -17.1908   12.2204  -20.9863 C   0  0  0  0  0  0  0  0  0  0  0  0
  -17.4703   11.6007  -19.8352 N   0  0  0  0  0  0  0  0  0  0  0  0
  -18.6098   14.2811  -20.9096 C   0  0  0  0  0  0  0  0  0  0  0  0
  -17.9598   15.2051  -19.8980 C   0  0  0  0  0  0  0  0  0  0  0  0
  -19.7919   13.5544  -20.3436 C   0  0  0  0  0  0  0  0  0  0  0  0
  -17.2588    9.8315  -18.2268 N   0  0  0  0  0  0  0  0  0  0  0  0
  -16.5443    9.1896  -17.7630 H   0  0  0  0  0  0  0  0  0  0  0  0
  -20.8796   10.1965  -16.0624 C   0  0  0  0  0  0  0  0  0  0  0  0
  -20.3868   11.2523  -16.7893 C   0  0  0  0  0  0  0  0  0  0  0  0
  -19.2031   11.1574  -17.5163 C   0  0  0  0  0  0  0  0  0  0  0  0
  -18.4698   10.0157  -17.5463 C   0  0  0  0  0  0  0  0  0  0  0  0
  -18.9933    8.9318  -16.7892 C   0  0  0  0  0  0  0  0  0  0  0  0
  -20.1444    9.0403  -16.0890 C   0  0  0  0  0  0  0  0  0  0  0  0
  -23.0711    9.3429  -15.5266 C   0  0  0  0  0  0  0  0  0  0  0  0
  -22.0599   10.3056  -15.3432 O   0  0  0  0  0  0  0  0  0  0  0  0
  -17.2033   14.5986  -23.5995 N   0  0  0  0  0  0  0  0  0  0  0  0
  -17.9028   15.3377  -23.2496 H   0  0  0  0  0  0  0  0  0  0  0  0
  -16.6188   14.8434  -24.8480 C   0  0  0  0  0  0  0  0  0  0  0  0
  -17.0736   14.3550  -26.0485 C   0  0  0  0  0  0  0  0  0  0  0  0
  -16.4002   14.6709  -27.2391 C   0  0  0  0  0  0  0  0  0  0  0  0
  -15.2796   15.4686  -27.2382 C   0  0  0  0  0  0  0  0  0  0  0  0
  -14.8080   15.9681  -26.0436 C   0  0  0  0  0  0  0  0  0  0  0  0
  -15.4689   15.6535  -24.9075 C   0  0  0  0  0  0  0  0  0  0  0  0
  -14.9685   16.1695  -23.7411 F   0  0  0  0  0  0  0  0  0  0  0  0
 21 22  1  0  0  0
 22 15  1  0  0  0
 15 16  2  0  0  0
 16 17  1  0  0  0
 17 18  2  0  0  0
 18 13  1  0  0  0
 13  1  1  0  0  0
  1  2  2  0  0  0
  2  3  1  0  0  0
  3  4  2  0  0  0
  4  5  1  0  0  0
  5  6  2  0  0  0
  6 23  1  0  0  0
 23 25  1  0  0  0
 25 26  2  0  0  0
 26 27  1  0  0  0
 27 28  2  0  0  0
 28 29  1  0  0  0
 29 30  2  0  0  0
 30 31  1  0  0  0
  6  7  1  0  0  0
  7 10  1  0  0  0
 10 11  1  0  0  0
 10 12  1  0  0  0
  7  8  1  0  0  0
  8  9  2  0  0  0
 18 19  1  0  0  0
 19 20  2  0  0  0
 20 15  1  0  0  0
  9  1  1  0  0  0
  8  4  1  0  0  0
 30 25  1  0  0  0
 13 14  1  0  0  0
 23 24  1  0  0  0
M  END
> <minimizedAffinity>
-9.34680

> <CNNscore>
0.9705202579

> <CNNaffinity>
7.6851906776

> <CNN_VS>
7.4586334229

> <CNNaffinity_variance>
0.0352270603

$$$$
[H]c1c([H])c([H])c(N([H])c2nc3c([H])nc(N([H])c4c([H])c([H])c(OC([H])([H])[H])c([H])c4[H])nc3n2C([H])(C([H])([H])[H])C([H])([H])[H])c(F)c1[H]


 31 34  0  0  0  0  0  0  0  0999 V2000
  -17.2494   10.2831  -19.0903 C   0  0  0  0  0  0  0  0  0  0  0  0
  -16.4208    9.8723  -20.0497 N   0  0  0  0  0  0  0  0  0  0  0  0
  -16.1632   10.5075  -21.1915 C   0  0  0  0  0  0  0  0  0  0  0  0
  -16.8021   11.7081  -21.4285 C   0  0  0  0  0  0  0  0  0  0  0  0
  -16.7909   12.5957  -22.4286 N   0  0  0  0  0  0  0  0  0  0  0  0
  -17.6217   13.6021  -22.1237 C   0  0  0  0  0  0  0  0  0  0  0  0
  -18.1842   13.3677  -20.9052 N   0  0  0  0  0  0  0  0  0  0  0  0
  -17.6703   12.1899  -20.4799 C   0  0  0  0  0  0  0  0  0  0  0  0
  -17.8687   11.4845  -19.3617 N   0  0  0  0  0  0  0  0  0  0  0  0
  -19.1414   14.1937  -20.1851 C   0  0  0  0  0  0  0  0  0  0  0  0
  -18.5452   14.7714  -18.9161 C   0  0  0  0  0  0  0  0  0  0  0  0
  -20.4370   13.4827  -19.9361 C   0  0  0  0  0  0  0  0  0  0  0  0
  -17.5191    9.6175  -17.8940 N   0  0  0  0  0  0  0  0  0  0  0  0
  -16.7389    9.0184  -17.4815 H   0  0  0  0  0  0  0  0  0  0  0  0
  -21.0945    9.5494  -15.6270 C   0  0  0  0  0  0  0  0  0  0  0  0
  -20.7486   10.6585  -16.3591 C   0  0  0  0  0  0  0  0  0  0  0  0
  -19.5831   10.7052  -17.1195 C   0  0  0  0  0  0  0  0  0  0  0  0
  -18.7233    9.6567  -17.1786 C   0  0  0  0  0  0  0  0  0  0  0  0
  -19.0956    8.5159  -16.4156 C   0  0  0  0  0  0  0  0  0  0  0  0
  -20.2310    8.4866  -15.6829 C   0  0  0  0  0  0  0  0  0  0  0  0
  -23.5026    9.6395  -15.5224 C   0  0  0  0  0  0  0  0  0  0  0  0
  -22.2585    9.5173  -14.8743 O   0  0  0  0  0  0  0  0  0  0  0  0
  -17.8936   14.7389  -22.9164 N   0  0  0  0  0  0  0  0  0  0  0  0
  -18.0230   14.5307  -23.9643 H   0  0  0  0  0  0  0  0  0  0  0  0
  -18.0166   16.0800  -22.5333 C   0  0  0  0  0  0  0  0  0  0  0  0
  -19.0701   16.9034  -22.8471 C   0  0  0  0  0  0  0  0  0  0  0  0
  -19.0806   18.2355  -22.4040 C   0  0  0  0  0  0  0  0  0  0  0  0
  -18.0493   18.7483  -21.6522 C   0  0  0  0  0  0  0  0  0  0  0  0
  -16.9833   17.9377  -21.3271 C   0  0  0  0  0  0  0  0  0  0  0  0
  -16.9902   16.6582  -21.7624 C   0  0  0  0  0  0  0  0  0  0  0  0
  -15.9128   15.8851  -21.4182 F   0  0  0  0  0  0  0  0  0  0  0  0
 21 22  1  0  0  0
 22 15  1  0  0  0
 15 16  2  0  0  0
 16 17  1  0  0  0
 17 18  2  0  0  0
 18 13  1  0  0  0
 13  1  1  0  0  0
  1  2  2  0  0  0
  2  3  1  0  0  0
  3  4  2  0  0  0
  4  5  1  0  0  0
  5  6  2  0  0  0
  6 23  1  0  0  0
 23 25  1  0  0  0
 25 26  2  0  0  0
 26 27  1  0  0  0
 27 28  2  0  0  0
 28 29  1  0  0  0
 29 30  2  0  0  0
 30 31  1  0  0  0
  6  7  1  0  0  0
  7 10  1  0  0  0
 10 11  1  0  0  0
 10 12  1  0  0  0
  7  8  1  0  0  0
  8  9  2  0  0  0
 18 19  1  0  0  0
 19 20  2  0  0  0
 20 15  1  0  0  0
  9  1  1  0  0  0
  8  4  1  0  0  0
 30 25  1  0  0  0
 13 14  1  0  0  0
 23 24  1  0  0  0
M  END
> <minimizedAffinity>
-8.05933

> <CNNscore>
0.8913722634

> <CNNaffinity>
7.2027220726

> <CNN_VS>
6.4203066826

> <CNNaffinity_variance>
0.0365689136

$$$$
[H]c1c([H])c([H])c(N([H])c2nc3c([H])nc(N([H])c4c([H])c([H])c(OC([H])([H])[H])c([H])c4[H])nc3n2C([H])(C([H])([H])[H])C([H])([H])[H])c(F)c1[H]


 31 34  0  0  0  0  0  0  0  0999 V2000
  -17.5434   10.4039  -18.7012 C   0  0  0  0  0  0  0  0  0  0  0  0
  -16.9529    9.7115  -19.6747 N   0  0  0  0  0  0  0  0  0  0  0  0
  -16.6285   10.1715  -20.8816 C   0  0  0  0  0  0  0  0  0  0  0  0
  -16.9207   11.4877  -21.1781 C   0  0  0  0  0  0  0  0  0  0  0  0
  -16.7480   12.2689  -22.2496 N   0  0  0  0  0  0  0  0  0  0  0  0
  -17.2304   13.4894  -21.9780 C   0  0  0  0  0  0  0  0  0  0  0  0
  -17.7260   13.5051  -20.7091 N   0  0  0  0  0  0  0  0  0  0  0  0
  -17.5301   12.2586  -20.2189 C   0  0  0  0  0  0  0  0  0  0  0  0
  -17.8198   11.7130  -19.0333 N   0  0  0  0  0  0  0  0  0  0  0  0
  -18.3434   14.6160  -20.0007 C   0  0  0  0  0  0  0  0  0  0  0  0
  -19.7732   14.8464  -20.4504 C   0  0  0  0  0  0  0  0  0  0  0  0
  -17.5163   15.8642  -20.0623 C   0  0  0  0  0  0  0  0  0  0  0  0
  -17.8832    9.9217  -17.4367 N   0  0  0  0  0  0  0  0  0  0  0  0
  -17.1022    9.4901  -16.8523 H   0  0  0  0  0  0  0  0  0  0  0  0
  -21.7695   10.1958  -15.7787 C   0  0  0  0  0  0  0  0  0  0  0  0
  -21.0782    9.0095  -15.7547 C   0  0  0  0  0  0  0  0  0  0  0  0
  -19.7962    8.8932  -16.2854 C   0  0  0  0  0  0  0  0  0  0  0  0
  -19.1586    9.9462  -16.8570 C   0  0  0  0  0  0  0  0  0  0  0  0
  -19.8873   11.1672  -16.8739 C   0  0  0  0  0  0  0  0  0  0  0  0
  -21.1313   11.2635  -16.3539 C   0  0  0  0  0  0  0  0  0  0  0  0
  -23.2203   10.8883  -13.9804 C   0  0  0  0  0  0  0  0  0  0  0  0
  -23.0457   10.2967  -15.2462 O   0  0  0  0  0  0  0  0  0  0  0  0
  -17.2393   14.6035  -22.8459 N   0  0  0  0  0  0  0  0  0  0  0  0
  -17.9518   15.3664  -22.5843 H   0  0  0  0  0  0  0  0  0  0  0  0
  -16.4605   14.8496  -23.9832 C   0  0  0  0  0  0  0  0  0  0  0  0
  -15.1323   15.1993  -23.9772 C   0  0  0  0  0  0  0  0  0  0  0  0
  -14.4559   15.4210  -25.1872 C   0  0  0  0  0  0  0  0  0  0  0  0
  -15.0953   15.2962  -26.3985 C   0  0  0  0  0  0  0  0  0  0  0  0
  -16.4278   14.9461  -26.4252 C   0  0  0  0  0  0  0  0  0  0  0  0
  -17.0629   14.7366  -25.2506 C   0  0  0  0  0  0  0  0  0  0  0  0
  -18.3867   14.3903  -25.3198 F   0  0  0  0  0  0  0  0  0  0  0  0
 21 22  1  0  0  0
 22 15  1  0  0  0
 15 16  2  0  0  0
 16 17  1  0  0  0
 17 18  2  0  0  0
 18 13  1  0  0  0
 13  1  1  0  0  0
  1  2  2  0  0  0
  2  3  1  0  0  0
  3  4  2  0  0  0
  4  5  1  0  0  0
  5  6  2  0  0  0
  6 23  1  0  0  0
 23 25  1  0  0  0
 25 26  2  0  0  0
 26 27  1  0  0  0
 27 28  2  0  0  0
 28 29  1  0  0  0
 29 30  2  0  0  0
 30 31  1  0  0  0
  6  7  1  0  0  0
  7 10  1  0  0  0
 10 11  1  0  0  0
 10 12  1  0  0  0
  7  8  1  0  0  0
  8  9  2  0  0  0
 18 19  1  0  0  0
 19 20  2  0  0  0
 20 15  1  0  0  0
  9  1  1  0  0  0
  8  4  1  0  0  0
 30 25  1  0  0  0
 13 14  1  0  0  0
 23 24  1  0  0  0
M  END
> <minimizedAffinity>
-8.41042

> <CNNscore>
0.8637629747

> <CNNaffinity>
7.3333406448

> <CNN_VS>
6.3342680931

> <CNNaffinity_variance>
0.0626717061

$$$$
[H]c1c([H])c([H])c(N([H])c2nc3c([H])nc(N([H])c4c([H])c([H])c(OC([H])([H])[H])c([H])c4[H])nc3n2C([H])(C([H])([H])[H])C([H])([H])[H])c(F)c1[H]


 31 34  0  0  0  0  0  0  0  0999 V2000
  -16.2647   11.2985  -21.5749 C   0  0  0  0  0  0  0  0  0  0  0  0
  -16.0277   10.1932  -20.8693 N   0  0  0  0  0  0  0  0  0  0  0  0
  -16.5618    9.8838  -19.6892 C   0  0  0  0  0  0  0  0  0  0  0  0
  -17.4487   10.7760  -19.1208 C   0  0  0  0  0  0  0  0  0  0  0  0
  -18.1570   10.8014  -17.9868 N   0  0  0  0  0  0  0  0  0  0  0  0
  -18.8683   11.9365  -17.9459 C   0  0  0  0  0  0  0  0  0  0  0  0
  -18.6202   12.6637  -19.0709 N   0  0  0  0  0  0  0  0  0  0  0  0
  -17.7379   11.9366  -19.7955 C   0  0  0  0  0  0  0  0  0  0  0  0
  -17.1543   12.1650  -20.9764 N   0  0  0  0  0  0  0  0  0  0  0  0
  -19.1739   13.9565  -19.4438 C   0  0  0  0  0  0  0  0  0  0  0  0
  -18.7488   15.0501  -18.4832 C   0  0  0  0  0  0  0  0  0  0  0  0
  -20.6596   13.9089  -19.6348 C   0  0  0  0  0  0  0  0  0  0  0  0
  -15.7050   11.6224  -22.8113 N   0  0  0  0  0  0  0  0  0  0  0  0
  -15.0613   10.9002  -23.2606 H   0  0  0  0  0  0  0  0  0  0  0  0
  -16.0882   15.2561  -24.9507 C   0  0  0  0  0  0  0  0  0  0  0  0
  -17.1312   14.3650  -24.8883 C   0  0  0  0  0  0  0  0  0  0  0  0
  -17.0352   13.1667  -24.1856 C   0  0  0  0  0  0  0  0  0  0  0  0
  -15.9046   12.8124  -23.5237 C   0  0  0  0  0  0  0  0  0  0  0  0
  -14.8341   13.7456  -23.5975 C   0  0  0  0  0  0  0  0  0  0  0  0
  -14.9437   14.9049  -24.2837 C   0  0  0  0  0  0  0  0  0  0  0  0
  -16.6165   17.6095  -24.9808 C   0  0  0  0  0  0  0  0  0  0  0  0
  -16.1983   16.4458  -25.6543 O   0  0  0  0  0  0  0  0  0  0  0  0
  -19.7443   12.3444  -16.9159 N   0  0  0  0  0  0  0  0  0  0  0  0
  -19.6652   13.3840  -16.6495 H   0  0  0  0  0  0  0  0  0  0  0  0
  -20.6881   11.5943  -16.2037 C   0  0  0  0  0  0  0  0  0  0  0  0
  -20.8281   10.2293  -16.2634 C   0  0  0  0  0  0  0  0  0  0  0  0
  -21.8156    9.5875  -15.4995 C   0  0  0  0  0  0  0  0  0  0  0  0
  -22.6610   10.2979  -14.6794 C   0  0  0  0  0  0  0  0  0  0  0  0
  -22.5361   11.6682  -14.6060 C   0  0  0  0  0  0  0  0  0  0  0  0
  -21.5799   12.2691  -15.3485 C   0  0  0  0  0  0  0  0  0  0  0  0
  -21.4881   13.6323  -15.2477 F   0  0  0  0  0  0  0  0  0  0  0  0
 21 22  1  0  0  0
 22 15  1  0  0  0
 15 16  2  0  0  0
 16 17  1  0  0  0
 17 18  2  0  0  0
 18 13  1  0  0  0
 13  1  1  0  0  0
  1  2  2  0  0  0
  2  3  1  0  0  0
  3  4  2  0  0  0
  4  5  1  0  0  0
  5  6  2  0  0  0
  6 23  1  0  0  0
 23 25  1  0  0  0
 25 26  2  0  0  0
 26 27  1  0  0  0
 27 28  2  0  0  0
 28 29  1  0  0  0
 29 30  2  0  0  0
 30 31  1  0  0  0
  6  7  1  0  0  0
  7 10  1  0  0  0
 10 11  1  0  0  0
 10 12  1  0  0  0
  7  8  1  0  0  0
  8  9  2  0  0  0
 18 19  1  0  0  0
 19 20  2  0  0  0
 20 15  1  0  0  0
  9  1  1  0  0  0
  8  4  1  0  0  0
 30 25  1  0  0  0
 13 14  1  0  0  0
 23 24  1  0  0  0
M  END
> <minimizedAffinity>
-7.60143

> <CNNscore>
0.8241919875

> <CNNaffinity>
7.2117781639

> <CNN_VS>
5.9438896179

> <CNNaffinity_variance>
0.0320345089

$$$$
[H]c1c([H])c([H])c(N([H])c2nc3c([H])nc(N([H])c4c([H])c([H])c(OC([H])([H])[H])c([H])c4[H])nc3n2C([H])(C([H])([H])[H])C([H])([H])[H])c(F)c1[H]


 31 34  0  0  0  0  0  0  0  0999 V2000
  -16.3218   11.9077  -22.1123 C   0  0  0  0  0  0  0  0  0  0  0  0
  -15.8351   10.7213  -21.7497 N   0  0  0  0  0  0  0  0  0  0  0  0
  -16.1395   10.0525  -20.6390 C   0  0  0  0  0  0  0  0  0  0  0  0
  -17.0427   10.6201  -19.7628 C   0  0  0  0  0  0  0  0  0  0  0  0
  -17.5696   10.2532  -18.5898 N   0  0  0  0  0  0  0  0  0  0  0  0
  -18.4127   11.2092  -18.1758 C   0  0  0  0  0  0  0  0  0  0  0  0
  -18.4365   12.2161  -19.0931 N   0  0  0  0  0  0  0  0  0  0  0  0
  -17.5833   11.8431  -20.0756 C   0  0  0  0  0  0  0  0  0  0  0  0
  -17.2197   12.4430  -21.2137 N   0  0  0  0  0  0  0  0  0  0  0  0
  -19.2086   13.4487  -19.0525 C   0  0  0  0  0  0  0  0  0  0  0  0
  -20.2256   13.5141  -20.1755 C   0  0  0  0  0  0  0  0  0  0  0  0
  -18.3381   14.6674  -18.9976 C   0  0  0  0  0  0  0  0  0  0  0  0
  -16.0028   12.6081  -23.2761 N   0  0  0  0  0  0  0  0  0  0  0  0
  -15.4746   12.0781  -24.0362 H   0  0  0  0  0  0  0  0  0  0  0  0
  -17.1305   16.5963  -24.1429 C   0  0  0  0  0  0  0  0  0  0  0  0
  -15.9546   16.3260  -23.4870 C   0  0  0  0  0  0  0  0  0  0  0  0
  -15.5557   15.0241  -23.1963 C   0  0  0  0  0  0  0  0  0  0  0  0
  -16.3077   13.9492  -23.5445 C   0  0  0  0  0  0  0  0  0  0  0  0
  -17.5217   14.2455  -24.2231 C   0  0  0  0  0  0  0  0  0  0  0  0
  -17.8944   15.5153  -24.4982 C   0  0  0  0  0  0  0  0  0  0  0  0
  -18.2369   18.6288  -23.4626 C   0  0  0  0  0  0  0  0  0  0  0  0
  -17.5148   17.8981  -24.4257 O   0  0  0  0  0  0  0  0  0  0  0  0
  -19.1710   11.2048  -16.9843 N   0  0  0  0  0  0  0  0  0  0  0  0
  -19.1487   12.1320  -16.4387 H   0  0  0  0  0  0  0  0  0  0  0  0
  -19.9367   10.1758  -16.4227 C   0  0  0  0  0  0  0  0  0  0  0  0
  -19.5098    8.8860  -16.2210 C   0  0  0  0  0  0  0  0  0  0  0  0
  -20.3727    7.9391  -15.6469 C   0  0  0  0  0  0  0  0  0  0  0  0
  -21.6545    8.2711  -15.2745 C   0  0  0  0  0  0  0  0  0  0  0  0
  -22.1011    9.5602  -15.4689 C   0  0  0  0  0  0  0  0  0  0  0  0
  -21.2567   10.4584  -16.0229 C   0  0  0  0  0  0  0  0  0  0  0  0
  -21.7384   11.7287  -16.1995 F   0  0  0  0  0  0  0  0  0  0  0  0
 21 22  1  0  0  0
 22 15  1  0  0  0
 15 16  2  0  0  0
 16 17  1  0  0  0
 17 18  2  0  0  0
 18 13  1  0  0  0
 13  1  1  0  0  0
  1  2  2  0  0  0
  2  3  1  0  0  0
  3  4  2  0  0  0
  4  5  1  0  0  0
  5  6  2  0  0  0
  6 23  1  0  0  0
 23 25  1  0  0  0
 25 26  2  0  0  0
 26 27  1  0  0  0
 27 28  2  0  0  0
 28 29  1  0  0  0
 29 30  2  0  0  0
 30 31  1  0  0  0
  6  7  1  0  0  0
  7 10  1  0  0  0
 10 11  1  0  0  0
 10 12  1  0  0  0
  7  8  1  0  0  0
  8  9  2  0  0  0
 18 19  1  0  0  0
 19 20  2  0  0  0
 20 15  1  0  0  0
  9  1  1  0  0  0
  8  4  1  0  0  0
 30 25  1  0  0  0
 13 14  1  0  0  0
 23 24  1  0  0  0
M  END
> <minimizedAffinity>
-8.29723

> <CNNscore>
0.5925028324

> <CNNaffinity>
7.0108537674

> <CNN_VS>
4.1539506912

> <CNNaffinity_variance>
0.0466660038

$$$$
[H]c1c([H])c([H])c(N([H])c2nc3c([H])nc(N([H])c4c([H])c([H])c(OC([H])([H])[H])c([H])c4[H])nc3n2C([H])(C([H])([H])[H])C([H])([H])[H])c(F)c1[H]


 31 34  0  0  0  0  0  0  0  0999 V2000
  -16.6482   11.9902  -21.8419 C   0  0  0  0  0  0  0  0  0  0  0  0
  -16.1340   10.8183  -21.4705 N   0  0  0  0  0  0  0  0  0  0  0  0
  -16.4020   10.1640  -20.3419 C   0  0  0  0  0  0  0  0  0  0  0  0
  -17.2942   10.7322  -19.4549 C   0  0  0  0  0  0  0  0  0  0  0  0
  -17.7882   10.3773  -18.2640 N   0  0  0  0  0  0  0  0  0  0  0  0
  -18.6372   11.3267  -17.8470 C   0  0  0  0  0  0  0  0  0  0  0  0
  -18.6984   12.3171  -18.7805 N   0  0  0  0  0  0  0  0  0  0  0  0
  -17.8617   11.9408  -19.7758 C   0  0  0  0  0  0  0  0  0  0  0  0
  -17.5341   12.5266  -20.9320 N   0  0  0  0  0  0  0  0  0  0  0  0
  -19.4894   13.5377  -18.7430 C   0  0  0  0  0  0  0  0  0  0  0  0
  -20.3500   13.6900  -19.9823 C   0  0  0  0  0  0  0  0  0  0  0  0
  -18.6542   14.7526  -18.4739 C   0  0  0  0  0  0  0  0  0  0  0  0
  -16.3673   12.6754  -23.0245 N   0  0  0  0  0  0  0  0  0  0  0  0
  -15.8158   12.1526  -23.7730 H   0  0  0  0  0  0  0  0  0  0  0  0
  -17.2777   16.7177  -23.8958 C   0  0  0  0  0  0  0  0  0  0  0  0
  -18.1706   15.7174  -24.1925 C   0  0  0  0  0  0  0  0  0  0  0  0
  -17.9004   14.3810  -23.9098 C   0  0  0  0  0  0  0  0  0  0  0  0
  -16.7385   13.9926  -23.3257 C   0  0  0  0  0  0  0  0  0  0  0  0
  -15.8248   15.0398  -23.0244 C   0  0  0  0  0  0  0  0  0  0  0  0
  -16.1027   16.3325  -23.3050 C   0  0  0  0  0  0  0  0  0  0  0  0
  -18.3980   18.7742  -23.3177 C   0  0  0  0  0  0  0  0  0  0  0  0
  -17.5606   18.0443  -24.1831 O   0  0  0  0  0  0  0  0  0  0  0  0
  -19.3680   11.3308  -16.6384 N   0  0  0  0  0  0  0  0  0  0  0  0
  -19.1458   12.1576  -15.9863 H   0  0  0  0  0  0  0  0  0  0  0  0
  -20.3277   10.4213  -16.1777 C   0  0  0  0  0  0  0  0  0  0  0  0
  -21.6793   10.6566  -16.1120 C   0  0  0  0  0  0  0  0  0  0  0  0
  -22.5456    9.6627  -15.6297 C   0  0  0  0  0  0  0  0  0  0  0  0
  -22.0721    8.4401  -15.2141 C   0  0  0  0  0  0  0  0  0  0  0  0
  -20.7191    8.1851  -15.2724 C   0  0  0  0  0  0  0  0  0  0  0  0
  -19.9002    9.1536  -15.7395 C   0  0  0  0  0  0  0  0  0  0  0  0
  -18.5624    8.8612  -15.7816 F   0  0  0  0  0  0  0  0  0  0  0  0
 21 22  1  0  0  0
 22 15  1  0  0  0
 15 16  2  0  0  0
 16 17  1  0  0  0
 17 18  2  0  0  0
 18 13  1  0  0  0
 13  1  1  0  0  0
  1  2  2  0  0  0
  2  3  1  0  0  0
  3  4  2  0  0  0
  4  5  1  0  0  0
  5  6  2  0  0  0
  6 23  1  0  0  0
 23 25  1  0  0  0
 25 26  2  0  0  0
 26 27  1  0  0  0
 27 28  2  0  0  0
 28 29  1  0  0  0
 29 30  2  0  0  0
 30 31  1  0  0  0
  6  7  1  0  0  0
  7 10  1  0  0  0
 10 11  1  0  0  0
 10 12  1  0  0  0
  7  8  1  0  0  0
  8  9  2  0  0  0
 18 19  1  0  0  0
 19 20  2  0  0  0
 20 15  1  0  0  0
  9  1  1  0  0  0
  8  4  1  0  0  0
 30 25  1  0  0  0
 13 14  1  0  0  0
 23 24  1  0  0  0
M  END
> <minimizedAffinity>
-8.12567

> <CNNscore>
0.5845670700

> <CNNaffinity>
6.9624915123

> <CNN_VS>
4.0700430870

> <CNNaffinity_variance>
0.0507516935

$$$$
[H]c1c([H])c([H])c(N([H])c2nc3c([H])nc(N([H])c4c([H])c([H])c(OC([H])([H])[H])c([H])c4[H])nc3n2C([H])(C([H])([H])[H])C([H])([H])[H])c(F)c1[H]


 31 34  0  0  0  0  0  0  0  0999 V2000
  -17.0860   11.9090  -21.2078 C   0  0  0  0  0  0  0  0  0  0  0  0
  -16.6779   10.7095  -20.7952 N   0  0  0  0  0  0  0  0  0  0  0  0
  -17.0602   10.0891  -19.6805 C   0  0  0  0  0  0  0  0  0  0  0  0
  -17.9648   10.7279  -18.8562 C   0  0  0  0  0  0  0  0  0  0  0  0
  -18.5554   10.4223  -17.6959 N   0  0  0  0  0  0  0  0  0  0  0  0
  -19.3613   11.4326  -17.3411 C   0  0  0  0  0  0  0  0  0  0  0  0
  -19.2957   12.4132  -18.2846 N   0  0  0  0  0  0  0  0  0  0  0  0
  -18.4266   11.9683  -19.2221 C   0  0  0  0  0  0  0  0  0  0  0  0
  -17.9878   12.5160  -20.3600 N   0  0  0  0  0  0  0  0  0  0  0  0
  -20.0016   13.6852  -18.3070 C   0  0  0  0  0  0  0  0  0  0  0  0
  -20.8040   13.8623  -19.5815 C   0  0  0  0  0  0  0  0  0  0  0  0
  -19.0950   14.8474  -18.0359 C   0  0  0  0  0  0  0  0  0  0  0  0
  -16.6854   12.5587  -22.3758 N   0  0  0  0  0  0  0  0  0  0  0  0
  -16.0348   12.0265  -23.0325 H   0  0  0  0  0  0  0  0  0  0  0  0
  -17.9378   16.3733  -23.7207 C   0  0  0  0  0  0  0  0  0  0  0  0
  -17.1975   16.2423  -22.5715 C   0  0  0  0  0  0  0  0  0  0  0  0
  -16.7659   15.0013  -22.1107 C   0  0  0  0  0  0  0  0  0  0  0  0
  -17.0539   13.8514  -22.7716 C   0  0  0  0  0  0  0  0  0  0  0  0
  -17.8206   14.0036  -23.9595 C   0  0  0  0  0  0  0  0  0  0  0  0
  -18.2315   15.2160  -24.3936 C   0  0  0  0  0  0  0  0  0  0  0  0
  -18.2640   18.7274  -23.3085 C   0  0  0  0  0  0  0  0  0  0  0  0
  -18.3606   17.6158  -24.1676 O   0  0  0  0  0  0  0  0  0  0  0  0
  -20.1640   11.5016  -16.1810 N   0  0  0  0  0  0  0  0  0  0  0  0
  -20.5104   12.4908  -15.9373 H   0  0  0  0  0  0  0  0  0  0  0  0
  -20.5658   10.4759  -15.3168 C   0  0  0  0  0  0  0  0  0  0  0  0
  -21.4404    9.4655  -15.6340 C   0  0  0  0  0  0  0  0  0  0  0  0
  -21.7678    8.4903  -14.6788 C   0  0  0  0  0  0  0  0  0  0  0  0
  -21.2292    8.5177  -13.4135 C   0  0  0  0  0  0  0  0  0  0  0  0
  -20.3497    9.5236  -13.0763 C   0  0  0  0  0  0  0  0  0  0  0  0
  -20.0461   10.4539  -14.0085 C   0  0  0  0  0  0  0  0  0  0  0  0
  -19.1683   11.4369  -13.6342 F   0  0  0  0  0  0  0  0  0  0  0  0
 21 22  1  0  0  0
 22 15  1  0  0  0
 15 16  2  0  0  0
 16 17  1  0  0  0
 17 18  2  0  0  0
 18 13  1  0  0  0
 13  1  1  0  0  0
  1  2  2  0  0  0
  2  3  1  0  0  0
  3  4  2  0  0  0
  4  5  1  0  0  0
  5  6  2  0  0  0
  6 23  1  0  0  0
 23 25  1  0  0  0
 25 26  2  0  0  0
 26 27  1  0  0  0
 27 28  2  0  0  0
 28 29  1  0  0  0
 29 30  2  0  0  0
 30 31  1  0  0  0
  6  7  1  0  0  0
  7 10  1  0  0  0
 10 11  1  0  0  0
 10 12  1  0  0  0
  7  8  1  0  0  0
  8  9  2  0  0  0
 18 19  1  0  0  0
 19 20  2  0  0  0
 20 15  1  0  0  0
  9  1  1  0  0  0
  8  4  1  0  0  0
 30 25  1  0  0  0
 13 14  1  0  0  0
 23 24  1  0  0  0
M  END
> <minimizedAffinity>
-7.38861

> <CNNscore>
0.5486235619

> <CNNaffinity>
6.9585046768

> <CNN_VS>
3.8175995350

> <CNNaffinity_variance>
0.1467437297

$$$$
[H]c1c([H])c([H])c(N([H])c2nc3c([H])nc(N([H])c4c([H])c([H])c(OC([H])([H])[H])c([H])c4[H])nc3n2C([H])(C([H])([H])[H])C([H])([H])[H])c(F)c1[H]


 31 34  0  0  0  0  0  0  0  0999 V2000
  -17.5497   11.2313  -19.4164 C   0  0  0  0  0  0  0  0  0  0  0  0
  -17.0822   11.1336  -20.6604 N   0  0  0  0  0  0  0  0  0  0  0  0
  -17.0862   12.0969  -21.5800 C   0  0  0  0  0  0  0  0  0  0  0  0
  -17.6197   13.3233  -21.2374 C   0  0  0  0  0  0  0  0  0  0  0  0
  -17.7882   14.4852  -21.8776 N   0  0  0  0  0  0  0  0  0  0  0  0
  -18.3733   15.3574  -21.0451 C   0  0  0  0  0  0  0  0  0  0  0  0
  -18.5902   14.7552  -19.8424 N   0  0  0  0  0  0  0  0  0  0  0  0
  -18.1196   13.4924  -19.9697 C   0  0  0  0  0  0  0  0  0  0  0  0
  -18.0741   12.4690  -19.1107 N   0  0  0  0  0  0  0  0  0  0  0  0
  -19.1990   15.3256  -18.6504 C   0  0  0  0  0  0  0  0  0  0  0  0
  -18.2613   15.2761  -17.4597 C   0  0  0  0  0  0  0  0  0  0  0  0
  -20.5385   14.7248  -18.3489 C   0  0  0  0  0  0  0  0  0  0  0  0
  -17.5452   10.2219  -18.4531 N   0  0  0  0  0  0  0  0  0  0  0  0
  -16.6854    9.5922  -18.4091 H   0  0  0  0  0  0  0  0  0  0  0  0
  -20.5112    9.2336  -15.5975 C   0  0  0  0  0  0  0  0  0  0  0  0
  -20.5773   10.4123  -16.2990 C   0  0  0  0  0  0  0  0  0  0  0  0
  -19.6202   10.7587  -17.2491 C   0  0  0  0  0  0  0  0  0  0  0  0
  -18.5677    9.9505  -17.5342 C   0  0  0  0  0  0  0  0  0  0  0  0
  -18.5136    8.7340  -16.7999 C   0  0  0  0  0  0  0  0  0  0  0  0
  -19.4513    8.4124  -15.8810 C   0  0  0  0  0  0  0  0  0  0  0  0
  -21.2758    7.7710  -13.8384 C   0  0  0  0  0  0  0  0  0  0  0  0
  -21.4717    8.9019  -14.6542 O   0  0  0  0  0  0  0  0  0  0  0  0
  -18.7229   16.6944  -21.3363 N   0  0  0  0  0  0  0  0  0  0  0  0
  -17.9342   17.4074  -21.1699 H   0  0  0  0  0  0  0  0  0  0  0  0
  -19.9360   17.2133  -21.8047 C   0  0  0  0  0  0  0  0  0  0  0  0
  -21.0741   17.3769  -21.0534 C   0  0  0  0  0  0  0  0  0  0  0  0
  -22.2342   17.9099  -21.6372 C   0  0  0  0  0  0  0  0  0  0  0  0
  -22.2645   18.2792  -22.9618 C   0  0  0  0  0  0  0  0  0  0  0  0
  -21.1327   18.1227  -23.7321 C   0  0  0  0  0  0  0  0  0  0  0  0
  -20.0251   17.6079  -23.1532 C   0  0  0  0  0  0  0  0  0  0  0  0
  -18.9211   17.4682  -23.9524 F   0  0  0  0  0  0  0  0  0  0  0  0
 21 22  1  0  0  0
 22 15  1  0  0  0
 15 16  2  0  0  0
 16 17  1  0  0  0
 17 18  2  0  0  0
 18 13  1  0  0  0
 13  1  1  0  0  0
  1  2  2  0  0  0
  2  3  1  0  0  0
  3  4  2  0  0  0
  4  5  1  0  0  0
  5  6  2  0  0  0
  6 23  1  0  0  0
 23 25  1  0  0  0
 25 26  2  0  0  0
 26 27  1  0  0  0
 27 28  2  0  0  0
 28 29  1  0  0  0
 29 30  2  0  0  0
 30 31  1  0  0  0
  6  7  1  0  0  0
  7 10  1  0  0  0
 10 11  1  0  0  0
 10 12  1  0  0  0
  7  8  1  0  0  0
  8  9  2  0  0  0
 18 19  1  0  0  0
 19 20  2  0  0  0
 20 15  1  0  0  0
  9  1  1  0  0  0
  8  4  1  0  0  0
 30 25  1  0  0  0
 13 14  1  0  0  0
 23 24  1  0  0  0
M  END
> <minimizedAffinity>
-7.36261

> <CNNscore>
0.5133849382

> <CNNaffinity>
6.8667778969

> <CNN_VS>
3.5253002644

> <CNNaffinity_variance>
0.1511856467

$$$$
[H]c1c([H])c([H])c(N([H])c2nc3c([H])nc(N([H])c4c([H])c([H])c(OC([H])([H])[H])c([H])c4[H])nc3n2C([H])(C([H])([H])[H])C([H])([H])[H])c(F)c1[H]


 31 34  0  0  0  0  0  0  0  0999 V2000
  -18.9671   13.2343  -19.0784 C   0  0  0  0  0  0  0  0  0  0  0  0
  -18.6358   11.9440  -19.0453 N   0  0  0  0  0  0  0  0  0  0  0  0
  -17.8290   11.3170  -19.8994 C   0  0  0  0  0  0  0  0  0  0  0  0
  -17.2694   12.0507  -20.9262 C   0  0  0  0  0  0  0  0  0  0  0  0
  -16.4411   11.7691  -21.9377 N   0  0  0  0  0  0  0  0  0  0  0  0
  -16.2250   12.8871  -22.6445 C   0  0  0  0  0  0  0  0  0  0  0  0
  -16.9233   13.9147  -22.0855 N   0  0  0  0  0  0  0  0  0  0  0  0
  -17.5692   13.3875  -21.0191 C   0  0  0  0  0  0  0  0  0  0  0  0
  -18.3899   13.9343  -20.1164 N   0  0  0  0  0  0  0  0  0  0  0  0
  -16.9821   15.3015  -22.5219 C   0  0  0  0  0  0  0  0  0  0  0  0
  -16.5170   16.2539  -21.4374 C   0  0  0  0  0  0  0  0  0  0  0  0
  -18.3266   15.6721  -23.0704 C   0  0  0  0  0  0  0  0  0  0  0  0
  -19.8122   13.8911  -18.1834 N   0  0  0  0  0  0  0  0  0  0  0  0
  -20.5413   13.3001  -17.6764 H   0  0  0  0  0  0  0  0  0  0  0  0
  -19.9741   18.0450  -17.3790 C   0  0  0  0  0  0  0  0  0  0  0  0
  -19.0107   17.2551  -16.8013 C   0  0  0  0  0  0  0  0  0  0  0  0
  -18.9295   15.8884  -17.0543 C   0  0  0  0  0  0  0  0  0  0  0  0
  -19.7991   15.2603  -17.8858 C   0  0  0  0  0  0  0  0  0  0  0  0
  -20.7903   16.0916  -18.4762 C   0  0  0  0  0  0  0  0  0  0  0  0
  -20.8552   17.4173  -18.2204 C   0  0  0  0  0  0  0  0  0  0  0  0
  -19.4451   20.3108  -18.0150 C   0  0  0  0  0  0  0  0  0  0  0  0
  -20.0427   19.4049  -17.1177 O   0  0  0  0  0  0  0  0  0  0  0  0
  -15.4096   13.0141  -23.7906 N   0  0  0  0  0  0  0  0  0  0  0  0
  -14.5215   12.4065  -23.7750 H   0  0  0  0  0  0  0  0  0  0  0  0
  -15.5940   13.8096  -24.9280 C   0  0  0  0  0  0  0  0  0  0  0  0
  -16.6322   13.6937  -25.8197 C   0  0  0  0  0  0  0  0  0  0  0  0
  -16.7098   14.5527  -26.9274 C   0  0  0  0  0  0  0  0  0  0  0  0
  -15.7605   15.5230  -27.1491 C   0  0  0  0  0  0  0  0  0  0  0  0
  -14.7113   15.6548  -26.2656 C   0  0  0  0  0  0  0  0  0  0  0  0
  -14.6527   14.8192  -25.2050 C   0  0  0  0  0  0  0  0  0  0  0  0
  -13.5945   14.9824  -24.3503 F   0  0  0  0  0  0  0  0  0  0  0  0
 21 22  1  0  0  0
 22 15  1  0  0  0
 15 16  2  0  0  0
 16 17  1  0  0  0
 17 18  2  0  0  0
 18 13  1  0  0  0
 13  1  1  0  0  0
  1  2  2  0  0  0
  2  3  1  0  0  0
  3  4  2  0  0  0
  4  5  1  0  0  0
  5  6  2  0  0  0
  6 23  1  0  0  0
 23 25  1  0  0  0
 25 26  2  0  0  0
 26 27  1  0  0  0
 27 28  2  0  0  0
 28 29  1  0  0  0
 29 30  2  0  0  0
 30 31  1  0  0  0
  6  7  1  0  0  0
  7 10  1  0  0  0
 10 11  1  0  0  0
 10 12  1  0  0  0
  7  8  1  0  0  0
  8  9  2  0  0  0
 18 19  1  0  0  0
 19 20  2  0  0  0
 20 15  1  0  0  0
  9  1  1  0  0  0
  8  4  1  0  0  0
 30 25  1  0  0  0
 13 14  1  0  0  0
 23 24  1  0  0  0
M  END
> <minimizedAffinity>
-8.05617

> <CNNscore>
0.4379432499

> <CNNaffinity>
7.2473158836

> <CNN_VS>
3.1739130020

> <CNNaffinity_variance>
0.2066498250

$$$$
[H]c1nc(-c2c([H])c([H])c(OC([H])([H])C([H])([H])C([H])([H])N3C([H])([H])C([H])([H])C([H])(C([H])([H])c4c([H])nc([H])n4[H])C([H])([H])C3([H])[H])c([H])c2[H])nc([H])c1[H]


 29 32  0  0  0  0  0  0  0  0999 V2000
  -18.9905   16.4227  -16.8148 C   0  0  0  0  0  0  0  0  0  0  0  0
  -19.2253   17.5409  -17.8131 C   0  0  0  0  0  0  0  0  0  0  0  0
  -19.6438   16.9554  -19.0076 O   0  0  0  0  0  0  0  0  0  0  0  0
  -16.9973   15.8879  -22.1230 C   0  0  0  0  0  0  0  0  0  0  0  0
  -18.3623   15.8989  -22.3114 C   0  0  0  0  0  0  0  0  0  0  0  0
  -19.2376   16.2505  -21.2857 C   0  0  0  0  0  0  0  0  0  0  0  0
  -18.7666   16.6017  -20.0395 C   0  0  0  0  0  0  0  0  0  0  0  0
  -17.4002   16.5892  -19.8562 C   0  0  0  0  0  0  0  0  0  0  0  0
  -16.5241   16.2389  -20.8774 C   0  0  0  0  0  0  0  0  0  0  0  0
  -14.3740   14.7709  -25.2154 C   0  0  0  0  0  0  0  0  0  0  0  0
  -14.7420   13.8761  -24.2348 C   0  0  0  0  0  0  0  0  0  0  0  0
  -15.5831   14.2749  -23.2645 N   0  0  0  0  0  0  0  0  0  0  0  0
  -16.0888   15.5182  -23.2029 C   0  0  0  0  0  0  0  0  0  0  0  0
  -15.7280   16.3842  -24.1587 N   0  0  0  0  0  0  0  0  0  0  0  0
  -14.8828   16.0435  -25.1651 C   0  0  0  0  0  0  0  0  0  0  0  0
  -20.1383   15.4443  -16.9198 C   0  0  0  0  0  0  0  0  0  0  0  0
  -19.6850   14.0665  -16.9658 N   0  0  0  0  0  0  0  0  0  0  0  0
  -20.6264   13.3338  -17.7914 C   0  0  0  0  0  0  0  0  0  0  0  0
  -20.1611   13.4087  -19.2512 C   0  0  0  0  0  0  0  0  0  0  0  0
  -18.9790   12.4791  -19.3562 C   0  0  0  0  0  0  0  0  0  0  0  0
  -18.0341   12.7723  -18.2407 C   0  0  0  0  0  0  0  0  0  0  0  0
  -18.3535   14.0688  -17.5342 C   0  0  0  0  0  0  0  0  0  0  0  0
  -18.3270   12.5401  -20.7173 C   0  0  0  0  0  0  0  0  0  0  0  0
  -17.2726   11.5084  -20.7760 C   0  0  0  0  0  0  0  0  0  0  0  0
  -17.1637   10.3582  -20.0409 C   0  0  0  0  0  0  0  0  0  0  0  0
  -16.0601    9.7129  -20.4108 N   0  0  0  0  0  0  0  0  0  0  0  0
  -15.4639   10.4309  -21.3681 C   0  0  0  0  0  0  0  0  0  0  0  0
  -16.2064   11.5228  -21.5862 N   0  0  0  0  0  0  0  0  0  0  0  0
  -15.9789   12.2775  -22.2930 H   0  0  0  0  0  0  0  0  0  0  0  0
 10 11  2  0  0  0
 11 12  1  0  0  0
 12 13  2  0  0  0
 13  4  1  0  0  0
  4  5  2  0  0  0
  5  6  1  0  0  0
  6  7  2  0  0  0
  7  3  1  0  0  0
  3  2  1  0  0  0
  2  1  1  0  0  0
  1 16  1  0  0  0
 16 17  1  0  0  0
 17 18  1  0  0  0
 18 19  1  0  0  0
 19 20  1  0  0  0
 20 23  1  0  0  0
 23 24  1  0  0  0
 24 25  2  0  0  0
 25 26  1  0  0  0
 26 27  2  0  0  0
 27 28  1  0  0  0
 20 21  1  0  0  0
 21 22  1  0  0  0
  7  8  1  0  0  0
  8  9  2  0  0  0
 13 14  1  0  0  0
 14 15  2  0  0  0
 15 10  1  0  0  0
  9  4  1  0  0  0
 22 17  1  0  0  0
 28 24  1  0  0  0
 28 29  1  0  0  0
M  END
> <minimizedAffinity>
-7.54522

> <CNNscore>
0.7719082236

> <CNNaffinity>
7.2118635178

> <CNN_VS>
5.5668969154

> <CNNaffinity_variance>
0.0494901128

$$$$
[H]c1nc(-c2c([H])c([H])c(OC([H])([H])C([H])([H])C([H])([H])N3C([H])([H])C([H])([H])C([H])(C([H])([H])c4c([H])nc([H])n4[H])C([H])([H])C3([H])[H])c([H])c2[H])nc([H])c1[H]


 29 32  0  0  0  0  0  0  0  0999 V2000
  -16.4731   16.6333  -25.6269 C   0  0  0  0  0  0  0  0  0  0  0  0
  -16.8167   17.6502  -24.5545 C   0  0  0  0  0  0  0  0  0  0  0  0
  -16.2503   17.2069  -23.3597 O   0  0  0  0  0  0  0  0  0  0  0  0
  -18.4890   15.4379  -20.2440 C   0  0  0  0  0  0  0  0  0  0  0  0
  -17.1720   15.8022  -20.0657 C   0  0  0  0  0  0  0  0  0  0  0  0
  -16.4311   16.3858  -21.0916 C   0  0  0  0  0  0  0  0  0  0  0  0
  -16.9924   16.6208  -22.3277 C   0  0  0  0  0  0  0  0  0  0  0  0
  -18.3103   16.2546  -22.5009 C   0  0  0  0  0  0  0  0  0  0  0  0
  -19.0522   15.6721  -21.4794 C   0  0  0  0  0  0  0  0  0  0  0  0
  -20.6545   13.6596  -17.1071 C   0  0  0  0  0  0  0  0  0  0  0  0
  -19.2800   13.5828  -17.1576 C   0  0  0  0  0  0  0  0  0  0  0  0
  -18.6272   14.1656  -18.1784 N   0  0  0  0  0  0  0  0  0  0  0  0
  -19.2565   14.8274  -19.1639 C   0  0  0  0  0  0  0  0  0  0  0  0
  -20.5927   14.8992  -19.1101 N   0  0  0  0  0  0  0  0  0  0  0  0
  -21.3101   14.3322  -18.1065 C   0  0  0  0  0  0  0  0  0  0  0  0
  -15.2159   15.9066  -25.2062 C   0  0  0  0  0  0  0  0  0  0  0  0
  -15.3523   14.4655  -25.3091 N   0  0  0  0  0  0  0  0  0  0  0  0
  -14.6036   13.8854  -24.2102 C   0  0  0  0  0  0  0  0  0  0  0  0
  -15.5306   13.7650  -22.9940 C   0  0  0  0  0  0  0  0  0  0  0  0
  -16.4523   12.6094  -23.2899 C   0  0  0  0  0  0  0  0  0  0  0  0
  -17.0140   12.7791  -24.6607 C   0  0  0  0  0  0  0  0  0  0  0  0
  -16.7645   14.1584  -25.2242 C   0  0  0  0  0  0  0  0  0  0  0  0
  -17.5153   12.4440  -22.2297 C   0  0  0  0  0  0  0  0  0  0  0  0
  -16.9440   11.6636  -21.1142 C   0  0  0  0  0  0  0  0  0  0  0  0
  -16.0818   10.6012  -21.1710 C   0  0  0  0  0  0  0  0  0  0  0  0
  -15.8182   10.1931  -19.9321 N   0  0  0  0  0  0  0  0  0  0  0  0
  -16.4965   10.9761  -19.0869 C   0  0  0  0  0  0  0  0  0  0  0  0
  -17.1801   11.8694  -19.8121 N   0  0  0  0  0  0  0  0  0  0  0  0
  -17.8088   12.6205  -19.4104 H   0  0  0  0  0  0  0  0  0  0  0  0
 10 11  2  0  0  0
 11 12  1  0  0  0
 12 13  2  0  0  0
 13  4  1  0  0  0
  4  5  2  0  0  0
  5  6  1  0  0  0
  6  7  2  0  0  0
  7  3  1  0  0  0
  3  2  1  0  0  0
  2  1  1  0  0  0
  1 16  1  0  0  0
 16 17  1  0  0  0
 17 18  1  0  0  0
 18 19  1  0  0  0
 19 20  1  0  0  0
 20 23  1  0  0  0
 23 24  1  0  0  0
 24 25  2  0  0  0
 25 26  1  0  0  0
 26 27  2  0  0  0
 27 28  1  0  0  0
 20 21  1  0  0  0
 21 22  1  0  0  0
  7  8  1  0  0  0
  8  9  2  0  0  0
 13 14  1  0  0  0
 14 15  2  0  0  0
 15 10  1  0  0  0
  9  4  1  0  0  0
 22 17  1  0  0  0
 28 24  1  0  0  0
 28 29  1  0  0  0
M  END
> <minimizedAffinity>
-7.29413

> <CNNscore>
0.4575350583

> <CNNaffinity>
7.1091637611

> <CNN_VS>
3.2526917458

> <CNNaffinity_variance>
0.0516488738

$$$$
[H]c1nc(-c2c([H])c([H])c(OC([H])([H])C([H])([H])C([H])([H])N3C([H])([H])C([H])([H])C([H])(C([H])([H])c4c([H])nc([H])n4[H])C([H])([H])C3([H])[H])c([H])c2[H])nc([H])c1[H]


 29 32  0  0  0  0  0  0  0  0999 V2000
  -20.2880   18.6640  -19.6542 C   0  0  0  0  0  0  0  0  0  0  0  0
  -20.8740   18.0764  -18.3841 C   0  0  0  0  0  0  0  0  0  0  0  0
  -21.3309   16.7942  -18.6874 O   0  0  0  0  0  0  0  0  0  0  0  0
  -18.7574   13.5253  -19.4222 C   0  0  0  0  0  0  0  0  0  0  0  0
  -19.7952   13.8293  -20.2762 C   0  0  0  0  0  0  0  0  0  0  0  0
  -20.6457   14.9068  -20.0364 C   0  0  0  0  0  0  0  0  0  0  0  0
  -20.4780   15.7112  -18.9304 C   0  0  0  0  0  0  0  0  0  0  0  0
  -19.4382   15.4029  -18.0793 C   0  0  0  0  0  0  0  0  0  0  0  0
  -18.5879   14.3285  -18.3157 C   0  0  0  0  0  0  0  0  0  0  0  0
  -16.1895   10.2671  -20.1172 C   0  0  0  0  0  0  0  0  0  0  0  0
  -16.2920   10.8404  -18.8688 C   0  0  0  0  0  0  0  0  0  0  0  0
  -17.1253   11.8805  -18.6905 N   0  0  0  0  0  0  0  0  0  0  0  0
  -17.8723   12.3950  -19.6817 C   0  0  0  0  0  0  0  0  0  0  0  0
  -17.7691   11.8340  -20.8935 N   0  0  0  0  0  0  0  0  0  0  0  0
  -16.9464   10.7821  -21.1385 C   0  0  0  0  0  0  0  0  0  0  0  0
  -18.8187   18.9318  -19.4191 C   0  0  0  0  0  0  0  0  0  0  0  0
  -18.0489   18.8965  -20.6489 N   0  0  0  0  0  0  0  0  0  0  0  0
  -16.7446   18.3521  -20.3215 C   0  0  0  0  0  0  0  0  0  0  0  0
  -16.8022   16.8251  -20.4560 C   0  0  0  0  0  0  0  0  0  0  0  0
  -16.8139   16.5408  -21.9363 C   0  0  0  0  0  0  0  0  0  0  0  0
  -17.8449   17.4009  -22.5847 C   0  0  0  0  0  0  0  0  0  0  0  0
  -18.7674   18.0567  -21.5840 C   0  0  0  0  0  0  0  0  0  0  0  0
  -16.9967   15.0708  -22.2316 C   0  0  0  0  0  0  0  0  0  0  0  0
  -15.9738   14.6618  -23.2145 C   0  0  0  0  0  0  0  0  0  0  0  0
  -15.6909   13.4044  -23.6771 C   0  0  0  0  0  0  0  0  0  0  0  0
  -14.6942   13.4822  -24.5555 N   0  0  0  0  0  0  0  0  0  0  0  0
  -14.3369   14.7662  -24.6610 C   0  0  0  0  0  0  0  0  0  0  0  0
  -15.1192   15.4796  -23.8425 N   0  0  0  0  0  0  0  0  0  0  0  0
  -15.0645   16.5294  -23.7164 H   0  0  0  0  0  0  0  0  0  0  0  0
 10 11  2  0  0  0
 11 12  1  0  0  0
 12 13  2  0  0  0
 13  4  1  0  0  0
  4  5  2  0  0  0
  5  6  1  0  0  0
  6  7  2  0  0  0
  7  3  1  0  0  0
  3  2  1  0  0  0
  2  1  1  0  0  0
  1 16  1  0  0  0
 16 17  1  0  0  0
 17 18  1  0  0  0
 18 19  1  0  0  0
 19 20  1  0  0  0
 20 23  1  0  0  0
 23 24  1  0  0  0
 24 25  2  0  0  0
 25 26  1  0  0  0
 26 27  2  0  0  0
 27 28  1  0  0  0
 20 21  1  0  0  0
 21 22  1  0  0  0
  7  8  1  0  0  0
  8  9  2  0  0  0
 13 14  1  0  0  0
 14 15  2  0  0  0
 15 10  1  0  0  0
  9  4  1  0  0  0
 22 17  1  0  0  0
 28 24  1  0  0  0
 28 29  1  0  0  0
M  END
> <minimizedAffinity>
-7.00309

> <CNNscore>
0.3183236718

> <CNNaffinity>
6.6832609177

> <CNN_VS>
2.1274402142

> <CNNaffinity_variance>
0.2252385616

$$$$
[H]c1nc(-c2c([H])c([H])c(OC([H])([H])C([H])([H])C([H])([H])N3C([H])([H])C([H])([H])C([H])(C([H])([H])c4c([H])nc([H])n4[H])C([H])([H])C3([H])[H])c([H])c2[H])nc([H])c1[H]


 29 32  0  0  0  0  0  0  0  0999 V2000
  -17.2002   11.4196  -18.6944 C   0  0  0  0  0  0  0  0  0  0  0  0
  -17.2125   10.0143  -19.2662 C   0  0  0  0  0  0  0  0  0  0  0  0
  -16.2399    9.9593  -20.2640 O   0  0  0  0  0  0  0  0  0  0  0  0
  -15.9812   12.7644  -23.4126 C   0  0  0  0  0  0  0  0  0  0  0  0
  -14.9141   11.9596  -23.0774 C   0  0  0  0  0  0  0  0  0  0  0  0
  -14.9965   11.0335  -22.0393 C   0  0  0  0  0  0  0  0  0  0  0  0
  -16.1546   10.8888  -21.3071 C   0  0  0  0  0  0  0  0  0  0  0  0
  -17.2193   11.6963  -21.6466 C   0  0  0  0  0  0  0  0  0  0  0  0
  -17.1404   12.6212  -22.6817 C   0  0  0  0  0  0  0  0  0  0  0  0
  -15.6654   15.5789  -26.5224 C   0  0  0  0  0  0  0  0  0  0  0  0
  -14.8832   15.6743  -25.3925 C   0  0  0  0  0  0  0  0  0  0  0  0
  -15.0164   14.7529  -24.4223 N   0  0  0  0  0  0  0  0  0  0  0  0
  -15.8853   13.7311  -24.5010 C   0  0  0  0  0  0  0  0  0  0  0  0
  -16.6434   13.6429  -25.6015 N   0  0  0  0  0  0  0  0  0  0  0  0
  -16.5567   14.5408  -26.6162 C   0  0  0  0  0  0  0  0  0  0  0  0
  -18.5438   11.6826  -18.0531 C   0  0  0  0  0  0  0  0  0  0  0  0
  -19.2753   12.7425  -18.7221 N   0  0  0  0  0  0  0  0  0  0  0  0
  -20.3436   13.1536  -17.8307 C   0  0  0  0  0  0  0  0  0  0  0  0
  -19.8164   14.2628  -16.9115 C   0  0  0  0  0  0  0  0  0  0  0  0
  -19.7299   15.5014  -17.7663 C   0  0  0  0  0  0  0  0  0  0  0  0
  -19.0221   15.1640  -19.0345 C   0  0  0  0  0  0  0  0  0  0  0  0
  -18.3400   13.8172  -18.9787 C   0  0  0  0  0  0  0  0  0  0  0  0
  -19.1027   16.6597  -17.0271 C   0  0  0  0  0  0  0  0  0  0  0  0
  -19.3763   17.8982  -17.7827 C   0  0  0  0  0  0  0  0  0  0  0  0
  -20.5868   18.4639  -18.0826 C   0  0  0  0  0  0  0  0  0  0  0  0
  -20.3809   19.5779  -18.7811 N   0  0  0  0  0  0  0  0  0  0  0  0
  -19.0614   19.7323  -18.9316 C   0  0  0  0  0  0  0  0  0  0  0  0
  -18.4549   18.7069  -18.3219 N   0  0  0  0  0  0  0  0  0  0  0  0
  -17.4068   18.5642  -18.2771 H   0  0  0  0  0  0  0  0  0  0  0  0
 10 11  2  0  0  0
 11 12  1  0  0  0
 12 13  2  0  0  0
 13  4  1  0  0  0
  4  5  2  0  0  0
  5  6  1  0  0  0
  6  7  2  0  0  0
  7  3  1  0  0  0
  3  2  1  0  0  0
  2  1  1  0  0  0
  1 16  1  0  0  0
 16 17  1  0  0  0
 17 18  1  0  0  0
 18 19  1  0  0  0
 19 20  1  0  0  0
 20 23  1  0  0  0
 23 24  1  0  0  0
 24 25  2  0  0  0
 25 26  1  0  0  0
 26 27  2  0  0  0
 27 28  1  0  0  0
 20 21  1  0  0  0
 21 22  1  0  0  0
  7  8  1  0  0  0
  8  9  2  0  0  0
 13 14  1  0  0  0
 14 15  2  0  0  0
 15 10  1  0  0  0
  9  4  1  0  0  0
 22 17  1  0  0  0
 28 24  1  0  0  0
 28 29  1  0  0  0
M  END
> <minimizedAffinity>
-6.91694

> <CNNscore>
0.2596911788

> <CNNaffinity>
6.8725194931

> <CNN_VS>
1.7847326994

> <CNNaffinity_variance>
0.0866527408

$$$$
[H]c1nc(-c2c([H])c([H])c(OC([H])([H])C([H])([H])C([H])([H])N3C([H])([H])C([H])([H])C([H])(C([H])([H])c4c([H])nc([H])n4[H])C([H])([H])C3([H])[H])c([H])c2[H])nc([H])c1[H]


 29 32  0  0  0  0  0  0  0  0999 V2000
  -18.0861   11.2875  -18.0835 C   0  0  0  0  0  0  0  0  0  0  0  0
  -18.1489   10.1312  -19.0638 C   0  0  0  0  0  0  0  0  0  0  0  0
  -16.9356   10.0974  -19.7504 O   0  0  0  0  0  0  0  0  0  0  0  0
  -16.0396   12.6390  -23.0042 C   0  0  0  0  0  0  0  0  0  0  0  0
  -17.2545   12.7010  -22.3568 C   0  0  0  0  0  0  0  0  0  0  0  0
  -17.5528   11.8639  -21.2834 C   0  0  0  0  0  0  0  0  0  0  0  0
  -16.6383   10.9392  -20.8285 C   0  0  0  0  0  0  0  0  0  0  0  0
  -15.4243   10.8813  -21.4795 C   0  0  0  0  0  0  0  0  0  0  0  0
  -15.1236   11.7150  -22.5508 C   0  0  0  0  0  0  0  0  0  0  0  0
  -15.1145   15.1853  -26.2217 C   0  0  0  0  0  0  0  0  0  0  0  0
  -14.1873   14.9105  -25.2407 C   0  0  0  0  0  0  0  0  0  0  0  0
  -14.5247   14.0909  -24.2296 N   0  0  0  0  0  0  0  0  0  0  0  0
  -15.7365   13.5195  -24.1272 C   0  0  0  0  0  0  0  0  0  0  0  0
  -16.6343   13.7898  -25.0835 N   0  0  0  0  0  0  0  0  0  0  0  0
  -16.3555   14.6087  -26.1299 C   0  0  0  0  0  0  0  0  0  0  0  0
  -19.4998   11.7280  -17.7782 C   0  0  0  0  0  0  0  0  0  0  0  0
  -19.5507   13.0650  -17.2163 N   0  0  0  0  0  0  0  0  0  0  0  0
  -18.2642   13.6853  -17.4708 C   0  0  0  0  0  0  0  0  0  0  0  0
  -18.3184   14.3869  -18.8338 C   0  0  0  0  0  0  0  0  0  0  0  0
  -19.1449   15.6303  -18.6258 C   0  0  0  0  0  0  0  0  0  0  0  0
  -20.3996   15.2615  -17.9097 C   0  0  0  0  0  0  0  0  0  0  0  0
  -20.6311   13.7690  -17.8744 C   0  0  0  0  0  0  0  0  0  0  0  0
  -19.3954   16.3694  -19.9191 C   0  0  0  0  0  0  0  0  0  0  0  0
  -18.1091   16.9062  -20.4061 C   0  0  0  0  0  0  0  0  0  0  0  0
  -17.4903   16.6785  -21.6063 C   0  0  0  0  0  0  0  0  0  0  0  0
  -16.3465   17.3582  -21.6374 N   0  0  0  0  0  0  0  0  0  0  0  0
  -16.2253   18.0147  -20.4790 C   0  0  0  0  0  0  0  0  0  0  0  0
  -17.3012   17.7358  -19.7335 N   0  0  0  0  0  0  0  0  0  0  0  0
  -17.4789   18.1168  -18.7618 H   0  0  0  0  0  0  0  0  0  0  0  0
 10 11  2  0  0  0
 11 12  1  0  0  0
 12 13  2  0  0  0
 13  4  1  0  0  0
  4  5  2  0  0  0
  5  6  1  0  0  0
  6  7  2  0  0  0
  7  3  1  0  0  0
  3  2  1  0  0  0
  2  1  1  0  0  0
  1 16  1  0  0  0
 16 17  1  0  0  0
 17 18  1  0  0  0
 18 19  1  0  0  0
 19 20  1  0  0  0
 20 23  1  0  0  0
 23 24  1  0  0  0
 24 25  2  0  0  0
 25 26  1  0  0  0
 26 27  2  0  0  0
 27 28  1  0  0  0
 20 21  1  0  0  0
 21 22  1  0  0  0
  7  8  1  0  0  0
  8  9  2  0  0  0
 13 14  1  0  0  0
 14 15  2  0  0  0
 15 10  1  0  0  0
  9  4  1  0  0  0
 22 17  1  0  0  0
 28 24  1  0  0  0
 28 29  1  0  0  0
M  END
> <minimizedAffinity>
-6.96803

> <CNNscore>
0.2296471298

> <CNNaffinity>
6.8279142380

> <CNN_VS>
1.5680109262

> <CNNaffinity_variance>
0.0830803961

$$$$
[H]c1nc(-c2c([H])c([H])c(OC([H])([H])C([H])([H])C([H])([H])N3C([H])([H])C([H])([H])C([H])(C([H])([H])c4c([H])nc([H])n4[H])C([H])([H])C3([H])[H])c([H])c2[H])nc([H])c1[H]


 29 32  0  0  0  0  0  0  0  0999 V2000
  -19.4608   10.0122  -17.0187 C   0  0  0  0  0  0  0  0  0  0  0  0
  -18.2734    9.4855  -17.8027 C   0  0  0  0  0  0  0  0  0  0  0  0
  -17.4306   10.5656  -18.0631 O   0  0  0  0  0  0  0  0  0  0  0  0
  -17.3052   12.5690  -21.7806 C   0  0  0  0  0  0  0  0  0  0  0  0
  -18.0529   13.0518  -20.7286 C   0  0  0  0  0  0  0  0  0  0  0  0
  -18.0963   12.3931  -19.5013 C   0  0  0  0  0  0  0  0  0  0  0  0
  -17.3888   11.2290  -19.2949 C   0  0  0  0  0  0  0  0  0  0  0  0
  -16.6422   10.7502  -20.3505 C   0  0  0  0  0  0  0  0  0  0  0  0
  -16.5969   11.4049  -21.5762 C   0  0  0  0  0  0  0  0  0  0  0  0
  -17.2281   14.6153  -25.4547 C   0  0  0  0  0  0  0  0  0  0  0  0
  -17.9884   15.0716  -24.4004 C   0  0  0  0  0  0  0  0  0  0  0  0
  -17.9841   14.3867  -23.2433 N   0  0  0  0  0  0  0  0  0  0  0  0
  -17.2662   13.2655  -23.0618 C   0  0  0  0  0  0  0  0  0  0  0  0
  -16.5288   12.8262  -24.0898 N   0  0  0  0  0  0  0  0  0  0  0  0
  -16.4902   13.4720  -25.2835 C   0  0  0  0  0  0  0  0  0  0  0  0
  -19.7528    9.0456  -15.8935 C   0  0  0  0  0  0  0  0  0  0  0  0
  -20.8984    9.4528  -15.1012 N   0  0  0  0  0  0  0  0  0  0  0  0
  -21.0157    8.5113  -14.0036 C   0  0  0  0  0  0  0  0  0  0  0  0
  -20.1736    9.0213  -12.8272 C   0  0  0  0  0  0  0  0  0  0  0  0
  -20.9450   10.1735  -12.2358 C   0  0  0  0  0  0  0  0  0  0  0  0
  -21.3539   11.0949  -13.3344 C   0  0  0  0  0  0  0  0  0  0  0  0
  -20.6442   10.7995  -14.6349 C   0  0  0  0  0  0  0  0  0  0  0  0
  -20.1769   10.8667  -11.1353 C   0  0  0  0  0  0  0  0  0  0  0  0
  -21.1458   11.4749  -10.2021 C   0  0  0  0  0  0  0  0  0  0  0  0
  -22.3618   10.9901   -9.8002 C   0  0  0  0  0  0  0  0  0  0  0  0
  -22.9113   11.8546   -8.9506 N   0  0  0  0  0  0  0  0  0  0  0  0
  -22.0677   12.8814   -8.8038 C   0  0  0  0  0  0  0  0  0  0  0  0
  -20.9948   12.6448   -9.5680 N   0  0  0  0  0  0  0  0  0  0  0  0
  -20.1587   13.2889   -9.6527 H   0  0  0  0  0  0  0  0  0  0  0  0
 10 11  2  0  0  0
 11 12  1  0  0  0
 12 13  2  0  0  0
 13  4  1  0  0  0
  4  5  2  0  0  0
  5  6  1  0  0  0
  6  7  2  0  0  0
  7  3  1  0  0  0
  3  2  1  0  0  0
  2  1  1  0  0  0
  1 16  1  0  0  0
 16 17  1  0  0  0
 17 18  1  0  0  0
 18 19  1  0  0  0
 19 20  1  0  0  0
 20 23  1  0  0  0
 23 24  1  0  0  0
 24 25  2  0  0  0
 25 26  1  0  0  0
 26 27  2  0  0  0
 27 28  1  0  0  0
 20 21  1  0  0  0
 21 22  1  0  0  0
  7  8  1  0  0  0
  8  9  2  0  0  0
 13 14  1  0  0  0
 14 15  2  0  0  0
 15 10  1  0  0  0
  9  4  1  0  0  0
 22 17  1  0  0  0
 28 24  1  0  0  0
 28 29  1  0  0  0
M  END
> <minimizedAffinity>
-6.59675

> <CNNscore>
0.2213478535

> <CNNaffinity>
5.6450061798

> <CNN_VS>
1.2495100498

> <CNNaffinity_variance>
0.0211124867

$$$$
[H]c1nc(-c2c([H])c([H])c(OC([H])([H])C([H])([H])C([H])([H])N3C([H])([H])C([H])([H])C([H])(C([H])([H])c4c([H])nc([H])n4[H])C([H])([H])C3([H])[H])c([H])c2[H])nc([H])c1[H]


 29 32  0  0  0  0  0  0  0  0999 V2000
  -19.2227    9.5870  -16.7960 C   0  0  0  0  0  0  0  0  0  0  0  0
  -18.9652   10.7504  -17.7353 C   0  0  0  0  0  0  0  0  0  0  0  0
  -17.8569   10.4219  -18.5154 O   0  0  0  0  0  0  0  0  0  0  0  0
  -16.8422   12.4550  -22.0771 C   0  0  0  0  0  0  0  0  0  0  0  0
  -17.8540   12.9039  -21.2565 C   0  0  0  0  0  0  0  0  0  0  0  0
  -18.1910   12.2353  -20.0811 C   0  0  0  0  0  0  0  0  0  0  0  0
  -17.5204   11.0951  -19.6956 C   0  0  0  0  0  0  0  0  0  0  0  0
  -16.5088   10.6503  -20.5200 C   0  0  0  0  0  0  0  0  0  0  0  0
  -16.1702   11.3149  -21.6933 C   0  0  0  0  0  0  0  0  0  0  0  0
  -15.9003   14.5001  -25.6300 C   0  0  0  0  0  0  0  0  0  0  0  0
  -17.2083   14.3131  -25.2404 C   0  0  0  0  0  0  0  0  0  0  0  0
  -17.4648   13.6536  -24.0971 N   0  0  0  0  0  0  0  0  0  0  0  0
  -16.4967   13.1616  -23.3058 C   0  0  0  0  0  0  0  0  0  0  0  0
  -15.2268   13.3461  -23.6890 N   0  0  0  0  0  0  0  0  0  0  0  0
  -14.9018   14.0032  -24.8318 C   0  0  0  0  0  0  0  0  0  0  0  0
  -20.2126   10.0359  -15.7452 C   0  0  0  0  0  0  0  0  0  0  0  0
  -20.5686    8.9661  -14.8314 N   0  0  0  0  0  0  0  0  0  0  0  0
  -19.3389    8.4995  -14.2193 C   0  0  0  0  0  0  0  0  0  0  0  0
  -19.0745    9.3276  -12.9554 C   0  0  0  0  0  0  0  0  0  0  0  0
  -20.0563    8.8324  -11.9242 C   0  0  0  0  0  0  0  0  0  0  0  0
  -21.4160    8.7888  -12.5344 C   0  0  0  0  0  0  0  0  0  0  0  0
  -21.4838    9.5188  -13.8553 C   0  0  0  0  0  0  0  0  0  0  0  0
  -20.0028    9.6450  -10.6521 C   0  0  0  0  0  0  0  0  0  0  0  0
  -18.6700    9.4689  -10.0418 C   0  0  0  0  0  0  0  0  0  0  0  0
  -17.8090   10.4298   -9.5830 C   0  0  0  0  0  0  0  0  0  0  0  0
  -16.7153    9.8380   -9.1091 N   0  0  0  0  0  0  0  0  0  0  0  0
  -16.8637    8.5176   -9.2576 C   0  0  0  0  0  0  0  0  0  0  0  0
  -18.0554    8.2988   -9.8259 N   0  0  0  0  0  0  0  0  0  0  0  0
  -18.4453    7.3439  -10.0648 H   0  0  0  0  0  0  0  0  0  0  0  0
 10 11  2  0  0  0
 11 12  1  0  0  0
 12 13  2  0  0  0
 13  4  1  0  0  0
  4  5  2  0  0  0
  5  6  1  0  0  0
  6  7  2  0  0  0
  7  3  1  0  0  0
  3  2  1  0  0  0
  2  1  1  0  0  0
  1 16  1  0  0  0
 16 17  1  0  0  0
 17 18  1  0  0  0
 18 19  1  0  0  0
 19 20  1  0  0  0
 20 23  1  0  0  0
 23 24  1  0  0  0
 24 25  2  0  0  0
 25 26  1  0  0  0
 26 27  2  0  0  0
 27 28  1  0  0  0
 20 21  1  0  0  0
 21 22  1  0  0  0
  7  8  1  0  0  0
  8  9  2  0  0  0
 13 14  1  0  0  0
 14 15  2  0  0  0
 15 10  1  0  0  0
  9  4  1  0  0  0
 22 17  1  0  0  0
 28 24  1  0  0  0
 28 29  1  0  0  0
M  END
> <minimizedAffinity>
-7.40506

> <CNNscore>
0.2187066823

> <CNNaffinity>
5.4585943222

> <CNN_VS>
1.1938310862

> <CNNaffinity_variance>
0.1173177958

$$$$
[H]c1nc(-c2c([H])c([H])c(OC([H])([H])C([H])([H])C([H])([H])N3C([H])([H])C([H])([H])C([H])(C([H])([H])c4c([H])nc([H])n4[H])C([H])([H])C3([H])[H])c([H])c2[H])nc([H])c1[H]


 29 32  0  0  0  0  0  0  0  0999 V2000
  -19.4267   15.4124  -19.2714 C   0  0  0  0  0  0  0  0  0  0  0  0
  -18.9062   16.8102  -18.9937 C   0  0  0  0  0  0  0  0  0  0  0  0
  -19.9556   17.7007  -19.2187 O   0  0  0  0  0  0  0  0  0  0  0  0
  -21.8099   18.1979  -22.9821 C   0  0  0  0  0  0  0  0  0  0  0  0
  -20.4381   18.1808  -22.8533 C   0  0  0  0  0  0  0  0  0  0  0  0
  -19.8237   18.0170  -21.6133 C   0  0  0  0  0  0  0  0  0  0  0  0
  -20.5704   17.8654  -20.4654 C   0  0  0  0  0  0  0  0  0  0  0  0
  -21.9425   17.8832  -20.5997 C   0  0  0  0  0  0  0  0  0  0  0  0
  -22.5586   18.0464  -21.8354 C   0  0  0  0  0  0  0  0  0  0  0  0
  -23.6467   18.6395  -26.7403 C   0  0  0  0  0  0  0  0  0  0  0  0
  -23.5158   17.4008  -26.1520 C   0  0  0  0  0  0  0  0  0  0  0  0
  -22.9220   17.3047  -24.9494 N   0  0  0  0  0  0  0  0  0  0  0  0
  -22.4440   18.3701  -24.2847 C   0  0  0  0  0  0  0  0  0  0  0  0
  -22.5739   19.5721  -24.8609 N   0  0  0  0  0  0  0  0  0  0  0  0
  -23.1634   19.7359  -26.0729 C   0  0  0  0  0  0  0  0  0  0  0  0
  -18.2460   14.5179  -19.5737 C   0  0  0  0  0  0  0  0  0  0  0  0
  -18.4543   13.7144  -20.7641 N   0  0  0  0  0  0  0  0  0  0  0  0
  -18.4772   14.6230  -21.8949 C   0  0  0  0  0  0  0  0  0  0  0  0
  -17.0438   14.7995  -22.4119 C   0  0  0  0  0  0  0  0  0  0  0  0
  -16.7069   13.5229  -23.1394 C   0  0  0  0  0  0  0  0  0  0  0  0
  -17.0654   12.3643  -22.2721 C   0  0  0  0  0  0  0  0  0  0  0  0
  -17.3573   12.7734  -20.8474 C   0  0  0  0  0  0  0  0  0  0  0  0
  -15.2695   13.4947  -23.6024 C   0  0  0  0  0  0  0  0  0  0  0  0
  -15.1480   14.3515  -24.7987 C   0  0  0  0  0  0  0  0  0  0  0  0
  -16.0164   14.4752  -25.8502 C   0  0  0  0  0  0  0  0  0  0  0  0
  -15.5226   15.3572  -26.7158 N   0  0  0  0  0  0  0  0  0  0  0  0
  -14.3554   15.7977  -26.2351 C   0  0  0  0  0  0  0  0  0  0  0  0
  -14.1325   15.1821  -25.0679 N   0  0  0  0  0  0  0  0  0  0  0  0
  -13.2813   15.3340  -24.4569 H   0  0  0  0  0  0  0  0  0  0  0  0
 10 11  2  0  0  0
 11 12  1  0  0  0
 12 13  2  0  0  0
 13  4  1  0  0  0
  4  5  2  0  0  0
  5  6  1  0  0  0
  6  7  2  0  0  0
  7  3  1  0  0  0
  3  2  1  0  0  0
  2  1  1  0  0  0
  1 16  1  0  0  0
 16 17  1  0  0  0
 17 18  1  0  0  0
 18 19  1  0  0  0
 19 20  1  0  0  0
 20 23  1  0  0  0
 23 24  1  0  0  0
 24 25  2  0  0  0
 25 26  1  0  0  0
 26 27  2  0  0  0
 27 28  1  0  0  0
 20 21  1  0  0  0
 21 22  1  0  0  0
  7  8  1  0  0  0
  8  9  2  0  0  0
 13 14  1  0  0  0
 14 15  2  0  0  0
 15 10  1  0  0  0
  9  4  1  0  0  0
 22 17  1  0  0  0
 28 24  1  0  0  0
 28 29  1  0  0  0
M  END
> <minimizedAffinity>
-7.29107

> <CNNscore>
0.1889246702

> <CNNaffinity>
5.9516530037

> <CNN_VS>
1.1244140863

> <CNNaffinity_variance>
0.8699353933

$$$$
[H]c1nc(-c2c([H])c([H])c(OC([H])([H])C([H])([H])C([H])([H])N3C([H])([H])C([H])([H])C([H])(C([H])([H])c4c([H])nc([H])n4[H])C([H])([H])C3([H])[H])c([H])c2[H])nc([H])c1[H]


 29 32  0  0  0  0  0  0  0  0999 V2000
  -18.5440   11.7031  -18.0629 C   0  0  0  0  0  0  0  0  0  0  0  0
  -18.4218   12.6847  -19.2134 C   0  0  0  0  0  0  0  0  0  0  0  0
  -18.0008   11.9680  -20.3331 O   0  0  0  0  0  0  0  0  0  0  0  0
  -16.6715   13.8016  -23.8996 C   0  0  0  0  0  0  0  0  0  0  0  0
  -16.1411   12.6064  -23.4648 C   0  0  0  0  0  0  0  0  0  0  0  0
  -16.5775   11.9993  -22.2888 C   0  0  0  0  0  0  0  0  0  0  0  0
  -17.5607   12.5759  -21.5146 C   0  0  0  0  0  0  0  0  0  0  0  0
  -18.0881   13.7715  -21.9541 C   0  0  0  0  0  0  0  0  0  0  0  0
  -17.6549   14.3798  -23.1268 C   0  0  0  0  0  0  0  0  0  0  0  0
  -15.2947   15.6376  -27.4246 C   0  0  0  0  0  0  0  0  0  0  0  0
  -14.6716   15.8578  -26.2159 C   0  0  0  0  0  0  0  0  0  0  0  0
  -15.1446   15.2507  -25.1134 N   0  0  0  0  0  0  0  0  0  0  0  0
  -16.2080   14.4296  -25.1321 C   0  0  0  0  0  0  0  0  0  0  0  0
  -16.8102   14.2188  -26.3096 N   0  0  0  0  0  0  0  0  0  0  0  0
  -16.3815   14.8016  -27.4585 C   0  0  0  0  0  0  0  0  0  0  0  0
  -19.4655   12.3016  -17.0246 C   0  0  0  0  0  0  0  0  0  0  0  0
  -19.6500   11.4261  -15.8819 N   0  0  0  0  0  0  0  0  0  0  0  0
  -20.7916   11.9265  -15.1396 C   0  0  0  0  0  0  0  0  0  0  0  0
  -22.0630   11.2712  -15.6937 C   0  0  0  0  0  0  0  0  0  0  0  0
  -22.0519    9.8522  -15.1850 C   0  0  0  0  0  0  0  0  0  0  0  0
  -20.7114    9.2554  -15.4494 C   0  0  0  0  0  0  0  0  0  0  0  0
  -19.8791   10.0913  -16.3933 C   0  0  0  0  0  0  0  0  0  0  0  0
  -23.1876    9.0352  -15.7543 C   0  0  0  0  0  0  0  0  0  0  0  0
  -24.4532    9.5305  -15.1775 C   0  0  0  0  0  0  0  0  0  0  0  0
  -24.8934    9.4400  -13.8840 C   0  0  0  0  0  0  0  0  0  0  0  0
  -26.0891   10.0173  -13.7940 N   0  0  0  0  0  0  0  0  0  0  0  0
  -26.4188   10.4741  -15.0065 C   0  0  0  0  0  0  0  0  0  0  0  0
  -25.4192   10.1750  -15.8447 N   0  0  0  0  0  0  0  0  0  0  0  0
  -25.4024   10.4146  -16.8758 H   0  0  0  0  0  0  0  0  0  0  0  0
 10 11  2  0  0  0
 11 12  1  0  0  0
 12 13  2  0  0  0
 13  4  1  0  0  0
  4  5  2  0  0  0
  5  6  1  0  0  0
  6  7  2  0  0  0
  7  3  1  0  0  0
  3  2  1  0  0  0
  2  1  1  0  0  0
  1 16  1  0  0  0
 16 17  1  0  0  0
 17 18  1  0  0  0
 18 19  1  0  0  0
 19 20  1  0  0  0
 20 23  1  0  0  0
 23 24  1  0  0  0
 24 25  2  0  0  0
 25 26  1  0  0  0
 26 27  2  0  0  0
 27 28  1  0  0  0
 20 21  1  0  0  0
 21 22  1  0  0  0
  7  8  1  0  0  0
  8  9  2  0  0  0
 13 14  1  0  0  0
 14 15  2  0  0  0
 15 10  1  0  0  0
  9  4  1  0  0  0
 22 17  1  0  0  0
 28 24  1  0  0  0
 28 29  1  0  0  0
M  END
> <minimizedAffinity>
-6.85877

> <CNNscore>
0.1829422265

> <CNNaffinity>
5.7410392761

> <CNN_VS>
1.0502785444

> <CNNaffinity_variance>
0.0449368618

$$$$
[H]OC(=O)[C@]1([H])N([H])[C@@]([H])(C([H])([H])C([H])([H])c2c([H])c([H])c([H])c([H])c2[H])C(=O)N([H])[C@]([H])(C(=O)N([H])C([H])([H])[H])C([H])([H])C([H])([H])C(=O)OC([H])([H])C([H])([H])N([H])C(=O)C([H])([H])C1([H])[H]


 39 40  0  0  0  0  0  0  0  0999 V2000
  -18.5134   12.9169  -18.5351 C   0  0  0  0  0  0  0  0  0  0  0  0
  -19.2041   12.5940  -17.2512 C   0  0  0  0  0  0  0  0  0  0  0  0
  -19.1068   11.1930  -16.7583 C   0  0  0  0  0  0  0  0  0  0  0  0
  -20.4393   10.7474  -16.2080 C   0  0  0  0  0  0  0  0  0  0  0  0
  -21.1767   10.0718  -17.0043 O   0  0  0  0  0  0  0  0  0  0  0  0
  -20.8765   11.0234  -14.9451 O   0  0  0  0  0  0  0  0  0  0  0  0
  -20.9388   12.2330  -14.2746 C   0  0  0  0  0  0  0  0  0  0  0  0
  -22.2859   12.9464  -14.3921 C   0  0  0  0  0  0  0  0  0  0  0  0
  -22.0926   14.3292  -14.0527 N   0  0  0  0  0  0  0  0  0  0  0  0
  -22.8492   15.4296  -14.5133 C   0  0  0  0  0  0  0  0  0  0  0  0
  -23.2589   16.3234  -13.6940 O   0  0  0  0  0  0  0  0  0  0  0  0
  -23.2321   15.6534  -15.9411 C   0  0  0  0  0  0  0  0  0  0  0  0
  -22.1276   15.2916  -16.8794 C   0  0  0  0  0  0  0  0  0  0  0  0
  -21.1617   16.4102  -17.2080 C   0  0  0  0  0  0  0  0  0  0  0  0
  -20.2081   15.9091  -18.1545 N   0  0  0  0  0  0  0  0  0  0  0  0
  -20.6165   15.4854  -19.4208 C   0  0  0  0  0  0  0  0  0  0  0  0
  -20.5243   14.0268  -19.7079 C   0  0  0  0  0  0  0  0  0  0  0  0
  -21.6246   13.4883  -20.0845 O   0  0  0  0  0  0  0  0  0  0  0  0
  -19.4348   13.1779  -19.6311 N   0  0  0  0  0  0  0  0  0  0  0  0
  -21.3013   14.5588  -13.3828 H   0  0  0  0  0  0  0  0  0  0  0  0
  -19.3165   16.3830  -18.0301 H   0  0  0  0  0  0  0  0  0  0  0  0
  -19.2047   12.6015  -20.5090 H   0  0  0  0  0  0  0  0  0  0  0  0
  -16.6584   10.0900  -20.3491 C   0  0  0  0  0  0  0  0  0  0  0  0
  -17.6416   11.0824  -19.9963 N   0  0  0  0  0  0  0  0  0  0  0  0
  -17.4941   11.9098  -18.8741 C   0  0  0  0  0  0  0  0  0  0  0  0
  -16.4875   11.7886  -18.1573 O   0  0  0  0  0  0  0  0  0  0  0  0
  -18.4876   11.1862  -20.5946 H   0  0  0  0  0  0  0  0  0  0  0  0
  -21.8318   17.6614  -17.5552 C   0  0  0  0  0  0  0  0  0  0  0  0
  -22.6480   17.8433  -18.4875 O   0  0  0  0  0  0  0  0  0  0  0  0
  -21.5254   18.7811  -16.7601 O   0  0  0  0  0  0  0  0  0  0  0  0
  -20.8142   19.3933  -17.1368 H   0  0  0  0  0  0  0  0  0  0  0  0
  -19.9677   16.2697  -20.5673 C   0  0  0  0  0  0  0  0  0  0  0  0
  -18.8797   17.1627  -20.0768 C   0  0  0  0  0  0  0  0  0  0  0  0
  -19.3450   18.5794  -19.9395 C   0  0  0  0  0  0  0  0  0  0  0  0
  -20.2600   19.1430  -20.7750 C   0  0  0  0  0  0  0  0  0  0  0  0
  -20.6142   20.4668  -20.5433 C   0  0  0  0  0  0  0  0  0  0  0  0
  -20.0695   21.2026  -19.5085 C   0  0  0  0  0  0  0  0  0  0  0  0
  -19.1460   20.6202  -18.6722 C   0  0  0  0  0  0  0  0  0  0  0  0
  -18.8002   19.3097  -18.9073 C   0  0  0  0  0  0  0  0  0  0  0  0
 23 24  1  0  0  0
 24 25  1  0  0  0
 25 26  2  0  0  0
 25  1  1  0  0  0
  1  2  1  0  0  0
  2  3  1  0  0  0
  3  4  1  0  0  0
  4  5  2  0  0  0
  4  6  1  0  0  0
  6  7  1  0  0  0
  7  8  1  0  0  0
  8  9  1  0  0  0
  9 10  1  0  0  0
 10 11  2  0  0  0
 10 12  1  0  0  0
 12 13  1  0  0  0
 13 14  1  0  0  0
 14 28  1  0  0  0
 28 29  2  0  0  0
 28 30  1  0  0  0
 14 15  1  0  0  0
 15 16  1  0  0  0
 16 32  1  0  0  0
 32 33  1  0  0  0
 33 34  1  0  0  0
 34 35  2  0  0  0
 35 36  1  0  0  0
 36 37  2  0  0  0
 37 38  1  0  0  0
 38 39  2  0  0  0
 16 17  1  0  0  0
 17 18  2  0  0  0
 17 19  1  0  0  0
 19  1  1  0  0  0
 39 34  1  0  0  0
 24 27  1  0  0  0
  9 20  1  0  0  0
 30 31  1  0  0  0
 15 21  1  0  0  0
 19 22  1  0  0  0
M  END
> <minimizedAffinity>
-5.00551

> <CNNscore>
0.3783671856

> <CNNaffinity>
5.4516935349

> <CNN_VS>
2.0627419949

> <CNNaffinity_variance>
0.2176488340

$$$$
[H]OC(=O)[C@]1([H])N([H])[C@@]([H])(C([H])([H])C([H])([H])c2c([H])c([H])c([H])c([H])c2[H])C(=O)N([H])[C@]([H])(C(=O)N([H])C([H])([H])[H])C([H])([H])C([H])([H])C(=O)OC([H])([H])C([H])([H])N([H])C(=O)C([H])([H])C1([H])[H]


 39 40  0  0  0  0  0  0  0  0999 V2000
  -19.0705   13.8766  -18.3055 C   0  0  0  0  0  0  0  0  0  0  0  0
  -19.9309   14.0668  -17.1000 C   0  0  0  0  0  0  0  0  0  0  0  0
  -20.0430   12.9224  -16.1551 C   0  0  0  0  0  0  0  0  0  0  0  0
  -21.4692   12.7835  -15.6822 C   0  0  0  0  0  0  0  0  0  0  0  0
  -22.1831   11.9216  -16.3003 O   0  0  0  0  0  0  0  0  0  0  0  0
  -22.0113   13.5100  -14.6621 O   0  0  0  0  0  0  0  0  0  0  0  0
  -22.0149   14.8787  -14.4547 C   0  0  0  0  0  0  0  0  0  0  0  0
  -23.2542   15.5917  -14.9962 C   0  0  0  0  0  0  0  0  0  0  0  0
  -22.9495   16.9905  -15.1191 N   0  0  0  0  0  0  0  0  0  0  0  0
  -23.5251   17.9077  -16.0263 C   0  0  0  0  0  0  0  0  0  0  0  0
  -23.9229   19.0555  -15.6234 O   0  0  0  0  0  0  0  0  0  0  0  0
  -23.7200   17.6438  -17.4850 C   0  0  0  0  0  0  0  0  0  0  0  0
  -22.5643   16.9073  -18.0792 C   0  0  0  0  0  0  0  0  0  0  0  0
  -21.4512   17.7764  -18.6248 C   0  0  0  0  0  0  0  0  0  0  0  0
  -20.4589   16.9164  -19.2011 N   0  0  0  0  0  0  0  0  0  0  0  0
  -20.7678   16.1051  -20.2948 C   0  0  0  0  0  0  0  0  0  0  0  0
  -20.8047   14.6352  -20.0572 C   0  0  0  0  0  0  0  0  0  0  0  0
  -21.9085   14.0713  -20.3825 O   0  0  0  0  0  0  0  0  0  0  0  0
  -19.8300   13.7980  -19.5445 N   0  0  0  0  0  0  0  0  0  0  0  0
  -22.2173   17.3877  -14.4606 H   0  0  0  0  0  0  0  0  0  0  0  0
  -19.5401   17.3454  -19.1184 H   0  0  0  0  0  0  0  0  0  0  0  0
  -19.5683   12.9382  -20.1345 H   0  0  0  0  0  0  0  0  0  0  0  0
  -17.5547   10.3552  -18.4643 C   0  0  0  0  0  0  0  0  0  0  0  0
  -18.4518   11.4723  -18.6170 N   0  0  0  0  0  0  0  0  0  0  0  0
  -18.1363   12.7511  -18.1366 C   0  0  0  0  0  0  0  0  0  0  0  0
  -17.0518   12.9336  -17.5601 O   0  0  0  0  0  0  0  0  0  0  0  0
  -19.3626   11.3227  -19.0990 H   0  0  0  0  0  0  0  0  0  0  0  0
  -21.9374   18.8684  -19.4651 C   0  0  0  0  0  0  0  0  0  0  0  0
  -22.6269   18.7666  -20.5055 O   0  0  0  0  0  0  0  0  0  0  0  0
  -21.5917   20.1724  -19.0649 O   0  0  0  0  0  0  0  0  0  0  0  0
  -20.7812   20.5625  -19.5268 H   0  0  0  0  0  0  0  0  0  0  0  0
  -19.9136   16.3969  -21.5340 C   0  0  0  0  0  0  0  0  0  0  0  0
  -18.7952   17.3322  -21.2237 C   0  0  0  0  0  0  0  0  0  0  0  0
  -19.0521   18.7035  -21.7677 C   0  0  0  0  0  0  0  0  0  0  0  0
  -18.6442   19.8390  -21.1375 C   0  0  0  0  0  0  0  0  0  0  0  0
  -18.9400   21.0538  -21.7441 C   0  0  0  0  0  0  0  0  0  0  0  0
  -19.6224   21.1294  -22.9430 C   0  0  0  0  0  0  0  0  0  0  0  0
  -20.0286   19.9739  -23.5685 C   0  0  0  0  0  0  0  0  0  0  0  0
  -19.7324   18.7750  -22.9625 C   0  0  0  0  0  0  0  0  0  0  0  0
 23 24  1  0  0  0
 24 25  1  0  0  0
 25 26  2  0  0  0
 25  1  1  0  0  0
  1  2  1  0  0  0
  2  3  1  0  0  0
  3  4  1  0  0  0
  4  5  2  0  0  0
  4  6  1  0  0  0
  6  7  1  0  0  0
  7  8  1  0  0  0
  8  9  1  0  0  0
  9 10  1  0  0  0
 10 11  2  0  0  0
 10 12  1  0  0  0
 12 13  1  0  0  0
 13 14  1  0  0  0
 14 28  1  0  0  0
 28 29  2  0  0  0
 28 30  1  0  0  0
 14 15  1  0  0  0
 15 16  1  0  0  0
 16 32  1  0  0  0
 32 33  1  0  0  0
 33 34  1  0  0  0
 34 35  2  0  0  0
 35 36  1  0  0  0
 36 37  2  0  0  0
 37 38  1  0  0  0
 38 39  2  0  0  0
 16 17  1  0  0  0
 17 18  2  0  0  0
 17 19  1  0  0  0
 19  1  1  0  0  0
 39 34  1  0  0  0
 24 27  1  0  0  0
  9 20  1  0  0  0
 30 31  1  0  0  0
 15 21  1  0  0  0
 19 22  1  0  0  0
M  END
> <minimizedAffinity>
-3.83102

> <CNNscore>
0.3462999463

> <CNNaffinity>
5.2707743645

> <CNN_VS>
1.8252688646

> <CNNaffinity_variance>
0.6302214861

$$$$
[H]OC(=O)[C@]1([H])N([H])[C@@]([H])(C([H])([H])C([H])([H])c2c([H])c([H])c([H])c([H])c2[H])C(=O)N([H])[C@]([H])(C(=O)N([H])C([H])([H])[H])C([H])([H])C([H])([H])C(=O)OC([H])([H])C([H])([H])N([H])C(=O)C([H])([H])C1([H])[H]


 39 40  0  0  0  0  0  0  0  0999 V2000
  -18.0337   14.3229  -19.7250 C   0  0  0  0  0  0  0  0  0  0  0  0
  -18.8133   14.6225  -18.4872 C   0  0  0  0  0  0  0  0  0  0  0  0
  -19.3216   13.4631  -17.7044 C   0  0  0  0  0  0  0  0  0  0  0  0
  -20.7251   13.7416  -17.2252 C   0  0  0  0  0  0  0  0  0  0  0  0
  -21.6677   13.2564  -17.9396 O   0  0  0  0  0  0  0  0  0  0  0  0
  -21.0223   14.4617  -16.1048 O   0  0  0  0  0  0  0  0  0  0  0  0
  -20.5785   15.7132  -15.7134 C   0  0  0  0  0  0  0  0  0  0  0  0
  -21.4981   16.8624  -16.1270 C   0  0  0  0  0  0  0  0  0  0  0  0
  -20.7450   18.0845  -16.0650 N   0  0  0  0  0  0  0  0  0  0  0  0
  -20.9616   19.2541  -16.8270 C   0  0  0  0  0  0  0  0  0  0  0  0
  -20.9677   20.4033  -16.2638 O   0  0  0  0  0  0  0  0  0  0  0  0
  -21.1954   19.2692  -18.3037 C   0  0  0  0  0  0  0  0  0  0  0  0
  -20.3335   18.2791  -19.0164 C   0  0  0  0  0  0  0  0  0  0  0  0
  -18.9821   18.7961  -19.4619 C   0  0  0  0  0  0  0  0  0  0  0  0
  -18.3156   17.7423  -20.1702 N   0  0  0  0  0  0  0  0  0  0  0  0
  -18.8474   17.2346  -21.3573 C   0  0  0  0  0  0  0  0  0  0  0  0
  -19.3742   15.8419  -21.3209 C   0  0  0  0  0  0  0  0  0  0  0  0
  -20.5937   15.7245  -21.6967 O   0  0  0  0  0  0  0  0  0  0  0  0
  -18.7446   14.6682  -20.9471 N   0  0  0  0  0  0  0  0  0  0  0  0
  -19.9397   18.1242  -15.3740 H   0  0  0  0  0  0  0  0  0  0  0  0
  -17.3091   17.8277  -20.0491 H   0  0  0  0  0  0  0  0  0  0  0  0
  -18.7669   13.8582  -21.6538 H   0  0  0  0  0  0  0  0  0  0  0  0
  -17.1901   10.7652  -20.8887 C   0  0  0  0  0  0  0  0  0  0  0  0
  -17.6756   12.1214  -20.8590 N   0  0  0  0  0  0  0  0  0  0  0  0
  -17.5288   12.9397  -19.7300 C   0  0  0  0  0  0  0  0  0  0  0  0
  -16.9643   12.4878  -18.7207 O   0  0  0  0  0  0  0  0  0  0  0  0
  -18.1505   12.5035  -21.7033 H   0  0  0  0  0  0  0  0  0  0  0  0
  -19.0582   20.0903  -20.1357 C   0  0  0  0  0  0  0  0  0  0  0  0
  -19.4958   20.3134  -21.2877 O   0  0  0  0  0  0  0  0  0  0  0  0
  -18.5872   21.2035  -19.4154 O   0  0  0  0  0  0  0  0  0  0  0  0
  -17.6357   21.4768  -19.6216 H   0  0  0  0  0  0  0  0  0  0  0  0
  -17.9133   17.3917  -22.5629 C   0  0  0  0  0  0  0  0  0  0  0  0
  -16.4988   17.0845  -22.2070 C   0  0  0  0  0  0  0  0  0  0  0  0
  -15.8895   16.1003  -23.1569 C   0  0  0  0  0  0  0  0  0  0  0  0
  -15.7028   14.7883  -22.8459 C   0  0  0  0  0  0  0  0  0  0  0  0
  -15.1294   13.9723  -23.8138 C   0  0  0  0  0  0  0  0  0  0  0  0
  -14.7548   14.4544  -25.0531 C   0  0  0  0  0  0  0  0  0  0  0  0
  -14.9492   15.7823  -25.3536 C   0  0  0  0  0  0  0  0  0  0  0  0
  -15.5173   16.5842  -24.3910 C   0  0  0  0  0  0  0  0  0  0  0  0
 23 24  1  0  0  0
 24 25  1  0  0  0
 25 26  2  0  0  0
 25  1  1  0  0  0
  1  2  1  0  0  0
  2  3  1  0  0  0
  3  4  1  0  0  0
  4  5  2  0  0  0
  4  6  1  0  0  0
  6  7  1  0  0  0
  7  8  1  0  0  0
  8  9  1  0  0  0
  9 10  1  0  0  0
 10 11  2  0  0  0
 10 12  1  0  0  0
 12 13  1  0  0  0
 13 14  1  0  0  0
 14 28  1  0  0  0
 28 29  2  0  0  0
 28 30  1  0  0  0
 14 15  1  0  0  0
 15 16  1  0  0  0
 16 32  1  0  0  0
 32 33  1  0  0  0
 33 34  1  0  0  0
 34 35  2  0  0  0
 35 36  1  0  0  0
 36 37  2  0  0  0
 37 38  1  0  0  0
 38 39  2  0  0  0
 16 17  1  0  0  0
 17 18  2  0  0  0
 17 19  1  0  0  0
 19  1  1  0  0  0
 39 34  1  0  0  0
 24 27  1  0  0  0
  9 20  1  0  0  0
 30 31  1  0  0  0
 15 21  1  0  0  0
 19 22  1  0  0  0
M  END
> <minimizedAffinity>
-6.01614

> <CNNscore>
0.2790438533

> <CNNaffinity>
5.7346825600

> <CNN_VS>
1.6002279520

> <CNNaffinity_variance>
0.3309253752

$$$$
[H]OC(=O)[C@]1([H])N([H])[C@@]([H])(C([H])([H])C([H])([H])c2c([H])c([H])c([H])c([H])c2[H])C(=O)N([H])[C@]([H])(C(=O)N([H])C([H])([H])[H])C([H])([H])C([H])([H])C(=O)OC([H])([H])C([H])([H])N([H])C(=O)C([H])([H])C1([H])[H]


 39 40  0  0  0  0  0  0  0  0999 V2000
  -18.4471   12.8719  -18.4770 C   0  0  0  0  0  0  0  0  0  0  0  0
  -19.1823   12.5977  -17.2066 C   0  0  0  0  0  0  0  0  0  0  0  0
  -19.1741   11.1972  -16.7028 C   0  0  0  0  0  0  0  0  0  0  0  0
  -20.5410   10.8307  -16.1791 C   0  0  0  0  0  0  0  0  0  0  0  0
  -21.2976   10.1912  -16.9871 O   0  0  0  0  0  0  0  0  0  0  0  0
  -20.9892   11.1402  -14.9279 O   0  0  0  0  0  0  0  0  0  0  0  0
  -20.9983   12.3563  -14.2666 C   0  0  0  0  0  0  0  0  0  0  0  0
  -22.3006   13.1428  -14.4181 C   0  0  0  0  0  0  0  0  0  0  0  0
  -22.0377   14.5152  -14.0834 N   0  0  0  0  0  0  0  0  0  0  0  0
  -22.7215   15.6526  -14.5674 C   0  0  0  0  0  0  0  0  0  0  0  0
  -23.0982   16.5740  -13.7630 O   0  0  0  0  0  0  0  0  0  0  0  0
  -23.0604   15.8865  -16.0047 C   0  0  0  0  0  0  0  0  0  0  0  0
  -21.9579   15.4567  -16.9162 C   0  0  0  0  0  0  0  0  0  0  0  0
  -20.9241   16.5173  -17.2306 C   0  0  0  0  0  0  0  0  0  0  0  0
  -19.9798   15.9567  -18.1527 N   0  0  0  0  0  0  0  0  0  0  0  0
  -20.3838   15.5468  -19.4249 C   0  0  0  0  0  0  0  0  0  0  0  0
  -20.3671   14.0832  -19.7008 C   0  0  0  0  0  0  0  0  0  0  0  0
  -21.4873   13.6040  -20.0980 O   0  0  0  0  0  0  0  0  0  0  0  0
  -19.3286   13.1755  -19.5946 N   0  0  0  0  0  0  0  0  0  0  0  0
  -21.2495   14.7054  -13.3978 H   0  0  0  0  0  0  0  0  0  0  0  0
  -19.0660   16.3810  -18.0118 H   0  0  0  0  0  0  0  0  0  0  0  0
  -19.1122   12.5806  -20.4636 H   0  0  0  0  0  0  0  0  0  0  0  0
  -16.7176    9.9283  -20.2284 C   0  0  0  0  0  0  0  0  0  0  0  0
  -17.6512   10.9767  -19.9037 N   0  0  0  0  0  0  0  0  0  0  0  0
  -17.4786   11.8070  -18.7872 C   0  0  0  0  0  0  0  0  0  0  0  0
  -16.4931   11.6390  -18.0508 O   0  0  0  0  0  0  0  0  0  0  0  0
  -18.4793   11.1199  -20.5184 H   0  0  0  0  0  0  0  0  0  0  0  0
  -21.5156   17.8011  -17.6004 C   0  0  0  0  0  0  0  0  0  0  0  0
  -22.2919   18.0232  -18.5577 O   0  0  0  0  0  0  0  0  0  0  0  0
  -21.1746   18.9056  -16.7980 O   0  0  0  0  0  0  0  0  0  0  0  0
  -20.4205   19.4779  -17.1535 H   0  0  0  0  0  0  0  0  0  0  0  0
  -19.6676   16.2850  -20.5619 C   0  0  0  0  0  0  0  0  0  0  0  0
  -18.2393   16.5531  -20.2304 C   0  0  0  0  0  0  0  0  0  0  0  0
  -17.3341   16.2333  -21.3795 C   0  0  0  0  0  0  0  0  0  0  0  0
  -16.7318   17.1907  -22.1370 C   0  0  0  0  0  0  0  0  0  0  0  0
  -15.9105   16.7680  -23.1754 C   0  0  0  0  0  0  0  0  0  0  0  0
  -15.6992   15.4300  -23.4468 C   0  0  0  0  0  0  0  0  0  0  0  0
  -16.3143   14.4736  -22.6733 C   0  0  0  0  0  0  0  0  0  0  0  0
  -17.1258   14.8990  -21.6472 C   0  0  0  0  0  0  0  0  0  0  0  0
 23 24  1  0  0  0
 24 25  1  0  0  0
 25 26  2  0  0  0
 25  1  1  0  0  0
  1  2  1  0  0  0
  2  3  1  0  0  0
  3  4  1  0  0  0
  4  5  2  0  0  0
  4  6  1  0  0  0
  6  7  1  0  0  0
  7  8  1  0  0  0
  8  9  1  0  0  0
  9 10  1  0  0  0
 10 11  2  0  0  0
 10 12  1  0  0  0
 12 13  1  0  0  0
 13 14  1  0  0  0
 14 28  1  0  0  0
 28 29  2  0  0  0
 28 30  1  0  0  0
 14 15  1  0  0  0
 15 16  1  0  0  0
 16 32  1  0  0  0
 32 33  1  0  0  0
 33 34  1  0  0  0
 34 35  2  0  0  0
 35 36  1  0  0  0
 36 37  2  0  0  0
 37 38  1  0  0  0
 38 39  2  0  0  0
 16 17  1  0  0  0
 17 18  2  0  0  0
 17 19  1  0  0  0
 19  1  1  0  0  0
 39 34  1  0  0  0
 24 27  1  0  0  0
  9 20  1  0  0  0
 30 31  1  0  0  0
 15 21  1  0  0  0
 19 22  1  0  0  0
M  END
> <minimizedAffinity>
-6.19628

> <CNNscore>
0.2645845115

> <CNNaffinity>
5.5005049706

> <CNN_VS>
1.4553483725

> <CNNaffinity_variance>
0.1103193983

$$$$
[H]OC(=O)[C@]1([H])N([H])[C@@]([H])(C([H])([H])C([H])([H])c2c([H])c([H])c([H])c([H])c2[H])C(=O)N([H])[C@]([H])(C(=O)N([H])C([H])([H])[H])C([H])([H])C([H])([H])C(=O)OC([H])([H])C([H])([H])N([H])C(=O)C([H])([H])C1([H])[H]


 39 40  0  0  0  0  0  0  0  0999 V2000
  -18.6854   14.3634  -18.3688 C   0  0  0  0  0  0  0  0  0  0  0  0
  -19.2700   15.7170  -18.1321 C   0  0  0  0  0  0  0  0  0  0  0  0
  -20.2840   15.8418  -17.0497 C   0  0  0  0  0  0  0  0  0  0  0  0
  -21.4076   16.7434  -17.4989 C   0  0  0  0  0  0  0  0  0  0  0  0
  -22.4464   16.1573  -17.9589 O   0  0  0  0  0  0  0  0  0  0  0  0
  -21.3659   18.1060  -17.4385 O   0  0  0  0  0  0  0  0  0  0  0  0
  -20.3998   18.9833  -17.9006 C   0  0  0  0  0  0  0  0  0  0  0  0
  -20.6628   19.5216  -19.3072 C   0  0  0  0  0  0  0  0  0  0  0  0
  -19.4277   20.0394  -19.8278 N   0  0  0  0  0  0  0  0  0  0  0  0
  -19.0499   20.1269  -21.1862 C   0  0  0  0  0  0  0  0  0  0  0  0
  -18.5342   21.2033  -21.6479 O   0  0  0  0  0  0  0  0  0  0  0  0
  -19.2065   19.0206  -22.1796 C   0  0  0  0  0  0  0  0  0  0  0  0
  -18.8875   17.6873  -21.5865 C   0  0  0  0  0  0  0  0  0  0  0  0
  -17.4388   17.2597  -21.6908 C   0  0  0  0  0  0  0  0  0  0  0  0
  -17.3223   15.9465  -21.1267 N   0  0  0  0  0  0  0  0  0  0  0  0
  -17.9951   14.8640  -21.6970 C   0  0  0  0  0  0  0  0  0  0  0  0
  -19.1129   14.2722  -20.9104 C   0  0  0  0  0  0  0  0  0  0  0  0
  -20.2342   14.2289  -21.5294 O   0  0  0  0  0  0  0  0  0  0  0  0
  -19.1165   13.7650  -19.6234 N   0  0  0  0  0  0  0  0  0  0  0  0
  -18.7178   20.4000  -19.1253 H   0  0  0  0  0  0  0  0  0  0  0  0
  -16.3967   15.8254  -20.7221 H   0  0  0  0  0  0  0  0  0  0  0  0
  -19.4944   12.7667  -19.4954 H   0  0  0  0  0  0  0  0  0  0  0  0
  -19.8743   11.4242  -16.2076 C   0  0  0  0  0  0  0  0  0  0  0  0
  -19.6632   12.3113  -17.3232 N   0  0  0  0  0  0  0  0  0  0  0  0
  -18.8862   13.4731  -17.2133 C   0  0  0  0  0  0  0  0  0  0  0  0
  -18.3610   13.7527  -16.1234 O   0  0  0  0  0  0  0  0  0  0  0  0
  -20.1029   12.0806  -18.2385 H   0  0  0  0  0  0  0  0  0  0  0  0
  -16.8812   17.4485  -23.0281 C   0  0  0  0  0  0  0  0  0  0  0  0
  -17.4897   17.8499  -24.0464 O   0  0  0  0  0  0  0  0  0  0  0  0
  -15.5170   17.1442  -23.1898 O   0  0  0  0  0  0  0  0  0  0  0  0
  -15.3234   16.2208  -23.5536 H   0  0  0  0  0  0  0  0  0  0  0  0
  -17.0614   13.7446  -22.1721 C   0  0  0  0  0  0  0  0  0  0  0  0
  -17.2968   13.4018  -23.6035 C   0  0  0  0  0  0  0  0  0  0  0  0
  -16.2991   14.0631  -24.5032 C   0  0  0  0  0  0  0  0  0  0  0  0
  -14.9559   14.0049  -24.2897 C   0  0  0  0  0  0  0  0  0  0  0  0
  -14.1307   14.6573  -25.1978 C   0  0  0  0  0  0  0  0  0  0  0  0
  -14.6339   15.3459  -26.2846 C   0  0  0  0  0  0  0  0  0  0  0  0
  -15.9932   15.3965  -26.4879 C   0  0  0  0  0  0  0  0  0  0  0  0
  -16.8041   14.7485  -25.5852 C   0  0  0  0  0  0  0  0  0  0  0  0
 23 24  1  0  0  0
 24 25  1  0  0  0
 25 26  2  0  0  0
 25  1  1  0  0  0
  1  2  1  0  0  0
  2  3  1  0  0  0
  3  4  1  0  0  0
  4  5  2  0  0  0
  4  6  1  0  0  0
  6  7  1  0  0  0
  7  8  1  0  0  0
  8  9  1  0  0  0
  9 10  1  0  0  0
 10 11  2  0  0  0
 10 12  1  0  0  0
 12 13  1  0  0  0
 13 14  1  0  0  0
 14 28  1  0  0  0
 28 29  2  0  0  0
 28 30  1  0  0  0
 14 15  1  0  0  0
 15 16  1  0  0  0
 16 32  1  0  0  0
 32 33  1  0  0  0
 33 34  1  0  0  0
 34 35  2  0  0  0
 35 36  1  0  0  0
 36 37  2  0  0  0
 37 38  1  0  0  0
 38 39  2  0  0  0
 16 17  1  0  0  0
 17 18  2  0  0  0
 17 19  1  0  0  0
 19  1  1  0  0  0
 39 34  1  0  0  0
 24 27  1  0  0  0
  9 20  1  0  0  0
 30 31  1  0  0  0
 15 21  1  0  0  0
 19 22  1  0  0  0
M  END
> <minimizedAffinity>
-6.94329

> <CNNscore>
0.1963319033

> <CNNaffinity>
5.9248032570

> <CNN_VS>
1.1632279158

> <CNNaffinity_variance>
0.2554134130

$$$$
[H]OC(=O)[C@]1([H])N([H])[C@@]([H])(C([H])([H])C([H])([H])c2c([H])c([H])c([H])c([H])c2[H])C(=O)N([H])[C@]([H])(C(=O)N([H])C([H])([H])[H])C([H])([H])C([H])([H])C(=O)OC([H])([H])C([H])([H])N([H])C(=O)C([H])([H])C1([H])[H]


 39 40  0  0  0  0  0  0  0  0999 V2000
  -19.6860   17.3888  -17.9855 C   0  0  0  0  0  0  0  0  0  0  0  0
  -20.5868   18.4128  -18.5936 C   0  0  0  0  0  0  0  0  0  0  0  0
  -21.6664   18.9684  -17.7327 C   0  0  0  0  0  0  0  0  0  0  0  0
  -22.9410   19.1036  -18.5289 C   0  0  0  0  0  0  0  0  0  0  0  0
  -23.7820   18.1485  -18.4066 O   0  0  0  0  0  0  0  0  0  0  0  0
  -23.2258   20.1606  -19.3437 O   0  0  0  0  0  0  0  0  0  0  0  0
  -22.4674   20.7303  -20.3520 C   0  0  0  0  0  0  0  0  0  0  0  0
  -22.7627   20.1786  -21.7469 C   0  0  0  0  0  0  0  0  0  0  0  0
  -21.6550   20.5042  -22.6022 N   0  0  0  0  0  0  0  0  0  0  0  0
  -21.2256   19.7904  -23.7431 C   0  0  0  0  0  0  0  0  0  0  0  0
  -20.9509   20.4086  -24.8296 O   0  0  0  0  0  0  0  0  0  0  0  0
  -21.0554   18.3060  -23.7964 C   0  0  0  0  0  0  0  0  0  0  0  0
  -20.4679   17.7649  -22.5341 C   0  0  0  0  0  0  0  0  0  0  0  0
  -18.9557   17.7014  -22.4963 C   0  0  0  0  0  0  0  0  0  0  0  0
  -18.5676   17.1122  -21.2479 N   0  0  0  0  0  0  0  0  0  0  0  0
  -18.9296   15.8000  -20.9365 C   0  0  0  0  0  0  0  0  0  0  0  0
  -19.9225   15.6142  -19.8419 C   0  0  0  0  0  0  0  0  0  0  0  0
  -20.9617   14.9422  -20.1749 O   0  0  0  0  0  0  0  0  0  0  0  0
  -19.8856   16.0543  -18.5310 N   0  0  0  0  0  0  0  0  0  0  0  0
  -21.0949   21.3736  -22.3616 H   0  0  0  0  0  0  0  0  0  0  0  0
  -17.6664   17.4832  -20.9563 H   0  0  0  0  0  0  0  0  0  0  0  0
  -20.0246   15.3126  -17.7651 H   0  0  0  0  0  0  0  0  0  0  0  0
  -19.1497   18.4877  -14.3485 C   0  0  0  0  0  0  0  0  0  0  0  0
  -19.1094   18.4369  -15.7879 N   0  0  0  0  0  0  0  0  0  0  0  0
  -19.7418   17.4181  -16.5144 C   0  0  0  0  0  0  0  0  0  0  0  0
  -20.3572   16.5285  -15.9048 O   0  0  0  0  0  0  0  0  0  0  0  0
  -18.5933   19.1807  -16.3024 H   0  0  0  0  0  0  0  0  0  0  0  0
  -18.3771   17.1157  -23.7034 C   0  0  0  0  0  0  0  0  0  0  0  0
  -18.5807   15.9644  -24.1522 O   0  0  0  0  0  0  0  0  0  0  0  0
  -17.4954   17.9301  -24.4377 O   0  0  0  0  0  0  0  0  0  0  0  0
  -16.5137   17.7835  -24.2441 H   0  0  0  0  0  0  0  0  0  0  0  0
  -17.7308   14.8752  -20.6956 C   0  0  0  0  0  0  0  0  0  0  0  0
  -17.8101   13.6426  -21.5299 C   0  0  0  0  0  0  0  0  0  0  0  0
  -17.5850   12.4064  -20.7154 C   0  0  0  0  0  0  0  0  0  0  0  0
  -16.8600   11.3452  -21.1642 C   0  0  0  0  0  0  0  0  0  0  0  0
  -16.7194   10.2554  -20.3133 C   0  0  0  0  0  0  0  0  0  0  0  0
  -17.2864   10.2289  -19.0538 C   0  0  0  0  0  0  0  0  0  0  0  0
  -18.0164   11.3081  -18.6135 C   0  0  0  0  0  0  0  0  0  0  0  0
  -18.1515   12.3834  -19.4608 C   0  0  0  0  0  0  0  0  0  0  0  0
 23 24  1  0  0  0
 24 25  1  0  0  0
 25 26  2  0  0  0
 25  1  1  0  0  0
  1  2  1  0  0  0
  2  3  1  0  0  0
  3  4  1  0  0  0
  4  5  2  0  0  0
  4  6  1  0  0  0
  6  7  1  0  0  0
  7  8  1  0  0  0
  8  9  1  0  0  0
  9 10  1  0  0  0
 10 11  2  0  0  0
 10 12  1  0  0  0
 12 13  1  0  0  0
 13 14  1  0  0  0
 14 28  1  0  0  0
 28 29  2  0  0  0
 28 30  1  0  0  0
 14 15  1  0  0  0
 15 16  1  0  0  0
 16 32  1  0  0  0
 32 33  1  0  0  0
 33 34  1  0  0  0
 34 35  2  0  0  0
 35 36  1  0  0  0
 36 37  2  0  0  0
 37 38  1  0  0  0
 38 39  2  0  0  0
 16 17  1  0  0  0
 17 18  2  0  0  0
 17 19  1  0  0  0
 19  1  1  0  0  0
 39 34  1  0  0  0
 24 27  1  0  0  0
  9 20  1  0  0  0
 30 31  1  0  0  0
 15 21  1  0  0  0
 19 22  1  0  0  0
M  END
> <minimizedAffinity>
-8.53263

> <CNNscore>
0.1454596370

> <CNNaffinity>
5.0334725380

> <CNN_VS>
0.7321670651

> <CNNaffinity_variance>
0.8685320616

$$$$
[H]OC(=O)[C@]1([H])N([H])[C@@]([H])(C([H])([H])C([H])([H])c2c([H])c([H])c([H])c([H])c2[H])C(=O)N([H])[C@]([H])(C(=O)N([H])C([H])([H])[H])C([H])([H])C([H])([H])C(=O)OC([H])([H])C([H])([H])N([H])C(=O)C([H])([H])C1([H])[H]


 39 40  0  0  0  0  0  0  0  0999 V2000
  -20.0744   13.0159  -17.1997 C   0  0  0  0  0  0  0  0  0  0  0  0
  -19.3753   12.5390  -18.4300 C   0  0  0  0  0  0  0  0  0  0  0  0
  -18.7205   11.2039  -18.3679 C   0  0  0  0  0  0  0  0  0  0  0  0
  -17.3842   11.2532  -19.0670 C   0  0  0  0  0  0  0  0  0  0  0  0
  -16.3647   11.4269  -18.3155 O   0  0  0  0  0  0  0  0  0  0  0  0
  -17.2212   11.1256  -20.4158 O   0  0  0  0  0  0  0  0  0  0  0  0
  -17.8524   11.7940  -21.4508 C   0  0  0  0  0  0  0  0  0  0  0  0
  -17.1019   13.0292  -21.9496 C   0  0  0  0  0  0  0  0  0  0  0  0
  -18.0272   13.8531  -22.6774 N   0  0  0  0  0  0  0  0  0  0  0  0
  -17.9671   15.2548  -22.8419 C   0  0  0  0  0  0  0  0  0  0  0  0
  -18.1423   15.7806  -23.9955 O   0  0  0  0  0  0  0  0  0  0  0  0
  -17.7046   16.2249  -21.7349 C   0  0  0  0  0  0  0  0  0  0  0  0
  -18.3957   15.8311  -20.4707 C   0  0  0  0  0  0  0  0  0  0  0  0
  -19.7979   16.3760  -20.2998 C   0  0  0  0  0  0  0  0  0  0  0  0
  -20.2865   15.9499  -19.0208 N   0  0  0  0  0  0  0  0  0  0  0  0
  -19.6593   16.3650  -17.8443 C   0  0  0  0  0  0  0  0  0  0  0  0
  -18.9351   15.3254  -17.0613 C   0  0  0  0  0  0  0  0  0  0  0  0
  -17.7033   15.5944  -16.8317 O   0  0  0  0  0  0  0  0  0  0  0  0
  -19.3942   14.1255  -16.5483 N   0  0  0  0  0  0  0  0  0  0  0  0
  -18.8451   13.3660  -23.1478 H   0  0  0  0  0  0  0  0  0  0  0  0
  -21.2972   15.8389  -19.0568 H   0  0  0  0  0  0  0  0  0  0  0  0
  -19.2374   13.9538  -15.4987 H   0  0  0  0  0  0  0  0  0  0  0  0
  -21.8587   10.0651  -15.5167 C   0  0  0  0  0  0  0  0  0  0  0  0
  -21.5462   11.1542  -16.4067 N   0  0  0  0  0  0  0  0  0  0  0  0
  -20.3708   11.9075  -16.2768 C   0  0  0  0  0  0  0  0  0  0  0  0
  -19.5701   11.6333  -15.3682 O   0  0  0  0  0  0  0  0  0  0  0  0
  -22.2158   11.3878  -17.1692 H   0  0  0  0  0  0  0  0  0  0  0  0
  -19.8969   17.8036  -20.5949 C   0  0  0  0  0  0  0  0  0  0  0  0
  -20.6739   18.3504  -21.4107 O   0  0  0  0  0  0  0  0  0  0  0  0
  -19.0249   18.6539  -19.8902 O   0  0  0  0  0  0  0  0  0  0  0  0
  -18.1786   18.9050  -20.3833 H   0  0  0  0  0  0  0  0  0  0  0  0
  -20.5787   17.1566  -16.9070 C   0  0  0  0  0  0  0  0  0  0  0  0
  -19.8855   18.3424  -16.3281 C   0  0  0  0  0  0  0  0  0  0  0  0
  -20.8268   19.2108  -15.5522 C   0  0  0  0  0  0  0  0  0  0  0  0
  -20.4242   20.0051  -14.5227 C   0  0  0  0  0  0  0  0  0  0  0  0
  -21.3925   20.7683  -13.8813 C   0  0  0  0  0  0  0  0  0  0  0  0
  -22.7212   20.7370  -14.2584 C   0  0  0  0  0  0  0  0  0  0  0  0
  -23.1138   19.9297  -15.3003 C   0  0  0  0  0  0  0  0  0  0  0  0
  -22.1502   19.1771  -15.9307 C   0  0  0  0  0  0  0  0  0  0  0  0
 23 24  1  0  0  0
 24 25  1  0  0  0
 25 26  2  0  0  0
 25  1  1  0  0  0
  1  2  1  0  0  0
  2  3  1  0  0  0
  3  4  1  0  0  0
  4  5  2  0  0  0
  4  6  1  0  0  0
  6  7  1  0  0  0
  7  8  1  0  0  0
  8  9  1  0  0  0
  9 10  1  0  0  0
 10 11  2  0  0  0
 10 12  1  0  0  0
 12 13  1  0  0  0
 13 14  1  0  0  0
 14 28  1  0  0  0
 28 29  2  0  0  0
 28 30  1  0  0  0
 14 15  1  0  0  0
 15 16  1  0  0  0
 16 32  1  0  0  0
 32 33  1  0  0  0
 33 34  1  0  0  0
 34 35  2  0  0  0
 35 36  1  0  0  0
 36 37  2  0  0  0
 37 38  1  0  0  0
 38 39  2  0  0  0
 16 17  1  0  0  0
 17 18  2  0  0  0
 17 19  1  0  0  0
 19  1  1  0  0  0
 39 34  1  0  0  0
 24 27  1  0  0  0
  9 20  1  0  0  0
 30 31  1  0  0  0
 15 21  1  0  0  0
 19 22  1  0  0  0
M  END
> <minimizedAffinity>
-7.10698

> <CNNscore>
0.1084243581

> <CNNaffinity>
5.6614732742

> <CNN_VS>
0.6138415933

> <CNNaffinity_variance>
0.0695104152

$$$$
[H]OC(=O)[C@]1([H])N([H])[C@@]([H])(C([H])([H])C([H])([H])c2c([H])c([H])c([H])c([H])c2[H])C(=O)N([H])[C@]([H])(C(=O)N([H])C([H])([H])[H])C([H])([H])C([H])([H])C(=O)OC([H])([H])C([H])([H])N([H])C(=O)C([H])([H])C1([H])[H]


 39 40  0  0  0  0  0  0  0  0999 V2000
  -16.5435   16.2423  -23.9141 C   0  0  0  0  0  0  0  0  0  0  0  0
  -16.5425   14.8774  -23.3084 C   0  0  0  0  0  0  0  0  0  0  0  0
  -15.9983   13.7654  -24.1345 C   0  0  0  0  0  0  0  0  0  0  0  0
  -16.8609   12.5374  -23.9767 C   0  0  0  0  0  0  0  0  0  0  0  0
  -17.7395   12.3492  -24.8861 O   0  0  0  0  0  0  0  0  0  0  0  0
  -16.7494   11.6515  -22.9448 O   0  0  0  0  0  0  0  0  0  0  0  0
  -16.7257   11.8811  -21.5798 C   0  0  0  0  0  0  0  0  0  0  0  0
  -18.0927   11.7780  -20.9028 C   0  0  0  0  0  0  0  0  0  0  0  0
  -18.0166   12.4471  -19.6335 N   0  0  0  0  0  0  0  0  0  0  0  0
  -19.0774   13.0665  -18.9359 C   0  0  0  0  0  0  0  0  0  0  0  0
  -19.2414   12.8552  -17.6844 O   0  0  0  0  0  0  0  0  0  0  0  0
  -20.0729   13.9911  -19.5599 C   0  0  0  0  0  0  0  0  0  0  0  0
  -19.4387   14.9053  -20.5565 C   0  0  0  0  0  0  0  0  0  0  0  0
  -18.9222   16.2152  -20.0001 C   0  0  0  0  0  0  0  0  0  0  0  0
  -18.4007   16.9857  -21.0912 N   0  0  0  0  0  0  0  0  0  0  0  0
  -19.2356   17.4098  -22.1270 C   0  0  0  0  0  0  0  0  0  0  0  0
  -19.0235   16.7884  -23.4639 C   0  0  0  0  0  0  0  0  0  0  0  0
  -20.0654   16.2354  -23.9648 O   0  0  0  0  0  0  0  0  0  0  0  0
  -17.8782   16.7244  -24.2371 N   0  0  0  0  0  0  0  0  0  0  0  0
  -17.0670   12.4827  -19.1595 H   0  0  0  0  0  0  0  0  0  0  0  0
  -17.6411   17.5780  -20.7637 H   0  0  0  0  0  0  0  0  0  0  0  0
  -17.9538   17.0815  -25.2484 H   0  0  0  0  0  0  0  0  0  0  0  0
  -15.0955   15.9773  -27.4575 C   0  0  0  0  0  0  0  0  0  0  0  0
  -15.9879   15.8971  -26.3292 N   0  0  0  0  0  0  0  0  0  0  0  0
  -15.6126   16.3349  -25.0512 C   0  0  0  0  0  0  0  0  0  0  0  0
  -14.4772   16.8071  -24.8792 O   0  0  0  0  0  0  0  0  0  0  0  0
  -16.9405   15.5007  -26.4694 H   0  0  0  0  0  0  0  0  0  0  0  0
  -19.8837   16.8852  -19.1275 C   0  0  0  0  0  0  0  0  0  0  0  0
  -19.7067   17.2261  -17.9355 O   0  0  0  0  0  0  0  0  0  0  0  0
  -21.1430   17.1754  -19.6842 O   0  0  0  0  0  0  0  0  0  0  0  0
  -21.8676   16.4996  -19.4823 H   0  0  0  0  0  0  0  0  0  0  0  0
  -19.2949   18.9341  -22.2802 C   0  0  0  0  0  0  0  0  0  0  0  0
  -18.5136   19.6251  -21.2155 C   0  0  0  0  0  0  0  0  0  0  0  0
  -19.4027   20.1729  -20.1424 C   0  0  0  0  0  0  0  0  0  0  0  0
  -18.9909   20.3487  -18.8569 C   0  0  0  0  0  0  0  0  0  0  0  0
  -19.9086   20.8686  -17.9521 C   0  0  0  0  0  0  0  0  0  0  0  0
  -21.1974   21.2015  -18.3222 C   0  0  0  0  0  0  0  0  0  0  0  0
  -21.5999   21.0185  -19.6245 C   0  0  0  0  0  0  0  0  0  0  0  0
  -20.6863   20.5036  -20.5148 C   0  0  0  0  0  0  0  0  0  0  0  0
 23 24  1  0  0  0
 24 25  1  0  0  0
 25 26  2  0  0  0
 25  1  1  0  0  0
  1  2  1  0  0  0
  2  3  1  0  0  0
  3  4  1  0  0  0
  4  5  2  0  0  0
  4  6  1  0  0  0
  6  7  1  0  0  0
  7  8  1  0  0  0
  8  9  1  0  0  0
  9 10  1  0  0  0
 10 11  2  0  0  0
 10 12  1  0  0  0
 12 13  1  0  0  0
 13 14  1  0  0  0
 14 28  1  0  0  0
 28 29  2  0  0  0
 28 30  1  0  0  0
 14 15  1  0  0  0
 15 16  1  0  0  0
 16 32  1  0  0  0
 32 33  1  0  0  0
 33 34  1  0  0  0
 34 35  2  0  0  0
 35 36  1  0  0  0
 36 37  2  0  0  0
 37 38  1  0  0  0
 38 39  2  0  0  0
 16 17  1  0  0  0
 17 18  2  0  0  0
 17 19  1  0  0  0
 19  1  1  0  0  0
 39 34  1  0  0  0
 24 27  1  0  0  0
  9 20  1  0  0  0
 30 31  1  0  0  0
 15 21  1  0  0  0
 19 22  1  0  0  0
M  END
> <minimizedAffinity>
-5.62166

> <CNNscore>
0.1057403609

> <CNNaffinity>
5.7106027603

> <CNN_VS>
0.6038411856

> <CNNaffinity_variance>
0.1294928193

$$$$
[H]OC(=O)[C@]1([H])N([H])[C@@]([H])(C([H])([H])C([H])([H])c2c([H])c([H])c([H])c([H])c2[H])C(=O)N([H])[C@]([H])(C(=O)N([H])C([H])([H])[H])C([H])([H])C([H])([H])C(=O)OC([H])([H])C([H])([H])N([H])C(=O)C([H])([H])C1([H])[H]


 39 40  0  0  0  0  0  0  0  0999 V2000
  -20.6007   13.5050  -16.2596 C   0  0  0  0  0  0  0  0  0  0  0  0
  -21.4730   14.5461  -15.6391 C   0  0  0  0  0  0  0  0  0  0  0  0
  -22.5866   14.0739  -14.7717 C   0  0  0  0  0  0  0  0  0  0  0  0
  -23.8264   14.8928  -15.0348 C   0  0  0  0  0  0  0  0  0  0  0  0
  -24.6738   14.3821  -15.8445 O   0  0  0  0  0  0  0  0  0  0  0  0
  -24.0745   16.1092  -14.4682 O   0  0  0  0  0  0  0  0  0  0  0  0
  -23.2732   17.2363  -14.4056 C   0  0  0  0  0  0  0  0  0  0  0  0
  -23.5109   18.2383  -15.5357 C   0  0  0  0  0  0  0  0  0  0  0  0
  -22.3676   19.1050  -15.6150 N   0  0  0  0  0  0  0  0  0  0  0  0
  -21.8922   19.7794  -16.7616 C   0  0  0  0  0  0  0  0  0  0  0  0
  -21.5709   21.0167  -16.6997 O   0  0  0  0  0  0  0  0  0  0  0  0
  -21.7230   19.1457  -18.1052 C   0  0  0  0  0  0  0  0  0  0  0  0
  -21.1902   17.7539  -18.0038 C   0  0  0  0  0  0  0  0  0  0  0  0
  -19.6811   17.6334  -18.0171 C   0  0  0  0  0  0  0  0  0  0  0  0
  -19.3470   16.2397  -17.9683 N   0  0  0  0  0  0  0  0  0  0  0  0
  -19.7245   15.3801  -19.0019 C   0  0  0  0  0  0  0  0  0  0  0  0
  -20.7629   14.3597  -18.6874 C   0  0  0  0  0  0  0  0  0  0  0  0
  -21.7886   14.3904  -19.4551 O   0  0  0  0  0  0  0  0  0  0  0  0
  -20.7801   13.3916  -17.6994 N   0  0  0  0  0  0  0  0  0  0  0  0
  -21.8162   19.2645  -14.7217 H   0  0  0  0  0  0  0  0  0  0  0  0
  -18.4580   16.1143  -17.4899 H   0  0  0  0  0  0  0  0  0  0  0  0
  -20.9526   12.3783  -18.0146 H   0  0  0  0  0  0  0  0  0  0  0  0
  -20.0446   10.6706  -13.7337 C   0  0  0  0  0  0  0  0  0  0  0  0
  -19.9476   11.9285  -14.4296 N   0  0  0  0  0  0  0  0  0  0  0  0
  -20.7182   12.2113  -15.5662 C   0  0  0  0  0  0  0  0  0  0  0  0
  -21.5105   11.3554  -15.9922 O   0  0  0  0  0  0  0  0  0  0  0  0
  -19.2835   12.6483  -14.0759 H   0  0  0  0  0  0  0  0  0  0  0  0
  -19.0536   18.4192  -19.0771 C   0  0  0  0  0  0  0  0  0  0  0  0
  -18.2828   19.3956  -18.9331 O   0  0  0  0  0  0  0  0  0  0  0  0
  -19.3490   18.0410  -20.3999 O   0  0  0  0  0  0  0  0  0  0  0  0
  -20.0889   18.5696  -20.8424 H   0  0  0  0  0  0  0  0  0  0  0  0
  -18.5388   14.6995  -19.6958 C   0  0  0  0  0  0  0  0  0  0  0  0
  -18.9475   13.4340  -20.3690 C   0  0  0  0  0  0  0  0  0  0  0  0
  -17.9133   12.3627  -20.2105 C   0  0  0  0  0  0  0  0  0  0  0  0
  -17.4827   11.9224  -18.9965 C   0  0  0  0  0  0  0  0  0  0  0  0
  -16.5201   10.9202  -18.9794 C   0  0  0  0  0  0  0  0  0  0  0  0
  -16.0051   10.3764  -20.1403 C   0  0  0  0  0  0  0  0  0  0  0  0
  -16.4494   10.8310  -21.3599 C   0  0  0  0  0  0  0  0  0  0  0  0
  -17.4023   11.8231  -21.3695 C   0  0  0  0  0  0  0  0  0  0  0  0
 23 24  1  0  0  0
 24 25  1  0  0  0
 25 26  2  0  0  0
 25  1  1  0  0  0
  1  2  1  0  0  0
  2  3  1  0  0  0
  3  4  1  0  0  0
  4  5  2  0  0  0
  4  6  1  0  0  0
  6  7  1  0  0  0
  7  8  1  0  0  0
  8  9  1  0  0  0
  9 10  1  0  0  0
 10 11  2  0  0  0
 10 12  1  0  0  0
 12 13  1  0  0  0
 13 14  1  0  0  0
 14 28  1  0  0  0
 28 29  2  0  0  0
 28 30  1  0  0  0
 14 15  1  0  0  0
 15 16  1  0  0  0
 16 32  1  0  0  0
 32 33  1  0  0  0
 33 34  1  0  0  0
 34 35  2  0  0  0
 35 36  1  0  0  0
 36 37  2  0  0  0
 37 38  1  0  0  0
 38 39  2  0  0  0
 16 17  1  0  0  0
 17 18  2  0  0  0
 17 19  1  0  0  0
 19  1  1  0  0  0
 39 34  1  0  0  0
 24 27  1  0  0  0
  9 20  1  0  0  0
 30 31  1  0  0  0
 15 21  1  0  0  0
 19 22  1  0  0  0
M  END
> <minimizedAffinity>
-7.04608

> <CNNscore>
0.0939237103

> <CNNaffinity>
5.0886960030

> <CNN_VS>
0.4779492021

> <CNNaffinity_variance>
0.1402983367

$$$$
[H]c1nc2n(n1)C([H])(c1sc([H])c([H])c1[H])C([H])([H])C([H])(c1c([H])c([H])c(Cl)c(Cl)c1[H])N2[H]


 23 26  0  0  0  0  0  0  0  0999 V2000
  -17.1842   13.3377  -21.9341 C   0  0  0  0  0  0  0  0  0  0  0  0
  -18.6050   13.5420  -21.5372 C   0  0  0  0  0  0  0  0  0  0  0  0
  -18.8605   13.1489  -20.1286 C   0  0  0  0  0  0  0  0  0  0  0  0
  -18.1426   11.9958  -19.6860 N   0  0  0  0  0  0  0  0  0  0  0  0
  -18.2307   11.3122  -18.5636 N   0  0  0  0  0  0  0  0  0  0  0  0
  -17.3658   10.2900  -18.5591 C   0  0  0  0  0  0  0  0  0  0  0  0
  -16.7264   10.3646  -19.7393 N   0  0  0  0  0  0  0  0  0  0  0  0
  -17.1815   11.4032  -20.4554 C   0  0  0  0  0  0  0  0  0  0  0  0
  -16.8699   11.9363  -21.7363 N   0  0  0  0  0  0  0  0  0  0  0  0
  -16.4464   11.3025  -22.4333 H   0  0  0  0  0  0  0  0  0  0  0  0
  -15.8014   15.2036  -27.4617 Cl  0  0  0  0  0  0  0  0  0  0  0  0
  -16.2224   14.6589  -25.8556 C   0  0  0  0  0  0  0  0  0  0  0  0
  -17.5377   14.4039  -25.5452 C   0  0  0  0  0  0  0  0  0  0  0  0
  -17.8456   13.9685  -24.2499 C   0  0  0  0  0  0  0  0  0  0  0  0
  -16.8785   13.7936  -23.2987 C   0  0  0  0  0  0  0  0  0  0  0  0
  -15.5685   14.0551  -23.6327 C   0  0  0  0  0  0  0  0  0  0  0  0
  -15.2248   14.4921  -24.9191 C   0  0  0  0  0  0  0  0  0  0  0  0
  -13.5641   14.8286  -25.3581 Cl  0  0  0  0  0  0  0  0  0  0  0  0
  -18.6012   14.2784  -19.1602 C   0  0  0  0  0  0  0  0  0  0  0  0
  -18.1026   15.5180  -19.4429 C   0  0  0  0  0  0  0  0  0  0  0  0
  -17.9499   16.3725  -18.4249 C   0  0  0  0  0  0  0  0  0  0  0  0
  -18.3079   15.9318  -17.1768 C   0  0  0  0  0  0  0  0  0  0  0  0
  -18.8441   14.3411  -17.4725 S   0  0  0  0  0  0  0  0  0  0  0  0
 11 12  1  0  0  0
 12 13  2  0  0  0
 13 14  1  0  0  0
 14 15  2  0  0  0
 15  1  1  0  0  0
  1  2  1  0  0  0
  2  3  1  0  0  0
  3 19  1  0  0  0
 19 20  2  0  0  0
 20 21  1  0  0  0
 21 22  2  0  0  0
 22 23  1  0  0  0
  3  4  1  0  0  0
  4  5  1  0  0  0
  5  6  2  0  0  0
  6  7  1  0  0  0
  7  8  2  0  0  0
  8  9  1  0  0  0
 15 16  1  0  0  0
 16 17  2  0  0  0
 17 18  1  0  0  0
 17 12  1  0  0  0
  9  1  1  0  0  0
 23 19  1  0  0  0
  8  4  1  0  0  0
  9 10  1  0  0  0
M  END
> <minimizedAffinity>
-8.20610

> <CNNscore>
0.8078196645

> <CNNaffinity>
6.9631218910

> <CNN_VS>
5.6249465942

> <CNNaffinity_variance>
0.3873388171

$$$$
[H]c1nc2n(n1)C([H])(c1sc([H])c([H])c1[H])C([H])([H])C([H])(c1c([H])c([H])c(Cl)c(Cl)c1[H])N2[H]


 23 26  0  0  0  0  0  0  0  0999 V2000
  -17.3786   13.3301  -21.3978 C   0  0  0  0  0  0  0  0  0  0  0  0
  -18.8313   13.5311  -21.1388 C   0  0  0  0  0  0  0  0  0  0  0  0
  -19.2237   13.1170  -19.7683 C   0  0  0  0  0  0  0  0  0  0  0  0
  -18.5531   11.9559  -19.2753 N   0  0  0  0  0  0  0  0  0  0  0  0
  -18.7509   11.2553  -18.1776 N   0  0  0  0  0  0  0  0  0  0  0  0
  -17.8911   10.2316  -18.1042 C   0  0  0  0  0  0  0  0  0  0  0  0
  -17.1392   10.3230  -19.2149 N   0  0  0  0  0  0  0  0  0  0  0  0
  -17.5215   11.3733  -19.9560 C   0  0  0  0  0  0  0  0  0  0  0  0
  -17.0858   11.9253  -21.1918 N   0  0  0  0  0  0  0  0  0  0  0  0
  -16.5964   11.3013  -21.8537 H   0  0  0  0  0  0  0  0  0  0  0  0
  -15.6575   15.1597  -26.8419 Cl  0  0  0  0  0  0  0  0  0  0  0  0
  -16.1505   14.6412  -25.2477 C   0  0  0  0  0  0  0  0  0  0  0  0
  -15.7822   15.3786  -24.1468 C   0  0  0  0  0  0  0  0  0  0  0  0
  -16.1917   14.9390  -22.8815 C   0  0  0  0  0  0  0  0  0  0  0  0
  -16.9406   13.8062  -22.7188 C   0  0  0  0  0  0  0  0  0  0  0  0
  -17.2975   13.0842  -23.8358 C   0  0  0  0  0  0  0  0  0  0  0  0
  -16.9051   13.4951  -25.1168 C   0  0  0  0  0  0  0  0  0  0  0  0
  -17.3509   12.5876  -26.5456 Cl  0  0  0  0  0  0  0  0  0  0  0  0
  -19.0600   14.2311  -18.7618 C   0  0  0  0  0  0  0  0  0  0  0  0
  -18.1922   15.2839  -18.8208 C   0  0  0  0  0  0  0  0  0  0  0  0
  -18.2125   16.1623  -17.8119 C   0  0  0  0  0  0  0  0  0  0  0  0
  -19.1063   15.9323  -16.7978 C   0  0  0  0  0  0  0  0  0  0  0  0
  -19.8842   14.4985  -17.2919 S   0  0  0  0  0  0  0  0  0  0  0  0
 11 12  1  0  0  0
 12 13  2  0  0  0
 13 14  1  0  0  0
 14 15  2  0  0  0
 15  1  1  0  0  0
  1  2  1  0  0  0
  2  3  1  0  0  0
  3 19  1  0  0  0
 19 20  2  0  0  0
 20 21  1  0  0  0
 21 22  2  0  0  0
 22 23  1  0  0  0
  3  4  1  0  0  0
  4  5  1  0  0  0
  5  6  2  0  0  0
  6  7  1  0  0  0
  7  8  2  0  0  0
  8  9  1  0  0  0
 15 16  1  0  0  0
 16 17  2  0  0  0
 17 18  1  0  0  0
 17 12  1  0  0  0
  9  1  1  0  0  0
 23 19  1  0  0  0
  8  4  1  0  0  0
  9 10  1  0  0  0
M  END
> <minimizedAffinity>
-7.94924

> <CNNscore>
0.6960296035

> <CNNaffinity>
6.8423066139

> <CNN_VS>
4.7624478340

> <CNNaffinity_variance>
0.4860109389

$$$$
[H]c1nc2n(n1)C([H])(c1sc([H])c([H])c1[H])C([H])([H])C([H])(c1c([H])c([H])c(Cl)c(Cl)c1[H])N2[H]


 23 26  0  0  0  0  0  0  0  0999 V2000
  -18.7764   10.4041  -17.8536 C   0  0  0  0  0  0  0  0  0  0  0  0
  -18.1025   11.6837  -17.4982 C   0  0  0  0  0  0  0  0  0  0  0  0
  -17.4635   12.3308  -18.6715 C   0  0  0  0  0  0  0  0  0  0  0  0
  -16.8630   11.4295  -19.6030 N   0  0  0  0  0  0  0  0  0  0  0  0
  -16.1143   11.6657  -20.6606 N   0  0  0  0  0  0  0  0  0  0  0  0
  -15.7573   10.5212  -21.2569 C   0  0  0  0  0  0  0  0  0  0  0  0
  -16.3209    9.5490  -20.5191 N   0  0  0  0  0  0  0  0  0  0  0  0
  -17.0078   10.0751  -19.4944 C   0  0  0  0  0  0  0  0  0  0  0  0
  -17.7772    9.5271  -18.4317 N   0  0  0  0  0  0  0  0  0  0  0  0
  -17.5792    8.5552  -18.1433 H   0  0  0  0  0  0  0  0  0  0  0  0
  -21.7581    7.9696  -13.2568 Cl  0  0  0  0  0  0  0  0  0  0  0  0
  -20.8793    8.6634  -14.5984 C   0  0  0  0  0  0  0  0  0  0  0  0
  -19.9078    7.9243  -15.2320 C   0  0  0  0  0  0  0  0  0  0  0  0
  -19.2198    8.5062  -16.3044 C   0  0  0  0  0  0  0  0  0  0  0  0
  -19.4895    9.7777  -16.7299 C   0  0  0  0  0  0  0  0  0  0  0  0
  -20.4665   10.4984  -16.0801 C   0  0  0  0  0  0  0  0  0  0  0  0
  -21.1745    9.9474  -15.0036 C   0  0  0  0  0  0  0  0  0  0  0  0
  -22.4188   10.8514  -14.1679 Cl  0  0  0  0  0  0  0  0  0  0  0  0
  -18.4156   13.2331  -19.4202 C   0  0  0  0  0  0  0  0  0  0  0  0
  -19.7741   13.1214  -19.5041 C   0  0  0  0  0  0  0  0  0  0  0  0
  -20.4285   14.0364  -20.2283 C   0  0  0  0  0  0  0  0  0  0  0  0
  -19.6785   15.0146  -20.8290 C   0  0  0  0  0  0  0  0  0  0  0  0
  -18.0884   14.6193  -20.3595 S   0  0  0  0  0  0  0  0  0  0  0  0
 11 12  1  0  0  0
 12 13  2  0  0  0
 13 14  1  0  0  0
 14 15  2  0  0  0
 15  1  1  0  0  0
  1  2  1  0  0  0
  2  3  1  0  0  0
  3 19  1  0  0  0
 19 20  2  0  0  0
 20 21  1  0  0  0
 21 22  2  0  0  0
 22 23  1  0  0  0
  3  4  1  0  0  0
  4  5  1  0  0  0
  5  6  2  0  0  0
  6  7  1  0  0  0
  7  8  2  0  0  0
  8  9  1  0  0  0
 15 16  1  0  0  0
 16 17  2  0  0  0
 17 18  1  0  0  0
 17 12  1  0  0  0
  9  1  1  0  0  0
 23 19  1  0  0  0
  8  4  1  0  0  0
  9 10  1  0  0  0
M  END
> <minimizedAffinity>
-6.22929

> <CNNscore>
0.6218940616

> <CNNaffinity>
6.2355647087

> <CNN_VS>
3.8778605461

> <CNNaffinity_variance>
0.3215412498

$$$$
[H]c1nc2n(n1)C([H])(c1sc([H])c([H])c1[H])C([H])([H])C([H])(c1c([H])c([H])c(Cl)c(Cl)c1[H])N2[H]


 23 26  0  0  0  0  0  0  0  0999 V2000
  -17.5592   13.4014  -21.5224 C   0  0  0  0  0  0  0  0  0  0  0  0
  -18.9937   13.5816  -21.1652 C   0  0  0  0  0  0  0  0  0  0  0  0
  -19.2865   13.1601  -19.7722 C   0  0  0  0  0  0  0  0  0  0  0  0
  -18.5680   12.0078  -19.3286 N   0  0  0  0  0  0  0  0  0  0  0  0
  -18.6813   11.3030  -18.2216 N   0  0  0  0  0  0  0  0  0  0  0  0
  -17.8044   10.2913  -18.2091 C   0  0  0  0  0  0  0  0  0  0  0  0
  -17.1307   10.3949  -19.3678 N   0  0  0  0  0  0  0  0  0  0  0  0
  -17.5769   11.4407  -20.0789 C   0  0  0  0  0  0  0  0  0  0  0  0
  -17.2336   12.0006  -21.3400 N   0  0  0  0  0  0  0  0  0  0  0  0
  -16.7814   11.3845  -22.0350 H   0  0  0  0  0  0  0  0  0  0  0  0
  -16.1727   15.5077  -26.9621 Cl  0  0  0  0  0  0  0  0  0  0  0  0
  -16.5764   14.8764  -25.3834 C   0  0  0  0  0  0  0  0  0  0  0  0
  -16.7140   13.5195  -25.2066 C   0  0  0  0  0  0  0  0  0  0  0  0
  -17.0379   13.0421  -23.9302 C   0  0  0  0  0  0  0  0  0  0  0  0
  -17.2183   13.8856  -22.8688 C   0  0  0  0  0  0  0  0  0  0  0  0
  -17.0752   15.2403  -23.0700 C   0  0  0  0  0  0  0  0  0  0  0  0
  -16.7516   15.7524  -24.3337 C   0  0  0  0  0  0  0  0  0  0  0  0
  -16.5666   17.4718  -24.6044 Cl  0  0  0  0  0  0  0  0  0  0  0  0
  -19.0706   14.2749  -18.7765 C   0  0  0  0  0  0  0  0  0  0  0  0
  -18.2285   15.3436  -18.8946 C   0  0  0  0  0  0  0  0  0  0  0  0
  -18.1917   16.2194  -17.8839 C   0  0  0  0  0  0  0  0  0  0  0  0
  -19.0055   15.9710  -16.8086 C   0  0  0  0  0  0  0  0  0  0  0  0
  -19.7910   14.5242  -17.2500 S   0  0  0  0  0  0  0  0  0  0  0  0
 11 12  1  0  0  0
 12 13  2  0  0  0
 13 14  1  0  0  0
 14 15  2  0  0  0
 15  1  1  0  0  0
  1  2  1  0  0  0
  2  3  1  0  0  0
  3 19  1  0  0  0
 19 20  2  0  0  0
 20 21  1  0  0  0
 21 22  2  0  0  0
 22 23  1  0  0  0
  3  4  1  0  0  0
  4  5  1  0  0  0
  5  6  2  0  0  0
  6  7  1  0  0  0
  7  8  2  0  0  0
  8  9  1  0  0  0
 15 16  1  0  0  0
 16 17  2  0  0  0
 17 18  1  0  0  0
 17 12  1  0  0  0
  9  1  1  0  0  0
 23 19  1  0  0  0
  8  4  1  0  0  0
  9 10  1  0  0  0
M  END
> <minimizedAffinity>
-7.73650

> <CNNscore>
0.5110146999

> <CNNaffinity>
6.6684770584

> <CNN_VS>
3.4076898098

> <CNNaffinity_variance>
0.7317585349

$$$$
[H]c1nc2n(n1)C([H])(c1sc([H])c([H])c1[H])C([H])([H])C([H])(c1c([H])c([H])c(Cl)c(Cl)c1[H])N2[H]


 23 26  0  0  0  0  0  0  0  0999 V2000
  -17.6343   14.5931  -21.7204 C   0  0  0  0  0  0  0  0  0  0  0  0
  -18.0444   14.2464  -23.1095 C   0  0  0  0  0  0  0  0  0  0  0  0
  -17.7986   15.3559  -24.0648 C   0  0  0  0  0  0  0  0  0  0  0  0
  -18.0389   16.6638  -23.5428 N   0  0  0  0  0  0  0  0  0  0  0  0
  -18.0468   17.8362  -24.1432 N   0  0  0  0  0  0  0  0  0  0  0  0
  -18.3222   18.8155  -23.2726 C   0  0  0  0  0  0  0  0  0  0  0  0
  -18.4878   18.1987  -22.0896 N   0  0  0  0  0  0  0  0  0  0  0  0
  -18.3200   16.8748  -22.2224 C   0  0  0  0  0  0  0  0  0  0  0  0
  -18.3769   15.7736  -21.3247 N   0  0  0  0  0  0  0  0  0  0  0  0
  -18.9342   15.8822  -20.4618 H   0  0  0  0  0  0  0  0  0  0  0  0
  -18.1793   10.0038  -17.9007 Cl  0  0  0  0  0  0  0  0  0  0  0  0
  -18.0316   11.3516  -19.0031 C   0  0  0  0  0  0  0  0  0  0  0  0
  -18.6949   12.5264  -18.7360 C   0  0  0  0  0  0  0  0  0  0  0  0
  -18.5580   13.5899  -19.6373 C   0  0  0  0  0  0  0  0  0  0  0  0
  -17.7886   13.4868  -20.7634 C   0  0  0  0  0  0  0  0  0  0  0  0
  -17.1339   12.3007  -21.0097 C   0  0  0  0  0  0  0  0  0  0  0  0
  -17.2485   11.2164  -20.1293 C   0  0  0  0  0  0  0  0  0  0  0  0
  -16.4224    9.7026  -20.4293 Cl  0  0  0  0  0  0  0  0  0  0  0  0
  -16.4045   15.3176  -24.6444 C   0  0  0  0  0  0  0  0  0  0  0  0
  -15.2486   14.9667  -24.0073 C   0  0  0  0  0  0  0  0  0  0  0  0
  -14.1138   15.0047  -24.7148 C   0  0  0  0  0  0  0  0  0  0  0  0
  -14.2050   15.3944  -26.0264 C   0  0  0  0  0  0  0  0  0  0  0  0
  -15.8717   15.6926  -26.2214 S   0  0  0  0  0  0  0  0  0  0  0  0
 11 12  1  0  0  0
 12 13  2  0  0  0
 13 14  1  0  0  0
 14 15  2  0  0  0
 15  1  1  0  0  0
  1  2  1  0  0  0
  2  3  1  0  0  0
  3 19  1  0  0  0
 19 20  2  0  0  0
 20 21  1  0  0  0
 21 22  2  0  0  0
 22 23  1  0  0  0
  3  4  1  0  0  0
  4  5  1  0  0  0
  5  6  2  0  0  0
  6  7  1  0  0  0
  7  8  2  0  0  0
  8  9  1  0  0  0
 15 16  1  0  0  0
 16 17  2  0  0  0
 17 18  1  0  0  0
 17 12  1  0  0  0
  9  1  1  0  0  0
 23 19  1  0  0  0
  8  4  1  0  0  0
  9 10  1  0  0  0
M  END
> <minimizedAffinity>
-8.30645

> <CNNscore>
0.4101690352

> <CNNaffinity>
6.4733023643

> <CNN_VS>
2.6551482677

> <CNNaffinity_variance>
0.3127101362

$$$$
[H]c1nc2n(n1)C([H])(c1sc([H])c([H])c1[H])C([H])([H])C([H])(c1c([H])c([H])c(Cl)c(Cl)c1[H])N2[H]


 23 26  0  0  0  0  0  0  0  0999 V2000
  -18.5220   13.8145  -21.4772 C   0  0  0  0  0  0  0  0  0  0  0  0
  -17.3246   14.5618  -21.9524 C   0  0  0  0  0  0  0  0  0  0  0  0
  -16.3540   13.6858  -22.6555 C   0  0  0  0  0  0  0  0  0  0  0  0
  -16.2191   12.3742  -22.1057 N   0  0  0  0  0  0  0  0  0  0  0  0
  -15.3713   11.4085  -22.3950 N   0  0  0  0  0  0  0  0  0  0  0  0
  -15.5955   10.3326  -21.6302 C   0  0  0  0  0  0  0  0  0  0  0  0
  -16.6307   10.6705  -20.8419 N   0  0  0  0  0  0  0  0  0  0  0  0
  -17.0371   11.9201  -21.1099 C   0  0  0  0  0  0  0  0  0  0  0  0
  -18.0608   12.7614  -20.5941 N   0  0  0  0  0  0  0  0  0  0  0  0
  -18.4055   12.5726  -19.6388 H   0  0  0  0  0  0  0  0  0  0  0  0
  -22.6251   17.4030  -18.9802 Cl  0  0  0  0  0  0  0  0  0  0  0  0
  -21.4365   16.3427  -19.6988 C   0  0  0  0  0  0  0  0  0  0  0  0
  -21.4369   15.0043  -19.3821 C   0  0  0  0  0  0  0  0  0  0  0  0
  -20.4725   14.1782  -19.9734 C   0  0  0  0  0  0  0  0  0  0  0  0
  -19.5418   14.6675  -20.8479 C   0  0  0  0  0  0  0  0  0  0  0  0
  -19.5610   16.0108  -21.1499 C   0  0  0  0  0  0  0  0  0  0  0  0
  -20.5118   16.8661  -20.5768 C   0  0  0  0  0  0  0  0  0  0  0  0
  -20.5484   18.5757  -20.9509 Cl  0  0  0  0  0  0  0  0  0  0  0  0
  -16.6552   13.5609  -24.1302 C   0  0  0  0  0  0  0  0  0  0  0  0
  -17.4700   12.6490  -24.7379 C   0  0  0  0  0  0  0  0  0  0  0  0
  -17.5942   12.7171  -26.0683 C   0  0  0  0  0  0  0  0  0  0  0  0
  -16.8905   13.7008  -26.7144 C   0  0  0  0  0  0  0  0  0  0  0  0
  -16.0825   14.4927  -25.4397 S   0  0  0  0  0  0  0  0  0  0  0  0
 11 12  1  0  0  0
 12 13  2  0  0  0
 13 14  1  0  0  0
 14 15  2  0  0  0
 15  1  1  0  0  0
  1  2  1  0  0  0
  2  3  1  0  0  0
  3 19  1  0  0  0
 19 20  2  0  0  0
 20 21  1  0  0  0
 21 22  2  0  0  0
 22 23  1  0  0  0
  3  4  1  0  0  0
  4  5  1  0  0  0
  5  6  2  0  0  0
  6  7  1  0  0  0
  7  8  2  0  0  0
  8  9  1  0  0  0
 15 16  1  0  0  0
 16 17  2  0  0  0
 17 18  1  0  0  0
 17 12  1  0  0  0
  9  1  1  0  0  0
 23 19  1  0  0  0
  8  4  1  0  0  0
  9 10  1  0  0  0
M  END
> <minimizedAffinity>
-6.86424

> <CNNscore>
0.3235858679

> <CNNaffinity>
6.5391206741

> <CNN_VS>
2.1159670353

> <CNNaffinity_variance>
0.4551568031

$$$$
[H]c1nc2n(n1)C([H])(c1sc([H])c([H])c1[H])C([H])([H])C([H])(c1c([H])c([H])c(Cl)c(Cl)c1[H])N2[H]


 23 26  0  0  0  0  0  0  0  0999 V2000
  -17.5758   14.0893  -21.7415 C   0  0  0  0  0  0  0  0  0  0  0  0
  -17.8846   13.7161  -23.1498 C   0  0  0  0  0  0  0  0  0  0  0  0
  -17.6886   14.8479  -24.0903 C   0  0  0  0  0  0  0  0  0  0  0  0
  -18.0670   16.1273  -23.5796 N   0  0  0  0  0  0  0  0  0  0  0  0
  -18.1467   17.2978  -24.1782 N   0  0  0  0  0  0  0  0  0  0  0  0
  -18.5488   18.2449  -23.3214 C   0  0  0  0  0  0  0  0  0  0  0  0
  -18.7190   17.6096  -22.1489 N   0  0  0  0  0  0  0  0  0  0  0  0
  -18.4307   16.3059  -22.2747 C   0  0  0  0  0  0  0  0  0  0  0  0
  -18.4366   15.1990  -21.3822 N   0  0  0  0  0  0  0  0  0  0  0  0
  -19.0434   15.2543  -20.5481 H   0  0  0  0  0  0  0  0  0  0  0  0
  -18.0950    9.5974  -17.8044 Cl  0  0  0  0  0  0  0  0  0  0  0  0
  -17.9318   10.8963  -18.9619 C   0  0  0  0  0  0  0  0  0  0  0  0
  -17.0984   10.7432  -20.0452 C   0  0  0  0  0  0  0  0  0  0  0  0
  -16.9874   11.8011  -20.9566 C   0  0  0  0  0  0  0  0  0  0  0  0
  -17.6810   12.9686  -20.7947 C   0  0  0  0  0  0  0  0  0  0  0  0
  -18.5094   13.0988  -19.7025 C   0  0  0  0  0  0  0  0  0  0  0  0
  -18.6443   12.0606  -18.7709 C   0  0  0  0  0  0  0  0  0  0  0  0
  -19.6933   12.2117  -17.3777 Cl  0  0  0  0  0  0  0  0  0  0  0  0
  -16.2693   14.9335  -24.5995 C   0  0  0  0  0  0  0  0  0  0  0  0
  -15.1201   14.6907  -23.9028 C   0  0  0  0  0  0  0  0  0  0  0  0
  -13.9591   14.8284  -24.5533 C   0  0  0  0  0  0  0  0  0  0  0  0
  -14.0189   15.2035  -25.8709 C   0  0  0  0  0  0  0  0  0  0  0  0
  -15.6938   15.3494  -26.1510 S   0  0  0  0  0  0  0  0  0  0  0  0
 11 12  1  0  0  0
 12 13  2  0  0  0
 13 14  1  0  0  0
 14 15  2  0  0  0
 15  1  1  0  0  0
  1  2  1  0  0  0
  2  3  1  0  0  0
  3 19  1  0  0  0
 19 20  2  0  0  0
 20 21  1  0  0  0
 21 22  2  0  0  0
 22 23  1  0  0  0
  3  4  1  0  0  0
  4  5  1  0  0  0
  5  6  2  0  0  0
  6  7  1  0  0  0
  7  8  2  0  0  0
  8  9  1  0  0  0
 15 16  1  0  0  0
 16 17  2  0  0  0
 17 18  1  0  0  0
 17 12  1  0  0  0
  9  1  1  0  0  0
 23 19  1  0  0  0
  8  4  1  0  0  0
  9 10  1  0  0  0
M  END
> <minimizedAffinity>
-8.21435

> <CNNscore>
0.2212359011

> <CNNaffinity>
6.1039080620

> <CNN_VS>
1.3504035473

> <CNNaffinity_variance>
0.2615025043

$$$$
[H]c1nc2n(n1)C([H])(c1sc([H])c([H])c1[H])C([H])([H])C([H])(c1c([H])c([H])c(Cl)c(Cl)c1[H])N2[H]


 23 26  0  0  0  0  0  0  0  0999 V2000
  -17.3305   14.5094  -21.8461 C   0  0  0  0  0  0  0  0  0  0  0  0
  -16.8787   15.8040  -21.2651 C   0  0  0  0  0  0  0  0  0  0  0  0
  -16.6736   16.8474  -22.3011 C   0  0  0  0  0  0  0  0  0  0  0  0
  -16.1241   16.3738  -23.5317 N   0  0  0  0  0  0  0  0  0  0  0  0
  -15.7019   17.0342  -24.5903 N   0  0  0  0  0  0  0  0  0  0  0  0
  -15.2567   16.1920  -25.5311 C   0  0  0  0  0  0  0  0  0  0  0  0
  -15.4204   14.9636  -25.0100 N   0  0  0  0  0  0  0  0  0  0  0  0
  -15.9519   15.0415  -23.7812 C   0  0  0  0  0  0  0  0  0  0  0  0
  -16.3269   14.0821  -22.8010 N   0  0  0  0  0  0  0  0  0  0  0  0
  -15.8686   13.1569  -22.8305 H   0  0  0  0  0  0  0  0  0  0  0  0
  -18.4342   10.2128  -17.8125 Cl  0  0  0  0  0  0  0  0  0  0  0  0
  -18.1236   11.4766  -18.9786 C   0  0  0  0  0  0  0  0  0  0  0  0
  -18.7202   12.7064  -18.8262 C   0  0  0  0  0  0  0  0  0  0  0  0
  -18.4528   13.7003  -19.7763 C   0  0  0  0  0  0  0  0  0  0  0  0
  -17.6217   13.4774  -20.8392 C   0  0  0  0  0  0  0  0  0  0  0  0
  -17.0357   12.2383  -20.9710 C   0  0  0  0  0  0  0  0  0  0  0  0
  -17.2810   11.2208  -20.0391 C   0  0  0  0  0  0  0  0  0  0  0  0
  -16.5434    9.6410  -20.1936 Cl  0  0  0  0  0  0  0  0  0  0  0  0
  -17.9388   17.6150  -22.6027 C   0  0  0  0  0  0  0  0  0  0  0  0
  -18.9941   17.2101  -23.3691 C   0  0  0  0  0  0  0  0  0  0  0  0
  -20.0217   18.0557  -23.5068 C   0  0  0  0  0  0  0  0  0  0  0  0
  -19.9304   19.2638  -22.8647 C   0  0  0  0  0  0  0  0  0  0  0  0
  -18.4133   19.1728  -22.0932 S   0  0  0  0  0  0  0  0  0  0  0  0
 11 12  1  0  0  0
 12 13  2  0  0  0
 13 14  1  0  0  0
 14 15  2  0  0  0
 15  1  1  0  0  0
  1  2  1  0  0  0
  2  3  1  0  0  0
  3 19  1  0  0  0
 19 20  2  0  0  0
 20 21  1  0  0  0
 21 22  2  0  0  0
 22 23  1  0  0  0
  3  4  1  0  0  0
  4  5  1  0  0  0
  5  6  2  0  0  0
  6  7  1  0  0  0
  7  8  2  0  0  0
  8  9  1  0  0  0
 15 16  1  0  0  0
 16 17  2  0  0  0
 17 18  1  0  0  0
 17 12  1  0  0  0
  9  1  1  0  0  0
 23 19  1  0  0  0
  8  4  1  0  0  0
  9 10  1  0  0  0
M  END
> <minimizedAffinity>
-7.70988

> <CNNscore>
0.2126211375

> <CNNaffinity>
6.1738204956

> <CNN_VS>
1.3126847744

> <CNNaffinity_variance>
0.1402151883

$$$$
[H]c1nc2n(n1)C([H])(c1sc([H])c([H])c1[H])C([H])([H])C([H])(c1c([H])c([H])c(Cl)c(Cl)c1[H])N2[H]


 23 26  0  0  0  0  0  0  0  0999 V2000
  -18.0695   15.5213  -23.0072 C   0  0  0  0  0  0  0  0  0  0  0  0
  -16.7348   16.1515  -23.2058 C   0  0  0  0  0  0  0  0  0  0  0  0
  -15.7414   15.2047  -23.7721 C   0  0  0  0  0  0  0  0  0  0  0  0
  -15.8457   13.8638  -23.2908 N   0  0  0  0  0  0  0  0  0  0  0  0
  -15.0598   12.8237  -23.4795 N   0  0  0  0  0  0  0  0  0  0  0  0
  -15.5320   11.7471  -22.8385 C   0  0  0  0  0  0  0  0  0  0  0  0
  -16.6587   12.1630  -22.2345 N   0  0  0  0  0  0  0  0  0  0  0  0
  -16.8792   13.4603  -22.4933 C   0  0  0  0  0  0  0  0  0  0  0  0
  -17.8924   14.3866  -22.1226 N   0  0  0  0  0  0  0  0  0  0  0  0
  -18.4293   14.1959  -21.2610 H   0  0  0  0  0  0  0  0  0  0  0  0
  -22.2641   19.3876  -21.1621 Cl  0  0  0  0  0  0  0  0  0  0  0  0
  -21.0421   18.2524  -21.6832 C   0  0  0  0  0  0  0  0  0  0  0  0
  -20.5977   17.2829  -20.8148 C   0  0  0  0  0  0  0  0  0  0  0  0
  -19.6176   16.3867  -21.2600 C   0  0  0  0  0  0  0  0  0  0  0  0
  -19.0992   16.4538  -22.5238 C   0  0  0  0  0  0  0  0  0  0  0  0
  -19.5597   17.4329  -23.3755 C   0  0  0  0  0  0  0  0  0  0  0  0
  -20.5395   18.3461  -22.9633 C   0  0  0  0  0  0  0  0  0  0  0  0
  -21.1344   19.5959  -24.0346 Cl  0  0  0  0  0  0  0  0  0  0  0  0
  -15.7683   15.1777  -25.2819 C   0  0  0  0  0  0  0  0  0  0  0  0
  -16.7108   14.6038  -26.0864 C   0  0  0  0  0  0  0  0  0  0  0  0
  -16.5372   14.6968  -27.4097 C   0  0  0  0  0  0  0  0  0  0  0  0
  -15.4230   15.3634  -27.8509 C   0  0  0  0  0  0  0  0  0  0  0  0
  -14.6606   15.8346  -26.4011 S   0  0  0  0  0  0  0  0  0  0  0  0
 11 12  1  0  0  0
 12 13  2  0  0  0
 13 14  1  0  0  0
 14 15  2  0  0  0
 15  1  1  0  0  0
  1  2  1  0  0  0
  2  3  1  0  0  0
  3 19  1  0  0  0
 19 20  2  0  0  0
 20 21  1  0  0  0
 21 22  2  0  0  0
 22 23  1  0  0  0
  3  4  1  0  0  0
  4  5  1  0  0  0
  5  6  2  0  0  0
  6  7  1  0  0  0
  7  8  2  0  0  0
  8  9  1  0  0  0
 15 16  1  0  0  0
 16 17  2  0  0  0
 17 18  1  0  0  0
 17 12  1  0  0  0
  9  1  1  0  0  0
 23 19  1  0  0  0
  8  4  1  0  0  0
  9 10  1  0  0  0
M  END
> <minimizedAffinity>
-7.14745

> <CNNscore>
0.2121060789

> <CNNaffinity>
6.1617274284

> <CNN_VS>
1.3069398403

> <CNNaffinity_variance>
0.3496122956

$$$$
[H]c1nc([H])c2c(c1[H])c1c([H])nc(N([H])c3nnc(N([H])C([H])([H])C4([H])C([H])([H])N([H])C4([H])[H])c([H])c3[H])nc1n2C1([H])C([H])([H])C([H])([H])C([H])([H])C1([H])[H]


 34 39  0  0  0  0  0  0  0  0999 V2000
  -19.1528    9.5310  -16.4799 C   0  0  0  0  0  0  0  0  0  0  0  0
  -18.2354    9.3661  -17.5021 C   0  0  0  0  0  0  0  0  0  0  0  0
  -18.0580   10.3704  -18.4290 C   0  0  0  0  0  0  0  0  0  0  0  0
  -17.2337   10.4607  -19.5154 C   0  0  0  0  0  0  0  0  0  0  0  0
  -16.2862    9.6258  -20.1034 C   0  0  0  0  0  0  0  0  0  0  0  0
  -15.6405   10.0478  -21.2016 N   0  0  0  0  0  0  0  0  0  0  0  0
  -15.8551   11.2486  -21.7802 C   0  0  0  0  0  0  0  0  0  0  0  0
  -16.7630   12.0720  -21.2331 N   0  0  0  0  0  0  0  0  0  0  0  0
  -17.4345   11.6801  -20.1241 C   0  0  0  0  0  0  0  0  0  0  0  0
  -18.3898   12.3245  -19.3923 N   0  0  0  0  0  0  0  0  0  0  0  0
  -18.7708   11.5474  -18.3728 C   0  0  0  0  0  0  0  0  0  0  0  0
  -19.6771   11.6783  -17.3403 C   0  0  0  0  0  0  0  0  0  0  0  0
  -19.8364   10.6971  -16.4521 N   0  0  0  0  0  0  0  0  0  0  0  0
  -18.9186   13.6420  -19.6631 C   0  0  0  0  0  0  0  0  0  0  0  0
  -18.7896   14.5801  -18.4909 C   0  0  0  0  0  0  0  0  0  0  0  0
  -20.0163   15.4475  -18.4902 C   0  0  0  0  0  0  0  0  0  0  0  0
  -20.9932   14.8684  -19.4644 C   0  0  0  0  0  0  0  0  0  0  0  0
  -20.3580   13.6388  -20.0698 C   0  0  0  0  0  0  0  0  0  0  0  0
  -15.1178   11.6219  -22.9579 N   0  0  0  0  0  0  0  0  0  0  0  0
  -14.4042   10.9589  -23.3300 H   0  0  0  0  0  0  0  0  0  0  0  0
  -15.3378   12.8555  -23.6144 C   0  0  0  0  0  0  0  0  0  0  0  0
  -14.4817   13.9285  -23.5188 C   0  0  0  0  0  0  0  0  0  0  0  0
  -14.7275   15.1248  -24.1760 C   0  0  0  0  0  0  0  0  0  0  0  0
  -15.8614   15.2505  -24.9502 C   0  0  0  0  0  0  0  0  0  0  0  0
  -16.6746   14.1675  -25.0144 N   0  0  0  0  0  0  0  0  0  0  0  0
  -16.4250   13.0341  -24.3810 N   0  0  0  0  0  0  0  0  0  0  0  0
  -16.1756   16.4473  -25.6513 N   0  0  0  0  0  0  0  0  0  0  0  0
  -16.1014   16.4749  -26.6776 H   0  0  0  0  0  0  0  0  0  0  0  0
  -16.5987   17.6234  -24.9254 C   0  0  0  0  0  0  0  0  0  0  0  0
  -17.5875   17.2810  -23.8323 C   0  0  0  0  0  0  0  0  0  0  0  0
  -17.0096   17.5124  -22.4539 C   0  0  0  0  0  0  0  0  0  0  0  0
  -18.2669   18.1340  -22.0440 N   0  0  0  0  0  0  0  0  0  0  0  0
  -18.5176   18.4079  -23.4594 C   0  0  0  0  0  0  0  0  0  0  0  0
  -18.0852   19.0458  -21.5500 H   0  0  0  0  0  0  0  0  0  0  0  0
  1  2  2  0  0  0
  2  3  1  0  0  0
  3  4  1  0  0  0
  4  5  2  0  0  0
  5  6  1  0  0  0
  6  7  2  0  0  0
  7 19  1  0  0  0
 19 21  1  0  0  0
 21 22  2  0  0  0
 22 23  1  0  0  0
 23 24  2  0  0  0
 24 27  1  0  0  0
 27 29  1  0  0  0
 29 30  1  0  0  0
 30 31  1  0  0  0
 31 32  1  0  0  0
 32 33  1  0  0  0
 24 25  1  0  0  0
 25 26  2  0  0  0
  7  8  1  0  0  0
  8  9  2  0  0  0
  9 10  1  0  0  0
 10 14  1  0  0  0
 14 15  1  0  0  0
 15 16  1  0  0  0
 16 17  1  0  0  0
 17 18  1  0  0  0
 10 11  1  0  0  0
 11 12  1  0  0  0
 12 13  2  0  0  0
 13  1  1  0  0  0
 11  3  2  0  0  0
  9  4  1  0  0  0
 18 14  1  0  0  0
 26 21  1  0  0  0
 33 30  1  0  0  0
 19 20  1  0  0  0
 27 28  1  0  0  0
 32 34  1  0  0  0
M  END
> <minimizedAffinity>
-8.89737

> <CNNscore>
0.9322297573

> <CNNaffinity>
7.8552274704

> <CNN_VS>
7.3228769302

> <CNNaffinity_variance>
0.0293303672

$$$$
[H]c1nc([H])c2c(c1[H])c1c([H])nc(N([H])c3nnc(N([H])C([H])([H])C4([H])C([H])([H])N([H])C4([H])[H])c([H])c3[H])nc1n2C1([H])C([H])([H])C([H])([H])C([H])([H])C1([H])[H]


 34 39  0  0  0  0  0  0  0  0999 V2000
  -16.6212   14.4389  -24.8534 C   0  0  0  0  0  0  0  0  0  0  0  0
  -16.3359   13.3397  -24.0634 C   0  0  0  0  0  0  0  0  0  0  0  0
  -16.9515   13.2012  -22.8383 C   0  0  0  0  0  0  0  0  0  0  0  0
  -16.8495   12.2305  -21.8815 C   0  0  0  0  0  0  0  0  0  0  0  0
  -16.1245   11.0480  -21.7534 C   0  0  0  0  0  0  0  0  0  0  0  0
  -16.2720   10.3127  -20.6404 N   0  0  0  0  0  0  0  0  0  0  0  0
  -17.0912   10.6528  -19.6225 C   0  0  0  0  0  0  0  0  0  0  0  0
  -17.8010   11.7877  -19.7212 N   0  0  0  0  0  0  0  0  0  0  0  0
  -17.6780   12.5557  -20.8301 C   0  0  0  0  0  0  0  0  0  0  0  0
  -18.2812   13.7340  -21.1635 N   0  0  0  0  0  0  0  0  0  0  0  0
  -17.8523   14.1301  -22.3667 C   0  0  0  0  0  0  0  0  0  0  0  0
  -18.1134   15.2136  -23.1804 C   0  0  0  0  0  0  0  0  0  0  0  0
  -17.5093   15.3324  -24.3627 N   0  0  0  0  0  0  0  0  0  0  0  0
  -19.2371   14.4549  -20.3540 C   0  0  0  0  0  0  0  0  0  0  0  0
  -18.6787   14.8757  -19.0191 C   0  0  0  0  0  0  0  0  0  0  0  0
  -19.7971   14.7588  -18.0228 C   0  0  0  0  0  0  0  0  0  0  0  0
  -20.9240   14.0227  -18.6763 C   0  0  0  0  0  0  0  0  0  0  0  0
  -20.4939   13.6898  -20.0856 C   0  0  0  0  0  0  0  0  0  0  0  0
  -17.1893    9.8055  -18.4639 N   0  0  0  0  0  0  0  0  0  0  0  0
  -16.3942    9.1675  -18.2444 H   0  0  0  0  0  0  0  0  0  0  0  0
  -18.3285    9.8194  -17.6254 C   0  0  0  0  0  0  0  0  0  0  0  0
  -19.1412   10.9187  -17.4688 C   0  0  0  0  0  0  0  0  0  0  0  0
  -20.2515   10.8986  -16.6379 C   0  0  0  0  0  0  0  0  0  0  0  0
  -20.5567    9.7465  -15.9448 C   0  0  0  0  0  0  0  0  0  0  0  0
  -19.7278    8.6898  -16.1307 N   0  0  0  0  0  0  0  0  0  0  0  0
  -18.6730    8.7262  -16.9271 N   0  0  0  0  0  0  0  0  0  0  0  0
  -21.6791    9.6555  -15.0762 N   0  0  0  0  0  0  0  0  0  0  0  0
  -22.6224    9.5304  -15.4688 H   0  0  0  0  0  0  0  0  0  0  0  0
  -21.4972    9.7380  -13.6447 C   0  0  0  0  0  0  0  0  0  0  0  0
  -22.3482   10.8302  -13.0342 C   0  0  0  0  0  0  0  0  0  0  0  0
  -21.5675   11.6721  -12.0497 C   0  0  0  0  0  0  0  0  0  0  0  0
  -22.1692   12.8755  -12.6196 N   0  0  0  0  0  0  0  0  0  0  0  0
  -22.3996   12.1031  -13.8410 C   0  0  0  0  0  0  0  0  0  0  0  0
  -21.4320   13.6019  -12.8129 H   0  0  0  0  0  0  0  0  0  0  0  0
  1  2  2  0  0  0
  2  3  1  0  0  0
  3  4  1  0  0  0
  4  5  2  0  0  0
  5  6  1  0  0  0
  6  7  2  0  0  0
  7 19  1  0  0  0
 19 21  1  0  0  0
 21 22  2  0  0  0
 22 23  1  0  0  0
 23 24  2  0  0  0
 24 27  1  0  0  0
 27 29  1  0  0  0
 29 30  1  0  0  0
 30 31  1  0  0  0
 31 32  1  0  0  0
 32 33  1  0  0  0
 24 25  1  0  0  0
 25 26  2  0  0  0
  7  8  1  0  0  0
  8  9  2  0  0  0
  9 10  1  0  0  0
 10 14  1  0  0  0
 14 15  1  0  0  0
 15 16  1  0  0  0
 16 17  1  0  0  0
 17 18  1  0  0  0
 10 11  1  0  0  0
 11 12  1  0  0  0
 12 13  2  0  0  0
 13  1  1  0  0  0
 11  3  2  0  0  0
  9  4  1  0  0  0
 18 14  1  0  0  0
 26 21  1  0  0  0
 33 30  1  0  0  0
 19 20  1  0  0  0
 27 28  1  0  0  0
 32 34  1  0  0  0
M  END
> <minimizedAffinity>
-8.35022

> <CNNscore>
0.8944908381

> <CNNaffinity>
7.4126205444

> <CNN_VS>
6.6305212975

> <CNNaffinity_variance>
0.1356834173

$$$$
[H]c1nc([H])c2c(c1[H])c1c([H])nc(N([H])c3nnc(N([H])C([H])([H])C4([H])C([H])([H])N([H])C4([H])[H])c([H])c3[H])nc1n2C1([H])C([H])([H])C([H])([H])C([H])([H])C1([H])[H]


 34 39  0  0  0  0  0  0  0  0999 V2000
  -21.9450   11.7481  -14.4768 C   0  0  0  0  0  0  0  0  0  0  0  0
  -21.0381   10.9639  -15.1667 C   0  0  0  0  0  0  0  0  0  0  0  0
  -20.3756   11.4849  -16.2571 C   0  0  0  0  0  0  0  0  0  0  0  0
  -19.4485   10.9350  -17.0973 C   0  0  0  0  0  0  0  0  0  0  0  0
  -18.8242    9.6936  -17.1962 C   0  0  0  0  0  0  0  0  0  0  0  0
  -17.9329    9.4909  -18.1788 N   0  0  0  0  0  0  0  0  0  0  0  0
  -17.5988   10.4289  -19.0905 C   0  0  0  0  0  0  0  0  0  0  0  0
  -18.1860   11.6336  -19.0173 N   0  0  0  0  0  0  0  0  0  0  0  0
  -19.0909   11.8749  -18.0388 C   0  0  0  0  0  0  0  0  0  0  0  0
  -19.8131   12.9984  -17.7569 N   0  0  0  0  0  0  0  0  0  0  0  0
  -20.5872   12.7751  -16.6895 C   0  0  0  0  0  0  0  0  0  0  0  0
  -21.4983   13.5291  -15.9783 C   0  0  0  0  0  0  0  0  0  0  0  0
  -22.1306   13.0098  -14.9258 N   0  0  0  0  0  0  0  0  0  0  0  0
  -19.7613   14.2441  -18.4879 C   0  0  0  0  0  0  0  0  0  0  0  0
  -20.2528   14.1146  -19.9066 C   0  0  0  0  0  0  0  0  0  0  0  0
  -19.4020   15.0241  -20.7469 C   0  0  0  0  0  0  0  0  0  0  0  0
  -18.2474   15.4803  -19.9117 C   0  0  0  0  0  0  0  0  0  0  0  0
  -18.3944   14.8484  -18.5475 C   0  0  0  0  0  0  0  0  0  0  0  0
  -16.6320   10.1269  -20.1123 N   0  0  0  0  0  0  0  0  0  0  0  0
  -16.0915    9.2381  -20.0399 H   0  0  0  0  0  0  0  0  0  0  0  0
  -16.4016   11.0003  -21.2011 C   0  0  0  0  0  0  0  0  0  0  0  0
  -17.2699   12.0039  -21.5648 C   0  0  0  0  0  0  0  0  0  0  0  0
  -17.0134   12.8433  -22.6386 C   0  0  0  0  0  0  0  0  0  0  0  0
  -15.8561   12.6734  -23.3685 C   0  0  0  0  0  0  0  0  0  0  0  0
  -15.0317   11.6723  -22.9731 N   0  0  0  0  0  0  0  0  0  0  0  0
  -15.2917   10.8809  -21.9463 N   0  0  0  0  0  0  0  0  0  0  0  0
  -15.5299   13.4973  -24.4808 N   0  0  0  0  0  0  0  0  0  0  0  0
  -14.5478   13.7442  -24.6655 H   0  0  0  0  0  0  0  0  0  0  0  0
  -16.5743   13.9875  -25.3515 C   0  0  0  0  0  0  0  0  0  0  0  0
  -16.2415   15.3536  -25.9110 C   0  0  0  0  0  0  0  0  0  0  0  0
  -15.7387   16.2962  -24.8405 C   0  0  0  0  0  0  0  0  0  0  0  0
  -14.6889   16.7503  -25.7499 N   0  0  0  0  0  0  0  0  0  0  0  0
  -14.8412   15.4780  -26.4567 C   0  0  0  0  0  0  0  0  0  0  0  0
  -13.7553   16.7572  -25.2633 H   0  0  0  0  0  0  0  0  0  0  0  0
  1  2  2  0  0  0
  2  3  1  0  0  0
  3  4  1  0  0  0
  4  5  2  0  0  0
  5  6  1  0  0  0
  6  7  2  0  0  0
  7 19  1  0  0  0
 19 21  1  0  0  0
 21 22  2  0  0  0
 22 23  1  0  0  0
 23 24  2  0  0  0
 24 27  1  0  0  0
 27 29  1  0  0  0
 29 30  1  0  0  0
 30 31  1  0  0  0
 31 32  1  0  0  0
 32 33  1  0  0  0
 24 25  1  0  0  0
 25 26  2  0  0  0
  7  8  1  0  0  0
  8  9  2  0  0  0
  9 10  1  0  0  0
 10 14  1  0  0  0
 14 15  1  0  0  0
 15 16  1  0  0  0
 16 17  1  0  0  0
 17 18  1  0  0  0
 10 11  1  0  0  0
 11 12  1  0  0  0
 12 13  2  0  0  0
 13  1  1  0  0  0
 11  3  2  0  0  0
  9  4  1  0  0  0
 18 14  1  0  0  0
 26 21  1  0  0  0
 33 30  1  0  0  0
 19 20  1  0  0  0
 27 28  1  0  0  0
 32 34  1  0  0  0
M  END
> <minimizedAffinity>
-9.25212

> <CNNscore>
0.8675904274

> <CNNaffinity>
7.5601530075

> <CNN_VS>
6.5591163635

> <CNNaffinity_variance>
0.0970394686

$$$$
[H]c1nc([H])c2c(c1[H])c1c([H])nc(N([H])c3nnc(N([H])C([H])([H])C4([H])C([H])([H])N([H])C4([H])[H])c([H])c3[H])nc1n2C1([H])C([H])([H])C([H])([H])C([H])([H])C1([H])[H]


 34 39  0  0  0  0  0  0  0  0999 V2000
  -17.0134   14.4540  -24.1236 C   0  0  0  0  0  0  0  0  0  0  0  0
  -16.7661   13.3008  -23.4006 C   0  0  0  0  0  0  0  0  0  0  0  0
  -17.3172   13.1498  -22.1466 C   0  0  0  0  0  0  0  0  0  0  0  0
  -17.2327   12.1301  -21.2404 C   0  0  0  0  0  0  0  0  0  0  0  0
  -16.5931   10.8931  -21.2083 C   0  0  0  0  0  0  0  0  0  0  0  0
  -16.7300   10.1188  -20.1207 N   0  0  0  0  0  0  0  0  0  0  0  0
  -17.4598   10.4693  -19.0403 C   0  0  0  0  0  0  0  0  0  0  0  0
  -18.0863   11.6563  -19.0460 N   0  0  0  0  0  0  0  0  0  0  0  0
  -17.9710   12.4648  -20.1265 C   0  0  0  0  0  0  0  0  0  0  0  0
  -18.5019   13.6984  -20.3711 N   0  0  0  0  0  0  0  0  0  0  0  0
  -18.1158   14.1186  -21.5806 C   0  0  0  0  0  0  0  0  0  0  0  0
  -18.3416   15.2556  -22.3294 C   0  0  0  0  0  0  0  0  0  0  0  0
  -17.8008   15.3857  -23.5408 N   0  0  0  0  0  0  0  0  0  0  0  0
  -19.3511   14.4480  -19.4736 C   0  0  0  0  0  0  0  0  0  0  0  0
  -18.7631   14.5971  -18.0942 C   0  0  0  0  0  0  0  0  0  0  0  0
  -19.9073   14.5276  -17.1231 C   0  0  0  0  0  0  0  0  0  0  0  0
  -21.1206   14.0699  -17.8695 C   0  0  0  0  0  0  0  0  0  0  0  0
  -20.7173   13.8614  -19.3102 C   0  0  0  0  0  0  0  0  0  0  0  0
  -17.5533    9.5775  -17.9151 N   0  0  0  0  0  0  0  0  0  0  0  0
  -16.7235    8.9956  -17.6701 H   0  0  0  0  0  0  0  0  0  0  0  0
  -18.7339    9.4746  -17.1426 C   0  0  0  0  0  0  0  0  0  0  0  0
  -19.5630   10.5408  -16.8793 C   0  0  0  0  0  0  0  0  0  0  0  0
  -20.7140   10.4052  -16.1175 C   0  0  0  0  0  0  0  0  0  0  0  0
  -21.0441    9.1685  -15.6051 C   0  0  0  0  0  0  0  0  0  0  0  0
  -20.1978    8.1485  -15.8908 N   0  0  0  0  0  0  0  0  0  0  0  0
  -19.1041    8.2955  -16.6191 N   0  0  0  0  0  0  0  0  0  0  0  0
  -22.2086    8.9575  -14.8164 N   0  0  0  0  0  0  0  0  0  0  0  0
  -22.8990    8.2491  -15.1007 H   0  0  0  0  0  0  0  0  0  0  0  0
  -22.4233    9.7356  -13.6173 C   0  0  0  0  0  0  0  0  0  0  0  0
  -22.2416    8.9009  -12.3683 C   0  0  0  0  0  0  0  0  0  0  0  0
  -22.3483    7.4201  -12.6570 C   0  0  0  0  0  0  0  0  0  0  0  0
  -21.1880    7.1816  -11.8014 N   0  0  0  0  0  0  0  0  0  0  0  0
  -20.8061    8.5736  -12.0421 C   0  0  0  0  0  0  0  0  0  0  0  0
  -20.4953    6.5526  -12.2841 H   0  0  0  0  0  0  0  0  0  0  0  0
  1  2  2  0  0  0
  2  3  1  0  0  0
  3  4  1  0  0  0
  4  5  2  0  0  0
  5  6  1  0  0  0
  6  7  2  0  0  0
  7 19  1  0  0  0
 19 21  1  0  0  0
 21 22  2  0  0  0
 22 23  1  0  0  0
 23 24  2  0  0  0
 24 27  1  0  0  0
 27 29  1  0  0  0
 29 30  1  0  0  0
 30 31  1  0  0  0
 31 32  1  0  0  0
 32 33  1  0  0  0
 24 25  1  0  0  0
 25 26  2  0  0  0
  7  8  1  0  0  0
  8  9  2  0  0  0
  9 10  1  0  0  0
 10 14  1  0  0  0
 14 15  1  0  0  0
 15 16  1  0  0  0
 16 17  1  0  0  0
 17 18  1  0  0  0
 10 11  1  0  0  0
 11 12  1  0  0  0
 12 13  2  0  0  0
 13  1  1  0  0  0
 11  3  2  0  0  0
  9  4  1  0  0  0
 18 14  1  0  0  0
 26 21  1  0  0  0
 33 30  1  0  0  0
 19 20  1  0  0  0
 27 28  1  0  0  0
 32 34  1  0  0  0
M  END
> <minimizedAffinity>
-7.92663

> <CNNscore>
0.7975652814

> <CNNaffinity>
7.1894292831

> <CNN_VS>
5.7340393066

> <CNNaffinity_variance>
0.2274456322

$$$$
[H]c1nc([H])c2c(c1[H])c1c([H])nc(N([H])c3nnc(N([H])C([H])([H])C4([H])C([H])([H])N([H])C4([H])[H])c([H])c3[H])nc1n2C1([H])C([H])([H])C([H])([H])C([H])([H])C1([H])[H]


 34 39  0  0  0  0  0  0  0  0999 V2000
  -17.9364   15.8168  -24.1811 C   0  0  0  0  0  0  0  0  0  0  0  0
  -17.5082   14.6017  -23.6772 C   0  0  0  0  0  0  0  0  0  0  0  0
  -17.8851   14.2177  -22.4085 C   0  0  0  0  0  0  0  0  0  0  0  0
  -17.6061   13.0915  -21.6861 C   0  0  0  0  0  0  0  0  0  0  0  0
  -16.8690   11.9322  -21.9169 C   0  0  0  0  0  0  0  0  0  0  0  0
  -16.8063   10.9995  -20.9540 N   0  0  0  0  0  0  0  0  0  0  0  0
  -17.4221   11.1166  -19.7583 C   0  0  0  0  0  0  0  0  0  0  0  0
  -18.1388   12.2241  -19.5108 N   0  0  0  0  0  0  0  0  0  0  0  0
  -18.2249   13.1873  -20.4591 C   0  0  0  0  0  0  0  0  0  0  0  0
  -18.8805   14.3846  -20.4494 N   0  0  0  0  0  0  0  0  0  0  0  0
  -18.6832   15.0109  -21.6145 C   0  0  0  0  0  0  0  0  0  0  0  0
  -19.0920   16.2159  -22.1485 C   0  0  0  0  0  0  0  0  0  0  0  0
  -18.7184   16.5722  -23.3775 N   0  0  0  0  0  0  0  0  0  0  0  0
  -19.6697   14.9092  -19.3583 C   0  0  0  0  0  0  0  0  0  0  0  0
  -18.8865   15.0458  -18.0782 C   0  0  0  0  0  0  0  0  0  0  0  0
  -19.8261   14.7104  -16.9549 C   0  0  0  0  0  0  0  0  0  0  0  0
  -21.0642   14.1164  -17.5488 C   0  0  0  0  0  0  0  0  0  0  0  0
  -20.8833   14.0917  -19.0484 C   0  0  0  0  0  0  0  0  0  0  0  0
  -17.3023   10.0672  -18.7814 N   0  0  0  0  0  0  0  0  0  0  0  0
  -16.4461    9.4721  -18.7917 H   0  0  0  0  0  0  0  0  0  0  0  0
  -18.3101    9.8281  -17.8178 C   0  0  0  0  0  0  0  0  0  0  0  0
  -19.2266   10.7775  -17.4278 C   0  0  0  0  0  0  0  0  0  0  0  0
  -20.2026   10.5098  -16.4795 C   0  0  0  0  0  0  0  0  0  0  0  0
  -20.2628    9.2576  -15.9058 C   0  0  0  0  0  0  0  0  0  0  0  0
  -19.3398    8.3556  -16.3212 N   0  0  0  0  0  0  0  0  0  0  0  0
  -18.4157    8.6277  -17.2269 N   0  0  0  0  0  0  0  0  0  0  0  0
  -21.2367    8.9144  -14.9279 N   0  0  0  0  0  0  0  0  0  0  0  0
  -21.9977    8.2642  -15.1682 H   0  0  0  0  0  0  0  0  0  0  0  0
  -21.1592    9.4765  -13.5985 C   0  0  0  0  0  0  0  0  0  0  0  0
  -19.7361    9.5049  -13.0848 C   0  0  0  0  0  0  0  0  0  0  0  0
  -19.3973   10.8256  -12.4303 C   0  0  0  0  0  0  0  0  0  0  0  0
  -18.7355   10.1047  -11.3452 N   0  0  0  0  0  0  0  0  0  0  0  0
  -19.5660    8.9509  -11.6927 C   0  0  0  0  0  0  0  0  0  0  0  0
  -19.0467   10.4760  -10.4104 H   0  0  0  0  0  0  0  0  0  0  0  0
  1  2  2  0  0  0
  2  3  1  0  0  0
  3  4  1  0  0  0
  4  5  2  0  0  0
  5  6  1  0  0  0
  6  7  2  0  0  0
  7 19  1  0  0  0
 19 21  1  0  0  0
 21 22  2  0  0  0
 22 23  1  0  0  0
 23 24  2  0  0  0
 24 27  1  0  0  0
 27 29  1  0  0  0
 29 30  1  0  0  0
 30 31  1  0  0  0
 31 32  1  0  0  0
 32 33  1  0  0  0
 24 25  1  0  0  0
 25 26  2  0  0  0
  7  8  1  0  0  0
  8  9  2  0  0  0
  9 10  1  0  0  0
 10 14  1  0  0  0
 14 15  1  0  0  0
 15 16  1  0  0  0
 16 17  1  0  0  0
 17 18  1  0  0  0
 10 11  1  0  0  0
 11 12  1  0  0  0
 12 13  2  0  0  0
 13  1  1  0  0  0
 11  3  2  0  0  0
  9  4  1  0  0  0
 18 14  1  0  0  0
 26 21  1  0  0  0
 33 30  1  0  0  0
 19 20  1  0  0  0
 27 28  1  0  0  0
 32 34  1  0  0  0
M  END
> <minimizedAffinity>
-8.36618

> <CNNscore>
0.7397651672

> <CNNaffinity>
7.2058763504

> <CNN_VS>
5.3306565285

> <CNNaffinity_variance>
0.2658280730

$$$$
[H]c1nc([H])c2c(c1[H])c1c([H])nc(N([H])c3nnc(N([H])C([H])([H])C4([H])C([H])([H])N([H])C4([H])[H])c([H])c3[H])nc1n2C1([H])C([H])([H])C([H])([H])C([H])([H])C1([H])[H]


 34 39  0  0  0  0  0  0  0  0999 V2000
  -19.0622    9.0150  -16.2151 C   0  0  0  0  0  0  0  0  0  0  0  0
  -18.3294    9.2050  -17.3729 C   0  0  0  0  0  0  0  0  0  0  0  0
  -18.4676   10.3775  -18.0837 C   0  0  0  0  0  0  0  0  0  0  0  0
  -17.8735   10.8096  -19.2362 C   0  0  0  0  0  0  0  0  0  0  0  0
  -16.9372   10.2775  -20.1197 C   0  0  0  0  0  0  0  0  0  0  0  0
  -16.5667   11.0010  -21.1875 N   0  0  0  0  0  0  0  0  0  0  0  0
  -17.0521   12.2304  -21.4627 C   0  0  0  0  0  0  0  0  0  0  0  0
  -17.9556   12.7660  -20.6270 N   0  0  0  0  0  0  0  0  0  0  0  0
  -18.3535   12.0650  -19.5385 C   0  0  0  0  0  0  0  0  0  0  0  0
  -19.2443   12.3853  -18.5550 N   0  0  0  0  0  0  0  0  0  0  0  0
  -19.3202   11.3795  -17.6769 C   0  0  0  0  0  0  0  0  0  0  0  0
  -20.0355   11.1567  -16.5179 C   0  0  0  0  0  0  0  0  0  0  0  0
  -19.8900   10.0168  -15.8423 N   0  0  0  0  0  0  0  0  0  0  0  0
  -19.9969   13.6156  -18.4619 C   0  0  0  0  0  0  0  0  0  0  0  0
  -20.8578   13.8717  -19.6719 C   0  0  0  0  0  0  0  0  0  0  0  0
  -20.8429   15.3549  -19.9109 C   0  0  0  0  0  0  0  0  0  0  0  0
  -19.7811   15.9529  -19.0429 C   0  0  0  0  0  0  0  0  0  0  0  0
  -19.1432   14.8275  -18.2627 C   0  0  0  0  0  0  0  0  0  0  0  0
  -16.5997   12.9377  -22.6311 N   0  0  0  0  0  0  0  0  0  0  0  0
  -16.0285   12.4227  -23.3353 H   0  0  0  0  0  0  0  0  0  0  0  0
  -16.9099   14.3016  -22.8426 C   0  0  0  0  0  0  0  0  0  0  0  0
  -16.1746   15.3372  -22.3132 C   0  0  0  0  0  0  0  0  0  0  0  0
  -16.5066   16.6645  -22.5404 C   0  0  0  0  0  0  0  0  0  0  0  0
  -17.6046   16.9634  -23.3188 C   0  0  0  0  0  0  0  0  0  0  0  0
  -18.2978   15.9108  -23.8185 N   0  0  0  0  0  0  0  0  0  0  0  0
  -17.9673   14.6508  -23.5919 N   0  0  0  0  0  0  0  0  0  0  0  0
  -18.0021   18.3011  -23.5926 N   0  0  0  0  0  0  0  0  0  0  0  0
  -17.5967   18.8024  -24.3950 H   0  0  0  0  0  0  0  0  0  0  0  0
  -18.9737   18.9567  -22.7468 C   0  0  0  0  0  0  0  0  0  0  0  0
  -18.3096   19.7559  -21.6466 C   0  0  0  0  0  0  0  0  0  0  0  0
  -19.0098   21.0742  -21.4036 C   0  0  0  0  0  0  0  0  0  0  0  0
  -18.9022   20.8524  -19.9633 N   0  0  0  0  0  0  0  0  0  0  0  0
  -18.7927   19.4231  -20.2575 C   0  0  0  0  0  0  0  0  0  0  0  0
  -19.8263   21.0307  -19.4913 H   0  0  0  0  0  0  0  0  0  0  0  0
  1  2  2  0  0  0
  2  3  1  0  0  0
  3  4  1  0  0  0
  4  5  2  0  0  0
  5  6  1  0  0  0
  6  7  2  0  0  0
  7 19  1  0  0  0
 19 21  1  0  0  0
 21 22  2  0  0  0
 22 23  1  0  0  0
 23 24  2  0  0  0
 24 27  1  0  0  0
 27 29  1  0  0  0
 29 30  1  0  0  0
 30 31  1  0  0  0
 31 32  1  0  0  0
 32 33  1  0  0  0
 24 25  1  0  0  0
 25 26  2  0  0  0
  7  8  1  0  0  0
  8  9  2  0  0  0
  9 10  1  0  0  0
 10 14  1  0  0  0
 14 15  1  0  0  0
 15 16  1  0  0  0
 16 17  1  0  0  0
 17 18  1  0  0  0
 10 11  1  0  0  0
 11 12  1  0  0  0
 12 13  2  0  0  0
 13  1  1  0  0  0
 11  3  2  0  0  0
  9  4  1  0  0  0
 18 14  1  0  0  0
 26 21  1  0  0  0
 33 30  1  0  0  0
 19 20  1  0  0  0
 27 28  1  0  0  0
 32 34  1  0  0  0
M  END
> <minimizedAffinity>
-8.27050

> <CNNscore>
0.5956890583

> <CNNaffinity>
7.3817238808

> <CNN_VS>
4.3972120285

> <CNNaffinity_variance>
0.2877185047

$$$$
[H]c1nc([H])c2c(c1[H])c1c([H])nc(N([H])c3nnc(N([H])C([H])([H])C4([H])C([H])([H])N([H])C4([H])[H])c([H])c3[H])nc1n2C1([H])C([H])([H])C([H])([H])C([H])([H])C1([H])[H]


 34 39  0  0  0  0  0  0  0  0999 V2000
  -17.7769   15.7202  -23.8855 C   0  0  0  0  0  0  0  0  0  0  0  0
  -17.5390   14.4459  -23.4026 C   0  0  0  0  0  0  0  0  0  0  0  0
  -17.7479   14.1713  -22.0684 C   0  0  0  0  0  0  0  0  0  0  0  0
  -17.5928   13.0197  -21.3489 C   0  0  0  0  0  0  0  0  0  0  0  0
  -17.1836   11.7217  -21.6460 C   0  0  0  0  0  0  0  0  0  0  0  0
  -17.1485   10.8101  -20.6618 N   0  0  0  0  0  0  0  0  0  0  0  0
  -17.4901   11.0766  -19.3831 C   0  0  0  0  0  0  0  0  0  0  0  0
  -17.8879   12.3198  -19.0705 N   0  0  0  0  0  0  0  0  0  0  0  0
  -17.9360   13.2666  -20.0378 C   0  0  0  0  0  0  0  0  0  0  0  0
  -18.2999   14.5807  -19.9745 N   0  0  0  0  0  0  0  0  0  0  0  0
  -18.1907   15.1329  -21.1876 C   0  0  0  0  0  0  0  0  0  0  0  0
  -18.4178   16.3928  -21.7031 C   0  0  0  0  0  0  0  0  0  0  0  0
  -18.2108   16.6416  -22.9963 N   0  0  0  0  0  0  0  0  0  0  0  0
  -18.7377   15.2821  -18.7892 C   0  0  0  0  0  0  0  0  0  0  0  0
  -20.2175   15.5672  -18.7871 C   0  0  0  0  0  0  0  0  0  0  0  0
  -20.4014   16.9097  -18.1383 C   0  0  0  0  0  0  0  0  0  0  0  0
  -19.0544   17.5468  -18.0030 C   0  0  0  0  0  0  0  0  0  0  0  0
  -18.0367   16.5850  -18.5697 C   0  0  0  0  0  0  0  0  0  0  0  0
  -17.4233   10.0386  -18.3891 N   0  0  0  0  0  0  0  0  0  0  0  0
  -16.5690    9.4419  -18.3484 H   0  0  0  0  0  0  0  0  0  0  0  0
  -18.4799    9.8127  -17.4760 C   0  0  0  0  0  0  0  0  0  0  0  0
  -18.5336    8.7269  -16.6324 C   0  0  0  0  0  0  0  0  0  0  0  0
  -19.5851    8.5353  -15.7485 C   0  0  0  0  0  0  0  0  0  0  0  0
  -20.6109    9.4556  -15.7080 C   0  0  0  0  0  0  0  0  0  0  0  0
  -20.5145   10.5083  -16.5571 N   0  0  0  0  0  0  0  0  0  0  0  0
  -19.5045   10.6756  -17.3937 N   0  0  0  0  0  0  0  0  0  0  0  0
  -21.7191    9.3219  -14.8269 N   0  0  0  0  0  0  0  0  0  0  0  0
  -21.9046    8.4185  -14.3697 H   0  0  0  0  0  0  0  0  0  0  0  0
  -22.5842   10.4516  -14.5727 C   0  0  0  0  0  0  0  0  0  0  0  0
  -21.9881   11.3943  -13.5500 C   0  0  0  0  0  0  0  0  0  0  0  0
  -22.0815   12.8384  -13.9896 C   0  0  0  0  0  0  0  0  0  0  0  0
  -22.5026   13.2096  -12.6405 N   0  0  0  0  0  0  0  0  0  0  0  0
  -22.9464   11.8257  -12.4685 C   0  0  0  0  0  0  0  0  0  0  0  0
  -23.3494   13.8343  -12.6758 H   0  0  0  0  0  0  0  0  0  0  0  0
  1  2  2  0  0  0
  2  3  1  0  0  0
  3  4  1  0  0  0
  4  5  2  0  0  0
  5  6  1  0  0  0
  6  7  2  0  0  0
  7 19  1  0  0  0
 19 21  1  0  0  0
 21 22  2  0  0  0
 22 23  1  0  0  0
 23 24  2  0  0  0
 24 27  1  0  0  0
 27 29  1  0  0  0
 29 30  1  0  0  0
 30 31  1  0  0  0
 31 32  1  0  0  0
 32 33  1  0  0  0
 24 25  1  0  0  0
 25 26  2  0  0  0
  7  8  1  0  0  0
  8  9  2  0  0  0
  9 10  1  0  0  0
 10 14  1  0  0  0
 14 15  1  0  0  0
 15 16  1  0  0  0
 16 17  1  0  0  0
 17 18  1  0  0  0
 10 11  1  0  0  0
 11 12  1  0  0  0
 12 13  2  0  0  0
 13  1  1  0  0  0
 11  3  2  0  0  0
  9  4  1  0  0  0
 18 14  1  0  0  0
 26 21  1  0  0  0
 33 30  1  0  0  0
 19 20  1  0  0  0
 27 28  1  0  0  0
 32 34  1  0  0  0
M  END
> <minimizedAffinity>
-7.60338

> <CNNscore>
0.5359831452

> <CNNaffinity>
7.0532393456

> <CNN_VS>
3.7804174423

> <CNNaffinity_variance>
0.5734256506

$$$$
[H]c1nc([H])c2c(c1[H])c1c([H])nc(N([H])c3nnc(N([H])C([H])([H])C4([H])C([H])([H])N([H])C4([H])[H])c([H])c3[H])nc1n2C1([H])C([H])([H])C([H])([H])C([H])([H])C1([H])[H]


 34 39  0  0  0  0  0  0  0  0999 V2000
  -18.2053   16.2354  -24.1646 C   0  0  0  0  0  0  0  0  0  0  0  0
  -17.8323   14.9760  -23.7303 C   0  0  0  0  0  0  0  0  0  0  0  0
  -18.0809   14.6017  -22.4275 C   0  0  0  0  0  0  0  0  0  0  0  0
  -17.8195   13.4399  -21.7568 C   0  0  0  0  0  0  0  0  0  0  0  0
  -17.2286   12.2232  -22.0899 C   0  0  0  0  0  0  0  0  0  0  0  0
  -17.1326   11.2689  -21.1512 N   0  0  0  0  0  0  0  0  0  0  0  0
  -17.5796   11.4168  -19.8859 C   0  0  0  0  0  0  0  0  0  0  0  0
  -18.1531   12.5797  -19.5393 N   0  0  0  0  0  0  0  0  0  0  0  0
  -18.2675   13.5663  -20.4602 C   0  0  0  0  0  0  0  0  0  0  0  0
  -18.8022   14.8180  -20.3564 N   0  0  0  0  0  0  0  0  0  0  0  0
  -18.6953   15.4477  -21.5313 C   0  0  0  0  0  0  0  0  0  0  0  0
  -19.0539   16.6959  -21.9981 C   0  0  0  0  0  0  0  0  0  0  0  0
  -18.8062   17.0422  -23.2614 N   0  0  0  0  0  0  0  0  0  0  0  0
  -19.3956   15.3897  -19.1690 C   0  0  0  0  0  0  0  0  0  0  0  0
  -18.4083   15.5655  -18.0442 C   0  0  0  0  0  0  0  0  0  0  0  0
  -19.1474   15.2804  -16.7676 C   0  0  0  0  0  0  0  0  0  0  0  0
  -20.4696   14.6769  -17.1231 C   0  0  0  0  0  0  0  0  0  0  0  0
  -20.5427   14.5957  -18.6298 C   0  0  0  0  0  0  0  0  0  0  0  0
  -17.4363   10.3407  -18.9418 N   0  0  0  0  0  0  0  0  0  0  0  0
  -16.6604    9.6576  -19.0787 H   0  0  0  0  0  0  0  0  0  0  0  0
  -18.3158   10.1912  -17.8438 C   0  0  0  0  0  0  0  0  0  0  0  0
  -18.4738    9.0109  -17.1543 C   0  0  0  0  0  0  0  0  0  0  0  0
  -19.3454    8.8984  -16.0814 C   0  0  0  0  0  0  0  0  0  0  0  0
  -20.0791    9.9974  -15.6880 C   0  0  0  0  0  0  0  0  0  0  0  0
  -19.8902   11.1376  -16.3968 N   0  0  0  0  0  0  0  0  0  0  0  0
  -19.0546   11.2274  -17.4176 N   0  0  0  0  0  0  0  0  0  0  0  0
  -20.9907    9.9533  -14.5973 N   0  0  0  0  0  0  0  0  0  0  0  0
  -20.8954   10.6236  -13.8220 H   0  0  0  0  0  0  0  0  0  0  0  0
  -22.0497    8.9697  -14.5763 C   0  0  0  0  0  0  0  0  0  0  0  0
  -23.1789    9.3428  -15.5120 C   0  0  0  0  0  0  0  0  0  0  0  0
  -23.8510    8.1231  -16.1020 C   0  0  0  0  0  0  0  0  0  0  0  0
  -25.1539    8.7404  -15.8638 N   0  0  0  0  0  0  0  0  0  0  0  0
  -24.5080    9.5514  -14.8310 C   0  0  0  0  0  0  0  0  0  0  0  0
  -25.8072    8.0582  -15.3988 H   0  0  0  0  0  0  0  0  0  0  0  0
  1  2  2  0  0  0
  2  3  1  0  0  0
  3  4  1  0  0  0
  4  5  2  0  0  0
  5  6  1  0  0  0
  6  7  2  0  0  0
  7 19  1  0  0  0
 19 21  1  0  0  0
 21 22  2  0  0  0
 22 23  1  0  0  0
 23 24  2  0  0  0
 24 27  1  0  0  0
 27 29  1  0  0  0
 29 30  1  0  0  0
 30 31  1  0  0  0
 31 32  1  0  0  0
 32 33  1  0  0  0
 24 25  1  0  0  0
 25 26  2  0  0  0
  7  8  1  0  0  0
  8  9  2  0  0  0
  9 10  1  0  0  0
 10 14  1  0  0  0
 14 15  1  0  0  0
 15 16  1  0  0  0
 16 17  1  0  0  0
 17 18  1  0  0  0
 10 11  1  0  0  0
 11 12  1  0  0  0
 12 13  2  0  0  0
 13  1  1  0  0  0
 11  3  2  0  0  0
  9  4  1  0  0  0
 18 14  1  0  0  0
 26 21  1  0  0  0
 33 30  1  0  0  0
 19 20  1  0  0  0
 27 28  1  0  0  0
 32 34  1  0  0  0
M  END
> <minimizedAffinity>
-7.70620

> <CNNscore>
0.5120981336

> <CNNaffinity>
7.0957932472

> <CNN_VS>
3.6337425709

> <CNNaffinity_variance>
0.6827653646

$$$$
[H]c1nc([H])c2c(c1[H])c1c([H])nc(N([H])c3nnc(N([H])C([H])([H])C4([H])C([H])([H])N([H])C4([H])[H])c([H])c3[H])nc1n2C1([H])C([H])([H])C([H])([H])C([H])([H])C1([H])[H]


 34 39  0  0  0  0  0  0  0  0999 V2000
  -21.6160   10.1725  -14.4175 C   0  0  0  0  0  0  0  0  0  0  0  0
  -20.6798    9.7850  -15.3594 C   0  0  0  0  0  0  0  0  0  0  0  0
  -20.1993   10.7069  -16.2640 C   0  0  0  0  0  0  0  0  0  0  0  0
  -19.2892   10.5880  -17.2766 C   0  0  0  0  0  0  0  0  0  0  0  0
  -18.5144    9.5485  -17.7859 C   0  0  0  0  0  0  0  0  0  0  0  0
  -17.6999    9.7933  -18.8241 N   0  0  0  0  0  0  0  0  0  0  0  0
  -17.5830   11.0021  -19.4140 C   0  0  0  0  0  0  0  0  0  0  0  0
  -18.3187   12.0207  -18.9421 N   0  0  0  0  0  0  0  0  0  0  0  0
  -19.1521   11.8113  -17.8952 C   0  0  0  0  0  0  0  0  0  0  0  0
  -19.9904   12.6696  -17.2441 N   0  0  0  0  0  0  0  0  0  0  0  0
  -20.6236   12.0171  -16.2634 C   0  0  0  0  0  0  0  0  0  0  0  0
  -21.5577   12.3691  -15.3106 C   0  0  0  0  0  0  0  0  0  0  0  0
  -22.0122   11.4649  -14.4429 N   0  0  0  0  0  0  0  0  0  0  0  0
  -20.1768   14.0690  -17.5534 C   0  0  0  0  0  0  0  0  0  0  0  0
  -19.3537   14.9795  -16.6790 C   0  0  0  0  0  0  0  0  0  0  0  0
  -20.1839   16.2054  -16.4236 C   0  0  0  0  0  0  0  0  0  0  0  0
  -21.5763   15.9281  -16.8957 C   0  0  0  0  0  0  0  0  0  0  0  0
  -21.5982   14.5225  -17.4486 C   0  0  0  0  0  0  0  0  0  0  0  0
  -16.6844   11.1773  -20.5238 N   0  0  0  0  0  0  0  0  0  0  0  0
  -15.8802   10.5208  -20.6222 H   0  0  0  0  0  0  0  0  0  0  0  0
  -16.8664   12.2095  -21.4737 C   0  0  0  0  0  0  0  0  0  0  0  0
  -17.6938   13.2900  -21.2700 C   0  0  0  0  0  0  0  0  0  0  0  0
  -17.8497   14.2854  -22.2231 C   0  0  0  0  0  0  0  0  0  0  0  0
  -17.1585   14.1968  -23.4128 C   0  0  0  0  0  0  0  0  0  0  0  0
  -16.3559   13.1152  -23.5683 N   0  0  0  0  0  0  0  0  0  0  0  0
  -16.2189   12.1750  -22.6489 N   0  0  0  0  0  0  0  0  0  0  0  0
  -17.2708   15.1808  -24.4334 N   0  0  0  0  0  0  0  0  0  0  0  0
  -18.2010   15.4797  -24.7573 H   0  0  0  0  0  0  0  0  0  0  0  0
  -16.0819   15.7612  -25.0155 C   0  0  0  0  0  0  0  0  0  0  0  0
  -15.6602   15.0311  -26.2721 C   0  0  0  0  0  0  0  0  0  0  0  0
  -16.8100   14.2756  -26.9003 C   0  0  0  0  0  0  0  0  0  0  0  0
  -16.3915   14.7557  -28.2154 N   0  0  0  0  0  0  0  0  0  0  0  0
  -15.7275   15.8636  -27.5276 C   0  0  0  0  0  0  0  0  0  0  0  0
  -17.2153   15.1348  -28.7504 H   0  0  0  0  0  0  0  0  0  0  0  0
  1  2  2  0  0  0
  2  3  1  0  0  0
  3  4  1  0  0  0
  4  5  2  0  0  0
  5  6  1  0  0  0
  6  7  2  0  0  0
  7 19  1  0  0  0
 19 21  1  0  0  0
 21 22  2  0  0  0
 22 23  1  0  0  0
 23 24  2  0  0  0
 24 27  1  0  0  0
 27 29  1  0  0  0
 29 30  1  0  0  0
 30 31  1  0  0  0
 31 32  1  0  0  0
 32 33  1  0  0  0
 24 25  1  0  0  0
 25 26  2  0  0  0
  7  8  1  0  0  0
  8  9  2  0  0  0
  9 10  1  0  0  0
 10 14  1  0  0  0
 14 15  1  0  0  0
 15 16  1  0  0  0
 16 17  1  0  0  0
 17 18  1  0  0  0
 10 11  1  0  0  0
 11 12  1  0  0  0
 12 13  2  0  0  0
 13  1  1  0  0  0
 11  3  2  0  0  0
  9  4  1  0  0  0
 18 14  1  0  0  0
 26 21  1  0  0  0
 33 30  1  0  0  0
 19 20  1  0  0  0
 27 28  1  0  0  0
 32 34  1  0  0  0
M  END
> <minimizedAffinity>
-7.69753

> <CNNscore>
0.4113826454

> <CNNaffinity>
7.0770659447

> <CNN_VS>
2.9113821983

> <CNNaffinity_variance>
0.2804250121

$$$$
[H]Oc1c([H])c([H])c(C([H])([H])[C@@]2([H])C(=O)N(C([H])([H])c3c([H])c([H])c([H])c4c(C(=O)N([H])c5c([H])nc(N6C([H])([H])C([H])([H])C([H])(N7C([H])([H])C([H])([H])C7([H])[H])C([H])([H])C6([H])[H])c([H])c5[H])c([H])n(C([H])([H])[H])c34)C([H])([H])[C@]3([H])N(C(=O)N([H])C([H])([H])c4c([H])c([H])c([H])c([H])c4[H])N(C([H])([H])C([H])=C([H])[H])C([H])([H])C(=O)N23)c([H])c1[H]


 66 74  0  0  0  0  0  0  0  0999 V2000
  -19.2434   20.9064  -23.6919 N   0  0  0  0  0  0  0  0  0  0  0  0
  -19.6774   21.7680  -22.6069 C   0  0  0  0  0  0  0  0  0  0  0  0
  -21.0962   21.2837  -22.3597 C   0  0  0  0  0  0  0  0  0  0  0  0
  -21.9913   22.1478  -22.3411 O   0  0  0  0  0  0  0  0  0  0  0  0
  -21.3258   19.9219  -22.1640 N   0  0  0  0  0  0  0  0  0  0  0  0
  -22.4677   19.4707  -21.4209 C   0  0  0  0  0  0  0  0  0  0  0  0
  -21.8505   19.0338  -20.1130 C   0  0  0  0  0  0  0  0  0  0  0  0
  -22.3760   19.3030  -19.0464 O   0  0  0  0  0  0  0  0  0  0  0  0
  -20.6476   18.3037  -20.1831 N   0  0  0  0  0  0  0  0  0  0  0  0
  -19.9554   18.0445  -21.4691 C   0  0  0  0  0  0  0  0  0  0  0  0
  -20.3822   18.9252  -22.5959 C   0  0  0  0  0  0  0  0  0  0  0  0
  -19.3367   19.5300  -23.3892 N   0  0  0  0  0  0  0  0  0  0  0  0
  -18.2985   18.7355  -23.9671 C   0  0  0  0  0  0  0  0  0  0  0  0
  -17.3835   19.3613  -24.6011 O   0  0  0  0  0  0  0  0  0  0  0  0
  -18.1683   17.3420  -23.9222 N   0  0  0  0  0  0  0  0  0  0  0  0
  -18.8570   16.7604  -23.4444 H   0  0  0  0  0  0  0  0  0  0  0  0
  -20.0955   21.2890  -24.8077 C   0  0  0  0  0  0  0  0  0  0  0  0
  -20.1646   22.8607  -26.6563 C   0  0  0  0  0  0  0  0  0  0  0  0
  -19.6949   22.4936  -25.4944 C   0  0  0  0  0  0  0  0  0  0  0  0
  -23.3231   18.4195  -21.9899 C   0  0  0  0  0  0  0  0  0  0  0  0
  -23.5604   18.3820  -23.4351 C   0  0  0  0  0  0  0  0  0  0  0  0
  -23.2956   17.2220  -24.1654 C   0  0  0  0  0  0  0  0  0  0  0  0
  -23.4533   17.1995  -25.5347 C   0  0  0  0  0  0  0  0  0  0  0  0
  -23.8722   18.3012  -26.2535 C   0  0  0  0  0  0  0  0  0  0  0  0
  -24.0125   18.2109  -27.6255 O   0  0  0  0  0  0  0  0  0  0  0  0
  -24.1312   19.4397  -25.5426 C   0  0  0  0  0  0  0  0  0  0  0  0
  -23.9765   19.4780  -24.1570 C   0  0  0  0  0  0  0  0  0  0  0  0
  -23.8194   17.3597  -28.1418 H   0  0  0  0  0  0  0  0  0  0  0  0
  -19.9489   17.7654  -19.0146 C   0  0  0  0  0  0  0  0  0  0  0  0
  -20.2643   16.3402  -18.8775 C   0  0  0  0  0  0  0  0  0  0  0  0
  -21.4862   15.9120  -18.4284 C   0  0  0  0  0  0  0  0  0  0  0  0
  -21.7732   14.5707  -18.2419 C   0  0  0  0  0  0  0  0  0  0  0  0
  -20.8100   13.6162  -18.5129 C   0  0  0  0  0  0  0  0  0  0  0  0
  -19.5581   14.0424  -18.9743 C   0  0  0  0  0  0  0  0  0  0  0  0
  -18.4492   13.3536  -19.3364 C   0  0  0  0  0  0  0  0  0  0  0  0
  -17.5248   14.2765  -19.7344 C   0  0  0  0  0  0  0  0  0  0  0  0
  -18.0133   15.5251  -19.6325 N   0  0  0  0  0  0  0  0  0  0  0  0
  -17.3225   16.7463  -19.9645 C   0  0  0  0  0  0  0  0  0  0  0  0
  -19.2841   15.3926  -19.1559 C   0  0  0  0  0  0  0  0  0  0  0  0
  -18.1877   11.8736  -19.3044 C   0  0  0  0  0  0  0  0  0  0  0  0
  -17.5770   11.3409  -20.2556 O   0  0  0  0  0  0  0  0  0  0  0  0
  -18.6575   11.1880  -18.1691 N   0  0  0  0  0  0  0  0  0  0  0  0
  -17.8972   10.1113  -18.5794 H   0  0  0  0  0  0  0  0  0  0  0  0
  -19.0858   10.5360  -17.1236 C   0  0  0  0  0  0  0  0  0  0  0  0
  -18.8362    9.1533  -17.0015 C   0  0  0  0  0  0  0  0  0  0  0  0
  -19.2462    8.4018  -15.9637 C   0  0  0  0  0  0  0  0  0  0  0  0
  -19.9596    9.0080  -14.9550 C   0  0  0  0  0  0  0  0  0  0  0  0
  -20.2402   10.3302  -15.0000 N   0  0  0  0  0  0  0  0  0  0  0  0
  -19.8176   11.0785  -16.0451 C   0  0  0  0  0  0  0  0  0  0  0  0
  -20.4724    8.2584  -13.8495 N   0  0  0  0  0  0  0  0  0  0  0  0
  -19.8833    6.9776  -13.5457 C   0  0  0  0  0  0  0  0  0  0  0  0
  -19.7517    6.6452  -12.1053 C   0  0  0  0  0  0  0  0  0  0  0  0
  -20.4569    7.5559  -11.1633 C   0  0  0  0  0  0  0  0  0  0  0  0
  -21.7323    8.1518  -11.7505 C   0  0  0  0  0  0  0  0  0  0  0  0
  -21.5738    8.7705  -13.0834 C   0  0  0  0  0  0  0  0  0  0  0  0
  -20.8085    6.9971   -9.9064 N   0  0  0  0  0  0  0  0  0  0  0  0
  -21.1032    7.9033   -8.8434 C   0  0  0  0  0  0  0  0  0  0  0  0
  -20.6297    6.8322   -7.8814 C   0  0  0  0  0  0  0  0  0  0  0  0
  -19.8663    6.3171   -9.0999 C   0  0  0  0  0  0  0  0  0  0  0  0
  -17.0486   16.6625  -24.5680 C   0  0  0  0  0  0  0  0  0  0  0  0
  -17.2149   15.1657  -24.4709 C   0  0  0  0  0  0  0  0  0  0  0  0
  -17.4039   14.4323  -25.5951 C   0  0  0  0  0  0  0  0  0  0  0  0
  -17.5997   13.0328  -25.4834 C   0  0  0  0  0  0  0  0  0  0  0  0
  -17.5959   12.4343  -24.2240 C   0  0  0  0  0  0  0  0  0  0  0  0
  -17.3930   13.2951  -23.1267 C   0  0  0  0  0  0  0  0  0  0  0  0
  -17.2048   14.6054  -23.2194 C   0  0  0  0  0  0  0  0  0  0  0  0
 18 19  2  0  0  0
 19 17  1  0  0  0
 17  1  1  0  0  0
  1  2  1  0  0  0
  2  3  1  0  0  0
  3  4  2  0  0  0
  3  5  1  0  0  0
  5  6  1  0  0  0
  6 20  1  0  0  0
 20 21  1  0  0  0
 21 22  2  0  0  0
 22 23  1  0  0  0
 23 24  2  0  0  0
 24 25  1  0  0  0
 24 26  1  0  0  0
 26 27  2  0  0  0
  6  7  1  0  0  0
  7  8  2  0  0  0
  7  9  1  0  0  0
  9 29  1  0  0  0
 29 30  1  0  0  0
 30 31  2  0  0  0
 31 32  1  0  0  0
 32 33  2  0  0  0
 33 34  1  0  0  0
 34 35  1  0  0  0
 35 40  1  0  0  0
 40 41  2  0  0  0
 40 42  1  0  0  0
 42 44  1  0  0  0
 44 45  2  0  0  0
 45 46  1  0  0  0
 46 47  2  0  0  0
 47 50  1  0  0  0
 50 51  1  0  0  0
 51 52  1  0  0  0
 52 53  1  0  0  0
 53 56  1  0  0  0
 56 57  1  0  0  0
 57 58  1  0  0  0
 58 59  1  0  0  0
 53 54  1  0  0  0
 54 55  1  0  0  0
 47 48  1  0  0  0
 48 49  2  0  0  0
 35 36  2  0  0  0
 36 37  1  0  0  0
 37 38  1  0  0  0
 37 39  1  0  0  0
  9 10  1  0  0  0
 10 11  1  0  0  0
 11 12  1  0  0  0
 12 13  1  0  0  0
 13 14  2  0  0  0
 13 15  1  0  0  0
 15 60  1  0  0  0
 60 61  1  0  0  0
 61 62  2  0  0  0
 62 63  1  0  0  0
 63 64  2  0  0  0
 64 65  1  0  0  0
 65 66  2  0  0  0
 12  1  1  0  0  0
 66 61  1  0  0  0
 11  5  1  0  0  0
 27 21  1  0  0  0
 39 30  1  0  0  0
 39 34  2  0  0  0
 49 44  1  0  0  0
 55 50  1  0  0  0
 59 56  1  0  0  0
 25 28  1  0  0  0
 42 43  1  0  0  0
 15 16  1  0  0  0
M  END
> <minimizedAffinity>
-8.97430

> <CNNscore>
0.2936228216

> <CNNaffinity>
8.0323371887

> <CNN_VS>
2.3584775925

> <CNNaffinity_variance>
0.1065879911

$$$$
[H]Oc1c([H])c([H])c(C([H])([H])[C@@]2([H])C(=O)N(C([H])([H])c3c([H])c([H])c([H])c4c(C(=O)N([H])c5c([H])nc(N6C([H])([H])C([H])([H])C([H])(N7C([H])([H])C([H])([H])C7([H])[H])C([H])([H])C6([H])[H])c([H])c5[H])c([H])n(C([H])([H])[H])c34)C([H])([H])[C@]3([H])N(C(=O)N([H])C([H])([H])c4c([H])c([H])c([H])c([H])c4[H])N(C([H])([H])C([H])=C([H])[H])C([H])([H])C(=O)N23)c([H])c1[H]


 66 74  0  0  0  0  0  0  0  0999 V2000
  -24.8339   14.2553   -8.5911 N   0  0  0  0  0  0  0  0  0  0  0  0
  -26.2792   14.1518   -8.6830 C   0  0  0  0  0  0  0  0  0  0  0  0
  -26.5440   14.6060  -10.1086 C   0  0  0  0  0  0  0  0  0  0  0  0
  -27.3958   15.4993  -10.2662 O   0  0  0  0  0  0  0  0  0  0  0  0
  -25.8389   14.0106  -11.1544 N   0  0  0  0  0  0  0  0  0  0  0  0
  -26.3841   13.9795  -12.4816 C   0  0  0  0  0  0  0  0  0  0  0  0
  -26.8078   12.5365  -12.6237 C   0  0  0  0  0  0  0  0  0  0  0  0
  -27.8729   12.2393  -13.1370 O   0  0  0  0  0  0  0  0  0  0  0  0
  -25.9193   11.5559  -12.1397 N   0  0  0  0  0  0  0  0  0  0  0  0
  -24.6614   11.9084  -11.4373 C   0  0  0  0  0  0  0  0  0  0  0  0
  -24.6012   13.3113  -10.9316 C   0  0  0  0  0  0  0  0  0  0  0  0
  -24.1523   13.5006   -9.5712 N   0  0  0  0  0  0  0  0  0  0  0  0
  -22.9213   12.9336   -9.1169 C   0  0  0  0  0  0  0  0  0  0  0  0
  -22.6340   13.1005   -7.8838 O   0  0  0  0  0  0  0  0  0  0  0  0
  -21.9858   12.2149   -9.8712 N   0  0  0  0  0  0  0  0  0  0  0  0
  -22.1288   12.0403  -10.8662 H   0  0  0  0  0  0  0  0  0  0  0  0
  -24.5748   15.6824   -8.7091 C   0  0  0  0  0  0  0  0  0  0  0  0
  -23.4287   16.2408   -6.6434 C   0  0  0  0  0  0  0  0  0  0  0  0
  -24.4427   16.3828   -7.4541 C   0  0  0  0  0  0  0  0  0  0  0  0
  -25.5460   14.4080  -13.6106 C   0  0  0  0  0  0  0  0  0  0  0  0
  -26.1651   15.0670  -14.7632 C   0  0  0  0  0  0  0  0  0  0  0  0
  -26.2537   16.4591  -14.8186 C   0  0  0  0  0  0  0  0  0  0  0  0
  -26.8934   17.0838  -15.8678 C   0  0  0  0  0  0  0  0  0  0  0  0
  -27.4761   16.3848  -16.9061 C   0  0  0  0  0  0  0  0  0  0  0  0
  -28.1002   17.0727  -17.9295 O   0  0  0  0  0  0  0  0  0  0  0  0
  -27.3931   15.0214  -16.8552 C   0  0  0  0  0  0  0  0  0  0  0  0
  -26.7489   14.3750  -15.8004 C   0  0  0  0  0  0  0  0  0  0  0  0
  -28.1534   18.0850  -17.9575 H   0  0  0  0  0  0  0  0  0  0  0  0
  -26.1559   10.1151  -12.2450 C   0  0  0  0  0  0  0  0  0  0  0  0
  -24.8774    9.4063  -12.1330 C   0  0  0  0  0  0  0  0  0  0  0  0
  -24.4045    8.9581  -10.9273 C   0  0  0  0  0  0  0  0  0  0  0  0
  -23.1727    8.3386  -10.8040 C   0  0  0  0  0  0  0  0  0  0  0  0
  -22.3791    8.1554  -11.9215 C   0  0  0  0  0  0  0  0  0  0  0  0
  -22.8533    8.6079  -13.1594 C   0  0  0  0  0  0  0  0  0  0  0  0
  -22.3211    8.5497  -14.4038 C   0  0  0  0  0  0  0  0  0  0  0  0
  -23.2290    9.1227  -15.2476 C   0  0  0  0  0  0  0  0  0  0  0  0
  -24.3152    9.5432  -14.5757 N   0  0  0  0  0  0  0  0  0  0  0  0
  -25.4738   10.1918  -15.1377 C   0  0  0  0  0  0  0  0  0  0  0  0
  -24.0917    9.2290  -13.2677 C   0  0  0  0  0  0  0  0  0  0  0  0
  -20.9904    8.0132  -14.8526 C   0  0  0  0  0  0  0  0  0  0  0  0
  -20.5929    6.9157  -14.4066 O   0  0  0  0  0  0  0  0  0  0  0  0
  -20.2824    8.8085  -15.7723 N   0  0  0  0  0  0  0  0  0  0  0  0
  -19.4506    7.7258  -15.9758 H   0  0  0  0  0  0  0  0  0  0  0  0
  -19.6120    9.5327  -16.6254 C   0  0  0  0  0  0  0  0  0  0  0  0
  -19.9896   10.8696  -16.8684 C   0  0  0  0  0  0  0  0  0  0  0  0
  -19.3616   11.6850  -17.7346 C   0  0  0  0  0  0  0  0  0  0  0  0
  -18.2857   11.1932  -18.4377 C   0  0  0  0  0  0  0  0  0  0  0  0
  -17.8631    9.9207  -18.2611 N   0  0  0  0  0  0  0  0  0  0  0  0
  -18.4978    9.1106  -17.3826 C   0  0  0  0  0  0  0  0  0  0  0  0
  -17.6060   11.9883  -19.4139 N   0  0  0  0  0  0  0  0  0  0  0  0
  -16.6366   11.3546  -20.2731 C   0  0  0  0  0  0  0  0  0  0  0  0
  -16.6011   11.8301  -21.6786 C   0  0  0  0  0  0  0  0  0  0  0  0
  -17.3916   13.0572  -21.9674 C   0  0  0  0  0  0  0  0  0  0  0  0
  -17.4613   14.0155  -20.7828 C   0  0  0  0  0  0  0  0  0  0  0  0
  -17.8721   13.3965  -19.5050 C   0  0  0  0  0  0  0  0  0  0  0  0
  -16.9650   13.8210  -23.0857 N   0  0  0  0  0  0  0  0  0  0  0  0
  -15.9571   13.2541  -23.9229 C   0  0  0  0  0  0  0  0  0  0  0  0
  -15.5303   14.6682  -24.2619 C   0  0  0  0  0  0  0  0  0  0  0  0
  -16.2103   15.0080  -22.9371 C   0  0  0  0  0  0  0  0  0  0  0  0
  -20.7609   11.6966   -9.2684 C   0  0  0  0  0  0  0  0  0  0  0  0
  -20.0644   10.7544  -10.2195 C   0  0  0  0  0  0  0  0  0  0  0  0
  -19.9978   11.0539  -11.5399 C   0  0  0  0  0  0  0  0  0  0  0  0
  -19.3764   10.1388  -12.4263 C   0  0  0  0  0  0  0  0  0  0  0  0
  -18.8460    8.9489  -11.9291 C   0  0  0  0  0  0  0  0  0  0  0  0
  -18.9751    8.7424  -10.5410 C   0  0  0  0  0  0  0  0  0  0  0  0
  -19.5511    9.5933   -9.7012 C   0  0  0  0  0  0  0  0  0  0  0  0
 18 19  2  0  0  0
 19 17  1  0  0  0
 17  1  1  0  0  0
  1  2  1  0  0  0
  2  3  1  0  0  0
  3  4  2  0  0  0
  3  5  1  0  0  0
  5  6  1  0  0  0
  6 20  1  0  0  0
 20 21  1  0  0  0
 21 22  2  0  0  0
 22 23  1  0  0  0
 23 24  2  0  0  0
 24 25  1  0  0  0
 24 26  1  0  0  0
 26 27  2  0  0  0
  6  7  1  0  0  0
  7  8  2  0  0  0
  7  9  1  0  0  0
  9 29  1  0  0  0
 29 30  1  0  0  0
 30 31  2  0  0  0
 31 32  1  0  0  0
 32 33  2  0  0  0
 33 34  1  0  0  0
 34 35  1  0  0  0
 35 40  1  0  0  0
 40 41  2  0  0  0
 40 42  1  0  0  0
 42 44  1  0  0  0
 44 45  2  0  0  0
 45 46  1  0  0  0
 46 47  2  0  0  0
 47 50  1  0  0  0
 50 51  1  0  0  0
 51 52  1  0  0  0
 52 53  1  0  0  0
 53 56  1  0  0  0
 56 57  1  0  0  0
 57 58  1  0  0  0
 58 59  1  0  0  0
 53 54  1  0  0  0
 54 55  1  0  0  0
 47 48  1  0  0  0
 48 49  2  0  0  0
 35 36  2  0  0  0
 36 37  1  0  0  0
 37 38  1  0  0  0
 37 39  1  0  0  0
  9 10  1  0  0  0
 10 11  1  0  0  0
 11 12  1  0  0  0
 12 13  1  0  0  0
 13 14  2  0  0  0
 13 15  1  0  0  0
 15 60  1  0  0  0
 60 61  1  0  0  0
 61 62  2  0  0  0
 62 63  1  0  0  0
 63 64  2  0  0  0
 64 65  1  0  0  0
 65 66  2  0  0  0
 12  1  1  0  0  0
 66 61  1  0  0  0
 11  5  1  0  0  0
 27 21  1  0  0  0
 39 30  1  0  0  0
 39 34  2  0  0  0
 49 44  1  0  0  0
 55 50  1  0  0  0
 59 56  1  0  0  0
 25 28  1  0  0  0
 42 43  1  0  0  0
 15 16  1  0  0  0
M  END
> <minimizedAffinity>
-7.53316

> <CNNscore>
0.0876272246

> <CNNaffinity>
7.1370153427

> <CNN_VS>
0.6253968477

> <CNNaffinity_variance>
0.4092770517

$$$$
[H]Oc1c([H])c([H])c(C([H])([H])[C@@]2([H])C(=O)N(C([H])([H])c3c([H])c([H])c([H])c4c(C(=O)N([H])c5c([H])nc(N6C([H])([H])C([H])([H])C([H])(N7C([H])([H])C([H])([H])C7([H])[H])C([H])([H])C6([H])[H])c([H])c5[H])c([H])n(C([H])([H])[H])c34)C([H])([H])[C@]3([H])N(C(=O)N([H])C([H])([H])c4c([H])c([H])c([H])c([H])c4[H])N(C([H])([H])C([H])=C([H])[H])C([H])([H])C(=O)N23)c([H])c1[H]


 66 74  0  0  0  0  0  0  0  0999 V2000
  -22.4061   12.9912   -8.4038 N   0  0  0  0  0  0  0  0  0  0  0  0
  -23.8490   12.8931   -8.5316 C   0  0  0  0  0  0  0  0  0  0  0  0
  -24.1033   13.5983   -9.8532 C   0  0  0  0  0  0  0  0  0  0  0  0
  -24.9634   14.4975   -9.8557 O   0  0  0  0  0  0  0  0  0  0  0  0
  -23.3802   13.2108  -10.9812 N   0  0  0  0  0  0  0  0  0  0  0  0
  -23.9105   13.4184  -12.2985 C   0  0  0  0  0  0  0  0  0  0  0  0
  -24.3162   12.0219  -12.7077 C   0  0  0  0  0  0  0  0  0  0  0  0
  -25.3723   11.8141  -13.2803 O   0  0  0  0  0  0  0  0  0  0  0  0
  -23.4221   10.9775  -12.4001 N   0  0  0  0  0  0  0  0  0  0  0  0
  -22.1760   11.2069  -11.6289 C   0  0  0  0  0  0  0  0  0  0  0  0
  -22.1371   12.4939  -10.8743 C   0  0  0  0  0  0  0  0  0  0  0  0
  -21.7053   12.4349   -9.4966 N   0  0  0  0  0  0  0  0  0  0  0  0
  -20.4730   11.8056   -9.1380 C   0  0  0  0  0  0  0  0  0  0  0  0
  -20.2012   11.7466   -7.8916 O   0  0  0  0  0  0  0  0  0  0  0  0
  -19.5213   11.2458   -9.9991 N   0  0  0  0  0  0  0  0  0  0  0  0
  -19.6515   11.2550  -11.0109 H   0  0  0  0  0  0  0  0  0  0  0  0
  -22.1619   14.4180   -8.2553 C   0  0  0  0  0  0  0  0  0  0  0  0
  -22.8733   15.8480   -6.4274 C   0  0  0  0  0  0  0  0  0  0  0  0
  -22.1178   14.8894   -6.8919 C   0  0  0  0  0  0  0  0  0  0  0  0
  -23.0650   14.0539  -13.3193 C   0  0  0  0  0  0  0  0  0  0  0  0
  -23.1112   15.5075  -13.4956 C   0  0  0  0  0  0  0  0  0  0  0  0
  -23.8656   16.3014  -12.6298 C   0  0  0  0  0  0  0  0  0  0  0  0
  -23.9674   17.6616  -12.8288 C   0  0  0  0  0  0  0  0  0  0  0  0
  -23.3438   18.3089  -13.8767 C   0  0  0  0  0  0  0  0  0  0  0  0
  -23.4845   19.6765  -14.0179 O   0  0  0  0  0  0  0  0  0  0  0  0
  -22.6053   17.5353  -14.7279 C   0  0  0  0  0  0  0  0  0  0  0  0
  -22.4927   16.1579  -14.5396 C   0  0  0  0  0  0  0  0  0  0  0  0
  -24.0335   20.2405  -13.3783 H   0  0  0  0  0  0  0  0  0  0  0  0
  -23.6412    9.5782  -12.7702 C   0  0  0  0  0  0  0  0  0  0  0  0
  -22.3482    8.9417  -13.0395 C   0  0  0  0  0  0  0  0  0  0  0  0
  -21.7348    8.1359  -12.1161 C   0  0  0  0  0  0  0  0  0  0  0  0
  -20.4882    7.5770  -12.3393 C   0  0  0  0  0  0  0  0  0  0  0  0
  -19.8243    7.8264  -13.5264 C   0  0  0  0  0  0  0  0  0  0  0  0
  -20.4426    8.6471  -14.4783 C   0  0  0  0  0  0  0  0  0  0  0  0
  -20.0547    9.0433  -15.7143 C   0  0  0  0  0  0  0  0  0  0  0  0
  -21.0608    9.8204  -16.2126 C   0  0  0  0  0  0  0  0  0  0  0  0
  -22.0695    9.9299  -15.3302 N   0  0  0  0  0  0  0  0  0  0  0  0
  -23.2937   10.6691  -15.5139 C   0  0  0  0  0  0  0  0  0  0  0  0
  -21.6941    9.2021  -14.2398 C   0  0  0  0  0  0  0  0  0  0  0  0
  -18.7761    8.7619  -16.4532 C   0  0  0  0  0  0  0  0  0  0  0  0
  -18.0787    7.7818  -16.1150 O   0  0  0  0  0  0  0  0  0  0  0  0
  -18.4623    9.6450  -17.5026 N   0  0  0  0  0  0  0  0  0  0  0  0
  -17.4965    8.7399  -17.8946 H   0  0  0  0  0  0  0  0  0  0  0  0
  -18.1554   10.4536  -18.4792 C   0  0  0  0  0  0  0  0  0  0  0  0
  -18.6891   11.7586  -18.5108 C   0  0  0  0  0  0  0  0  0  0  0  0
  -18.4333   12.6547  -19.4810 C   0  0  0  0  0  0  0  0  0  0  0  0
  -17.6050   12.2841  -20.5157 C   0  0  0  0  0  0  0  0  0  0  0  0
  -17.0548   11.0494  -20.5573 N   0  0  0  0  0  0  0  0  0  0  0  0
  -17.3134   10.1577  -19.5730 C   0  0  0  0  0  0  0  0  0  0  0  0
  -17.3340   13.1681  -21.6075 N   0  0  0  0  0  0  0  0  0  0  0  0
  -17.3293   14.5898  -21.3655 C   0  0  0  0  0  0  0  0  0  0  0  0
  -16.3066   15.3735  -22.1020 C   0  0  0  0  0  0  0  0  0  0  0  0
  -15.5772   14.6419  -23.1730 C   0  0  0  0  0  0  0  0  0  0  0  0
  -16.4255   13.5689  -23.8477 C   0  0  0  0  0  0  0  0  0  0  0  0
  -17.1023   12.6369  -22.9214 C   0  0  0  0  0  0  0  0  0  0  0  0
  -15.0316   15.4431  -24.2104 N   0  0  0  0  0  0  0  0  0  0  0  0
  -15.8401   15.6615  -25.3666 C   0  0  0  0  0  0  0  0  0  0  0  0
  -14.5573   15.8089  -26.1600 C   0  0  0  0  0  0  0  0  0  0  0  0
  -13.9572   14.9961  -25.0145 C   0  0  0  0  0  0  0  0  0  0  0  0
  -18.2973   10.6371   -9.4856 C   0  0  0  0  0  0  0  0  0  0  0  0
  -18.3973    9.1321   -9.5354 C   0  0  0  0  0  0  0  0  0  0  0  0
  -19.3844    8.4974   -8.8569 C   0  0  0  0  0  0  0  0  0  0  0  0
  -19.4399    7.0812   -8.8802 C   0  0  0  0  0  0  0  0  0  0  0  0
  -18.4819    6.3651   -9.5970 C   0  0  0  0  0  0  0  0  0  0  0  0
  -17.5020    7.1297  -10.2613 C   0  0  0  0  0  0  0  0  0  0  0  0
  -17.4423    8.4553  -10.2498 C   0  0  0  0  0  0  0  0  0  0  0  0
 18 19  2  0  0  0
 19 17  1  0  0  0
 17  1  1  0  0  0
  1  2  1  0  0  0
  2  3  1  0  0  0
  3  4  2  0  0  0
  3  5  1  0  0  0
  5  6  1  0  0  0
  6 20  1  0  0  0
 20 21  1  0  0  0
 21 22  2  0  0  0
 22 23  1  0  0  0
 23 24  2  0  0  0
 24 25  1  0  0  0
 24 26  1  0  0  0
 26 27  2  0  0  0
  6  7  1  0  0  0
  7  8  2  0  0  0
  7  9  1  0  0  0
  9 29  1  0  0  0
 29 30  1  0  0  0
 30 31  2  0  0  0
 31 32  1  0  0  0
 32 33  2  0  0  0
 33 34  1  0  0  0
 34 35  1  0  0  0
 35 40  1  0  0  0
 40 41  2  0  0  0
 40 42  1  0  0  0
 42 44  1  0  0  0
 44 45  2  0  0  0
 45 46  1  0  0  0
 46 47  2  0  0  0
 47 50  1  0  0  0
 50 51  1  0  0  0
 51 52  1  0  0  0
 52 53  1  0  0  0
 53 56  1  0  0  0
 56 57  1  0  0  0
 57 58  1  0  0  0
 58 59  1  0  0  0
 53 54  1  0  0  0
 54 55  1  0  0  0
 47 48  1  0  0  0
 48 49  2  0  0  0
 35 36  2  0  0  0
 36 37  1  0  0  0
 37 38  1  0  0  0
 37 39  1  0  0  0
  9 10  1  0  0  0
 10 11  1  0  0  0
 11 12  1  0  0  0
 12 13  1  0  0  0
 13 14  2  0  0  0
 13 15  1  0  0  0
 15 60  1  0  0  0
 60 61  1  0  0  0
 61 62  2  0  0  0
 62 63  1  0  0  0
 63 64  2  0  0  0
 64 65  1  0  0  0
 65 66  2  0  0  0
 12  1  1  0  0  0
 66 61  1  0  0  0
 11  5  1  0  0  0
 27 21  1  0  0  0
 39 30  1  0  0  0
 39 34  2  0  0  0
 49 44  1  0  0  0
 55 50  1  0  0  0
 59 56  1  0  0  0
 25 28  1  0  0  0
 42 43  1  0  0  0
 15 16  1  0  0  0
M  END
> <minimizedAffinity>
-8.67574

> <CNNscore>
0.0492435209

> <CNNaffinity>
7.1482520103

> <CNN_VS>
0.3520050943

> <CNNaffinity_variance>
0.3169910014

$$$$
[H]Oc1c([H])c([H])c(C([H])([H])[C@@]2([H])C(=O)N(C([H])([H])c3c([H])c([H])c([H])c4c(C(=O)N([H])c5c([H])nc(N6C([H])([H])C([H])([H])C([H])(N7C([H])([H])C([H])([H])C7([H])[H])C([H])([H])C6([H])[H])c([H])c5[H])c([H])n(C([H])([H])[H])c34)C([H])([H])[C@]3([H])N(C(=O)N([H])C([H])([H])c4c([H])c([H])c([H])c([H])c4[H])N(C([H])([H])C([H])=C([H])[H])C([H])([H])C(=O)N23)c([H])c1[H]


 66 74  0  0  0  0  0  0  0  0999 V2000
  -24.0373   19.9694  -13.2978 N   0  0  0  0  0  0  0  0  0  0  0  0
  -24.7603   21.1455  -12.8484 C   0  0  0  0  0  0  0  0  0  0  0  0
  -23.6453   22.1641  -12.6816 C   0  0  0  0  0  0  0  0  0  0  0  0
  -23.5882   22.7636  -11.5927 O   0  0  0  0  0  0  0  0  0  0  0  0
  -22.7578   22.3801  -13.7357 N   0  0  0  0  0  0  0  0  0  0  0  0
  -22.0674   23.6313  -13.8676 C   0  0  0  0  0  0  0  0  0  0  0  0
  -22.7955   24.2827  -15.0199 C   0  0  0  0  0  0  0  0  0  0  0  0
  -23.0916   25.4650  -14.9915 O   0  0  0  0  0  0  0  0  0  0  0  0
  -23.1131   23.4655  -16.1228 N   0  0  0  0  0  0  0  0  0  0  0  0
  -22.8343   22.0087  -16.1319 C   0  0  0  0  0  0  0  0  0  0  0  0
  -22.5811   21.4135  -14.7869 C   0  0  0  0  0  0  0  0  0  0  0  0
  -23.2786   20.1886  -14.4688 N   0  0  0  0  0  0  0  0  0  0  0  0
  -23.2210   19.0603  -15.3444 C   0  0  0  0  0  0  0  0  0  0  0  0
  -23.9170   18.0419  -15.0135 O   0  0  0  0  0  0  0  0  0  0  0  0
  -22.4833   18.9388  -16.5284 N   0  0  0  0  0  0  0  0  0  0  0  0
  -21.8928   19.6994  -16.8654 H   0  0  0  0  0  0  0  0  0  0  0  0
  -23.2080   19.6089  -12.1577 C   0  0  0  0  0  0  0  0  0  0  0  0
  -23.6787   17.2853  -11.6362 C   0  0  0  0  0  0  0  0  0  0  0  0
  -23.7385   18.5532  -11.3287 C   0  0  0  0  0  0  0  0  0  0  0  0
  -20.6134   23.6281  -14.0828 C   0  0  0  0  0  0  0  0  0  0  0  0
  -19.7144   23.9080  -12.9604 C   0  0  0  0  0  0  0  0  0  0  0  0
  -20.2293   24.2877  -11.7195 C   0  0  0  0  0  0  0  0  0  0  0  0
  -19.3884   24.6168  -10.6780 C   0  0  0  0  0  0  0  0  0  0  0  0
  -18.0131   24.5937  -10.7965 C   0  0  0  0  0  0  0  0  0  0  0  0
  -17.2265   24.9328   -9.7119 O   0  0  0  0  0  0  0  0  0  0  0  0
  -17.5045   24.2239  -12.0102 C   0  0  0  0  0  0  0  0  0  0  0  0
  -18.3425   23.8880  -13.0734 C   0  0  0  0  0  0  0  0  0  0  0  0
  -17.6155   25.2034   -8.8153 H   0  0  0  0  0  0  0  0  0  0  0  0
  -23.7709   23.9509  -17.3372 C   0  0  0  0  0  0  0  0  0  0  0  0
  -22.9851   23.5461  -18.5069 C   0  0  0  0  0  0  0  0  0  0  0  0
  -21.8089   24.1677  -18.8357 C   0  0  0  0  0  0  0  0  0  0  0  0
  -21.0898   23.8303  -19.9695 C   0  0  0  0  0  0  0  0  0  0  0  0
  -21.5556   22.8356  -20.8096 C   0  0  0  0  0  0  0  0  0  0  0  0
  -22.7559   22.1921  -20.4823 C   0  0  0  0  0  0  0  0  0  0  0  0
  -23.4338   21.1877  -21.0879 C   0  0  0  0  0  0  0  0  0  0  0  0
  -24.5336   20.9351  -20.3189 C   0  0  0  0  0  0  0  0  0  0  0  0
  -24.5731   21.7493  -19.2495 N   0  0  0  0  0  0  0  0  0  0  0  0
  -25.5846   21.7677  -18.2222 C   0  0  0  0  0  0  0  0  0  0  0  0
  -23.4675   22.5423  -19.3412 C   0  0  0  0  0  0  0  0  0  0  0  0
  -23.1297   20.4630  -22.3694 C   0  0  0  0  0  0  0  0  0  0  0  0
  -23.6883   20.8296  -23.4253 O   0  0  0  0  0  0  0  0  0  0  0  0
  -22.2070   19.4049  -22.2764 N   0  0  0  0  0  0  0  0  0  0  0  0
  -22.1515   19.4123  -23.6557 H   0  0  0  0  0  0  0  0  0  0  0  0
  -21.3532   18.4209  -22.2090 C   0  0  0  0  0  0  0  0  0  0  0  0
  -21.2977   17.6107  -21.0561 C   0  0  0  0  0  0  0  0  0  0  0  0
  -20.4456   16.5818  -20.8978 C   0  0  0  0  0  0  0  0  0  0  0  0
  -19.5643   16.2962  -21.9154 C   0  0  0  0  0  0  0  0  0  0  0  0
  -19.5552   17.0281  -23.0526 N   0  0  0  0  0  0  0  0  0  0  0  0
  -20.4208   18.0569  -23.2045 C   0  0  0  0  0  0  0  0  0  0  0  0
  -18.5952   15.2510  -21.7916 N   0  0  0  0  0  0  0  0  0  0  0  0
  -18.1237   14.8931  -20.4766 C   0  0  0  0  0  0  0  0  0  0  0  0
  -17.8818   13.4479  -20.2412 C   0  0  0  0  0  0  0  0  0  0  0  0
  -17.9207   12.5795  -21.4490 C   0  0  0  0  0  0  0  0  0  0  0  0
  -17.4473   13.2915  -22.7121 C   0  0  0  0  0  0  0  0  0  0  0  0
  -18.0874   14.5993  -22.9662 C   0  0  0  0  0  0  0  0  0  0  0  0
  -17.1872   11.3668  -21.3648 N   0  0  0  0  0  0  0  0  0  0  0  0
  -16.8854   10.8702  -20.0608 C   0  0  0  0  0  0  0  0  0  0  0  0
  -15.6552   10.2194  -20.6605 C   0  0  0  0  0  0  0  0  0  0  0  0
  -15.8251   11.2887  -21.7379 C   0  0  0  0  0  0  0  0  0  0  0  0
  -22.5184   17.7140  -17.3229 C   0  0  0  0  0  0  0  0  0  0  0  0
  -21.1786   17.0207  -17.2801 C   0  0  0  0  0  0  0  0  0  0  0  0
  -21.1181   15.6767  -17.1140 C   0  0  0  0  0  0  0  0  0  0  0  0
  -19.8512   15.0458  -17.0345 C   0  0  0  0  0  0  0  0  0  0  0  0
  -18.6912   15.8140  -17.1271 C   0  0  0  0  0  0  0  0  0  0  0  0
  -18.8754   17.2010  -17.2960 C   0  0  0  0  0  0  0  0  0  0  0  0
  -20.0558   17.8020  -17.3756 C   0  0  0  0  0  0  0  0  0  0  0  0
 18 19  2  0  0  0
 19 17  1  0  0  0
 17  1  1  0  0  0
  1  2  1  0  0  0
  2  3  1  0  0  0
  3  4  2  0  0  0
  3  5  1  0  0  0
  5  6  1  0  0  0
  6 20  1  0  0  0
 20 21  1  0  0  0
 21 22  2  0  0  0
 22 23  1  0  0  0
 23 24  2  0  0  0
 24 25  1  0  0  0
 24 26  1  0  0  0
 26 27  2  0  0  0
  6  7  1  0  0  0
  7  8  2  0  0  0
  7  9  1  0  0  0
  9 29  1  0  0  0
 29 30  1  0  0  0
 30 31  2  0  0  0
 31 32  1  0  0  0
 32 33  2  0  0  0
 33 34  1  0  0  0
 34 35  1  0  0  0
 35 40  1  0  0  0
 40 41  2  0  0  0
 40 42  1  0  0  0
 42 44  1  0  0  0
 44 45  2  0  0  0
 45 46  1  0  0  0
 46 47  2  0  0  0
 47 50  1  0  0  0
 50 51  1  0  0  0
 51 52  1  0  0  0
 52 53  1  0  0  0
 53 56  1  0  0  0
 56 57  1  0  0  0
 57 58  1  0  0  0
 58 59  1  0  0  0
 53 54  1  0  0  0
 54 55  1  0  0  0
 47 48  1  0  0  0
 48 49  2  0  0  0
 35 36  2  0  0  0
 36 37  1  0  0  0
 37 38  1  0  0  0
 37 39  1  0  0  0
  9 10  1  0  0  0
 10 11  1  0  0  0
 11 12  1  0  0  0
 12 13  1  0  0  0
 13 14  2  0  0  0
 13 15  1  0  0  0
 15 60  1  0  0  0
 60 61  1  0  0  0
 61 62  2  0  0  0
 62 63  1  0  0  0
 63 64  2  0  0  0
 64 65  1  0  0  0
 65 66  2  0  0  0
 12  1  1  0  0  0
 66 61  1  0  0  0
 11  5  1  0  0  0
 27 21  1  0  0  0
 39 30  1  0  0  0
 39 34  2  0  0  0
 49 44  1  0  0  0
 55 50  1  0  0  0
 59 56  1  0  0  0
 25 28  1  0  0  0
 42 43  1  0  0  0
 15 16  1  0  0  0
M  END
> <minimizedAffinity>
-7.31948

> <CNNscore>
0.0464438945

> <CNNaffinity>
6.8250098228

> <CNN_VS>
0.3169800341

> <CNNaffinity_variance>
0.6685600281

$$$$
[H]Oc1c([H])c([H])c(C([H])([H])[C@@]2([H])C(=O)N(C([H])([H])c3c([H])c([H])c([H])c4c(C(=O)N([H])c5c([H])nc(N6C([H])([H])C([H])([H])C([H])(N7C([H])([H])C([H])([H])C7([H])[H])C([H])([H])C6([H])[H])c([H])c5[H])c([H])n(C([H])([H])[H])c34)C([H])([H])[C@]3([H])N(C(=O)N([H])C([H])([H])c4c([H])c([H])c([H])c([H])c4[H])N(C([H])([H])C([H])=C([H])[H])C([H])([H])C(=O)N23)c([H])c1[H]


 66 74  0  0  0  0  0  0  0  0999 V2000
  -16.1419   15.4330  -24.0109 N   0  0  0  0  0  0  0  0  0  0  0  0
  -15.8599   16.8517  -23.8852 C   0  0  0  0  0  0  0  0  0  0  0  0
  -17.2411   17.4680  -24.0305 C   0  0  0  0  0  0  0  0  0  0  0  0
  -17.3659   18.3798  -24.8681 O   0  0  0  0  0  0  0  0  0  0  0  0
  -18.2836   16.9973  -23.2323 N   0  0  0  0  0  0  0  0  0  0  0  0
  -19.4058   17.8366  -22.9227 C   0  0  0  0  0  0  0  0  0  0  0  0
  -19.1472   18.2035  -21.4802 C   0  0  0  0  0  0  0  0  0  0  0  0
  -19.3178   19.3418  -21.0785 O   0  0  0  0  0  0  0  0  0  0  0  0
  -18.7039   17.1748  -20.6257 N   0  0  0  0  0  0  0  0  0  0  0  0
  -18.4114   15.8079  -21.1218 C   0  0  0  0  0  0  0  0  0  0  0  0
  -18.2291   15.7061  -22.5996 C   0  0  0  0  0  0  0  0  0  0  0  0
  -17.0841   14.9611  -23.0705 N   0  0  0  0  0  0  0  0  0  0  0  0
  -16.8350   13.6292  -22.6155 C   0  0  0  0  0  0  0  0  0  0  0  0
  -15.7673   13.0696  -23.0374 O   0  0  0  0  0  0  0  0  0  0  0  0
  -17.6314   12.8598  -21.7584 N   0  0  0  0  0  0  0  0  0  0  0  0
  -18.5061   13.2229  -21.3793 H   0  0  0  0  0  0  0  0  0  0  0  0
  -16.6044   15.2861  -25.3827 C   0  0  0  0  0  0  0  0  0  0  0  0
  -15.7748   15.3227  -27.6636 C   0  0  0  0  0  0  0  0  0  0  0  0
  -15.6162   15.5791  -26.3930 C   0  0  0  0  0  0  0  0  0  0  0  0
  -20.7660   17.3115  -23.1088 C   0  0  0  0  0  0  0  0  0  0  0  0
  -21.8082   18.1796  -23.6622 C   0  0  0  0  0  0  0  0  0  0  0  0
  -22.0846   19.4157  -23.0750 C   0  0  0  0  0  0  0  0  0  0  0  0
  -23.1076   20.2086  -23.5491 C   0  0  0  0  0  0  0  0  0  0  0  0
  -23.9071   19.8355  -24.6110 C   0  0  0  0  0  0  0  0  0  0  0  0
  -24.9150   20.6787  -25.0389 O   0  0  0  0  0  0  0  0  0  0  0  0
  -23.6410   18.6253  -25.1881 C   0  0  0  0  0  0  0  0  0  0  0  0
  -22.6093   17.8119  -24.7198 C   0  0  0  0  0  0  0  0  0  0  0  0
  -25.1014   21.5758  -24.6040 H   0  0  0  0  0  0  0  0  0  0  0  0
  -18.4559   17.3516  -19.1938 C   0  0  0  0  0  0  0  0  0  0  0  0
  -19.5760   16.7852  -18.4360 C   0  0  0  0  0  0  0  0  0  0  0  0
  -19.9210   15.4629  -18.5392 C   0  0  0  0  0  0  0  0  0  0  0  0
  -21.0116   14.9325  -17.8716 C   0  0  0  0  0  0  0  0  0  0  0  0
  -21.7899   15.7460  -17.0687 C   0  0  0  0  0  0  0  0  0  0  0  0
  -21.4453   17.0988  -16.9544 C   0  0  0  0  0  0  0  0  0  0  0  0
  -21.9939   18.1109  -16.2404 C   0  0  0  0  0  0  0  0  0  0  0  0
  -21.2342   19.2197  -16.4811 C   0  0  0  0  0  0  0  0  0  0  0  0
  -20.2259   18.9409  -17.3260 N   0  0  0  0  0  0  0  0  0  0  0  0
  -19.2258   19.8636  -17.8024 C   0  0  0  0  0  0  0  0  0  0  0  0
  -20.3482   17.6175  -17.6315 C   0  0  0  0  0  0  0  0  0  0  0  0
  -23.2139   18.1122  -15.3620 C   0  0  0  0  0  0  0  0  0  0  0  0
  -24.0916   18.9841  -15.5377 O   0  0  0  0  0  0  0  0  0  0  0  0
  -23.2760   17.0969  -14.3900 N   0  0  0  0  0  0  0  0  0  0  0  0
  -24.6005   17.4388  -14.2046 H   0  0  0  0  0  0  0  0  0  0  0  0
  -23.3506   16.1622  -13.4830 C   0  0  0  0  0  0  0  0  0  0  0  0
  -23.0234   14.8304  -13.8117 C   0  0  0  0  0  0  0  0  0  0  0  0
  -23.0790   13.8040  -12.9439 C   0  0  0  0  0  0  0  0  0  0  0  0
  -23.4849   14.0562  -11.6533 C   0  0  0  0  0  0  0  0  0  0  0  0
  -23.8166   15.3073  -11.2612 N   0  0  0  0  0  0  0  0  0  0  0  0
  -23.7510   16.3338  -12.1402 C   0  0  0  0  0  0  0  0  0  0  0  0
  -23.6186   13.0031  -10.6941 N   0  0  0  0  0  0  0  0  0  0  0  0
  -23.5984   13.3350   -9.2909 C   0  0  0  0  0  0  0  0  0  0  0  0
  -24.5178   12.5573   -8.4234 C   0  0  0  0  0  0  0  0  0  0  0  0
  -25.1643   11.3771   -9.0583 C   0  0  0  0  0  0  0  0  0  0  0  0
  -24.2915   10.7176  -10.1212 C   0  0  0  0  0  0  0  0  0  0  0  0
  -23.7397   11.6416  -11.1344 C   0  0  0  0  0  0  0  0  0  0  0  0
  -25.5793   10.3467   -8.1741 N   0  0  0  0  0  0  0  0  0  0  0  0
  -26.9182   10.4027   -7.6818 C   0  0  0  0  0  0  0  0  0  0  0  0
  -26.4293    9.6726   -6.4470 C   0  0  0  0  0  0  0  0  0  0  0  0
  -25.0724   10.2410   -6.8578 C   0  0  0  0  0  0  0  0  0  0  0  0
  -17.2496   11.5015  -21.3820 C   0  0  0  0  0  0  0  0  0  0  0  0
  -17.7529   11.1785  -19.9964 C   0  0  0  0  0  0  0  0  0  0  0  0
  -17.3989   10.0119  -19.4036 C   0  0  0  0  0  0  0  0  0  0  0  0
  -17.9133    9.7047  -18.1189 C   0  0  0  0  0  0  0  0  0  0  0  0
  -18.7729   10.6029  -17.4874 C   0  0  0  0  0  0  0  0  0  0  0  0
  -19.0733   11.7816  -18.1990 C   0  0  0  0  0  0  0  0  0  0  0  0
  -18.5949   12.0815  -19.3999 C   0  0  0  0  0  0  0  0  0  0  0  0
 18 19  2  0  0  0
 19 17  1  0  0  0
 17  1  1  0  0  0
  1  2  1  0  0  0
  2  3  1  0  0  0
  3  4  2  0  0  0
  3  5  1  0  0  0
  5  6  1  0  0  0
  6 20  1  0  0  0
 20 21  1  0  0  0
 21 22  2  0  0  0
 22 23  1  0  0  0
 23 24  2  0  0  0
 24 25  1  0  0  0
 24 26  1  0  0  0
 26 27  2  0  0  0
  6  7  1  0  0  0
  7  8  2  0  0  0
  7  9  1  0  0  0
  9 29  1  0  0  0
 29 30  1  0  0  0
 30 31  2  0  0  0
 31 32  1  0  0  0
 32 33  2  0  0  0
 33 34  1  0  0  0
 34 35  1  0  0  0
 35 40  1  0  0  0
 40 41  2  0  0  0
 40 42  1  0  0  0
 42 44  1  0  0  0
 44 45  2  0  0  0
 45 46  1  0  0  0
 46 47  2  0  0  0
 47 50  1  0  0  0
 50 51  1  0  0  0
 51 52  1  0  0  0
 52 53  1  0  0  0
 53 56  1  0  0  0
 56 57  1  0  0  0
 57 58  1  0  0  0
 58 59  1  0  0  0
 53 54  1  0  0  0
 54 55  1  0  0  0
 47 48  1  0  0  0
 48 49  2  0  0  0
 35 36  2  0  0  0
 36 37  1  0  0  0
 37 38  1  0  0  0
 37 39  1  0  0  0
  9 10  1  0  0  0
 10 11  1  0  0  0
 11 12  1  0  0  0
 12 13  1  0  0  0
 13 14  2  0  0  0
 13 15  1  0  0  0
 15 60  1  0  0  0
 60 61  1  0  0  0
 61 62  2  0  0  0
 62 63  1  0  0  0
 63 64  2  0  0  0
 64 65  1  0  0  0
 65 66  2  0  0  0
 12  1  1  0  0  0
 66 61  1  0  0  0
 11  5  1  0  0  0
 27 21  1  0  0  0
 39 30  1  0  0  0
 39 34  2  0  0  0
 49 44  1  0  0  0
 55 50  1  0  0  0
 59 56  1  0  0  0
 25 28  1  0  0  0
 42 43  1  0  0  0
 15 16  1  0  0  0
M  END
> <minimizedAffinity>
-9.09910

> <CNNscore>
0.0431400165

> <CNNaffinity>
7.5642356873

> <CNN_VS>
0.3263212442

> <CNNaffinity_variance>
0.1271053851

$$$$
[H]Oc1c([H])c([H])c(C([H])([H])[C@@]2([H])C(=O)N(C([H])([H])c3c([H])c([H])c([H])c4c(C(=O)N([H])c5c([H])nc(N6C([H])([H])C([H])([H])C([H])(N7C([H])([H])C([H])([H])C7([H])[H])C([H])([H])C6([H])[H])c([H])c5[H])c([H])n(C([H])([H])[H])c34)C([H])([H])[C@]3([H])N(C(=O)N([H])C([H])([H])c4c([H])c([H])c([H])c([H])c4[H])N(C([H])([H])C([H])=C([H])[H])C([H])([H])C(=O)N23)c([H])c1[H]


 66 74  0  0  0  0  0  0  0  0999 V2000
  -23.8053   20.1609  -13.3959 N   0  0  0  0  0  0  0  0  0  0  0  0
  -24.5257   21.1371  -12.5984 C   0  0  0  0  0  0  0  0  0  0  0  0
  -23.4395   22.1468  -12.2679 C   0  0  0  0  0  0  0  0  0  0  0  0
  -23.2999   22.4523  -11.0697 O   0  0  0  0  0  0  0  0  0  0  0  0
  -22.6674   22.6782  -13.3009 N   0  0  0  0  0  0  0  0  0  0  0  0
  -22.0414   23.9621  -13.1620 C   0  0  0  0  0  0  0  0  0  0  0  0
  -22.9023   24.8386  -14.0411 C   0  0  0  0  0  0  0  0  0  0  0  0
  -23.2392   25.9542  -13.6830 O   0  0  0  0  0  0  0  0  0  0  0  0
  -23.2939   24.3105  -15.2872 N   0  0  0  0  0  0  0  0  0  0  0  0
  -22.9618   22.9240  -15.6964 C   0  0  0  0  0  0  0  0  0  0  0  0
  -22.5568   22.0233  -14.5774 C   0  0  0  0  0  0  0  0  0  0  0  0
  -23.1728   20.7171  -14.5297 N   0  0  0  0  0  0  0  0  0  0  0  0
  -23.1573   19.8541  -15.6691 C   0  0  0  0  0  0  0  0  0  0  0  0
  -23.7785   18.7441  -15.5558 O   0  0  0  0  0  0  0  0  0  0  0  0
  -22.5339   20.0834  -16.9018 N   0  0  0  0  0  0  0  0  0  0  0  0
  -22.0084   20.9398  -17.0789 H   0  0  0  0  0  0  0  0  0  0  0  0
  -22.8561   19.5745  -12.4618 C   0  0  0  0  0  0  0  0  0  0  0  0
  -22.8621   17.8675  -10.7360 C   0  0  0  0  0  0  0  0  0  0  0  0
  -23.2586   18.3075  -11.8998 C   0  0  0  0  0  0  0  0  0  0  0  0
  -20.6161   24.1036  -13.4920 C   0  0  0  0  0  0  0  0  0  0  0  0
  -19.6416   24.3156  -12.4187 C   0  0  0  0  0  0  0  0  0  0  0  0
  -18.2760   24.1586  -12.6622 C   0  0  0  0  0  0  0  0  0  0  0  0
  -17.3581   24.2914  -11.6424 C   0  0  0  0  0  0  0  0  0  0  0  0
  -17.7259   24.5799  -10.3434 C   0  0  0  0  0  0  0  0  0  0  0  0
  -16.7547   24.7023   -9.3677 O   0  0  0  0  0  0  0  0  0  0  0  0
  -19.0623   24.7330  -10.1001 C   0  0  0  0  0  0  0  0  0  0  0  0
  -20.0029   24.6018  -11.1215 C   0  0  0  0  0  0  0  0  0  0  0  0
  -15.7656   24.5887   -9.5609 H   0  0  0  0  0  0  0  0  0  0  0  0
  -24.0846   25.0469  -16.2750 C   0  0  0  0  0  0  0  0  0  0  0  0
  -24.5910   24.1108  -17.2833 C   0  0  0  0  0  0  0  0  0  0  0  0
  -25.6484   23.2775  -17.0271 C   0  0  0  0  0  0  0  0  0  0  0  0
  -26.0967   22.3510  -17.9529 C   0  0  0  0  0  0  0  0  0  0  0  0
  -25.4717   22.2481  -19.1822 C   0  0  0  0  0  0  0  0  0  0  0  0
  -24.3910   23.0961  -19.4555 C   0  0  0  0  0  0  0  0  0  0  0  0
  -23.6132   23.2383  -20.5556 C   0  0  0  0  0  0  0  0  0  0  0  0
  -22.7232   24.2371  -20.2822 C   0  0  0  0  0  0  0  0  0  0  0  0
  -22.9121   24.7278  -19.0446 N   0  0  0  0  0  0  0  0  0  0  0  0
  -22.1614   25.7872  -18.4179 C   0  0  0  0  0  0  0  0  0  0  0  0
  -23.9515   24.0208  -18.5159 C   0  0  0  0  0  0  0  0  0  0  0  0
  -23.6317   22.4700  -21.8476 C   0  0  0  0  0  0  0  0  0  0  0  0
  -24.4902   22.7492  -22.7116 O   0  0  0  0  0  0  0  0  0  0  0  0
  -22.6467   21.4752  -21.9885 N   0  0  0  0  0  0  0  0  0  0  0  0
  -22.9831   21.4169  -23.3261 H   0  0  0  0  0  0  0  0  0  0  0  0
  -21.7403   20.5489  -22.1367 C   0  0  0  0  0  0  0  0  0  0  0  0
  -20.6471   20.4809  -21.2484 C   0  0  0  0  0  0  0  0  0  0  0  0
  -19.6643   19.5660  -21.3308 C   0  0  0  0  0  0  0  0  0  0  0  0
  -19.7150   18.6368  -22.3446 C   0  0  0  0  0  0  0  0  0  0  0  0
  -20.7309   18.6372  -23.2373 N   0  0  0  0  0  0  0  0  0  0  0  0
  -21.7180   19.5577  -23.1418 C   0  0  0  0  0  0  0  0  0  0  0  0
  -18.6755   17.6701  -22.5232 N   0  0  0  0  0  0  0  0  0  0  0  0
  -18.8426   16.6478  -23.5265 C   0  0  0  0  0  0  0  0  0  0  0  0
  -17.6210   16.2648  -24.2774 C   0  0  0  0  0  0  0  0  0  0  0  0
  -16.3388   16.7999  -23.7447 C   0  0  0  0  0  0  0  0  0  0  0  0
  -16.3460   16.9692  -22.2288 C   0  0  0  0  0  0  0  0  0  0  0  0
  -17.5059   17.7108  -21.6909 C   0  0  0  0  0  0  0  0  0  0  0  0
  -15.1741   16.0545  -24.0666 N   0  0  0  0  0  0  0  0  0  0  0  0
  -14.9957   15.6703  -25.4299 C   0  0  0  0  0  0  0  0  0  0  0  0
  -14.2124   14.4746  -24.9261 C   0  0  0  0  0  0  0  0  0  0  0  0
  -14.9999   14.7173  -23.6400 C   0  0  0  0  0  0  0  0  0  0  0  0
  -22.5991   19.1011  -17.9803 C   0  0  0  0  0  0  0  0  0  0  0  0
  -21.2794   18.3820  -18.1174 C   0  0  0  0  0  0  0  0  0  0  0  0
  -20.1445   18.9572  -17.6497 C   0  0  0  0  0  0  0  0  0  0  0  0
  -18.9072   18.2874  -17.8230 C   0  0  0  0  0  0  0  0  0  0  0  0
  -18.8761   17.0527  -18.4701 C   0  0  0  0  0  0  0  0  0  0  0  0
  -20.1160   16.5528  -18.9164 C   0  0  0  0  0  0  0  0  0  0  0  0
  -21.2804   17.1688  -18.7563 C   0  0  0  0  0  0  0  0  0  0  0  0
 18 19  2  0  0  0
 19 17  1  0  0  0
 17  1  1  0  0  0
  1  2  1  0  0  0
  2  3  1  0  0  0
  3  4  2  0  0  0
  3  5  1  0  0  0
  5  6  1  0  0  0
  6 20  1  0  0  0
 20 21  1  0  0  0
 21 22  2  0  0  0
 22 23  1  0  0  0
 23 24  2  0  0  0
 24 25  1  0  0  0
 24 26  1  0  0  0
 26 27  2  0  0  0
  6  7  1  0  0  0
  7  8  2  0  0  0
  7  9  1  0  0  0
  9 29  1  0  0  0
 29 30  1  0  0  0
 30 31  2  0  0  0
 31 32  1  0  0  0
 32 33  2  0  0  0
 33 34  1  0  0  0
 34 35  1  0  0  0
 35 40  1  0  0  0
 40 41  2  0  0  0
 40 42  1  0  0  0
 42 44  1  0  0  0
 44 45  2  0  0  0
 45 46  1  0  0  0
 46 47  2  0  0  0
 47 50  1  0  0  0
 50 51  1  0  0  0
 51 52  1  0  0  0
 52 53  1  0  0  0
 53 56  1  0  0  0
 56 57  1  0  0  0
 57 58  1  0  0  0
 58 59  1  0  0  0
 53 54  1  0  0  0
 54 55  1  0  0  0
 47 48  1  0  0  0
 48 49  2  0  0  0
 35 36  2  0  0  0
 36 37  1  0  0  0
 37 38  1  0  0  0
 37 39  1  0  0  0
  9 10  1  0  0  0
 10 11  1  0  0  0
 11 12  1  0  0  0
 12 13  1  0  0  0
 13 14  2  0  0  0
 13 15  1  0  0  0
 15 60  1  0  0  0
 60 61  1  0  0  0
 61 62  2  0  0  0
 62 63  1  0  0  0
 63 64  2  0  0  0
 64 65  1  0  0  0
 65 66  2  0  0  0
 12  1  1  0  0  0
 66 61  1  0  0  0
 11  5  1  0  0  0
 27 21  1  0  0  0
 39 30  1  0  0  0
 39 34  2  0  0  0
 49 44  1  0  0  0
 55 50  1  0  0  0
 59 56  1  0  0  0
 25 28  1  0  0  0
 42 43  1  0  0  0
 15 16  1  0  0  0
M  END
> <minimizedAffinity>
-7.23991

> <CNNscore>
0.0422962755

> <CNNaffinity>
6.6395668983

> <CNN_VS>
0.2808289528

> <CNNaffinity_variance>
0.5134078264

$$$$
[H]Oc1c([H])c([H])c(C([H])([H])[C@@]2([H])C(=O)N(C([H])([H])c3c([H])c([H])c([H])c4c(C(=O)N([H])c5c([H])nc(N6C([H])([H])C([H])([H])C([H])(N7C([H])([H])C([H])([H])C7([H])[H])C([H])([H])C6([H])[H])c([H])c5[H])c([H])n(C([H])([H])[H])c34)C([H])([H])[C@]3([H])N(C(=O)N([H])C([H])([H])c4c([H])c([H])c([H])c([H])c4[H])N(C([H])([H])C([H])=C([H])[H])C([H])([H])C(=O)N23)c([H])c1[H]


 66 74  0  0  0  0  0  0  0  0999 V2000
  -15.9487   15.2387  -24.0606 N   0  0  0  0  0  0  0  0  0  0  0  0
  -15.6289   16.6540  -24.0097 C   0  0  0  0  0  0  0  0  0  0  0  0
  -16.9918   17.2985  -24.1989 C   0  0  0  0  0  0  0  0  0  0  0  0
  -17.0864   18.1665  -25.0855 O   0  0  0  0  0  0  0  0  0  0  0  0
  -18.0517   16.9001  -23.3844 N   0  0  0  0  0  0  0  0  0  0  0  0
  -19.1525   17.7849  -23.1293 C   0  0  0  0  0  0  0  0  0  0  0  0
  -18.8930   18.2225  -21.7069 C   0  0  0  0  0  0  0  0  0  0  0  0
  -19.0349   19.3852  -21.3687 O   0  0  0  0  0  0  0  0  0  0  0  0
  -18.4833   17.2302  -20.7945 N   0  0  0  0  0  0  0  0  0  0  0  0
  -18.2251   15.8310  -21.2136 C   0  0  0  0  0  0  0  0  0  0  0  0
  -18.0365   15.6442  -22.6823 C   0  0  0  0  0  0  0  0  0  0  0  0
  -16.9093   14.8441  -23.1034 N   0  0  0  0  0  0  0  0  0  0  0  0
  -16.6996   13.5326  -22.5750 C   0  0  0  0  0  0  0  0  0  0  0  0
  -15.6450   12.9225  -22.9578 O   0  0  0  0  0  0  0  0  0  0  0  0
  -17.5220   12.8327  -21.6837 N   0  0  0  0  0  0  0  0  0  0  0  0
  -18.3889   13.2393  -21.3315 H   0  0  0  0  0  0  0  0  0  0  0  0
  -16.4066   15.0299  -25.4260 C   0  0  0  0  0  0  0  0  0  0  0  0
  -15.6578   15.5621  -27.6729 C   0  0  0  0  0  0  0  0  0  0  0  0
  -15.3975   15.2144  -26.4413 C   0  0  0  0  0  0  0  0  0  0  0  0
  -20.5254   17.2873  -23.2972 C   0  0  0  0  0  0  0  0  0  0  0  0
  -21.5999   17.8304  -22.4625 C   0  0  0  0  0  0  0  0  0  0  0  0
  -22.0184   17.1503  -21.3174 C   0  0  0  0  0  0  0  0  0  0  0  0
  -23.0726   17.6204  -20.5638 C   0  0  0  0  0  0  0  0  0  0  0  0
  -23.7666   18.7685  -20.8901 C   0  0  0  0  0  0  0  0  0  0  0  0
  -24.8130   19.1868  -20.0901 O   0  0  0  0  0  0  0  0  0  0  0  0
  -23.3612   19.4368  -22.0115 C   0  0  0  0  0  0  0  0  0  0  0  0
  -22.2962   18.9737  -22.7840 C   0  0  0  0  0  0  0  0  0  0  0  0
  -25.1032   18.6836  -19.2588 H   0  0  0  0  0  0  0  0  0  0  0  0
  -18.2394   17.4778  -19.3724 C   0  0  0  0  0  0  0  0  0  0  0  0
  -19.4130   17.0571  -18.6008 C   0  0  0  0  0  0  0  0  0  0  0  0
  -19.8102   15.7465  -18.5492 C   0  0  0  0  0  0  0  0  0  0  0  0
  -20.9490   15.3486  -17.8701 C   0  0  0  0  0  0  0  0  0  0  0  0
  -21.7238   16.2883  -17.2151 C   0  0  0  0  0  0  0  0  0  0  0  0
  -21.3262   17.6307  -17.2597 C   0  0  0  0  0  0  0  0  0  0  0  0
  -21.8594   18.7469  -16.7076 C   0  0  0  0  0  0  0  0  0  0  0  0
  -21.0434   19.7857  -17.0533 C   0  0  0  0  0  0  0  0  0  0  0  0
  -20.0144   19.3617  -17.8079 N   0  0  0  0  0  0  0  0  0  0  0  0
  -18.9567   20.1765  -18.3522 C   0  0  0  0  0  0  0  0  0  0  0  0
  -20.1809   18.0153  -17.9463 C   0  0  0  0  0  0  0  0  0  0  0  0
  -23.1133   18.9082  -15.8940 C   0  0  0  0  0  0  0  0  0  0  0  0
  -23.2289   19.8983  -15.1406 O   0  0  0  0  0  0  0  0  0  0  0  0
  -24.0882   17.9069  -16.0572 N   0  0  0  0  0  0  0  0  0  0  0  0
  -24.9642   18.7350  -15.3844 H   0  0  0  0  0  0  0  0  0  0  0  0
  -25.0036   16.9879  -16.1961 C   0  0  0  0  0  0  0  0  0  0  0  0
  -24.9455   15.8097  -15.4233 C   0  0  0  0  0  0  0  0  0  0  0  0
  -25.8403   14.8086  -15.5063 C   0  0  0  0  0  0  0  0  0  0  0  0
  -26.8783   14.9278  -16.4019 C   0  0  0  0  0  0  0  0  0  0  0  0
  -27.0022   16.0273  -17.1796 N   0  0  0  0  0  0  0  0  0  0  0  0
  -26.1004   17.0315  -17.0838 C   0  0  0  0  0  0  0  0  0  0  0  0
  -27.8340   13.8782  -16.5802 N   0  0  0  0  0  0  0  0  0  0  0  0
  -27.9359   13.2434  -17.8710 C   0  0  0  0  0  0  0  0  0  0  0  0
  -28.1879   11.7808  -17.8606 C   0  0  0  0  0  0  0  0  0  0  0  0
  -28.5435   11.1941  -16.5403 C   0  0  0  0  0  0  0  0  0  0  0  0
  -29.3103   12.1610  -15.6439 C   0  0  0  0  0  0  0  0  0  0  0  0
  -28.6907   13.4945  -15.4933 C   0  0  0  0  0  0  0  0  0  0  0  0
  -29.2948    9.9900  -16.5786 N   0  0  0  0  0  0  0  0  0  0  0  0
  -28.6335    8.7896  -16.1786 C   0  0  0  0  0  0  0  0  0  0  0  0
  -29.5675    8.0389  -17.1065 C   0  0  0  0  0  0  0  0  0  0  0  0
  -29.6926    9.3948  -17.7985 C   0  0  0  0  0  0  0  0  0  0  0  0
  -17.1799   11.4870  -21.2314 C   0  0  0  0  0  0  0  0  0  0  0  0
  -17.7835   11.2188  -19.8745 C   0  0  0  0  0  0  0  0  0  0  0  0
  -17.5120   10.0566  -19.2318 C   0  0  0  0  0  0  0  0  0  0  0  0
  -18.1196    9.8019  -17.9766 C   0  0  0  0  0  0  0  0  0  0  0  0
  -18.9845   10.7462  -17.4248 C   0  0  0  0  0  0  0  0  0  0  0  0
  -19.1945   11.9155  -18.1829 C   0  0  0  0  0  0  0  0  0  0  0  0
  -18.6284   12.1665  -19.3566 C   0  0  0  0  0  0  0  0  0  0  0  0
 18 19  2  0  0  0
 19 17  1  0  0  0
 17  1  1  0  0  0
  1  2  1  0  0  0
  2  3  1  0  0  0
  3  4  2  0  0  0
  3  5  1  0  0  0
  5  6  1  0  0  0
  6 20  1  0  0  0
 20 21  1  0  0  0
 21 22  2  0  0  0
 22 23  1  0  0  0
 23 24  2  0  0  0
 24 25  1  0  0  0
 24 26  1  0  0  0
 26 27  2  0  0  0
  6  7  1  0  0  0
  7  8  2  0  0  0
  7  9  1  0  0  0
  9 29  1  0  0  0
 29 30  1  0  0  0
 30 31  2  0  0  0
 31 32  1  0  0  0
 32 33  2  0  0  0
 33 34  1  0  0  0
 34 35  1  0  0  0
 35 40  1  0  0  0
 40 41  2  0  0  0
 40 42  1  0  0  0
 42 44  1  0  0  0
 44 45  2  0  0  0
 45 46  1  0  0  0
 46 47  2  0  0  0
 47 50  1  0  0  0
 50 51  1  0  0  0
 51 52  1  0  0  0
 52 53  1  0  0  0
 53 56  1  0  0  0
 56 57  1  0  0  0
 57 58  1  0  0  0
 58 59  1  0  0  0
 53 54  1  0  0  0
 54 55  1  0  0  0
 47 48  1  0  0  0
 48 49  2  0  0  0
 35 36  2  0  0  0
 36 37  1  0  0  0
 37 38  1  0  0  0
 37 39  1  0  0  0
  9 10  1  0  0  0
 10 11  1  0  0  0
 11 12  1  0  0  0
 12 13  1  0  0  0
 13 14  2  0  0  0
 13 15  1  0  0  0
 15 60  1  0  0  0
 60 61  1  0  0  0
 61 62  2  0  0  0
 62 63  1  0  0  0
 63 64  2  0  0  0
 64 65  1  0  0  0
 65 66  2  0  0  0
 12  1  1  0  0  0
 66 61  1  0  0  0
 11  5  1  0  0  0
 27 21  1  0  0  0
 39 30  1  0  0  0
 39 34  2  0  0  0
 49 44  1  0  0  0
 55 50  1  0  0  0
 59 56  1  0  0  0
 25 28  1  0  0  0
 42 43  1  0  0  0
 15 16  1  0  0  0
M  END
> <minimizedAffinity>
-10.07204

> <CNNscore>
0.0394558944

> <CNNaffinity>
7.5349578857

> <CNN_VS>
0.2972984910

> <CNNaffinity_variance>
0.7207595706

$$$$
[H]Oc1c([H])c([H])c(C([H])([H])[C@@]2([H])C(=O)N(C([H])([H])c3c([H])c([H])c([H])c4c(C(=O)N([H])c5c([H])nc(N6C([H])([H])C([H])([H])C([H])(N7C([H])([H])C([H])([H])C7([H])[H])C([H])([H])C6([H])[H])c([H])c5[H])c([H])n(C([H])([H])[H])c34)C([H])([H])[C@]3([H])N(C(=O)N([H])C([H])([H])c4c([H])c([H])c([H])c([H])c4[H])N(C([H])([H])C([H])=C([H])[H])C([H])([H])C(=O)N23)c([H])c1[H]


 66 74  0  0  0  0  0  0  0  0999 V2000
  -19.2587   20.8996  -23.5751 N   0  0  0  0  0  0  0  0  0  0  0  0
  -19.5994   21.9017  -22.5814 C   0  0  0  0  0  0  0  0  0  0  0  0
  -21.0547   21.5797  -22.2860 C   0  0  0  0  0  0  0  0  0  0  0  0
  -21.8650   22.5217  -22.3533 O   0  0  0  0  0  0  0  0  0  0  0  0
  -21.4084   20.2718  -21.9550 N   0  0  0  0  0  0  0  0  0  0  0  0
  -22.5798   20.0059  -21.1697 C   0  0  0  0  0  0  0  0  0  0  0  0
  -21.9931   19.6452  -19.8252 C   0  0  0  0  0  0  0  0  0  0  0  0
  -22.4803   20.0673  -18.7905 O   0  0  0  0  0  0  0  0  0  0  0  0
  -20.8643   18.8021  -19.8228 N   0  0  0  0  0  0  0  0  0  0  0  0
  -20.2123   18.3525  -21.0769 C   0  0  0  0  0  0  0  0  0  0  0  0
  -20.5663   19.1529  -22.2859 C   0  0  0  0  0  0  0  0  0  0  0  0
  -19.4771   19.5750  -23.1364 N   0  0  0  0  0  0  0  0  0  0  0  0
  -18.5234   18.6330  -23.6327 C   0  0  0  0  0  0  0  0  0  0  0  0
  -17.5603   19.1040  -24.3267 O   0  0  0  0  0  0  0  0  0  0  0  0
  -18.5234   17.2448  -23.4488 N   0  0  0  0  0  0  0  0  0  0  0  0
  -19.2585   16.7809  -22.9148 H   0  0  0  0  0  0  0  0  0  0  0  0
  -20.0825   21.2476  -24.7230 C   0  0  0  0  0  0  0  0  0  0  0  0
  -20.0122   22.5670  -26.7594 C   0  0  0  0  0  0  0  0  0  0  0  0
  -19.5265   22.2621  -25.5861 C   0  0  0  0  0  0  0  0  0  0  0  0
  -23.5354   18.9884  -21.6303 C   0  0  0  0  0  0  0  0  0  0  0  0
  -23.7258   18.7708  -23.0665 C   0  0  0  0  0  0  0  0  0  0  0  0
  -23.4442   17.5281  -23.6370 C   0  0  0  0  0  0  0  0  0  0  0  0
  -23.5574   17.3348  -24.9971 C   0  0  0  0  0  0  0  0  0  0  0  0
  -23.9464   18.3386  -25.8615 C   0  0  0  0  0  0  0  0  0  0  0  0
  -24.0425   18.0777  -27.2152 O   0  0  0  0  0  0  0  0  0  0  0  0
  -24.2217   19.5575  -25.3073 C   0  0  0  0  0  0  0  0  0  0  0  0
  -24.1118   19.7685  -23.9330 C   0  0  0  0  0  0  0  0  0  0  0  0
  -23.8378   17.1682  -27.6145 H   0  0  0  0  0  0  0  0  0  0  0  0
  -20.2071   18.3194  -18.6069 C   0  0  0  0  0  0  0  0  0  0  0  0
  -20.7555   17.0074  -18.2499 C   0  0  0  0  0  0  0  0  0  0  0  0
  -22.0834   16.8360  -17.9578 C   0  0  0  0  0  0  0  0  0  0  0  0
  -22.5988   15.6128  -17.5647 C   0  0  0  0  0  0  0  0  0  0  0  0
  -21.7636   14.5158  -17.4583 C   0  0  0  0  0  0  0  0  0  0  0  0
  -20.4048   14.6790  -17.7563 C   0  0  0  0  0  0  0  0  0  0  0  0
  -19.3724   13.8018  -17.7635 C   0  0  0  0  0  0  0  0  0  0  0  0
  -18.2666   14.4982  -18.1595 C   0  0  0  0  0  0  0  0  0  0  0  0
  -18.5670   15.7867  -18.3996 N   0  0  0  0  0  0  0  0  0  0  0  0
  -17.6536   16.8140  -18.8345 C   0  0  0  0  0  0  0  0  0  0  0  0
  -19.9015   15.9134  -18.1488 C   0  0  0  0  0  0  0  0  0  0  0  0
  -19.3499   12.3457  -17.3904 C   0  0  0  0  0  0  0  0  0  0  0  0
  -18.8236   11.5238  -18.1706 O   0  0  0  0  0  0  0  0  0  0  0  0
  -19.9324   12.0164  -16.1527 N   0  0  0  0  0  0  0  0  0  0  0  0
  -19.3495   10.7714  -16.2783 H   0  0  0  0  0  0  0  0  0  0  0  0
  -20.4679   11.6926  -15.0081 C   0  0  0  0  0  0  0  0  0  0  0  0
  -21.4899   12.4913  -14.4545 C   0  0  0  0  0  0  0  0  0  0  0  0
  -22.0919   12.2374  -13.2786 C   0  0  0  0  0  0  0  0  0  0  0  0
  -21.6897   11.1354  -12.5591 C   0  0  0  0  0  0  0  0  0  0  0  0
  -20.7147   10.3209  -13.0227 N   0  0  0  0  0  0  0  0  0  0  0  0
  -20.1200   10.5815  -14.2097 C   0  0  0  0  0  0  0  0  0  0  0  0
  -22.2492   10.8370  -11.2766 N   0  0  0  0  0  0  0  0  0  0  0  0
  -23.5123   11.4311  -10.9144 C   0  0  0  0  0  0  0  0  0  0  0  0
  -24.4377   10.5718  -10.1348 C   0  0  0  0  0  0  0  0  0  0  0  0
  -23.8609    9.3016   -9.6171 C   0  0  0  0  0  0  0  0  0  0  0  0
  -22.3755    9.4103   -9.2883 C   0  0  0  0  0  0  0  0  0  0  0  0
  -21.5403    9.9838  -10.3645 C   0  0  0  0  0  0  0  0  0  0  0  0
  -24.4940    8.7551   -8.4697 N   0  0  0  0  0  0  0  0  0  0  0  0
  -24.2360    7.3840   -8.1670 C   0  0  0  0  0  0  0  0  0  0  0  0
  -25.6027    7.3348   -7.5141 C   0  0  0  0  0  0  0  0  0  0  0  0
  -25.8895    8.5300   -8.4210 C   0  0  0  0  0  0  0  0  0  0  0  0
  -17.4786   16.4024  -24.0243 C   0  0  0  0  0  0  0  0  0  0  0  0
  -17.4315   15.0683  -23.3204 C   0  0  0  0  0  0  0  0  0  0  0  0
  -17.4001   13.9228  -24.0446 C   0  0  0  0  0  0  0  0  0  0  0  0
  -17.3978   12.6768  -23.3686 C   0  0  0  0  0  0  0  0  0  0  0  0
  -17.4286   12.6483  -21.9749 C   0  0  0  0  0  0  0  0  0  0  0  0
  -17.4624   13.8997  -21.3276 C   0  0  0  0  0  0  0  0  0  0  0  0
  -17.4610   15.0720  -21.9495 C   0  0  0  0  0  0  0  0  0  0  0  0
 18 19  2  0  0  0
 19 17  1  0  0  0
 17  1  1  0  0  0
  1  2  1  0  0  0
  2  3  1  0  0  0
  3  4  2  0  0  0
  3  5  1  0  0  0
  5  6  1  0  0  0
  6 20  1  0  0  0
 20 21  1  0  0  0
 21 22  2  0  0  0
 22 23  1  0  0  0
 23 24  2  0  0  0
 24 25  1  0  0  0
 24 26  1  0  0  0
 26 27  2  0  0  0
  6  7  1  0  0  0
  7  8  2  0  0  0
  7  9  1  0  0  0
  9 29  1  0  0  0
 29 30  1  0  0  0
 30 31  2  0  0  0
 31 32  1  0  0  0
 32 33  2  0  0  0
 33 34  1  0  0  0
 34 35  1  0  0  0
 35 40  1  0  0  0
 40 41  2  0  0  0
 40 42  1  0  0  0
 42 44  1  0  0  0
 44 45  2  0  0  0
 45 46  1  0  0  0
 46 47  2  0  0  0
 47 50  1  0  0  0
 50 51  1  0  0  0
 51 52  1  0  0  0
 52 53  1  0  0  0
 53 56  1  0  0  0
 56 57  1  0  0  0
 57 58  1  0  0  0
 58 59  1  0  0  0
 53 54  1  0  0  0
 54 55  1  0  0  0
 47 48  1  0  0  0
 48 49  2  0  0  0
 35 36  2  0  0  0
 36 37  1  0  0  0
 37 38  1  0  0  0
 37 39  1  0  0  0
  9 10  1  0  0  0
 10 11  1  0  0  0
 11 12  1  0  0  0
 12 13  1  0  0  0
 13 14  2  0  0  0
 13 15  1  0  0  0
 15 60  1  0  0  0
 60 61  1  0  0  0
 61 62  2  0  0  0
 62 63  1  0  0  0
 63 64  2  0  0  0
 64 65  1  0  0  0
 65 66  2  0  0  0
 12  1  1  0  0  0
 66 61  1  0  0  0
 11  5  1  0  0  0
 27 21  1  0  0  0
 39 30  1  0  0  0
 39 34  2  0  0  0
 49 44  1  0  0  0
 55 50  1  0  0  0
 59 56  1  0  0  0
 25 28  1  0  0  0
 42 43  1  0  0  0
 15 16  1  0  0  0
M  END
> <minimizedAffinity>
-8.23963

> <CNNscore>
0.0363780484

> <CNNaffinity>
6.9244394302

> <CNN_VS>
0.2518976033

> <CNNaffinity_variance>
0.6605225801

$$$$
[H]Oc1c([H])c([H])c(C([H])([H])[C@@]2([H])C(=O)N(C([H])([H])c3c([H])c([H])c([H])c4c(C(=O)N([H])c5c([H])nc(N6C([H])([H])C([H])([H])C([H])(N7C([H])([H])C([H])([H])C7([H])[H])C([H])([H])C6([H])[H])c([H])c5[H])c([H])n(C([H])([H])[H])c34)C([H])([H])[C@]3([H])N(C(=O)N([H])C([H])([H])c4c([H])c([H])c([H])c([H])c4[H])N(C([H])([H])C([H])=C([H])[H])C([H])([H])C(=O)N23)c([H])c1[H]


 66 74  0  0  0  0  0  0  0  0999 V2000
  -15.8595   15.2794  -24.4134 N   0  0  0  0  0  0  0  0  0  0  0  0
  -15.4822   16.6806  -24.4592 C   0  0  0  0  0  0  0  0  0  0  0  0
  -16.8326   17.3769  -24.4728 C   0  0  0  0  0  0  0  0  0  0  0  0
  -17.0220   18.2216  -25.3667 O   0  0  0  0  0  0  0  0  0  0  0  0
  -17.7773   17.0483  -23.5006 N   0  0  0  0  0  0  0  0  0  0  0  0
  -18.7949   17.9864  -23.1212 C   0  0  0  0  0  0  0  0  0  0  0  0
  -18.3151   18.4544  -21.7673 C   0  0  0  0  0  0  0  0  0  0  0  0
  -18.3621   19.6315  -21.4536 O   0  0  0  0  0  0  0  0  0  0  0  0
  -17.8152   17.4728  -20.8889 N   0  0  0  0  0  0  0  0  0  0  0  0
  -17.6740   16.0521  -21.2911 C   0  0  0  0  0  0  0  0  0  0  0  0
  -17.7080   15.8142  -22.7641 C   0  0  0  0  0  0  0  0  0  0  0  0
  -16.6851   14.9546  -23.3145 N   0  0  0  0  0  0  0  0  0  0  0  0
  -16.4508   13.6515  -22.7757 C   0  0  0  0  0  0  0  0  0  0  0  0
  -15.4869   12.9858  -23.2845 O   0  0  0  0  0  0  0  0  0  0  0  0
  -17.1610   13.0139  -21.7512 N   0  0  0  0  0  0  0  0  0  0  0  0
  -17.9514   13.4674  -21.2924 H   0  0  0  0  0  0  0  0  0  0  0  0
  -16.5184   15.0502  -25.6904 C   0  0  0  0  0  0  0  0  0  0  0  0
  -16.1320   15.2448  -28.0789 C   0  0  0  0  0  0  0  0  0  0  0  0
  -15.6876   15.2637  -26.8511 C   0  0  0  0  0  0  0  0  0  0  0  0
  -20.1955   17.5431  -23.0720 C   0  0  0  0  0  0  0  0  0  0  0  0
  -21.2608   18.4615  -23.4819 C   0  0  0  0  0  0  0  0  0  0  0  0
  -22.5802   18.0158  -23.5795 C   0  0  0  0  0  0  0  0  0  0  0  0
  -23.5769   18.8558  -24.0279 C   0  0  0  0  0  0  0  0  0  0  0  0
  -23.3359   20.1626  -24.4025 C   0  0  0  0  0  0  0  0  0  0  0  0
  -24.3812   20.9531  -24.8412 O   0  0  0  0  0  0  0  0  0  0  0  0
  -22.0452   20.6029  -24.3100 C   0  0  0  0  0  0  0  0  0  0  0  0
  -21.0259   19.7649  -23.8580 C   0  0  0  0  0  0  0  0  0  0  0  0
  -25.3356   20.6158  -24.9033 H   0  0  0  0  0  0  0  0  0  0  0  0
  -17.3581   17.7516  -19.5264 C   0  0  0  0  0  0  0  0  0  0  0  0
  -18.0748   16.8814  -18.5890 C   0  0  0  0  0  0  0  0  0  0  0  0
  -17.7571   15.5558  -18.4488 C   0  0  0  0  0  0  0  0  0  0  0  0
  -18.4653   14.7140  -17.6084 C   0  0  0  0  0  0  0  0  0  0  0  0
  -19.5302   15.2074  -16.8772 C   0  0  0  0  0  0  0  0  0  0  0  0
  -19.8627   16.5614  -17.0113 C   0  0  0  0  0  0  0  0  0  0  0  0
  -20.8190   17.3170  -16.4200 C   0  0  0  0  0  0  0  0  0  0  0  0
  -20.6725   18.5861  -16.9024 C   0  0  0  0  0  0  0  0  0  0  0  0
  -19.6568   18.6551  -17.7809 N   0  0  0  0  0  0  0  0  0  0  0  0
  -19.2120   19.8306  -18.4874 C   0  0  0  0  0  0  0  0  0  0  0  0
  -19.1432   17.3943  -17.8597 C   0  0  0  0  0  0  0  0  0  0  0  0
  -21.8906   16.9155  -15.4451 C   0  0  0  0  0  0  0  0  0  0  0  0
  -22.6184   17.7970  -14.9407 O   0  0  0  0  0  0  0  0  0  0  0  0
  -21.9972   15.5382  -15.1775 N   0  0  0  0  0  0  0  0  0  0  0  0
  -23.2046   15.8120  -14.5670 H   0  0  0  0  0  0  0  0  0  0  0  0
  -22.1108   14.2649  -14.9177 C   0  0  0  0  0  0  0  0  0  0  0  0
  -21.5079   13.3136  -15.7664 C   0  0  0  0  0  0  0  0  0  0  0  0
  -21.5798   11.9833  -15.5794 C   0  0  0  0  0  0  0  0  0  0  0  0
  -22.2883   11.5092  -14.4991 C   0  0  0  0  0  0  0  0  0  0  0  0
  -22.8960   12.3584  -13.6397 N   0  0  0  0  0  0  0  0  0  0  0  0
  -22.8121   13.6949  -13.8331 C   0  0  0  0  0  0  0  0  0  0  0  0
  -22.4507   10.1061  -14.2712 N   0  0  0  0  0  0  0  0  0  0  0  0
  -23.3339    9.3600  -15.1331 C   0  0  0  0  0  0  0  0  0  0  0  0
  -22.8943    7.9872  -15.4866 C   0  0  0  0  0  0  0  0  0  0  0  0
  -21.7298    7.4631  -14.7229 C   0  0  0  0  0  0  0  0  0  0  0  0
  -21.6589    8.0014  -13.2976 C   0  0  0  0  0  0  0  0  0  0  0  0
  -21.7639    9.4711  -13.1814 C   0  0  0  0  0  0  0  0  0  0  0  0
  -21.6339    6.0496  -14.6307 N   0  0  0  0  0  0  0  0  0  0  0  0
  -22.2547    5.2800  -15.6604 C   0  0  0  0  0  0  0  0  0  0  0  0
  -22.4336    4.1734  -14.6406 C   0  0  0  0  0  0  0  0  0  0  0  0
  -22.3194    5.3165  -13.6340 C   0  0  0  0  0  0  0  0  0  0  0  0
  -16.8081   11.6688  -21.3055 C   0  0  0  0  0  0  0  0  0  0  0  0
  -17.5388   11.3288  -20.0295 C   0  0  0  0  0  0  0  0  0  0  0  0
  -17.1406   10.2686  -19.2846 C   0  0  0  0  0  0  0  0  0  0  0  0
  -17.8628    9.9376  -18.1106 C   0  0  0  0  0  0  0  0  0  0  0  0
  -18.9679   10.7038  -17.7418 C   0  0  0  0  0  0  0  0  0  0  0  0
  -19.2910   11.7797  -18.5928 C   0  0  0  0  0  0  0  0  0  0  0  0
  -18.6202   12.1012  -19.6917 C   0  0  0  0  0  0  0  0  0  0  0  0
 18 19  2  0  0  0
 19 17  1  0  0  0
 17  1  1  0  0  0
  1  2  1  0  0  0
  2  3  1  0  0  0
  3  4  2  0  0  0
  3  5  1  0  0  0
  5  6  1  0  0  0
  6 20  1  0  0  0
 20 21  1  0  0  0
 21 22  2  0  0  0
 22 23  1  0  0  0
 23 24  2  0  0  0
 24 25  1  0  0  0
 24 26  1  0  0  0
 26 27  2  0  0  0
  6  7  1  0  0  0
  7  8  2  0  0  0
  7  9  1  0  0  0
  9 29  1  0  0  0
 29 30  1  0  0  0
 30 31  2  0  0  0
 31 32  1  0  0  0
 32 33  2  0  0  0
 33 34  1  0  0  0
 34 35  1  0  0  0
 35 40  1  0  0  0
 40 41  2  0  0  0
 40 42  1  0  0  0
 42 44  1  0  0  0
 44 45  2  0  0  0
 45 46  1  0  0  0
 46 47  2  0  0  0
 47 50  1  0  0  0
 50 51  1  0  0  0
 51 52  1  0  0  0
 52 53  1  0  0  0
 53 56  1  0  0  0
 56 57  1  0  0  0
 57 58  1  0  0  0
 58 59  1  0  0  0
 53 54  1  0  0  0
 54 55  1  0  0  0
 47 48  1  0  0  0
 48 49  2  0  0  0
 35 36  2  0  0  0
 36 37  1  0  0  0
 37 38  1  0  0  0
 37 39  1  0  0  0
  9 10  1  0  0  0
 10 11  1  0  0  0
 11 12  1  0  0  0
 12 13  1  0  0  0
 13 14  2  0  0  0
 13 15  1  0  0  0
 15 60  1  0  0  0
 60 61  1  0  0  0
 61 62  2  0  0  0
 62 63  1  0  0  0
 63 64  2  0  0  0
 64 65  1  0  0  0
 65 66  2  0  0  0
 12  1  1  0  0  0
 66 61  1  0  0  0
 11  5  1  0  0  0
 27 21  1  0  0  0
 39 30  1  0  0  0
 39 34  2  0  0  0
 49 44  1  0  0  0
 55 50  1  0  0  0
 59 56  1  0  0  0
 25 28  1  0  0  0
 42 43  1  0  0  0
 15 16  1  0  0  0
M  END
> <minimizedAffinity>
-10.39798

> <CNNscore>
0.0354778804

> <CNNaffinity>
7.9265747070

> <CNN_VS>
0.2812180817

> <CNNaffinity_variance>
0.6833230257

$$$$
[H]c1nc(Oc2c([H])c([H])c(C(=O)N([H])C([H])([H])C([H])([H])N3C([H])([H])C([H])([H])C([H])([H])C3([H])[H])c([H])c2[H])c(N([H])S(=O)(=O)c2c([H])c([H])c(Cl)c(Cl)c2[H])c([H])c1Cl


 38 41  0  0  0  0  0  0  0  0999 V2000
  -18.4245   11.8107  -19.0794 C   0  0  0  0  0  0  0  0  0  0  0  0
  -17.6122   10.8221  -18.6642 N   0  0  0  0  0  0  0  0  0  0  0  0
  -16.6168   10.3655  -19.4296 C   0  0  0  0  0  0  0  0  0  0  0  0
  -16.4237   10.9176  -20.6581 C   0  0  0  0  0  0  0  0  0  0  0  0
  -15.1136   10.3105  -21.6560 Cl  0  0  0  0  0  0  0  0  0  0  0  0
  -17.2590   11.9500  -21.1111 C   0  0  0  0  0  0  0  0  0  0  0  0
  -18.2771   12.4048  -20.3096 C   0  0  0  0  0  0  0  0  0  0  0  0
  -19.1537   13.4543  -20.6689 N   0  0  0  0  0  0  0  0  0  0  0  0
  -20.2065   13.3135  -20.6456 H   0  0  0  0  0  0  0  0  0  0  0  0
  -18.5170   14.9725  -21.1482 S   0  0  0  0  0  0  0  0  0  0  0  0
  -19.6447   15.9964  -21.1251 O   0  0  0  0  0  0  0  0  0  0  0  0
  -17.4734   15.3739  -20.1083 O   0  0  0  0  0  0  0  0  0  0  0  0
  -17.7740   15.0030  -22.7032 C   0  0  0  0  0  0  0  0  0  0  0  0
  -18.5456   15.0786  -23.8679 C   0  0  0  0  0  0  0  0  0  0  0  0
  -17.9091   15.0969  -25.0754 C   0  0  0  0  0  0  0  0  0  0  0  0
  -16.5277   15.0420  -25.1560 C   0  0  0  0  0  0  0  0  0  0  0  0
  -15.7294   15.0647  -26.7068 Cl  0  0  0  0  0  0  0  0  0  0  0  0
  -15.7581   14.9666  -24.0024 C   0  0  0  0  0  0  0  0  0  0  0  0
  -14.0216   14.8994  -24.1487 Cl  0  0  0  0  0  0  0  0  0  0  0  0
  -16.4036   14.9482  -22.7729 C   0  0  0  0  0  0  0  0  0  0  0  0
  -19.4436   12.2332  -18.2194 O   0  0  0  0  0  0  0  0  0  0  0  0
  -20.2671   10.1411  -14.6770 C   0  0  0  0  0  0  0  0  0  0  0  0
  -20.2668   11.5439  -14.6988 C   0  0  0  0  0  0  0  0  0  0  0  0
  -19.9933   12.2239  -15.8722 C   0  0  0  0  0  0  0  0  0  0  0  0
  -19.7163   11.5585  -17.0426 C   0  0  0  0  0  0  0  0  0  0  0  0
  -19.7223   10.1863  -16.9949 C   0  0  0  0  0  0  0  0  0  0  0  0
  -19.9926    9.4819  -15.8340 C   0  0  0  0  0  0  0  0  0  0  0  0
  -21.7873    9.3837  -13.0280 O   0  0  0  0  0  0  0  0  0  0  0  0
  -20.5705    9.4452  -13.4360 C   0  0  0  0  0  0  0  0  0  0  0  0
  -19.5829    8.8245  -12.6449 N   0  0  0  0  0  0  0  0  0  0  0  0
  -18.5967    8.8899  -12.9983 H   0  0  0  0  0  0  0  0  0  0  0  0
  -19.7924    8.1212  -11.4116 C   0  0  0  0  0  0  0  0  0  0  0  0
  -18.5253    7.4135  -11.0171 C   0  0  0  0  0  0  0  0  0  0  0  0
  -18.0761    7.8766   -9.7359 N   0  0  0  0  0  0  0  0  0  0  0  0
  -18.6225    9.1152   -9.2983 C   0  0  0  0  0  0  0  0  0  0  0  0
  -17.5278   10.1621   -9.4208 C   0  0  0  0  0  0  0  0  0  0  0  0
  -16.2775    9.3395   -9.2936 C   0  0  0  0  0  0  0  0  0  0  0  0
  -16.6586    7.9073   -9.5632 C   0  0  0  0  0  0  0  0  0  0  0  0
 28 29  2  0  0  0
 29 30  1  0  0  0
 30 32  1  0  0  0
 32 33  1  0  0  0
 33 34  1  0  0  0
 34 35  1  0  0  0
 35 36  1  0  0  0
 36 37  1  0  0  0
 37 38  1  0  0  0
 29 22  1  0  0  0
 22 23  2  0  0  0
 23 24  1  0  0  0
 24 25  2  0  0  0
 25 21  1  0  0  0
 21  1  1  0  0  0
  1  2  2  0  0  0
  2  3  1  0  0  0
  3  4  2  0  0  0
  4  5  1  0  0  0
  4  6  1  0  0  0
  6  7  2  0  0  0
  7  8  1  0  0  0
  8 10  1  0  0  0
 10 11  2  0  0  0
 10 12  2  0  0  0
 10 13  1  0  0  0
 13 14  2  0  0  0
 14 15  1  0  0  0
 15 16  2  0  0  0
 16 17  1  0  0  0
 16 18  1  0  0  0
 18 19  1  0  0  0
 18 20  2  0  0  0
 25 26  1  0  0  0
 26 27  2  0  0  0
 38 34  1  0  0  0
 27 22  1  0  0  0
  7  1  1  0  0  0
 20 13  1  0  0  0
 30 31  1  0  0  0
  8  9  1  0  0  0
M  END
> <minimizedAffinity>
-8.72403

> <CNNscore>
0.4299427867

> <CNNaffinity>
7.0025987625

> <CNN_VS>
3.0107169151

> <CNNaffinity_variance>
0.1521732509

$$$$
[H]c1nc(Oc2c([H])c([H])c(C(=O)N([H])C([H])([H])C([H])([H])N3C([H])([H])C([H])([H])C([H])([H])C3([H])[H])c([H])c2[H])c(N([H])S(=O)(=O)c2c([H])c([H])c(Cl)c(Cl)c2[H])c([H])c1Cl


 38 41  0  0  0  0  0  0  0  0999 V2000
  -19.3231   12.8921  -19.2696 C   0  0  0  0  0  0  0  0  0  0  0  0
  -18.9073   11.9333  -18.4224 N   0  0  0  0  0  0  0  0  0  0  0  0
  -17.8721   11.1410  -18.7152 C   0  0  0  0  0  0  0  0  0  0  0  0
  -17.2256   11.3123  -19.9001 C   0  0  0  0  0  0  0  0  0  0  0  0
  -15.8671   10.2661  -20.2752 Cl  0  0  0  0  0  0  0  0  0  0  0  0
  -17.6423   12.3063  -20.7984 C   0  0  0  0  0  0  0  0  0  0  0  0
  -18.7091   13.1100  -20.4792 C   0  0  0  0  0  0  0  0  0  0  0  0
  -19.1863   14.1514  -21.3079 N   0  0  0  0  0  0  0  0  0  0  0  0
  -20.1909   14.1523  -21.6537 H   0  0  0  0  0  0  0  0  0  0  0  0
  -18.1376   15.4295  -21.7629 S   0  0  0  0  0  0  0  0  0  0  0  0
  -18.8708   16.7492  -21.5596 O   0  0  0  0  0  0  0  0  0  0  0  0
  -16.9383   15.3882  -20.8187 O   0  0  0  0  0  0  0  0  0  0  0  0
  -17.5554   15.3641  -23.3839 C   0  0  0  0  0  0  0  0  0  0  0  0
  -16.9355   16.4725  -23.9710 C   0  0  0  0  0  0  0  0  0  0  0  0
  -16.4944   16.3705  -25.2589 C   0  0  0  0  0  0  0  0  0  0  0  0
  -16.6528   15.1976  -25.9778 C   0  0  0  0  0  0  0  0  0  0  0  0
  -16.0849   15.0838  -27.6232 Cl  0  0  0  0  0  0  0  0  0  0  0  0
  -17.2677   14.0951  -25.3989 C   0  0  0  0  0  0  0  0  0  0  0  0
  -17.4469   12.6375  -26.3394 Cl  0  0  0  0  0  0  0  0  0  0  0  0
  -17.7170   14.1966  -24.0888 C   0  0  0  0  0  0  0  0  0  0  0  0
  -20.4144   13.6806  -18.8901 O   0  0  0  0  0  0  0  0  0  0  0  0
  -20.1077   16.5893  -15.8821 C   0  0  0  0  0  0  0  0  0  0  0  0
  -19.0495   16.3666  -16.7760 C   0  0  0  0  0  0  0  0  0  0  0  0
  -19.1609   15.4044  -17.7639 C   0  0  0  0  0  0  0  0  0  0  0  0
  -20.2968   14.6431  -17.9031 C   0  0  0  0  0  0  0  0  0  0  0  0
  -21.3176   14.8800  -17.0159 C   0  0  0  0  0  0  0  0  0  0  0  0
  -21.2315   15.8364  -16.0186 C   0  0  0  0  0  0  0  0  0  0  0  0
  -18.9508   18.3899  -14.8706 O   0  0  0  0  0  0  0  0  0  0  0  0
  -19.9756   17.6151  -14.8590 C   0  0  0  0  0  0  0  0  0  0  0  0
  -20.9292   17.8066  -13.8390 N   0  0  0  0  0  0  0  0  0  0  0  0
  -21.7563   17.1605  -13.8499 H   0  0  0  0  0  0  0  0  0  0  0  0
  -20.8777   18.7883  -12.7935 C   0  0  0  0  0  0  0  0  0  0  0  0
  -22.2234   19.4460  -12.6571 C   0  0  0  0  0  0  0  0  0  0  0  0
  -22.2383   20.6968  -13.3591 N   0  0  0  0  0  0  0  0  0  0  0  0
  -22.9962   20.7228  -14.5629 C   0  0  0  0  0  0  0  0  0  0  0  0
  -22.0102   20.7408  -15.7191 C   0  0  0  0  0  0  0  0  0  0  0  0
  -20.7980   21.3769  -15.1009 C   0  0  0  0  0  0  0  0  0  0  0  0
  -20.9539   21.2706  -13.6064 C   0  0  0  0  0  0  0  0  0  0  0  0
 28 29  2  0  0  0
 29 30  1  0  0  0
 30 32  1  0  0  0
 32 33  1  0  0  0
 33 34  1  0  0  0
 34 35  1  0  0  0
 35 36  1  0  0  0
 36 37  1  0  0  0
 37 38  1  0  0  0
 29 22  1  0  0  0
 22 23  2  0  0  0
 23 24  1  0  0  0
 24 25  2  0  0  0
 25 21  1  0  0  0
 21  1  1  0  0  0
  1  2  2  0  0  0
  2  3  1  0  0  0
  3  4  2  0  0  0
  4  5  1  0  0  0
  4  6  1  0  0  0
  6  7  2  0  0  0
  7  8  1  0  0  0
  8 10  1  0  0  0
 10 11  2  0  0  0
 10 12  2  0  0  0
 10 13  1  0  0  0
 13 14  2  0  0  0
 14 15  1  0  0  0
 15 16  2  0  0  0
 16 17  1  0  0  0
 16 18  1  0  0  0
 18 19  1  0  0  0
 18 20  2  0  0  0
 25 26  1  0  0  0
 26 27  2  0  0  0
 38 34  1  0  0  0
 27 22  1  0  0  0
  7  1  1  0  0  0
 20 13  1  0  0  0
 30 31  1  0  0  0
  8  9  1  0  0  0
M  END
> <minimizedAffinity>
-7.90895

> <CNNscore>
0.3154630959

> <CNNaffinity>
6.8001365662

> <CNN_VS>
2.1451921463

> <CNNaffinity_variance>
0.1738115251

$$$$
[H]c1nc(Oc2c([H])c([H])c(C(=O)N([H])C([H])([H])C([H])([H])N3C([H])([H])C([H])([H])C([H])([H])C3([H])[H])c([H])c2[H])c(N([H])S(=O)(=O)c2c([H])c([H])c(Cl)c(Cl)c2[H])c([H])c1Cl


 38 41  0  0  0  0  0  0  0  0999 V2000
  -18.7012   13.2861  -17.4689 C   0  0  0  0  0  0  0  0  0  0  0  0
  -19.5863   13.2111  -16.4585 N   0  0  0  0  0  0  0  0  0  0  0  0
  -20.0981   12.0426  -16.0612 C   0  0  0  0  0  0  0  0  0  0  0  0
  -19.7113   10.9035  -16.6969 C   0  0  0  0  0  0  0  0  0  0  0  0
  -20.3898    9.3738  -16.1676 Cl  0  0  0  0  0  0  0  0  0  0  0  0
  -18.7891   10.9587  -17.7530 C   0  0  0  0  0  0  0  0  0  0  0  0
  -18.2751   12.1697  -18.1469 C   0  0  0  0  0  0  0  0  0  0  0  0
  -17.3252   12.3227  -19.1828 N   0  0  0  0  0  0  0  0  0  0  0  0
  -16.3042   12.5126  -18.9587 H   0  0  0  0  0  0  0  0  0  0  0  0
  -17.8200   12.2013  -20.8201 S   0  0  0  0  0  0  0  0  0  0  0  0
  -17.5850   10.7712  -21.2892 O   0  0  0  0  0  0  0  0  0  0  0  0
  -19.3193   12.4874  -20.8618 O   0  0  0  0  0  0  0  0  0  0  0  0
  -17.0310   13.2779  -21.9107 C   0  0  0  0  0  0  0  0  0  0  0  0
  -16.3027   12.7911  -23.0015 C   0  0  0  0  0  0  0  0  0  0  0  0
  -15.6938   13.6852  -23.8343 C   0  0  0  0  0  0  0  0  0  0  0  0
  -15.7893   15.0486  -23.6117 C   0  0  0  0  0  0  0  0  0  0  0  0
  -15.0041   16.1782  -24.6843 Cl  0  0  0  0  0  0  0  0  0  0  0  0
  -16.5111   15.5361  -22.5300 C   0  0  0  0  0  0  0  0  0  0  0  0
  -16.6062   17.2603  -22.2864 Cl  0  0  0  0  0  0  0  0  0  0  0  0
  -17.1315   14.6283  -21.6818 C   0  0  0  0  0  0  0  0  0  0  0  0
  -18.2113   14.5469  -17.8253 O   0  0  0  0  0  0  0  0  0  0  0  0
  -20.4531   17.2295  -20.1452 C   0  0  0  0  0  0  0  0  0  0  0  0
  -20.9658   15.9670  -19.8111 C   0  0  0  0  0  0  0  0  0  0  0  0
  -20.2179   15.0897  -19.0461 C   0  0  0  0  0  0  0  0  0  0  0  0
  -18.9632   15.4195  -18.5920 C   0  0  0  0  0  0  0  0  0  0  0  0
  -18.4840   16.6602  -18.9328 C   0  0  0  0  0  0  0  0  0  0  0  0
  -19.2118   17.5563  -19.6969 C   0  0  0  0  0  0  0  0  0  0  0  0
  -22.5410   18.1076  -20.8329 O   0  0  0  0  0  0  0  0  0  0  0  0
  -21.2610   18.1422  -20.9391 C   0  0  0  0  0  0  0  0  0  0  0  0
  -20.7037   19.0782  -21.8334 N   0  0  0  0  0  0  0  0  0  0  0  0
  -19.6565   19.0860  -21.9037 H   0  0  0  0  0  0  0  0  0  0  0  0
  -21.4230   20.0110  -22.6533 C   0  0  0  0  0  0  0  0  0  0  0  0
  -21.5279   19.4707  -24.0530 C   0  0  0  0  0  0  0  0  0  0  0  0
  -22.8884   19.1290  -24.3528 N   0  0  0  0  0  0  0  0  0  0  0  0
  -23.2023   17.7419  -24.3119 C   0  0  0  0  0  0  0  0  0  0  0  0
  -23.3705   17.2727  -25.7476 C   0  0  0  0  0  0  0  0  0  0  0  0
  -23.7838   18.5324  -26.4535 C   0  0  0  0  0  0  0  0  0  0  0  0
  -23.4026   19.6862  -25.5633 C   0  0  0  0  0  0  0  0  0  0  0  0
 28 29  2  0  0  0
 29 30  1  0  0  0
 30 32  1  0  0  0
 32 33  1  0  0  0
 33 34  1  0  0  0
 34 35  1  0  0  0
 35 36  1  0  0  0
 36 37  1  0  0  0
 37 38  1  0  0  0
 29 22  1  0  0  0
 22 23  2  0  0  0
 23 24  1  0  0  0
 24 25  2  0  0  0
 25 21  1  0  0  0
 21  1  1  0  0  0
  1  2  2  0  0  0
  2  3  1  0  0  0
  3  4  2  0  0  0
  4  5  1  0  0  0
  4  6  1  0  0  0
  6  7  2  0  0  0
  7  8  1  0  0  0
  8 10  1  0  0  0
 10 11  2  0  0  0
 10 12  2  0  0  0
 10 13  1  0  0  0
 13 14  2  0  0  0
 14 15  1  0  0  0
 15 16  2  0  0  0
 16 17  1  0  0  0
 16 18  1  0  0  0
 18 19  1  0  0  0
 18 20  2  0  0  0
 25 26  1  0  0  0
 26 27  2  0  0  0
 38 34  1  0  0  0
 27 22  1  0  0  0
  7  1  1  0  0  0
 20 13  1  0  0  0
 30 31  1  0  0  0
  8  9  1  0  0  0
M  END
> <minimizedAffinity>
-8.06540

> <CNNscore>
0.2423953116

> <CNNaffinity>
7.0462722778

> <CNN_VS>
1.7079833746

> <CNNaffinity_variance>
0.1760022342

$$$$
[H]c1nc(Oc2c([H])c([H])c(C(=O)N([H])C([H])([H])C([H])([H])N3C([H])([H])C([H])([H])C([H])([H])C3([H])[H])c([H])c2[H])c(N([H])S(=O)(=O)c2c([H])c([H])c(Cl)c(Cl)c2[H])c([H])c1Cl


 38 41  0  0  0  0  0  0  0  0999 V2000
  -17.2857   13.2459  -20.8971 C   0  0  0  0  0  0  0  0  0  0  0  0
  -16.9937   12.2038  -21.6960 N   0  0  0  0  0  0  0  0  0  0  0  0
  -17.1717   12.2640  -23.0189 C   0  0  0  0  0  0  0  0  0  0  0  0
  -17.6600   13.4098  -23.5665 C   0  0  0  0  0  0  0  0  0  0  0  0
  -17.8904   13.4787  -25.3051 Cl  0  0  0  0  0  0  0  0  0  0  0  0
  -17.9709   14.5091  -22.7519 C   0  0  0  0  0  0  0  0  0  0  0  0
  -17.7816   14.4269  -21.3942 C   0  0  0  0  0  0  0  0  0  0  0  0
  -18.0434   15.4876  -20.4968 N   0  0  0  0  0  0  0  0  0  0  0  0
  -17.2586   15.9238  -19.9289 H   0  0  0  0  0  0  0  0  0  0  0  0
  -19.6424   16.0808  -20.3188 S   0  0  0  0  0  0  0  0  0  0  0  0
  -20.6022   14.8989  -20.3656 O   0  0  0  0  0  0  0  0  0  0  0  0
  -19.7335   16.7279  -18.9388 O   0  0  0  0  0  0  0  0  0  0  0  0
  -20.1343   17.2398  -21.4959 C   0  0  0  0  0  0  0  0  0  0  0  0
  -19.1947   17.8826  -22.3092 C   0  0  0  0  0  0  0  0  0  0  0  0
  -19.6353   18.7949  -23.2242 C   0  0  0  0  0  0  0  0  0  0  0  0
  -20.9833   19.0850  -23.3520 C   0  0  0  0  0  0  0  0  0  0  0  0
  -21.5301   20.2544  -24.5251 Cl  0  0  0  0  0  0  0  0  0  0  0  0
  -21.9192   18.4494  -22.5465 C   0  0  0  0  0  0  0  0  0  0  0  0
  -23.6069   18.8441  -22.7403 Cl  0  0  0  0  0  0  0  0  0  0  0  0
  -21.4732   17.5209  -21.6152 C   0  0  0  0  0  0  0  0  0  0  0  0
  -17.0713   13.1043  -19.5221 O   0  0  0  0  0  0  0  0  0  0  0  0
  -19.3476   10.4243  -17.2330 C   0  0  0  0  0  0  0  0  0  0  0  0
  -19.7129   11.7753  -17.3305 C   0  0  0  0  0  0  0  0  0  0  0  0
  -18.9549   12.6508  -18.0875 C   0  0  0  0  0  0  0  0  0  0  0  0
  -17.8324   12.2337  -18.7622 C   0  0  0  0  0  0  0  0  0  0  0  0
  -17.4958   10.9072  -18.6504 C   0  0  0  0  0  0  0  0  0  0  0  0
  -18.2370   10.0109  -17.8995 C   0  0  0  0  0  0  0  0  0  0  0  0
  -21.2293    9.9602  -15.8738 O   0  0  0  0  0  0  0  0  0  0  0  0
  -20.1658    9.5174  -16.4429 C   0  0  0  0  0  0  0  0  0  0  0  0
  -19.8477    8.1558  -16.2662 N   0  0  0  0  0  0  0  0  0  0  0  0
  -18.9736    7.8185  -16.7393 H   0  0  0  0  0  0  0  0  0  0  0  0
  -20.5942    7.1948  -15.5054 C   0  0  0  0  0  0  0  0  0  0  0  0
  -19.7845    6.7602  -14.3148 C   0  0  0  0  0  0  0  0  0  0  0  0
  -20.0866    7.5851  -13.1809 N   0  0  0  0  0  0  0  0  0  0  0  0
  -19.1085    8.5634  -12.8482 C   0  0  0  0  0  0  0  0  0  0  0  0
  -18.4006    8.0873  -11.5906 C   0  0  0  0  0  0  0  0  0  0  0  0
  -19.4439    7.2255  -10.9385 C   0  0  0  0  0  0  0  0  0  0  0  0
  -20.4582    6.8784  -11.9966 C   0  0  0  0  0  0  0  0  0  0  0  0
 28 29  2  0  0  0
 29 30  1  0  0  0
 30 32  1  0  0  0
 32 33  1  0  0  0
 33 34  1  0  0  0
 34 35  1  0  0  0
 35 36  1  0  0  0
 36 37  1  0  0  0
 37 38  1  0  0  0
 29 22  1  0  0  0
 22 23  2  0  0  0
 23 24  1  0  0  0
 24 25  2  0  0  0
 25 21  1  0  0  0
 21  1  1  0  0  0
  1  2  2  0  0  0
  2  3  1  0  0  0
  3  4  2  0  0  0
  4  5  1  0  0  0
  4  6  1  0  0  0
  6  7  2  0  0  0
  7  8  1  0  0  0
  8 10  1  0  0  0
 10 11  2  0  0  0
 10 12  2  0  0  0
 10 13  1  0  0  0
 13 14  2  0  0  0
 14 15  1  0  0  0
 15 16  2  0  0  0
 16 17  1  0  0  0
 16 18  1  0  0  0
 18 19  1  0  0  0
 18 20  2  0  0  0
 25 26  1  0  0  0
 26 27  2  0  0  0
 38 34  1  0  0  0
 27 22  1  0  0  0
  7  1  1  0  0  0
 20 13  1  0  0  0
 30 31  1  0  0  0
  8  9  1  0  0  0
M  END
> <minimizedAffinity>
-7.27957

> <CNNscore>
0.2368821800

> <CNNaffinity>
6.9021453857

> <CNN_VS>
1.6349952221

> <CNNaffinity_variance>
0.1210115328

$$$$
[H]c1nc(Oc2c([H])c([H])c(C(=O)N([H])C([H])([H])C([H])([H])N3C([H])([H])C([H])([H])C([H])([H])C3([H])[H])c([H])c2[H])c(N([H])S(=O)(=O)c2c([H])c([H])c(Cl)c(Cl)c2[H])c([H])c1Cl


 38 41  0  0  0  0  0  0  0  0999 V2000
  -19.2822   12.6080  -19.1160 C   0  0  0  0  0  0  0  0  0  0  0  0
  -18.7570   11.6280  -18.3588 N   0  0  0  0  0  0  0  0  0  0  0  0
  -17.6646   10.9588  -18.7385 C   0  0  0  0  0  0  0  0  0  0  0  0
  -17.0723   11.2805  -19.9204 C   0  0  0  0  0  0  0  0  0  0  0  0
  -15.6381   10.3952  -20.4102 Cl  0  0  0  0  0  0  0  0  0  0  0  0
  -17.6032   12.2995  -20.7257 C   0  0  0  0  0  0  0  0  0  0  0  0
  -18.7272   12.9750  -20.3181 C   0  0  0  0  0  0  0  0  0  0  0  0
  -19.3204   14.0301  -21.0488 N   0  0  0  0  0  0  0  0  0  0  0  0
  -20.3064   13.9363  -21.4331 H   0  0  0  0  0  0  0  0  0  0  0  0
  -18.4443   15.4788  -21.3208 S   0  0  0  0  0  0  0  0  0  0  0  0
  -19.4208   16.6472  -21.2768 O   0  0  0  0  0  0  0  0  0  0  0  0
  -17.4519   15.6299  -20.1702 O   0  0  0  0  0  0  0  0  0  0  0  0
  -17.5698   15.5443  -22.8046 C   0  0  0  0  0  0  0  0  0  0  0  0
  -18.1749   16.0116  -23.9763 C   0  0  0  0  0  0  0  0  0  0  0  0
  -17.4400   16.0408  -25.1265 C   0  0  0  0  0  0  0  0  0  0  0  0
  -16.1213   15.6183  -25.1428 C   0  0  0  0  0  0  0  0  0  0  0  0
  -15.1961   15.6605  -26.6210 Cl  0  0  0  0  0  0  0  0  0  0  0  0
  -15.5169   15.1536  -23.9820 C   0  0  0  0  0  0  0  0  0  0  0  0
  -13.8543   14.6313  -24.0466 Cl  0  0  0  0  0  0  0  0  0  0  0  0
  -16.2627   15.1233  -22.8109 C   0  0  0  0  0  0  0  0  0  0  0  0
  -20.4274   13.2615  -18.6490 O   0  0  0  0  0  0  0  0  0  0  0  0
  -20.0998   16.6929  -16.2570 C   0  0  0  0  0  0  0  0  0  0  0  0
  -21.3551   16.2268  -16.6757 C   0  0  0  0  0  0  0  0  0  0  0  0
  -21.4518   15.0945  -17.4649 C   0  0  0  0  0  0  0  0  0  0  0  0
  -20.3368   14.3953  -17.8611 C   0  0  0  0  0  0  0  0  0  0  0  0
  -19.1204   14.8720  -17.4387 C   0  0  0  0  0  0  0  0  0  0  0  0
  -18.9962   16.0022  -16.6489 C   0  0  0  0  0  0  0  0  0  0  0  0
  -19.3679   17.8248  -14.3110 O   0  0  0  0  0  0  0  0  0  0  0  0
  -20.0208   17.8775  -15.4163 C   0  0  0  0  0  0  0  0  0  0  0  0
  -20.6332   19.1004  -15.7568 N   0  0  0  0  0  0  0  0  0  0  0  0
  -21.1620   19.1178  -16.6634 H   0  0  0  0  0  0  0  0  0  0  0  0
  -20.6076   20.3127  -14.9892 C   0  0  0  0  0  0  0  0  0  0  0  0
  -22.0165   20.7558  -14.7054 C   0  0  0  0  0  0  0  0  0  0  0  0
  -22.8716   20.4302  -15.8102 N   0  0  0  0  0  0  0  0  0  0  0  0
  -23.1311   21.4879  -16.7257 C   0  0  0  0  0  0  0  0  0  0  0  0
  -24.5617   21.9461  -16.4953 C   0  0  0  0  0  0  0  0  0  0  0  0
  -25.2115   20.7112  -15.9394 C   0  0  0  0  0  0  0  0  0  0  0  0
  -24.1074   19.8060  -15.4592 C   0  0  0  0  0  0  0  0  0  0  0  0
 28 29  2  0  0  0
 29 30  1  0  0  0
 30 32  1  0  0  0
 32 33  1  0  0  0
 33 34  1  0  0  0
 34 35  1  0  0  0
 35 36  1  0  0  0
 36 37  1  0  0  0
 37 38  1  0  0  0
 29 22  1  0  0  0
 22 23  2  0  0  0
 23 24  1  0  0  0
 24 25  2  0  0  0
 25 21  1  0  0  0
 21  1  1  0  0  0
  1  2  2  0  0  0
  2  3  1  0  0  0
  3  4  2  0  0  0
  4  5  1  0  0  0
  4  6  1  0  0  0
  6  7  2  0  0  0
  7  8  1  0  0  0
  8 10  1  0  0  0
 10 11  2  0  0  0
 10 12  2  0  0  0
 10 13  1  0  0  0
 13 14  2  0  0  0
 14 15  1  0  0  0
 15 16  2  0  0  0
 16 17  1  0  0  0
 16 18  1  0  0  0
 18 19  1  0  0  0
 18 20  2  0  0  0
 25 26  1  0  0  0
 26 27  2  0  0  0
 38 34  1  0  0  0
 27 22  1  0  0  0
  7  1  1  0  0  0
 20 13  1  0  0  0
 30 31  1  0  0  0
  8  9  1  0  0  0
M  END
> <minimizedAffinity>
-7.03998

> <CNNscore>
0.1750562936

> <CNNaffinity>
6.4659676552

> <CNN_VS>
1.1319082975

> <CNNaffinity_variance>
0.3350598812

$$$$
[H]c1nc(Oc2c([H])c([H])c(C(=O)N([H])C([H])([H])C([H])([H])N3C([H])([H])C([H])([H])C([H])([H])C3([H])[H])c([H])c2[H])c(N([H])S(=O)(=O)c2c([H])c([H])c(Cl)c(Cl)c2[H])c([H])c1Cl


 38 41  0  0  0  0  0  0  0  0999 V2000
  -17.6217   13.0510  -19.9023 C   0  0  0  0  0  0  0  0  0  0  0  0
  -17.2083   11.9241  -20.5097 N   0  0  0  0  0  0  0  0  0  0  0  0
  -17.0986   11.8448  -21.8389 C   0  0  0  0  0  0  0  0  0  0  0  0
  -17.4134   12.9333  -22.5922 C   0  0  0  0  0  0  0  0  0  0  0  0
  -17.2662   12.8187  -24.3374 Cl  0  0  0  0  0  0  0  0  0  0  0  0
  -17.8463   14.1190  -21.9794 C   0  0  0  0  0  0  0  0  0  0  0  0
  -17.9532   14.1800  -20.6116 C   0  0  0  0  0  0  0  0  0  0  0  0
  -18.3572   15.3354  -19.9040 N   0  0  0  0  0  0  0  0  0  0  0  0
  -17.6483   15.9209  -19.3716 H   0  0  0  0  0  0  0  0  0  0  0  0
  -20.0073   15.8018  -19.9012 S   0  0  0  0  0  0  0  0  0  0  0  0
  -20.8610   14.5522  -20.0748 O   0  0  0  0  0  0  0  0  0  0  0  0
  -20.3036   16.4076  -18.5312 O   0  0  0  0  0  0  0  0  0  0  0  0
  -20.4517   16.9478  -21.1095 C   0  0  0  0  0  0  0  0  0  0  0  0
  -19.5333   17.3629  -22.0800 C   0  0  0  0  0  0  0  0  0  0  0  0
  -19.9339   18.2748  -23.0135 C   0  0  0  0  0  0  0  0  0  0  0  0
  -21.2215   18.7846  -23.0080 C   0  0  0  0  0  0  0  0  0  0  0  0
  -21.7174   19.9505  -24.2069 Cl  0  0  0  0  0  0  0  0  0  0  0  0
  -22.1361   18.3754  -22.0465 C   0  0  0  0  0  0  0  0  0  0  0  0
  -23.7473   19.0422  -22.0758 Cl  0  0  0  0  0  0  0  0  0  0  0  0
  -21.7308   17.4475  -21.0960 C   0  0  0  0  0  0  0  0  0  0  0  0
  -17.7101   13.0543  -18.5063 O   0  0  0  0  0  0  0  0  0  0  0  0
  -20.7317   10.9497  -16.4952 C   0  0  0  0  0  0  0  0  0  0  0  0
  -19.6449   10.2727  -17.0687 C   0  0  0  0  0  0  0  0  0  0  0  0
  -18.6542   10.9764  -17.7302 C   0  0  0  0  0  0  0  0  0  0  0  0
  -18.6987   12.3452  -17.8473 C   0  0  0  0  0  0  0  0  0  0  0  0
  -19.7725   12.9841  -17.2780 C   0  0  0  0  0  0  0  0  0  0  0  0
  -20.7768   12.3036  -16.6110 C   0  0  0  0  0  0  0  0  0  0  0  0
  -21.5045    8.9899  -15.4155 O   0  0  0  0  0  0  0  0  0  0  0  0
  -21.7557   10.1924  -15.7923 C   0  0  0  0  0  0  0  0  0  0  0  0
  -23.0300   10.7176  -15.4980 N   0  0  0  0  0  0  0  0  0  0  0  0
  -23.2116   11.7008  -15.8173 H   0  0  0  0  0  0  0  0  0  0  0  0
  -24.0958   10.0431  -14.8133 C   0  0  0  0  0  0  0  0  0  0  0  0
  -24.6901   10.9627  -13.7823 C   0  0  0  0  0  0  0  0  0  0  0  0
  -26.1206   10.9700  -13.8889 N   0  0  0  0  0  0  0  0  0  0  0  0
  -26.6480   10.6505  -15.1711 C   0  0  0  0  0  0  0  0  0  0  0  0
  -27.1689   11.9411  -15.7815 C   0  0  0  0  0  0  0  0  0  0  0  0
  -27.4953   12.7642  -14.5682 C   0  0  0  0  0  0  0  0  0  0  0  0
  -26.7604   12.1516  -13.4048 C   0  0  0  0  0  0  0  0  0  0  0  0
 28 29  2  0  0  0
 29 30  1  0  0  0
 30 32  1  0  0  0
 32 33  1  0  0  0
 33 34  1  0  0  0
 34 35  1  0  0  0
 35 36  1  0  0  0
 36 37  1  0  0  0
 37 38  1  0  0  0
 29 22  1  0  0  0
 22 23  2  0  0  0
 23 24  1  0  0  0
 24 25  2  0  0  0
 25 21  1  0  0  0
 21  1  1  0  0  0
  1  2  2  0  0  0
  2  3  1  0  0  0
  3  4  2  0  0  0
  4  5  1  0  0  0
  4  6  1  0  0  0
  6  7  2  0  0  0
  7  8  1  0  0  0
  8 10  1  0  0  0
 10 11  2  0  0  0
 10 12  2  0  0  0
 10 13  1  0  0  0
 13 14  2  0  0  0
 14 15  1  0  0  0
 15 16  2  0  0  0
 16 17  1  0  0  0
 16 18  1  0  0  0
 18 19  1  0  0  0
 18 20  2  0  0  0
 25 26  1  0  0  0
 26 27  2  0  0  0
 38 34  1  0  0  0
 27 22  1  0  0  0
  7  1  1  0  0  0
 20 13  1  0  0  0
 30 31  1  0  0  0
  8  9  1  0  0  0
M  END
> <minimizedAffinity>
-6.93921

> <CNNscore>
0.1729836315

> <CNNaffinity>
6.6557693481

> <CNN_VS>
1.1513391733

> <CNNaffinity_variance>
0.1830363274

$$$$
[H]c1nc(Oc2c([H])c([H])c(C(=O)N([H])C([H])([H])C([H])([H])N3C([H])([H])C([H])([H])C([H])([H])C3([H])[H])c([H])c2[H])c(N([H])S(=O)(=O)c2c([H])c([H])c(Cl)c(Cl)c2[H])c([H])c1Cl


 38 41  0  0  0  0  0  0  0  0999 V2000
  -22.6584   17.6677  -21.4038 C   0  0  0  0  0  0  0  0  0  0  0  0
  -23.7645   17.0770  -21.8910 N   0  0  0  0  0  0  0  0  0  0  0  0
  -24.0383   17.0734  -23.1987 C   0  0  0  0  0  0  0  0  0  0  0  0
  -23.1739   17.6829  -24.0547 C   0  0  0  0  0  0  0  0  0  0  0  0
  -23.5430   17.6728  -25.7706 Cl  0  0  0  0  0  0  0  0  0  0  0  0
  -22.0141   18.3048  -23.5682 C   0  0  0  0  0  0  0  0  0  0  0  0
  -21.7509   18.2983  -22.2204 C   0  0  0  0  0  0  0  0  0  0  0  0
  -20.5989   18.8770  -21.6400 N   0  0  0  0  0  0  0  0  0  0  0  0
  -20.6698   19.4463  -20.7457 H   0  0  0  0  0  0  0  0  0  0  0  0
  -19.0684   18.6611  -22.3822 S   0  0  0  0  0  0  0  0  0  0  0  0
  -19.0655   19.4132  -23.7070 O   0  0  0  0  0  0  0  0  0  0  0  0
  -18.0264   19.2923  -21.4617 O   0  0  0  0  0  0  0  0  0  0  0  0
  -18.6147   17.0242  -22.6744 C   0  0  0  0  0  0  0  0  0  0  0  0
  -18.5733   16.5102  -23.9750 C   0  0  0  0  0  0  0  0  0  0  0  0
  -18.2104   15.2062  -24.1530 C   0  0  0  0  0  0  0  0  0  0  0  0
  -17.8882   14.4005  -23.0738 C   0  0  0  0  0  0  0  0  0  0  0  0
  -17.4280   12.7358  -23.3177 Cl  0  0  0  0  0  0  0  0  0  0  0  0
  -17.9282   14.9066  -21.7811 C   0  0  0  0  0  0  0  0  0  0  0  0
  -17.5147   13.8578  -20.4505 Cl  0  0  0  0  0  0  0  0  0  0  0  0
  -18.2968   16.2329  -21.5979 C   0  0  0  0  0  0  0  0  0  0  0  0
  -22.4426   17.6282  -20.0223 O   0  0  0  0  0  0  0  0  0  0  0  0
  -20.9751   14.1504  -18.1907 C   0  0  0  0  0  0  0  0  0  0  0  0
  -21.4685   15.2140  -17.4204 C   0  0  0  0  0  0  0  0  0  0  0  0
  -21.9496   16.3567  -18.0345 C   0  0  0  0  0  0  0  0  0  0  0  0
  -21.9613   16.4886  -19.4026 C   0  0  0  0  0  0  0  0  0  0  0  0
  -21.4728   15.4342  -20.1338 C   0  0  0  0  0  0  0  0  0  0  0  0
  -20.9858   14.2802  -19.5441 C   0  0  0  0  0  0  0  0  0  0  0  0
  -19.2974   12.5332  -17.7740 O   0  0  0  0  0  0  0  0  0  0  0  0
  -20.4863   12.9523  -17.5259 C   0  0  0  0  0  0  0  0  0  0  0  0
  -21.2618   12.2153  -16.6084 N   0  0  0  0  0  0  0  0  0  0  0  0
  -22.2298   12.5766  -16.4236 H   0  0  0  0  0  0  0  0  0  0  0  0
  -20.8613   11.0266  -15.9111 C   0  0  0  0  0  0  0  0  0  0  0  0
  -21.5788   10.9543  -14.5912 C   0  0  0  0  0  0  0  0  0  0  0  0
  -20.8203   11.6264  -13.5761 N   0  0  0  0  0  0  0  0  0  0  0  0
  -19.6021   10.9979  -13.1947 C   0  0  0  0  0  0  0  0  0  0  0  0
  -19.8186   10.3861  -11.8205 C   0  0  0  0  0  0  0  0  0  0  0  0
  -20.9022   11.2539  -11.2469 C   0  0  0  0  0  0  0  0  0  0  0  0
  -21.5522   11.9733  -12.3997 C   0  0  0  0  0  0  0  0  0  0  0  0
 28 29  2  0  0  0
 29 30  1  0  0  0
 30 32  1  0  0  0
 32 33  1  0  0  0
 33 34  1  0  0  0
 34 35  1  0  0  0
 35 36  1  0  0  0
 36 37  1  0  0  0
 37 38  1  0  0  0
 29 22  1  0  0  0
 22 23  2  0  0  0
 23 24  1  0  0  0
 24 25  2  0  0  0
 25 21  1  0  0  0
 21  1  1  0  0  0
  1  2  2  0  0  0
  2  3  1  0  0  0
  3  4  2  0  0  0
  4  5  1  0  0  0
  4  6  1  0  0  0
  6  7  2  0  0  0
  7  8  1  0  0  0
  8 10  1  0  0  0
 10 11  2  0  0  0
 10 12  2  0  0  0
 10 13  1  0  0  0
 13 14  2  0  0  0
 14 15  1  0  0  0
 15 16  2  0  0  0
 16 17  1  0  0  0
 16 18  1  0  0  0
 18 19  1  0  0  0
 18 20  2  0  0  0
 25 26  1  0  0  0
 26 27  2  0  0  0
 38 34  1  0  0  0
 27 22  1  0  0  0
  7  1  1  0  0  0
 20 13  1  0  0  0
 30 31  1  0  0  0
  8  9  1  0  0  0
M  END
> <minimizedAffinity>
-7.55936

> <CNNscore>
0.1707685888

> <CNNaffinity>
6.4156951904

> <CNN_VS>
1.0955991745

> <CNNaffinity_variance>
0.3522804379

$$$$
[H]c1nc(Oc2c([H])c([H])c(C(=O)N([H])C([H])([H])C([H])([H])N3C([H])([H])C([H])([H])C([H])([H])C3([H])[H])c([H])c2[H])c(N([H])S(=O)(=O)c2c([H])c([H])c(Cl)c(Cl)c2[H])c([H])c1Cl


 38 41  0  0  0  0  0  0  0  0999 V2000
  -22.6012   18.4264  -22.0549 C   0  0  0  0  0  0  0  0  0  0  0  0
  -23.4784   17.5110  -22.5046 N   0  0  0  0  0  0  0  0  0  0  0  0
  -23.8603   17.4764  -23.7845 C   0  0  0  0  0  0  0  0  0  0  0  0
  -23.3463   18.3914  -24.6504 C   0  0  0  0  0  0  0  0  0  0  0  0
  -23.8547   18.3377  -26.3295 Cl  0  0  0  0  0  0  0  0  0  0  0  0
  -22.4298   19.3549  -24.2029 C   0  0  0  0  0  0  0  0  0  0  0  0
  -22.0504   19.3742  -22.8832 C   0  0  0  0  0  0  0  0  0  0  0  0
  -21.1172   20.2899  -22.3452 N   0  0  0  0  0  0  0  0  0  0  0  0
  -21.4240   21.0300  -21.6474 H   0  0  0  0  0  0  0  0  0  0  0  0
  -19.4714   20.2103  -22.8200 S   0  0  0  0  0  0  0  0  0  0  0  0
  -19.3714   20.6275  -24.2816 O   0  0  0  0  0  0  0  0  0  0  0  0
  -18.7064   21.2230  -21.9710 O   0  0  0  0  0  0  0  0  0  0  0  0
  -18.7235   18.6688  -22.6322 C   0  0  0  0  0  0  0  0  0  0  0  0
  -18.9723   17.6331  -23.5393 C   0  0  0  0  0  0  0  0  0  0  0  0
  -18.3574   16.4299  -23.3447 C   0  0  0  0  0  0  0  0  0  0  0  0
  -17.5030   16.2290  -22.2736 C   0  0  0  0  0  0  0  0  0  0  0  0
  -16.7262   14.6851  -22.0379 Cl  0  0  0  0  0  0  0  0  0  0  0  0
  -17.2535   17.2543  -21.3707 C   0  0  0  0  0  0  0  0  0  0  0  0
  -16.1708   16.9590  -20.0358 Cl  0  0  0  0  0  0  0  0  0  0  0  0
  -17.8777   18.4792  -21.5670 C   0  0  0  0  0  0  0  0  0  0  0  0
  -22.2515   18.3966  -20.7009 O   0  0  0  0  0  0  0  0  0  0  0  0
  -21.0418   14.8537  -18.8068 C   0  0  0  0  0  0  0  0  0  0  0  0
  -20.5072   15.2214  -20.0507 C   0  0  0  0  0  0  0  0  0  0  0  0
  -20.9135   16.3916  -20.6669 C   0  0  0  0  0  0  0  0  0  0  0  0
  -21.8425   17.2243  -20.0901 C   0  0  0  0  0  0  0  0  0  0  0  0
  -22.3508   16.8420  -18.8732 C   0  0  0  0  0  0  0  0  0  0  0  0
  -21.9612   15.6765  -18.2357 C   0  0  0  0  0  0  0  0  0  0  0  0
  -19.5847   12.9940  -18.6578 O   0  0  0  0  0  0  0  0  0  0  0  0
  -20.5911   13.6261  -18.1694 C   0  0  0  0  0  0  0  0  0  0  0  0
  -21.2109   13.0851  -17.0251 N   0  0  0  0  0  0  0  0  0  0  0  0
  -22.0316   13.6186  -16.6461 H   0  0  0  0  0  0  0  0  0  0  0  0
  -20.8348   11.8838  -16.3359 C   0  0  0  0  0  0  0  0  0  0  0  0
  -21.4594   11.8746  -14.9678 C   0  0  0  0  0  0  0  0  0  0  0  0
  -22.6499   11.0745  -14.9707 N   0  0  0  0  0  0  0  0  0  0  0  0
  -23.2794   10.8958  -13.7073 C   0  0  0  0  0  0  0  0  0  0  0  0
  -23.0090    9.4675  -13.2642 C   0  0  0  0  0  0  0  0  0  0  0  0
  -22.8150    8.7541  -14.5717 C   0  0  0  0  0  0  0  0  0  0  0  0
  -22.5274    9.8044  -15.6125 C   0  0  0  0  0  0  0  0  0  0  0  0
 28 29  2  0  0  0
 29 30  1  0  0  0
 30 32  1  0  0  0
 32 33  1  0  0  0
 33 34  1  0  0  0
 34 35  1  0  0  0
 35 36  1  0  0  0
 36 37  1  0  0  0
 37 38  1  0  0  0
 29 22  1  0  0  0
 22 23  2  0  0  0
 23 24  1  0  0  0
 24 25  2  0  0  0
 25 21  1  0  0  0
 21  1  1  0  0  0
  1  2  2  0  0  0
  2  3  1  0  0  0
  3  4  2  0  0  0
  4  5  1  0  0  0
  4  6  1  0  0  0
  6  7  2  0  0  0
  7  8  1  0  0  0
  8 10  1  0  0  0
 10 11  2  0  0  0
 10 12  2  0  0  0
 10 13  1  0  0  0
 13 14  2  0  0  0
 14 15  1  0  0  0
 15 16  2  0  0  0
 16 17  1  0  0  0
 16 18  1  0  0  0
 18 19  1  0  0  0
 18 20  2  0  0  0
 25 26  1  0  0  0
 26 27  2  0  0  0
 38 34  1  0  0  0
 27 22  1  0  0  0
  7  1  1  0  0  0
 20 13  1  0  0  0
 30 31  1  0  0  0
  8  9  1  0  0  0
M  END
> <minimizedAffinity>
-6.78238

> <CNNscore>
0.1679817587

> <CNNaffinity>
6.1715888977

> <CNN_VS>
1.0367143154

> <CNNaffinity_variance>
0.6745078564

$$$$
[H]c1nc(Oc2c([H])c([H])c(C(=O)N([H])C([H])([H])C([H])([H])N3C([H])([H])C([H])([H])C([H])([H])C3([H])[H])c([H])c2[H])c(N([H])S(=O)(=O)c2c([H])c([H])c(Cl)c(Cl)c2[H])c([H])c1Cl


 38 41  0  0  0  0  0  0  0  0999 V2000
  -17.3541   13.3996  -20.8758 C   0  0  0  0  0  0  0  0  0  0  0  0
  -17.0700   12.3682  -21.6913 N   0  0  0  0  0  0  0  0  0  0  0  0
  -17.2653   12.4444  -23.0109 C   0  0  0  0  0  0  0  0  0  0  0  0
  -17.7636   13.5956  -23.5379 C   0  0  0  0  0  0  0  0  0  0  0  0
  -18.0169   13.6853  -25.2724 Cl  0  0  0  0  0  0  0  0  0  0  0  0
  -18.0667   14.6838  -22.7057 C   0  0  0  0  0  0  0  0  0  0  0  0
  -17.8595   14.5854  -21.3517 C   0  0  0  0  0  0  0  0  0  0  0  0
  -18.1122   15.6341  -20.4379 N   0  0  0  0  0  0  0  0  0  0  0  0
  -17.3316   16.0269  -19.8336 H   0  0  0  0  0  0  0  0  0  0  0  0
  -19.6932   16.2833  -20.2988 S   0  0  0  0  0  0  0  0  0  0  0  0
  -20.6901   15.1318  -20.3214 O   0  0  0  0  0  0  0  0  0  0  0  0
  -19.7797   16.9759  -18.9407 O   0  0  0  0  0  0  0  0  0  0  0  0
  -20.1334   17.4201  -21.5174 C   0  0  0  0  0  0  0  0  0  0  0  0
  -19.1633   18.1939  -22.1636 C   0  0  0  0  0  0  0  0  0  0  0  0
  -19.5639   19.0822  -23.1197 C   0  0  0  0  0  0  0  0  0  0  0  0
  -20.9015   19.2217  -23.4500 C   0  0  0  0  0  0  0  0  0  0  0  0
  -21.3974   20.3624  -24.6729 Cl  0  0  0  0  0  0  0  0  0  0  0  0
  -21.8676   18.4557  -22.8108 C   0  0  0  0  0  0  0  0  0  0  0  0
  -23.5408   18.6627  -23.2571 Cl  0  0  0  0  0  0  0  0  0  0  0  0
  -21.4622   17.5513  -21.8381 C   0  0  0  0  0  0  0  0  0  0  0  0
  -17.1214   13.2415  -19.5055 O   0  0  0  0  0  0  0  0  0  0  0  0
  -19.6368   10.8650  -17.1331 C   0  0  0  0  0  0  0  0  0  0  0  0
  -19.8654   12.2429  -17.2649 C   0  0  0  0  0  0  0  0  0  0  0  0
  -19.0294   13.0175  -18.0492 C   0  0  0  0  0  0  0  0  0  0  0  0
  -17.9599   12.4721  -18.7185 C   0  0  0  0  0  0  0  0  0  0  0  0
  -17.7574   11.1219  -18.5730 C   0  0  0  0  0  0  0  0  0  0  0  0
  -18.5788   10.3246  -17.7943 C   0  0  0  0  0  0  0  0  0  0  0  0
  -21.7653   10.4197  -16.1977 O   0  0  0  0  0  0  0  0  0  0  0  0
  -20.5356   10.0661  -16.3145 C   0  0  0  0  0  0  0  0  0  0  0  0
  -20.1210    8.9049  -15.6317 N   0  0  0  0  0  0  0  0  0  0  0  0
  -19.1119    8.6376  -15.7413 H   0  0  0  0  0  0  0  0  0  0  0  0
  -20.9366    8.0618  -14.8048 C   0  0  0  0  0  0  0  0  0  0  0  0
  -20.6502    6.6200  -15.1229 C   0  0  0  0  0  0  0  0  0  0  0  0
  -21.8710    5.9219  -15.4056 N   0  0  0  0  0  0  0  0  0  0  0  0
  -22.3153    5.0186  -14.4001 C   0  0  0  0  0  0  0  0  0  0  0  0
  -22.0626    3.6102  -14.9122 C   0  0  0  0  0  0  0  0  0  0  0  0
  -22.1048    3.7952  -16.4022 C   0  0  0  0  0  0  0  0  0  0  0  0
  -21.9162    5.2649  -16.6730 C   0  0  0  0  0  0  0  0  0  0  0  0
 28 29  2  0  0  0
 29 30  1  0  0  0
 30 32  1  0  0  0
 32 33  1  0  0  0
 33 34  1  0  0  0
 34 35  1  0  0  0
 35 36  1  0  0  0
 36 37  1  0  0  0
 37 38  1  0  0  0
 29 22  1  0  0  0
 22 23  2  0  0  0
 23 24  1  0  0  0
 24 25  2  0  0  0
 25 21  1  0  0  0
 21  1  1  0  0  0
  1  2  2  0  0  0
  2  3  1  0  0  0
  3  4  2  0  0  0
  4  5  1  0  0  0
  4  6  1  0  0  0
  6  7  2  0  0  0
  7  8  1  0  0  0
  8 10  1  0  0  0
 10 11  2  0  0  0
 10 12  2  0  0  0
 10 13  1  0  0  0
 13 14  2  0  0  0
 14 15  1  0  0  0
 15 16  2  0  0  0
 16 17  1  0  0  0
 16 18  1  0  0  0
 18 19  1  0  0  0
 18 20  2  0  0  0
 25 26  1  0  0  0
 26 27  2  0  0  0
 38 34  1  0  0  0
 27 22  1  0  0  0
  7  1  1  0  0  0
 20 13  1  0  0  0
 30 31  1  0  0  0
  8  9  1  0  0  0
M  END
> <minimizedAffinity>
-7.20802

> <CNNscore>
0.1636386216

> <CNNaffinity>
6.7291221619

> <CNN_VS>
1.1011443138

> <CNNaffinity_variance>
0.0870553851

$$$$
[H]c1c([H])c(N([H])c2nc(N([H])[H])nc(C([H])([H])Cl)n2)c([H])c([H])c1OC([H])([H])[H]


 21 22  0  0  0  0  0  0  0  0999 V2000
  -17.3125   10.3575  -19.1134 C   0  0  0  0  0  0  0  0  0  0  0  0
  -16.3096   10.0475  -19.9421 N   0  0  0  0  0  0  0  0  0  0  0  0
  -15.9715   10.7065  -21.0521 C   0  0  0  0  0  0  0  0  0  0  0  0
  -14.8886   10.3151  -21.8849 N   0  0  0  0  0  0  0  0  0  0  0  0
  -16.7090   11.8036  -21.3884 N   0  0  0  0  0  0  0  0  0  0  0  0
  -17.7387   12.1752  -20.5957 C   0  0  0  0  0  0  0  0  0  0  0  0
  -18.0226   11.4704  -19.4989 N   0  0  0  0  0  0  0  0  0  0  0  0
  -14.1378    9.7001  -21.5064 H   0  0  0  0  0  0  0  0  0  0  0  0
  -14.8421   10.6401  -22.8717 H   0  0  0  0  0  0  0  0  0  0  0  0
  -17.6749    9.6664  -17.9401 N   0  0  0  0  0  0  0  0  0  0  0  0
  -16.9589    8.9690  -17.5933 H   0  0  0  0  0  0  0  0  0  0  0  0
  -21.1942    9.8190  -15.6793 C   0  0  0  0  0  0  0  0  0  0  0  0
  -20.7820   10.9601  -16.3200 C   0  0  0  0  0  0  0  0  0  0  0  0
  -19.6149   10.9630  -17.0963 C   0  0  0  0  0  0  0  0  0  0  0  0
  -18.8652    9.8144  -17.2246 C   0  0  0  0  0  0  0  0  0  0  0  0
  -19.3136    8.6542  -16.5543 C   0  0  0  0  0  0  0  0  0  0  0  0
  -20.4607    8.6620  -15.7950 C   0  0  0  0  0  0  0  0  0  0  0  0
  -23.5235    9.2990  -15.4230 C   0  0  0  0  0  0  0  0  0  0  0  0
  -22.3418    9.8406  -14.9239 O   0  0  0  0  0  0  0  0  0  0  0  0
  -18.5726   13.3705  -20.9267 C   0  0  0  0  0  0  0  0  0  0  0  0
  -19.9927   13.4077  -19.8579 Cl  0  0  0  0  0  0  0  0  0  0  0  0
 18 19  1  0  0  0
 19 12  1  0  0  0
 12 13  2  0  0  0
 13 14  1  0  0  0
 14 15  2  0  0  0
 15 10  1  0  0  0
 10  1  1  0  0  0
  1  2  2  0  0  0
  2  3  1  0  0  0
  3  4  1  0  0  0
  3  5  2  0  0  0
  5  6  1  0  0  0
  6 20  1  0  0  0
 20 21  1  0  0  0
  6  7  2  0  0  0
 15 16  1  0  0  0
 16 17  2  0  0  0
 17 12  1  0  0  0
  7  1  1  0  0  0
 10 11  1  0  0  0
  4  8  1  0  0  0
  4  9  1  0  0  0
M  END
> <minimizedAffinity>
-6.20450

> <CNNscore>
0.9666968584

> <CNNaffinity>
5.8740515709

> <CNN_VS>
5.6784272194

> <CNNaffinity_variance>
0.0443379283

$$$$
[H]c1c([H])c(N([H])c2nc(N([H])[H])nc(C([H])([H])Cl)n2)c([H])c([H])c1OC([H])([H])[H]


 21 22  0  0  0  0  0  0  0  0999 V2000
  -16.7218   11.9672  -21.4242 C   0  0  0  0  0  0  0  0  0  0  0  0
  -16.7999   10.9836  -20.5213 N   0  0  0  0  0  0  0  0  0  0  0  0
  -17.4083   11.0484  -19.3353 C   0  0  0  0  0  0  0  0  0  0  0  0
  -17.4495    9.9570  -18.4261 N   0  0  0  0  0  0  0  0  0  0  0  0
  -18.0133   12.2228  -18.9957 N   0  0  0  0  0  0  0  0  0  0  0  0
  -17.9737   13.2603  -19.8609 C   0  0  0  0  0  0  0  0  0  0  0  0
  -17.3474   13.1272  -21.0317 N   0  0  0  0  0  0  0  0  0  0  0  0
  -17.2829    8.9878  -18.7698 H   0  0  0  0  0  0  0  0  0  0  0  0
  -17.6454   10.1215  -17.4182 H   0  0  0  0  0  0  0  0  0  0  0  0
  -16.0814   11.9057  -22.6778 N   0  0  0  0  0  0  0  0  0  0  0  0
  -15.4947   11.0399  -22.8377 H   0  0  0  0  0  0  0  0  0  0  0  0
  -15.9761   14.8482  -25.6528 C   0  0  0  0  0  0  0  0  0  0  0  0
  -17.0907   14.0531  -25.5627 C   0  0  0  0  0  0  0  0  0  0  0  0
  -17.1816   13.0572  -24.5804 C   0  0  0  0  0  0  0  0  0  0  0  0
  -16.1475   12.8649  -23.6908 C   0  0  0  0  0  0  0  0  0  0  0  0
  -15.0125   13.6984  -23.8066 C   0  0  0  0  0  0  0  0  0  0  0  0
  -14.9334   14.6730  -24.7742 C   0  0  0  0  0  0  0  0  0  0  0  0
  -15.9316   15.4674  -27.9714 C   0  0  0  0  0  0  0  0  0  0  0  0
  -15.9099   15.8179  -26.6240 O   0  0  0  0  0  0  0  0  0  0  0  0
  -18.6234   14.5647  -19.5292 C   0  0  0  0  0  0  0  0  0  0  0  0
  -20.2130   14.6452  -20.3210 Cl  0  0  0  0  0  0  0  0  0  0  0  0
 18 19  1  0  0  0
 19 12  1  0  0  0
 12 13  2  0  0  0
 13 14  1  0  0  0
 14 15  2  0  0  0
 15 10  1  0  0  0
 10  1  1  0  0  0
  1  2  2  0  0  0
  2  3  1  0  0  0
  3  4  1  0  0  0
  3  5  2  0  0  0
  5  6  1  0  0  0
  6 20  1  0  0  0
 20 21  1  0  0  0
  6  7  2  0  0  0
 15 16  1  0  0  0
 16 17  2  0  0  0
 17 12  1  0  0  0
  7  1  1  0  0  0
 10 11  1  0  0  0
  4  8  1  0  0  0
  4  9  1  0  0  0
M  END
> <minimizedAffinity>
-6.61353

> <CNNscore>
0.8546543717

> <CNNaffinity>
5.9108638763

> <CNN_VS>
5.0517454147

> <CNNaffinity_variance>
0.0601054505

$$$$
[H]c1c([H])c(N([H])c2nc(N([H])[H])nc(C([H])([H])Cl)n2)c([H])c([H])c1OC([H])([H])[H]


 21 22  0  0  0  0  0  0  0  0999 V2000
  -17.5825   13.0226  -21.5733 C   0  0  0  0  0  0  0  0  0  0  0  0
  -16.5474   12.6875  -22.3512 N   0  0  0  0  0  0  0  0  0  0  0  0
  -15.7554   11.6248  -22.1955 C   0  0  0  0  0  0  0  0  0  0  0  0
  -14.6710   11.3337  -23.0666 N   0  0  0  0  0  0  0  0  0  0  0  0
  -16.0122   10.7901  -21.1477 N   0  0  0  0  0  0  0  0  0  0  0  0
  -17.0438   11.0677  -20.3198 C   0  0  0  0  0  0  0  0  0  0  0  0
  -17.7967   12.1484  -20.5335 N   0  0  0  0  0  0  0  0  0  0  0  0
  -14.6433   11.7526  -24.0199 H   0  0  0  0  0  0  0  0  0  0  0  0
  -13.9039   10.7038  -22.7562 H   0  0  0  0  0  0  0  0  0  0  0  0
  -18.4226   14.1426  -21.7319 N   0  0  0  0  0  0  0  0  0  0  0  0
  -18.7667   14.3068  -22.7189 H   0  0  0  0  0  0  0  0  0  0  0  0
  -19.3091   16.8946  -18.7052 C   0  0  0  0  0  0  0  0  0  0  0  0
  -20.3510   16.2665  -19.3397 C   0  0  0  0  0  0  0  0  0  0  0  0
  -20.1107   15.3306  -20.3552 C   0  0  0  0  0  0  0  0  0  0  0  0
  -18.8194   15.0303  -20.7293 C   0  0  0  0  0  0  0  0  0  0  0  0
  -17.7662   15.6919  -20.0587 C   0  0  0  0  0  0  0  0  0  0  0  0
  -18.0130   16.6086  -19.0632 C   0  0  0  0  0  0  0  0  0  0  0  0
  -19.1665   17.5595  -16.4033 C   0  0  0  0  0  0  0  0  0  0  0  0
  -19.5695   17.8084  -17.7127 O   0  0  0  0  0  0  0  0  0  0  0  0
  -17.3603   10.1801  -19.1598 C   0  0  0  0  0  0  0  0  0  0  0  0
  -18.5257   10.9996  -18.0966 Cl  0  0  0  0  0  0  0  0  0  0  0  0
 18 19  1  0  0  0
 19 12  1  0  0  0
 12 13  2  0  0  0
 13 14  1  0  0  0
 14 15  2  0  0  0
 15 10  1  0  0  0
 10  1  1  0  0  0
  1  2  2  0  0  0
  2  3  1  0  0  0
  3  4  1  0  0  0
  3  5  2  0  0  0
  5  6  1  0  0  0
  6 20  1  0  0  0
 20 21  1  0  0  0
  6  7  2  0  0  0
 15 16  1  0  0  0
 16 17  2  0  0  0
 17 12  1  0  0  0
  7  1  1  0  0  0
 10 11  1  0  0  0
  4  8  1  0  0  0
  4  9  1  0  0  0
M  END
> <minimizedAffinity>
-5.32203

> <CNNscore>
0.8185673356

> <CNNaffinity>
5.9257364273

> <CNN_VS>
4.8506140709

> <CNNaffinity_variance>
0.2319910526

$$$$
[H]c1c([H])c(N([H])c2nc(N([H])[H])nc(C([H])([H])Cl)n2)c([H])c([H])c1OC([H])([H])[H]


 21 22  0  0  0  0  0  0  0  0999 V2000
  -15.7386   13.5922  -23.6454 C   0  0  0  0  0  0  0  0  0  0  0  0
  -15.9815   14.6430  -22.8544 N   0  0  0  0  0  0  0  0  0  0  0  0
  -15.8503   15.9283  -23.1882 C   0  0  0  0  0  0  0  0  0  0  0  0
  -16.1286   16.9934  -22.2896 N   0  0  0  0  0  0  0  0  0  0  0  0
  -15.4291   16.2156  -24.4534 N   0  0  0  0  0  0  0  0  0  0  0  0
  -15.1647   15.2020  -25.3074 C   0  0  0  0  0  0  0  0  0  0  0  0
  -15.3172   13.9380  -24.9079 N   0  0  0  0  0  0  0  0  0  0  0  0
  -16.7316   16.8266  -21.4567 H   0  0  0  0  0  0  0  0  0  0  0  0
  -15.7326   17.9398  -22.4598 H   0  0  0  0  0  0  0  0  0  0  0  0
  -15.8750   12.2331  -23.2996 N   0  0  0  0  0  0  0  0  0  0  0  0
  -15.6778   11.5506  -24.0836 H   0  0  0  0  0  0  0  0  0  0  0  0
  -17.2481   10.8938  -19.5791 C   0  0  0  0  0  0  0  0  0  0  0  0
  -16.1293   10.3040  -20.1110 C   0  0  0  0  0  0  0  0  0  0  0  0
  -15.6221   10.7189  -21.3502 C   0  0  0  0  0  0  0  0  0  0  0  0
  -16.2451   11.7281  -22.0510 C   0  0  0  0  0  0  0  0  0  0  0  0
  -17.3949   12.3176  -21.4793 C   0  0  0  0  0  0  0  0  0  0  0  0
  -17.8843   11.9031  -20.2622 C   0  0  0  0  0  0  0  0  0  0  0  0
  -18.9164   10.9861  -17.8558 C   0  0  0  0  0  0  0  0  0  0  0  0
  -17.7266   10.4702  -18.3628 O   0  0  0  0  0  0  0  0  0  0  0  0
  -14.7010   15.4717  -26.7023 C   0  0  0  0  0  0  0  0  0  0  0  0
  -16.0866   15.3646  -27.8108 Cl  0  0  0  0  0  0  0  0  0  0  0  0
 18 19  1  0  0  0
 19 12  1  0  0  0
 12 13  2  0  0  0
 13 14  1  0  0  0
 14 15  2  0  0  0
 15 10  1  0  0  0
 10  1  1  0  0  0
  1  2  2  0  0  0
  2  3  1  0  0  0
  3  4  1  0  0  0
  3  5  2  0  0  0
  5  6  1  0  0  0
  6 20  1  0  0  0
 20 21  1  0  0  0
  6  7  2  0  0  0
 15 16  1  0  0  0
 16 17  2  0  0  0
 17 12  1  0  0  0
  7  1  1  0  0  0
 10 11  1  0  0  0
  4  8  1  0  0  0
  4  9  1  0  0  0
M  END
> <minimizedAffinity>
-7.05779

> <CNNscore>
0.5980721712

> <CNNaffinity>
5.9472966194

> <CNN_VS>
3.5569126606

> <CNNaffinity_variance>
0.1142922267

$$$$
[H]c1c([H])c(N([H])c2nc(N([H])[H])nc(C([H])([H])Cl)n2)c([H])c([H])c1OC([H])([H])[H]


 21 22  0  0  0  0  0  0  0  0999 V2000
  -17.6506   12.8773  -21.1225 C   0  0  0  0  0  0  0  0  0  0  0  0
  -16.7201   12.0156  -21.5474 N   0  0  0  0  0  0  0  0  0  0  0  0
  -16.3565   10.8846  -20.9396 C   0  0  0  0  0  0  0  0  0  0  0  0
  -15.3557   10.0168  -21.4543 N   0  0  0  0  0  0  0  0  0  0  0  0
  -16.9838   10.5614  -19.7723 N   0  0  0  0  0  0  0  0  0  0  0  0
  -17.9355   11.3873  -19.2836 C   0  0  0  0  0  0  0  0  0  0  0  0
  -18.2507   12.5037  -19.9429 N   0  0  0  0  0  0  0  0  0  0  0  0
  -15.0935   10.0654  -22.4612 H   0  0  0  0  0  0  0  0  0  0  0  0
  -14.8834    9.3326  -20.8295 H   0  0  0  0  0  0  0  0  0  0  0  0
  -18.0394   14.0728  -21.7591 N   0  0  0  0  0  0  0  0  0  0  0  0
  -18.4082   13.9551  -22.7437 H   0  0  0  0  0  0  0  0  0  0  0  0
  -18.1543   17.9153  -20.1032 C   0  0  0  0  0  0  0  0  0  0  0  0
  -16.9291   17.3438  -20.3376 C   0  0  0  0  0  0  0  0  0  0  0  0
  -16.8327   16.0623  -20.8974 C   0  0  0  0  0  0  0  0  0  0  0  0
  -17.9728   15.3592  -21.2194 C   0  0  0  0  0  0  0  0  0  0  0  0
  -19.2206   15.9724  -20.9674 C   0  0  0  0  0  0  0  0  0  0  0  0
  -19.3042   17.2307  -20.4179 C   0  0  0  0  0  0  0  0  0  0  0  0
  -19.4298   19.8680  -19.5364 C   0  0  0  0  0  0  0  0  0  0  0  0
  -18.2235   19.1727  -19.5536 O   0  0  0  0  0  0  0  0  0  0  0  0
  -18.6478   11.0717  -18.0082 C   0  0  0  0  0  0  0  0  0  0  0  0
  -18.4643    9.3405  -17.6480 Cl  0  0  0  0  0  0  0  0  0  0  0  0
 18 19  1  0  0  0
 19 12  1  0  0  0
 12 13  2  0  0  0
 13 14  1  0  0  0
 14 15  2  0  0  0
 15 10  1  0  0  0
 10  1  1  0  0  0
  1  2  2  0  0  0
  2  3  1  0  0  0
  3  4  1  0  0  0
  3  5  2  0  0  0
  5  6  1  0  0  0
  6 20  1  0  0  0
 20 21  1  0  0  0
  6  7  2  0  0  0
 15 16  1  0  0  0
 16 17  2  0  0  0
 17 12  1  0  0  0
  7  1  1  0  0  0
 10 11  1  0  0  0
  4  8  1  0  0  0
  4  9  1  0  0  0
M  END
> <minimizedAffinity>
-5.52040

> <CNNscore>
0.5177333951

> <CNNaffinity>
5.6645355225

> <CNN_VS>
2.9327192307

> <CNNaffinity_variance>
0.4034340382

$$$$
[H]c1c([H])c(N([H])c2nc(N([H])[H])nc(C([H])([H])Cl)n2)c([H])c([H])c1OC([H])([H])[H]


 21 22  0  0  0  0  0  0  0  0999 V2000
  -17.8387   13.1120  -21.3274 C   0  0  0  0  0  0  0  0  0  0  0  0
  -17.0276   12.0609  -21.4890 N   0  0  0  0  0  0  0  0  0  0  0  0
  -16.8650   11.0512  -20.6317 C   0  0  0  0  0  0  0  0  0  0  0  0
  -15.9811    9.9652  -20.8741 N   0  0  0  0  0  0  0  0  0  0  0  0
  -17.5875   11.0781  -19.4750 N   0  0  0  0  0  0  0  0  0  0  0  0
  -18.4279   12.1113  -19.2454 C   0  0  0  0  0  0  0  0  0  0  0  0
  -18.5425   13.0892  -20.1461 N   0  0  0  0  0  0  0  0  0  0  0  0
  -15.6675    9.7572  -21.8454 H   0  0  0  0  0  0  0  0  0  0  0  0
  -15.6455    9.3764  -20.0853 H   0  0  0  0  0  0  0  0  0  0  0  0
  -18.0154   14.1811  -22.2281 N   0  0  0  0  0  0  0  0  0  0  0  0
  -18.8750   14.7733  -22.0555 H   0  0  0  0  0  0  0  0  0  0  0  0
  -15.7580   15.0895  -25.6339 C   0  0  0  0  0  0  0  0  0  0  0  0
  -15.2310   15.3920  -24.4038 C   0  0  0  0  0  0  0  0  0  0  0  0
  -15.9410   15.1025  -23.2303 C   0  0  0  0  0  0  0  0  0  0  0  0
  -17.1821   14.5087  -23.3000 C   0  0  0  0  0  0  0  0  0  0  0  0
  -17.7000   14.2081  -24.5798 C   0  0  0  0  0  0  0  0  0  0  0  0
  -16.9948   14.4961  -25.7253 C   0  0  0  0  0  0  0  0  0  0  0  0
  -15.6876   15.4854  -28.0003 C   0  0  0  0  0  0  0  0  0  0  0  0
  -15.0433   15.3826  -26.7702 O   0  0  0  0  0  0  0  0  0  0  0  0
  -19.2383   12.1805  -17.9916 C   0  0  0  0  0  0  0  0  0  0  0  0
  -19.4540   10.5397  -17.3426 Cl  0  0  0  0  0  0  0  0  0  0  0  0
 18 19  1  0  0  0
 19 12  1  0  0  0
 12 13  2  0  0  0
 13 14  1  0  0  0
 14 15  2  0  0  0
 15 10  1  0  0  0
 10  1  1  0  0  0
  1  2  2  0  0  0
  2  3  1  0  0  0
  3  4  1  0  0  0
  3  5  2  0  0  0
  5  6  1  0  0  0
  6 20  1  0  0  0
 20 21  1  0  0  0
  6  7  2  0  0  0
 15 16  1  0  0  0
 16 17  2  0  0  0
 17 12  1  0  0  0
  7  1  1  0  0  0
 10 11  1  0  0  0
  4  8  1  0  0  0
  4  9  1  0  0  0
M  END
> <minimizedAffinity>
-6.45652

> <CNNscore>
0.4632745087

> <CNNaffinity>
5.6595578194

> <CNN_VS>
2.6219289303

> <CNNaffinity_variance>
0.2494139224

$$$$
[H]c1c([H])c(N([H])c2nc(N([H])[H])nc(C([H])([H])Cl)n2)c([H])c([H])c1OC([H])([H])[H]


 21 22  0  0  0  0  0  0  0  0999 V2000
  -16.2946   13.7963  -23.2231 C   0  0  0  0  0  0  0  0  0  0  0  0
  -15.2876   13.9880  -24.0821 N   0  0  0  0  0  0  0  0  0  0  0  0
  -14.6955   15.1522  -24.3559 C   0  0  0  0  0  0  0  0  0  0  0  0
  -13.6271   15.2774  -25.2844 N   0  0  0  0  0  0  0  0  0  0  0  0
  -15.1484   16.2628  -23.7062 N   0  0  0  0  0  0  0  0  0  0  0  0
  -16.1645   16.1428  -22.8232 C   0  0  0  0  0  0  0  0  0  0  0  0
  -16.7118   14.9471  -22.5965 N   0  0  0  0  0  0  0  0  0  0  0  0
  -13.0673   14.4395  -25.5487 H   0  0  0  0  0  0  0  0  0  0  0  0
  -13.4011   16.2027  -25.7019 H   0  0  0  0  0  0  0  0  0  0  0  0
  -16.9241   12.5704  -22.9292 N   0  0  0  0  0  0  0  0  0  0  0  0
  -17.2229   12.0078  -23.7740 H   0  0  0  0  0  0  0  0  0  0  0  0
  -17.4466   10.8538  -19.1476 C   0  0  0  0  0  0  0  0  0  0  0  0
  -18.2696   11.8894  -19.5118 C   0  0  0  0  0  0  0  0  0  0  0  0
  -18.1430   12.4957  -20.7693 C   0  0  0  0  0  0  0  0  0  0  0  0
  -17.1857   12.0564  -21.6572 C   0  0  0  0  0  0  0  0  0  0  0  0
  -16.3525   10.9882  -21.2557 C   0  0  0  0  0  0  0  0  0  0  0  0
  -16.4853   10.3999  -20.0193 C   0  0  0  0  0  0  0  0  0  0  0  0
  -18.8435    9.8636  -17.4655 C   0  0  0  0  0  0  0  0  0  0  0  0
  -17.5897   10.2752  -17.9096 O   0  0  0  0  0  0  0  0  0  0  0  0
  -16.6916   17.3334  -22.0895 C   0  0  0  0  0  0  0  0  0  0  0  0
  -16.1016   17.2963  -20.4130 Cl  0  0  0  0  0  0  0  0  0  0  0  0
 18 19  1  0  0  0
 19 12  1  0  0  0
 12 13  2  0  0  0
 13 14  1  0  0  0
 14 15  2  0  0  0
 15 10  1  0  0  0
 10  1  1  0  0  0
  1  2  2  0  0  0
  2  3  1  0  0  0
  3  4  1  0  0  0
  3  5  2  0  0  0
  5  6  1  0  0  0
  6 20  1  0  0  0
 20 21  1  0  0  0
  6  7  2  0  0  0
 15 16  1  0  0  0
 16 17  2  0  0  0
 17 12  1  0  0  0
  7  1  1  0  0  0
 10 11  1  0  0  0
  4  8  1  0  0  0
  4  9  1  0  0  0
M  END
> <minimizedAffinity>
-6.68089

> <CNNscore>
0.4532600343

> <CNNaffinity>
5.5815033913

> <CNN_VS>
2.5298724174

> <CNNaffinity_variance>
0.2283321619

$$$$
[H]c1c([H])c(N([H])c2nc(N([H])[H])nc(C([H])([H])Cl)n2)c([H])c([H])c1OC([H])([H])[H]


 21 22  0  0  0  0  0  0  0  0999 V2000
  -19.2578   10.7059  -17.4293 C   0  0  0  0  0  0  0  0  0  0  0  0
  -18.1973   10.1185  -17.9942 N   0  0  0  0  0  0  0  0  0  0  0  0
  -17.4110   10.6467  -18.9342 C   0  0  0  0  0  0  0  0  0  0  0  0
  -16.2980    9.9584  -19.4883 N   0  0  0  0  0  0  0  0  0  0  0  0
  -17.7027   11.9051  -19.3721 N   0  0  0  0  0  0  0  0  0  0  0  0
  -18.7614   12.5589  -18.8446 C   0  0  0  0  0  0  0  0  0  0  0  0
  -19.5067   11.9714  -17.9065 N   0  0  0  0  0  0  0  0  0  0  0  0
  -15.8726    9.1589  -18.9737 H   0  0  0  0  0  0  0  0  0  0  0  0
  -15.9056   10.2497  -20.4063 H   0  0  0  0  0  0  0  0  0  0  0  0
  -20.0919   10.1544  -16.4366 N   0  0  0  0  0  0  0  0  0  0  0  0
  -21.0054    9.7558  -16.7915 H   0  0  0  0  0  0  0  0  0  0  0  0
  -19.1754    9.6994  -12.3778 C   0  0  0  0  0  0  0  0  0  0  0  0
  -19.6098   10.9257  -12.8137 C   0  0  0  0  0  0  0  0  0  0  0  0
  -19.9375   11.1314  -14.1610 C   0  0  0  0  0  0  0  0  0  0  0  0
  -19.8259   10.0993  -15.0665 C   0  0  0  0  0  0  0  0  0  0  0  0
  -19.3765    8.8474  -14.5898 C   0  0  0  0  0  0  0  0  0  0  0  0
  -19.0577    8.6561  -13.2653 C   0  0  0  0  0  0  0  0  0  0  0  0
  -19.1357   10.5216  -10.1231 C   0  0  0  0  0  0  0  0  0  0  0  0
  -18.8600    9.5219  -11.0523 O   0  0  0  0  0  0  0  0  0  0  0  0
  -19.1167   13.9389  -19.2953 C   0  0  0  0  0  0  0  0  0  0  0  0
  -20.7750   13.9369  -19.9356 Cl  0  0  0  0  0  0  0  0  0  0  0  0
 18 19  1  0  0  0
 19 12  1  0  0  0
 12 13  2  0  0  0
 13 14  1  0  0  0
 14 15  2  0  0  0
 15 10  1  0  0  0
 10  1  1  0  0  0
  1  2  2  0  0  0
  2  3  1  0  0  0
  3  4  1  0  0  0
  3  5  2  0  0  0
  5  6  1  0  0  0
  6 20  1  0  0  0
 20 21  1  0  0  0
  6  7  2  0  0  0
 15 16  1  0  0  0
 16 17  2  0  0  0
 17 12  1  0  0  0
  7  1  1  0  0  0
 10 11  1  0  0  0
  4  8  1  0  0  0
  4  9  1  0  0  0
M  END
> <minimizedAffinity>
-5.40407

> <CNNscore>
0.4448558986

> <CNNaffinity>
4.8284645081

> <CNN_VS>
2.1479709148

> <CNNaffinity_variance>
0.0831513107

$$$$
[H]c1c([H])c(N([H])c2nc(N([H])[H])nc(C([H])([H])Cl)n2)c([H])c([H])c1OC([H])([H])[H]


 21 22  0  0  0  0  0  0  0  0999 V2000
  -17.4205   12.3879  -20.1011 C   0  0  0  0  0  0  0  0  0  0  0  0
  -17.8441   13.6270  -19.8288 N   0  0  0  0  0  0  0  0  0  0  0  0
  -17.9113   14.6444  -20.6896 C   0  0  0  0  0  0  0  0  0  0  0  0
  -18.3744   15.9375  -20.3246 N   0  0  0  0  0  0  0  0  0  0  0  0
  -17.5139   14.4161  -21.9744 N   0  0  0  0  0  0  0  0  0  0  0  0
  -17.0737   13.1861  -22.3206 C   0  0  0  0  0  0  0  0  0  0  0  0
  -17.0322   12.2127  -21.4087 N   0  0  0  0  0  0  0  0  0  0  0  0
  -18.9610   16.0580  -19.4723 H   0  0  0  0  0  0  0  0  0  0  0  0
  -18.1300   16.7649  -20.9052 H   0  0  0  0  0  0  0  0  0  0  0  0
  -17.3470   11.3093  -19.1975 N   0  0  0  0  0  0  0  0  0  0  0  0
  -16.4651   10.7287  -19.2657 H   0  0  0  0  0  0  0  0  0  0  0  0
  -20.0883    9.9560  -16.3384 C   0  0  0  0  0  0  0  0  0  0  0  0
  -20.1847   11.2552  -16.7691 C   0  0  0  0  0  0  0  0  0  0  0  0
  -19.2972   11.7580  -17.7305 C   0  0  0  0  0  0  0  0  0  0  0  0
  -18.3133   10.9492  -18.2556 C   0  0  0  0  0  0  0  0  0  0  0  0
  -18.2376    9.6159  -17.7940 C   0  0  0  0  0  0  0  0  0  0  0  0
  -19.1139    9.1323  -16.8502 C   0  0  0  0  0  0  0  0  0  0  0  0
  -22.3136    9.8465  -15.4454 C   0  0  0  0  0  0  0  0  0  0  0  0
  -20.9697    9.4857  -15.3951 O   0  0  0  0  0  0  0  0  0  0  0  0
  -16.6288   12.8924  -23.7168 C   0  0  0  0  0  0  0  0  0  0  0  0
  -15.0102   13.5815  -23.9727 Cl  0  0  0  0  0  0  0  0  0  0  0  0
 18 19  1  0  0  0
 19 12  1  0  0  0
 12 13  2  0  0  0
 13 14  1  0  0  0
 14 15  2  0  0  0
 15 10  1  0  0  0
 10  1  1  0  0  0
  1  2  2  0  0  0
  2  3  1  0  0  0
  3  4  1  0  0  0
  3  5  2  0  0  0
  5  6  1  0  0  0
  6 20  1  0  0  0
 20 21  1  0  0  0
  6  7  2  0  0  0
 15 16  1  0  0  0
 16 17  2  0  0  0
 17 12  1  0  0  0
  7  1  1  0  0  0
 10 11  1  0  0  0
  4  8  1  0  0  0
  4  9  1  0  0  0
M  END
> <minimizedAffinity>
-5.96750

> <CNNscore>
0.4347916245

> <CNNaffinity>
5.2003126144

> <CNN_VS>
2.2610523701

> <CNNaffinity_variance>
0.1371861398

$$$$
[H]c1nc2sc3c(=O)n(C4([H])C([H])([H])C([H])([H])C([H])([H])C([H])([H])C4([H])[H])c([H])nc3c2c(N(C([H])([H])[H])C([H])([H])[H])c1[H]


 23 26  0  0  0  0  0  0  0  0999 V2000
  -19.0496   12.5418  -18.8717 C   0  0  0  0  0  0  0  0  0  0  0  0
  -19.3839   11.7441  -17.7960 C   0  0  0  0  0  0  0  0  0  0  0  0
  -18.8387   10.5084  -17.5345 C   0  0  0  0  0  0  0  0  0  0  0  0
  -17.9183   10.0928  -18.4208 N   0  0  0  0  0  0  0  0  0  0  0  0
  -17.5493   10.8445  -19.5072 C   0  0  0  0  0  0  0  0  0  0  0  0
  -16.4461   10.5903  -20.7840 S   0  0  0  0  0  0  0  0  0  0  0  0
  -16.6787   12.0429  -21.6433 C   0  0  0  0  0  0  0  0  0  0  0  0
  -16.1459   12.6009  -22.8218 C   0  0  0  0  0  0  0  0  0  0  0  0
  -15.2937   11.8974  -23.3974 O   0  0  0  0  0  0  0  0  0  0  0  0
  -16.5420   13.8010  -23.2701 N   0  0  0  0  0  0  0  0  0  0  0  0
  -17.4691   14.4287  -22.5309 C   0  0  0  0  0  0  0  0  0  0  0  0
  -17.9820   13.9179  -21.4177 N   0  0  0  0  0  0  0  0  0  0  0  0
  -17.6222   12.6979  -20.9030 C   0  0  0  0  0  0  0  0  0  0  0  0
  -18.0782   12.0756  -19.7874 C   0  0  0  0  0  0  0  0  0  0  0  0
  -15.9727   14.3372  -24.4799 C   0  0  0  0  0  0  0  0  0  0  0  0
  -16.8424   15.4001  -25.1039 C   0  0  0  0  0  0  0  0  0  0  0  0
  -16.2222   15.7925  -26.4135 C   0  0  0  0  0  0  0  0  0  0  0  0
  -14.8977   15.1736  -26.6797 C   0  0  0  0  0  0  0  0  0  0  0  0
  -13.9480   15.1887  -25.5245 C   0  0  0  0  0  0  0  0  0  0  0  0
  -14.6343   15.0293  -24.1877 C   0  0  0  0  0  0  0  0  0  0  0  0
  -20.9113   14.0705  -19.6913 C   0  0  0  0  0  0  0  0  0  0  0  0
  -19.6829   13.8043  -18.9737 N   0  0  0  0  0  0  0  0  0  0  0  0
  -19.0450   14.9206  -18.3020 C   0  0  0  0  0  0  0  0  0  0  0  0
 21 22  1  0  0  0
 22 23  1  0  0  0
 22  1  1  0  0  0
  1  2  2  0  0  0
  2  3  1  0  0  0
  3  4  2  0  0  0
  4  5  1  0  0  0
  5  6  1  0  0  0
  6  7  1  0  0  0
  7  8  1  0  0  0
  8  9  2  0  0  0
  8 10  1  0  0  0
 10 15  1  0  0  0
 15 16  1  0  0  0
 16 17  1  0  0  0
 17 18  1  0  0  0
 18 19  1  0  0  0
 19 20  1  0  0  0
 10 11  1  0  0  0
 11 12  2  0  0  0
 12 13  1  0  0  0
 13 14  1  0  0  0
 14  1  1  0  0  0
 14  5  2  0  0  0
 13  7  2  0  0  0
 20 15  1  0  0  0
M  END
> <minimizedAffinity>
-8.58781

> <CNNscore>
0.7994409800

> <CNNaffinity>
6.9438982010

> <CNN_VS>
5.5512366295

> <CNNaffinity_variance>
0.1020196229

$$$$
[H]c1nc2sc3c(=O)n(C4([H])C([H])([H])C([H])([H])C([H])([H])C([H])([H])C4([H])[H])c([H])nc3c2c(N(C([H])([H])[H])C([H])([H])[H])c1[H]


 23 26  0  0  0  0  0  0  0  0999 V2000
  -17.8905   14.0803  -20.9863 C   0  0  0  0  0  0  0  0  0  0  0  0
  -17.2149   14.3436  -22.1609 C   0  0  0  0  0  0  0  0  0  0  0  0
  -16.4620   13.4265  -22.8570 C   0  0  0  0  0  0  0  0  0  0  0  0
  -16.4124   12.1993  -22.3122 N   0  0  0  0  0  0  0  0  0  0  0  0
  -17.0637   11.8834  -21.1471 C   0  0  0  0  0  0  0  0  0  0  0  0
  -17.1793   10.4532  -20.2235 S   0  0  0  0  0  0  0  0  0  0  0  0
  -18.1751   11.0187  -18.9621 C   0  0  0  0  0  0  0  0  0  0  0  0
  -18.7254   10.4526  -17.7956 C   0  0  0  0  0  0  0  0  0  0  0  0
  -18.4451    9.2526  -17.6115 O   0  0  0  0  0  0  0  0  0  0  0  0
  -19.4904   11.1716  -16.9615 N   0  0  0  0  0  0  0  0  0  0  0  0
  -19.6954   12.4518  -17.3068 C   0  0  0  0  0  0  0  0  0  0  0  0
  -19.1849   13.0017  -18.4024 N   0  0  0  0  0  0  0  0  0  0  0  0
  -18.3956   12.3249  -19.2978 C   0  0  0  0  0  0  0  0  0  0  0  0
  -17.8176   12.7791  -20.4377 C   0  0  0  0  0  0  0  0  0  0  0  0
  -20.0347   10.5558  -15.7784 C   0  0  0  0  0  0  0  0  0  0  0  0
  -19.8966   11.4313  -14.5577 C   0  0  0  0  0  0  0  0  0  0  0  0
  -20.3743   10.6458  -13.3710 C   0  0  0  0  0  0  0  0  0  0  0  0
  -20.9708    9.3259  -13.7034 C   0  0  0  0  0  0  0  0  0  0  0  0
  -21.9245    9.3340  -14.8554 C   0  0  0  0  0  0  0  0  0  0  0  0
  -21.5426   10.3175  -15.9372 C   0  0  0  0  0  0  0  0  0  0  0  0
  -20.0601   15.3632  -20.6382 C   0  0  0  0  0  0  0  0  0  0  0  0
  -18.6489   15.1316  -20.4162 N   0  0  0  0  0  0  0  0  0  0  0  0
  -17.9501   16.0502  -19.5375 C   0  0  0  0  0  0  0  0  0  0  0  0
 21 22  1  0  0  0
 22 23  1  0  0  0
 22  1  1  0  0  0
  1  2  2  0  0  0
  2  3  1  0  0  0
  3  4  2  0  0  0
  4  5  1  0  0  0
  5  6  1  0  0  0
  6  7  1  0  0  0
  7  8  1  0  0  0
  8  9  2  0  0  0
  8 10  1  0  0  0
 10 15  1  0  0  0
 15 16  1  0  0  0
 16 17  1  0  0  0
 17 18  1  0  0  0
 18 19  1  0  0  0
 19 20  1  0  0  0
 10 11  1  0  0  0
 11 12  2  0  0  0
 12 13  1  0  0  0
 13 14  1  0  0  0
 14  1  1  0  0  0
 14  5  2  0  0  0
 13  7  2  0  0  0
 20 15  1  0  0  0
M  END
> <minimizedAffinity>
-6.78309

> <CNNscore>
0.6398823857

> <CNNaffinity>
6.4013528824

> <CNN_VS>
4.0961127281

> <CNNaffinity_variance>
0.1313361377

$$$$
[H]c1nc2sc3c(=O)n(C4([H])C([H])([H])C([H])([H])C([H])([H])C([H])([H])C4([H])[H])c([H])nc3c2c(N(C([H])([H])[H])C([H])([H])[H])c1[H]


 23 26  0  0  0  0  0  0  0  0999 V2000
  -18.5237   13.5611  -20.3728 C   0  0  0  0  0  0  0  0  0  0  0  0
  -17.9016   13.9592  -21.5389 C   0  0  0  0  0  0  0  0  0  0  0  0
  -16.9928   13.2031  -22.2425 C   0  0  0  0  0  0  0  0  0  0  0  0
  -16.7253   11.9969  -21.7144 N   0  0  0  0  0  0  0  0  0  0  0  0
  -17.3139   11.5517  -20.5582 C   0  0  0  0  0  0  0  0  0  0  0  0
  -17.1738   10.1105  -19.6552 S   0  0  0  0  0  0  0  0  0  0  0  0
  -18.2606   10.4686  -18.3930 C   0  0  0  0  0  0  0  0  0  0  0  0
  -18.7048    9.7955  -17.2382 C   0  0  0  0  0  0  0  0  0  0  0  0
  -18.2137    8.6631  -17.0688 O   0  0  0  0  0  0  0  0  0  0  0  0
  -19.5905   10.3526  -16.3996 N   0  0  0  0  0  0  0  0  0  0  0  0
  -20.0212   11.5798  -16.7286 C   0  0  0  0  0  0  0  0  0  0  0  0
  -19.6135   12.2289  -17.8129 N   0  0  0  0  0  0  0  0  0  0  0  0
  -18.7114   11.7186  -18.7122 C   0  0  0  0  0  0  0  0  0  0  0  0
  -18.2198   12.2863  -19.8417 C   0  0  0  0  0  0  0  0  0  0  0  0
  -20.0199    9.6313  -15.2289 C   0  0  0  0  0  0  0  0  0  0  0  0
  -19.7815   10.4050  -13.9560 C   0  0  0  0  0  0  0  0  0  0  0  0
  -20.1426    9.5156  -12.8018 C   0  0  0  0  0  0  0  0  0  0  0  0
  -20.7531    8.2174  -13.1898 C   0  0  0  0  0  0  0  0  0  0  0  0
  -21.8066    8.3041  -14.2478 C   0  0  0  0  0  0  0  0  0  0  0  0
  -21.5335    9.3805  -15.2727 C   0  0  0  0  0  0  0  0  0  0  0  0
  -20.8929   14.4123  -20.0033 C   0  0  0  0  0  0  0  0  0  0  0  0
  -19.4615   14.4501  -19.7935 N   0  0  0  0  0  0  0  0  0  0  0  0
  -18.9406   15.4826  -18.9177 C   0  0  0  0  0  0  0  0  0  0  0  0
 21 22  1  0  0  0
 22 23  1  0  0  0
 22  1  1  0  0  0
  1  2  2  0  0  0
  2  3  1  0  0  0
  3  4  2  0  0  0
  4  5  1  0  0  0
  5  6  1  0  0  0
  6  7  1  0  0  0
  7  8  1  0  0  0
  8  9  2  0  0  0
  8 10  1  0  0  0
 10 15  1  0  0  0
 15 16  1  0  0  0
 16 17  1  0  0  0
 17 18  1  0  0  0
 18 19  1  0  0  0
 19 20  1  0  0  0
 10 11  1  0  0  0
 11 12  2  0  0  0
 12 13  1  0  0  0
 13 14  1  0  0  0
 14  1  1  0  0  0
 14  5  2  0  0  0
 13  7  2  0  0  0
 20 15  1  0  0  0
M  END
> <minimizedAffinity>
-6.80699

> <CNNscore>
0.6318921447

> <CNNaffinity>
6.3489732742

> <CNN_VS>
4.0118665695

> <CNNaffinity_variance>
0.1709635258

$$$$
[H]c1nc2sc3c(=O)n(C4([H])C([H])([H])C([H])([H])C([H])([H])C([H])([H])C4([H])[H])c([H])nc3c2c(N(C([H])([H])[H])C([H])([H])[H])c1[H]


 23 26  0  0  0  0  0  0  0  0999 V2000
  -16.5309   16.5170  -22.8890 C   0  0  0  0  0  0  0  0  0  0  0  0
  -15.9817   17.0879  -24.0193 C   0  0  0  0  0  0  0  0  0  0  0  0
  -15.5416   16.3879  -25.1188 C   0  0  0  0  0  0  0  0  0  0  0  0
  -15.6783   15.0537  -25.0367 N   0  0  0  0  0  0  0  0  0  0  0  0
  -16.2164   14.4344  -23.9375 C   0  0  0  0  0  0  0  0  0  0  0  0
  -16.5042   12.7998  -23.5410 S   0  0  0  0  0  0  0  0  0  0  0  0
  -17.1766   13.0062  -21.9893 C   0  0  0  0  0  0  0  0  0  0  0  0
  -17.6695   12.1414  -20.9927 C   0  0  0  0  0  0  0  0  0  0  0  0
  -17.6265   10.9299  -21.2804 O   0  0  0  0  0  0  0  0  0  0  0  0
  -18.1444   12.6109  -19.8299 N   0  0  0  0  0  0  0  0  0  0  0  0
  -18.1197   13.9438  -19.6792 C   0  0  0  0  0  0  0  0  0  0  0  0
  -17.6589   14.7737  -20.6077 N   0  0  0  0  0  0  0  0  0  0  0  0
  -17.1600   14.3619  -21.8178 C   0  0  0  0  0  0  0  0  0  0  0  0
  -16.6602   15.1100  -22.8328 C   0  0  0  0  0  0  0  0  0  0  0  0
  -18.6399   11.6934  -18.8359 C   0  0  0  0  0  0  0  0  0  0  0  0
  -17.6276   10.6354  -18.4731 C   0  0  0  0  0  0  0  0  0  0  0  0
  -18.2889    9.6674  -17.5355 C   0  0  0  0  0  0  0  0  0  0  0  0
  -19.6568   10.0590  -17.1070 C   0  0  0  0  0  0  0  0  0  0  0  0
  -19.8108   11.4937  -16.7134 C   0  0  0  0  0  0  0  0  0  0  0  0
  -18.9441   12.4294  -17.5239 C   0  0  0  0  0  0  0  0  0  0  0  0
  -16.1770   17.7909  -20.7150 C   0  0  0  0  0  0  0  0  0  0  0  0
  -16.9652   17.3873  -21.8597 N   0  0  0  0  0  0  0  0  0  0  0  0
  -18.3119   17.9160  -21.9649 C   0  0  0  0  0  0  0  0  0  0  0  0
 21 22  1  0  0  0
 22 23  1  0  0  0
 22  1  1  0  0  0
  1  2  2  0  0  0
  2  3  1  0  0  0
  3  4  2  0  0  0
  4  5  1  0  0  0
  5  6  1  0  0  0
  6  7  1  0  0  0
  7  8  1  0  0  0
  8  9  2  0  0  0
  8 10  1  0  0  0
 10 15  1  0  0  0
 15 16  1  0  0  0
 16 17  1  0  0  0
 17 18  1  0  0  0
 18 19  1  0  0  0
 19 20  1  0  0  0
 10 11  1  0  0  0
 11 12  2  0  0  0
 12 13  1  0  0  0
 13 14  1  0  0  0
 14  1  1  0  0  0
 14  5  2  0  0  0
 13  7  2  0  0  0
 20 15  1  0  0  0
M  END
> <minimizedAffinity>
-7.85544

> <CNNscore>
0.6024200320

> <CNNaffinity>
6.5664567947

> <CNN_VS>
3.9557650089

> <CNNaffinity_variance>
0.0990023389

$$$$
[H]c1nc2sc3c(=O)n(C4([H])C([H])([H])C([H])([H])C([H])([H])C([H])([H])C4([H])[H])c([H])nc3c2c(N(C([H])([H])[H])C([H])([H])[H])c1[H]


 23 26  0  0  0  0  0  0  0  0999 V2000
  -16.9699   12.7416  -21.3300 C   0  0  0  0  0  0  0  0  0  0  0  0
  -16.1764   11.8288  -21.9954 C   0  0  0  0  0  0  0  0  0  0  0  0
  -15.9061   10.5540  -21.5545 C   0  0  0  0  0  0  0  0  0  0  0  0
  -16.4799   10.2219  -20.3859 N   0  0  0  0  0  0  0  0  0  0  0  0
  -17.2763   11.0897  -19.6830 C   0  0  0  0  0  0  0  0  0  0  0  0
  -18.1158   10.9675  -18.2023 S   0  0  0  0  0  0  0  0  0  0  0  0
  -18.8025   12.5255  -18.1447 C   0  0  0  0  0  0  0  0  0  0  0  0
  -19.6290   13.2184  -17.2387 C   0  0  0  0  0  0  0  0  0  0  0  0
  -19.9643   12.5677  -16.2304 O   0  0  0  0  0  0  0  0  0  0  0  0
  -20.0129   14.4828  -17.4664 N   0  0  0  0  0  0  0  0  0  0  0  0
  -19.5631   15.0390  -18.6015 C   0  0  0  0  0  0  0  0  0  0  0  0
  -18.7838   14.4009  -19.4667 N   0  0  0  0  0  0  0  0  0  0  0  0
  -18.3546   13.1088  -19.2965 C   0  0  0  0  0  0  0  0  0  0  0  0
  -17.5586   12.3620  -20.1017 C   0  0  0  0  0  0  0  0  0  0  0  0
  -20.8589   15.1569  -16.5151 C   0  0  0  0  0  0  0  0  0  0  0  0
  -20.3394   16.5254  -16.1506 C   0  0  0  0  0  0  0  0  0  0  0  0
  -21.2189   17.0785  -15.0671 C   0  0  0  0  0  0  0  0  0  0  0  0
  -22.4061   16.2434  -14.7487 C   0  0  0  0  0  0  0  0  0  0  0  0
  -23.1522   15.7243  -15.9365 C   0  0  0  0  0  0  0  0  0  0  0  0
  -22.2542   15.3980  -17.1072 C   0  0  0  0  0  0  0  0  0  0  0  0
  -16.4418   15.2123  -21.6323 C   0  0  0  0  0  0  0  0  0  0  0  0
  -17.1732   14.0024  -21.9419 N   0  0  0  0  0  0  0  0  0  0  0  0
  -18.2003   14.0842  -22.9631 C   0  0  0  0  0  0  0  0  0  0  0  0
 21 22  1  0  0  0
 22 23  1  0  0  0
 22  1  1  0  0  0
  1  2  2  0  0  0
  2  3  1  0  0  0
  3  4  2  0  0  0
  4  5  1  0  0  0
  5  6  1  0  0  0
  6  7  1  0  0  0
  7  8  1  0  0  0
  8  9  2  0  0  0
  8 10  1  0  0  0
 10 15  1  0  0  0
 15 16  1  0  0  0
 16 17  1  0  0  0
 17 18  1  0  0  0
 18 19  1  0  0  0
 19 20  1  0  0  0
 10 11  1  0  0  0
 11 12  2  0  0  0
 12 13  1  0  0  0
 13 14  1  0  0  0
 14  1  1  0  0  0
 14  5  2  0  0  0
 13  7  2  0  0  0
 20 15  1  0  0  0
M  END
> <minimizedAffinity>
-5.67589

> <CNNscore>
0.5383309722

> <CNNaffinity>
6.3463578224

> <CNN_VS>
3.4164409637

> <CNNaffinity_variance>
0.2561337948

$$$$
[H]c1nc2sc3c(=O)n(C4([H])C([H])([H])C([H])([H])C([H])([H])C([H])([H])C4([H])[H])c([H])nc3c2c(N(C([H])([H])[H])C([H])([H])[H])c1[H]


 23 26  0  0  0  0  0  0  0  0999 V2000
  -19.3438   14.0646  -19.3223 C   0  0  0  0  0  0  0  0  0  0  0  0
  -19.6307   13.4410  -18.1247 C   0  0  0  0  0  0  0  0  0  0  0  0
  -19.1633   12.2019  -17.7522 C   0  0  0  0  0  0  0  0  0  0  0  0
  -18.3740   11.5958  -18.6550 N   0  0  0  0  0  0  0  0  0  0  0  0
  -18.0576   12.1693  -19.8601 C   0  0  0  0  0  0  0  0  0  0  0  0
  -17.1136   11.6573  -21.1862 S   0  0  0  0  0  0  0  0  0  0  0  0
  -17.3141   13.0074  -22.2057 C   0  0  0  0  0  0  0  0  0  0  0  0
  -16.8601   13.3630  -23.4908 C   0  0  0  0  0  0  0  0  0  0  0  0
  -16.1303   12.5173  -24.0427 O   0  0  0  0  0  0  0  0  0  0  0  0
  -17.2015   14.5298  -24.0565 N   0  0  0  0  0  0  0  0  0  0  0  0
  -17.9952   15.3279  -23.3264 C   0  0  0  0  0  0  0  0  0  0  0  0
  -18.4322   15.0090  -22.1138 N   0  0  0  0  0  0  0  0  0  0  0  0
  -18.1218   13.8341  -21.4766 C   0  0  0  0  0  0  0  0  0  0  0  0
  -18.5110   13.4000  -20.2519 C   0  0  0  0  0  0  0  0  0  0  0  0
  -16.7163   14.8566  -25.3730 C   0  0  0  0  0  0  0  0  0  0  0  0
  -15.2337   15.1348  -25.3878 C   0  0  0  0  0  0  0  0  0  0  0  0
  -14.8636   15.5863  -26.7708 C   0  0  0  0  0  0  0  0  0  0  0  0
  -15.9671   15.5062  -27.7628 C   0  0  0  0  0  0  0  0  0  0  0  0
  -16.7617   14.2396  -27.7253 C   0  0  0  0  0  0  0  0  0  0  0  0
  -16.9161   13.6751  -26.3321 C   0  0  0  0  0  0  0  0  0  0  0  0
  -21.1488   15.6465  -20.1671 C   0  0  0  0  0  0  0  0  0  0  0  0
  -19.8803   15.3581  -19.5330 N   0  0  0  0  0  0  0  0  0  0  0  0
  -19.0903   16.4847  -19.0737 C   0  0  0  0  0  0  0  0  0  0  0  0
 21 22  1  0  0  0
 22 23  1  0  0  0
 22  1  1  0  0  0
  1  2  2  0  0  0
  2  3  1  0  0  0
  3  4  2  0  0  0
  4  5  1  0  0  0
  5  6  1  0  0  0
  6  7  1  0  0  0
  7  8  1  0  0  0
  8  9  2  0  0  0
  8 10  1  0  0  0
 10 15  1  0  0  0
 15 16  1  0  0  0
 16 17  1  0  0  0
 17 18  1  0  0  0
 18 19  1  0  0  0
 19 20  1  0  0  0
 10 11  1  0  0  0
 11 12  2  0  0  0
 12 13  1  0  0  0
 13 14  1  0  0  0
 14  1  1  0  0  0
 14  5  2  0  0  0
 13  7  2  0  0  0
 20 15  1  0  0  0
M  END
> <minimizedAffinity>
-8.38606

> <CNNscore>
0.5316331983

> <CNNaffinity>
6.7356147766

> <CNN_VS>
3.5808763504

> <CNNaffinity_variance>
0.2618601620

$$$$
[H]c1nc2sc3c(=O)n(C4([H])C([H])([H])C([H])([H])C([H])([H])C([H])([H])C4([H])[H])c([H])nc3c2c(N(C([H])([H])[H])C([H])([H])[H])c1[H]


 23 26  0  0  0  0  0  0  0  0999 V2000
  -16.9173   15.0232  -22.8649 C   0  0  0  0  0  0  0  0  0  0  0  0
  -16.2325   15.0917  -24.0614 C   0  0  0  0  0  0  0  0  0  0  0  0
  -15.5546   14.0437  -24.6400 C   0  0  0  0  0  0  0  0  0  0  0  0
  -15.5920   12.8911  -23.9504 N   0  0  0  0  0  0  0  0  0  0  0  0
  -16.2565   12.7677  -22.7568 C   0  0  0  0  0  0  0  0  0  0  0  0
  -16.4709   11.4723  -21.6670 S   0  0  0  0  0  0  0  0  0  0  0  0
  -17.4131   12.2586  -20.4852 C   0  0  0  0  0  0  0  0  0  0  0  0
  -17.9954   11.8802  -19.2597 C   0  0  0  0  0  0  0  0  0  0  0  0
  -17.8033   10.6938  -18.9311 O   0  0  0  0  0  0  0  0  0  0  0  0
  -18.6991   12.7497  -18.5203 N   0  0  0  0  0  0  0  0  0  0  0  0
  -18.8112   13.9903  -19.0185 C   0  0  0  0  0  0  0  0  0  0  0  0
  -18.2693   14.3643  -20.1717 N   0  0  0  0  0  0  0  0  0  0  0  0
  -17.5388   13.5274  -20.9771 C   0  0  0  0  0  0  0  0  0  0  0  0
  -16.9369   13.7962  -22.1625 C   0  0  0  0  0  0  0  0  0  0  0  0
  -19.2790   12.3236  -17.2723 C   0  0  0  0  0  0  0  0  0  0  0  0
  -20.4967   13.1313  -16.8975 C   0  0  0  0  0  0  0  0  0  0  0  0
  -20.9382   12.6920  -15.5316 C   0  0  0  0  0  0  0  0  0  0  0  0
  -20.1917   11.5290  -14.9854 C   0  0  0  0  0  0  0  0  0  0  0  0
  -19.9763   10.4057  -15.9490 C   0  0  0  0  0  0  0  0  0  0  0  0
  -19.7701   10.8729  -17.3712 C   0  0  0  0  0  0  0  0  0  0  0  0
  -17.0400   17.1961  -21.5465 C   0  0  0  0  0  0  0  0  0  0  0  0
  -17.5917   16.1892  -22.4277 N   0  0  0  0  0  0  0  0  0  0  0  0
  -18.9472   16.3875  -22.9048 C   0  0  0  0  0  0  0  0  0  0  0  0
 21 22  1  0  0  0
 22 23  1  0  0  0
 22  1  1  0  0  0
  1  2  2  0  0  0
  2  3  1  0  0  0
  3  4  2  0  0  0
  4  5  1  0  0  0
  5  6  1  0  0  0
  6  7  1  0  0  0
  7  8  1  0  0  0
  8  9  2  0  0  0
  8 10  1  0  0  0
 10 15  1  0  0  0
 15 16  1  0  0  0
 16 17  1  0  0  0
 17 18  1  0  0  0
 18 19  1  0  0  0
 19 20  1  0  0  0
 10 11  1  0  0  0
 11 12  2  0  0  0
 12 13  1  0  0  0
 13 14  1  0  0  0
 14  1  1  0  0  0
 14  5  2  0  0  0
 13  7  2  0  0  0
 20 15  1  0  0  0
M  END
> <minimizedAffinity>
-6.87945

> <CNNscore>
0.4636988640

> <CNNaffinity>
6.4614081383

> <CNN_VS>
2.9961476326

> <CNNaffinity_variance>
0.1865291893

$$$$
[H]c1nc2sc3c(=O)n(C4([H])C([H])([H])C([H])([H])C([H])([H])C([H])([H])C4([H])[H])c([H])nc3c2c(N(C([H])([H])[H])C([H])([H])[H])c1[H]


 23 26  0  0  0  0  0  0  0  0999 V2000
  -18.4273   12.3727  -19.1689 C   0  0  0  0  0  0  0  0  0  0  0  0
  -17.4968   12.1167  -20.1558 C   0  0  0  0  0  0  0  0  0  0  0  0
  -16.8254   10.9263  -20.3131 C   0  0  0  0  0  0  0  0  0  0  0  0
  -17.1336    9.9756  -19.4151 N   0  0  0  0  0  0  0  0  0  0  0  0
  -18.0496   10.1766  -18.4141 C   0  0  0  0  0  0  0  0  0  0  0  0
  -18.6314    9.1925  -17.1472 S   0  0  0  0  0  0  0  0  0  0  0  0
  -19.7174   10.2874  -16.4233 C   0  0  0  0  0  0  0  0  0  0  0  0
  -20.5877   10.2444  -15.3166 C   0  0  0  0  0  0  0  0  0  0  0  0
  -20.5988    9.1625  -14.6988 O   0  0  0  0  0  0  0  0  0  0  0  0
  -21.3379   11.3016  -14.9737 N   0  0  0  0  0  0  0  0  0  0  0  0
  -21.2069   12.3914  -15.7452 C   0  0  0  0  0  0  0  0  0  0  0  0
  -20.3919   12.4495  -16.7919 N   0  0  0  0  0  0  0  0  0  0  0  0
  -19.5979   11.4067  -17.1981 C   0  0  0  0  0  0  0  0  0  0  0  0
  -18.7289   11.3519  -18.2381 C   0  0  0  0  0  0  0  0  0  0  0  0
  -22.2158   11.2176  -13.8347 C   0  0  0  0  0  0  0  0  0  0  0  0
  -21.6274   11.8636  -12.6050 C   0  0  0  0  0  0  0  0  0  0  0  0
  -22.5609   11.6062  -11.4579 C   0  0  0  0  0  0  0  0  0  0  0  0
  -23.8356   10.9424  -11.8359 C   0  0  0  0  0  0  0  0  0  0  0  0
  -24.5022   11.4983  -13.0538 C   0  0  0  0  0  0  0  0  0  0  0  0
  -23.5240   11.9742  -14.1027 C   0  0  0  0  0  0  0  0  0  0  0  0
  -18.5923   14.8048  -18.4394 C   0  0  0  0  0  0  0  0  0  0  0  0
  -19.0521   13.6436  -19.1707 N   0  0  0  0  0  0  0  0  0  0  0  0
  -20.2517   13.7899  -19.9730 C   0  0  0  0  0  0  0  0  0  0  0  0
 21 22  1  0  0  0
 22 23  1  0  0  0
 22  1  1  0  0  0
  1  2  2  0  0  0
  2  3  1  0  0  0
  3  4  2  0  0  0
  4  5  1  0  0  0
  5  6  1  0  0  0
  6  7  1  0  0  0
  7  8  1  0  0  0
  8  9  2  0  0  0
  8 10  1  0  0  0
 10 15  1  0  0  0
 15 16  1  0  0  0
 16 17  1  0  0  0
 17 18  1  0  0  0
 18 19  1  0  0  0
 19 20  1  0  0  0
 10 11  1  0  0  0
 11 12  2  0  0  0
 12 13  1  0  0  0
 13 14  1  0  0  0
 14  1  1  0  0  0
 14  5  2  0  0  0
 13  7  2  0  0  0
 20 15  1  0  0  0
M  END
> <minimizedAffinity>
-6.00824

> <CNNscore>
0.4531703889

> <CNNaffinity>
5.8483395576

> <CNN_VS>
2.6502943039

> <CNNaffinity_variance>
0.1213482842

$$$$
[H]c1nc2sc3c(=O)n(C4([H])C([H])([H])C([H])([H])C([H])([H])C([H])([H])C4([H])[H])c([H])nc3c2c(N(C([H])([H])[H])C([H])([H])[H])c1[H]


 23 26  0  0  0  0  0  0  0  0999 V2000
  -18.1146   12.2787  -19.0506 C   0  0  0  0  0  0  0  0  0  0  0  0
  -17.5385   11.0526  -18.7861 C   0  0  0  0  0  0  0  0  0  0  0  0
  -16.7901   10.3259  -19.6830 C   0  0  0  0  0  0  0  0  0  0  0  0
  -16.6384   10.8947  -20.8908 N   0  0  0  0  0  0  0  0  0  0  0  0
  -17.1894   12.1102  -21.2073 C   0  0  0  0  0  0  0  0  0  0  0  0
  -17.1835   13.0632  -22.6229 S   0  0  0  0  0  0  0  0  0  0  0  0
  -18.1266   14.3731  -22.0780 C   0  0  0  0  0  0  0  0  0  0  0  0
  -18.5904   15.5741  -22.6495 C   0  0  0  0  0  0  0  0  0  0  0  0
  -18.2433   15.7618  -23.8313 O   0  0  0  0  0  0  0  0  0  0  0  0
  -19.3473   16.4348  -21.9535 N   0  0  0  0  0  0  0  0  0  0  0  0
  -19.6310   16.0812  -20.6908 C   0  0  0  0  0  0  0  0  0  0  0  0
  -19.2022   14.9535  -20.1360 N   0  0  0  0  0  0  0  0  0  0  0  0
  -18.4255   14.0302  -20.7894 C   0  0  0  0  0  0  0  0  0  0  0  0
  -17.9375   12.8503  -20.3318 C   0  0  0  0  0  0  0  0  0  0  0  0
  -19.8018   17.6528  -22.5741 C   0  0  0  0  0  0  0  0  0  0  0  0
  -21.1905   18.0415  -22.1311 C   0  0  0  0  0  0  0  0  0  0  0  0
  -21.6097   19.2416  -22.9296 C   0  0  0  0  0  0  0  0  0  0  0  0
  -20.5474   19.8039  -23.8035 C   0  0  0  0  0  0  0  0  0  0  0  0
  -19.2032   19.9359  -23.1613 C   0  0  0  0  0  0  0  0  0  0  0  0
  -18.9043   18.8317  -22.1739 C   0  0  0  0  0  0  0  0  0  0  0  0
  -18.3085   13.9573  -17.1482 C   0  0  0  0  0  0  0  0  0  0  0  0
  -18.8264   12.9089  -18.0011 N   0  0  0  0  0  0  0  0  0  0  0  0
  -20.1868   12.4645  -17.7643 C   0  0  0  0  0  0  0  0  0  0  0  0
 21 22  1  0  0  0
 22 23  1  0  0  0
 22  1  1  0  0  0
  1  2  2  0  0  0
  2  3  1  0  0  0
  3  4  2  0  0  0
  4  5  1  0  0  0
  5  6  1  0  0  0
  6  7  1  0  0  0
  7  8  1  0  0  0
  8  9  2  0  0  0
  8 10  1  0  0  0
 10 15  1  0  0  0
 15 16  1  0  0  0
 16 17  1  0  0  0
 17 18  1  0  0  0
 18 19  1  0  0  0
 19 20  1  0  0  0
 10 11  1  0  0  0
 11 12  2  0  0  0
 12 13  1  0  0  0
 13 14  1  0  0  0
 14  1  1  0  0  0
 14  5  2  0  0  0
 13  7  2  0  0  0
 20 15  1  0  0  0
M  END
> <minimizedAffinity>
-6.83273

> <CNNscore>
0.4314233065

> <CNNaffinity>
6.3929567337

> <CNN_VS>
2.7580704689

> <CNNaffinity_variance>
0.2498528212

$$$$
[H]c1c([H])c(-c2c(C([H])([H])C([H])([H])[H])c(C3=NC4(C(=O)N3[H])C([H])([H])C([H])([H])C4([H])[H])nn2-c2c([H])c([H])c(Cl)c([H])c2Cl)c([H])c([H])c1Cl


 32 36  0  0  0  0  0  0  0  0999 V2000
  -18.0164   14.7388  -20.8876 C   0  0  0  0  0  0  0  0  0  0  0  0
  -17.6304   13.7754  -21.7693 C   0  0  0  0  0  0  0  0  0  0  0  0
  -17.7960   12.6124  -21.0626 N   0  0  0  0  0  0  0  0  0  0  0  0
  -18.2519   12.8376  -19.8444 N   0  0  0  0  0  0  0  0  0  0  0  0
  -18.4153   14.1451  -19.6723 C   0  0  0  0  0  0  0  0  0  0  0  0
  -17.1855   13.8001  -23.1524 C   0  0  0  0  0  0  0  0  0  0  0  0
  -16.3042   14.7070  -23.5750 N   0  0  0  0  0  0  0  0  0  0  0  0
  -16.0044   14.5597  -24.9502 C   0  0  0  0  0  0  0  0  0  0  0  0
  -14.5390   14.4947  -25.3168 C   0  0  0  0  0  0  0  0  0  0  0  0
  -14.6397   15.8943  -25.8455 C   0  0  0  0  0  0  0  0  0  0  0  0
  -16.1459   15.7887  -25.8143 C   0  0  0  0  0  0  0  0  0  0  0  0
  -16.7651   13.3914  -25.4189 C   0  0  0  0  0  0  0  0  0  0  0  0
  -16.8117   12.8447  -26.5428 O   0  0  0  0  0  0  0  0  0  0  0  0
  -17.5004   12.9725  -24.2345 N   0  0  0  0  0  0  0  0  0  0  0  0
  -18.1410   12.1538  -24.2895 H   0  0  0  0  0  0  0  0  0  0  0  0
  -18.5262   11.8093  -18.8919 C   0  0  0  0  0  0  0  0  0  0  0  0
  -19.5965   11.8521  -18.0023 C   0  0  0  0  0  0  0  0  0  0  0  0
  -19.8088   10.8555  -17.0844 C   0  0  0  0  0  0  0  0  0  0  0  0
  -18.9647    9.7820  -17.0187 C   0  0  0  0  0  0  0  0  0  0  0  0
  -19.1776    8.4742  -15.8717 Cl  0  0  0  0  0  0  0  0  0  0  0  0
  -17.8990    9.7068  -17.8792 C   0  0  0  0  0  0  0  0  0  0  0  0
  -17.6878   10.7322  -18.8167 C   0  0  0  0  0  0  0  0  0  0  0  0
  -16.2753   10.5925  -19.8613 Cl  0  0  0  0  0  0  0  0  0  0  0  0
  -19.0479   14.8544  -18.5786 C   0  0  0  0  0  0  0  0  0  0  0  0
  -20.3837   15.1536  -18.6071 C   0  0  0  0  0  0  0  0  0  0  0  0
  -20.9658   15.9397  -17.6209 C   0  0  0  0  0  0  0  0  0  0  0  0
  -20.2382   16.4540  -16.5725 C   0  0  0  0  0  0  0  0  0  0  0  0
  -20.9574   17.4456  -15.3208 Cl  0  0  0  0  0  0  0  0  0  0  0  0
  -18.8916   16.1603  -16.5323 C   0  0  0  0  0  0  0  0  0  0  0  0
  -18.3274   15.3783  -17.5215 C   0  0  0  0  0  0  0  0  0  0  0  0
  -16.5337   16.6821  -20.5739 C   0  0  0  0  0  0  0  0  0  0  0  0
  -17.8908   16.2052  -21.1731 C   0  0  0  0  0  0  0  0  0  0  0  0
 31 32  1  0  0  0
 32  1  1  0  0  0
  1  2  1  0  0  0
  2  6  1  0  0  0
  6  7  2  0  0  0
  7  8  1  0  0  0
  8  9  1  0  0  0
  9 10  1  0  0  0
 10 11  1  0  0  0
  8 12  1  0  0  0
 12 13  2  0  0  0
 12 14  1  0  0  0
  2  3  2  0  0  0
  3  4  1  0  0  0
  4 16  1  0  0  0
 16 17  2  0  0  0
 17 18  1  0  0  0
 18 19  2  0  0  0
 19 20  1  0  0  0
 19 21  1  0  0  0
 21 22  2  0  0  0
 22 23  1  0  0  0
  4  5  1  0  0  0
  5 24  1  0  0  0
 24 25  2  0  0  0
 25 26  1  0  0  0
 26 27  2  0  0  0
 27 28  1  0  0  0
 27 29  1  0  0  0
 29 30  2  0  0  0
  5  1  2  0  0  0
 30 24  1  0  0  0
 14  6  1  0  0  0
 22 16  1  0  0  0
 11  8  1  0  0  0
 14 15  1  0  0  0
M  END
> <minimizedAffinity>
-9.54076

> <CNNscore>
0.4161659181

> <CNNaffinity>
7.5570268631

> <CNN_VS>
3.1449770927

> <CNNaffinity_variance>
0.1146462411

$$$$
[H]c1c([H])c(-c2c(C([H])([H])C([H])([H])[H])c(C3=NC4(C(=O)N3[H])C([H])([H])C([H])([H])C4([H])[H])nn2-c2c([H])c([H])c(Cl)c([H])c2Cl)c([H])c([H])c1Cl


 32 36  0  0  0  0  0  0  0  0999 V2000
  -19.4790   15.1463  -20.5725 C   0  0  0  0  0  0  0  0  0  0  0  0
  -18.8388   13.9822  -20.2734 C   0  0  0  0  0  0  0  0  0  0  0  0
  -17.8757   13.8900  -21.2447 N   0  0  0  0  0  0  0  0  0  0  0  0
  -17.9139   14.9160  -22.0744 N   0  0  0  0  0  0  0  0  0  0  0  0
  -18.8900   15.7399  -21.7080 C   0  0  0  0  0  0  0  0  0  0  0  0
  -18.9791   13.0042  -19.2078 C   0  0  0  0  0  0  0  0  0  0  0  0
  -18.3125   11.8500  -19.2419 N   0  0  0  0  0  0  0  0  0  0  0  0
  -18.5877   11.0411  -18.1138 C   0  0  0  0  0  0  0  0  0  0  0  0
  -17.3908   10.5080  -17.3593 C   0  0  0  0  0  0  0  0  0  0  0  0
  -17.6532    9.1578  -17.9564 C   0  0  0  0  0  0  0  0  0  0  0  0
  -19.0255    9.6223  -18.3826 C   0  0  0  0  0  0  0  0  0  0  0  0
  -19.5048   11.8135  -17.2620 C   0  0  0  0  0  0  0  0  0  0  0  0
  -20.0093   11.5430  -16.1500 O   0  0  0  0  0  0  0  0  0  0  0  0
  -19.7211   13.0353  -18.0232 N   0  0  0  0  0  0  0  0  0  0  0  0
  -20.3539   13.7710  -17.6463 H   0  0  0  0  0  0  0  0  0  0  0  0
  -17.0208   15.0855  -23.1760 C   0  0  0  0  0  0  0  0  0  0  0  0
  -15.7209   15.5666  -23.0438 C   0  0  0  0  0  0  0  0  0  0  0  0
  -14.9042   15.7400  -24.1318 C   0  0  0  0  0  0  0  0  0  0  0  0
  -15.3511   15.4412  -25.3889 C   0  0  0  0  0  0  0  0  0  0  0  0
  -14.3610   15.6381  -26.8215 Cl  0  0  0  0  0  0  0  0  0  0  0  0
  -16.6268   14.9656  -25.5572 C   0  0  0  0  0  0  0  0  0  0  0  0
  -17.4579   14.7912  -24.4374 C   0  0  0  0  0  0  0  0  0  0  0  0
  -19.0983   14.2182  -24.7312 Cl  0  0  0  0  0  0  0  0  0  0  0  0
  -19.2029   17.0668  -22.1986 C   0  0  0  0  0  0  0  0  0  0  0  0
  -20.1900   17.2642  -23.1266 C   0  0  0  0  0  0  0  0  0  0  0  0
  -20.4082   18.5151  -23.6896 C   0  0  0  0  0  0  0  0  0  0  0  0
  -19.6518   19.6123  -23.3473 C   0  0  0  0  0  0  0  0  0  0  0  0
  -19.9151   21.1961  -24.0470 Cl  0  0  0  0  0  0  0  0  0  0  0  0
  -18.6540   19.4269  -22.4139 C   0  0  0  0  0  0  0  0  0  0  0  0
  -18.4487   18.1762  -21.8644 C   0  0  0  0  0  0  0  0  0  0  0  0
  -20.2397   16.5791  -18.7174 C   0  0  0  0  0  0  0  0  0  0  0  0
  -20.7057   15.6135  -19.8482 C   0  0  0  0  0  0  0  0  0  0  0  0
 31 32  1  0  0  0
 32  1  1  0  0  0
  1  2  1  0  0  0
  2  6  1  0  0  0
  6  7  2  0  0  0
  7  8  1  0  0  0
  8  9  1  0  0  0
  9 10  1  0  0  0
 10 11  1  0  0  0
  8 12  1  0  0  0
 12 13  2  0  0  0
 12 14  1  0  0  0
  2  3  2  0  0  0
  3  4  1  0  0  0
  4 16  1  0  0  0
 16 17  2  0  0  0
 17 18  1  0  0  0
 18 19  2  0  0  0
 19 20  1  0  0  0
 19 21  1  0  0  0
 21 22  2  0  0  0
 22 23  1  0  0  0
  4  5  1  0  0  0
  5 24  1  0  0  0
 24 25  2  0  0  0
 25 26  1  0  0  0
 26 27  2  0  0  0
 27 28  1  0  0  0
 27 29  1  0  0  0
 29 30  2  0  0  0
  5  1  2  0  0  0
 30 24  1  0  0  0
 14  6  1  0  0  0
 22 16  1  0  0  0
 11  8  1  0  0  0
 14 15  1  0  0  0
M  END
> <minimizedAffinity>
-4.89743

> <CNNscore>
0.3056017160

> <CNNaffinity>
7.1416001320

> <CNN_VS>
2.1824853420

> <CNNaffinity_variance>
0.8782020807

$$$$
[H]c1c([H])c(-c2c(C([H])([H])C([H])([H])[H])c(C3=NC4(C(=O)N3[H])C([H])([H])C([H])([H])C4([H])[H])nn2-c2c([H])c([H])c(Cl)c([H])c2Cl)c([H])c([H])c1Cl


 32 36  0  0  0  0  0  0  0  0999 V2000
  -17.6735   12.0169  -20.5486 C   0  0  0  0  0  0  0  0  0  0  0  0
  -18.1445   12.1256  -19.2755 C   0  0  0  0  0  0  0  0  0  0  0  0
  -18.3000   13.4774  -19.1080 N   0  0  0  0  0  0  0  0  0  0  0  0
  -17.9577   14.1499  -20.1911 N   0  0  0  0  0  0  0  0  0  0  0  0
  -17.5613   13.2969  -21.1297 C   0  0  0  0  0  0  0  0  0  0  0  0
  -18.4969   11.1590  -18.2493 C   0  0  0  0  0  0  0  0  0  0  0  0
  -19.4586   11.4174  -17.3626 N   0  0  0  0  0  0  0  0  0  0  0  0
  -19.6456   10.3506  -16.4518 C   0  0  0  0  0  0  0  0  0  0  0  0
  -21.0630    9.8532  -16.2792 C   0  0  0  0  0  0  0  0  0  0  0  0
  -21.1099   10.5391  -14.9466 C   0  0  0  0  0  0  0  0  0  0  0  0
  -19.6080   10.6937  -14.9828 C   0  0  0  0  0  0  0  0  0  0  0  0
  -18.7110    9.2895  -16.8565 C   0  0  0  0  0  0  0  0  0  0  0  0
  -18.5202    8.1465  -16.3862 O   0  0  0  0  0  0  0  0  0  0  0  0
  -18.0070    9.8758  -17.9878 N   0  0  0  0  0  0  0  0  0  0  0  0
  -17.2636    9.3296  -18.4702 H   0  0  0  0  0  0  0  0  0  0  0  0
  -18.0274   15.5721  -20.3030 C   0  0  0  0  0  0  0  0  0  0  0  0
  -16.9071   16.3988  -20.2962 C   0  0  0  0  0  0  0  0  0  0  0  0
  -17.0198   17.7631  -20.3789 C   0  0  0  0  0  0  0  0  0  0  0  0
  -18.2498   18.3530  -20.4711 C   0  0  0  0  0  0  0  0  0  0  0  0
  -18.4658   20.0886  -20.5805 Cl  0  0  0  0  0  0  0  0  0  0  0  0
  -19.3759   17.5695  -20.4799 C   0  0  0  0  0  0  0  0  0  0  0  0
  -19.2523   16.1722  -20.3943 C   0  0  0  0  0  0  0  0  0  0  0  0
  -20.7415   15.2303  -20.3672 Cl  0  0  0  0  0  0  0  0  0  0  0  0
  -17.2608   13.5434  -22.5255 C   0  0  0  0  0  0  0  0  0  0  0  0
  -15.9778   13.4680  -22.9977 C   0  0  0  0  0  0  0  0  0  0  0  0
  -15.6704   13.8243  -24.3046 C   0  0  0  0  0  0  0  0  0  0  0  0
  -16.6297   14.2669  -25.1861 C   0  0  0  0  0  0  0  0  0  0  0  0
  -16.2585   14.7186  -26.8370 Cl  0  0  0  0  0  0  0  0  0  0  0  0
  -17.9259   14.3476  -24.7228 C   0  0  0  0  0  0  0  0  0  0  0  0
  -18.2151   13.9911  -23.4199 C   0  0  0  0  0  0  0  0  0  0  0  0
  -15.7486   10.4884  -20.7264 C   0  0  0  0  0  0  0  0  0  0  0  0
  -17.2315   10.7157  -21.1479 C   0  0  0  0  0  0  0  0  0  0  0  0
 31 32  1  0  0  0
 32  1  1  0  0  0
  1  2  1  0  0  0
  2  6  1  0  0  0
  6  7  2  0  0  0
  7  8  1  0  0  0
  8  9  1  0  0  0
  9 10  1  0  0  0
 10 11  1  0  0  0
  8 12  1  0  0  0
 12 13  2  0  0  0
 12 14  1  0  0  0
  2  3  2  0  0  0
  3  4  1  0  0  0
  4 16  1  0  0  0
 16 17  2  0  0  0
 17 18  1  0  0  0
 18 19  2  0  0  0
 19 20  1  0  0  0
 19 21  1  0  0  0
 21 22  2  0  0  0
 22 23  1  0  0  0
  4  5  1  0  0  0
  5 24  1  0  0  0
 24 25  2  0  0  0
 25 26  1  0  0  0
 26 27  2  0  0  0
 27 28  1  0  0  0
 27 29  1  0  0  0
 29 30  2  0  0  0
  5  1  2  0  0  0
 30 24  1  0  0  0
 14  6  1  0  0  0
 22 16  1  0  0  0
 11  8  1  0  0  0
 14 15  1  0  0  0
M  END
> <minimizedAffinity>
-9.66974

> <CNNscore>
0.2108689100

> <CNNaffinity>
7.1276931763

> <CNN_VS>
1.5030088425

> <CNNaffinity_variance>
0.1938862801

$$$$
[H]c1c([H])c(-c2c(C([H])([H])C([H])([H])[H])c(C3=NC4(C(=O)N3[H])C([H])([H])C([H])([H])C4([H])[H])nn2-c2c([H])c([H])c(Cl)c([H])c2Cl)c([H])c([H])c1Cl


 32 36  0  0  0  0  0  0  0  0999 V2000
  -17.9084   12.5632  -20.6989 C   0  0  0  0  0  0  0  0  0  0  0  0
  -18.5375   12.7375  -19.5037 C   0  0  0  0  0  0  0  0  0  0  0  0
  -18.8461   14.0733  -19.4984 N   0  0  0  0  0  0  0  0  0  0  0  0
  -18.4448   14.6754  -20.6025 N   0  0  0  0  0  0  0  0  0  0  0  0
  -17.8554   13.7876  -21.3964 C   0  0  0  0  0  0  0  0  0  0  0  0
  -18.9126   11.8381  -18.4258 C   0  0  0  0  0  0  0  0  0  0  0  0
  -19.7928   12.2092  -17.4956 N   0  0  0  0  0  0  0  0  0  0  0  0
  -20.0192   11.1915  -16.5387 C   0  0  0  0  0  0  0  0  0  0  0  0
  -21.4624   10.8303  -16.2685 C   0  0  0  0  0  0  0  0  0  0  0  0
  -21.3684   11.5572  -14.9604 C   0  0  0  0  0  0  0  0  0  0  0  0
  -19.8636   11.5736  -15.0872 C   0  0  0  0  0  0  0  0  0  0  0  0
  -19.2084   10.0383  -16.9582 C   0  0  0  0  0  0  0  0  0  0  0  0
  -19.0923    8.8973  -16.4596 O   0  0  0  0  0  0  0  0  0  0  0  0
  -18.5240   10.5241  -18.1476 N   0  0  0  0  0  0  0  0  0  0  0  0
  -17.8622    9.8985  -18.6519 H   0  0  0  0  0  0  0  0  0  0  0  0
  -18.6421   16.0642  -20.8714 C   0  0  0  0  0  0  0  0  0  0  0  0
  -19.8405   16.5921  -21.3445 C   0  0  0  0  0  0  0  0  0  0  0  0
  -19.9797   17.9292  -21.6157 C   0  0  0  0  0  0  0  0  0  0  0  0
  -18.9329   18.7879  -21.4260 C   0  0  0  0  0  0  0  0  0  0  0  0
  -19.0422   20.5065  -21.7514 Cl  0  0  0  0  0  0  0  0  0  0  0  0
  -17.7367   18.3028  -20.9615 C   0  0  0  0  0  0  0  0  0  0  0  0
  -17.6016   16.9313  -20.6865 C   0  0  0  0  0  0  0  0  0  0  0  0
  -16.0249   16.3702  -20.1344 Cl  0  0  0  0  0  0  0  0  0  0  0  0
  -17.4154   13.9343  -22.7691 C   0  0  0  0  0  0  0  0  0  0  0  0
  -16.0869   14.0540  -23.0779 C   0  0  0  0  0  0  0  0  0  0  0  0
  -15.6714   14.3186  -24.3767 C   0  0  0  0  0  0  0  0  0  0  0  0
  -16.5642   14.4723  -25.4123 C   0  0  0  0  0  0  0  0  0  0  0  0
  -16.0565   14.8050  -27.0551 Cl  0  0  0  0  0  0  0  0  0  0  0  0
  -17.9054   14.3544  -25.1145 C   0  0  0  0  0  0  0  0  0  0  0  0
  -18.3025   14.0924  -23.8175 C   0  0  0  0  0  0  0  0  0  0  0  0
  -15.9490   11.1253  -20.2909 C   0  0  0  0  0  0  0  0  0  0  0  0
  -17.2700   11.2689  -21.1049 C   0  0  0  0  0  0  0  0  0  0  0  0
 31 32  1  0  0  0
 32  1  1  0  0  0
  1  2  1  0  0  0
  2  6  1  0  0  0
  6  7  2  0  0  0
  7  8  1  0  0  0
  8  9  1  0  0  0
  9 10  1  0  0  0
 10 11  1  0  0  0
  8 12  1  0  0  0
 12 13  2  0  0  0
 12 14  1  0  0  0
  2  3  2  0  0  0
  3  4  1  0  0  0
  4 16  1  0  0  0
 16 17  2  0  0  0
 17 18  1  0  0  0
 18 19  2  0  0  0
 19 20  1  0  0  0
 19 21  1  0  0  0
 21 22  2  0  0  0
 22 23  1  0  0  0
  4  5  1  0  0  0
  5 24  1  0  0  0
 24 25  2  0  0  0
 25 26  1  0  0  0
 26 27  2  0  0  0
 27 28  1  0  0  0
 27 29  1  0  0  0
 29 30  2  0  0  0
  5  1  2  0  0  0
 30 24  1  0  0  0
 14  6  1  0  0  0
 22 16  1  0  0  0
 11  8  1  0  0  0
 14 15  1  0  0  0
M  END
> <minimizedAffinity>
-8.68554

> <CNNscore>
0.1915776283

> <CNNaffinity>
7.0386343002

> <CNN_VS>
1.3484448195

> <CNNaffinity_variance>
0.2978364527

$$$$
[H]c1c([H])c(-c2c(C([H])([H])C([H])([H])[H])c(C3=NC4(C(=O)N3[H])C([H])([H])C([H])([H])C4([H])[H])nn2-c2c([H])c([H])c(Cl)c([H])c2Cl)c([H])c([H])c1Cl


 32 36  0  0  0  0  0  0  0  0999 V2000
  -18.7954   14.5206  -19.7207 C   0  0  0  0  0  0  0  0  0  0  0  0
  -18.2342   13.4439  -20.3373 C   0  0  0  0  0  0  0  0  0  0  0  0
  -18.6047   12.3918  -19.5402 N   0  0  0  0  0  0  0  0  0  0  0  0
  -19.3394   12.7851  -18.5164 N   0  0  0  0  0  0  0  0  0  0  0  0
  -19.4995   14.1031  -18.5725 C   0  0  0  0  0  0  0  0  0  0  0  0
  -17.4619   13.2746  -21.5565 C   0  0  0  0  0  0  0  0  0  0  0  0
  -17.8305   13.8686  -22.6918 N   0  0  0  0  0  0  0  0  0  0  0  0
  -16.9471   13.5768  -23.7582 C   0  0  0  0  0  0  0  0  0  0  0  0
  -16.4144   14.7600  -24.5343 C   0  0  0  0  0  0  0  0  0  0  0  0
  -17.3368   14.3991  -25.6600 C   0  0  0  0  0  0  0  0  0  0  0  0
  -17.5641   13.0461  -25.0289 C   0  0  0  0  0  0  0  0  0  0  0  0
  -15.8815   12.7328  -23.1964 C   0  0  0  0  0  0  0  0  0  0  0  0
  -14.8606   12.2445  -23.7288 O   0  0  0  0  0  0  0  0  0  0  0  0
  -16.2804   12.5697  -21.8060 N   0  0  0  0  0  0  0  0  0  0  0  0
  -15.6944   11.9937  -21.1669 H   0  0  0  0  0  0  0  0  0  0  0  0
  -19.8715   11.9007  -17.5291 C   0  0  0  0  0  0  0  0  0  0  0  0
  -20.9624   12.2161  -16.7234 C   0  0  0  0  0  0  0  0  0  0  0  0
  -21.4254   11.3481  -15.7680 C   0  0  0  0  0  0  0  0  0  0  0  0
  -20.8203   10.1366  -15.5801 C   0  0  0  0  0  0  0  0  0  0  0  0
  -21.3603    8.9804  -14.3788 Cl  0  0  0  0  0  0  0  0  0  0  0  0
  -19.7421    9.7923  -16.3554 C   0  0  0  0  0  0  0  0  0  0  0  0
  -19.2732   10.6874  -17.3321 C   0  0  0  0  0  0  0  0  0  0  0  0
  -17.8580   10.1989  -18.2618 Cl  0  0  0  0  0  0  0  0  0  0  0  0
  -20.3597   14.9572  -17.7787 C   0  0  0  0  0  0  0  0  0  0  0  0
  -19.8877   15.5987  -16.6650 C   0  0  0  0  0  0  0  0  0  0  0  0
  -20.7383   16.3168  -15.8341 C   0  0  0  0  0  0  0  0  0  0  0  0
  -22.0872   16.4213  -16.0840 C   0  0  0  0  0  0  0  0  0  0  0  0
  -23.1724   17.3237  -15.0470 Cl  0  0  0  0  0  0  0  0  0  0  0  0
  -22.5753   15.7795  -17.2025 C   0  0  0  0  0  0  0  0  0  0  0  0
  -21.7167   15.0681  -18.0180 C   0  0  0  0  0  0  0  0  0  0  0  0
  -19.7818   16.3605  -21.0304 C   0  0  0  0  0  0  0  0  0  0  0  0
  -18.5581   15.9325  -20.1657 C   0  0  0  0  0  0  0  0  0  0  0  0
 31 32  1  0  0  0
 32  1  1  0  0  0
  1  2  1  0  0  0
  2  6  1  0  0  0
  6  7  2  0  0  0
  7  8  1  0  0  0
  8  9  1  0  0  0
  9 10  1  0  0  0
 10 11  1  0  0  0
  8 12  1  0  0  0
 12 13  2  0  0  0
 12 14  1  0  0  0
  2  3  2  0  0  0
  3  4  1  0  0  0
  4 16  1  0  0  0
 16 17  2  0  0  0
 17 18  1  0  0  0
 18 19  2  0  0  0
 19 20  1  0  0  0
 19 21  1  0  0  0
 21 22  2  0  0  0
 22 23  1  0  0  0
  4  5  1  0  0  0
  5 24  1  0  0  0
 24 25  2  0  0  0
 25 26  1  0  0  0
 26 27  2  0  0  0
 27 28  1  0  0  0
 27 29  1  0  0  0
 29 30  2  0  0  0
  5  1  2  0  0  0
 30 24  1  0  0  0
 14  6  1  0  0  0
 22 16  1  0  0  0
 11  8  1  0  0  0
 14 15  1  0  0  0
M  END
> <minimizedAffinity>
-8.04234

> <CNNscore>
0.1614196450

> <CNNaffinity>
6.9532318115

> <CNN_VS>
1.1223882437

> <CNNaffinity_variance>
0.3735024333

$$$$
[H]c1c([H])c(-c2c(C([H])([H])C([H])([H])[H])c(C3=NC4(C(=O)N3[H])C([H])([H])C([H])([H])C4([H])[H])nn2-c2c([H])c([H])c(Cl)c([H])c2Cl)c([H])c([H])c1Cl


 32 36  0  0  0  0  0  0  0  0999 V2000
  -17.9184   14.4444  -21.7457 C   0  0  0  0  0  0  0  0  0  0  0  0
  -18.8142   14.5738  -20.7282 C   0  0  0  0  0  0  0  0  0  0  0  0
  -19.5345   15.6866  -21.0780 N   0  0  0  0  0  0  0  0  0  0  0  0
  -19.1211   16.2009  -22.2214 N   0  0  0  0  0  0  0  0  0  0  0  0
  -18.1167   15.4699  -22.6931 C   0  0  0  0  0  0  0  0  0  0  0  0
  -19.1009   13.7922  -19.5373 C   0  0  0  0  0  0  0  0  0  0  0  0
  -19.7910   14.3134  -18.5225 N   0  0  0  0  0  0  0  0  0  0  0  0
  -19.9608   13.3909  -17.4628 C   0  0  0  0  0  0  0  0  0  0  0  0
  -21.3726   13.1987  -16.9570 C   0  0  0  0  0  0  0  0  0  0  0  0
  -21.0139   13.9984  -15.7403 C   0  0  0  0  0  0  0  0  0  0  0  0
  -19.5510   13.8518  -16.0855 C   0  0  0  0  0  0  0  0  0  0  0  0
  -19.3323   12.1350  -17.8999 C   0  0  0  0  0  0  0  0  0  0  0  0
  -19.2462   11.0242  -17.3318 O   0  0  0  0  0  0  0  0  0  0  0  0
  -18.7960   12.4669  -19.2119 N   0  0  0  0  0  0  0  0  0  0  0  0
  -18.2790   11.7443  -19.7541 H   0  0  0  0  0  0  0  0  0  0  0  0
  -19.6967   17.3572  -22.8310 C   0  0  0  0  0  0  0  0  0  0  0  0
  -20.8200   17.3135  -23.6525 C   0  0  0  0  0  0  0  0  0  0  0  0
  -21.3252   18.4448  -24.2406 C   0  0  0  0  0  0  0  0  0  0  0  0
  -20.7315   19.6586  -24.0325 C   0  0  0  0  0  0  0  0  0  0  0  0
  -21.3247   21.1426  -24.7516 Cl  0  0  0  0  0  0  0  0  0  0  0  0
  -19.6223   19.7395  -23.2294 C   0  0  0  0  0  0  0  0  0  0  0  0
  -19.1102   18.5757  -22.6308 C   0  0  0  0  0  0  0  0  0  0  0  0
  -17.6580   18.7460  -21.6470 Cl  0  0  0  0  0  0  0  0  0  0  0  0
  -17.4608   15.5363  -23.9833 C   0  0  0  0  0  0  0  0  0  0  0  0
  -16.7569   16.6475  -24.3635 C   0  0  0  0  0  0  0  0  0  0  0  0
  -16.2331   16.7634  -25.6448 C   0  0  0  0  0  0  0  0  0  0  0  0
  -16.3914   15.7770  -26.5908 C   0  0  0  0  0  0  0  0  0  0  0  0
  -15.7363   15.9075  -28.2097 Cl  0  0  0  0  0  0  0  0  0  0  0  0
  -17.0987   14.6527  -26.2206 C   0  0  0  0  0  0  0  0  0  0  0  0
  -17.6146   14.5532  -24.9430 C   0  0  0  0  0  0  0  0  0  0  0  0
  -15.5813   14.0692  -22.4318 C   0  0  0  0  0  0  0  0  0  0  0  0
  -16.8208   13.4231  -21.7429 C   0  0  0  0  0  0  0  0  0  0  0  0
 31 32  1  0  0  0
 32  1  1  0  0  0
  1  2  1  0  0  0
  2  6  1  0  0  0
  6  7  2  0  0  0
  7  8  1  0  0  0
  8  9  1  0  0  0
  9 10  1  0  0  0
 10 11  1  0  0  0
  8 12  1  0  0  0
 12 13  2  0  0  0
 12 14  1  0  0  0
  2  3  2  0  0  0
  3  4  1  0  0  0
  4 16  1  0  0  0
 16 17  2  0  0  0
 17 18  1  0  0  0
 18 19  2  0  0  0
 19 20  1  0  0  0
 19 21  1  0  0  0
 21 22  2  0  0  0
 22 23  1  0  0  0
  4  5  1  0  0  0
  5 24  1  0  0  0
 24 25  2  0  0  0
 25 26  1  0  0  0
 26 27  2  0  0  0
 27 28  1  0  0  0
 27 29  1  0  0  0
 29 30  2  0  0  0
  5  1  2  0  0  0
 30 24  1  0  0  0
 14  6  1  0  0  0
 22 16  1  0  0  0
 11  8  1  0  0  0
 14 15  1  0  0  0
M  END
> <minimizedAffinity>
-6.04217

> <CNNscore>
0.1595529318

> <CNNaffinity>
6.9026122093

> <CNN_VS>
1.1013320684

> <CNNaffinity_variance>
1.0785763264

$$$$
[H]c1c([H])c(-c2c(C([H])([H])C([H])([H])[H])c(C3=NC4(C(=O)N3[H])C([H])([H])C([H])([H])C4([H])[H])nn2-c2c([H])c([H])c(Cl)c([H])c2Cl)c([H])c([H])c1Cl


 32 36  0  0  0  0  0  0  0  0999 V2000
  -19.8094   11.2769  -16.8174 C   0  0  0  0  0  0  0  0  0  0  0  0
  -20.9279   11.7911  -16.2351 C   0  0  0  0  0  0  0  0  0  0  0  0
  -21.1283   12.9657  -16.9130 N   0  0  0  0  0  0  0  0  0  0  0  0
  -20.2112   13.1601  -17.8424 N   0  0  0  0  0  0  0  0  0  0  0  0
  -19.3598   12.1399  -17.8381 C   0  0  0  0  0  0  0  0  0  0  0  0
  -21.8254   11.3193  -15.1943 C   0  0  0  0  0  0  0  0  0  0  0  0
  -21.5384   11.5003  -13.9049 N   0  0  0  0  0  0  0  0  0  0  0  0
  -22.5380   10.9689  -13.0557 C   0  0  0  0  0  0  0  0  0  0  0  0
  -23.0780   11.8951  -11.9895 C   0  0  0  0  0  0  0  0  0  0  0  0
  -22.2932   11.1280  -10.9677 C   0  0  0  0  0  0  0  0  0  0  0  0
  -22.0806   10.0218  -11.9737 C   0  0  0  0  0  0  0  0  0  0  0  0
  -23.5883   10.4325  -13.9347 C   0  0  0  0  0  0  0  0  0  0  0  0
  -24.6826    9.8913  -13.6631 O   0  0  0  0  0  0  0  0  0  0  0  0
  -23.0634   10.6738  -15.2708 N   0  0  0  0  0  0  0  0  0  0  0  0
  -23.6145   10.3747  -16.1018 H   0  0  0  0  0  0  0  0  0  0  0  0
  -20.1789   14.2967  -18.7068 C   0  0  0  0  0  0  0  0  0  0  0  0
  -20.9961   14.4340  -19.8257 C   0  0  0  0  0  0  0  0  0  0  0  0
  -20.9143   15.5303  -20.6456 C   0  0  0  0  0  0  0  0  0  0  0  0
  -20.0177   16.5281  -20.3818 C   0  0  0  0  0  0  0  0  0  0  0  0
  -19.8612   17.9555  -21.3864 Cl  0  0  0  0  0  0  0  0  0  0  0  0
  -19.1958   16.4262  -19.2881 C   0  0  0  0  0  0  0  0  0  0  0  0
  -19.2851   15.2994  -18.4530 C   0  0  0  0  0  0  0  0  0  0  0  0
  -18.1696   15.2134  -17.0914 Cl  0  0  0  0  0  0  0  0  0  0  0  0
  -18.3032   11.8229  -18.7775 C   0  0  0  0  0  0  0  0  0  0  0  0
  -18.5125   11.8933  -20.1288 C   0  0  0  0  0  0  0  0  0  0  0  0
  -17.5428   11.4717  -21.0296 C   0  0  0  0  0  0  0  0  0  0  0  0
  -16.3318   10.9664  -20.6160 C   0  0  0  0  0  0  0  0  0  0  0  0
  -15.0987   10.4319  -21.7390 Cl  0  0  0  0  0  0  0  0  0  0  0  0
  -16.1086   10.8899  -19.2575 C   0  0  0  0  0  0  0  0  0  0  0  0
  -17.0835   11.3119  -18.3745 C   0  0  0  0  0  0  0  0  0  0  0  0
  -19.7218    8.8305  -17.1012 C   0  0  0  0  0  0  0  0  0  0  0  0
  -19.1246   10.0394  -16.3201 C   0  0  0  0  0  0  0  0  0  0  0  0
 31 32  1  0  0  0
 32  1  1  0  0  0
  1  2  1  0  0  0
  2  6  1  0  0  0
  6  7  2  0  0  0
  7  8  1  0  0  0
  8  9  1  0  0  0
  9 10  1  0  0  0
 10 11  1  0  0  0
  8 12  1  0  0  0
 12 13  2  0  0  0
 12 14  1  0  0  0
  2  3  2  0  0  0
  3  4  1  0  0  0
  4 16  1  0  0  0
 16 17  2  0  0  0
 17 18  1  0  0  0
 18 19  2  0  0  0
 19 20  1  0  0  0
 19 21  1  0  0  0
 21 22  2  0  0  0
 22 23  1  0  0  0
  4  5  1  0  0  0
  5 24  1  0  0  0
 24 25  2  0  0  0
 25 26  1  0  0  0
 26 27  2  0  0  0
 27 28  1  0  0  0
 27 29  1  0  0  0
 29 30  2  0  0  0
  5  1  2  0  0  0
 30 24  1  0  0  0
 14  6  1  0  0  0
 22 16  1  0  0  0
 11  8  1  0  0  0
 14 15  1  0  0  0
M  END
> <minimizedAffinity>
-7.28942

> <CNNscore>
0.1410184503

> <CNNaffinity>
6.5140433311

> <CNN_VS>
0.9186003208

> <CNNaffinity_variance>
0.1747070253

$$$$
[H]c1c([H])c(-c2c(C([H])([H])C([H])([H])[H])c(C3=NC4(C(=O)N3[H])C([H])([H])C([H])([H])C4([H])[H])nn2-c2c([H])c([H])c(Cl)c([H])c2Cl)c([H])c([H])c1Cl


 32 36  0  0  0  0  0  0  0  0999 V2000
  -19.7962   13.7949  -18.7003 C   0  0  0  0  0  0  0  0  0  0  0  0
  -19.0987   12.6296  -18.5989 C   0  0  0  0  0  0  0  0  0  0  0  0
  -18.1171   12.7627  -19.5467 N   0  0  0  0  0  0  0  0  0  0  0  0
  -18.1978   13.9184  -20.1796 N   0  0  0  0  0  0  0  0  0  0  0  0
  -19.2225   14.6125  -19.6958 C   0  0  0  0  0  0  0  0  0  0  0  0
  -19.2025   11.4697  -17.7299 C   0  0  0  0  0  0  0  0  0  0  0  0
  -20.0415   11.4598  -16.6937 N   0  0  0  0  0  0  0  0  0  0  0  0
  -19.9903   10.2407  -15.9769 C   0  0  0  0  0  0  0  0  0  0  0  0
  -21.3133    9.5571  -15.7156 C   0  0  0  0  0  0  0  0  0  0  0  0
  -21.2255    9.9990  -14.2854 C   0  0  0  0  0  0  0  0  0  0  0  0
  -19.7669   10.3343  -14.4875 C   0  0  0  0  0  0  0  0  0  0  0  0
  -19.0310    9.3809  -16.6867 C   0  0  0  0  0  0  0  0  0  0  0  0
  -18.6662    8.2059  -16.4622 O   0  0  0  0  0  0  0  0  0  0  0  0
  -18.5612   10.2279  -17.7733 N   0  0  0  0  0  0  0  0  0  0  0  0
  -17.8500    9.8625  -18.4399 H   0  0  0  0  0  0  0  0  0  0  0  0
  -17.2981   14.3286  -21.2103 C   0  0  0  0  0  0  0  0  0  0  0  0
  -16.7357   15.6005  -21.2774 C   0  0  0  0  0  0  0  0  0  0  0  0
  -15.8967   15.9626  -22.2999 C   0  0  0  0  0  0  0  0  0  0  0  0
  -15.5875   15.0733  -23.2912 C   0  0  0  0  0  0  0  0  0  0  0  0
  -14.5228   15.4694  -24.6256 Cl  0  0  0  0  0  0  0  0  0  0  0  0
  -16.1240   13.8111  -23.2580 C   0  0  0  0  0  0  0  0  0  0  0  0
  -16.9835   13.4477  -22.2071 C   0  0  0  0  0  0  0  0  0  0  0  0
  -17.6707   11.8255  -22.2507 Cl  0  0  0  0  0  0  0  0  0  0  0  0
  -19.5989   15.9888  -19.9480 C   0  0  0  0  0  0  0  0  0  0  0  0
  -20.3793   16.3240  -21.0219 C   0  0  0  0  0  0  0  0  0  0  0  0
  -20.6382   17.6520  -21.3362 C   0  0  0  0  0  0  0  0  0  0  0  0
  -20.1297   18.6914  -20.5917 C   0  0  0  0  0  0  0  0  0  0  0  0
  -20.4477   20.3706  -20.9741 Cl  0  0  0  0  0  0  0  0  0  0  0  0
  -19.3418   18.3672  -19.5075 C   0  0  0  0  0  0  0  0  0  0  0  0
  -19.0925   17.0417  -19.2091 C   0  0  0  0  0  0  0  0  0  0  0  0
  -20.6685   14.8781  -16.6658 C   0  0  0  0  0  0  0  0  0  0  0  0
  -21.0573   14.0615  -17.9347 C   0  0  0  0  0  0  0  0  0  0  0  0
 31 32  1  0  0  0
 32  1  1  0  0  0
  1  2  1  0  0  0
  2  6  1  0  0  0
  6  7  2  0  0  0
  7  8  1  0  0  0
  8  9  1  0  0  0
  9 10  1  0  0  0
 10 11  1  0  0  0
  8 12  1  0  0  0
 12 13  2  0  0  0
 12 14  1  0  0  0
  2  3  2  0  0  0
  3  4  1  0  0  0
  4 16  1  0  0  0
 16 17  2  0  0  0
 17 18  1  0  0  0
 18 19  2  0  0  0
 19 20  1  0  0  0
 19 21  1  0  0  0
 21 22  2  0  0  0
 22 23  1  0  0  0
  4  5  1  0  0  0
  5 24  1  0  0  0
 24 25  2  0  0  0
 25 26  1  0  0  0
 26 27  2  0  0  0
 27 28  1  0  0  0
 27 29  1  0  0  0
 29 30  2  0  0  0
  5  1  2  0  0  0
 30 24  1  0  0  0
 14  6  1  0  0  0
 22 16  1  0  0  0
 11  8  1  0  0  0
 14 15  1  0  0  0
M  END
> <minimizedAffinity>
-8.19327

> <CNNscore>
0.1370268166

> <CNNaffinity>
6.7426581383

> <CNN_VS>
0.9239249825

> <CNNaffinity_variance>
0.3750375211

$$$$
[H]c1c([H])c(-c2c(C([H])([H])C([H])([H])[H])c(C3=NC4(C(=O)N3[H])C([H])([H])C([H])([H])C4([H])[H])nn2-c2c([H])c([H])c(Cl)c([H])c2Cl)c([H])c([H])c1Cl


 32 36  0  0  0  0  0  0  0  0999 V2000
  -17.5173   12.8573  -21.0652 C   0  0  0  0  0  0  0  0  0  0  0  0
  -17.1459   13.9904  -21.7229 C   0  0  0  0  0  0  0  0  0  0  0  0
  -17.6172   14.9949  -20.9176 N   0  0  0  0  0  0  0  0  0  0  0  0
  -18.2263   14.5216  -19.8463 N   0  0  0  0  0  0  0  0  0  0  0  0
  -18.1951   13.1935  -19.8752 C   0  0  0  0  0  0  0  0  0  0  0  0
  -16.3951   14.2441  -22.9409 C   0  0  0  0  0  0  0  0  0  0  0  0
  -16.9984   14.7048  -24.0370 N   0  0  0  0  0  0  0  0  0  0  0  0
  -16.0927   14.8836  -25.1096 C   0  0  0  0  0  0  0  0  0  0  0  0
  -16.1183   16.2311  -25.7950 C   0  0  0  0  0  0  0  0  0  0  0  0
  -16.8242   15.5947  -26.9547 C   0  0  0  0  0  0  0  0  0  0  0  0
  -16.4526   14.2313  -26.4219 C   0  0  0  0  0  0  0  0  0  0  0  0
  -14.7620   14.5278  -24.5941 C   0  0  0  0  0  0  0  0  0  0  0  0
  -13.6399   14.5499  -25.1459 O   0  0  0  0  0  0  0  0  0  0  0  0
  -15.0315   14.1181  -23.2235 N   0  0  0  0  0  0  0  0  0  0  0  0
  -14.2471   13.7986  -22.6183 H   0  0  0  0  0  0  0  0  0  0  0  0
  -18.8059   15.3411  -18.8302 C   0  0  0  0  0  0  0  0  0  0  0  0
  -18.1067   15.7874  -17.7119 C   0  0  0  0  0  0  0  0  0  0  0  0
  -18.7089   16.5511  -16.7449 C   0  0  0  0  0  0  0  0  0  0  0  0
  -20.0268   16.8976  -16.8559 C   0  0  0  0  0  0  0  0  0  0  0  0
  -20.8578   17.8708  -15.6586 Cl  0  0  0  0  0  0  0  0  0  0  0  0
  -20.7473   16.4750  -17.9442 C   0  0  0  0  0  0  0  0  0  0  0  0
  -20.1232   15.6922  -18.9305 C   0  0  0  0  0  0  0  0  0  0  0  0
  -21.1192   15.1479  -20.2787 Cl  0  0  0  0  0  0  0  0  0  0  0  0
  -18.5747   12.2445  -18.8482 C   0  0  0  0  0  0  0  0  0  0  0  0
  -17.8644   11.0903  -18.6531 C   0  0  0  0  0  0  0  0  0  0  0  0
  -18.2972   10.1225  -17.7557 C   0  0  0  0  0  0  0  0  0  0  0  0
  -19.4513   10.2709  -17.0215 C   0  0  0  0  0  0  0  0  0  0  0  0
  -20.0098    9.0607  -15.8854 Cl  0  0  0  0  0  0  0  0  0  0  0  0
  -20.1761   11.4289  -17.2089 C   0  0  0  0  0  0  0  0  0  0  0  0
  -19.7331   12.3812  -18.1061 C   0  0  0  0  0  0  0  0  0  0  0  0
  -15.8607   11.0505  -21.3191 C   0  0  0  0  0  0  0  0  0  0  0  0
  -17.3246   11.4830  -21.6324 C   0  0  0  0  0  0  0  0  0  0  0  0
 31 32  1  0  0  0
 32  1  1  0  0  0
  1  2  1  0  0  0
  2  6  1  0  0  0
  6  7  2  0  0  0
  7  8  1  0  0  0
  8  9  1  0  0  0
  9 10  1  0  0  0
 10 11  1  0  0  0
  8 12  1  0  0  0
 12 13  2  0  0  0
 12 14  1  0  0  0
  2  3  2  0  0  0
  3  4  1  0  0  0
  4 16  1  0  0  0
 16 17  2  0  0  0
 17 18  1  0  0  0
 18 19  2  0  0  0
 19 20  1  0  0  0
 19 21  1  0  0  0
 21 22  2  0  0  0
 22 23  1  0  0  0
  4  5  1  0  0  0
  5 24  1  0  0  0
 24 25  2  0  0  0
 25 26  1  0  0  0
 26 27  2  0  0  0
 27 28  1  0  0  0
 27 29  1  0  0  0
 29 30  2  0  0  0
  5  1  2  0  0  0
 30 24  1  0  0  0
 14  6  1  0  0  0
 22 16  1  0  0  0
 11  8  1  0  0  0
 14 15  1  0  0  0
M  END
> <minimizedAffinity>
-8.87732

> <CNNscore>
0.1273640543

> <CNNaffinity>
7.1003503799

> <CNN_VS>
0.9043294191

> <CNNaffinity_variance>
0.1218882948

$$$$
[H]c1nc(OC([H])([H])C([H])([H])Oc2nc([H])c(Br)c([H])n2)c(-c2c([H])c([H])c(C([H])([H])[H])c([H])c2[H])c(N([H])S(=O)(=O)c2c([H])c([H])c(Cl)c([H])c2[H])n1


 36 39  0  0  0  0  0  0  0  0999 V2000
  -18.5419   14.1529  -19.5954 C   0  0  0  0  0  0  0  0  0  0  0  0
  -17.8521   12.9914  -19.5497 C   0  0  0  0  0  0  0  0  0  0  0  0
  -18.3190   11.9734  -18.6163 N   0  0  0  0  0  0  0  0  0  0  0  0
  -19.3560   12.1558  -17.8529 C   0  0  0  0  0  0  0  0  0  0  0  0
  -20.0478   13.3010  -17.8892 N   0  0  0  0  0  0  0  0  0  0  0  0
  -19.6884   14.2406  -18.6756 C   0  0  0  0  0  0  0  0  0  0  0  0
  -16.8396   17.5078  -23.8452 C   0  0  0  0  0  0  0  0  0  0  0  0
  -17.3969   16.8556  -22.6431 C   0  0  0  0  0  0  0  0  0  0  0  0
  -16.7438   16.7144  -21.4778 C   0  0  0  0  0  0  0  0  0  0  0  0
  -17.1354   15.9682  -20.4058 C   0  0  0  0  0  0  0  0  0  0  0  0
  -18.3582   15.2561  -20.4754 C   0  0  0  0  0  0  0  0  0  0  0  0
  -19.0698   15.4136  -21.6553 C   0  0  0  0  0  0  0  0  0  0  0  0
  -18.6711   16.1797  -22.7550 C   0  0  0  0  0  0  0  0  0  0  0  0
  -16.7011   12.7350  -20.2634 N   0  0  0  0  0  0  0  0  0  0  0  0
  -15.7704   12.9313  -20.0442 H   0  0  0  0  0  0  0  0  0  0  0  0
  -16.9626   11.9990  -21.8754 S   0  0  0  0  0  0  0  0  0  0  0  0
  -15.8734   10.8605  -21.8584 O   0  0  0  0  0  0  0  0  0  0  0  0
  -18.2542   11.2691  -21.9168 O   0  0  0  0  0  0  0  0  0  0  0  0
  -16.6365   12.9833  -23.2038 C   0  0  0  0  0  0  0  0  0  0  0  0
  -17.5040   13.0938  -24.2187 C   0  0  0  0  0  0  0  0  0  0  0  0
  -17.3777   13.7399  -25.3800 C   0  0  0  0  0  0  0  0  0  0  0  0
  -16.1819   14.3863  -25.6066 C   0  0  0  0  0  0  0  0  0  0  0  0
  -15.8787   15.2659  -27.1034 Cl  0  0  0  0  0  0  0  0  0  0  0  0
  -15.1347   14.3526  -24.6447 C   0  0  0  0  0  0  0  0  0  0  0  0
  -15.3913   13.6443  -23.4442 C   0  0  0  0  0  0  0  0  0  0  0  0
  -20.2576   15.4759  -18.7651 O   0  0  0  0  0  0  0  0  0  0  0  0
  -21.3769   16.0450  -18.7019 C   0  0  0  0  0  0  0  0  0  0  0  0
  -22.2665   16.9662  -19.3851 C   0  0  0  0  0  0  0  0  0  0  0  0
  -22.5682   17.2070  -20.6099 O   0  0  0  0  0  0  0  0  0  0  0  0
  -22.8649   17.4373  -21.8224 C   0  0  0  0  0  0  0  0  0  0  0  0
  -21.8843   18.1368  -22.6658 N   0  0  0  0  0  0  0  0  0  0  0  0
  -22.0899   18.3902  -23.9569 C   0  0  0  0  0  0  0  0  0  0  0  0
  -23.2867   17.9813  -24.5592 C   0  0  0  0  0  0  0  0  0  0  0  0
  -23.5955   18.3870  -26.3907 Br  0  0  0  0  0  0  0  0  0  0  0  0
  -24.2248   17.3398  -23.7943 C   0  0  0  0  0  0  0  0  0  0  0  0
  -23.9664   17.1397  -22.5680 N   0  0  0  0  0  0  0  0  0  0  0  0
  7  8  1  0  0  0
  8  9  2  0  0  0
  9 10  1  0  0  0
 10 11  2  0  0  0
 11  1  1  0  0  0
  1  2  1  0  0  0
  2 14  1  0  0  0
 14 16  1  0  0  0
 16 17  2  0  0  0
 16 18  2  0  0  0
 16 19  1  0  0  0
 19 20  2  0  0  0
 20 21  1  0  0  0
 21 22  2  0  0  0
 22 23  1  0  0  0
 22 24  1  0  0  0
 24 25  2  0  0  0
  2  3  2  0  0  0
  3  4  1  0  0  0
  4  5  2  0  0  0
  5  6  1  0  0  0
  6 26  1  0  0  0
 26 27  1  0  0  0
 27 28  1  0  0  0
 28 29  1  0  0  0
 29 30  1  0  0  0
 30 31  2  0  0  0
 31 32  1  0  0  0
 32 33  2  0  0  0
 33 34  1  0  0  0
 33 35  1  0  0  0
 35 36  2  0  0  0
 11 12  1  0  0  0
 12 13  2  0  0  0
 13  8  1  0  0  0
  6  1  2  0  0  0
 36 30  1  0  0  0
 25 19  1  0  0  0
 14 15  1  0  0  0
M  END
> <minimizedAffinity>
-7.71903

> <CNNscore>
0.4351485372

> <CNNaffinity>
7.1683807373

> <CNN_VS>
3.1193103790

> <CNNaffinity_variance>
0.3300573826

$$$$
[H]c1nc(OC([H])([H])C([H])([H])Oc2nc([H])c(Br)c([H])n2)c(-c2c([H])c([H])c(C([H])([H])[H])c([H])c2[H])c(N([H])S(=O)(=O)c2c([H])c([H])c(Cl)c([H])c2[H])n1


 36 39  0  0  0  0  0  0  0  0999 V2000
  -18.6766   14.9427  -19.3424 C   0  0  0  0  0  0  0  0  0  0  0  0
  -19.5688   15.6859  -18.6506 C   0  0  0  0  0  0  0  0  0  0  0  0
  -19.9895   15.1837  -17.3482 N   0  0  0  0  0  0  0  0  0  0  0  0
  -19.5342   14.0700  -16.8543 C   0  0  0  0  0  0  0  0  0  0  0  0
  -18.6500   13.3255  -17.5290 N   0  0  0  0  0  0  0  0  0  0  0  0
  -18.2461   13.6995  -18.6811 C   0  0  0  0  0  0  0  0  0  0  0  0
  -17.0360   17.4896  -24.1421 C   0  0  0  0  0  0  0  0  0  0  0  0
  -17.3212   16.6198  -22.9831 C   0  0  0  0  0  0  0  0  0  0  0  0
  -18.3894   15.8121  -22.8779 C   0  0  0  0  0  0  0  0  0  0  0  0
  -18.7950   15.1328  -21.7674 C   0  0  0  0  0  0  0  0  0  0  0  0
  -18.0374   15.2506  -20.5761 C   0  0  0  0  0  0  0  0  0  0  0  0
  -16.9086   16.0510  -20.6679 C   0  0  0  0  0  0  0  0  0  0  0  0
  -16.4897   16.7469  -21.8061 C   0  0  0  0  0  0  0  0  0  0  0  0
  -20.1620   16.8375  -19.1219 N   0  0  0  0  0  0  0  0  0  0  0  0
  -19.8311   17.7558  -19.1290 H   0  0  0  0  0  0  0  0  0  0  0  0
  -21.8279   16.6258  -19.7453 S   0  0  0  0  0  0  0  0  0  0  0  0
  -21.8743   15.0621  -19.9338 O   0  0  0  0  0  0  0  0  0  0  0  0
  -22.8259   16.8957  -18.6804 O   0  0  0  0  0  0  0  0  0  0  0  0
  -22.1541   17.3203  -21.2456 C   0  0  0  0  0  0  0  0  0  0  0  0
  -23.3663   17.2261  -21.8082 C   0  0  0  0  0  0  0  0  0  0  0  0
  -23.7783   17.6238  -23.0140 C   0  0  0  0  0  0  0  0  0  0  0  0
  -22.8364   18.2075  -23.8332 C   0  0  0  0  0  0  0  0  0  0  0  0
  -23.2436   18.7657  -25.4546 Cl  0  0  0  0  0  0  0  0  0  0  0  0
  -21.4887   18.3657  -23.4069 C   0  0  0  0  0  0  0  0  0  0  0  0
  -21.1740   17.9154  -22.1003 C   0  0  0  0  0  0  0  0  0  0  0  0
  -17.4051   13.0084  -19.5017 O   0  0  0  0  0  0  0  0  0  0  0  0
  -17.4089   12.0823  -20.3519 C   0  0  0  0  0  0  0  0  0  0  0  0
  -17.0349   11.7330  -21.7101 C   0  0  0  0  0  0  0  0  0  0  0  0
  -16.7495   12.3883  -22.7770 O   0  0  0  0  0  0  0  0  0  0  0  0
  -16.4670   13.0429  -23.8273 C   0  0  0  0  0  0  0  0  0  0  0  0
  -17.4416   13.0610  -24.9282 N   0  0  0  0  0  0  0  0  0  0  0  0
  -17.2507   13.7483  -26.0528 C   0  0  0  0  0  0  0  0  0  0  0  0
  -16.0764   14.4944  -26.2157 C   0  0  0  0  0  0  0  0  0  0  0  0
  -15.7873   15.4359  -27.8418 Br  0  0  0  0  0  0  0  0  0  0  0  0
  -15.1440   14.4849  -25.2120 C   0  0  0  0  0  0  0  0  0  0  0  0
  -15.3872   13.7999  -24.1716 N   0  0  0  0  0  0  0  0  0  0  0  0
  7  8  1  0  0  0
  8  9  2  0  0  0
  9 10  1  0  0  0
 10 11  2  0  0  0
 11  1  1  0  0  0
  1  2  1  0  0  0
  2 14  1  0  0  0
 14 16  1  0  0  0
 16 17  2  0  0  0
 16 18  2  0  0  0
 16 19  1  0  0  0
 19 20  2  0  0  0
 20 21  1  0  0  0
 21 22  2  0  0  0
 22 23  1  0  0  0
 22 24  1  0  0  0
 24 25  2  0  0  0
  2  3  2  0  0  0
  3  4  1  0  0  0
  4  5  2  0  0  0
  5  6  1  0  0  0
  6 26  1  0  0  0
 26 27  1  0  0  0
 27 28  1  0  0  0
 28 29  1  0  0  0
 29 30  1  0  0  0
 30 31  2  0  0  0
 31 32  1  0  0  0
 32 33  2  0  0  0
 33 34  1  0  0  0
 33 35  1  0  0  0
 35 36  2  0  0  0
 11 12  1  0  0  0
 12 13  2  0  0  0
 13  8  1  0  0  0
  6  1  2  0  0  0
 36 30  1  0  0  0
 25 19  1  0  0  0
 14 15  1  0  0  0
M  END
> <minimizedAffinity>
-8.18123

> <CNNscore>
0.4077053964

> <CNNaffinity>
7.2525224686

> <CNN_VS>
2.9568924904

> <CNNaffinity_variance>
0.3367398381

$$$$
[H]c1nc(OC([H])([H])C([H])([H])Oc2nc([H])c(Br)c([H])n2)c(-c2c([H])c([H])c(C([H])([H])[H])c([H])c2[H])c(N([H])S(=O)(=O)c2c([H])c([H])c(Cl)c([H])c2[H])n1


 36 39  0  0  0  0  0  0  0  0999 V2000
  -18.4094   13.2558  -20.1272 C   0  0  0  0  0  0  0  0  0  0  0  0
  -18.0772   13.9369  -21.2465 C   0  0  0  0  0  0  0  0  0  0  0  0
  -17.2841   13.2324  -22.2465 N   0  0  0  0  0  0  0  0  0  0  0  0
  -16.9046   11.9987  -22.0875 C   0  0  0  0  0  0  0  0  0  0  0  0
  -17.2276   11.3133  -20.9842 N   0  0  0  0  0  0  0  0  0  0  0  0
  -17.9115   11.8717  -20.0617 C   0  0  0  0  0  0  0  0  0  0  0  0
  -21.5304   16.3517  -16.5369 C   0  0  0  0  0  0  0  0  0  0  0  0
  -20.7600   15.3476  -17.2981 C   0  0  0  0  0  0  0  0  0  0  0  0
  -19.4378   15.1447  -17.1754 C   0  0  0  0  0  0  0  0  0  0  0  0
  -18.6519   14.3677  -17.9742 C   0  0  0  0  0  0  0  0  0  0  0  0
  -19.2476   13.6722  -19.0551 C   0  0  0  0  0  0  0  0  0  0  0  0
  -20.6188   13.8365  -19.1824 C   0  0  0  0  0  0  0  0  0  0  0  0
  -21.4269   14.6312  -18.3635 C   0  0  0  0  0  0  0  0  0  0  0  0
  -18.3688   15.2653  -21.4710 N   0  0  0  0  0  0  0  0  0  0  0  0
  -19.2301   15.7244  -21.4867 H   0  0  0  0  0  0  0  0  0  0  0  0
  -16.9550   16.2893  -21.8723 S   0  0  0  0  0  0  0  0  0  0  0  0
  -17.5862   17.7268  -21.7378 O   0  0  0  0  0  0  0  0  0  0  0  0
  -15.9406   16.2325  -20.7903 O   0  0  0  0  0  0  0  0  0  0  0  0
  -16.3578   16.1502  -23.4419 C   0  0  0  0  0  0  0  0  0  0  0  0
  -17.1255   16.4207  -24.5060 C   0  0  0  0  0  0  0  0  0  0  0  0
  -16.8593   16.2773  -25.8062 C   0  0  0  0  0  0  0  0  0  0  0  0
  -15.6250   15.7608  -26.1363 C   0  0  0  0  0  0  0  0  0  0  0  0
  -15.1505   15.5079  -27.8147 Cl  0  0  0  0  0  0  0  0  0  0  0  0
  -14.6895   15.3929  -25.1301 C   0  0  0  0  0  0  0  0  0  0  0  0
  -15.0815   15.6033  -23.7844 C   0  0  0  0  0  0  0  0  0  0  0  0
  -18.2508   11.3161  -18.8641 O   0  0  0  0  0  0  0  0  0  0  0  0
  -18.0080   10.3126  -18.1466 C   0  0  0  0  0  0  0  0  0  0  0  0
  -18.6131    9.1894  -17.4544 C   0  0  0  0  0  0  0  0  0  0  0  0
  -18.8636    8.8981  -16.2290 O   0  0  0  0  0  0  0  0  0  0  0  0
  -19.1120    8.6023  -15.0198 C   0  0  0  0  0  0  0  0  0  0  0  0
  -19.6975    7.2864  -14.7236 N   0  0  0  0  0  0  0  0  0  0  0  0
  -19.9586    6.8724  -13.4852 C   0  0  0  0  0  0  0  0  0  0  0  0
  -19.6706    7.7114  -12.4010 C   0  0  0  0  0  0  0  0  0  0  0  0
  -20.0886    7.1349  -10.6383 Br  0  0  0  0  0  0  0  0  0  0  0  0
  -19.1375    8.9490  -12.6478 C   0  0  0  0  0  0  0  0  0  0  0  0
  -18.9233    9.2821  -13.8536 N   0  0  0  0  0  0  0  0  0  0  0  0
  7  8  1  0  0  0
  8  9  2  0  0  0
  9 10  1  0  0  0
 10 11  2  0  0  0
 11  1  1  0  0  0
  1  2  1  0  0  0
  2 14  1  0  0  0
 14 16  1  0  0  0
 16 17  2  0  0  0
 16 18  2  0  0  0
 16 19  1  0  0  0
 19 20  2  0  0  0
 20 21  1  0  0  0
 21 22  2  0  0  0
 22 23  1  0  0  0
 22 24  1  0  0  0
 24 25  2  0  0  0
  2  3  2  0  0  0
  3  4  1  0  0  0
  4  5  2  0  0  0
  5  6  1  0  0  0
  6 26  1  0  0  0
 26 27  1  0  0  0
 27 28  1  0  0  0
 28 29  1  0  0  0
 29 30  1  0  0  0
 30 31  2  0  0  0
 31 32  1  0  0  0
 32 33  2  0  0  0
 33 34  1  0  0  0
 33 35  1  0  0  0
 35 36  2  0  0  0
 11 12  1  0  0  0
 12 13  2  0  0  0
 13  8  1  0  0  0
  6  1  2  0  0  0
 36 30  1  0  0  0
 25 19  1  0  0  0
 14 15  1  0  0  0
M  END
> <minimizedAffinity>
-7.81727

> <CNNscore>
0.3356592357

> <CNNaffinity>
6.9391593933

> <CNN_VS>
2.3291928768

> <CNNaffinity_variance>
0.0398555063

$$$$
[H]c1nc(OC([H])([H])C([H])([H])Oc2nc([H])c(Br)c([H])n2)c(-c2c([H])c([H])c(C([H])([H])[H])c([H])c2[H])c(N([H])S(=O)(=O)c2c([H])c([H])c(Cl)c([H])c2[H])n1


 36 39  0  0  0  0  0  0  0  0999 V2000
  -17.9651   12.7770  -20.4863 C   0  0  0  0  0  0  0  0  0  0  0  0
  -17.3565   12.1386  -21.5105 C   0  0  0  0  0  0  0  0  0  0  0  0
  -16.5565   10.9641  -21.1847 N   0  0  0  0  0  0  0  0  0  0  0  0
  -16.4241   10.5317  -19.9653 C   0  0  0  0  0  0  0  0  0  0  0  0
  -17.0221   11.1545  -18.9427 N   0  0  0  0  0  0  0  0  0  0  0  0
  -17.7294   12.1964  -19.1538 C   0  0  0  0  0  0  0  0  0  0  0  0
  -21.5392   16.9659  -19.1100 C   0  0  0  0  0  0  0  0  0  0  0  0
  -20.6811   15.9296  -19.7191 C   0  0  0  0  0  0  0  0  0  0  0  0
  -21.0466   14.6517  -19.9133 C   0  0  0  0  0  0  0  0  0  0  0  0
  -20.2420   13.6203  -20.2981 C   0  0  0  0  0  0  0  0  0  0  0  0
  -18.8696   13.8744  -20.5411 C   0  0  0  0  0  0  0  0  0  0  0  0
  -18.4737   15.1940  -20.3821 C   0  0  0  0  0  0  0  0  0  0  0  0
  -19.2973   16.2535  -19.9895 C   0  0  0  0  0  0  0  0  0  0  0  0
  -17.3772   12.5634  -22.8216 N   0  0  0  0  0  0  0  0  0  0  0  0
  -18.0938   12.5220  -23.4831 H   0  0  0  0  0  0  0  0  0  0  0  0
  -15.8241   13.2210  -23.4249 S   0  0  0  0  0  0  0  0  0  0  0  0
  -15.6136   14.4300  -22.4364 O   0  0  0  0  0  0  0  0  0  0  0  0
  -14.7056   12.2960  -23.1148 O   0  0  0  0  0  0  0  0  0  0  0  0
  -15.8401   13.8501  -24.9881 C   0  0  0  0  0  0  0  0  0  0  0  0
  -14.9847   14.8113  -25.3612 C   0  0  0  0  0  0  0  0  0  0  0  0
  -14.9129   15.4881  -26.5095 C   0  0  0  0  0  0  0  0  0  0  0  0
  -15.8555   15.1888  -27.4693 C   0  0  0  0  0  0  0  0  0  0  0  0
  -15.8824   16.0169  -29.0248 Cl  0  0  0  0  0  0  0  0  0  0  0  0
  -16.8589   14.2087  -27.2332 C   0  0  0  0  0  0  0  0  0  0  0  0
  -16.8253   13.5479  -25.9797 C   0  0  0  0  0  0  0  0  0  0  0  0
  -18.3349   12.9632  -18.2033 O   0  0  0  0  0  0  0  0  0  0  0  0
  -18.9337   12.8656  -17.1021 C   0  0  0  0  0  0  0  0  0  0  0  0
  -19.9014   12.0818  -16.3566 C   0  0  0  0  0  0  0  0  0  0  0  0
  -19.8625   11.0044  -15.6588 O   0  0  0  0  0  0  0  0  0  0  0  0
  -19.8255    9.9352  -14.9757 C   0  0  0  0  0  0  0  0  0  0  0  0
  -20.6663    8.8038  -15.3941 N   0  0  0  0  0  0  0  0  0  0  0  0
  -20.6679    7.6309  -14.7635 C   0  0  0  0  0  0  0  0  0  0  0  0
  -19.8393    7.4442  -13.6495 C   0  0  0  0  0  0  0  0  0  0  0  0
  -19.8798    5.7838  -12.7245 Br  0  0  0  0  0  0  0  0  0  0  0  0
  -19.0551    8.4857  -13.2285 C   0  0  0  0  0  0  0  0  0  0  0  0
  -19.1111    9.5787  -13.8710 N   0  0  0  0  0  0  0  0  0  0  0  0
  7  8  1  0  0  0
  8  9  2  0  0  0
  9 10  1  0  0  0
 10 11  2  0  0  0
 11  1  1  0  0  0
  1  2  1  0  0  0
  2 14  1  0  0  0
 14 16  1  0  0  0
 16 17  2  0  0  0
 16 18  2  0  0  0
 16 19  1  0  0  0
 19 20  2  0  0  0
 20 21  1  0  0  0
 21 22  2  0  0  0
 22 23  1  0  0  0
 22 24  1  0  0  0
 24 25  2  0  0  0
  2  3  2  0  0  0
  3  4  1  0  0  0
  4  5  2  0  0  0
  5  6  1  0  0  0
  6 26  1  0  0  0
 26 27  1  0  0  0
 27 28  1  0  0  0
 28 29  1  0  0  0
 29 30  1  0  0  0
 30 31  2  0  0  0
 31 32  1  0  0  0
 32 33  2  0  0  0
 33 34  1  0  0  0
 33 35  1  0  0  0
 35 36  2  0  0  0
 11 12  1  0  0  0
 12 13  2  0  0  0
 13  8  1  0  0  0
  6  1  2  0  0  0
 36 30  1  0  0  0
 25 19  1  0  0  0
 14 15  1  0  0  0
M  END
> <minimizedAffinity>
-8.59988

> <CNNscore>
0.3291929960

> <CNNaffinity>
6.9953637123

> <CNN_VS>
2.3028247356

> <CNNaffinity_variance>
0.1268347651

$$$$
[H]c1nc(OC([H])([H])C([H])([H])Oc2nc([H])c(Br)c([H])n2)c(-c2c([H])c([H])c(C([H])([H])[H])c([H])c2[H])c(N([H])S(=O)(=O)c2c([H])c([H])c(Cl)c([H])c2[H])n1


 36 39  0  0  0  0  0  0  0  0999 V2000
  -19.2614   11.7955  -17.6641 C   0  0  0  0  0  0  0  0  0  0  0  0
  -20.1362   11.1491  -16.8615 C   0  0  0  0  0  0  0  0  0  0  0  0
  -19.8967    9.7320  -16.6167 N   0  0  0  0  0  0  0  0  0  0  0  0
  -18.8872    9.0991  -17.1378 C   0  0  0  0  0  0  0  0  0  0  0  0
  -18.0137    9.7279  -17.9335 N   0  0  0  0  0  0  0  0  0  0  0  0
  -18.1684   10.9670  -18.1999 C   0  0  0  0  0  0  0  0  0  0  0  0
  -20.4354   17.3314  -18.1000 C   0  0  0  0  0  0  0  0  0  0  0  0
  -19.9334   15.9438  -18.1588 C   0  0  0  0  0  0  0  0  0  0  0  0
  -20.3868   15.0019  -19.0023 C   0  0  0  0  0  0  0  0  0  0  0  0
  -20.0920   13.6708  -18.9771 C   0  0  0  0  0  0  0  0  0  0  0  0
  -19.2109   13.1819  -17.9813 C   0  0  0  0  0  0  0  0  0  0  0  0
  -18.7002   14.1405  -17.1190 C   0  0  0  0  0  0  0  0  0  0  0  0
  -18.9996   15.5061  -17.1442 C   0  0  0  0  0  0  0  0  0  0  0  0
  -21.2730   11.7149  -16.3254 N   0  0  0  0  0  0  0  0  0  0  0  0
  -21.6906   12.5779  -16.5088 H   0  0  0  0  0  0  0  0  0  0  0  0
  -22.0595   10.7492  -15.0379 S   0  0  0  0  0  0  0  0  0  0  0  0
  -23.0528   11.8147  -14.4372 O   0  0  0  0  0  0  0  0  0  0  0  0
  -22.9455    9.7131  -15.6248 O   0  0  0  0  0  0  0  0  0  0  0  0
  -21.0619   10.2317  -13.7823 C   0  0  0  0  0  0  0  0  0  0  0  0
  -21.1891    9.0087  -13.2502 C   0  0  0  0  0  0  0  0  0  0  0  0
  -20.5629    8.4665  -12.2034 C   0  0  0  0  0  0  0  0  0  0  0  0
  -19.6560    9.2631  -11.5387 C   0  0  0  0  0  0  0  0  0  0  0  0
  -18.7698    8.6760  -10.1329 Cl  0  0  0  0  0  0  0  0  0  0  0  0
  -19.4127   10.6022  -11.9521 C   0  0  0  0  0  0  0  0  0  0  0  0
  -20.1294   11.0621  -13.0851 C   0  0  0  0  0  0  0  0  0  0  0  0
  -17.3978   11.7103  -19.0435 O   0  0  0  0  0  0  0  0  0  0  0  0
  -17.0854   11.8036  -20.2578 C   0  0  0  0  0  0  0  0  0  0  0  0
  -17.6044   11.7454  -21.6120 C   0  0  0  0  0  0  0  0  0  0  0  0
  -17.3560   12.3572  -22.7135 O   0  0  0  0  0  0  0  0  0  0  0  0
  -17.1060   12.9674  -23.7981 C   0  0  0  0  0  0  0  0  0  0  0  0
  -16.1348   14.0712  -23.7764 N   0  0  0  0  0  0  0  0  0  0  0  0
  -15.7809   14.7457  -24.8687 C   0  0  0  0  0  0  0  0  0  0  0  0
  -16.3463   14.4054  -26.1044 C   0  0  0  0  0  0  0  0  0  0  0  0
  -15.8733   15.4017  -27.6529 Br  0  0  0  0  0  0  0  0  0  0  0  0
  -17.2647   13.3900  -26.1526 C   0  0  0  0  0  0  0  0  0  0  0  0
  -17.5624   12.7965  -25.0709 N   0  0  0  0  0  0  0  0  0  0  0  0
  7  8  1  0  0  0
  8  9  2  0  0  0
  9 10  1  0  0  0
 10 11  2  0  0  0
 11  1  1  0  0  0
  1  2  1  0  0  0
  2 14  1  0  0  0
 14 16  1  0  0  0
 16 17  2  0  0  0
 16 18  2  0  0  0
 16 19  1  0  0  0
 19 20  2  0  0  0
 20 21  1  0  0  0
 21 22  2  0  0  0
 22 23  1  0  0  0
 22 24  1  0  0  0
 24 25  2  0  0  0
  2  3  2  0  0  0
  3  4  1  0  0  0
  4  5  2  0  0  0
  5  6  1  0  0  0
  6 26  1  0  0  0
 26 27  1  0  0  0
 27 28  1  0  0  0
 28 29  1  0  0  0
 29 30  1  0  0  0
 30 31  2  0  0  0
 31 32  1  0  0  0
 32 33  2  0  0  0
 33 34  1  0  0  0
 33 35  1  0  0  0
 35 36  2  0  0  0
 11 12  1  0  0  0
 12 13  2  0  0  0
 13  8  1  0  0  0
  6  1  2  0  0  0
 36 30  1  0  0  0
 25 19  1  0  0  0
 14 15  1  0  0  0
M  END
> <minimizedAffinity>
-7.84831

> <CNNscore>
0.2877739668

> <CNNaffinity>
6.6852922440

> <CNN_VS>
1.9238530397

> <CNNaffinity_variance>
0.1642459929

$$$$
[H]c1nc(OC([H])([H])C([H])([H])Oc2nc([H])c(Br)c([H])n2)c(-c2c([H])c([H])c(C([H])([H])[H])c([H])c2[H])c(N([H])S(=O)(=O)c2c([H])c([H])c(Cl)c([H])c2[H])n1


 36 39  0  0  0  0  0  0  0  0999 V2000
  -18.8527   12.0101  -18.1544 C   0  0  0  0  0  0  0  0  0  0  0  0
  -17.7919   11.3723  -18.6974 C   0  0  0  0  0  0  0  0  0  0  0  0
  -17.6201    9.9624  -18.3685 N   0  0  0  0  0  0  0  0  0  0  0  0
  -18.4443    9.3267  -17.5889 C   0  0  0  0  0  0  0  0  0  0  0  0
  -19.4988    9.9467  -17.0456 N   0  0  0  0  0  0  0  0  0  0  0  0
  -19.7043   11.1845  -17.2819 C   0  0  0  0  0  0  0  0  0  0  0  0
  -19.3267   17.3479  -20.0248 C   0  0  0  0  0  0  0  0  0  0  0  0
  -19.4046   16.0237  -19.3756 C   0  0  0  0  0  0  0  0  0  0  0  0
  -18.6872   15.6556  -18.3012 C   0  0  0  0  0  0  0  0  0  0  0  0
  -18.5842   14.4010  -17.7771 C   0  0  0  0  0  0  0  0  0  0  0  0
  -19.2986   13.3412  -18.3884 C   0  0  0  0  0  0  0  0  0  0  0  0
  -20.0758   13.7015  -19.4791 C   0  0  0  0  0  0  0  0  0  0  0  0
  -20.1843   14.9875  -20.0170 C   0  0  0  0  0  0  0  0  0  0  0  0
  -16.8262   11.9778  -19.4725 N   0  0  0  0  0  0  0  0  0  0  0  0
  -16.0720   12.5390  -19.2097 H   0  0  0  0  0  0  0  0  0  0  0  0
  -17.0349   11.7645  -21.2387 S   0  0  0  0  0  0  0  0  0  0  0  0
  -15.9049   10.7092  -21.5425 O   0  0  0  0  0  0  0  0  0  0  0  0
  -18.2980   11.0438  -21.5356 O   0  0  0  0  0  0  0  0  0  0  0  0
  -16.7245   13.1183  -22.1929 C   0  0  0  0  0  0  0  0  0  0  0  0
  -15.9853   13.0310  -23.3068 C   0  0  0  0  0  0  0  0  0  0  0  0
  -15.5606   13.9969  -24.1245 C   0  0  0  0  0  0  0  0  0  0  0  0
  -15.9027   15.2898  -23.7922 C   0  0  0  0  0  0  0  0  0  0  0  0
  -15.3960   16.6599  -24.7783 Cl  0  0  0  0  0  0  0  0  0  0  0  0
  -16.6657   15.5712  -22.6253 C   0  0  0  0  0  0  0  0  0  0  0  0
  -17.0694   14.4611  -21.8419 C   0  0  0  0  0  0  0  0  0  0  0  0
  -20.6940   11.9522  -16.7438 O   0  0  0  0  0  0  0  0  0  0  0  0
  -21.2707   12.1806  -15.6503 C   0  0  0  0  0  0  0  0  0  0  0  0
  -21.2643   11.8721  -14.2320 C   0  0  0  0  0  0  0  0  0  0  0  0
  -20.5622   11.1205  -13.4630 O   0  0  0  0  0  0  0  0  0  0  0  0
  -19.8643   10.3841  -12.7001 C   0  0  0  0  0  0  0  0  0  0  0  0
  -19.5900   10.8489  -11.3323 N   0  0  0  0  0  0  0  0  0  0  0  0
  -18.8996   10.1307  -10.4485 C   0  0  0  0  0  0  0  0  0  0  0  0
  -18.4032    8.8736  -10.8166 C   0  0  0  0  0  0  0  0  0  0  0  0
  -17.3783    7.8727   -9.5668 Br  0  0  0  0  0  0  0  0  0  0  0  0
  -18.6316    8.4208  -12.0893 C   0  0  0  0  0  0  0  0  0  0  0  0
  -19.2891    9.1621  -12.8824 N   0  0  0  0  0  0  0  0  0  0  0  0
  7  8  1  0  0  0
  8  9  2  0  0  0
  9 10  1  0  0  0
 10 11  2  0  0  0
 11  1  1  0  0  0
  1  2  1  0  0  0
  2 14  1  0  0  0
 14 16  1  0  0  0
 16 17  2  0  0  0
 16 18  2  0  0  0
 16 19  1  0  0  0
 19 20  2  0  0  0
 20 21  1  0  0  0
 21 22  2  0  0  0
 22 23  1  0  0  0
 22 24  1  0  0  0
 24 25  2  0  0  0
  2  3  2  0  0  0
  3  4  1  0  0  0
  4  5  2  0  0  0
  5  6  1  0  0  0
  6 26  1  0  0  0
 26 27  1  0  0  0
 27 28  1  0  0  0
 28 29  1  0  0  0
 29 30  1  0  0  0
 30 31  2  0  0  0
 31 32  1  0  0  0
 32 33  2  0  0  0
 33 34  1  0  0  0
 33 35  1  0  0  0
 35 36  2  0  0  0
 11 12  1  0  0  0
 12 13  2  0  0  0
 13  8  1  0  0  0
  6  1  2  0  0  0
 36 30  1  0  0  0
 25 19  1  0  0  0
 14 15  1  0  0  0
M  END
> <minimizedAffinity>
-7.74789

> <CNNscore>
0.2750135064

> <CNNaffinity>
6.8428626060

> <CNN_VS>
1.8818796873

> <CNNaffinity_variance>
0.0870800838

$$$$
[H]c1nc(OC([H])([H])C([H])([H])Oc2nc([H])c(Br)c([H])n2)c(-c2c([H])c([H])c(C([H])([H])[H])c([H])c2[H])c(N([H])S(=O)(=O)c2c([H])c([H])c(Cl)c([H])c2[H])n1


 36 39  0  0  0  0  0  0  0  0999 V2000
  -20.6138   17.4443  -19.4799 C   0  0  0  0  0  0  0  0  0  0  0  0
  -21.5014   18.0733  -18.6776 C   0  0  0  0  0  0  0  0  0  0  0  0
  -21.7877   17.4588  -17.3869 N   0  0  0  0  0  0  0  0  0  0  0  0
  -21.2206   16.3527  -17.0044 C   0  0  0  0  0  0  0  0  0  0  0  0
  -20.3396   15.7207  -17.7892 N   0  0  0  0  0  0  0  0  0  0  0  0
  -20.0498   16.1967  -18.9380 C   0  0  0  0  0  0  0  0  0  0  0  0
  -17.4190   18.0622  -24.1303 C   0  0  0  0  0  0  0  0  0  0  0  0
  -18.3798   18.1165  -23.0100 C   0  0  0  0  0  0  0  0  0  0  0  0
  -18.1659   18.7591  -21.8499 C   0  0  0  0  0  0  0  0  0  0  0  0
  -18.9315   18.6907  -20.7237 C   0  0  0  0  0  0  0  0  0  0  0  0
  -20.0914   17.8773  -20.7309 C   0  0  0  0  0  0  0  0  0  0  0  0
  -20.3546   17.2304  -21.9290 C   0  0  0  0  0  0  0  0  0  0  0  0
  -19.5721   17.3006  -23.0856 C   0  0  0  0  0  0  0  0  0  0  0  0
  -22.2066   19.2055  -19.0253 N   0  0  0  0  0  0  0  0  0  0  0  0
  -21.9999   20.1463  -18.8677 H   0  0  0  0  0  0  0  0  0  0  0  0
  -23.7824   18.8970  -19.8194 S   0  0  0  0  0  0  0  0  0  0  0  0
  -24.2144   17.5606  -19.1050 O   0  0  0  0  0  0  0  0  0  0  0  0
  -24.7950   19.8898  -19.3815 O   0  0  0  0  0  0  0  0  0  0  0  0
  -23.7324   18.5856  -21.4747 C   0  0  0  0  0  0  0  0  0  0  0  0
  -24.0074   17.3689  -21.9635 C   0  0  0  0  0  0  0  0  0  0  0  0
  -23.9272   16.9170  -23.2170 C   0  0  0  0  0  0  0  0  0  0  0  0
  -23.4827   17.8051  -24.1723 C   0  0  0  0  0  0  0  0  0  0  0  0
  -23.3177   17.3346  -25.8628 Cl  0  0  0  0  0  0  0  0  0  0  0  0
  -23.1206   19.1364  -23.8262 C   0  0  0  0  0  0  0  0  0  0  0  0
  -23.2600   19.5037  -22.4643 C   0  0  0  0  0  0  0  0  0  0  0  0
  -19.2265   15.6241  -19.8612 O   0  0  0  0  0  0  0  0  0  0  0  0
  -18.3114   14.7675  -19.9593 C   0  0  0  0  0  0  0  0  0  0  0  0
  -17.3684   14.1559  -20.8776 C   0  0  0  0  0  0  0  0  0  0  0  0
  -16.9893   14.3816  -22.0837 O   0  0  0  0  0  0  0  0  0  0  0  0
  -16.6135   14.5968  -23.2769 C   0  0  0  0  0  0  0  0  0  0  0  0
  -17.5662   14.3505  -24.3695 N   0  0  0  0  0  0  0  0  0  0  0  0
  -17.2763   14.5814  -25.6486 C   0  0  0  0  0  0  0  0  0  0  0  0
  -16.0135   15.0815  -25.9915 C   0  0  0  0  0  0  0  0  0  0  0  0
  -15.5881   15.3652  -27.8225 Br  0  0  0  0  0  0  0  0  0  0  0  0
  -15.1005   15.3074  -24.9953 C   0  0  0  0  0  0  0  0  0  0  0  0
  -15.4412   15.0559  -23.7989 N   0  0  0  0  0  0  0  0  0  0  0  0
  7  8  1  0  0  0
  8  9  2  0  0  0
  9 10  1  0  0  0
 10 11  2  0  0  0
 11  1  1  0  0  0
  1  2  1  0  0  0
  2 14  1  0  0  0
 14 16  1  0  0  0
 16 17  2  0  0  0
 16 18  2  0  0  0
 16 19  1  0  0  0
 19 20  2  0  0  0
 20 21  1  0  0  0
 21 22  2  0  0  0
 22 23  1  0  0  0
 22 24  1  0  0  0
 24 25  2  0  0  0
  2  3  2  0  0  0
  3  4  1  0  0  0
  4  5  2  0  0  0
  5  6  1  0  0  0
  6 26  1  0  0  0
 26 27  1  0  0  0
 27 28  1  0  0  0
 28 29  1  0  0  0
 29 30  1  0  0  0
 30 31  2  0  0  0
 31 32  1  0  0  0
 32 33  2  0  0  0
 33 34  1  0  0  0
 33 35  1  0  0  0
 35 36  2  0  0  0
 11 12  1  0  0  0
 12 13  2  0  0  0
 13  8  1  0  0  0
  6  1  2  0  0  0
 36 30  1  0  0  0
 25 19  1  0  0  0
 14 15  1  0  0  0
M  END
> <minimizedAffinity>
-6.84372

> <CNNscore>
0.2087971270

> <CNNaffinity>
6.7094979286

> <CNN_VS>
1.4009238482

> <CNNaffinity_variance>
0.3537897468

$$$$
[H]c1nc(OC([H])([H])C([H])([H])Oc2nc([H])c(Br)c([H])n2)c(-c2c([H])c([H])c(C([H])([H])[H])c([H])c2[H])c(N([H])S(=O)(=O)c2c([H])c([H])c(Cl)c([H])c2[H])n1


 36 39  0  0  0  0  0  0  0  0999 V2000
  -17.7479   13.7641  -21.2249 C   0  0  0  0  0  0  0  0  0  0  0  0
  -17.4490   12.4618  -21.4289 C   0  0  0  0  0  0  0  0  0  0  0  0
  -16.4240   12.1590  -22.4205 N   0  0  0  0  0  0  0  0  0  0  0  0
  -15.8096   13.0899  -23.0893 C   0  0  0  0  0  0  0  0  0  0  0  0
  -16.0959   14.3830  -22.8960 N   0  0  0  0  0  0  0  0  0  0  0  0
  -16.9913   14.7202  -22.0505 C   0  0  0  0  0  0  0  0  0  0  0  0
  -21.3964   14.4754  -16.9357 C   0  0  0  0  0  0  0  0  0  0  0  0
  -20.4908   14.5488  -18.1000 C   0  0  0  0  0  0  0  0  0  0  0  0
  -20.8493   14.2771  -19.3657 C   0  0  0  0  0  0  0  0  0  0  0  0
  -20.0209   14.1521  -20.4415 C   0  0  0  0  0  0  0  0  0  0  0  0
  -18.6272   14.3285  -20.2586 C   0  0  0  0  0  0  0  0  0  0  0  0
  -18.2341   14.6453  -18.9669 C   0  0  0  0  0  0  0  0  0  0  0  0
  -19.0818   14.7759  -17.8627 C   0  0  0  0  0  0  0  0  0  0  0  0
  -18.0960   11.4054  -20.8245 N   0  0  0  0  0  0  0  0  0  0  0  0
  -18.9214   10.9488  -21.0756 H   0  0  0  0  0  0  0  0  0  0  0  0
  -17.3466   10.8356  -19.3005 S   0  0  0  0  0  0  0  0  0  0  0  0
  -16.5733    9.5616  -19.8122 O   0  0  0  0  0  0  0  0  0  0  0  0
  -16.2739   11.7635  -18.8632 O   0  0  0  0  0  0  0  0  0  0  0  0
  -18.4082   10.3258  -18.0952 C   0  0  0  0  0  0  0  0  0  0  0  0
  -19.3264   11.1539  -17.5795 C   0  0  0  0  0  0  0  0  0  0  0  0
  -20.1758   10.9595  -16.5682 C   0  0  0  0  0  0  0  0  0  0  0  0
  -20.1129    9.7413  -15.9271 C   0  0  0  0  0  0  0  0  0  0  0  0
  -21.1684    9.3591  -14.5684 Cl  0  0  0  0  0  0  0  0  0  0  0  0
  -19.1767    8.7480  -16.3269 C   0  0  0  0  0  0  0  0  0  0  0  0
  -18.3351    9.0661  -17.4221 C   0  0  0  0  0  0  0  0  0  0  0  0
  -17.4278   15.9879  -21.8043 O   0  0  0  0  0  0  0  0  0  0  0  0
  -17.3559   17.1550  -22.2662 C   0  0  0  0  0  0  0  0  0  0  0  0
  -17.9170   18.4906  -22.1761 C   0  0  0  0  0  0  0  0  0  0  0  0
  -19.0558   19.0234  -22.4380 O   0  0  0  0  0  0  0  0  0  0  0  0
  -20.1847   19.5428  -22.6969 C   0  0  0  0  0  0  0  0  0  0  0  0
  -20.4671   19.9592  -24.0785 N   0  0  0  0  0  0  0  0  0  0  0  0
  -21.6343   20.4790  -24.4538 C   0  0  0  0  0  0  0  0  0  0  0  0
  -22.6530   20.6455  -23.5067 C   0  0  0  0  0  0  0  0  0  0  0  0
  -24.3007   21.4313  -24.0373 Br  0  0  0  0  0  0  0  0  0  0  0  0
  -22.4133   20.2792  -22.2086 C   0  0  0  0  0  0  0  0  0  0  0  0
  -21.2744   19.7994  -21.9195 N   0  0  0  0  0  0  0  0  0  0  0  0
  7  8  1  0  0  0
  8  9  2  0  0  0
  9 10  1  0  0  0
 10 11  2  0  0  0
 11  1  1  0  0  0
  1  2  1  0  0  0
  2 14  1  0  0  0
 14 16  1  0  0  0
 16 17  2  0  0  0
 16 18  2  0  0  0
 16 19  1  0  0  0
 19 20  2  0  0  0
 20 21  1  0  0  0
 21 22  2  0  0  0
 22 23  1  0  0  0
 22 24  1  0  0  0
 24 25  2  0  0  0
  2  3  2  0  0  0
  3  4  1  0  0  0
  4  5  2  0  0  0
  5  6  1  0  0  0
  6 26  1  0  0  0
 26 27  1  0  0  0
 27 28  1  0  0  0
 28 29  1  0  0  0
 29 30  1  0  0  0
 30 31  2  0  0  0
 31 32  1  0  0  0
 32 33  2  0  0  0
 33 34  1  0  0  0
 33 35  1  0  0  0
 35 36  2  0  0  0
 11 12  1  0  0  0
 12 13  2  0  0  0
 13  8  1  0  0  0
  6  1  2  0  0  0
 36 30  1  0  0  0
 25 19  1  0  0  0
 14 15  1  0  0  0
M  END
> <minimizedAffinity>
-7.48772

> <CNNscore>
0.2020479739

> <CNNaffinity>
6.9391965866

> <CNN_VS>
1.4020506144

> <CNNaffinity_variance>
0.1348704249

$$$$
[H]c1nc(OC([H])([H])C([H])([H])Oc2nc([H])c(Br)c([H])n2)c(-c2c([H])c([H])c(C([H])([H])[H])c([H])c2[H])c(N([H])S(=O)(=O)c2c([H])c([H])c(Cl)c([H])c2[H])n1


 36 39  0  0  0  0  0  0  0  0999 V2000
  -18.8933   12.1226  -18.2107 C   0  0  0  0  0  0  0  0  0  0  0  0
  -17.8189   11.5054  -18.7508 C   0  0  0  0  0  0  0  0  0  0  0  0
  -17.6027   10.1080  -18.3959 N   0  0  0  0  0  0  0  0  0  0  0  0
  -18.4011    9.4641  -17.5963 C   0  0  0  0  0  0  0  0  0  0  0  0
  -19.4686   10.0636  -17.0556 N   0  0  0  0  0  0  0  0  0  0  0  0
  -19.7126   11.2899  -17.3143 C   0  0  0  0  0  0  0  0  0  0  0  0
  -19.5410   17.4055  -20.1820 C   0  0  0  0  0  0  0  0  0  0  0  0
  -19.5740   16.0929  -19.5059 C   0  0  0  0  0  0  0  0  0  0  0  0
  -18.8364   15.7676  -18.4315 C   0  0  0  0  0  0  0  0  0  0  0  0
  -18.6918   14.5274  -17.8836 C   0  0  0  0  0  0  0  0  0  0  0  0
  -19.3802   13.4351  -18.4668 C   0  0  0  0  0  0  0  0  0  0  0  0
  -20.1776   13.7505  -19.5567 C   0  0  0  0  0  0  0  0  0  0  0  0
  -20.3288   15.0217  -20.1190 C   0  0  0  0  0  0  0  0  0  0  0  0
  -16.8781   12.1234  -19.5465 N   0  0  0  0  0  0  0  0  0  0  0  0
  -16.0413   12.5627  -19.3025 H   0  0  0  0  0  0  0  0  0  0  0  0
  -17.2960   12.1990  -21.2867 S   0  0  0  0  0  0  0  0  0  0  0  0
  -16.0929   11.3968  -21.9126 O   0  0  0  0  0  0  0  0  0  0  0  0
  -18.4858   11.3610  -21.5785 O   0  0  0  0  0  0  0  0  0  0  0  0
  -17.2927   13.7321  -21.9861 C   0  0  0  0  0  0  0  0  0  0  0  0
  -17.6803   13.9201  -23.2547 C   0  0  0  0  0  0  0  0  0  0  0  0
  -17.6547   15.0291  -23.9972 C   0  0  0  0  0  0  0  0  0  0  0  0
  -17.1439   16.1638  -23.4050 C   0  0  0  0  0  0  0  0  0  0  0  0
  -17.0404   17.6919  -24.2770 Cl  0  0  0  0  0  0  0  0  0  0  0  0
  -16.6610   16.1407  -22.0673 C   0  0  0  0  0  0  0  0  0  0  0  0
  -16.7518   14.9069  -21.3757 C   0  0  0  0  0  0  0  0  0  0  0  0
  -20.7198   12.0388  -16.7824 O   0  0  0  0  0  0  0  0  0  0  0  0
  -21.4634   12.1020  -15.7706 C   0  0  0  0  0  0  0  0  0  0  0  0
  -22.2292   11.3114  -14.8244 C   0  0  0  0  0  0  0  0  0  0  0  0
  -22.2047   10.0926  -14.4204 O   0  0  0  0  0  0  0  0  0  0  0  0
  -22.1804    8.8905  -14.0134 C   0  0  0  0  0  0  0  0  0  0  0  0
  -23.2479    8.4314  -13.1125 N   0  0  0  0  0  0  0  0  0  0  0  0
  -23.3276    7.1804  -12.6628 C   0  0  0  0  0  0  0  0  0  0  0  0
  -22.3622    6.2432  -13.0527 C   0  0  0  0  0  0  0  0  0  0  0  0
  -22.4535    4.4710  -12.3709 Br  0  0  0  0  0  0  0  0  0  0  0  0
  -21.3478    6.6463  -13.8805 C   0  0  0  0  0  0  0  0  0  0  0  0
  -21.3284    7.8564  -14.2629 N   0  0  0  0  0  0  0  0  0  0  0  0
  7  8  1  0  0  0
  8  9  2  0  0  0
  9 10  1  0  0  0
 10 11  2  0  0  0
 11  1  1  0  0  0
  1  2  1  0  0  0
  2 14  1  0  0  0
 14 16  1  0  0  0
 16 17  2  0  0  0
 16 18  2  0  0  0
 16 19  1  0  0  0
 19 20  2  0  0  0
 20 21  1  0  0  0
 21 22  2  0  0  0
 22 23  1  0  0  0
 22 24  1  0  0  0
 24 25  2  0  0  0
  2  3  2  0  0  0
  3  4  1  0  0  0
  4  5  2  0  0  0
  5  6  1  0  0  0
  6 26  1  0  0  0
 26 27  1  0  0  0
 27 28  1  0  0  0
 28 29  1  0  0  0
 29 30  1  0  0  0
 30 31  2  0  0  0
 31 32  1  0  0  0
 32 33  2  0  0  0
 33 34  1  0  0  0
 33 35  1  0  0  0
 35 36  2  0  0  0
 11 12  1  0  0  0
 12 13  2  0  0  0
 13  8  1  0  0  0
  6  1  2  0  0  0
 36 30  1  0  0  0
 25 19  1  0  0  0
 14 15  1  0  0  0
M  END
> <minimizedAffinity>
-6.70265

> <CNNscore>
0.1931850463

> <CNNaffinity>
6.5457506180

> <CNN_VS>
1.2645411491

> <CNNaffinity_variance>
0.2131877393

$$$$
[H]c1nc(N([H])[C@@]([H])(c2c([H])c([H])c(Cl)c([H])c2[H])C([H])([H])N([H])C([H])([H])[H])c2nc([H])c([H])c(C(=O)N([H])[H])c2n1


 29 31  0  0  0  0  0  0  0  0999 V2000
  -17.3210   11.8505  -19.4803 C   0  0  0  0  0  0  0  0  0  0  0  0
  -16.5706   10.7593  -19.7165 N   0  0  0  0  0  0  0  0  0  0  0  0
  -16.0584   10.5125  -20.9533 C   0  0  0  0  0  0  0  0  0  0  0  0
  -16.2827   11.3527  -21.9916 N   0  0  0  0  0  0  0  0  0  0  0  0
  -17.0185   12.4480  -21.8130 C   0  0  0  0  0  0  0  0  0  0  0  0
  -17.2473   13.3050  -22.8699 C   0  0  0  0  0  0  0  0  0  0  0  0
  -18.0175   14.4166  -22.6079 C   0  0  0  0  0  0  0  0  0  0  0  0
  -18.5248   14.6456  -21.3508 C   0  0  0  0  0  0  0  0  0  0  0  0
  -18.2810   13.7901  -20.3483 N   0  0  0  0  0  0  0  0  0  0  0  0
  -17.5422   12.6973  -20.5432 C   0  0  0  0  0  0  0  0  0  0  0  0
  -16.7142   13.0771  -24.2081 C   0  0  0  0  0  0  0  0  0  0  0  0
  -15.3504   13.3027  -24.4565 N   0  0  0  0  0  0  0  0  0  0  0  0
  -17.4534   12.6792  -25.1558 O   0  0  0  0  0  0  0  0  0  0  0  0
  -15.1064   13.7589  -25.3802 H   0  0  0  0  0  0  0  0  0  0  0  0
  -14.6318   13.0334  -23.7659 H   0  0  0  0  0  0  0  0  0  0  0  0
  -17.8466   12.0949  -18.1821 N   0  0  0  0  0  0  0  0  0  0  0  0
  -17.1644   12.3607  -17.4326 H   0  0  0  0  0  0  0  0  0  0  0  0
  -19.2584   11.9853  -17.8918 C   0  0  0  0  0  0  0  0  0  0  0  0
  -19.5305   10.7504  -17.1557 C   0  0  0  0  0  0  0  0  0  0  0  0
  -18.7588    9.6123  -17.2402 C   0  0  0  0  0  0  0  0  0  0  0  0
  -19.0593    8.4734  -16.5235 C   0  0  0  0  0  0  0  0  0  0  0  0
  -20.1564    8.4502  -15.6941 C   0  0  0  0  0  0  0  0  0  0  0  0
  -20.5425    6.9999  -14.7789 Cl  0  0  0  0  0  0  0  0  0  0  0  0
  -20.9463    9.5786  -15.5917 C   0  0  0  0  0  0  0  0  0  0  0  0
  -20.6233   10.6989  -16.3173 C   0  0  0  0  0  0  0  0  0  0  0  0
  -19.7186   13.2428  -17.1970 C   0  0  0  0  0  0  0  0  0  0  0  0
  -18.6328   15.3840  -16.9846 C   0  0  0  0  0  0  0  0  0  0  0  0
  -18.6577   14.0009  -16.6147 N   0  0  0  0  0  0  0  0  0  0  0  0
  -18.7165   13.9313  -15.5909 H   0  0  0  0  0  0  0  0  0  0  0  0
 27 28  1  0  0  0
 28 26  1  0  0  0
 26 18  1  0  0  0
 18 16  1  0  0  0
 16  1  1  0  0  0
  1  2  2  0  0  0
  2  3  1  0  0  0
  3  4  2  0  0  0
  4  5  1  0  0  0
  5  6  2  0  0  0
  6 11  1  0  0  0
 11 12  1  0  0  0
 11 13  2  0  0  0
  6  7  1  0  0  0
  7  8  2  0  0  0
  8  9  1  0  0  0
  9 10  2  0  0  0
 18 19  1  0  0  0
 19 20  2  0  0  0
 20 21  1  0  0  0
 21 22  2  0  0  0
 22 23  1  0  0  0
 22 24  1  0  0  0
 24 25  2  0  0  0
 10  1  1  0  0  0
 25 19  1  0  0  0
 10  5  1  0  0  0
 28 29  1  0  0  0
 16 17  1  0  0  0
 12 14  1  0  0  0
 12 15  1  0  0  0
M  END
> <minimizedAffinity>
-7.87790

> <CNNscore>
0.6227624416

> <CNNaffinity>
6.5623078346

> <CNN_VS>
4.0867586136

> <CNNaffinity_variance>
0.1542573273

$$$$
[H]c1nc(N([H])[C@@]([H])(c2c([H])c([H])c(Cl)c([H])c2[H])C([H])([H])N([H])C([H])([H])[H])c2nc([H])c([H])c(C(=O)N([H])[H])c2n1


 29 31  0  0  0  0  0  0  0  0999 V2000
  -17.9919   12.3102  -20.1378 C   0  0  0  0  0  0  0  0  0  0  0  0
  -17.0885   11.3735  -20.4788 N   0  0  0  0  0  0  0  0  0  0  0  0
  -16.9206   10.2518  -19.7260 C   0  0  0  0  0  0  0  0  0  0  0  0
  -17.6536   10.0347  -18.6081 N   0  0  0  0  0  0  0  0  0  0  0  0
  -18.5621   10.9296  -18.2251 C   0  0  0  0  0  0  0  0  0  0  0  0
  -19.3098   10.7094  -17.0866 C   0  0  0  0  0  0  0  0  0  0  0  0
  -20.2295   11.6797  -16.7545 C   0  0  0  0  0  0  0  0  0  0  0  0
  -20.3819   12.8050  -17.5296 C   0  0  0  0  0  0  0  0  0  0  0  0
  -19.6371   12.9842  -18.6293 N   0  0  0  0  0  0  0  0  0  0  0  0
  -18.7311   12.0786  -18.9996 C   0  0  0  0  0  0  0  0  0  0  0  0
  -19.1615    9.5201  -16.2556 C   0  0  0  0  0  0  0  0  0  0  0  0
  -19.1422    8.2525  -16.8602 N   0  0  0  0  0  0  0  0  0  0  0  0
  -19.0491    9.6021  -14.9972 O   0  0  0  0  0  0  0  0  0  0  0  0
  -19.6600    7.4792  -16.3555 H   0  0  0  0  0  0  0  0  0  0  0  0
  -18.6453    8.0952  -17.7514 H   0  0  0  0  0  0  0  0  0  0  0  0
  -18.1565   13.4750  -20.9363 N   0  0  0  0  0  0  0  0  0  0  0  0
  -19.1278   13.7001  -21.2585 H   0  0  0  0  0  0  0  0  0  0  0  0
  -17.0428   14.3226  -21.2972 C   0  0  0  0  0  0  0  0  0  0  0  0
  -16.8816   14.3568  -22.7511 C   0  0  0  0  0  0  0  0  0  0  0  0
  -15.6646   14.3296  -23.3963 C   0  0  0  0  0  0  0  0  0  0  0  0
  -15.5681   14.3634  -24.7713 C   0  0  0  0  0  0  0  0  0  0  0  0
  -16.7063   14.4260  -25.5410 C   0  0  0  0  0  0  0  0  0  0  0  0
  -16.5869   14.4691  -27.2943 Cl  0  0  0  0  0  0  0  0  0  0  0  0
  -17.9388   14.4541  -24.9182 C   0  0  0  0  0  0  0  0  0  0  0  0
  -18.0051   14.4195  -23.5470 C   0  0  0  0  0  0  0  0  0  0  0  0
  -17.2238   15.6758  -20.6554 C   0  0  0  0  0  0  0  0  0  0  0  0
  -18.2081   16.3257  -18.5536 C   0  0  0  0  0  0  0  0  0  0  0  0
  -18.4077   15.7849  -19.8643 N   0  0  0  0  0  0  0  0  0  0  0  0
  -19.0937   16.3655  -20.3630 H   0  0  0  0  0  0  0  0  0  0  0  0
 27 28  1  0  0  0
 28 26  1  0  0  0
 26 18  1  0  0  0
 18 16  1  0  0  0
 16  1  1  0  0  0
  1  2  2  0  0  0
  2  3  1  0  0  0
  3  4  2  0  0  0
  4  5  1  0  0  0
  5  6  2  0  0  0
  6 11  1  0  0  0
 11 12  1  0  0  0
 11 13  2  0  0  0
  6  7  1  0  0  0
  7  8  2  0  0  0
  8  9  1  0  0  0
  9 10  2  0  0  0
 18 19  1  0  0  0
 19 20  2  0  0  0
 20 21  1  0  0  0
 21 22  2  0  0  0
 22 23  1  0  0  0
 22 24  1  0  0  0
 24 25  2  0  0  0
 10  1  1  0  0  0
 25 19  1  0  0  0
 10  5  1  0  0  0
 28 29  1  0  0  0
 16 17  1  0  0  0
 12 14  1  0  0  0
 12 15  1  0  0  0
M  END
> <minimizedAffinity>
-7.58484

> <CNNscore>
0.5791383982

> <CNNaffinity>
6.5566534996

> <CNN_VS>
3.7972097397

> <CNNaffinity_variance>
0.1695178449

$$$$
[H]c1nc(N([H])[C@@]([H])(c2c([H])c([H])c(Cl)c([H])c2[H])C([H])([H])N([H])C([H])([H])[H])c2nc([H])c([H])c(C(=O)N([H])[H])c2n1


 29 31  0  0  0  0  0  0  0  0999 V2000
  -17.6153   13.9242  -21.1096 C   0  0  0  0  0  0  0  0  0  0  0  0
  -17.2830   12.9227  -21.9441 N   0  0  0  0  0  0  0  0  0  0  0  0
  -17.3693   11.6223  -21.5512 C   0  0  0  0  0  0  0  0  0  0  0  0
  -17.7918   11.2859  -20.3091 N   0  0  0  0  0  0  0  0  0  0  0  0
  -18.1336   12.2378  -19.4431 C   0  0  0  0  0  0  0  0  0  0  0  0
  -18.5646   11.8963  -18.1776 C   0  0  0  0  0  0  0  0  0  0  0  0
  -18.9005   12.9357  -17.3383 C   0  0  0  0  0  0  0  0  0  0  0  0
  -18.8053   14.2419  -17.7565 C   0  0  0  0  0  0  0  0  0  0  0  0
  -18.3823   14.5349  -18.9940 N   0  0  0  0  0  0  0  0  0  0  0  0
  -18.0434   13.5701  -19.8498 C   0  0  0  0  0  0  0  0  0  0  0  0
  -18.6732   10.5157  -17.7202 C   0  0  0  0  0  0  0  0  0  0  0  0
  -17.6066    9.6288  -17.9403 N   0  0  0  0  0  0  0  0  0  0  0  0
  -19.7094   10.0949  -17.1269 O   0  0  0  0  0  0  0  0  0  0  0  0
  -17.8627    8.6411  -18.2226 H   0  0  0  0  0  0  0  0  0  0  0  0
  -16.6272    9.9360  -17.8297 H   0  0  0  0  0  0  0  0  0  0  0  0
  -17.5218   15.2771  -21.5364 N   0  0  0  0  0  0  0  0  0  0  0  0
  -18.4179   15.8122  -21.6286 H   0  0  0  0  0  0  0  0  0  0  0  0
  -16.2533   15.9026  -21.8346 C   0  0  0  0  0  0  0  0  0  0  0  0
  -15.9628   15.8035  -23.2653 C   0  0  0  0  0  0  0  0  0  0  0  0
  -14.8818   15.1305  -23.7913 C   0  0  0  0  0  0  0  0  0  0  0  0
  -14.6538   15.0669  -25.1496 C   0  0  0  0  0  0  0  0  0  0  0  0
  -15.5173   15.6860  -26.0233 C   0  0  0  0  0  0  0  0  0  0  0  0
  -15.2297   15.6069  -27.7557 Cl  0  0  0  0  0  0  0  0  0  0  0  0
  -16.6088   16.3672  -25.5210 C   0  0  0  0  0  0  0  0  0  0  0  0
  -16.8112   16.4142  -24.1636 C   0  0  0  0  0  0  0  0  0  0  0  0
  -16.2573   17.3103  -21.2926 C   0  0  0  0  0  0  0  0  0  0  0  0
  -17.8766   18.4548  -19.9227 C   0  0  0  0  0  0  0  0  0  0  0  0
  -16.8773   17.4332  -20.0120 N   0  0  0  0  0  0  0  0  0  0  0  0
  -17.2987   16.5320  -19.7539 H   0  0  0  0  0  0  0  0  0  0  0  0
 27 28  1  0  0  0
 28 26  1  0  0  0
 26 18  1  0  0  0
 18 16  1  0  0  0
 16  1  1  0  0  0
  1  2  2  0  0  0
  2  3  1  0  0  0
  3  4  2  0  0  0
  4  5  1  0  0  0
  5  6  2  0  0  0
  6 11  1  0  0  0
 11 12  1  0  0  0
 11 13  2  0  0  0
  6  7  1  0  0  0
  7  8  2  0  0  0
  8  9  1  0  0  0
  9 10  2  0  0  0
 18 19  1  0  0  0
 19 20  2  0  0  0
 20 21  1  0  0  0
 21 22  2  0  0  0
 22 23  1  0  0  0
 22 24  1  0  0  0
 24 25  2  0  0  0
 10  1  1  0  0  0
 25 19  1  0  0  0
 10  5  1  0  0  0
 28 29  1  0  0  0
 16 17  1  0  0  0
 12 14  1  0  0  0
 12 15  1  0  0  0
M  END
> <minimizedAffinity>
-7.52634

> <CNNscore>
0.5213671923

> <CNNaffinity>
6.6787934303

> <CNN_VS>
3.4821038246

> <CNNaffinity_variance>
0.3238655925

$$$$
[H]c1nc(N([H])[C@@]([H])(c2c([H])c([H])c(Cl)c([H])c2[H])C([H])([H])N([H])C([H])([H])[H])c2nc([H])c([H])c(C(=O)N([H])[H])c2n1


 29 31  0  0  0  0  0  0  0  0999 V2000
  -18.9997   14.7280  -19.2832 C   0  0  0  0  0  0  0  0  0  0  0  0
  -18.9858   14.4205  -17.9736 N   0  0  0  0  0  0  0  0  0  0  0  0
  -18.3882   13.2827  -17.5249 C   0  0  0  0  0  0  0  0  0  0  0  0
  -17.7860   12.4180  -18.3757 N   0  0  0  0  0  0  0  0  0  0  0  0
  -17.7703   12.6739  -19.6823 C   0  0  0  0  0  0  0  0  0  0  0  0
  -17.1567   11.7940  -20.5500 C   0  0  0  0  0  0  0  0  0  0  0  0
  -17.1813   12.1265  -21.8866 C   0  0  0  0  0  0  0  0  0  0  0  0
  -17.7910   13.2811  -22.3173 C   0  0  0  0  0  0  0  0  0  0  0  0
  -18.3770   14.1120  -21.4441 N   0  0  0  0  0  0  0  0  0  0  0  0
  -18.3844   13.8416  -20.1384 C   0  0  0  0  0  0  0  0  0  0  0  0
  -16.5039   10.5668  -20.1084 C   0  0  0  0  0  0  0  0  0  0  0  0
  -17.1400    9.7481  -19.1608 N   0  0  0  0  0  0  0  0  0  0  0  0
  -15.3733   10.2196  -20.5598 O   0  0  0  0  0  0  0  0  0  0  0  0
  -16.5221    9.3156  -18.4179 H   0  0  0  0  0  0  0  0  0  0  0  0
  -18.1586    9.5842  -19.1971 H   0  0  0  0  0  0  0  0  0  0  0  0
  -19.6261   15.9216  -19.7352 N   0  0  0  0  0  0  0  0  0  0  0  0
  -20.6551   16.0163  -19.5622 H   0  0  0  0  0  0  0  0  0  0  0  0
  -18.8897   16.9688  -20.4062 C   0  0  0  0  0  0  0  0  0  0  0  0
  -19.7386   17.6310  -21.3971 C   0  0  0  0  0  0  0  0  0  0  0  0
  -20.7075   18.5609  -21.0893 C   0  0  0  0  0  0  0  0  0  0  0  0
  -21.4810   19.1565  -22.0628 C   0  0  0  0  0  0  0  0  0  0  0  0
  -21.2977   18.8281  -23.3859 C   0  0  0  0  0  0  0  0  0  0  0  0
  -22.2821   19.5856  -24.6297 Cl  0  0  0  0  0  0  0  0  0  0  0  0
  -20.3325   17.8985  -23.7207 C   0  0  0  0  0  0  0  0  0  0  0  0
  -19.5766   17.3210  -22.7303 C   0  0  0  0  0  0  0  0  0  0  0  0
  -18.2946   17.8936  -19.3736 C   0  0  0  0  0  0  0  0  0  0  0  0
  -16.1429   17.8011  -20.4555 C   0  0  0  0  0  0  0  0  0  0  0  0
  -17.1478   18.6096  -19.8336 N   0  0  0  0  0  0  0  0  0  0  0  0
  -17.4475   19.3359  -20.4962 H   0  0  0  0  0  0  0  0  0  0  0  0
 27 28  1  0  0  0
 28 26  1  0  0  0
 26 18  1  0  0  0
 18 16  1  0  0  0
 16  1  1  0  0  0
  1  2  2  0  0  0
  2  3  1  0  0  0
  3  4  2  0  0  0
  4  5  1  0  0  0
  5  6  2  0  0  0
  6 11  1  0  0  0
 11 12  1  0  0  0
 11 13  2  0  0  0
  6  7  1  0  0  0
  7  8  2  0  0  0
  8  9  1  0  0  0
  9 10  2  0  0  0
 18 19  1  0  0  0
 19 20  2  0  0  0
 20 21  1  0  0  0
 21 22  2  0  0  0
 22 23  1  0  0  0
 22 24  1  0  0  0
 24 25  2  0  0  0
 10  1  1  0  0  0
 25 19  1  0  0  0
 10  5  1  0  0  0
 28 29  1  0  0  0
 16 17  1  0  0  0
 12 14  1  0  0  0
 12 15  1  0  0  0
M  END
> <minimizedAffinity>
-6.90871

> <CNNscore>
0.4655374885

> <CNNaffinity>
6.4701986313

> <CNN_VS>
3.0121200085

> <CNNaffinity_variance>
0.4528295100

$$$$
[H]c1nc(N([H])[C@@]([H])(c2c([H])c([H])c(Cl)c([H])c2[H])C([H])([H])N([H])C([H])([H])[H])c2nc([H])c([H])c(C(=O)N([H])[H])c2n1


 29 31  0  0  0  0  0  0  0  0999 V2000
  -17.7831   12.3537  -19.5309 C   0  0  0  0  0  0  0  0  0  0  0  0
  -16.9028   11.5108  -20.1004 N   0  0  0  0  0  0  0  0  0  0  0  0
  -16.7875   10.2225  -19.6761 C   0  0  0  0  0  0  0  0  0  0  0  0
  -17.5516    9.7396  -18.6676 N   0  0  0  0  0  0  0  0  0  0  0  0
  -18.4394   10.5311  -18.0690 C   0  0  0  0  0  0  0  0  0  0  0  0
  -19.2187   10.0401  -17.0417 C   0  0  0  0  0  0  0  0  0  0  0  0
  -20.1141   10.9183  -16.4718 C   0  0  0  0  0  0  0  0  0  0  0  0
  -20.2132   12.2155  -16.9164 C   0  0  0  0  0  0  0  0  0  0  0  0
  -19.4390   12.6567  -17.9175 N   0  0  0  0  0  0  0  0  0  0  0  0
  -18.5544   11.8516  -18.5068 C   0  0  0  0  0  0  0  0  0  0  0  0
  -19.1269    8.6664  -16.5606 C   0  0  0  0  0  0  0  0  0  0  0  0
  -17.8669    8.1197  -16.2669 N   0  0  0  0  0  0  0  0  0  0  0  0
  -20.1591    7.9511  -16.4004 O   0  0  0  0  0  0  0  0  0  0  0  0
  -17.7101    7.1119  -16.5508 H   0  0  0  0  0  0  0  0  0  0  0  0
  -17.1388    8.6818  -15.7981 H   0  0  0  0  0  0  0  0  0  0  0  0
  -17.8927   13.6956  -19.9875 N   0  0  0  0  0  0  0  0  0  0  0  0
  -17.4679   14.4412  -19.3862 H   0  0  0  0  0  0  0  0  0  0  0  0
  -18.5585   14.0340  -21.2250 C   0  0  0  0  0  0  0  0  0  0  0  0
  -19.5170   15.1175  -21.0056 C   0  0  0  0  0  0  0  0  0  0  0  0
  -20.6361   15.0121  -20.2089 C   0  0  0  0  0  0  0  0  0  0  0  0
  -21.5084   16.0655  -20.0350 C   0  0  0  0  0  0  0  0  0  0  0  0
  -21.2746   17.2656  -20.6654 C   0  0  0  0  0  0  0  0  0  0  0  0
  -22.3846   18.6107  -20.4458 Cl  0  0  0  0  0  0  0  0  0  0  0  0
  -20.1593   17.3969  -21.4695 C   0  0  0  0  0  0  0  0  0  0  0  0
  -19.3076   16.3310  -21.6248 C   0  0  0  0  0  0  0  0  0  0  0  0
  -17.5207   14.3205  -22.2817 C   0  0  0  0  0  0  0  0  0  0  0  0
  -15.6987   13.3491  -23.5249 C   0  0  0  0  0  0  0  0  0  0  0  0
  -16.9540   13.1473  -22.8664 N   0  0  0  0  0  0  0  0  0  0  0  0
  -16.8366   12.4312  -22.1384 H   0  0  0  0  0  0  0  0  0  0  0  0
 27 28  1  0  0  0
 28 26  1  0  0  0
 26 18  1  0  0  0
 18 16  1  0  0  0
 16  1  1  0  0  0
  1  2  2  0  0  0
  2  3  1  0  0  0
  3  4  2  0  0  0
  4  5  1  0  0  0
  5  6  2  0  0  0
  6 11  1  0  0  0
 11 12  1  0  0  0
 11 13  2  0  0  0
  6  7  1  0  0  0
  7  8  2  0  0  0
  8  9  1  0  0  0
  9 10  2  0  0  0
 18 19  1  0  0  0
 19 20  2  0  0  0
 20 21  1  0  0  0
 21 22  2  0  0  0
 22 23  1  0  0  0
 22 24  1  0  0  0
 24 25  2  0  0  0
 10  1  1  0  0  0
 25 19  1  0  0  0
 10  5  1  0  0  0
 28 29  1  0  0  0
 16 17  1  0  0  0
 12 14  1  0  0  0
 12 15  1  0  0  0
M  END
> <minimizedAffinity>
-6.90630

> <CNNscore>
0.4418624341

> <CNNaffinity>
6.3656630516

> <CNN_VS>
2.8127474785

> <CNNaffinity_variance>
0.0996958688

$$$$
[H]c1nc(N([H])[C@@]([H])(c2c([H])c([H])c(Cl)c([H])c2[H])C([H])([H])N([H])C([H])([H])[H])c2nc([H])c([H])c(C(=O)N([H])[H])c2n1


 29 31  0  0  0  0  0  0  0  0999 V2000
  -17.3362   12.1372  -20.3477 C   0  0  0  0  0  0  0  0  0  0  0  0
  -16.5785   11.0937  -20.7307 N   0  0  0  0  0  0  0  0  0  0  0  0
  -16.6195    9.9109  -20.0583 C   0  0  0  0  0  0  0  0  0  0  0  0
  -17.4218    9.7379  -18.9810 N   0  0  0  0  0  0  0  0  0  0  0  0
  -18.1928   10.7382  -18.5593 C   0  0  0  0  0  0  0  0  0  0  0  0
  -19.0110   10.5629  -17.4622 C   0  0  0  0  0  0  0  0  0  0  0  0
  -19.7791   11.6428  -17.0860 C   0  0  0  0  0  0  0  0  0  0  0  0
  -19.7214   12.8282  -17.7800 C   0  0  0  0  0  0  0  0  0  0  0  0
  -18.9142   12.9608  -18.8416 N   0  0  0  0  0  0  0  0  0  0  0  0
  -18.1477   11.9496  -19.2515 C   0  0  0  0  0  0  0  0  0  0  0  0
  -19.0850    9.3113  -16.7173 C   0  0  0  0  0  0  0  0  0  0  0  0
  -17.9439    8.4987  -16.6160 N   0  0  0  0  0  0  0  0  0  0  0  0
  -20.1570    8.9372  -16.1571 O   0  0  0  0  0  0  0  0  0  0  0  0
  -18.0982    7.4541  -16.6922 H   0  0  0  0  0  0  0  0  0  0  0  0
  -17.0079    8.9106  -16.4749 H   0  0  0  0  0  0  0  0  0  0  0  0
  -17.2834   13.3651  -21.0624 N   0  0  0  0  0  0  0  0  0  0  0  0
  -16.7271   14.1434  -20.6349 H   0  0  0  0  0  0  0  0  0  0  0  0
  -17.9622   13.5487  -22.3253 C   0  0  0  0  0  0  0  0  0  0  0  0
  -18.3896   14.9402  -22.4739 C   0  0  0  0  0  0  0  0  0  0  0  0
  -18.3657   15.6348  -23.6635 C   0  0  0  0  0  0  0  0  0  0  0  0
  -18.7808   16.9468  -23.7494 C   0  0  0  0  0  0  0  0  0  0  0  0
  -19.2357   17.6009  -22.6281 C   0  0  0  0  0  0  0  0  0  0  0  0
  -19.7657   19.2735  -22.7341 Cl  0  0  0  0  0  0  0  0  0  0  0  0
  -19.2696   16.9264  -21.4233 C   0  0  0  0  0  0  0  0  0  0  0  0
  -18.8499   15.6201  -21.3669 C   0  0  0  0  0  0  0  0  0  0  0  0
  -17.0792   13.0426  -23.4387 C   0  0  0  0  0  0  0  0  0  0  0  0
  -14.9605   13.9105  -24.1916 C   0  0  0  0  0  0  0  0  0  0  0  0
  -15.6828   13.1965  -23.1822 N   0  0  0  0  0  0  0  0  0  0  0  0
  -15.5565   13.6749  -22.2813 H   0  0  0  0  0  0  0  0  0  0  0  0
 27 28  1  0  0  0
 28 26  1  0  0  0
 26 18  1  0  0  0
 18 16  1  0  0  0
 16  1  1  0  0  0
  1  2  2  0  0  0
  2  3  1  0  0  0
  3  4  2  0  0  0
  4  5  1  0  0  0
  5  6  2  0  0  0
  6 11  1  0  0  0
 11 12  1  0  0  0
 11 13  2  0  0  0
  6  7  1  0  0  0
  7  8  2  0  0  0
  8  9  1  0  0  0
  9 10  2  0  0  0
 18 19  1  0  0  0
 19 20  2  0  0  0
 20 21  1  0  0  0
 21 22  2  0  0  0
 22 23  1  0  0  0
 22 24  1  0  0  0
 24 25  2  0  0  0
 10  1  1  0  0  0
 25 19  1  0  0  0
 10  5  1  0  0  0
 28 29  1  0  0  0
 16 17  1  0  0  0
 12 14  1  0  0  0
 12 15  1  0  0  0
M  END
> <minimizedAffinity>
-7.20093

> <CNNscore>
0.4183830619

> <CNNaffinity>
6.4024896622

> <CNN_VS>
2.6786932945

> <CNNaffinity_variance>
0.1079629436

$$$$
[H]c1nc(N([H])[C@@]([H])(c2c([H])c([H])c(Cl)c([H])c2[H])C([H])([H])N([H])C([H])([H])[H])c2nc([H])c([H])c(C(=O)N([H])[H])c2n1


 29 31  0  0  0  0  0  0  0  0999 V2000
  -18.7614   14.9160  -20.7373 C   0  0  0  0  0  0  0  0  0  0  0  0
  -19.1340   15.2674  -19.4934 N   0  0  0  0  0  0  0  0  0  0  0  0
  -18.8437   14.4779  -18.4231 C   0  0  0  0  0  0  0  0  0  0  0  0
  -18.1705   13.3116  -18.5672 N   0  0  0  0  0  0  0  0  0  0  0  0
  -17.7778   12.9162  -19.7764 C   0  0  0  0  0  0  0  0  0  0  0  0
  -17.0915   11.7284  -19.9244 C   0  0  0  0  0  0  0  0  0  0  0  0
  -16.7184   11.3863  -21.2056 C   0  0  0  0  0  0  0  0  0  0  0  0
  -17.0226   12.1991  -22.2719 C   0  0  0  0  0  0  0  0  0  0  0  0
  -17.6909   13.3462  -22.0890 N   0  0  0  0  0  0  0  0  0  0  0  0
  -18.0776   13.7285  -20.8714 C   0  0  0  0  0  0  0  0  0  0  0  0
  -16.7594   10.8569  -18.8032 C   0  0  0  0  0  0  0  0  0  0  0  0
  -17.7029    9.9182  -18.3544 N   0  0  0  0  0  0  0  0  0  0  0  0
  -15.6370   10.9256  -18.2217 O   0  0  0  0  0  0  0  0  0  0  0  0
  -17.7803    9.7885  -17.3065 H   0  0  0  0  0  0  0  0  0  0  0  0
  -18.2855    9.3882  -19.0217 H   0  0  0  0  0  0  0  0  0  0  0  0
  -19.0703   15.7530  -21.8442 N   0  0  0  0  0  0  0  0  0  0  0  0
  -19.9417   15.5316  -22.3822 H   0  0  0  0  0  0  0  0  0  0  0  0
  -18.2292   16.8654  -22.2244 C   0  0  0  0  0  0  0  0  0  0  0  0
  -17.4581   16.5319  -23.4223 C   0  0  0  0  0  0  0  0  0  0  0  0
  -16.2193   17.0578  -23.7173 C   0  0  0  0  0  0  0  0  0  0  0  0
  -15.5334   16.7092  -24.8614 C   0  0  0  0  0  0  0  0  0  0  0  0
  -16.0826   15.8124  -25.7482 C   0  0  0  0  0  0  0  0  0  0  0  0
  -15.2109   15.3657  -27.2078 Cl  0  0  0  0  0  0  0  0  0  0  0  0
  -17.3235   15.2707  -25.4753 C   0  0  0  0  0  0  0  0  0  0  0  0
  -17.9840   15.6361  -24.3282 C   0  0  0  0  0  0  0  0  0  0  0  0
  -19.0784   18.1057  -22.3515 C   0  0  0  0  0  0  0  0  0  0  0  0
  -18.8280   19.2073  -20.2226 C   0  0  0  0  0  0  0  0  0  0  0  0
  -18.5699   19.2288  -21.6308 N   0  0  0  0  0  0  0  0  0  0  0  0
  -17.5555   19.2951  -21.7823 H   0  0  0  0  0  0  0  0  0  0  0  0
 27 28  1  0  0  0
 28 26  1  0  0  0
 26 18  1  0  0  0
 18 16  1  0  0  0
 16  1  1  0  0  0
  1  2  2  0  0  0
  2  3  1  0  0  0
  3  4  2  0  0  0
  4  5  1  0  0  0
  5  6  2  0  0  0
  6 11  1  0  0  0
 11 12  1  0  0  0
 11 13  2  0  0  0
  6  7  1  0  0  0
  7  8  2  0  0  0
  8  9  1  0  0  0
  9 10  2  0  0  0
 18 19  1  0  0  0
 19 20  2  0  0  0
 20 21  1  0  0  0
 21 22  2  0  0  0
 22 23  1  0  0  0
 22 24  1  0  0  0
 24 25  2  0  0  0
 10  1  1  0  0  0
 25 19  1  0  0  0
 10  5  1  0  0  0
 28 29  1  0  0  0
 16 17  1  0  0  0
 12 14  1  0  0  0
 12 15  1  0  0  0
M  END
> <minimizedAffinity>
-6.84045

> <CNNscore>
0.3550622165

> <CNNaffinity>
6.4179100990

> <CNN_VS>
2.2787573338

> <CNNaffinity_variance>
0.2750464380

$$$$
[H]c1nc(N([H])[C@@]([H])(c2c([H])c([H])c(Cl)c([H])c2[H])C([H])([H])N([H])C([H])([H])[H])c2nc([H])c([H])c(C(=O)N([H])[H])c2n1


 29 31  0  0  0  0  0  0  0  0999 V2000
  -18.3379   15.9065  -22.6179 C   0  0  0  0  0  0  0  0  0  0  0  0
  -18.3055   17.2482  -22.7095 N   0  0  0  0  0  0  0  0  0  0  0  0
  -17.6325   17.8681  -23.7174 C   0  0  0  0  0  0  0  0  0  0  0  0
  -16.9713   17.1614  -24.6649 N   0  0  0  0  0  0  0  0  0  0  0  0
  -16.9712   15.8306  -24.6219 C   0  0  0  0  0  0  0  0  0  0  0  0
  -16.2982   15.1096  -25.5869 C   0  0  0  0  0  0  0  0  0  0  0  0
  -16.3435   13.7372  -25.4759 C   0  0  0  0  0  0  0  0  0  0  0  0
  -17.0294   13.1326  -24.4492 C   0  0  0  0  0  0  0  0  0  0  0  0
  -17.6717   13.8666  -23.5299 N   0  0  0  0  0  0  0  0  0  0  0  0
  -17.6623   15.1988  -23.5866 C   0  0  0  0  0  0  0  0  0  0  0  0
  -15.5684   15.7361  -26.6831 C   0  0  0  0  0  0  0  0  0  0  0  0
  -14.3984   16.4629  -26.4083 N   0  0  0  0  0  0  0  0  0  0  0  0
  -15.9649   15.6409  -27.8816 O   0  0  0  0  0  0  0  0  0  0  0  0
  -14.2584   17.3591  -26.9542 H   0  0  0  0  0  0  0  0  0  0  0  0
  -13.7174   16.1302  -25.7073 H   0  0  0  0  0  0  0  0  0  0  0  0
  -19.0475   15.2747  -21.5603 N   0  0  0  0  0  0  0  0  0  0  0  0
  -19.9369   14.7803  -21.8100 H   0  0  0  0  0  0  0  0  0  0  0  0
  -18.5762   15.3038  -20.1941 C   0  0  0  0  0  0  0  0  0  0  0  0
  -18.4681   13.9436  -19.6657 C   0  0  0  0  0  0  0  0  0  0  0  0
  -17.5959   12.9925  -20.1480 C   0  0  0  0  0  0  0  0  0  0  0  0
  -17.5334   11.7233  -19.6130 C   0  0  0  0  0  0  0  0  0  0  0  0
  -18.3561   11.3747  -18.5672 C   0  0  0  0  0  0  0  0  0  0  0  0
  -18.2790    9.7574  -17.8826 Cl  0  0  0  0  0  0  0  0  0  0  0  0
  -19.2395   12.3104  -18.0655 C   0  0  0  0  0  0  0  0  0  0  0  0
  -19.2804   13.5669  -18.6179 C   0  0  0  0  0  0  0  0  0  0  0  0
  -17.2991   16.1040  -20.1293 C   0  0  0  0  0  0  0  0  0  0  0  0
  -18.7415   17.6167  -18.9293 C   0  0  0  0  0  0  0  0  0  0  0  0
  -17.4415   17.3650  -19.4743 N   0  0  0  0  0  0  0  0  0  0  0  0
  -16.7458   17.4338  -18.7209 H   0  0  0  0  0  0  0  0  0  0  0  0
 27 28  1  0  0  0
 28 26  1  0  0  0
 26 18  1  0  0  0
 18 16  1  0  0  0
 16  1  1  0  0  0
  1  2  2  0  0  0
  2  3  1  0  0  0
  3  4  2  0  0  0
  4  5  1  0  0  0
  5  6  2  0  0  0
  6 11  1  0  0  0
 11 12  1  0  0  0
 11 13  2  0  0  0
  6  7  1  0  0  0
  7  8  2  0  0  0
  8  9  1  0  0  0
  9 10  2  0  0  0
 18 19  1  0  0  0
 19 20  2  0  0  0
 20 21  1  0  0  0
 21 22  2  0  0  0
 22 23  1  0  0  0
 22 24  1  0  0  0
 24 25  2  0  0  0
 10  1  1  0  0  0
 25 19  1  0  0  0
 10  5  1  0  0  0
 28 29  1  0  0  0
 16 17  1  0  0  0
 12 14  1  0  0  0
 12 15  1  0  0  0
M  END
> <minimizedAffinity>
-7.65733

> <CNNscore>
0.2999182940

> <CNNaffinity>
6.4652261734

> <CNN_VS>
1.9390395880

> <CNNaffinity_variance>
0.1327186376

$$$$
[H]c1nc(N([H])[C@@]([H])(c2c([H])c([H])c(Cl)c([H])c2[H])C([H])([H])N([H])C([H])([H])[H])c2nc([H])c([H])c(C(=O)N([H])[H])c2n1


 29 31  0  0  0  0  0  0  0  0999 V2000
  -18.7928   13.6521  -20.8607 C   0  0  0  0  0  0  0  0  0  0  0  0
  -19.7637   14.5378  -20.5737 N   0  0  0  0  0  0  0  0  0  0  0  0
  -20.4933   14.4348  -19.4291 C   0  0  0  0  0  0  0  0  0  0  0  0
  -20.2715   13.4405  -18.5367 N   0  0  0  0  0  0  0  0  0  0  0  0
  -19.3221   12.5368  -18.7713 C   0  0  0  0  0  0  0  0  0  0  0  0
  -19.0949   11.5236  -17.8627 C   0  0  0  0  0  0  0  0  0  0  0  0
  -18.0965   10.6271  -18.1743 C   0  0  0  0  0  0  0  0  0  0  0  0
  -17.3724   10.7505  -19.3365 C   0  0  0  0  0  0  0  0  0  0  0  0
  -17.6219   11.7486  -20.1954 N   0  0  0  0  0  0  0  0  0  0  0  0
  -18.5763   12.6458  -19.9463 C   0  0  0  0  0  0  0  0  0  0  0  0
  -19.8527   11.3809  -16.6248 C   0  0  0  0  0  0  0  0  0  0  0  0
  -19.8157   12.4096  -15.6692 N   0  0  0  0  0  0  0  0  0  0  0  0
  -20.5462   10.3483  -16.3890 O   0  0  0  0  0  0  0  0  0  0  0  0
  -19.7676   12.1118  -14.6545 H   0  0  0  0  0  0  0  0  0  0  0  0
  -19.8347   13.4017  -15.9541 H   0  0  0  0  0  0  0  0  0  0  0  0
  -18.0383   13.7752  -22.0595 N   0  0  0  0  0  0  0  0  0  0  0  0
  -18.4379   13.3361  -22.9228 H   0  0  0  0  0  0  0  0  0  0  0  0
  -16.7729   14.4723  -22.1025 C   0  0  0  0  0  0  0  0  0  0  0  0
  -16.3913   14.7459  -23.4883 C   0  0  0  0  0  0  0  0  0  0  0  0
  -15.1964   15.3199  -23.8637 C   0  0  0  0  0  0  0  0  0  0  0  0
  -14.8853   15.5560  -25.1860 C   0  0  0  0  0  0  0  0  0  0  0  0
  -15.7783   15.2167  -26.1756 C   0  0  0  0  0  0  0  0  0  0  0  0
  -15.3848   15.5161  -27.8625 Cl  0  0  0  0  0  0  0  0  0  0  0  0
  -16.9833   14.6395  -25.8253 C   0  0  0  0  0  0  0  0  0  0  0  0
  -17.2669   14.4161  -24.5004 C   0  0  0  0  0  0  0  0  0  0  0  0
  -16.8524   15.6947  -21.2221 C   0  0  0  0  0  0  0  0  0  0  0  0
  -17.4252   18.0358  -21.2078 C   0  0  0  0  0  0  0  0  0  0  0  0
  -17.6735   16.7354  -21.7533 N   0  0  0  0  0  0  0  0  0  0  0  0
  -17.5512   16.7735  -22.7732 H   0  0  0  0  0  0  0  0  0  0  0  0
 27 28  1  0  0  0
 28 26  1  0  0  0
 26 18  1  0  0  0
 18 16  1  0  0  0
 16  1  1  0  0  0
  1  2  2  0  0  0
  2  3  1  0  0  0
  3  4  2  0  0  0
  4  5  1  0  0  0
  5  6  2  0  0  0
  6 11  1  0  0  0
 11 12  1  0  0  0
 11 13  2  0  0  0
  6  7  1  0  0  0
  7  8  2  0  0  0
  8  9  1  0  0  0
  9 10  2  0  0  0
 18 19  1  0  0  0
 19 20  2  0  0  0
 20 21  1  0  0  0
 21 22  2  0  0  0
 22 23  1  0  0  0
 22 24  1  0  0  0
 24 25  2  0  0  0
 10  1  1  0  0  0
 25 19  1  0  0  0
 10  5  1  0  0  0
 28 29  1  0  0  0
 16 17  1  0  0  0
 12 14  1  0  0  0
 12 15  1  0  0  0
M  END
> <minimizedAffinity>
-7.28780

> <CNNscore>
0.2464630157

> <CNNaffinity>
6.2728805542

> <CNN_VS>
1.5460330248

> <CNNaffinity_variance>
0.1729472429

$$$$
[H]Oc1c(OC([H])([H])[H])c(OC([H])([H])[H])c2c3c1-c1c([H])c([H])c([H])c([H])c1C([H])([H])[C@@]3([H])N([H])C([H])([H])C2([H])[H]


 24 27  0  0  0  0  0  0  0  0999 V2000
  -17.1969   12.0727  -21.4089 C   0  0  0  0  0  0  0  0  0  0  0  0
  -16.4478   12.6793  -22.4078 C   0  0  0  0  0  0  0  0  0  0  0  0
  -15.5735   11.8551  -23.0640 O   0  0  0  0  0  0  0  0  0  0  0  0
  -16.6431   14.0206  -22.6474 C   0  0  0  0  0  0  0  0  0  0  0  0
  -17.5518   14.7631  -21.9268 C   0  0  0  0  0  0  0  0  0  0  0  0
  -18.2832   14.1175  -20.9351 C   0  0  0  0  0  0  0  0  0  0  0  0
  -18.1212   12.7860  -20.6643 C   0  0  0  0  0  0  0  0  0  0  0  0
  -19.2508   14.9213  -20.1681 C   0  0  0  0  0  0  0  0  0  0  0  0
  -19.8822   16.0213  -20.9303 C   0  0  0  0  0  0  0  0  0  0  0  0
  -19.1197   16.6253  -21.9391 N   0  0  0  0  0  0  0  0  0  0  0  0
  -17.7610   16.1814  -22.0989 C   0  0  0  0  0  0  0  0  0  0  0  0
  -17.2320   16.7643  -23.3457 C   0  0  0  0  0  0  0  0  0  0  0  0
  -16.1683   16.0090  -24.0133 C   0  0  0  0  0  0  0  0  0  0  0  0
  -15.4158   16.6520  -25.0131 C   0  0  0  0  0  0  0  0  0  0  0  0
  -14.4476   16.0054  -25.7189 C   0  0  0  0  0  0  0  0  0  0  0  0
  -14.2286   14.6927  -25.4189 C   0  0  0  0  0  0  0  0  0  0  0  0
  -14.9407   13.9926  -24.4351 C   0  0  0  0  0  0  0  0  0  0  0  0
  -15.9075   14.6643  -23.7391 C   0  0  0  0  0  0  0  0  0  0  0  0
  -15.4412   10.8833  -22.8820 H   0  0  0  0  0  0  0  0  0  0  0  0
  -19.0824   17.6794  -21.8554 H   0  0  0  0  0  0  0  0  0  0  0  0
  -16.0557   10.1878  -20.2937 C   0  0  0  0  0  0  0  0  0  0  0  0
  -17.0197   10.7287  -21.1489 O   0  0  0  0  0  0  0  0  0  0  0  0
  -18.8724   12.1830  -19.6658 O   0  0  0  0  0  0  0  0  0  0  0  0
  -18.3912   12.1511  -18.3421 C   0  0  0  0  0  0  0  0  0  0  0  0
 21 22  1  0  0  0
 22  1  1  0  0  0
  1  2  2  0  0  0
  2  3  1  0  0  0
  2  4  1  0  0  0
  4  5  2  0  0  0
  5  6  1  0  0  0
  6  7  2  0  0  0
  7 23  1  0  0  0
 23 24  1  0  0  0
  6  8  1  0  0  0
  8  9  1  0  0  0
  9 10  1  0  0  0
 10 11  1  0  0  0
 11 12  1  0  0  0
 12 13  1  0  0  0
 13 14  2  0  0  0
 14 15  1  0  0  0
 15 16  2  0  0  0
 16 17  1  0  0  0
 17 18  2  0  0  0
  7  1  1  0  0  0
 18 13  1  0  0  0
 18  4  1  0  0  0
 11  5  1  0  0  0
  3 19  1  0  0  0
 10 20  1  0  0  0
M  END
> <minimizedAffinity>
-8.16158

> <CNNscore>
0.6924090981

> <CNNaffinity>
6.1160535812

> <CNN_VS>
4.2348113060

> <CNNaffinity_variance>
0.3828380108

$$$$
[H]Oc1c(OC([H])([H])[H])c(OC([H])([H])[H])c2c3c1-c1c([H])c([H])c([H])c([H])c1C([H])([H])[C@@]3([H])N([H])C([H])([H])C2([H])[H]


 24 27  0  0  0  0  0  0  0  0999 V2000
  -16.5977   11.4956  -21.3926 C   0  0  0  0  0  0  0  0  0  0  0  0
  -17.0550   10.8476  -20.2533 C   0  0  0  0  0  0  0  0  0  0  0  0
  -16.4448    9.6539  -19.9760 O   0  0  0  0  0  0  0  0  0  0  0  0
  -18.0548   11.4446  -19.5193 C   0  0  0  0  0  0  0  0  0  0  0  0
  -18.6040   12.6528  -19.8865 C   0  0  0  0  0  0  0  0  0  0  0  0
  -18.1173   13.2700  -21.0343 C   0  0  0  0  0  0  0  0  0  0  0  0
  -17.1243   12.7122  -21.7928 C   0  0  0  0  0  0  0  0  0  0  0  0
  -18.7133   14.5609  -21.4201 C   0  0  0  0  0  0  0  0  0  0  0  0
  -19.1622   15.3980  -20.2854 C   0  0  0  0  0  0  0  0  0  0  0  0
  -19.6189   14.7352  -19.1382 N   0  0  0  0  0  0  0  0  0  0  0  0
  -19.6882   13.2994  -19.1855 C   0  0  0  0  0  0  0  0  0  0  0  0
  -19.9574   12.8083  -17.8215 C   0  0  0  0  0  0  0  0  0  0  0  0
  -19.4733   11.4603  -17.5112 C   0  0  0  0  0  0  0  0  0  0  0  0
  -19.9628   10.8214  -16.3574 C   0  0  0  0  0  0  0  0  0  0  0  0
  -19.5236    9.5928  -15.9687 C   0  0  0  0  0  0  0  0  0  0  0  0
  -18.5781    8.9931  -16.7481 C   0  0  0  0  0  0  0  0  0  0  0  0
  -18.0490    9.5727  -17.9097 C   0  0  0  0  0  0  0  0  0  0  0  0
  -18.5069   10.8070  -18.2798 C   0  0  0  0  0  0  0  0  0  0  0  0
  -15.7200    9.2312  -20.5154 H   0  0  0  0  0  0  0  0  0  0  0  0
  -20.5695   15.0704  -18.8167 H   0  0  0  0  0  0  0  0  0  0  0  0
  -14.2792   11.3777  -22.2348 C   0  0  0  0  0  0  0  0  0  0  0  0
  -15.5960   10.9178  -22.1461 O   0  0  0  0  0  0  0  0  0  0  0  0
  -16.6692   13.3632  -22.9303 O   0  0  0  0  0  0  0  0  0  0  0  0
  -17.1344   12.9722  -24.2013 C   0  0  0  0  0  0  0  0  0  0  0  0
 21 22  1  0  0  0
 22  1  1  0  0  0
  1  2  2  0  0  0
  2  3  1  0  0  0
  2  4  1  0  0  0
  4  5  2  0  0  0
  5  6  1  0  0  0
  6  7  2  0  0  0
  7 23  1  0  0  0
 23 24  1  0  0  0
  6  8  1  0  0  0
  8  9  1  0  0  0
  9 10  1  0  0  0
 10 11  1  0  0  0
 11 12  1  0  0  0
 12 13  1  0  0  0
 13 14  2  0  0  0
 14 15  1  0  0  0
 15 16  2  0  0  0
 16 17  1  0  0  0
 17 18  2  0  0  0
  7  1  1  0  0  0
 18 13  1  0  0  0
 18  4  1  0  0  0
 11  5  1  0  0  0
  3 19  1  0  0  0
 10 20  1  0  0  0
M  END
> <minimizedAffinity>
-7.63522

> <CNNscore>
0.6366801262

> <CNNaffinity>
6.0368990898

> <CNN_VS>
3.8435735703

> <CNNaffinity_variance>
0.3472140431

$$$$
[H]Oc1c(OC([H])([H])[H])c(OC([H])([H])[H])c2c3c1-c1c([H])c([H])c([H])c([H])c1C([H])([H])[C@@]3([H])N([H])C([H])([H])C2([H])[H]


 24 27  0  0  0  0  0  0  0  0999 V2000
  -17.1702   11.5149  -19.6464 C   0  0  0  0  0  0  0  0  0  0  0  0
  -17.8720   10.8936  -18.6224 C   0  0  0  0  0  0  0  0  0  0  0  0
  -17.3706    9.6845  -18.2209 O   0  0  0  0  0  0  0  0  0  0  0  0
  -18.9811   11.5289  -18.1116 C   0  0  0  0  0  0  0  0  0  0  0  0
  -19.4039   12.7495  -18.5886 C   0  0  0  0  0  0  0  0  0  0  0  0
  -18.6726   13.3391  -19.6146 C   0  0  0  0  0  0  0  0  0  0  0  0
  -17.5639   12.7428  -20.1510 C   0  0  0  0  0  0  0  0  0  0  0  0
  -19.1348   14.6436  -20.1198 C   0  0  0  0  0  0  0  0  0  0  0  0
  -19.7793   15.5062  -19.1048 C   0  0  0  0  0  0  0  0  0  0  0  0
  -20.4826   14.8701  -18.0729 N   0  0  0  0  0  0  0  0  0  0  0  0
  -20.5872   13.4367  -18.1275 C   0  0  0  0  0  0  0  0  0  0  0  0
  -21.1460   12.9687  -16.8458 C   0  0  0  0  0  0  0  0  0  0  0  0
  -20.7797   11.6098  -16.4373 C   0  0  0  0  0  0  0  0  0  0  0  0
  -21.5157   10.9987  -15.4058 C   0  0  0  0  0  0  0  0  0  0  0  0
  -21.2055    9.7612  -14.9302 C   0  0  0  0  0  0  0  0  0  0  0  0
  -20.1403    9.1244  -15.4967 C   0  0  0  0  0  0  0  0  0  0  0  0
  -19.3659    9.6750  -16.5273 C   0  0  0  0  0  0  0  0  0  0  0  0
  -19.6980   10.9188  -16.9886 C   0  0  0  0  0  0  0  0  0  0  0  0
  -16.5647    9.2340  -18.5984 H   0  0  0  0  0  0  0  0  0  0  0  0
  -21.4676   15.2379  -17.9547 H   0  0  0  0  0  0  0  0  0  0  0  0
  -16.0633    9.9363  -21.1896 C   0  0  0  0  0  0  0  0  0  0  0  0
  -16.0546   10.8984  -20.1760 O   0  0  0  0  0  0  0  0  0  0  0  0
  -16.8645   13.3674  -21.1737 O   0  0  0  0  0  0  0  0  0  0  0  0
  -17.1892   13.0983  -22.5179 C   0  0  0  0  0  0  0  0  0  0  0  0
 21 22  1  0  0  0
 22  1  1  0  0  0
  1  2  2  0  0  0
  2  3  1  0  0  0
  2  4  1  0  0  0
  4  5  2  0  0  0
  5  6  1  0  0  0
  6  7  2  0  0  0
  7 23  1  0  0  0
 23 24  1  0  0  0
  6  8  1  0  0  0
  8  9  1  0  0  0
  9 10  1  0  0  0
 10 11  1  0  0  0
 11 12  1  0  0  0
 12 13  1  0  0  0
 13 14  2  0  0  0
 14 15  1  0  0  0
 15 16  2  0  0  0
 16 17  1  0  0  0
 17 18  2  0  0  0
  7  1  1  0  0  0
 18 13  1  0  0  0
 18  4  1  0  0  0
 11  5  1  0  0  0
  3 19  1  0  0  0
 10 20  1  0  0  0
M  END
> <minimizedAffinity>
-7.24328

> <CNNscore>
0.6152249575

> <CNNaffinity>
5.6566224098

> <CNN_VS>
3.4800953865

> <CNNaffinity_variance>
0.1878909171

$$$$
[H]Oc1c(OC([H])([H])[H])c(OC([H])([H])[H])c2c3c1-c1c([H])c([H])c([H])c([H])c1C([H])([H])[C@@]3([H])N([H])C([H])([H])C2([H])[H]


 24 27  0  0  0  0  0  0  0  0999 V2000
  -17.6701   12.4102  -19.0740 C   0  0  0  0  0  0  0  0  0  0  0  0
  -17.4932   12.5161  -20.4468 C   0  0  0  0  0  0  0  0  0  0  0  0
  -16.9657   11.4086  -21.0547 O   0  0  0  0  0  0  0  0  0  0  0  0
  -17.8543   13.6928  -21.0630 C   0  0  0  0  0  0  0  0  0  0  0  0
  -18.3783   14.7523  -20.3567 C   0  0  0  0  0  0  0  0  0  0  0  0
  -18.5404   14.6057  -18.9829 C   0  0  0  0  0  0  0  0  0  0  0  0
  -18.1954   13.4534  -18.3303 C   0  0  0  0  0  0  0  0  0  0  0  0
  -19.0994   15.7459  -18.2360 C   0  0  0  0  0  0  0  0  0  0  0  0
  -20.0714   16.5645  -18.9942 C   0  0  0  0  0  0  0  0  0  0  0  0
  -19.8869   16.6628  -20.3799 N   0  0  0  0  0  0  0  0  0  0  0  0
  -18.7256   16.0263  -20.9409 C   0  0  0  0  0  0  0  0  0  0  0  0
  -18.8556   16.0479  -22.4095 C   0  0  0  0  0  0  0  0  0  0  0  0
  -18.1688   14.9764  -23.1362 C   0  0  0  0  0  0  0  0  0  0  0  0
  -17.9916   15.1152  -24.5249 C   0  0  0  0  0  0  0  0  0  0  0  0
  -17.4134   14.1422  -25.2817 C   0  0  0  0  0  0  0  0  0  0  0  0
  -17.0056   13.0108  -24.6376 C   0  0  0  0  0  0  0  0  0  0  0  0
  -17.1509   12.8086  -23.2581 C   0  0  0  0  0  0  0  0  0  0  0  0
  -17.7337   13.8009  -22.5194 C   0  0  0  0  0  0  0  0  0  0  0  0
  -16.7085   10.5602  -20.5973 H   0  0  0  0  0  0  0  0  0  0  0  0
  -19.8775   17.6624  -20.7269 H   0  0  0  0  0  0  0  0  0  0  0  0
  -18.1683   10.1619  -18.1822 C   0  0  0  0  0  0  0  0  0  0  0  0
  -17.3158   11.2407  -18.4323 O   0  0  0  0  0  0  0  0  0  0  0  0
  -18.3745   13.3510  -16.9583 O   0  0  0  0  0  0  0  0  0  0  0  0
  -19.6041   12.9011  -16.4383 C   0  0  0  0  0  0  0  0  0  0  0  0
 21 22  1  0  0  0
 22  1  1  0  0  0
  1  2  2  0  0  0
  2  3  1  0  0  0
  2  4  1  0  0  0
  4  5  2  0  0  0
  5  6  1  0  0  0
  6  7  2  0  0  0
  7 23  1  0  0  0
 23 24  1  0  0  0
  6  8  1  0  0  0
  8  9  1  0  0  0
  9 10  1  0  0  0
 10 11  1  0  0  0
 11 12  1  0  0  0
 12 13  1  0  0  0
 13 14  2  0  0  0
 14 15  1  0  0  0
 15 16  2  0  0  0
 16 17  1  0  0  0
 17 18  2  0  0  0
  7  1  1  0  0  0
 18 13  1  0  0  0
 18  4  1  0  0  0
 11  5  1  0  0  0
  3 19  1  0  0  0
 10 20  1  0  0  0
M  END
> <minimizedAffinity>
-7.81488

> <CNNscore>
0.6005653739

> <CNNaffinity>
5.9260892868

> <CNN_VS>
3.5590040684

> <CNNaffinity_variance>
0.6638836265

$$$$
[H]Oc1c(OC([H])([H])[H])c(OC([H])([H])[H])c2c3c1-c1c([H])c([H])c([H])c([H])c1C([H])([H])[C@@]3([H])N([H])C([H])([H])C2([H])[H]


 24 27  0  0  0  0  0  0  0  0999 V2000
  -16.7015   13.0106  -22.6374 C   0  0  0  0  0  0  0  0  0  0  0  0
  -16.9795   12.1870  -21.5551 C   0  0  0  0  0  0  0  0  0  0  0  0
  -16.2361   11.0393  -21.4886 O   0  0  0  0  0  0  0  0  0  0  0  0
  -17.9517   12.5839  -20.6651 C   0  0  0  0  0  0  0  0  0  0  0  0
  -18.6451   13.7630  -20.8240 C   0  0  0  0  0  0  0  0  0  0  0  0
  -18.3359   14.5603  -21.9212 C   0  0  0  0  0  0  0  0  0  0  0  0
  -17.3765   14.2042  -22.8297 C   0  0  0  0  0  0  0  0  0  0  0  0
  -19.0853   15.8183  -22.0835 C   0  0  0  0  0  0  0  0  0  0  0  0
  -19.4938   16.4623  -20.8154 C   0  0  0  0  0  0  0  0  0  0  0  0
  -19.7691   15.6232  -19.7273 N   0  0  0  0  0  0  0  0  0  0  0  0
  -19.7088   14.2040  -19.9527 C   0  0  0  0  0  0  0  0  0  0  0  0
  -19.7926   13.5282  -18.6449 C   0  0  0  0  0  0  0  0  0  0  0  0
  -19.1564   12.2111  -18.5545 C   0  0  0  0  0  0  0  0  0  0  0  0
  -19.4658   11.3913  -17.4539 C   0  0  0  0  0  0  0  0  0  0  0  0
  -18.8772   10.1780  -17.2668 C   0  0  0  0  0  0  0  0  0  0  0  0
  -17.9632    9.7781  -18.1973 C   0  0  0  0  0  0  0  0  0  0  0  0
  -17.6098   10.5444  -19.3166 C   0  0  0  0  0  0  0  0  0  0  0  0
  -18.2155   11.7591  -19.4830 C   0  0  0  0  0  0  0  0  0  0  0  0
  -15.5329   10.7625  -22.1397 H   0  0  0  0  0  0  0  0  0  0  0  0
  -20.7097   15.8161  -19.2828 H   0  0  0  0  0  0  0  0  0  0  0  0
  -14.5313   13.3132  -23.7765 C   0  0  0  0  0  0  0  0  0  0  0  0
  -15.7311   12.6351  -23.5444 O   0  0  0  0  0  0  0  0  0  0  0  0
  -17.1008   15.0304  -23.9096 O   0  0  0  0  0  0  0  0  0  0  0  0
  -17.6395   14.7379  -25.1781 C   0  0  0  0  0  0  0  0  0  0  0  0
 21 22  1  0  0  0
 22  1  1  0  0  0
  1  2  2  0  0  0
  2  3  1  0  0  0
  2  4  1  0  0  0
  4  5  2  0  0  0
  5  6  1  0  0  0
  6  7  2  0  0  0
  7 23  1  0  0  0
 23 24  1  0  0  0
  6  8  1  0  0  0
  8  9  1  0  0  0
  9 10  1  0  0  0
 10 11  1  0  0  0
 11 12  1  0  0  0
 12 13  1  0  0  0
 13 14  2  0  0  0
 14 15  1  0  0  0
 15 16  2  0  0  0
 16 17  1  0  0  0
 17 18  2  0  0  0
  7  1  1  0  0  0
 18 13  1  0  0  0
 18  4  1  0  0  0
 11  5  1  0  0  0
  3 19  1  0  0  0
 10 20  1  0  0  0
M  END
> <minimizedAffinity>
-7.96248

> <CNNscore>
0.5832215548

> <CNNaffinity>
5.9276123047

> <CNN_VS>
3.4571113586

> <CNNaffinity_variance>
0.3046931326

$$$$
[H]Oc1c(OC([H])([H])[H])c(OC([H])([H])[H])c2c3c1-c1c([H])c([H])c([H])c([H])c1C([H])([H])[C@@]3([H])N([H])C([H])([H])C2([H])[H]


 24 27  0  0  0  0  0  0  0  0999 V2000
  -17.6768   13.2724  -21.3387 C   0  0  0  0  0  0  0  0  0  0  0  0
  -17.8051   12.2808  -20.3757 C   0  0  0  0  0  0  0  0  0  0  0  0
  -16.9126   11.2479  -20.4786 O   0  0  0  0  0  0  0  0  0  0  0  0
  -18.7912   12.4174  -19.4250 C   0  0  0  0  0  0  0  0  0  0  0  0
  -19.6416   13.5004  -19.4100 C   0  0  0  0  0  0  0  0  0  0  0  0
  -19.4793   14.4724  -20.3918 C   0  0  0  0  0  0  0  0  0  0  0  0
  -18.5120   14.3767  -21.3550 C   0  0  0  0  0  0  0  0  0  0  0  0
  -20.3958   15.6257  -20.3685 C   0  0  0  0  0  0  0  0  0  0  0  0
  -20.8441   16.0316  -19.0180 C   0  0  0  0  0  0  0  0  0  0  0  0
  -20.9675   15.0244  -18.0513 N   0  0  0  0  0  0  0  0  0  0  0  0
  -20.7248   13.6701  -18.4704 C   0  0  0  0  0  0  0  0  0  0  0  0
  -20.6731   12.8202  -17.2667 C   0  0  0  0  0  0  0  0  0  0  0  0
  -19.8631   11.6030  -17.3677 C   0  0  0  0  0  0  0  0  0  0  0  0
  -20.0225   10.6084  -16.3855 C   0  0  0  0  0  0  0  0  0  0  0  0
  -19.2704    9.4736  -16.3758 C   0  0  0  0  0  0  0  0  0  0  0  0
  -18.3428    9.3316  -17.3660 C   0  0  0  0  0  0  0  0  0  0  0  0
  -18.1334   10.2822  -18.3747 C   0  0  0  0  0  0  0  0  0  0  0  0
  -18.9020   11.4133  -18.3635 C   0  0  0  0  0  0  0  0  0  0  0  0
  -16.2010   11.1601  -21.1721 H   0  0  0  0  0  0  0  0  0  0  0  0
  -21.9099   15.0248  -17.5704 H   0  0  0  0  0  0  0  0  0  0  0  0
  -16.9107   12.8298  -23.6443 C   0  0  0  0  0  0  0  0  0  0  0  0
  -16.6959   13.1589  -22.3031 O   0  0  0  0  0  0  0  0  0  0  0  0
  -18.3862   15.3701  -22.3153 O   0  0  0  0  0  0  0  0  0  0  0  0
  -17.4336   16.3949  -22.1504 C   0  0  0  0  0  0  0  0  0  0  0  0
 21 22  1  0  0  0
 22  1  1  0  0  0
  1  2  2  0  0  0
  2  3  1  0  0  0
  2  4  1  0  0  0
  4  5  2  0  0  0
  5  6  1  0  0  0
  6  7  2  0  0  0
  7 23  1  0  0  0
 23 24  1  0  0  0
  6  8  1  0  0  0
  8  9  1  0  0  0
  9 10  1  0  0  0
 10 11  1  0  0  0
 11 12  1  0  0  0
 12 13  1  0  0  0
 13 14  2  0  0  0
 14 15  1  0  0  0
 15 16  2  0  0  0
 16 17  1  0  0  0
 17 18  2  0  0  0
  7  1  1  0  0  0
 18 13  1  0  0  0
 18  4  1  0  0  0
 11  5  1  0  0  0
  3 19  1  0  0  0
 10 20  1  0  0  0
M  END
> <minimizedAffinity>
-7.68449

> <CNNscore>
0.5705249310

> <CNNaffinity>
5.6105489731

> <CNN_VS>
3.2009580135

> <CNNaffinity_variance>
0.2109899968

$$$$
[H]Oc1c(OC([H])([H])[H])c(OC([H])([H])[H])c2c3c1-c1c([H])c([H])c([H])c([H])c1C([H])([H])[C@@]3([H])N([H])C([H])([H])C2([H])[H]


 24 27  0  0  0  0  0  0  0  0999 V2000
  -16.4969   14.1427  -23.9580 C   0  0  0  0  0  0  0  0  0  0  0  0
  -16.4837   13.1198  -23.0196 C   0  0  0  0  0  0  0  0  0  0  0  0
  -15.5873   12.1144  -23.2645 O   0  0  0  0  0  0  0  0  0  0  0  0
  -17.3486   13.2017  -21.9519 C   0  0  0  0  0  0  0  0  0  0  0  0
  -18.2150   14.2608  -21.7978 C   0  0  0  0  0  0  0  0  0  0  0  0
  -18.1965   15.2657  -22.7596 C   0  0  0  0  0  0  0  0  0  0  0  0
  -17.3527   15.2244  -23.8361 C   0  0  0  0  0  0  0  0  0  0  0  0
  -19.1291   16.3931  -22.5869 C   0  0  0  0  0  0  0  0  0  0  0  0
  -19.4175   16.7465  -21.1792 C   0  0  0  0  0  0  0  0  0  0  0  0
  -19.3985   15.7079  -20.2384 N   0  0  0  0  0  0  0  0  0  0  0  0
  -19.1785   14.3736  -20.7282 C   0  0  0  0  0  0  0  0  0  0  0  0
  -18.9602   13.4898  -19.5683 C   0  0  0  0  0  0  0  0  0  0  0  0
  -18.1414   12.2981  -19.8072 C   0  0  0  0  0  0  0  0  0  0  0  0
  -18.1565   11.2708  -18.8462 C   0  0  0  0  0  0  0  0  0  0  0  0
  -17.3833   10.1565  -18.9654 C   0  0  0  0  0  0  0  0  0  0  0  0
  -16.5812   10.0688  -20.0655 C   0  0  0  0  0  0  0  0  0  0  0  0
  -16.5187   11.0543  -21.0604 C   0  0  0  0  0  0  0  0  0  0  0  0
  -17.3056   12.1637  -20.9185 C   0  0  0  0  0  0  0  0  0  0  0  0
  -14.9643   12.0663  -24.0421 H   0  0  0  0  0  0  0  0  0  0  0  0
  -20.2746   15.6689  -19.6465 H   0  0  0  0  0  0  0  0  0  0  0  0
  -14.3111   14.5186  -25.0441 C   0  0  0  0  0  0  0  0  0  0  0  0
  -15.6394   14.0841  -25.0380 O   0  0  0  0  0  0  0  0  0  0  0  0
  -17.3681   16.2491  -24.7714 O   0  0  0  0  0  0  0  0  0  0  0  0
  -16.5281   17.3680  -24.6068 C   0  0  0  0  0  0  0  0  0  0  0  0
 21 22  1  0  0  0
 22  1  1  0  0  0
  1  2  2  0  0  0
  2  3  1  0  0  0
  2  4  1  0  0  0
  4  5  2  0  0  0
  5  6  1  0  0  0
  6  7  2  0  0  0
  7 23  1  0  0  0
 23 24  1  0  0  0
  6  8  1  0  0  0
  8  9  1  0  0  0
  9 10  1  0  0  0
 10 11  1  0  0  0
 11 12  1  0  0  0
 12 13  1  0  0  0
 13 14  2  0  0  0
 14 15  1  0  0  0
 15 16  2  0  0  0
 16 17  1  0  0  0
 17 18  2  0  0  0
  7  1  1  0  0  0
 18 13  1  0  0  0
 18  4  1  0  0  0
 11  5  1  0  0  0
  3 19  1  0  0  0
 10 20  1  0  0  0
M  END
> <minimizedAffinity>
-8.92675

> <CNNscore>
0.5079571009

> <CNNaffinity>
6.0075592995

> <CNN_VS>
3.0515823364

> <CNNaffinity_variance>
0.2057953328

$$$$
[H]Oc1c(OC([H])([H])[H])c(OC([H])([H])[H])c2c3c1-c1c([H])c([H])c([H])c([H])c1C([H])([H])[C@@]3([H])N([H])C([H])([H])C2([H])[H]


 24 27  0  0  0  0  0  0  0  0999 V2000
  -18.0224   14.0852  -20.0077 C   0  0  0  0  0  0  0  0  0  0  0  0
  -18.1070   12.8347  -19.4111 C   0  0  0  0  0  0  0  0  0  0  0  0
  -17.2541   11.8890  -19.9137 O   0  0  0  0  0  0  0  0  0  0  0  0
  -19.0156   12.6572  -18.3924 C   0  0  0  0  0  0  0  0  0  0  0  0
  -19.8315   13.6786  -17.9597 C   0  0  0  0  0  0  0  0  0  0  0  0
  -19.7150   14.9168  -18.5831 C   0  0  0  0  0  0  0  0  0  0  0  0
  -18.8249   15.1370  -19.5989 C   0  0  0  0  0  0  0  0  0  0  0  0
  -20.5941   16.0022  -18.1147 C   0  0  0  0  0  0  0  0  0  0  0  0
  -20.9294   15.9479  -16.6744 C   0  0  0  0  0  0  0  0  0  0  0  0
  -21.0092   14.6813  -16.0798 N   0  0  0  0  0  0  0  0  0  0  0  0
  -20.8368   13.5364  -16.9331 C   0  0  0  0  0  0  0  0  0  0  0  0
  -20.7200   12.3409  -16.0779 C   0  0  0  0  0  0  0  0  0  0  0  0
  -19.9546   11.2207  -16.6319 C   0  0  0  0  0  0  0  0  0  0  0  0
  -20.0688    9.9611  -16.0156 C   0  0  0  0  0  0  0  0  0  0  0  0
  -19.3505    8.8829  -16.4339 C   0  0  0  0  0  0  0  0  0  0  0  0
  -18.5033    9.0682  -17.4870 C   0  0  0  0  0  0  0  0  0  0  0  0
  -18.3425   10.2947  -18.1465 C   0  0  0  0  0  0  0  0  0  0  0  0
  -19.0757   11.3627  -17.7084 C   0  0  0  0  0  0  0  0  0  0  0  0
  -16.5987   12.0298  -20.6524 H   0  0  0  0  0  0  0  0  0  0  0  0
  -21.9130   14.5278  -15.5516 H   0  0  0  0  0  0  0  0  0  0  0  0
  -17.4040   14.1905  -22.3963 C   0  0  0  0  0  0  0  0  0  0  0  0
  -17.1193   14.2890  -21.0315 O   0  0  0  0  0  0  0  0  0  0  0  0
  -18.7426   16.3885  -20.1922 O   0  0  0  0  0  0  0  0  0  0  0  0
  -17.7536   17.3024  -19.7782 C   0  0  0  0  0  0  0  0  0  0  0  0
 21 22  1  0  0  0
 22  1  1  0  0  0
  1  2  2  0  0  0
  2  3  1  0  0  0
  2  4  1  0  0  0
  4  5  2  0  0  0
  5  6  1  0  0  0
  6  7  2  0  0  0
  7 23  1  0  0  0
 23 24  1  0  0  0
  6  8  1  0  0  0
  8  9  1  0  0  0
  9 10  1  0  0  0
 10 11  1  0  0  0
 11 12  1  0  0  0
 12 13  1  0  0  0
 13 14  2  0  0  0
 14 15  1  0  0  0
 15 16  2  0  0  0
 16 17  1  0  0  0
 17 18  2  0  0  0
  7  1  1  0  0  0
 18 13  1  0  0  0
 18  4  1  0  0  0
 11  5  1  0  0  0
  3 19  1  0  0  0
 10 20  1  0  0  0
M  END
> <minimizedAffinity>
-7.04832

> <CNNscore>
0.4982508719

> <CNNaffinity>
5.3293752670

> <CNN_VS>
2.6553659439

> <CNNaffinity_variance>
0.1316896975

$$$$
[H]Oc1c(OC([H])([H])[H])c(OC([H])([H])[H])c2c3c1-c1c([H])c([H])c([H])c([H])c1C([H])([H])[C@@]3([H])N([H])C([H])([H])C2([H])[H]


 24 27  0  0  0  0  0  0  0  0999 V2000
  -18.2580   13.0607  -20.8290 C   0  0  0  0  0  0  0  0  0  0  0  0
  -17.3013   13.3122  -21.8029 C   0  0  0  0  0  0  0  0  0  0  0  0
  -16.4709   12.2624  -22.0905 O   0  0  0  0  0  0  0  0  0  0  0  0
  -17.2706   14.5609  -22.3812 C   0  0  0  0  0  0  0  0  0  0  0  0
  -18.1550   15.5521  -22.0184 C   0  0  0  0  0  0  0  0  0  0  0  0
  -19.0989   15.2594  -21.0393 C   0  0  0  0  0  0  0  0  0  0  0  0
  -19.1651   14.0315  -20.4391 C   0  0  0  0  0  0  0  0  0  0  0  0
  -20.0388   16.3273  -20.6564 C   0  0  0  0  0  0  0  0  0  0  0  0
  -20.3984   17.2558  -21.7511 C   0  0  0  0  0  0  0  0  0  0  0  0
  -19.4276   17.5010  -22.7316 N   0  0  0  0  0  0  0  0  0  0  0  0
  -18.1363   16.8934  -22.5526 C   0  0  0  0  0  0  0  0  0  0  0  0
  -17.3649   17.0817  -23.7950 C   0  0  0  0  0  0  0  0  0  0  0  0
  -16.3375   16.0757  -24.0781 C   0  0  0  0  0  0  0  0  0  0  0  0
  -15.3722   16.3617  -25.0608 C   0  0  0  0  0  0  0  0  0  0  0  0
  -14.4179   15.4604  -25.4220 C   0  0  0  0  0  0  0  0  0  0  0  0
  -14.4296   14.2521  -24.7887 C   0  0  0  0  0  0  0  0  0  0  0  0
  -15.3611   13.9031  -23.8010 C   0  0  0  0  0  0  0  0  0  0  0  0
  -16.3092   14.8258  -23.4549 C   0  0  0  0  0  0  0  0  0  0  0  0
  -16.5033   11.3608  -21.6649 H   0  0  0  0  0  0  0  0  0  0  0  0
  -19.2535   18.5320  -22.8938 H   0  0  0  0  0  0  0  0  0  0  0  0
  -17.5592   11.4155  -19.1249 C   0  0  0  0  0  0  0  0  0  0  0  0
  -18.3096   11.8164  -20.2336 O   0  0  0  0  0  0  0  0  0  0  0  0
  -20.1233   13.7836  -19.4667 O   0  0  0  0  0  0  0  0  0  0  0  0
  -19.8408   14.0512  -18.1127 C   0  0  0  0  0  0  0  0  0  0  0  0
 21 22  1  0  0  0
 22  1  1  0  0  0
  1  2  2  0  0  0
  2  3  1  0  0  0
  2  4  1  0  0  0
  4  5  2  0  0  0
  5  6  1  0  0  0
  6  7  2  0  0  0
  7 23  1  0  0  0
 23 24  1  0  0  0
  6  8  1  0  0  0
  8  9  1  0  0  0
  9 10  1  0  0  0
 10 11  1  0  0  0
 11 12  1  0  0  0
 12 13  1  0  0  0
 13 14  2  0  0  0
 14 15  1  0  0  0
 15 16  2  0  0  0
 16 17  1  0  0  0
 17 18  2  0  0  0
  7  1  1  0  0  0
 18 13  1  0  0  0
 18  4  1  0  0  0
 11  5  1  0  0  0
  3 19  1  0  0  0
 10 20  1  0  0  0
M  END
> <minimizedAffinity>
-7.34523

> <CNNscore>
0.4816675186

> <CNNaffinity>
5.7526197433

> <CNN_VS>
2.7708501816

> <CNNaffinity_variance>
0.4917480052

$$$$
[H]c1c([H])c([H])c(N([H])[C@@]2([H])c3c([H])c(-c4c([H])c([H])c(C(F)(F)F)c([H])c4[H])c([H])c([H])c3N(C(=O)C([H])([H])[H])[C@@]([H])(C([H])([H])[H])C2([H])[H])c([H])c1[H]


 32 35  0  0  0  0  0  0  0  0999 V2000
  -20.5887    7.0140  -15.5929 C   0  0  0  0  0  0  0  0  0  0  0  0
  -20.7664    8.1336  -14.6593 C   0  0  0  0  0  0  0  0  0  0  0  0
  -21.2087    7.8531  -13.4931 O   0  0  0  0  0  0  0  0  0  0  0  0
  -20.4850    9.4753  -14.9867 N   0  0  0  0  0  0  0  0  0  0  0  0
  -19.7786    9.9465  -16.1144 C   0  0  0  0  0  0  0  0  0  0  0  0
  -18.7764    9.1568  -16.6668 C   0  0  0  0  0  0  0  0  0  0  0  0
  -18.1597    9.6113  -17.8078 C   0  0  0  0  0  0  0  0  0  0  0  0
  -18.4655   10.7995  -18.4434 C   0  0  0  0  0  0  0  0  0  0  0  0
  -19.4544   11.5613  -17.8692 C   0  0  0  0  0  0  0  0  0  0  0  0
  -20.1110   11.1396  -16.7083 C   0  0  0  0  0  0  0  0  0  0  0  0
  -21.1013   12.0713  -16.1536 C   0  0  0  0  0  0  0  0  0  0  0  0
  -21.8197   11.5221  -14.9523 C   0  0  0  0  0  0  0  0  0  0  0  0
  -21.0319   10.5527  -14.1371 C   0  0  0  0  0  0  0  0  0  0  0  0
  -19.9862   11.0971  -13.2381 C   0  0  0  0  0  0  0  0  0  0  0  0
  -17.8055   11.2281  -19.6812 C   0  0  0  0  0  0  0  0  0  0  0  0
  -18.1853   12.4116  -20.3000 C   0  0  0  0  0  0  0  0  0  0  0  0
  -17.5711   12.8962  -21.4332 C   0  0  0  0  0  0  0  0  0  0  0  0
  -16.5276   12.1644  -21.9825 C   0  0  0  0  0  0  0  0  0  0  0  0
  -16.1253   10.9835  -21.3973 C   0  0  0  0  0  0  0  0  0  0  0  0
  -16.7741   10.5278  -20.2477 C   0  0  0  0  0  0  0  0  0  0  0  0
  -15.8621   12.7196  -23.2152 C   0  0  0  0  0  0  0  0  0  0  0  0
  -15.6589   14.0820  -23.0714 F   0  0  0  0  0  0  0  0  0  0  0  0
  -16.6017   12.5176  -24.3412 F   0  0  0  0  0  0  0  0  0  0  0  0
  -14.5908   12.1552  -23.2737 F   0  0  0  0  0  0  0  0  0  0  0  0
  -20.3815   13.3023  -15.7675 N   0  0  0  0  0  0  0  0  0  0  0  0
  -20.1478   13.4048  -14.7555 H   0  0  0  0  0  0  0  0  0  0  0  0
  -20.0416   14.2851  -16.7395 C   0  0  0  0  0  0  0  0  0  0  0  0
  -18.7280   14.7056  -16.8736 C   0  0  0  0  0  0  0  0  0  0  0  0
  -18.4306   15.6110  -17.8629 C   0  0  0  0  0  0  0  0  0  0  0  0
  -19.3583   16.1302  -18.7306 C   0  0  0  0  0  0  0  0  0  0  0  0
  -20.6794   15.7197  -18.6077 C   0  0  0  0  0  0  0  0  0  0  0  0
  -20.9917   14.8109  -17.6206 C   0  0  0  0  0  0  0  0  0  0  0  0
  1  2  1  0  0  0
  2  3  2  0  0  0
  2  4  1  0  0  0
  4  5  1  0  0  0
  5  6  2  0  0  0
  6  7  1  0  0  0
  7  8  2  0  0  0
  8 15  1  0  0  0
 15 16  2  0  0  0
 16 17  1  0  0  0
 17 18  2  0  0  0
 18 21  1  0  0  0
 21 22  1  0  0  0
 21 23  1  0  0  0
 21 24  1  0  0  0
 18 19  1  0  0  0
 19 20  2  0  0  0
  8  9  1  0  0  0
  9 10  2  0  0  0
 10 11  1  0  0  0
 11 25  1  0  0  0
 25 27  1  0  0  0
 27 28  2  0  0  0
 28 29  1  0  0  0
 29 30  2  0  0  0
 30 31  1  0  0  0
 31 32  2  0  0  0
 11 12  1  0  0  0
 12 13  1  0  0  0
 13 14  1  0  0  0
 13  4  1  0  0  0
 10  5  1  0  0  0
 32 27  1  0  0  0
 20 15  1  0  0  0
 25 26  1  0  0  0
M  END
> <minimizedAffinity>
-9.53580

> <CNNscore>
0.5219378471

> <CNNaffinity>
6.4157400131

> <CNN_VS>
3.3486175537

> <CNNaffinity_variance>
0.2475368083

$$$$
[H]c1c([H])c([H])c(N([H])[C@@]2([H])c3c([H])c(-c4c([H])c([H])c(C(F)(F)F)c([H])c4[H])c([H])c([H])c3N(C(=O)C([H])([H])[H])[C@@]([H])(C([H])([H])[H])C2([H])[H])c([H])c1[H]


 32 35  0  0  0  0  0  0  0  0999 V2000
  -17.2346   11.1198  -19.2757 C   0  0  0  0  0  0  0  0  0  0  0  0
  -16.8264   11.2596  -20.6795 C   0  0  0  0  0  0  0  0  0  0  0  0
  -16.1297   10.3115  -21.1792 O   0  0  0  0  0  0  0  0  0  0  0  0
  -17.1543   12.3718  -21.4808 N   0  0  0  0  0  0  0  0  0  0  0  0
  -18.0959   13.3827  -21.1903 C   0  0  0  0  0  0  0  0  0  0  0  0
  -19.2118   13.0709  -20.4217 C   0  0  0  0  0  0  0  0  0  0  0  0
  -20.0695   14.0938  -20.0948 C   0  0  0  0  0  0  0  0  0  0  0  0
  -19.9006   15.4105  -20.4783 C   0  0  0  0  0  0  0  0  0  0  0  0
  -18.7929   15.6856  -21.2435 C   0  0  0  0  0  0  0  0  0  0  0  0
  -17.8913   14.6775  -21.6005 C   0  0  0  0  0  0  0  0  0  0  0  0
  -16.7841   15.0837  -22.4755 C   0  0  0  0  0  0  0  0  0  0  0  0
  -15.8151   13.9689  -22.7565 C   0  0  0  0  0  0  0  0  0  0  0  0
  -16.4073   12.6000  -22.7344 C   0  0  0  0  0  0  0  0  0  0  0  0
  -17.2063   12.1751  -23.9088 C   0  0  0  0  0  0  0  0  0  0  0  0
  -20.8232   16.4772  -20.0754 C   0  0  0  0  0  0  0  0  0  0  0  0
  -22.1461   16.4506  -20.4964 C   0  0  0  0  0  0  0  0  0  0  0  0
  -23.0749   17.3915  -20.1112 C   0  0  0  0  0  0  0  0  0  0  0  0
  -22.6668   18.4146  -19.2668 C   0  0  0  0  0  0  0  0  0  0  0  0
  -21.3610   18.4748  -18.8311 C   0  0  0  0  0  0  0  0  0  0  0  0
  -20.4506   17.4998  -19.2442 C   0  0  0  0  0  0  0  0  0  0  0  0
  -23.7026   19.4259  -18.8485 C   0  0  0  0  0  0  0  0  0  0  0  0
  -24.2996   19.0305  -17.6630 F   0  0  0  0  0  0  0  0  0  0  0  0
  -24.6805   19.5859  -19.7832 F   0  0  0  0  0  0  0  0  0  0  0  0
  -23.0183   20.6010  -18.5497 F   0  0  0  0  0  0  0  0  0  0  0  0
  -17.3741   15.5460  -23.7485 N   0  0  0  0  0  0  0  0  0  0  0  0
  -18.3760   15.8370  -23.7166 H   0  0  0  0  0  0  0  0  0  0  0  0
  -16.6008   15.5778  -24.9432 C   0  0  0  0  0  0  0  0  0  0  0  0
  -15.3862   16.2445  -24.9680 C   0  0  0  0  0  0  0  0  0  0  0  0
  -14.6420   16.2016  -26.1218 C   0  0  0  0  0  0  0  0  0  0  0  0
  -15.0288   15.5380  -27.2589 C   0  0  0  0  0  0  0  0  0  0  0  0
  -16.2445   14.8665  -27.2501 C   0  0  0  0  0  0  0  0  0  0  0  0
  -17.0007   14.9000  -26.0991 C   0  0  0  0  0  0  0  0  0  0  0  0
  1  2  1  0  0  0
  2  3  2  0  0  0
  2  4  1  0  0  0
  4  5  1  0  0  0
  5  6  2  0  0  0
  6  7  1  0  0  0
  7  8  2  0  0  0
  8 15  1  0  0  0
 15 16  2  0  0  0
 16 17  1  0  0  0
 17 18  2  0  0  0
 18 21  1  0  0  0
 21 22  1  0  0  0
 21 23  1  0  0  0
 21 24  1  0  0  0
 18 19  1  0  0  0
 19 20  2  0  0  0
  8  9  1  0  0  0
  9 10  2  0  0  0
 10 11  1  0  0  0
 11 25  1  0  0  0
 25 27  1  0  0  0
 27 28  2  0  0  0
 28 29  1  0  0  0
 29 30  2  0  0  0
 30 31  1  0  0  0
 31 32  2  0  0  0
 11 12  1  0  0  0
 12 13  1  0  0  0
 13 14  1  0  0  0
 13  4  1  0  0  0
 10  5  1  0  0  0
 32 27  1  0  0  0
 20 15  1  0  0  0
 25 26  1  0  0  0
M  END
> <minimizedAffinity>
-8.21102

> <CNNscore>
0.4321295023

> <CNNaffinity>
6.8589196205

> <CNN_VS>
2.9639415741

> <CNNaffinity_variance>
0.3353399336

$$$$
[H]c1c([H])c([H])c(N([H])[C@@]2([H])c3c([H])c(-c4c([H])c([H])c(C(F)(F)F)c([H])c4[H])c([H])c([H])c3N(C(=O)C([H])([H])[H])[C@@]([H])(C([H])([H])[H])C2([H])[H])c([H])c1[H]


 32 35  0  0  0  0  0  0  0  0999 V2000
  -20.4569   10.3023  -17.8779 C   0  0  0  0  0  0  0  0  0  0  0  0
  -19.0744   10.5121  -18.3266 C   0  0  0  0  0  0  0  0  0  0  0  0
  -18.2992    9.4957  -18.3153 O   0  0  0  0  0  0  0  0  0  0  0  0
  -18.5724   11.7585  -18.7522 N   0  0  0  0  0  0  0  0  0  0  0  0
  -19.3181   12.9176  -19.0574 C   0  0  0  0  0  0  0  0  0  0  0  0
  -20.6045   12.7827  -19.5674 C   0  0  0  0  0  0  0  0  0  0  0  0
  -21.3305   13.9296  -19.7835 C   0  0  0  0  0  0  0  0  0  0  0  0
  -20.8700   15.2076  -19.5305 C   0  0  0  0  0  0  0  0  0  0  0  0
  -19.5925   15.3085  -19.0345 C   0  0  0  0  0  0  0  0  0  0  0  0
  -18.8160   14.1694  -18.7977 C   0  0  0  0  0  0  0  0  0  0  0  0
  -17.4446   14.4102  -18.3308 C   0  0  0  0  0  0  0  0  0  0  0  0
  -16.6945   13.1433  -18.0256 C   0  0  0  0  0  0  0  0  0  0  0  0
  -17.1107   11.9569  -18.8284 C   0  0  0  0  0  0  0  0  0  0  0  0
  -16.6401   11.8742  -20.2319 C   0  0  0  0  0  0  0  0  0  0  0  0
  -21.6937   16.4025  -19.7423 C   0  0  0  0  0  0  0  0  0  0  0  0
  -21.8200   17.3498  -18.7351 C   0  0  0  0  0  0  0  0  0  0  0  0
  -22.5343   18.5171  -18.8883 C   0  0  0  0  0  0  0  0  0  0  0  0
  -23.1593   18.7534  -20.1048 C   0  0  0  0  0  0  0  0  0  0  0  0
  -23.0584   17.8343  -21.1264 C   0  0  0  0  0  0  0  0  0  0  0  0
  -22.3230   16.6634  -20.9303 C   0  0  0  0  0  0  0  0  0  0  0  0
  -23.9252   20.0425  -20.2543 C   0  0  0  0  0  0  0  0  0  0  0  0
  -23.0493   21.0905  -20.4841 F   0  0  0  0  0  0  0  0  0  0  0  0
  -24.6624   20.3407  -19.1484 F   0  0  0  0  0  0  0  0  0  0  0  0
  -24.6835   19.9263  -21.4162 F   0  0  0  0  0  0  0  0  0  0  0  0
  -16.7379   15.1472  -19.3984 N   0  0  0  0  0  0  0  0  0  0  0  0
  -15.7770   14.8145  -19.6338 H   0  0  0  0  0  0  0  0  0  0  0  0
  -17.3514   16.2529  -20.0521 C   0  0  0  0  0  0  0  0  0  0  0  0
  -17.7255   17.3712  -19.3243 C   0  0  0  0  0  0  0  0  0  0  0  0
  -18.2596   18.4410  -20.0004 C   0  0  0  0  0  0  0  0  0  0  0  0
  -18.4490   18.4715  -21.3591 C   0  0  0  0  0  0  0  0  0  0  0  0
  -18.0806   17.3575  -22.1022 C   0  0  0  0  0  0  0  0  0  0  0  0
  -17.5424   16.2778  -21.4372 C   0  0  0  0  0  0  0  0  0  0  0  0
  1  2  1  0  0  0
  2  3  2  0  0  0
  2  4  1  0  0  0
  4  5  1  0  0  0
  5  6  2  0  0  0
  6  7  1  0  0  0
  7  8  2  0  0  0
  8 15  1  0  0  0
 15 16  2  0  0  0
 16 17  1  0  0  0
 17 18  2  0  0  0
 18 21  1  0  0  0
 21 22  1  0  0  0
 21 23  1  0  0  0
 21 24  1  0  0  0
 18 19  1  0  0  0
 19 20  2  0  0  0
  8  9  1  0  0  0
  9 10  2  0  0  0
 10 11  1  0  0  0
 11 25  1  0  0  0
 25 27  1  0  0  0
 27 28  2  0  0  0
 28 29  1  0  0  0
 29 30  2  0  0  0
 30 31  1  0  0  0
 31 32  2  0  0  0
 11 12  1  0  0  0
 12 13  1  0  0  0
 13 14  1  0  0  0
 13  4  1  0  0  0
 10  5  1  0  0  0
 32 27  1  0  0  0
 20 15  1  0  0  0
 25 26  1  0  0  0
M  END
> <minimizedAffinity>
1.40552

> <CNNscore>
0.4061150849

> <CNNaffinity>
6.2202353477

> <CNN_VS>
2.5261313915

> <CNNaffinity_variance>
1.2719064951

$$$$
[H]c1c([H])c([H])c(N([H])[C@@]2([H])c3c([H])c(-c4c([H])c([H])c(C(F)(F)F)c([H])c4[H])c([H])c([H])c3N(C(=O)C([H])([H])[H])[C@@]([H])(C([H])([H])[H])C2([H])[H])c([H])c1[H]


 32 35  0  0  0  0  0  0  0  0999 V2000
  -19.6820   11.9235  -24.8843 C   0  0  0  0  0  0  0  0  0  0  0  0
  -18.3365   12.1874  -25.4103 C   0  0  0  0  0  0  0  0  0  0  0  0
  -18.0251   11.6282  -26.5168 O   0  0  0  0  0  0  0  0  0  0  0  0
  -17.3906   13.0054  -24.7600 N   0  0  0  0  0  0  0  0  0  0  0  0
  -17.6235   13.8822  -23.6784 C   0  0  0  0  0  0  0  0  0  0  0  0
  -18.8670   14.4915  -23.5538 C   0  0  0  0  0  0  0  0  0  0  0  0
  -19.0851   15.2802  -22.4496 C   0  0  0  0  0  0  0  0  0  0  0  0
  -18.1536   15.5110  -21.4554 C   0  0  0  0  0  0  0  0  0  0  0  0
  -16.9319   14.9015  -21.6109 C   0  0  0  0  0  0  0  0  0  0  0  0
  -16.6640   14.0892  -22.7177 C   0  0  0  0  0  0  0  0  0  0  0  0
  -15.3013   13.5488  -22.8054 C   0  0  0  0  0  0  0  0  0  0  0  0
  -15.1070   12.6265  -23.9769 C   0  0  0  0  0  0  0  0  0  0  0  0
  -15.9707   12.9184  -25.1574 C   0  0  0  0  0  0  0  0  0  0  0  0
  -15.5943   14.0630  -26.0214 C   0  0  0  0  0  0  0  0  0  0  0  0
  -18.4425   16.3318  -20.2747 C   0  0  0  0  0  0  0  0  0  0  0  0
  -19.3964   17.3385  -20.3418 C   0  0  0  0  0  0  0  0  0  0  0  0
  -19.7517   18.1089  -19.2572 C   0  0  0  0  0  0  0  0  0  0  0  0
  -19.1232   17.8692  -18.0432 C   0  0  0  0  0  0  0  0  0  0  0  0
  -18.1693   16.8803  -17.9395 C   0  0  0  0  0  0  0  0  0  0  0  0
  -17.8389   16.1205  -19.0637 C   0  0  0  0  0  0  0  0  0  0  0  0
  -19.5362   18.7158  -16.8671 C   0  0  0  0  0  0  0  0  0  0  0  0
  -19.3642   20.0574  -17.1650 F   0  0  0  0  0  0  0  0  0  0  0  0
  -18.8161   18.4347  -15.7455 F   0  0  0  0  0  0  0  0  0  0  0  0
  -20.9082   18.5402  -16.7083 F   0  0  0  0  0  0  0  0  0  0  0  0
  -14.3790   14.6958  -22.9328 N   0  0  0  0  0  0  0  0  0  0  0  0
  -13.6941   14.8286  -22.1564 H   0  0  0  0  0  0  0  0  0  0  0  0
  -14.4437   15.5638  -24.0591 C   0  0  0  0  0  0  0  0  0  0  0  0
  -15.4130   16.5522  -24.1208 C   0  0  0  0  0  0  0  0  0  0  0  0
  -15.4050   17.4075  -25.1956 C   0  0  0  0  0  0  0  0  0  0  0  0
  -14.4936   17.3432  -26.2193 C   0  0  0  0  0  0  0  0  0  0  0  0
  -13.5169   16.3569  -26.1726 C   0  0  0  0  0  0  0  0  0  0  0  0
  -13.5122   15.4929  -25.0997 C   0  0  0  0  0  0  0  0  0  0  0  0
  1  2  1  0  0  0
  2  3  2  0  0  0
  2  4  1  0  0  0
  4  5  1  0  0  0
  5  6  2  0  0  0
  6  7  1  0  0  0
  7  8  2  0  0  0
  8 15  1  0  0  0
 15 16  2  0  0  0
 16 17  1  0  0  0
 17 18  2  0  0  0
 18 21  1  0  0  0
 21 22  1  0  0  0
 21 23  1  0  0  0
 21 24  1  0  0  0
 18 19  1  0  0  0
 19 20  2  0  0  0
  8  9  1  0  0  0
  9 10  2  0  0  0
 10 11  1  0  0  0
 11 25  1  0  0  0
 25 27  1  0  0  0
 27 28  2  0  0  0
 28 29  1  0  0  0
 29 30  2  0  0  0
 30 31  1  0  0  0
 31 32  2  0  0  0
 11 12  1  0  0  0
 12 13  1  0  0  0
 13 14  1  0  0  0
 13  4  1  0  0  0
 10  5  1  0  0  0
 32 27  1  0  0  0
 20 15  1  0  0  0
 25 26  1  0  0  0
M  END
> <minimizedAffinity>
2.77884

> <CNNscore>
0.4039338827

> <CNNaffinity>
6.1847157478

> <CNN_VS>
2.4982161522

> <CNNaffinity_variance>
0.9734510183

$$$$
[H]c1c([H])c([H])c(N([H])[C@@]2([H])c3c([H])c(-c4c([H])c([H])c(C(F)(F)F)c([H])c4[H])c([H])c([H])c3N(C(=O)C([H])([H])[H])[C@@]([H])(C([H])([H])[H])C2([H])[H])c([H])c1[H]


 32 35  0  0  0  0  0  0  0  0999 V2000
  -15.9516   11.7758  -22.9821 C   0  0  0  0  0  0  0  0  0  0  0  0
  -15.8027   11.2042  -21.6375 C   0  0  0  0  0  0  0  0  0  0  0  0
  -14.8808   10.3338  -21.4749 O   0  0  0  0  0  0  0  0  0  0  0  0
  -16.6183   11.5586  -20.5440 N   0  0  0  0  0  0  0  0  0  0  0  0
  -17.5107   12.6496  -20.4655 C   0  0  0  0  0  0  0  0  0  0  0  0
  -17.2285   13.8104  -21.1768 C   0  0  0  0  0  0  0  0  0  0  0  0
  -18.1544   14.8253  -21.1383 C   0  0  0  0  0  0  0  0  0  0  0  0
  -19.3458   14.7727  -20.4403 C   0  0  0  0  0  0  0  0  0  0  0  0
  -19.5924   13.6159  -19.7410 C   0  0  0  0  0  0  0  0  0  0  0  0
  -18.6800   12.5557  -19.7510 C   0  0  0  0  0  0  0  0  0  0  0  0
  -19.0249   11.4009  -18.9118 C   0  0  0  0  0  0  0  0  0  0  0  0
  -18.0397   10.2712  -19.0294 C   0  0  0  0  0  0  0  0  0  0  0  0
  -16.6437   10.6851  -19.3532 C   0  0  0  0  0  0  0  0  0  0  0  0
  -15.8237   11.2603  -18.2601 C   0  0  0  0  0  0  0  0  0  0  0  0
  -20.3222   15.8671  -20.4568 C   0  0  0  0  0  0  0  0  0  0  0  0
  -20.1041   16.9841  -21.2523 C   0  0  0  0  0  0  0  0  0  0  0  0
  -21.0050   18.0206  -21.3533 C   0  0  0  0  0  0  0  0  0  0  0  0
  -22.1824   17.9451  -20.6224 C   0  0  0  0  0  0  0  0  0  0  0  0
  -22.4317   16.8532  -19.8198 C   0  0  0  0  0  0  0  0  0  0  0  0
  -21.4921   15.8226  -19.7465 C   0  0  0  0  0  0  0  0  0  0  0  0
  -23.1591   19.0847  -20.7575 C   0  0  0  0  0  0  0  0  0  0  0  0
  -24.4573   18.6041  -20.7133 F   0  0  0  0  0  0  0  0  0  0  0  0
  -23.0002   19.7703  -21.9238 F   0  0  0  0  0  0  0  0  0  0  0  0
  -23.0132   19.8752  -19.6208 F   0  0  0  0  0  0  0  0  0  0  0  0
  -19.0619   11.8686  -17.5110 N   0  0  0  0  0  0  0  0  0  0  0  0
  -18.3332   12.5628  -17.2344 H   0  0  0  0  0  0  0  0  0  0  0  0
  -20.0433   11.3797  -16.6032 C   0  0  0  0  0  0  0  0  0  0  0  0
  -20.0330   10.0485  -16.2183 C   0  0  0  0  0  0  0  0  0  0  0  0
  -20.9596    9.6292  -15.2949 C   0  0  0  0  0  0  0  0  0  0  0  0
  -21.9018   10.4499  -14.7278 C   0  0  0  0  0  0  0  0  0  0  0  0
  -21.9259   11.7864  -15.1048 C   0  0  0  0  0  0  0  0  0  0  0  0
  -21.0014   12.2210  -16.0290 C   0  0  0  0  0  0  0  0  0  0  0  0
  1  2  1  0  0  0
  2  3  2  0  0  0
  2  4  1  0  0  0
  4  5  1  0  0  0
  5  6  2  0  0  0
  6  7  1  0  0  0
  7  8  2  0  0  0
  8 15  1  0  0  0
 15 16  2  0  0  0
 16 17  1  0  0  0
 17 18  2  0  0  0
 18 21  1  0  0  0
 21 22  1  0  0  0
 21 23  1  0  0  0
 21 24  1  0  0  0
 18 19  1  0  0  0
 19 20  2  0  0  0
  8  9  1  0  0  0
  9 10  2  0  0  0
 10 11  1  0  0  0
 11 25  1  0  0  0
 25 27  1  0  0  0
 27 28  2  0  0  0
 28 29  1  0  0  0
 29 30  2  0  0  0
 30 31  1  0  0  0
 31 32  2  0  0  0
 11 12  1  0  0  0
 12 13  1  0  0  0
 13 14  1  0  0  0
 13  4  1  0  0  0
 10  5  1  0  0  0
 32 27  1  0  0  0
 20 15  1  0  0  0
 25 26  1  0  0  0
M  END
> <minimizedAffinity>
-7.08050

> <CNNscore>
0.3541010916

> <CNNaffinity>
6.3589115143

> <CNN_VS>
2.2516975403

> <CNNaffinity_variance>
0.3062463403

$$$$
[H]c1c([H])c([H])c(N([H])[C@@]2([H])c3c([H])c(-c4c([H])c([H])c(C(F)(F)F)c([H])c4[H])c([H])c([H])c3N(C(=O)C([H])([H])[H])[C@@]([H])(C([H])([H])[H])C2([H])[H])c([H])c1[H]


 32 35  0  0  0  0  0  0  0  0999 V2000
  -16.3887   10.8067  -19.3608 C   0  0  0  0  0  0  0  0  0  0  0  0
  -16.2959   10.9218  -20.8219 C   0  0  0  0  0  0  0  0  0  0  0  0
  -15.9060    9.8867  -21.4627 O   0  0  0  0  0  0  0  0  0  0  0  0
  -16.6031   12.0992  -21.5334 N   0  0  0  0  0  0  0  0  0  0  0  0
  -17.2648   13.2442  -21.0398 C   0  0  0  0  0  0  0  0  0  0  0  0
  -18.2110   13.1000  -20.0313 C   0  0  0  0  0  0  0  0  0  0  0  0
  -18.7820   14.2415  -19.5218 C   0  0  0  0  0  0  0  0  0  0  0  0
  -18.4822   15.5228  -19.9434 C   0  0  0  0  0  0  0  0  0  0  0  0
  -17.5495   15.6322  -20.9465 C   0  0  0  0  0  0  0  0  0  0  0  0
  -16.9408   14.4988  -21.4956 C   0  0  0  0  0  0  0  0  0  0  0  0
  -16.0111   14.7410  -22.6062 C   0  0  0  0  0  0  0  0  0  0  0  0
  -15.3387   13.4886  -23.0963 C   0  0  0  0  0  0  0  0  0  0  0  0
  -16.1361   12.2393  -22.9276 C   0  0  0  0  0  0  0  0  0  0  0  0
  -17.2441   11.9940  -23.8817 C   0  0  0  0  0  0  0  0  0  0  0  0
  -19.0905   16.7160  -19.3453 C   0  0  0  0  0  0  0  0  0  0  0  0
  -18.6767   17.9815  -19.7392 C   0  0  0  0  0  0  0  0  0  0  0  0
  -19.2428   19.1400  -19.2559 C   0  0  0  0  0  0  0  0  0  0  0  0
  -20.2711   19.0356  -18.3297 C   0  0  0  0  0  0  0  0  0  0  0  0
  -20.7061   17.7963  -17.9132 C   0  0  0  0  0  0  0  0  0  0  0  0
  -20.1059   16.6457  -18.4291 C   0  0  0  0  0  0  0  0  0  0  0  0
  -20.8840   20.3159  -17.8237 C   0  0  0  0  0  0  0  0  0  0  0  0
  -21.2554   21.1176  -18.8902 F   0  0  0  0  0  0  0  0  0  0  0  0
  -20.0287   21.0264  -17.0368 F   0  0  0  0  0  0  0  0  0  0  0  0
  -22.0712   19.9676  -17.1854 F   0  0  0  0  0  0  0  0  0  0  0  0
  -16.7893   15.3379  -23.7111 N   0  0  0  0  0  0  0  0  0  0  0  0
  -17.7193   15.7394  -23.4593 H   0  0  0  0  0  0  0  0  0  0  0  0
  -16.2812   15.3473  -25.0407 C   0  0  0  0  0  0  0  0  0  0  0  0
  -17.0044   14.7590  -26.0660 C   0  0  0  0  0  0  0  0  0  0  0  0
  -16.5090   14.8414  -27.3445 C   0  0  0  0  0  0  0  0  0  0  0  0
  -15.3349   15.4716  -27.6722 C   0  0  0  0  0  0  0  0  0  0  0  0
  -14.5979   16.0646  -26.6553 C   0  0  0  0  0  0  0  0  0  0  0  0
  -15.0836   15.9908  -25.3683 C   0  0  0  0  0  0  0  0  0  0  0  0
  1  2  1  0  0  0
  2  3  2  0  0  0
  2  4  1  0  0  0
  4  5  1  0  0  0
  5  6  2  0  0  0
  6  7  1  0  0  0
  7  8  2  0  0  0
  8 15  1  0  0  0
 15 16  2  0  0  0
 16 17  1  0  0  0
 17 18  2  0  0  0
 18 21  1  0  0  0
 21 22  1  0  0  0
 21 23  1  0  0  0
 21 24  1  0  0  0
 18 19  1  0  0  0
 19 20  2  0  0  0
  8  9  1  0  0  0
  9 10  2  0  0  0
 10 11  1  0  0  0
 11 25  1  0  0  0
 25 27  1  0  0  0
 27 28  2  0  0  0
 28 29  1  0  0  0
 29 30  2  0  0  0
 30 31  1  0  0  0
 31 32  2  0  0  0
 11 12  1  0  0  0
 12 13  1  0  0  0
 13 14  1  0  0  0
 13  4  1  0  0  0
 10  5  1  0  0  0
 32 27  1  0  0  0
 20 15  1  0  0  0
 25 26  1  0  0  0
M  END
> <minimizedAffinity>
-7.78287

> <CNNscore>
0.2574650049

> <CNNaffinity>
6.6735143661

> <CNN_VS>
1.7181963921

> <CNNaffinity_variance>
0.3078781068

$$$$
[H]c1c([H])c([H])c(N([H])[C@@]2([H])c3c([H])c(-c4c([H])c([H])c(C(F)(F)F)c([H])c4[H])c([H])c([H])c3N(C(=O)C([H])([H])[H])[C@@]([H])(C([H])([H])[H])C2([H])[H])c([H])c1[H]


 32 35  0  0  0  0  0  0  0  0999 V2000
  -20.5337    9.5022  -12.9143 C   0  0  0  0  0  0  0  0  0  0  0  0
  -21.3475   10.3863  -12.0700 C   0  0  0  0  0  0  0  0  0  0  0  0
  -21.6143    9.9778  -10.8885 O   0  0  0  0  0  0  0  0  0  0  0  0
  -21.8436   11.6345  -12.4974 N   0  0  0  0  0  0  0  0  0  0  0  0
  -21.4653   12.3506  -13.6536 C   0  0  0  0  0  0  0  0  0  0  0  0
  -20.1684   12.2221  -14.1380 C   0  0  0  0  0  0  0  0  0  0  0  0
  -19.8547   12.8736  -15.3068 C   0  0  0  0  0  0  0  0  0  0  0  0
  -20.7383   13.6487  -16.0332 C   0  0  0  0  0  0  0  0  0  0  0  0
  -22.0098   13.7628  -15.5248 C   0  0  0  0  0  0  0  0  0  0  0  0
  -22.3757   13.1175  -14.3389 C   0  0  0  0  0  0  0  0  0  0  0  0
  -23.7418   13.3702  -13.8630 C   0  0  0  0  0  0  0  0  0  0  0  0
  -24.0902   12.5873  -12.6275 C   0  0  0  0  0  0  0  0  0  0  0  0
  -22.9364   12.2728  -11.7359 C   0  0  0  0  0  0  0  0  0  0  0  0
  -22.4134   13.3607  -10.8750 C   0  0  0  0  0  0  0  0  0  0  0  0
  -20.3697   14.2970  -17.2962 C   0  0  0  0  0  0  0  0  0  0  0  0
  -19.0422   14.6083  -17.5586 C   0  0  0  0  0  0  0  0  0  0  0  0
  -18.6235   15.1684  -18.7448 C   0  0  0  0  0  0  0  0  0  0  0  0
  -19.5742   15.4370  -19.7197 C   0  0  0  0  0  0  0  0  0  0  0  0
  -20.9014   15.1443  -19.4933 C   0  0  0  0  0  0  0  0  0  0  0  0
  -21.2842   14.5753  -18.2768 C   0  0  0  0  0  0  0  0  0  0  0  0
  -19.0919   16.0387  -21.0144 C   0  0  0  0  0  0  0  0  0  0  0  0
  -19.5825   17.3267  -21.1504 F   0  0  0  0  0  0  0  0  0  0  0  0
  -19.4855   15.3180  -22.1012 F   0  0  0  0  0  0  0  0  0  0  0  0
  -17.7106   16.1735  -20.9042 F   0  0  0  0  0  0  0  0  0  0  0  0
  -23.8464   14.8140  -13.5679 N   0  0  0  0  0  0  0  0  0  0  0  0
  -24.3480   15.0728  -12.6899 H   0  0  0  0  0  0  0  0  0  0  0  0
  -23.2913   15.7823  -14.4514 C   0  0  0  0  0  0  0  0  0  0  0  0
  -21.9164   15.9131  -14.5649 C   0  0  0  0  0  0  0  0  0  0  0  0
  -21.4199   16.8173  -15.4721 C   0  0  0  0  0  0  0  0  0  0  0  0
  -22.2042   17.6054  -16.2762 C   0  0  0  0  0  0  0  0  0  0  0  0
  -23.5841   17.4870  -16.1727 C   0  0  0  0  0  0  0  0  0  0  0  0
  -24.0960   16.5831  -15.2679 C   0  0  0  0  0  0  0  0  0  0  0  0
  1  2  1  0  0  0
  2  3  2  0  0  0
  2  4  1  0  0  0
  4  5  1  0  0  0
  5  6  2  0  0  0
  6  7  1  0  0  0
  7  8  2  0  0  0
  8 15  1  0  0  0
 15 16  2  0  0  0
 16 17  1  0  0  0
 17 18  2  0  0  0
 18 21  1  0  0  0
 21 22  1  0  0  0
 21 23  1  0  0  0
 21 24  1  0  0  0
 18 19  1  0  0  0
 19 20  2  0  0  0
  8  9  1  0  0  0
  9 10  2  0  0  0
 10 11  1  0  0  0
 11 25  1  0  0  0
 25 27  1  0  0  0
 27 28  2  0  0  0
 28 29  1  0  0  0
 29 30  2  0  0  0
 30 31  1  0  0  0
 31 32  2  0  0  0
 11 12  1  0  0  0
 12 13  1  0  0  0
 13 14  1  0  0  0
 13  4  1  0  0  0
 10  5  1  0  0  0
 32 27  1  0  0  0
 20 15  1  0  0  0
 25 26  1  0  0  0
M  END
> <minimizedAffinity>
-3.07922

> <CNNscore>
0.2494672239

> <CNNaffinity>
5.5553007126

> <CNN_VS>
1.3858654499

> <CNNaffinity_variance>
0.8460057378

$$$$
[H]c1c([H])c([H])c(N([H])[C@@]2([H])c3c([H])c(-c4c([H])c([H])c(C(F)(F)F)c([H])c4[H])c([H])c([H])c3N(C(=O)C([H])([H])[H])[C@@]([H])(C([H])([H])[H])C2([H])[H])c([H])c1[H]


 32 35  0  0  0  0  0  0  0  0999 V2000
  -18.3590    9.5769  -18.3001 C   0  0  0  0  0  0  0  0  0  0  0  0
  -18.8761   10.7231  -17.5414 C   0  0  0  0  0  0  0  0  0  0  0  0
  -19.1923   10.5165  -16.3202 O   0  0  0  0  0  0  0  0  0  0  0  0
  -19.0433   12.0108  -18.0895 N   0  0  0  0  0  0  0  0  0  0  0  0
  -18.5376   12.4851  -19.3192 C   0  0  0  0  0  0  0  0  0  0  0  0
  -17.3412   11.9700  -19.8055 C   0  0  0  0  0  0  0  0  0  0  0  0
  -16.9152   12.3983  -21.0400 C   0  0  0  0  0  0  0  0  0  0  0  0
  -17.5927   13.3066  -21.8308 C   0  0  0  0  0  0  0  0  0  0  0  0
  -18.7674   13.8034  -21.3195 C   0  0  0  0  0  0  0  0  0  0  0  0
  -19.2413   13.3965  -20.0680 C   0  0  0  0  0  0  0  0  0  0  0  0
  -20.4720   14.0484  -19.6020 C   0  0  0  0  0  0  0  0  0  0  0  0
  -20.9632   13.5096  -18.2870 C   0  0  0  0  0  0  0  0  0  0  0  0
  -19.8974   12.9874  -17.3836 C   0  0  0  0  0  0  0  0  0  0  0  0
  -19.0716   13.9749  -16.6480 C   0  0  0  0  0  0  0  0  0  0  0  0
  -17.1186   13.7081  -23.1595 C   0  0  0  0  0  0  0  0  0  0  0  0
  -17.9939   14.2932  -24.0647 C   0  0  0  0  0  0  0  0  0  0  0  0
  -17.6009   14.7400  -25.3065 C   0  0  0  0  0  0  0  0  0  0  0  0
  -16.2693   14.5940  -25.6694 C   0  0  0  0  0  0  0  0  0  0  0  0
  -15.3725   14.0151  -24.7981 C   0  0  0  0  0  0  0  0  0  0  0  0
  -15.8118   13.5764  -23.5472 C   0  0  0  0  0  0  0  0  0  0  0  0
  -15.8591   15.1010  -27.0279 C   0  0  0  0  0  0  0  0  0  0  0  0
  -16.3914   14.2906  -28.0169 F   0  0  0  0  0  0  0  0  0  0  0  0
  -14.5064   15.1296  -27.1856 F   0  0  0  0  0  0  0  0  0  0  0  0
  -16.4669   16.3425  -27.1932 F   0  0  0  0  0  0  0  0  0  0  0  0
  -20.1807   15.4894  -19.4575 N   0  0  0  0  0  0  0  0  0  0  0  0
  -19.5149   15.7542  -18.6986 H   0  0  0  0  0  0  0  0  0  0  0  0
  -20.7923   16.4479  -20.3140 C   0  0  0  0  0  0  0  0  0  0  0  0
  -20.0162   17.2042  -21.1778 C   0  0  0  0  0  0  0  0  0  0  0  0
  -20.6494   18.0754  -22.0304 C   0  0  0  0  0  0  0  0  0  0  0  0
  -22.0100   18.2465  -22.0797 C   0  0  0  0  0  0  0  0  0  0  0  0
  -22.8012   17.4968  -21.2190 C   0  0  0  0  0  0  0  0  0  0  0  0
  -22.1796   16.6181  -20.3592 C   0  0  0  0  0  0  0  0  0  0  0  0
  1  2  1  0  0  0
  2  3  2  0  0  0
  2  4  1  0  0  0
  4  5  1  0  0  0
  5  6  2  0  0  0
  6  7  1  0  0  0
  7  8  2  0  0  0
  8 15  1  0  0  0
 15 16  2  0  0  0
 16 17  1  0  0  0
 17 18  2  0  0  0
 18 21  1  0  0  0
 21 22  1  0  0  0
 21 23  1  0  0  0
 21 24  1  0  0  0
 18 19  1  0  0  0
 19 20  2  0  0  0
  8  9  1  0  0  0
  9 10  2  0  0  0
 10 11  1  0  0  0
 11 25  1  0  0  0
 25 27  1  0  0  0
 27 28  2  0  0  0
 28 29  1  0  0  0
 29 30  2  0  0  0
 30 31  1  0  0  0
 31 32  2  0  0  0
 11 12  1  0  0  0
 12 13  1  0  0  0
 13 14  1  0  0  0
 13  4  1  0  0  0
 10  5  1  0  0  0
 32 27  1  0  0  0
 20 15  1  0  0  0
 25 26  1  0  0  0
M  END
> <minimizedAffinity>
-9.59491

> <CNNscore>
0.2404492199

> <CNNaffinity>
6.4396715164

> <CNN_VS>
1.5484139919

> <CNNaffinity_variance>
0.2397327423

$$$$
[H]c1c([H])c([H])c(N([H])[C@@]2([H])c3c([H])c(-c4c([H])c([H])c(C(F)(F)F)c([H])c4[H])c([H])c([H])c3N(C(=O)C([H])([H])[H])[C@@]([H])(C([H])([H])[H])C2([H])[H])c([H])c1[H]


 32 35  0  0  0  0  0  0  0  0999 V2000
  -18.4159    9.5244  -18.3203 C   0  0  0  0  0  0  0  0  0  0  0  0
  -18.9068   10.6776  -17.5549 C   0  0  0  0  0  0  0  0  0  0  0  0
  -19.2202   10.4729  -16.3326 O   0  0  0  0  0  0  0  0  0  0  0  0
  -19.0524   11.9702  -18.0978 N   0  0  0  0  0  0  0  0  0  0  0  0
  -18.5446   12.4390  -19.3287 C   0  0  0  0  0  0  0  0  0  0  0  0
  -17.3609   11.9029  -19.8234 C   0  0  0  0  0  0  0  0  0  0  0  0
  -16.9337   12.3272  -21.0588 C   0  0  0  0  0  0  0  0  0  0  0  0
  -17.5981   13.2509  -21.8428 C   0  0  0  0  0  0  0  0  0  0  0  0
  -18.7602   13.7682  -21.3234 C   0  0  0  0  0  0  0  0  0  0  0  0
  -19.2349   13.3662  -20.0705 C   0  0  0  0  0  0  0  0  0  0  0  0
  -20.4504   14.0398  -19.5956 C   0  0  0  0  0  0  0  0  0  0  0  0
  -20.9445   13.5060  -18.2796 C   0  0  0  0  0  0  0  0  0  0  0  0
  -19.8838   12.9605  -17.3839 C   0  0  0  0  0  0  0  0  0  0  0  0
  -19.0354   13.9295  -16.6497 C   0  0  0  0  0  0  0  0  0  0  0  0
  -17.1237   13.6478  -23.1728 C   0  0  0  0  0  0  0  0  0  0  0  0
  -18.0328   14.0087  -24.1583 C   0  0  0  0  0  0  0  0  0  0  0  0
  -17.6513   14.4409  -25.4088 C   0  0  0  0  0  0  0  0  0  0  0  0
  -16.2956   14.5145  -25.6965 C   0  0  0  0  0  0  0  0  0  0  0  0
  -15.3644   14.1616  -24.7442 C   0  0  0  0  0  0  0  0  0  0  0  0
  -15.7934   13.7295  -23.4873 C   0  0  0  0  0  0  0  0  0  0  0  0
  -15.9008   15.0016  -27.0668 C   0  0  0  0  0  0  0  0  0  0  0  0
  -16.2685   16.3278  -27.2226 F   0  0  0  0  0  0  0  0  0  0  0  0
  -16.4847   14.2797  -28.0635 F   0  0  0  0  0  0  0  0  0  0  0  0
  -14.5093   14.9907  -27.1110 F   0  0  0  0  0  0  0  0  0  0  0  0
  -20.1308   15.4745  -19.4479 N   0  0  0  0  0  0  0  0  0  0  0  0
  -19.4418   15.7221  -18.7040 H   0  0  0  0  0  0  0  0  0  0  0  0
  -20.7470   16.4498  -20.2818 C   0  0  0  0  0  0  0  0  0  0  0  0
  -22.1249   16.5976  -20.2782 C   0  0  0  0  0  0  0  0  0  0  0  0
  -22.6766   17.5897  -21.0517 C   0  0  0  0  0  0  0  0  0  0  0  0
  -21.9451   18.4475  -21.8340 C   0  0  0  0  0  0  0  0  0  0  0  0
  -20.5630   18.3109  -21.8494 C   0  0  0  0  0  0  0  0  0  0  0  0
  -19.9961   17.3208  -21.0774 C   0  0  0  0  0  0  0  0  0  0  0  0
  1  2  1  0  0  0
  2  3  2  0  0  0
  2  4  1  0  0  0
  4  5  1  0  0  0
  5  6  2  0  0  0
  6  7  1  0  0  0
  7  8  2  0  0  0
  8 15  1  0  0  0
 15 16  2  0  0  0
 16 17  1  0  0  0
 17 18  2  0  0  0
 18 21  1  0  0  0
 21 22  1  0  0  0
 21 23  1  0  0  0
 21 24  1  0  0  0
 18 19  1  0  0  0
 19 20  2  0  0  0
  8  9  1  0  0  0
  9 10  2  0  0  0
 10 11  1  0  0  0
 11 25  1  0  0  0
 25 27  1  0  0  0
 27 28  2  0  0  0
 28 29  1  0  0  0
 29 30  2  0  0  0
 30 31  1  0  0  0
 31 32  2  0  0  0
 11 12  1  0  0  0
 12 13  1  0  0  0
 13 14  1  0  0  0
 13  4  1  0  0  0
 10  5  1  0  0  0
 32 27  1  0  0  0
 20 15  1  0  0  0
 25 26  1  0  0  0
M  END
> <minimizedAffinity>
-9.50768

> <CNNscore>
0.2291391939

> <CNNaffinity>
6.4361524582

> <CNN_VS>
1.4747748375

> <CNNaffinity_variance>
0.2480946034

$$$$
[H]c1nc(OC2([H])C([H])([H])[C@@]3([H])N(C(=O)OC(C([H])([H])[H])(C([H])([H])[H])C([H])([H])[H])[C@]([H])(C2([H])[H])C([H])([H])C3([H])[H])c([N+](=O)[O-])c(N([H])c2c([H])c([H])c(S(=O)(=O)C([H])([H])[H])c([H])c2[H])n1


 37 40  0  0  0  0  0  0  0  0999 V2000
  -17.7608   12.8420  -20.1550 C   0  0  0  0  0  0  0  0  0  0  0  0
  -16.6307   11.8557  -20.1457 N   0  0  0  0  0  0  0  0  0  0  0  0
  -16.6318   10.7231  -19.1623 C   0  0  0  0  0  0  0  0  0  0  0  0
  -17.7629   10.5767  -18.1881 N   0  0  0  0  0  0  0  0  0  0  0  0
  -18.8930   11.5630  -18.1974 C   0  0  0  0  0  0  0  0  0  0  0  0
  -18.8920   12.6956  -19.1808 C   0  0  0  0  0  0  0  0  0  0  0  0
  -20.0221   13.6819  -19.1900 N   0  0  0  0  0  0  0  0  0  0  0  0
  -20.0029   14.8533  -18.2532 O   0  0  0  0  0  0  0  0  0  0  0  0
  -21.2925   13.8038  -19.9783 O   0  0  0  0  0  0  0  0  0  0  0  0
  -20.0242   11.4166  -17.2231 N   0  0  0  0  0  0  0  0  0  0  0  0
  -21.3855   11.9426  -17.5700 H   0  0  0  0  0  0  0  0  0  0  0  0
  -19.7940   10.7443  -15.9022 C   0  0  0  0  0  0  0  0  0  0  0  0
  -19.8405   11.5451  -14.6347 C   0  0  0  0  0  0  0  0  0  0  0  0
  -19.6103   10.8727  -13.3138 C   0  0  0  0  0  0  0  0  0  0  0  0
  -19.3336    9.3994  -13.2603 C   0  0  0  0  0  0  0  0  0  0  0  0
  -19.2871    8.5985  -14.5278 C   0  0  0  0  0  0  0  0  0  0  0  0
  -19.5174    9.2709  -15.8487 C   0  0  0  0  0  0  0  0  0  0  0  0
  -19.1034    8.7270  -11.9394 S   0  0  0  0  0  0  0  0  0  0  0  0
  -18.8732    8.0545  -10.6185 C   0  0  0  0  0  0  0  0  0  0  0  0
  -18.9298   10.0667  -11.2876 O   0  0  0  0  0  0  0  0  0  0  0  0
  -19.2769    7.3871  -12.5912 O   0  0  0  0  0  0  0  0  0  0  0  0
  -17.7598   13.9746  -21.1384 O   0  0  0  0  0  0  0  0  0  0  0  0
  -17.3876   13.7475  -22.4100 C   0  0  0  0  0  0  0  0  0  0  0  0
  -18.4229   12.6622  -22.4311 O   0  0  0  0  0  0  0  0  0  0  0  0
  -16.4106   14.2753  -23.4184 N   0  0  0  0  0  0  0  0  0  0  0  0
  -15.4353   15.3937  -23.1996 C   0  0  0  0  0  0  0  0  0  0  0  0
  -14.6593   15.5871  -24.4686 C   0  0  0  0  0  0  0  0  0  0  0  0
  -15.1550   14.5881  -25.4718 C   0  0  0  0  0  0  0  0  0  0  0  0
  -16.2374   13.7774  -24.8227 C   0  0  0  0  0  0  0  0  0  0  0  0
  -17.2709   13.1357  -23.9287 C   0  0  0  0  0  0  0  0  0  0  0  0
  -17.3301   13.7369  -22.5557 C   0  0  0  0  0  0  0  0  0  0  0  0
  -16.4123   14.8659  -22.1912 C   0  0  0  0  0  0  0  0  0  0  0  0
  -17.4468   14.3486  -21.0370 O   0  0  0  0  0  0  0  0  0  0  0  0
  -19.1377   15.3896  -21.7834 C   0  0  0  0  0  0  0  0  0  0  0  0
  -18.0168   15.7225  -20.8438 C   0  0  0  0  0  0  0  0  0  0  0  0
  -16.8960   16.0554  -19.9042 C   0  0  0  0  0  0  0  0  0  0  0  0
  -18.5869   17.0965  -20.6505 C   0  0  0  0  0  0  0  0  0  0  0  0
 34 35  1  0  0  0
 35 36  1  0  0  0
 35 37  1  0  0  0
 35 33  1  0  0  0
 33 23  1  0  0  0
 23 24  2  0  0  0
 23 25  1  0  0  0
 25 26  1  0  0  0
 26 27  1  0  0  0
 27 28  1  0  0  0
 28 29  1  0  0  0
 29 30  1  0  0  0
 30 31  1  0  0  0
 31 22  1  0  0  0
 22  1  1  0  0  0
  1  2  2  0  0  0
  2  3  1  0  0  0
  3  4  2  0  0  0
  4  5  1  0  0  0
  5 10  1  0  0  0
 10 12  1  0  0  0
 12 13  2  0  0  0
 13 14  1  0  0  0
 14 15  2  0  0  0
 15 18  1  0  0  0
 18 19  1  0  0  0
 18 20  2  0  0  0
 18 21  2  0  0  0
 15 16  1  0  0  0
 16 17  2  0  0  0
  5  6  2  0  0  0
  6  7  1  0  0  0
  7  8  2  0  0  0
  7  9  1  0  0  0
 31 32  1  0  0  0
 29 25  1  0  0  0
  6  1  1  0  0  0
 32 26  1  0  0  0
 17 12  1  0  0  0
 10 11  1  0  0  0
M  CHG 1   7   1
M  CHG 1   9  -1
M  END
> <minimizedAffinity>
-8.13564

> <CNNscore>
0.3418455124

> <CNNaffinity>
6.6682291031

> <CNN_VS>
2.2795042992

> <CNNaffinity_variance>
0.0839712024

$$$$
[H]c1nc(OC2([H])C([H])([H])[C@@]3([H])N(C(=O)OC(C([H])([H])[H])(C([H])([H])[H])C([H])([H])[H])[C@]([H])(C2([H])[H])C([H])([H])C3([H])[H])c([N+](=O)[O-])c(N([H])c2c([H])c([H])c(S(=O)(=O)C([H])([H])[H])c([H])c2[H])n1


 37 40  0  0  0  0  0  0  0  0999 V2000
  -17.5492   13.7295  -21.6141 C   0  0  0  0  0  0  0  0  0  0  0  0
  -16.7349   12.5165  -21.9538 N   0  0  0  0  0  0  0  0  0  0  0  0
  -16.8104   11.2954  -21.0860 C   0  0  0  0  0  0  0  0  0  0  0  0
  -17.7001   11.2873  -19.8783 N   0  0  0  0  0  0  0  0  0  0  0  0
  -18.5144   12.5004  -19.5386 C   0  0  0  0  0  0  0  0  0  0  0  0
  -18.4390   13.7214  -20.4065 C   0  0  0  0  0  0  0  0  0  0  0  0
  -19.2533   14.9345  -20.0667 N   0  0  0  0  0  0  0  0  0  0  0  0
  -18.7813   15.8807  -19.0028 O   0  0  0  0  0  0  0  0  0  0  0  0
  -20.5491   15.4951  -20.5732 O   0  0  0  0  0  0  0  0  0  0  0  0
  -19.4042   12.4923  -18.3310 N   0  0  0  0  0  0  0  0  0  0  0  0
  -20.1784   13.7228  -17.9616 H   0  0  0  0  0  0  0  0  0  0  0  0
  -19.5197   11.2537  -17.4929 C   0  0  0  0  0  0  0  0  0  0  0  0
  -20.6113   11.1388  -16.4706 C   0  0  0  0  0  0  0  0  0  0  0  0
  -20.7267    9.9002  -15.6325 C   0  0  0  0  0  0  0  0  0  0  0  0
  -19.7504    8.7763  -15.8167 C   0  0  0  0  0  0  0  0  0  0  0  0
  -18.6588    8.8912  -16.8389 C   0  0  0  0  0  0  0  0  0  0  0  0
  -18.5434   10.1298  -17.6770 C   0  0  0  0  0  0  0  0  0  0  0  0
  -19.8658    7.5377  -14.9786 S   0  0  0  0  0  0  0  0  0  0  0  0
  -19.9812    6.2990  -14.1404 C   0  0  0  0  0  0  0  0  0  0  0  0
  -20.4907    6.8139  -16.1342 O   0  0  0  0  0  0  0  0  0  0  0  0
  -19.2409    8.2615  -13.8228 O   0  0  0  0  0  0  0  0  0  0  0  0
  -17.4739   14.9507  -22.4819 O   0  0  0  0  0  0  0  0  0  0  0  0
  -17.3172   14.8141  -23.8100 C   0  0  0  0  0  0  0  0  0  0  0  0
  -18.6653   14.1564  -23.8171 O   0  0  0  0  0  0  0  0  0  0  0  0
  -16.3087   15.1348  -24.8731 N   0  0  0  0  0  0  0  0  0  0  0  0
  -14.9876   15.8123  -24.6595 C   0  0  0  0  0  0  0  0  0  0  0  0
  -14.3067   15.9305  -25.9908 C   0  0  0  0  0  0  0  0  0  0  0  0
  -15.2069   15.3260  -27.0272 C   0  0  0  0  0  0  0  0  0  0  0  0
  -16.4442   14.8342  -26.3364 C   0  0  0  0  0  0  0  0  0  0  0  0
  -17.5554   14.4445  -25.3916 C   0  0  0  0  0  0  0  0  0  0  0  0
  -17.2800   14.8078  -23.9625 C   0  0  0  0  0  0  0  0  0  0  0  0
  -15.9961   15.4916  -23.5965 C   0  0  0  0  0  0  0  0  0  0  0  0
  -17.0418   15.1772  -22.3810 O   0  0  0  0  0  0  0  0  0  0  0  0
  -18.4548   16.7154  -22.7519 C   0  0  0  0  0  0  0  0  0  0  0  0
  -17.2116   16.5949  -21.9213 C   0  0  0  0  0  0  0  0  0  0  0  0
  -15.9683   16.4745  -21.0908 C   0  0  0  0  0  0  0  0  0  0  0  0
  -17.3813   18.0127  -21.4617 C   0  0  0  0  0  0  0  0  0  0  0  0
 34 35  1  0  0  0
 35 36  1  0  0  0
 35 37  1  0  0  0
 35 33  1  0  0  0
 33 23  1  0  0  0
 23 24  2  0  0  0
 23 25  1  0  0  0
 25 26  1  0  0  0
 26 27  1  0  0  0
 27 28  1  0  0  0
 28 29  1  0  0  0
 29 30  1  0  0  0
 30 31  1  0  0  0
 31 22  1  0  0  0
 22  1  1  0  0  0
  1  2  2  0  0  0
  2  3  1  0  0  0
  3  4  2  0  0  0
  4  5  1  0  0  0
  5 10  1  0  0  0
 10 12  1  0  0  0
 12 13  2  0  0  0
 13 14  1  0  0  0
 14 15  2  0  0  0
 15 18  1  0  0  0
 18 19  1  0  0  0
 18 20  2  0  0  0
 18 21  2  0  0  0
 15 16  1  0  0  0
 16 17  2  0  0  0
  5  6  2  0  0  0
  6  7  1  0  0  0
  7  8  2  0  0  0
  7  9  1  0  0  0
 31 32  1  0  0  0
 29 25  1  0  0  0
  6  1  1  0  0  0
 32 26  1  0  0  0
 17 12  1  0  0  0
 10 11  1  0  0  0
M  CHG 1   7   1
M  CHG 1   9  -1
M  END
> <minimizedAffinity>
-9.14315

> <CNNscore>
0.3006425798

> <CNNaffinity>
6.8466477394

> <CNN_VS>
2.0583939552

> <CNNaffinity_variance>
0.0136113465

$$$$
[H]c1nc(OC2([H])C([H])([H])[C@@]3([H])N(C(=O)OC(C([H])([H])[H])(C([H])([H])[H])C([H])([H])[H])[C@]([H])(C2([H])[H])C([H])([H])C3([H])[H])c([N+](=O)[O-])c(N([H])c2c([H])c([H])c(S(=O)(=O)C([H])([H])[H])c([H])c2[H])n1


 37 40  0  0  0  0  0  0  0  0999 V2000
  -19.9690   11.0001  -15.6636 C   0  0  0  0  0  0  0  0  0  0  0  0
  -20.0905   12.4949  -15.6913 N   0  0  0  0  0  0  0  0  0  0  0  0
  -19.4450   13.2795  -16.7947 C   0  0  0  0  0  0  0  0  0  0  0  0
  -18.6781   12.5694  -17.8707 N   0  0  0  0  0  0  0  0  0  0  0  0
  -18.5567   11.0745  -17.8430 C   0  0  0  0  0  0  0  0  0  0  0  0
  -19.2021   10.2899  -16.7396 C   0  0  0  0  0  0  0  0  0  0  0  0
  -19.0807    8.7951  -16.7119 N   0  0  0  0  0  0  0  0  0  0  0  0
  -17.8070    8.1546  -16.2454 O   0  0  0  0  0  0  0  0  0  0  0  0
  -20.0037    7.6678  -17.0687 O   0  0  0  0  0  0  0  0  0  0  0  0
  -17.7898   10.3644  -18.9190 N   0  0  0  0  0  0  0  0  0  0  0  0
  -17.4310    8.9173  -18.7537 H   0  0  0  0  0  0  0  0  0  0  0  0
  -17.3816   11.1014  -20.1600 C   0  0  0  0  0  0  0  0  0  0  0  0
  -18.2149   12.2428  -20.6628 C   0  0  0  0  0  0  0  0  0  0  0  0
  -17.8067   12.9797  -21.9038 C   0  0  0  0  0  0  0  0  0  0  0  0
  -16.5652   12.5752  -22.6422 C   0  0  0  0  0  0  0  0  0  0  0  0
  -15.7319   11.4337  -22.1394 C   0  0  0  0  0  0  0  0  0  0  0  0
  -16.1401   10.6968  -20.8984 C   0  0  0  0  0  0  0  0  0  0  0  0
  -16.1570   13.3121  -23.8833 S   0  0  0  0  0  0  0  0  0  0  0  0
  -15.7487   14.0491  -25.1244 C   0  0  0  0  0  0  0  0  0  0  0  0
  -17.5371   13.8890  -23.9948 O   0  0  0  0  0  0  0  0  0  0  0  0
  -14.7768   12.7353  -23.7718 O   0  0  0  0  0  0  0  0  0  0  0  0
  -20.6144   10.2154  -14.5602 O   0  0  0  0  0  0  0  0  0  0  0  0
  -20.2716   10.4541  -13.2824 C   0  0  0  0  0  0  0  0  0  0  0  0
  -18.9860    9.7418  -13.5819 O   0  0  0  0  0  0  0  0  0  0  0  0
  -20.8377   11.1124  -12.0592 N   0  0  0  0  0  0  0  0  0  0  0  0
  -22.1741   11.7861  -11.9590 C   0  0  0  0  0  0  0  0  0  0  0  0
  -22.3292   12.3026  -10.5593 C   0  0  0  0  0  0  0  0  0  0  0  0
  -21.0886   11.9480   -9.7944 C   0  0  0  0  0  0  0  0  0  0  0  0
  -20.1668   11.2124  -10.7214 C   0  0  0  0  0  0  0  0  0  0  0  0
  -19.4592   10.5137  -11.8573 C   0  0  0  0  0  0  0  0  0  0  0  0
  -20.2506   10.4917  -13.1314 C   0  0  0  0  0  0  0  0  0  0  0  0
  -21.6081   11.1279  -13.1823 C   0  0  0  0  0  0  0  0  0  0  0  0
  -21.0630   10.4320  -14.5565 O   0  0  0  0  0  0  0  0  0  0  0  0
  -23.0422   10.4268  -15.3199 C   0  0  0  0  0  0  0  0  0  0  0  0
  -22.1156    9.3845  -14.7675 C   0  0  0  0  0  0  0  0  0  0  0  0
  -21.1891    8.3422  -14.2152 C   0  0  0  0  0  0  0  0  0  0  0  0
  -23.1683    8.3369  -14.9786 C   0  0  0  0  0  0  0  0  0  0  0  0
 34 35  1  0  0  0
 35 36  1  0  0  0
 35 37  1  0  0  0
 35 33  1  0  0  0
 33 23  1  0  0  0
 23 24  2  0  0  0
 23 25  1  0  0  0
 25 26  1  0  0  0
 26 27  1  0  0  0
 27 28  1  0  0  0
 28 29  1  0  0  0
 29 30  1  0  0  0
 30 31  1  0  0  0
 31 22  1  0  0  0
 22  1  1  0  0  0
  1  2  2  0  0  0
  2  3  1  0  0  0
  3  4  2  0  0  0
  4  5  1  0  0  0
  5 10  1  0  0  0
 10 12  1  0  0  0
 12 13  2  0  0  0
 13 14  1  0  0  0
 14 15  2  0  0  0
 15 18  1  0  0  0
 18 19  1  0  0  0
 18 20  2  0  0  0
 18 21  2  0  0  0
 15 16  1  0  0  0
 16 17  2  0  0  0
  5  6  2  0  0  0
  6  7  1  0  0  0
  7  8  2  0  0  0
  7  9  1  0  0  0
 31 32  1  0  0  0
 29 25  1  0  0  0
  6  1  1  0  0  0
 32 26  1  0  0  0
 17 12  1  0  0  0
 10 11  1  0  0  0
M  CHG 1   7   1
M  CHG 1   9  -1
M  END
> <minimizedAffinity>
-7.96474

> <CNNscore>
0.1610498130

> <CNNaffinity>
5.8433923721

> <CNN_VS>
0.9410772324

> <CNNaffinity_variance>
0.2154790461

$$$$
[H]c1nc(OC2([H])C([H])([H])[C@@]3([H])N(C(=O)OC(C([H])([H])[H])(C([H])([H])[H])C([H])([H])[H])[C@]([H])(C2([H])[H])C([H])([H])C3([H])[H])c([N+](=O)[O-])c(N([H])c2c([H])c([H])c(S(=O)(=O)C([H])([H])[H])c([H])c2[H])n1


 37 40  0  0  0  0  0  0  0  0999 V2000
  -21.5079   17.5114  -21.0290 C   0  0  0  0  0  0  0  0  0  0  0  0
  -22.2177   16.6363  -20.0389 N   0  0  0  0  0  0  0  0  0  0  0  0
  -21.4658   15.5582  -19.3164 C   0  0  0  0  0  0  0  0  0  0  0  0
  -20.0038   15.3551  -19.5840 N   0  0  0  0  0  0  0  0  0  0  0  0
  -19.2939   16.2302  -20.5741 C   0  0  0  0  0  0  0  0  0  0  0  0
  -20.0459   17.3083  -21.2965 C   0  0  0  0  0  0  0  0  0  0  0  0
  -19.3360   18.1834  -22.2866 N   0  0  0  0  0  0  0  0  0  0  0  0
  -18.4770   19.3155  -21.8064 O   0  0  0  0  0  0  0  0  0  0  0  0
  -19.2615   18.2146  -23.7845 O   0  0  0  0  0  0  0  0  0  0  0  0
  -17.8320   16.0270  -20.8416 N   0  0  0  0  0  0  0  0  0  0  0  0
  -16.8590   15.9885  -19.7007 H   0  0  0  0  0  0  0  0  0  0  0  0
  -17.3432   15.8625  -22.2502 C   0  0  0  0  0  0  0  0  0  0  0  0
  -16.1658   16.6566  -22.7331 C   0  0  0  0  0  0  0  0  0  0  0  0
  -15.6770   16.4920  -24.1416 C   0  0  0  0  0  0  0  0  0  0  0  0
  -16.3657   15.5333  -25.0673 C   0  0  0  0  0  0  0  0  0  0  0  0
  -17.5431   14.7393  -24.5844 C   0  0  0  0  0  0  0  0  0  0  0  0
  -18.0318   14.9039  -23.1758 C   0  0  0  0  0  0  0  0  0  0  0  0
  -15.8769   15.3688  -26.4758 S   0  0  0  0  0  0  0  0  0  0  0  0
  -15.3882   15.2041  -27.8844 C   0  0  0  0  0  0  0  0  0  0  0  0
  -14.7578   16.3286  -26.1997 O   0  0  0  0  0  0  0  0  0  0  0  0
  -16.9961   14.4089  -26.7520 O   0  0  0  0  0  0  0  0  0  0  0  0
  -22.2598   18.5896  -21.7515 O   0  0  0  0  0  0  0  0  0  0  0  0
  -22.7929   18.3290  -22.9578 C   0  0  0  0  0  0  0  0  0  0  0  0
  -23.3509   17.0774  -22.3479 O   0  0  0  0  0  0  0  0  0  0  0  0
  -22.8561   18.9390  -24.3267 N   0  0  0  0  0  0  0  0  0  0  0  0
  -22.2163   20.2287  -24.7478 C   0  0  0  0  0  0  0  0  0  0  0  0
  -22.5351   20.4531  -26.1962 C   0  0  0  0  0  0  0  0  0  0  0  0
  -23.3719   19.3021  -26.6704 C   0  0  0  0  0  0  0  0  0  0  0  0
  -23.5703   18.3663  -25.5150 C   0  0  0  0  0  0  0  0  0  0  0  0
  -23.6025   17.6251  -24.2002 C   0  0  0  0  0  0  0  0  0  0  0  0
  -22.8462   18.3170  -23.1050 C   0  0  0  0  0  0  0  0  0  0  0  0
  -22.1531   19.6187  -23.3788 C   0  0  0  0  0  0  0  0  0  0  0  0
  -22.0366   19.0209  -21.8627 O   0  0  0  0  0  0  0  0  0  0  0  0
  -21.4425   20.9731  -21.2833 C   0  0  0  0  0  0  0  0  0  0  0  0
  -22.6781   20.1425  -21.1009 C   0  0  0  0  0  0  0  0  0  0  0  0
  -23.9137   19.3119  -20.9185 C   0  0  0  0  0  0  0  0  0  0  0  0
  -23.3196   21.2642  -20.3391 C   0  0  0  0  0  0  0  0  0  0  0  0
 34 35  1  0  0  0
 35 36  1  0  0  0
 35 37  1  0  0  0
 35 33  1  0  0  0
 33 23  1  0  0  0
 23 24  2  0  0  0
 23 25  1  0  0  0
 25 26  1  0  0  0
 26 27  1  0  0  0
 27 28  1  0  0  0
 28 29  1  0  0  0
 29 30  1  0  0  0
 30 31  1  0  0  0
 31 22  1  0  0  0
 22  1  1  0  0  0
  1  2  2  0  0  0
  2  3  1  0  0  0
  3  4  2  0  0  0
  4  5  1  0  0  0
  5 10  1  0  0  0
 10 12  1  0  0  0
 12 13  2  0  0  0
 13 14  1  0  0  0
 14 15  2  0  0  0
 15 18  1  0  0  0
 18 19  1  0  0  0
 18 20  2  0  0  0
 18 21  2  0  0  0
 15 16  1  0  0  0
 16 17  2  0  0  0
  5  6  2  0  0  0
  6  7  1  0  0  0
  7  8  2  0  0  0
  7  9  1  0  0  0
 31 32  1  0  0  0
 29 25  1  0  0  0
  6  1  1  0  0  0
 32 26  1  0  0  0
 17 12  1  0  0  0
 10 11  1  0  0  0
M  CHG 1   7   1
M  CHG 1   9  -1
M  END
> <minimizedAffinity>
-8.21937

> <CNNscore>
0.0740284249

> <CNNaffinity>
5.7686820030

> <CNN_VS>
0.4270464480

> <CNNaffinity_variance>
0.5075660944

$$$$
[H]c1nc(OC2([H])C([H])([H])[C@@]3([H])N(C(=O)OC(C([H])([H])[H])(C([H])([H])[H])C([H])([H])[H])[C@]([H])(C2([H])[H])C([H])([H])C3([H])[H])c([N+](=O)[O-])c(N([H])c2c([H])c([H])c(S(=O)(=O)C([H])([H])[H])c([H])c2[H])n1


 37 40  0  0  0  0  0  0  0  0999 V2000
  -17.1399   14.2265  -22.4100 C   0  0  0  0  0  0  0  0  0  0  0  0
  -17.0801   12.8740  -23.0559 N   0  0  0  0  0  0  0  0  0  0  0  0
  -17.3997   11.6461  -22.2559 C   0  0  0  0  0  0  0  0  0  0  0  0
  -17.7792   11.7706  -20.8100 N   0  0  0  0  0  0  0  0  0  0  0  0
  -17.8389   13.1232  -20.1641 C   0  0  0  0  0  0  0  0  0  0  0  0
  -17.5193   14.3511  -20.9641 C   0  0  0  0  0  0  0  0  0  0  0  0
  -17.5791   15.7036  -20.3183 N   0  0  0  0  0  0  0  0  0  0  0  0
  -18.9040   16.3714  -20.0976 O   0  0  0  0  0  0  0  0  0  0  0  0
  -16.5451   16.6502  -19.7846 O   0  0  0  0  0  0  0  0  0  0  0  0
  -18.2184   13.2477  -18.7182 N   0  0  0  0  0  0  0  0  0  0  0  0
  -18.0812   14.5670  -18.0178 H   0  0  0  0  0  0  0  0  0  0  0  0
  -18.7350   12.0529  -17.9729 C   0  0  0  0  0  0  0  0  0  0  0  0
  -18.0800   10.7156  -18.1531 C   0  0  0  0  0  0  0  0  0  0  0  0
  -18.5967    9.5209  -17.4077 C   0  0  0  0  0  0  0  0  0  0  0  0
  -19.7684    9.6635  -16.4820 C   0  0  0  0  0  0  0  0  0  0  0  0
  -20.4233   11.0008  -16.3018 C   0  0  0  0  0  0  0  0  0  0  0  0
  -19.9067   12.1955  -17.0472 C   0  0  0  0  0  0  0  0  0  0  0  0
  -20.2850    8.4688  -15.7366 S   0  0  0  0  0  0  0  0  0  0  0  0
  -20.8018    7.2740  -14.9912 C   0  0  0  0  0  0  0  0  0  0  0  0
  -18.9749    7.7698  -15.9487 O   0  0  0  0  0  0  0  0  0  0  0  0
  -21.5952    9.1677  -15.5245 O   0  0  0  0  0  0  0  0  0  0  0  0
  -16.8203   15.4545  -23.2099 O   0  0  0  0  0  0  0  0  0  0  0  0
  -15.8671   15.4039  -24.1565 C   0  0  0  0  0  0  0  0  0  0  0  0
  -14.8779   15.2818  -23.0355 O   0  0  0  0  0  0  0  0  0  0  0  0
  -15.7484   15.4431  -25.6513 N   0  0  0  0  0  0  0  0  0  0  0  0
  -16.8838   15.5728  -26.6228 C   0  0  0  0  0  0  0  0  0  0  0  0
  -16.3106   15.5694  -28.0090 C   0  0  0  0  0  0  0  0  0  0  0  0
  -14.8208   15.4376  -27.8942 C   0  0  0  0  0  0  0  0  0  0  0  0
  -14.4734   15.3595  -26.4370 C   0  0  0  0  0  0  0  0  0  0  0  0
  -14.4221   15.3052  -24.9292 C   0  0  0  0  0  0  0  0  0  0  0  0
  -15.7717   15.3998  -24.2812 C   0  0  0  0  0  0  0  0  0  0  0  0
  -17.0025   15.5336  -25.1281 C   0  0  0  0  0  0  0  0  0  0  0  0
  -17.2166   15.4984  -23.5086 O   0  0  0  0  0  0  0  0  0  0  0  0
  -19.1833   16.2107  -23.8616 C   0  0  0  0  0  0  0  0  0  0  0  0
  -17.9002   16.8283  -23.3902 C   0  0  0  0  0  0  0  0  0  0  0  0
  -16.6171   17.4459  -22.9188 C   0  0  0  0  0  0  0  0  0  0  0  0
  -18.5838   18.1582  -23.2718 C   0  0  0  0  0  0  0  0  0  0  0  0
 34 35  1  0  0  0
 35 36  1  0  0  0
 35 37  1  0  0  0
 35 33  1  0  0  0
 33 23  1  0  0  0
 23 24  2  0  0  0
 23 25  1  0  0  0
 25 26  1  0  0  0
 26 27  1  0  0  0
 27 28  1  0  0  0
 28 29  1  0  0  0
 29 30  1  0  0  0
 30 31  1  0  0  0
 31 22  1  0  0  0
 22  1  1  0  0  0
  1  2  2  0  0  0
  2  3  1  0  0  0
  3  4  2  0  0  0
  4  5  1  0  0  0
  5 10  1  0  0  0
 10 12  1  0  0  0
 12 13  2  0  0  0
 13 14  1  0  0  0
 14 15  2  0  0  0
 15 18  1  0  0  0
 18 19  1  0  0  0
 18 20  2  0  0  0
 18 21  2  0  0  0
 15 16  1  0  0  0
 16 17  2  0  0  0
  5  6  2  0  0  0
  6  7  1  0  0  0
  7  8  2  0  0  0
  7  9  1  0  0  0
 31 32  1  0  0  0
 29 25  1  0  0  0
  6  1  1  0  0  0
 32 26  1  0  0  0
 17 12  1  0  0  0
 10 11  1  0  0  0
M  CHG 1   7   1
M  CHG 1   9  -1
M  END
> <minimizedAffinity>
-8.71471

> <CNNscore>
0.0722356066

> <CNNaffinity>
6.5272188187

> <CNN_VS>
0.4714976251

> <CNNaffinity_variance>
0.1687326133

$$$$
[H]c1nc(OC2([H])C([H])([H])[C@@]3([H])N(C(=O)OC(C([H])([H])[H])(C([H])([H])[H])C([H])([H])[H])[C@]([H])(C2([H])[H])C([H])([H])C3([H])[H])c([N+](=O)[O-])c(N([H])c2c([H])c([H])c(S(=O)(=O)C([H])([H])[H])c([H])c2[H])n1


 37 40  0  0  0  0  0  0  0  0999 V2000
  -21.5096   17.5064  -21.0083 C   0  0  0  0  0  0  0  0  0  0  0  0
  -22.1987   16.5873  -20.0438 N   0  0  0  0  0  0  0  0  0  0  0  0
  -21.4212   15.5084  -19.3500 C   0  0  0  0  0  0  0  0  0  0  0  0
  -19.9544   15.3486  -19.6208 N   0  0  0  0  0  0  0  0  0  0  0  0
  -19.2654   16.2677  -20.5854 C   0  0  0  0  0  0  0  0  0  0  0  0
  -20.0429   17.3466  -21.2791 C   0  0  0  0  0  0  0  0  0  0  0  0
  -19.3539   18.2657  -22.2437 N   0  0  0  0  0  0  0  0  0  0  0  0
  -18.5415   19.4180  -21.7316 O   0  0  0  0  0  0  0  0  0  0  0  0
  -19.2637   18.3288  -23.7397 O   0  0  0  0  0  0  0  0  0  0  0  0
  -17.7987   16.1079  -20.8561 N   0  0  0  0  0  0  0  0  0  0  0  0
  -16.8193   16.1322  -19.7202 H   0  0  0  0  0  0  0  0  0  0  0  0
  -17.3114   15.9238  -22.2628 C   0  0  0  0  0  0  0  0  0  0  0  0
  -18.0184   14.9734  -23.1831 C   0  0  0  0  0  0  0  0  0  0  0  0
  -17.5312   14.7894  -24.5897 C   0  0  0  0  0  0  0  0  0  0  0  0
  -16.3368   15.5557  -25.0761 C   0  0  0  0  0  0  0  0  0  0  0  0
  -15.6299   16.5060  -24.1558 C   0  0  0  0  0  0  0  0  0  0  0  0
  -16.1171   16.6901  -22.7491 C   0  0  0  0  0  0  0  0  0  0  0  0
  -15.8496   15.3716  -26.4827 S   0  0  0  0  0  0  0  0  0  0  0  0
  -15.3623   15.1875  -27.8894 C   0  0  0  0  0  0  0  0  0  0  0  0
  -14.6833   16.2704  -26.1964 O   0  0  0  0  0  0  0  0  0  0  0  0
  -17.0158   14.4728  -26.7691 O   0  0  0  0  0  0  0  0  0  0  0  0
  -22.2871   18.5853  -21.7022 O   0  0  0  0  0  0  0  0  0  0  0  0
  -22.8073   18.3476  -22.9188 C   0  0  0  0  0  0  0  0  0  0  0  0
  -23.3748   17.0865  -22.3377 O   0  0  0  0  0  0  0  0  0  0  0  0
  -22.8540   18.9821  -24.2772 N   0  0  0  0  0  0  0  0  0  0  0  0
  -22.2068   20.2776  -24.6679 C   0  0  0  0  0  0  0  0  0  0  0  0
  -22.5089   20.5287  -26.1156 C   0  0  0  0  0  0  0  0  0  0  0  0
  -23.3428   19.3883  -26.6196 C   0  0  0  0  0  0  0  0  0  0  0  0
  -23.5561   18.4325  -25.4834 C   0  0  0  0  0  0  0  0  0  0  0  0
  -23.6046   17.6679  -24.1825 C   0  0  0  0  0  0  0  0  0  0  0  0
  -22.8590   18.3383  -23.0668 C   0  0  0  0  0  0  0  0  0  0  0  0
  -22.1601   19.6431  -23.3095 C   0  0  0  0  0  0  0  0  0  0  0  0
  -22.0618   19.0179  -21.8031 O   0  0  0  0  0  0  0  0  0  0  0  0
  -23.9440   19.2461  -20.8517 C   0  0  0  0  0  0  0  0  0  0  0  0
  -22.7223   20.1028  -21.0052 C   0  0  0  0  0  0  0  0  0  0  0  0
  -21.5007   20.9595  -21.1586 C   0  0  0  0  0  0  0  0  0  0  0  0
  -23.3829   21.1877  -20.2072 C   0  0  0  0  0  0  0  0  0  0  0  0
 34 35  1  0  0  0
 35 36  1  0  0  0
 35 37  1  0  0  0
 35 33  1  0  0  0
 33 23  1  0  0  0
 23 24  2  0  0  0
 23 25  1  0  0  0
 25 26  1  0  0  0
 26 27  1  0  0  0
 27 28  1  0  0  0
 28 29  1  0  0  0
 29 30  1  0  0  0
 30 31  1  0  0  0
 31 22  1  0  0  0
 22  1  1  0  0  0
  1  2  2  0  0  0
  2  3  1  0  0  0
  3  4  2  0  0  0
  4  5  1  0  0  0
  5 10  1  0  0  0
 10 12  1  0  0  0
 12 13  2  0  0  0
 13 14  1  0  0  0
 14 15  2  0  0  0
 15 18  1  0  0  0
 18 19  1  0  0  0
 18 20  2  0  0  0
 18 21  2  0  0  0
 15 16  1  0  0  0
 16 17  2  0  0  0
  5  6  2  0  0  0
  6  7  1  0  0  0
  7  8  2  0  0  0
  7  9  1  0  0  0
 31 32  1  0  0  0
 29 25  1  0  0  0
  6  1  1  0  0  0
 32 26  1  0  0  0
 17 12  1  0  0  0
 10 11  1  0  0  0
M  CHG 1   7   1
M  CHG 1   9  -1
M  END
> <minimizedAffinity>
-8.22131

> <CNNscore>
0.0684524029

> <CNNaffinity>
5.7690553665

> <CNN_VS>
0.3949057162

> <CNNaffinity_variance>
0.4627906382

$$$$
[H]c1nc(OC2([H])C([H])([H])[C@@]3([H])N(C(=O)OC(C([H])([H])[H])(C([H])([H])[H])C([H])([H])[H])[C@]([H])(C2([H])[H])C([H])([H])C3([H])[H])c([N+](=O)[O-])c(N([H])c2c([H])c([H])c(S(=O)(=O)C([H])([H])[H])c([H])c2[H])n1


 37 40  0  0  0  0  0  0  0  0999 V2000
  -20.1283   16.3863  -20.3567 C   0  0  0  0  0  0  0  0  0  0  0  0
  -21.1331   15.4426  -19.7654 N   0  0  0  0  0  0  0  0  0  0  0  0
  -20.8495   13.9701  -19.7310 C   0  0  0  0  0  0  0  0  0  0  0  0
  -19.5610   13.4413  -20.2880 N   0  0  0  0  0  0  0  0  0  0  0  0
  -18.5561   14.3850  -20.8792 C   0  0  0  0  0  0  0  0  0  0  0  0
  -18.8398   15.8575  -20.9136 C   0  0  0  0  0  0  0  0  0  0  0  0
  -17.8350   16.8013  -21.5049 N   0  0  0  0  0  0  0  0  0  0  0  0
  -16.6560   17.2475  -20.6918 O   0  0  0  0  0  0  0  0  0  0  0  0
  -17.6987   17.4783  -22.8365 O   0  0  0  0  0  0  0  0  0  0  0  0
  -17.2676   13.8562  -21.4362 N   0  0  0  0  0  0  0  0  0  0  0  0
  -16.3826   12.9919  -20.5879 H   0  0  0  0  0  0  0  0  0  0  0  0
  -16.8642   14.1918  -22.8414 C   0  0  0  0  0  0  0  0  0  0  0  0
  -15.4729   14.6740  -23.1275 C   0  0  0  0  0  0  0  0  0  0  0  0
  -15.0697   15.0095  -24.5328 C   0  0  0  0  0  0  0  0  0  0  0  0
  -16.0576   14.8629  -25.6519 C   0  0  0  0  0  0  0  0  0  0  0  0
  -17.4489   14.3808  -25.3658 C   0  0  0  0  0  0  0  0  0  0  0  0
  -17.8522   14.0452  -23.9605 C   0  0  0  0  0  0  0  0  0  0  0  0
  -15.6544   15.1985  -27.0571 S   0  0  0  0  0  0  0  0  0  0  0  0
  -15.2510   15.5341  -28.4624 C   0  0  0  0  0  0  0  0  0  0  0  0
  -16.7926   14.3738  -27.5808 O   0  0  0  0  0  0  0  0  0  0  0  0
  -14.5161   16.0233  -26.5335 O   0  0  0  0  0  0  0  0  0  0  0  0
  -20.4119   17.8589  -20.3911 O   0  0  0  0  0  0  0  0  0  0  0  0
  -20.8821   18.4156  -21.5207 C   0  0  0  0  0  0  0  0  0  0  0  0
  -21.9032   17.3169  -21.5380 O   0  0  0  0  0  0  0  0  0  0  0  0
  -20.5917   19.5825  -22.4175 N   0  0  0  0  0  0  0  0  0  0  0  0
  -19.4996   20.5924  -22.2246 C   0  0  0  0  0  0  0  0  0  0  0  0
  -19.5753   21.5783  -23.3525 C   0  0  0  0  0  0  0  0  0  0  0  0
  -20.7143   21.1777  -24.2425 C   0  0  0  0  0  0  0  0  0  0  0  0
  -21.3425   19.9442  -23.6647 C   0  0  0  0  0  0  0  0  0  0  0  0
  -21.7628   18.7317  -22.8694 C   0  0  0  0  0  0  0  0  0  0  0  0
  -20.9216   18.4952  -21.6502 C   0  0  0  0  0  0  0  0  0  0  0  0
  -19.7900   19.4256  -21.3278 C   0  0  0  0  0  0  0  0  0  0  0  0
  -20.0410   18.1791  -20.3015 O   0  0  0  0  0  0  0  0  0  0  0  0
  -18.8572   19.2690  -18.9192 C   0  0  0  0  0  0  0  0  0  0  0  0
  -20.3163   18.9433  -19.0405 C   0  0  0  0  0  0  0  0  0  0  0  0
  -21.7755   18.6177  -19.1618 C   0  0  0  0  0  0  0  0  0  0  0  0
  -20.5917   19.7076  -17.7795 C   0  0  0  0  0  0  0  0  0  0  0  0
 34 35  1  0  0  0
 35 36  1  0  0  0
 35 37  1  0  0  0
 35 33  1  0  0  0
 33 23  1  0  0  0
 23 24  2  0  0  0
 23 25  1  0  0  0
 25 26  1  0  0  0
 26 27  1  0  0  0
 27 28  1  0  0  0
 28 29  1  0  0  0
 29 30  1  0  0  0
 30 31  1  0  0  0
 31 22  1  0  0  0
 22  1  1  0  0  0
  1  2  2  0  0  0
  2  3  1  0  0  0
  3  4  2  0  0  0
  4  5  1  0  0  0
  5 10  1  0  0  0
 10 12  1  0  0  0
 12 13  2  0  0  0
 13 14  1  0  0  0
 14 15  2  0  0  0
 15 18  1  0  0  0
 18 19  1  0  0  0
 18 20  2  0  0  0
 18 21  2  0  0  0
 15 16  1  0  0  0
 16 17  2  0  0  0
  5  6  2  0  0  0
  6  7  1  0  0  0
  7  8  2  0  0  0
  7  9  1  0  0  0
 31 32  1  0  0  0
 29 25  1  0  0  0
  6  1  1  0  0  0
 32 26  1  0  0  0
 17 12  1  0  0  0
 10 11  1  0  0  0
M  CHG 1   7   1
M  CHG 1   9  -1
M  END
> <minimizedAffinity>
-7.89508

> <CNNscore>
0.0628058165

> <CNNaffinity>
5.7944159508

> <CNN_VS>
0.3639230132

> <CNNaffinity_variance>
0.6285256147

$$$$
[H]c1nc(OC2([H])C([H])([H])[C@@]3([H])N(C(=O)OC(C([H])([H])[H])(C([H])([H])[H])C([H])([H])[H])[C@]([H])(C2([H])[H])C([H])([H])C3([H])[H])c([N+](=O)[O-])c(N([H])c2c([H])c([H])c(S(=O)(=O)C([H])([H])[H])c([H])c2[H])n1


 37 40  0  0  0  0  0  0  0  0999 V2000
  -18.1822   15.9448  -19.9038 C   0  0  0  0  0  0  0  0  0  0  0  0
  -16.7066   16.1757  -20.0431 N   0  0  0  0  0  0  0  0  0  0  0  0
  -16.1876   17.5510  -20.3412 C   0  0  0  0  0  0  0  0  0  0  0  0
  -17.1440   18.6956  -20.5001 N   0  0  0  0  0  0  0  0  0  0  0  0
  -18.6196   18.4647  -20.3608 C   0  0  0  0  0  0  0  0  0  0  0  0
  -19.1387   17.0894  -20.0627 C   0  0  0  0  0  0  0  0  0  0  0  0
  -20.6142   16.8585  -19.9234 N   0  0  0  0  0  0  0  0  0  0  0  0
  -21.4093   16.3608  -21.0940 O   0  0  0  0  0  0  0  0  0  0  0  0
  -21.5918   17.0156  -18.7966 O   0  0  0  0  0  0  0  0  0  0  0  0
  -19.5761   19.6093  -20.5197 N   0  0  0  0  0  0  0  0  0  0  0  0
  -20.0544   20.3601  -19.3124 H   0  0  0  0  0  0  0  0  0  0  0  0
  -20.0542   20.0029  -21.8859 C   0  0  0  0  0  0  0  0  0  0  0  0
  -19.2091   20.8921  -22.7490 C   0  0  0  0  0  0  0  0  0  0  0  0
  -19.6873   21.2857  -24.1151 C   0  0  0  0  0  0  0  0  0  0  0  0
  -21.0107   20.7901  -24.6182 C   0  0  0  0  0  0  0  0  0  0  0  0
  -21.8558   19.9008  -23.7551 C   0  0  0  0  0  0  0  0  0  0  0  0
  -21.3776   19.5073  -22.3890 C   0  0  0  0  0  0  0  0  0  0  0  0
  -21.4888   21.1837  -25.9843 S   0  0  0  0  0  0  0  0  0  0  0  0
  -21.9671   21.5773  -27.3506 C   0  0  0  0  0  0  0  0  0  0  0  0
  -20.0911   21.5775  -26.3602 O   0  0  0  0  0  0  0  0  0  0  0  0
  -22.8866   20.7899  -25.6085 O   0  0  0  0  0  0  0  0  0  0  0  0
  -18.7013   14.5695  -19.6057 O   0  0  0  0  0  0  0  0  0  0  0  0
  -18.2601   13.5227  -20.3244 C   0  0  0  0  0  0  0  0  0  0  0  0
  -18.8468   14.2060  -21.5240 O   0  0  0  0  0  0  0  0  0  0  0  0
  -17.5213   12.2338  -20.1170 N   0  0  0  0  0  0  0  0  0  0  0  0
  -17.0043   11.7147  -18.8081 C   0  0  0  0  0  0  0  0  0  0  0  0
  -16.3332   10.3979  -19.0642 C   0  0  0  0  0  0  0  0  0  0  0  0
  -16.4354   10.1031  -20.5314 C   0  0  0  0  0  0  0  0  0  0  0  0
  -17.1697   11.2378  -21.1820 C   0  0  0  0  0  0  0  0  0  0  0  0
  -17.9201   12.4930  -21.5568 C   0  0  0  0  0  0  0  0  0  0  0  0
  -18.2010   13.3927  -20.3899 C   0  0  0  0  0  0  0  0  0  0  0  0
  -17.7431   13.0035  -19.0155 C   0  0  0  0  0  0  0  0  0  0  0  0
  -18.5410   14.4223  -19.1576 O   0  0  0  0  0  0  0  0  0  0  0  0
  -18.7298   14.4515  -17.0449 C   0  0  0  0  0  0  0  0  0  0  0  0
  -19.6277   14.0718  -18.1848 C   0  0  0  0  0  0  0  0  0  0  0  0
  -20.5257   13.6922  -19.3248 C   0  0  0  0  0  0  0  0  0  0  0  0
  -20.7145   13.7213  -17.2121 C   0  0  0  0  0  0  0  0  0  0  0  0
 34 35  1  0  0  0
 35 36  1  0  0  0
 35 37  1  0  0  0
 35 33  1  0  0  0
 33 23  1  0  0  0
 23 24  2  0  0  0
 23 25  1  0  0  0
 25 26  1  0  0  0
 26 27  1  0  0  0
 27 28  1  0  0  0
 28 29  1  0  0  0
 29 30  1  0  0  0
 30 31  1  0  0  0
 31 22  1  0  0  0
 22  1  1  0  0  0
  1  2  2  0  0  0
  2  3  1  0  0  0
  3  4  2  0  0  0
  4  5  1  0  0  0
  5 10  1  0  0  0
 10 12  1  0  0  0
 12 13  2  0  0  0
 13 14  1  0  0  0
 14 15  2  0  0  0
 15 18  1  0  0  0
 18 19  1  0  0  0
 18 20  2  0  0  0
 18 21  2  0  0  0
 15 16  1  0  0  0
 16 17  2  0  0  0
  5  6  2  0  0  0
  6  7  1  0  0  0
  7  8  2  0  0  0
  7  9  1  0  0  0
 31 32  1  0  0  0
 29 25  1  0  0  0
  6  1  1  0  0  0
 32 26  1  0  0  0
 17 12  1  0  0  0
 10 11  1  0  0  0
M  CHG 1   7   1
M  CHG 1   9  -1
M  END
> <minimizedAffinity>
-7.98025

> <CNNscore>
0.0505173802

> <CNNaffinity>
5.8359184265

> <CNN_VS>
0.2948153019

> <CNNaffinity_variance>
0.1537632197

$$$$
[H]c1nc(OC2([H])C([H])([H])[C@@]3([H])N(C(=O)OC(C([H])([H])[H])(C([H])([H])[H])C([H])([H])[H])[C@]([H])(C2([H])[H])C([H])([H])C3([H])[H])c([N+](=O)[O-])c(N([H])c2c([H])c([H])c(S(=O)(=O)C([H])([H])[H])c([H])c2[H])n1


 37 40  0  0  0  0  0  0  0  0999 V2000
  -20.0376   16.2229  -20.2193 C   0  0  0  0  0  0  0  0  0  0  0  0
  -21.0574   15.2370  -19.7314 N   0  0  0  0  0  0  0  0  0  0  0  0
  -20.7821   13.7654  -19.8241 C   0  0  0  0  0  0  0  0  0  0  0  0
  -19.4871   13.2797  -20.4047 N   0  0  0  0  0  0  0  0  0  0  0  0
  -18.4673   14.2657  -20.8926 C   0  0  0  0  0  0  0  0  0  0  0  0
  -18.7426   15.7372  -20.7999 C   0  0  0  0  0  0  0  0  0  0  0  0
  -17.7229   16.7232  -21.2878 N   0  0  0  0  0  0  0  0  0  0  0  0
  -16.5823   17.1240  -20.3998 O   0  0  0  0  0  0  0  0  0  0  0  0
  -17.5382   17.4847  -22.5668 O   0  0  0  0  0  0  0  0  0  0  0  0
  -17.1723   13.7800  -21.4732 N   0  0  0  0  0  0  0  0  0  0  0  0
  -16.2487   12.9366  -20.6452 H   0  0  0  0  0  0  0  0  0  0  0  0
  -16.8010   14.1377  -22.8818 C   0  0  0  0  0  0  0  0  0  0  0  0
  -17.8076   13.9887  -23.9838 C   0  0  0  0  0  0  0  0  0  0  0  0
  -17.4363   14.3465  -25.3923 C   0  0  0  0  0  0  0  0  0  0  0  0
  -16.0581   14.8533  -25.6989 C   0  0  0  0  0  0  0  0  0  0  0  0
  -15.0515   15.0024  -24.5969 C   0  0  0  0  0  0  0  0  0  0  0  0
  -15.4229   14.6446  -23.1884 C   0  0  0  0  0  0  0  0  0  0  0  0
  -15.6867   15.2111  -27.1074 S   0  0  0  0  0  0  0  0  0  0  0  0
  -15.3154   15.5689  -28.5161 C   0  0  0  0  0  0  0  0  0  0  0  0
  -14.5685   16.0693  -26.5947 O   0  0  0  0  0  0  0  0  0  0  0  0
  -16.8050   14.3529  -27.6203 O   0  0  0  0  0  0  0  0  0  0  0  0
  -20.3128   17.6945  -20.1266 O   0  0  0  0  0  0  0  0  0  0  0  0
  -21.4623   18.1893  -20.6178 C   0  0  0  0  0  0  0  0  0  0  0  0
  -20.9384   17.8306  -21.9769 O   0  0  0  0  0  0  0  0  0  0  0  0
  -22.7292   18.8217  -20.1230 N   0  0  0  0  0  0  0  0  0  0  0  0
  -23.0732   19.1027  -18.6903 C   0  0  0  0  0  0  0  0  0  0  0  0
  -24.4312   19.7389  -18.6558 C   0  0  0  0  0  0  0  0  0  0  0  0
  -24.9265   19.8511  -20.0672 C   0  0  0  0  0  0  0  0  0  0  0  0
  -23.8746   19.2843  -20.9740 C   0  0  0  0  0  0  0  0  0  0  0  0
  -22.6641   18.6646  -21.6298 C   0  0  0  0  0  0  0  0  0  0  0  0
  -21.6017   18.2512  -20.6548 C   0  0  0  0  0  0  0  0  0  0  0  0
  -21.8063   18.4702  -19.1851 C   0  0  0  0  0  0  0  0  0  0  0  0
  -20.3999   17.7758  -19.6430 O   0  0  0  0  0  0  0  0  0  0  0  0
  -19.3188   19.4637  -20.3376 C   0  0  0  0  0  0  0  0  0  0  0  0
  -19.5255   18.8126  -19.0021 C   0  0  0  0  0  0  0  0  0  0  0  0
  -19.7322   18.1615  -17.6667 C   0  0  0  0  0  0  0  0  0  0  0  0
  -18.6511   19.8493  -18.3613 C   0  0  0  0  0  0  0  0  0  0  0  0
 34 35  1  0  0  0
 35 36  1  0  0  0
 35 37  1  0  0  0
 35 33  1  0  0  0
 33 23  1  0  0  0
 23 24  2  0  0  0
 23 25  1  0  0  0
 25 26  1  0  0  0
 26 27  1  0  0  0
 27 28  1  0  0  0
 28 29  1  0  0  0
 29 30  1  0  0  0
 30 31  1  0  0  0
 31 22  1  0  0  0
 22  1  1  0  0  0
  1  2  2  0  0  0
  2  3  1  0  0  0
  3  4  2  0  0  0
  4  5  1  0  0  0
  5 10  1  0  0  0
 10 12  1  0  0  0
 12 13  2  0  0  0
 13 14  1  0  0  0
 14 15  2  0  0  0
 15 18  1  0  0  0
 18 19  1  0  0  0
 18 20  2  0  0  0
 18 21  2  0  0  0
 15 16  1  0  0  0
 16 17  2  0  0  0
  5  6  2  0  0  0
  6  7  1  0  0  0
  7  8  2  0  0  0
  7  9  1  0  0  0
 31 32  1  0  0  0
 29 25  1  0  0  0
  6  1  1  0  0  0
 32 26  1  0  0  0
 17 12  1  0  0  0
 10 11  1  0  0  0
M  CHG 1   7   1
M  CHG 1   9  -1
M  END
> <minimizedAffinity>
-7.47189

> <CNNscore>
0.0492314287

> <CNNaffinity>
5.7721395493

> <CNN_VS>
0.2841706872

> <CNNaffinity_variance>
0.3135926723

$$$$
[H]c1c([H])c(N([H])c2nc(N3C([H])([H])C([H])([H])C([H])([H])C3([H])[H])c3c([H])c([H])c([H])c([H])c3n2)c([H])c([H])c1OC([H])([H])[H]


 25 28  0  0  0  0  0  0  0  0999 V2000
  -16.7384   12.1320  -21.5913 C   0  0  0  0  0  0  0  0  0  0  0  0
  -17.3993   13.2478  -21.2719 N   0  0  0  0  0  0  0  0  0  0  0  0
  -18.1760   13.3739  -20.1764 C   0  0  0  0  0  0  0  0  0  0  0  0
  -18.2932   12.2864  -19.3413 C   0  0  0  0  0  0  0  0  0  0  0  0
  -19.0709   12.3285  -18.2145 C   0  0  0  0  0  0  0  0  0  0  0  0
  -19.1519   11.1966  -17.4214 C   0  0  0  0  0  0  0  0  0  0  0  0
  -18.4863   10.0370  -17.7182 C   0  0  0  0  0  0  0  0  0  0  0  0
  -17.7064    9.9776  -18.8401 C   0  0  0  0  0  0  0  0  0  0  0  0
  -17.6111   11.1059  -19.6530 C   0  0  0  0  0  0  0  0  0  0  0  0
  -16.8698   11.0969  -20.7646 N   0  0  0  0  0  0  0  0  0  0  0  0
  -18.8163   14.6199  -19.9027 N   0  0  0  0  0  0  0  0  0  0  0  0
  -18.2815   15.7271  -19.1769 C   0  0  0  0  0  0  0  0  0  0  0  0
  -19.0763   16.9514  -19.6374 C   0  0  0  0  0  0  0  0  0  0  0  0
  -19.9116   16.4286  -20.7577 C   0  0  0  0  0  0  0  0  0  0  0  0
  -20.1471   14.9729  -20.3365 C   0  0  0  0  0  0  0  0  0  0  0  0
  -15.9623   12.0871  -22.7685 N   0  0  0  0  0  0  0  0  0  0  0  0
  -15.4321   11.1765  -22.9229 H   0  0  0  0  0  0  0  0  0  0  0  0
  -15.7039   14.9781  -25.8826 C   0  0  0  0  0  0  0  0  0  0  0  0
  -14.7114   14.8847  -24.9405 C   0  0  0  0  0  0  0  0  0  0  0  0
  -14.7601   13.9517  -23.8910 C   0  0  0  0  0  0  0  0  0  0  0  0
  -15.8096   13.0808  -23.7552 C   0  0  0  0  0  0  0  0  0  0  0  0
  -16.8157   13.1926  -24.7293 C   0  0  0  0  0  0  0  0  0  0  0  0
  -16.7607   14.1084  -25.7530 C   0  0  0  0  0  0  0  0  0  0  0  0
  -15.9430   15.5236  -28.2415 C   0  0  0  0  0  0  0  0  0  0  0  0
  -15.6421   15.9037  -26.9126 O   0  0  0  0  0  0  0  0  0  0  0  0
 24 25  1  0  0  0
 25 18  1  0  0  0
 18 19  2  0  0  0
 19 20  1  0  0  0
 20 21  2  0  0  0
 21 16  1  0  0  0
 16  1  1  0  0  0
  1  2  2  0  0  0
  2  3  1  0  0  0
  3 11  1  0  0  0
 11 12  1  0  0  0
 12 13  1  0  0  0
 13 14  1  0  0  0
 14 15  1  0  0  0
  3  4  2  0  0  0
  4  5  1  0  0  0
  5  6  2  0  0  0
  6  7  1  0  0  0
  7  8  2  0  0  0
  8  9  1  0  0  0
  9 10  2  0  0  0
 21 22  1  0  0  0
 22 23  2  0  0  0
 23 18  1  0  0  0
 10  1  1  0  0  0
 15 11  1  0  0  0
  9  4  1  0  0  0
 16 17  1  0  0  0
M  END
> <minimizedAffinity>
-8.39009

> <CNNscore>
0.8215664625

> <CNNaffinity>
6.8598990440

> <CNN_VS>
5.6358628273

> <CNNaffinity_variance>
0.0853184462

$$$$
[H]c1c([H])c(N([H])c2nc(N3C([H])([H])C([H])([H])C([H])([H])C3([H])[H])c3c([H])c([H])c([H])c([H])c3n2)c([H])c([H])c1OC([H])([H])[H]


 25 28  0  0  0  0  0  0  0  0999 V2000
  -17.1068   11.8348  -20.8546 C   0  0  0  0  0  0  0  0  0  0  0  0
  -17.8390   12.9316  -20.6438 N   0  0  0  0  0  0  0  0  0  0  0  0
  -18.6931   13.0781  -19.6101 C   0  0  0  0  0  0  0  0  0  0  0  0
  -18.8155   12.0333  -18.7228 C   0  0  0  0  0  0  0  0  0  0  0  0
  -19.6687   12.0976  -17.6531 C   0  0  0  0  0  0  0  0  0  0  0  0
  -19.7501   11.0081  -16.8028 C   0  0  0  0  0  0  0  0  0  0  0  0
  -19.0126    9.8691  -16.9882 C   0  0  0  0  0  0  0  0  0  0  0  0
  -18.1568    9.7878  -18.0518 C   0  0  0  0  0  0  0  0  0  0  0  0
  -18.0595   10.8734  -18.9208 C   0  0  0  0  0  0  0  0  0  0  0  0
  -17.2453   10.8411  -19.9796 N   0  0  0  0  0  0  0  0  0  0  0  0
  -19.4079   14.3032  -19.4510 N   0  0  0  0  0  0  0  0  0  0  0  0
  -18.9702   15.4787  -18.7687 C   0  0  0  0  0  0  0  0  0  0  0  0
  -19.7957   16.6299  -19.3482 C   0  0  0  0  0  0  0  0  0  0  0  0
  -20.5388   15.9975  -20.4770 C   0  0  0  0  0  0  0  0  0  0  0  0
  -20.7271   14.5596  -19.9780 C   0  0  0  0  0  0  0  0  0  0  0  0
  -16.2516   11.7648  -21.9744 N   0  0  0  0  0  0  0  0  0  0  0  0
  -15.5156   10.9964  -21.9307 H   0  0  0  0  0  0  0  0  0  0  0  0
  -16.0252   14.2920  -25.3927 C   0  0  0  0  0  0  0  0  0  0  0  0
  -17.1984   13.6539  -25.0799 C   0  0  0  0  0  0  0  0  0  0  0  0
  -17.3155   12.8044  -23.9668 C   0  0  0  0  0  0  0  0  0  0  0  0
  -16.2553   12.5694  -23.1308 C   0  0  0  0  0  0  0  0  0  0  0  0
  -15.0630   13.2315  -23.4681 C   0  0  0  0  0  0  0  0  0  0  0  0
  -14.9566   14.0609  -24.5592 C   0  0  0  0  0  0  0  0  0  0  0  0
  -14.7406   15.8629  -26.7349 C   0  0  0  0  0  0  0  0  0  0  0  0
  -15.9248   15.1274  -26.4943 O   0  0  0  0  0  0  0  0  0  0  0  0
 24 25  1  0  0  0
 25 18  1  0  0  0
 18 19  2  0  0  0
 19 20  1  0  0  0
 20 21  2  0  0  0
 21 16  1  0  0  0
 16  1  1  0  0  0
  1  2  2  0  0  0
  2  3  1  0  0  0
  3 11  1  0  0  0
 11 12  1  0  0  0
 12 13  1  0  0  0
 13 14  1  0  0  0
 14 15  1  0  0  0
  3  4  2  0  0  0
  4  5  1  0  0  0
  5  6  2  0  0  0
  6  7  1  0  0  0
  7  8  2  0  0  0
  8  9  1  0  0  0
  9 10  2  0  0  0
 21 22  1  0  0  0
 22 23  2  0  0  0
 23 18  1  0  0  0
 10  1  1  0  0  0
 15 11  1  0  0  0
  9  4  1  0  0  0
 16 17  1  0  0  0
M  END
> <minimizedAffinity>
-7.98303

> <CNNscore>
0.7201843262

> <CNNaffinity>
6.6467003822

> <CNN_VS>
4.7868494987

> <CNNaffinity_variance>
0.1465252042

$$$$
[H]c1c([H])c(N([H])c2nc(N3C([H])([H])C([H])([H])C([H])([H])C3([H])[H])c3c([H])c([H])c([H])c([H])c3n2)c([H])c([H])c1OC([H])([H])[H]


 25 28  0  0  0  0  0  0  0  0999 V2000
  -17.7952   10.2681  -18.5565 C   0  0  0  0  0  0  0  0  0  0  0  0
  -18.3063   11.4995  -18.4777 N   0  0  0  0  0  0  0  0  0  0  0  0
  -19.2994   11.8487  -17.6343 C   0  0  0  0  0  0  0  0  0  0  0  0
  -19.8149   10.8760  -16.8084 C   0  0  0  0  0  0  0  0  0  0  0  0
  -20.8316   11.1457  -15.9311 C   0  0  0  0  0  0  0  0  0  0  0  0
  -21.3099   10.1198  -15.1341 C   0  0  0  0  0  0  0  0  0  0  0  0
  -20.8079    8.8466  -15.1877 C   0  0  0  0  0  0  0  0  0  0  0  0
  -19.7933    8.5600  -16.0588 C   0  0  0  0  0  0  0  0  0  0  0  0
  -19.2970    9.5784  -16.8710 C   0  0  0  0  0  0  0  0  0  0  0  0
  -18.3128    9.3485  -17.7450 N   0  0  0  0  0  0  0  0  0  0  0  0
  -19.7562   13.2005  -17.6004 N   0  0  0  0  0  0  0  0  0  0  0  0
  -19.2236   14.2753  -16.8257 C   0  0  0  0  0  0  0  0  0  0  0  0
  -19.6563   15.5586  -17.5388 C   0  0  0  0  0  0  0  0  0  0  0  0
  -20.2783   15.0670  -18.8028 C   0  0  0  0  0  0  0  0  0  0  0  0
  -20.8609   13.7145  -18.3745 C   0  0  0  0  0  0  0  0  0  0  0  0
  -16.7678    9.9913  -19.4826 N   0  0  0  0  0  0  0  0  0  0  0  0
  -16.1949    9.1187  -19.2710 H   0  0  0  0  0  0  0  0  0  0  0  0
  -15.9549   12.2524  -22.9967 C   0  0  0  0  0  0  0  0  0  0  0  0
  -15.0325   11.3552  -22.5219 C   0  0  0  0  0  0  0  0  0  0  0  0
  -15.2554   10.5947  -21.3616 C   0  0  0  0  0  0  0  0  0  0  0  0
  -16.4151   10.7117  -20.6407 C   0  0  0  0  0  0  0  0  0  0  0  0
  -17.3466   11.6357  -21.1428 C   0  0  0  0  0  0  0  0  0  0  0  0
  -17.1207   12.3761  -22.2787 C   0  0  0  0  0  0  0  0  0  0  0  0
  -14.7148   13.9898  -24.1641 C   0  0  0  0  0  0  0  0  0  0  0  0
  -15.7210   12.9956  -24.1431 O   0  0  0  0  0  0  0  0  0  0  0  0
 24 25  1  0  0  0
 25 18  1  0  0  0
 18 19  2  0  0  0
 19 20  1  0  0  0
 20 21  2  0  0  0
 21 16  1  0  0  0
 16  1  1  0  0  0
  1  2  2  0  0  0
  2  3  1  0  0  0
  3 11  1  0  0  0
 11 12  1  0  0  0
 12 13  1  0  0  0
 13 14  1  0  0  0
 14 15  1  0  0  0
  3  4  2  0  0  0
  4  5  1  0  0  0
  5  6  2  0  0  0
  6  7  1  0  0  0
  7  8  2  0  0  0
  8  9  1  0  0  0
  9 10  2  0  0  0
 21 22  1  0  0  0
 22 23  2  0  0  0
 23 18  1  0  0  0
 10  1  1  0  0  0
 15 11  1  0  0  0
  9  4  1  0  0  0
 16 17  1  0  0  0
M  END
> <minimizedAffinity>
-7.73924

> <CNNscore>
0.6750940681

> <CNNaffinity>
6.3450078964

> <CNN_VS>
4.2834773064

> <CNNaffinity_variance>
0.0739014074

$$$$
[H]c1c([H])c(N([H])c2nc(N3C([H])([H])C([H])([H])C([H])([H])C3([H])[H])c3c([H])c([H])c([H])c([H])c3n2)c([H])c([H])c1OC([H])([H])[H]


 25 28  0  0  0  0  0  0  0  0999 V2000
  -16.7671   12.9272  -22.0582 C   0  0  0  0  0  0  0  0  0  0  0  0
  -17.1727   14.0682  -21.4950 N   0  0  0  0  0  0  0  0  0  0  0  0
  -16.9347   15.2896  -22.0154 C   0  0  0  0  0  0  0  0  0  0  0  0
  -16.2313   15.3607  -23.1962 C   0  0  0  0  0  0  0  0  0  0  0  0
  -15.9385   16.5625  -23.7848 C   0  0  0  0  0  0  0  0  0  0  0  0
  -15.2204   16.5641  -24.9684 C   0  0  0  0  0  0  0  0  0  0  0  0
  -14.7908   15.4132  -25.5739 C   0  0  0  0  0  0  0  0  0  0  0  0
  -15.0737   14.2049  -24.9990 C   0  0  0  0  0  0  0  0  0  0  0  0
  -15.7954   14.1804  -23.8067 C   0  0  0  0  0  0  0  0  0  0  0  0
  -16.0899   13.0269  -23.2000 N   0  0  0  0  0  0  0  0  0  0  0  0
  -17.4387   16.4504  -21.3553 N   0  0  0  0  0  0  0  0  0  0  0  0
  -16.7965   17.2124  -20.3327 C   0  0  0  0  0  0  0  0  0  0  0  0
  -17.4459   18.5977  -20.3739 C   0  0  0  0  0  0  0  0  0  0  0  0
  -18.3173   18.5428  -21.5838 C   0  0  0  0  0  0  0  0  0  0  0  0
  -18.7166   17.0628  -21.6307 C   0  0  0  0  0  0  0  0  0  0  0  0
  -17.0476   11.6950  -21.4314 N   0  0  0  0  0  0  0  0  0  0  0  0
  -16.7413   10.8330  -21.9767 H   0  0  0  0  0  0  0  0  0  0  0  0
  -18.8140   10.7598  -17.6727 C   0  0  0  0  0  0  0  0  0  0  0  0
  -19.1931   11.8881  -18.3542 C   0  0  0  0  0  0  0  0  0  0  0  0
  -18.6304   12.2397  -19.5927 C   0  0  0  0  0  0  0  0  0  0  0  0
  -17.6675   11.4665  -20.1871 C   0  0  0  0  0  0  0  0  0  0  0  0
  -17.2927   10.3159  -19.4735 C   0  0  0  0  0  0  0  0  0  0  0  0
  -17.8479    9.9791  -18.2619 C   0  0  0  0  0  0  0  0  0  0  0  0
  -19.4953    9.0719  -16.0583 C   0  0  0  0  0  0  0  0  0  0  0  0
  -19.3783   10.4257  -16.4514 O   0  0  0  0  0  0  0  0  0  0  0  0
 24 25  1  0  0  0
 25 18  1  0  0  0
 18 19  2  0  0  0
 19 20  1  0  0  0
 20 21  2  0  0  0
 21 16  1  0  0  0
 16  1  1  0  0  0
  1  2  2  0  0  0
  2  3  1  0  0  0
  3 11  1  0  0  0
 11 12  1  0  0  0
 12 13  1  0  0  0
 13 14  1  0  0  0
 14 15  1  0  0  0
  3  4  2  0  0  0
  4  5  1  0  0  0
  5  6  2  0  0  0
  6  7  1  0  0  0
  7  8  2  0  0  0
  8  9  1  0  0  0
  9 10  2  0  0  0
 21 22  1  0  0  0
 22 23  2  0  0  0
 23 18  1  0  0  0
 10  1  1  0  0  0
 15 11  1  0  0  0
  9  4  1  0  0  0
 16 17  1  0  0  0
M  END
> <minimizedAffinity>
-7.79054

> <CNNscore>
0.6569985747

> <CNNaffinity>
6.6509275436

> <CNN_VS>
4.3696498871

> <CNNaffinity_variance>
0.2107633650

$$$$
[H]c1c([H])c(N([H])c2nc(N3C([H])([H])C([H])([H])C([H])([H])C3([H])[H])c3c([H])c([H])c([H])c([H])c3n2)c([H])c([H])c1OC([H])([H])[H]


 25 28  0  0  0  0  0  0  0  0999 V2000
  -18.1734   10.2263  -18.1624 C   0  0  0  0  0  0  0  0  0  0  0  0
  -18.5091    9.3366  -17.2246 N   0  0  0  0  0  0  0  0  0  0  0  0
  -19.4163    9.5727  -16.2547 C   0  0  0  0  0  0  0  0  0  0  0  0
  -20.0297   10.8045  -16.2326 C   0  0  0  0  0  0  0  0  0  0  0  0
  -20.9541   11.1278  -15.2748 C   0  0  0  0  0  0  0  0  0  0  0  0
  -21.5278   12.3873  -15.3048 C   0  0  0  0  0  0  0  0  0  0  0  0
  -21.2084   13.3227  -16.2528 C   0  0  0  0  0  0  0  0  0  0  0  0
  -20.2866   13.0167  -17.2156 C   0  0  0  0  0  0  0  0  0  0  0  0
  -19.6962   11.7540  -17.2038 C   0  0  0  0  0  0  0  0  0  0  0  0
  -18.7836   11.4086  -18.1165 N   0  0  0  0  0  0  0  0  0  0  0  0
  -19.7323    8.5450  -15.3160 N   0  0  0  0  0  0  0  0  0  0  0  0
  -19.2228    8.3967  -13.9904 C   0  0  0  0  0  0  0  0  0  0  0  0
  -20.2449    7.5358  -13.2441 C   0  0  0  0  0  0  0  0  0  0  0  0
  -21.3744    7.4117  -14.2109 C   0  0  0  0  0  0  0  0  0  0  0  0
  -20.6526    7.4607  -15.5632 C   0  0  0  0  0  0  0  0  0  0  0  0
  -17.1997    9.8963  -19.1283 N   0  0  0  0  0  0  0  0  0  0  0  0
  -16.6748    8.9879  -18.9454 H   0  0  0  0  0  0  0  0  0  0  0  0
  -15.8867   11.9306  -22.6297 C   0  0  0  0  0  0  0  0  0  0  0  0
  -17.0764   12.2695  -22.0371 C   0  0  0  0  0  0  0  0  0  0  0  0
  -17.5522   11.6190  -20.8862 C   0  0  0  0  0  0  0  0  0  0  0  0
  -16.8457   10.6056  -20.2928 C   0  0  0  0  0  0  0  0  0  0  0  0
  -15.6306   10.2732  -20.9146 C   0  0  0  0  0  0  0  0  0  0  0  0
  -15.1722   10.9144  -22.0408 C   0  0  0  0  0  0  0  0  0  0  0  0
  -15.1035   13.9574  -23.7242 C   0  0  0  0  0  0  0  0  0  0  0  0
  -15.4301   12.5817  -23.7651 O   0  0  0  0  0  0  0  0  0  0  0  0
 24 25  1  0  0  0
 25 18  1  0  0  0
 18 19  2  0  0  0
 19 20  1  0  0  0
 20 21  2  0  0  0
 21 16  1  0  0  0
 16  1  1  0  0  0
  1  2  2  0  0  0
  2  3  1  0  0  0
  3 11  1  0  0  0
 11 12  1  0  0  0
 12 13  1  0  0  0
 13 14  1  0  0  0
 14 15  1  0  0  0
  3  4  2  0  0  0
  4  5  1  0  0  0
  5  6  2  0  0  0
  6  7  1  0  0  0
  7  8  2  0  0  0
  8  9  1  0  0  0
  9 10  2  0  0  0
 21 22  1  0  0  0
 22 23  2  0  0  0
 23 18  1  0  0  0
 10  1  1  0  0  0
 15 11  1  0  0  0
  9  4  1  0  0  0
 16 17  1  0  0  0
M  END
> <minimizedAffinity>
-7.49299

> <CNNscore>
0.5434972644

> <CNNaffinity>
5.9509277344

> <CNN_VS>
3.2343130112

> <CNNaffinity_variance>
0.0527110510

$$$$
[H]c1c([H])c(N([H])c2nc(N3C([H])([H])C([H])([H])C([H])([H])C3([H])[H])c3c([H])c([H])c([H])c([H])c3n2)c([H])c([H])c1OC([H])([H])[H]


 25 28  0  0  0  0  0  0  0  0999 V2000
  -17.4000   12.7038  -20.5580 C   0  0  0  0  0  0  0  0  0  0  0  0
  -17.9194   13.9096  -20.3131 N   0  0  0  0  0  0  0  0  0  0  0  0
  -18.2018   14.8152  -21.2720 C   0  0  0  0  0  0  0  0  0  0  0  0
  -17.9367   14.4739  -22.5786 C   0  0  0  0  0  0  0  0  0  0  0  0
  -18.1842   15.3405  -23.6101 C   0  0  0  0  0  0  0  0  0  0  0  0
  -17.8871   14.9376  -24.9008 C   0  0  0  0  0  0  0  0  0  0  0  0
  -17.3558   13.7083  -25.1877 C   0  0  0  0  0  0  0  0  0  0  0  0
  -17.1017   12.8314  -24.1695 C   0  0  0  0  0  0  0  0  0  0  0  0
  -17.3929   13.2169  -22.8620 C   0  0  0  0  0  0  0  0  0  0  0  0
  -17.1551   12.4010  -21.8310 N   0  0  0  0  0  0  0  0  0  0  0  0
  -18.7873   16.0665  -20.9130 N   0  0  0  0  0  0  0  0  0  0  0  0
  -18.1094   17.2938  -20.6425 C   0  0  0  0  0  0  0  0  0  0  0  0
  -19.1427   18.4001  -20.8683 C   0  0  0  0  0  0  0  0  0  0  0  0
  -20.3167   17.6755  -21.4364 C   0  0  0  0  0  0  0  0  0  0  0  0
  -20.2045   16.2995  -20.7686 C   0  0  0  0  0  0  0  0  0  0  0  0
  -17.1214   11.8277  -19.4880 N   0  0  0  0  0  0  0  0  0  0  0  0
  -16.0980   11.5496  -19.3894 H   0  0  0  0  0  0  0  0  0  0  0  0
  -19.7359    9.9552  -16.6987 C   0  0  0  0  0  0  0  0  0  0  0  0
  -19.8741   11.2884  -16.9899 C   0  0  0  0  0  0  0  0  0  0  0  0
  -19.0284   11.9486  -17.8971 C   0  0  0  0  0  0  0  0  0  0  0  0
  -18.0153   11.2885  -18.5421 C   0  0  0  0  0  0  0  0  0  0  0  0
  -17.8899    9.9244  -18.2302 C   0  0  0  0  0  0  0  0  0  0  0  0
  -18.7215    9.2859  -17.3412 C   0  0  0  0  0  0  0  0  0  0  0  0
  -21.8512    9.8559  -15.5008 C   0  0  0  0  0  0  0  0  0  0  0  0
  -20.5782    9.3172  -15.8014 O   0  0  0  0  0  0  0  0  0  0  0  0
 24 25  1  0  0  0
 25 18  1  0  0  0
 18 19  2  0  0  0
 19 20  1  0  0  0
 20 21  2  0  0  0
 21 16  1  0  0  0
 16  1  1  0  0  0
  1  2  2  0  0  0
  2  3  1  0  0  0
  3 11  1  0  0  0
 11 12  1  0  0  0
 12 13  1  0  0  0
 13 14  1  0  0  0
 14 15  1  0  0  0
  3  4  2  0  0  0
  4  5  1  0  0  0
  5  6  2  0  0  0
  6  7  1  0  0  0
  7  8  2  0  0  0
  8  9  1  0  0  0
  9 10  2  0  0  0
 21 22  1  0  0  0
 22 23  2  0  0  0
 23 18  1  0  0  0
 10  1  1  0  0  0
 15 11  1  0  0  0
  9  4  1  0  0  0
 16 17  1  0  0  0
M  END
> <minimizedAffinity>
-7.82137

> <CNNscore>
0.4115164578

> <CNNaffinity>
6.1786994934

> <CNN_VS>
2.5426366329

> <CNNaffinity_variance>
0.3770975471

$$$$
[H]c1c([H])c(N([H])c2nc(N3C([H])([H])C([H])([H])C([H])([H])C3([H])[H])c3c([H])c([H])c([H])c([H])c3n2)c([H])c([H])c1OC([H])([H])[H]


 25 28  0  0  0  0  0  0  0  0999 V2000
  -17.2515   12.8854  -20.9343 C   0  0  0  0  0  0  0  0  0  0  0  0
  -16.9658   12.9515  -22.2373 N   0  0  0  0  0  0  0  0  0  0  0  0
  -16.8224   14.1073  -22.9177 C   0  0  0  0  0  0  0  0  0  0  0  0
  -16.9816   15.2862  -22.2256 C   0  0  0  0  0  0  0  0  0  0  0  0
  -16.8633   16.5023  -22.8447 C   0  0  0  0  0  0  0  0  0  0  0  0
  -17.0433   17.6502  -22.0920 C   0  0  0  0  0  0  0  0  0  0  0  0
  -17.3351   17.6189  -20.7543 C   0  0  0  0  0  0  0  0  0  0  0  0
  -17.4578   16.4130  -20.1209 C   0  0  0  0  0  0  0  0  0  0  0  0
  -17.2808   15.2445  -20.8601 C   0  0  0  0  0  0  0  0  0  0  0  0
  -17.3988   14.0414  -20.2909 N   0  0  0  0  0  0  0  0  0  0  0  0
  -16.4835   14.0750  -24.3038 N   0  0  0  0  0  0  0  0  0  0  0  0
  -17.3797   13.9986  -25.4127 C   0  0  0  0  0  0  0  0  0  0  0  0
  -16.6067   14.5498  -26.6133 C   0  0  0  0  0  0  0  0  0  0  0  0
  -15.3442   15.0692  -26.0114 C   0  0  0  0  0  0  0  0  0  0  0  0
  -15.1371   14.1233  -24.8221 C   0  0  0  0  0  0  0  0  0  0  0  0
  -17.3999   11.6291  -20.3100 N   0  0  0  0  0  0  0  0  0  0  0  0
  -16.8780   10.8288  -20.7804 H   0  0  0  0  0  0  0  0  0  0  0  0
  -19.5390   10.4068  -16.8383 C   0  0  0  0  0  0  0  0  0  0  0  0
  -19.7724   11.6371  -17.3979 C   0  0  0  0  0  0  0  0  0  0  0  0
  -19.0834   12.0845  -18.5378 C   0  0  0  0  0  0  0  0  0  0  0  0
  -18.1367   11.3077  -19.1531 C   0  0  0  0  0  0  0  0  0  0  0  0
  -17.9120   10.0519  -18.5649 C   0  0  0  0  0  0  0  0  0  0  0  0
  -18.5902    9.6217  -17.4492 C   0  0  0  0  0  0  0  0  0  0  0  0
  -21.6386   10.0513  -15.6615 C   0  0  0  0  0  0  0  0  0  0  0  0
  -20.2268    9.9789  -15.7134 O   0  0  0  0  0  0  0  0  0  0  0  0
 24 25  1  0  0  0
 25 18  1  0  0  0
 18 19  2  0  0  0
 19 20  1  0  0  0
 20 21  2  0  0  0
 21 16  1  0  0  0
 16  1  1  0  0  0
  1  2  2  0  0  0
  2  3  1  0  0  0
  3 11  1  0  0  0
 11 12  1  0  0  0
 12 13  1  0  0  0
 13 14  1  0  0  0
 14 15  1  0  0  0
  3  4  2  0  0  0
  4  5  1  0  0  0
  5  6  2  0  0  0
  6  7  1  0  0  0
  7  8  2  0  0  0
  8  9  1  0  0  0
  9 10  2  0  0  0
 21 22  1  0  0  0
 22 23  2  0  0  0
 23 18  1  0  0  0
 10  1  1  0  0  0
 15 11  1  0  0  0
  9  4  1  0  0  0
 16 17  1  0  0  0
M  END
> <minimizedAffinity>
-7.70648

> <CNNscore>
0.3914260268

> <CNNaffinity>
6.3400425911

> <CNN_VS>
2.4816577435

> <CNNaffinity_variance>
0.0886335820

$$$$
[H]c1c([H])c(N([H])c2nc(N3C([H])([H])C([H])([H])C([H])([H])C3([H])[H])c3c([H])c([H])c([H])c([H])c3n2)c([H])c([H])c1OC([H])([H])[H]


 25 28  0  0  0  0  0  0  0  0999 V2000
  -17.5851   13.0146  -21.4460 C   0  0  0  0  0  0  0  0  0  0  0  0
  -17.8231   12.1622  -20.4458 N   0  0  0  0  0  0  0  0  0  0  0  0
  -18.1369   12.5445  -19.1909 C   0  0  0  0  0  0  0  0  0  0  0  0
  -18.2145   13.8932  -18.9289 C   0  0  0  0  0  0  0  0  0  0  0  0
  -18.5167   14.3643  -17.6786 C   0  0  0  0  0  0  0  0  0  0  0  0
  -18.5710   15.7334  -17.4807 C   0  0  0  0  0  0  0  0  0  0  0  0
  -18.3344   16.6353  -18.4838 C   0  0  0  0  0  0  0  0  0  0  0  0
  -18.0303   16.1819  -19.7377 C   0  0  0  0  0  0  0  0  0  0  0  0
  -17.9700   14.8070  -19.9591 C   0  0  0  0  0  0  0  0  0  0  0  0
  -17.6684   14.3128  -21.1632 N   0  0  0  0  0  0  0  0  0  0  0  0
  -18.4067   11.5563  -18.1969 N   0  0  0  0  0  0  0  0  0  0  0  0
  -19.5254   11.5020  -17.3113 C   0  0  0  0  0  0  0  0  0  0  0  0
  -19.6449   10.0387  -16.8785 C   0  0  0  0  0  0  0  0  0  0  0  0
  -18.6416    9.3361  -17.7304 C   0  0  0  0  0  0  0  0  0  0  0  0
  -17.5677   10.4136  -17.9249 C   0  0  0  0  0  0  0  0  0  0  0  0
  -17.2465   12.5223  -22.7239 N   0  0  0  0  0  0  0  0  0  0  0  0
  -17.3772   11.4729  -22.8506 H   0  0  0  0  0  0  0  0  0  0  0  0
  -15.5822   14.7283  -25.9621 C   0  0  0  0  0  0  0  0  0  0  0  0
  -16.9115   14.3907  -25.9652 C   0  0  0  0  0  0  0  0  0  0  0  0
  -17.5004   13.6563  -24.9220 C   0  0  0  0  0  0  0  0  0  0  0  0
  -16.7705   13.2377  -23.8402 C   0  0  0  0  0  0  0  0  0  0  0  0
  -15.4114   13.5930  -23.8559 C   0  0  0  0  0  0  0  0  0  0  0  0
  -14.8429   14.3116  -24.8806 C   0  0  0  0  0  0  0  0  0  0  0  0
  -15.6993   15.6098  -28.2267 C   0  0  0  0  0  0  0  0  0  0  0  0
  -15.0152   15.4535  -26.9985 O   0  0  0  0  0  0  0  0  0  0  0  0
 24 25  1  0  0  0
 25 18  1  0  0  0
 18 19  2  0  0  0
 19 20  1  0  0  0
 20 21  2  0  0  0
 21 16  1  0  0  0
 16  1  1  0  0  0
  1  2  2  0  0  0
  2  3  1  0  0  0
  3 11  1  0  0  0
 11 12  1  0  0  0
 12 13  1  0  0  0
 13 14  1  0  0  0
 14 15  1  0  0  0
  3  4  2  0  0  0
  4  5  1  0  0  0
  5  6  2  0  0  0
  6  7  1  0  0  0
  7  8  2  0  0  0
  8  9  1  0  0  0
  9 10  2  0  0  0
 21 22  1  0  0  0
 22 23  2  0  0  0
 23 18  1  0  0  0
 10  1  1  0  0  0
 15 11  1  0  0  0
  9  4  1  0  0  0
 16 17  1  0  0  0
M  END
> <minimizedAffinity>
-8.26141

> <CNNscore>
0.3151574433

> <CNNaffinity>
6.2940773964

> <CNN_VS>
1.9836252928

> <CNNaffinity_variance>
0.1506602019

$$$$
[H]c1c([H])c(N([H])c2nc(N3C([H])([H])C([H])([H])C([H])([H])C3([H])[H])c3c([H])c([H])c([H])c([H])c3n2)c([H])c([H])c1OC([H])([H])[H]


 25 28  0  0  0  0  0  0  0  0999 V2000
  -17.6701   12.9656  -20.2963 C   0  0  0  0  0  0  0  0  0  0  0  0
  -18.1719   14.1023  -19.8066 N   0  0  0  0  0  0  0  0  0  0  0  0
  -18.5052   15.1657  -20.5665 C   0  0  0  0  0  0  0  0  0  0  0  0
  -18.3148   15.0708  -21.9261 C   0  0  0  0  0  0  0  0  0  0  0  0
  -18.6174   16.1094  -22.7664 C   0  0  0  0  0  0  0  0  0  0  0  0
  -18.3942   15.9514  -24.1236 C   0  0  0  0  0  0  0  0  0  0  0  0
  -17.8830   14.7993  -24.6594 C   0  0  0  0  0  0  0  0  0  0  0  0
  -17.5743   13.7532  -23.8344 C   0  0  0  0  0  0  0  0  0  0  0  0
  -17.7909   13.8910  -22.4643 C   0  0  0  0  0  0  0  0  0  0  0  0
  -17.4977   12.9024  -21.6148 N   0  0  0  0  0  0  0  0  0  0  0  0
  -19.0665   16.3257  -19.9527 N   0  0  0  0  0  0  0  0  0  0  0  0
  -20.4449   16.6939  -19.8958 C   0  0  0  0  0  0  0  0  0  0  0  0
  -20.5739   17.6464  -18.7047 C   0  0  0  0  0  0  0  0  0  0  0  0
  -19.2274   17.5942  -18.0641 C   0  0  0  0  0  0  0  0  0  0  0  0
  -18.3058   17.3404  -19.2634 C   0  0  0  0  0  0  0  0  0  0  0  0
  -17.3341   11.9110  -19.4216 N   0  0  0  0  0  0  0  0  0  0  0  0
  -16.3305   11.5634  -19.5010 H   0  0  0  0  0  0  0  0  0  0  0  0
  -19.6886    9.7541  -16.6062 C   0  0  0  0  0  0  0  0  0  0  0  0
  -19.9500   11.0767  -16.8584 C   0  0  0  0  0  0  0  0  0  0  0  0
  -19.1932   11.8288  -17.7726 C   0  0  0  0  0  0  0  0  0  0  0  0
  -18.1481   11.2743  -18.4642 C   0  0  0  0  0  0  0  0  0  0  0  0
  -17.8961    9.9193  -18.1917 C   0  0  0  0  0  0  0  0  0  0  0  0
  -18.6412    9.1904  -17.2955 C   0  0  0  0  0  0  0  0  0  0  0  0
  -19.8833    8.5953  -14.4758 C   0  0  0  0  0  0  0  0  0  0  0  0
  -20.4442    9.0247  -15.7014 O   0  0  0  0  0  0  0  0  0  0  0  0
 24 25  1  0  0  0
 25 18  1  0  0  0
 18 19  2  0  0  0
 19 20  1  0  0  0
 20 21  2  0  0  0
 21 16  1  0  0  0
 16  1  1  0  0  0
  1  2  2  0  0  0
  2  3  1  0  0  0
  3 11  1  0  0  0
 11 12  1  0  0  0
 12 13  1  0  0  0
 13 14  1  0  0  0
 14 15  1  0  0  0
  3  4  2  0  0  0
  4  5  1  0  0  0
  5  6  2  0  0  0
  6  7  1  0  0  0
  7  8  2  0  0  0
  8  9  1  0  0  0
  9 10  2  0  0  0
 21 22  1  0  0  0
 22 23  2  0  0  0
 23 18  1  0  0  0
 10  1  1  0  0  0
 15 11  1  0  0  0
  9  4  1  0  0  0
 16 17  1  0  0  0
M  END
> <minimizedAffinity>
-7.45803

> <CNNscore>
0.2646098435

> <CNNaffinity>
6.0880255699

> <CNN_VS>
1.6109515429

> <CNNaffinity_variance>
0.3405178189

$$$$
[H]OC12N(C([H])([H])c3c([H])c([H])c(OC([H])([H])[H])c([H])c3[H])C3([H])C4([H])C5([H])C([H])([H])C([H])(C14[H])C1([H])C2([H])C3([H])C51[H]


 23 29  0  0  0  0  0  0  0  0999 V2000
  -17.0859   13.9313  -23.2012 N   0  0  0  0  0  0  0  0  0  0  0  0
  -15.8793   14.7356  -23.0632 C   0  0  0  0  0  0  0  0  0  0  0  0
  -15.1315   14.2704  -24.2935 C   0  0  0  0  0  0  0  0  0  0  0  0
  -14.4016   15.4896  -24.7775 C   0  0  0  0  0  0  0  0  0  0  0  0
  -14.5209   15.2980  -26.2943 C   0  0  0  0  0  0  0  0  0  0  0  0
  -16.0471   15.1278  -26.3142 C   0  0  0  0  0  0  0  0  0  0  0  0
  -16.4905   16.3466  -25.5705 C   0  0  0  0  0  0  0  0  0  0  0  0
  -15.3795   16.5887  -24.5385 C   0  0  0  0  0  0  0  0  0  0  0  0
  -16.2858   16.1244  -23.4393 C   0  0  0  0  0  0  0  0  0  0  0  0
  -17.3890   15.8940  -24.4748 C   0  0  0  0  0  0  0  0  0  0  0  0
  -17.4801   14.3898  -24.5108 C   0  0  0  0  0  0  0  0  0  0  0  0
  -18.6174   13.8840  -25.0263 O   0  0  0  0  0  0  0  0  0  0  0  0
  -16.2288   14.0379  -25.3134 C   0  0  0  0  0  0  0  0  0  0  0  0
  -19.1471   14.5815  -25.4848 H   0  0  0  0  0  0  0  0  0  0  0  0
  -18.0274   14.1610  -22.1557 C   0  0  0  0  0  0  0  0  0  0  0  0
  -17.6293   11.0355  -19.2117 C   0  0  0  0  0  0  0  0  0  0  0  0
  -18.2875   12.2110  -18.9236 C   0  0  0  0  0  0  0  0  0  0  0  0
  -18.4127   13.2119  -19.8619 C   0  0  0  0  0  0  0  0  0  0  0  0
  -17.8832   13.0873  -21.1426 C   0  0  0  0  0  0  0  0  0  0  0  0
  -17.2208   11.8886  -21.4127 C   0  0  0  0  0  0  0  0  0  0  0  0
  -17.0971   10.8898  -20.4728 C   0  0  0  0  0  0  0  0  0  0  0  0
  -18.6303    9.5866  -17.5046 C   0  0  0  0  0  0  0  0  0  0  0  0
  -17.5113   10.0283  -18.2461 O   0  0  0  0  0  0  0  0  0  0  0  0
 22 23  1  0  0  0
 23 16  1  0  0  0
 16 17  2  0  0  0
 17 18  1  0  0  0
 18 19  2  0  0  0
 19 15  1  0  0  0
 15  1  1  0  0  0
  1  2  1  0  0  0
  2  3  1  0  0  0
  3  4  1  0  0  0
  4  5  1  0  0  0
  5  6  1  0  0  0
  6  7  1  0  0  0
  7  8  1  0  0  0
  8  9  1  0  0  0
  9 10  1  0  0  0
 10 11  1  0  0  0
 11 12  1  0  0  0
 11 13  1  0  0  0
 19 20  1  0  0  0
 20 21  2  0  0  0
 21 16  1  0  0  0
 11  1  1  0  0  0
  9  2  1  0  0  0
 13  3  1  0  0  0
  8  4  1  0  0  0
 13  6  1  0  0  0
 10  7  1  0  0  0
 12 14  1  0  0  0
M  END
> <minimizedAffinity>
-8.68853

> <CNNscore>
0.3803572059

> <CNNaffinity>
5.8538160324

> <CNN_VS>
2.2265410423

> <CNNaffinity_variance>
0.1091149449

$$$$
[H]OC12N(C([H])([H])c3c([H])c([H])c(OC([H])([H])[H])c([H])c3[H])C3([H])C4([H])C5([H])C([H])([H])C([H])(C14[H])C1([H])C2([H])C3([H])C51[H]


 23 29  0  0  0  0  0  0  0  0999 V2000
  -16.7389   13.3598  -22.4574 N   0  0  0  0  0  0  0  0  0  0  0  0
  -17.4912   14.4958  -22.9728 C   0  0  0  0  0  0  0  0  0  0  0  0
  -16.3700   15.5064  -23.0770 C   0  0  0  0  0  0  0  0  0  0  0  0
  -16.6993   16.3137  -24.2989 C   0  0  0  0  0  0  0  0  0  0  0  0
  -15.2929   16.5414  -24.8660 C   0  0  0  0  0  0  0  0  0  0  0  0
  -14.8850   15.0608  -24.8806 C   0  0  0  0  0  0  0  0  0  0  0  0
  -16.0209   14.4484  -25.6356 C   0  0  0  0  0  0  0  0  0  0  0  0
  -17.2400   15.2958  -25.2437 C   0  0  0  0  0  0  0  0  0  0  0  0
  -17.7654   14.1699  -24.4060 C   0  0  0  0  0  0  0  0  0  0  0  0
  -16.5505   13.3309  -24.8090 C   0  0  0  0  0  0  0  0  0  0  0  0
  -15.7694   13.2660  -23.5215 C   0  0  0  0  0  0  0  0  0  0  0  0
  -14.8555   12.2796  -23.4397 O   0  0  0  0  0  0  0  0  0  0  0  0
  -15.1686   14.6696  -23.4702 C   0  0  0  0  0  0  0  0  0  0  0  0
  -14.6984   11.8595  -24.3207 H   0  0  0  0  0  0  0  0  0  0  0  0
  -17.5494   12.2045  -22.2551 C   0  0  0  0  0  0  0  0  0  0  0  0
  -18.9004   12.1450  -18.1605 C   0  0  0  0  0  0  0  0  0  0  0  0
  -19.5224   12.9276  -19.1085 C   0  0  0  0  0  0  0  0  0  0  0  0
  -19.0900   12.9503  -20.4163 C   0  0  0  0  0  0  0  0  0  0  0  0
  -18.0078   12.1876  -20.8446 C   0  0  0  0  0  0  0  0  0  0  0  0
  -17.3929   11.4025  -19.8679 C   0  0  0  0  0  0  0  0  0  0  0  0
  -17.8273   11.3817  -18.5612 C   0  0  0  0  0  0  0  0  0  0  0  0
  -20.7177   12.3276  -16.5235 C   0  0  0  0  0  0  0  0  0  0  0  0
  -19.3530   12.1338  -16.8355 O   0  0  0  0  0  0  0  0  0  0  0  0
 22 23  1  0  0  0
 23 16  1  0  0  0
 16 17  2  0  0  0
 17 18  1  0  0  0
 18 19  2  0  0  0
 19 15  1  0  0  0
 15  1  1  0  0  0
  1  2  1  0  0  0
  2  3  1  0  0  0
  3  4  1  0  0  0
  4  5  1  0  0  0
  5  6  1  0  0  0
  6  7  1  0  0  0
  7  8  1  0  0  0
  8  9  1  0  0  0
  9 10  1  0  0  0
 10 11  1  0  0  0
 11 12  1  0  0  0
 11 13  1  0  0  0
 19 20  1  0  0  0
 20 21  2  0  0  0
 21 16  1  0  0  0
 11  1  1  0  0  0
  9  2  1  0  0  0
 13  3  1  0  0  0
  8  4  1  0  0  0
 13  6  1  0  0  0
 10  7  1  0  0  0
 12 14  1  0  0  0
M  END
> <minimizedAffinity>
-8.62782

> <CNNscore>
0.3703424037

> <CNNaffinity>
5.8627157211

> <CNN_VS>
2.1712121964

> <CNNaffinity_variance>
0.0885962844

$$$$
[H]OC12N(C([H])([H])c3c([H])c([H])c(OC([H])([H])[H])c([H])c3[H])C3([H])C4([H])C5([H])C([H])([H])C([H])(C14[H])C1([H])C2([H])C3([H])C51[H]


 23 29  0  0  0  0  0  0  0  0999 V2000
  -18.3742   17.1520  -23.9511 N   0  0  0  0  0  0  0  0  0  0  0  0
  -18.4060   15.8834  -23.2359 C   0  0  0  0  0  0  0  0  0  0  0  0
  -18.0934   14.9467  -24.3823 C   0  0  0  0  0  0  0  0  0  0  0  0
  -17.2628   13.8581  -23.7671 C   0  0  0  0  0  0  0  0  0  0  0  0
  -16.2715   13.5909  -24.9061 C   0  0  0  0  0  0  0  0  0  0  0  0
  -15.8186   15.0493  -25.0692 C   0  0  0  0  0  0  0  0  0  0  0  0
  -15.4339   15.3982  -23.6672 C   0  0  0  0  0  0  0  0  0  0  0  0
  -16.4063   14.5927  -22.7934 C   0  0  0  0  0  0  0  0  0  0  0  0
  -17.1422   15.8486  -22.4377 C   0  0  0  0  0  0  0  0  0  0  0  0
  -16.1629   16.6431  -23.3049 C   0  0  0  0  0  0  0  0  0  0  0  0
  -17.0305   17.0541  -24.4669 C   0  0  0  0  0  0  0  0  0  0  0  0
  -16.5742   18.0863  -25.2026 O   0  0  0  0  0  0  0  0  0  0  0  0
  -17.1283   15.7405  -25.2407 C   0  0  0  0  0  0  0  0  0  0  0  0
  -15.6339   18.2981  -24.9826 H   0  0  0  0  0  0  0  0  0  0  0  0
  -18.6327   18.2709  -23.1064 C   0  0  0  0  0  0  0  0  0  0  0  0
  -22.7280   18.0506  -21.7743 C   0  0  0  0  0  0  0  0  0  0  0  0
  -22.4165   18.2643  -23.0991 C   0  0  0  0  0  0  0  0  0  0  0  0
  -21.1087   18.3382  -23.5259 C   0  0  0  0  0  0  0  0  0  0  0  0
  -20.0405   18.2015  -22.6446 C   0  0  0  0  0  0  0  0  0  0  0  0
  -20.3791   17.9858  -21.3077 C   0  0  0  0  0  0  0  0  0  0  0  0
  -21.6874   17.9123  -20.8839 C   0  0  0  0  0  0  0  0  0  0  0  0
  -24.4805   18.5377  -20.1289 C   0  0  0  0  0  0  0  0  0  0  0  0
  -24.0629   17.9781  -21.3577 O   0  0  0  0  0  0  0  0  0  0  0  0
 22 23  1  0  0  0
 23 16  1  0  0  0
 16 17  2  0  0  0
 17 18  1  0  0  0
 18 19  2  0  0  0
 19 15  1  0  0  0
 15  1  1  0  0  0
  1  2  1  0  0  0
  2  3  1  0  0  0
  3  4  1  0  0  0
  4  5  1  0  0  0
  5  6  1  0  0  0
  6  7  1  0  0  0
  7  8  1  0  0  0
  8  9  1  0  0  0
  9 10  1  0  0  0
 10 11  1  0  0  0
 11 12  1  0  0  0
 11 13  1  0  0  0
 19 20  1  0  0  0
 20 21  2  0  0  0
 21 16  1  0  0  0
 11  1  1  0  0  0
  9  2  1  0  0  0
 13  3  1  0  0  0
  8  4  1  0  0  0
 13  6  1  0  0  0
 10  7  1  0  0  0
 12 14  1  0  0  0
M  END
> <minimizedAffinity>
-7.40360

> <CNNscore>
0.3516896367

> <CNNaffinity>
5.6207909584

> <CNN_VS>
1.9767739773

> <CNNaffinity_variance>
0.0459250621

$$$$
[H]OC12N(C([H])([H])c3c([H])c([H])c(OC([H])([H])[H])c([H])c3[H])C3([H])C4([H])C5([H])C([H])([H])C([H])(C14[H])C1([H])C2([H])C3([H])C51[H]


 23 29  0  0  0  0  0  0  0  0999 V2000
  -18.0064   13.5338  -21.6289 N   0  0  0  0  0  0  0  0  0  0  0  0
  -18.4764   14.8635  -21.2644 C   0  0  0  0  0  0  0  0  0  0  0  0
  -19.8868   14.5180  -20.8393 C   0  0  0  0  0  0  0  0  0  0  0  0
  -20.1796   15.4520  -19.7013 C   0  0  0  0  0  0  0  0  0  0  0  0
  -21.0034   14.5306  -18.7937 C   0  0  0  0  0  0  0  0  0  0  0  0
  -19.9744   13.3914  -18.7465 C   0  0  0  0  0  0  0  0  0  0  0  0
  -18.7410   14.1239  -18.3253 C   0  0  0  0  0  0  0  0  0  0  0  0
  -18.8836   15.5114  -18.9677 C   0  0  0  0  0  0  0  0  0  0  0  0
  -17.8135   15.1725  -19.9603 C   0  0  0  0  0  0  0  0  0  0  0  0
  -17.6738   13.7951  -19.3078 C   0  0  0  0  0  0  0  0  0  0  0  0
  -18.2482   12.8851  -20.3634 C   0  0  0  0  0  0  0  0  0  0  0  0
  -17.9124   11.5844  -20.2614 O   0  0  0  0  0  0  0  0  0  0  0  0
  -19.7436   13.1510  -20.1996 C   0  0  0  0  0  0  0  0  0  0  0  0
  -17.4904   11.3881  -19.3891 H   0  0  0  0  0  0  0  0  0  0  0  0
  -16.6536   13.5283  -22.0786 C   0  0  0  0  0  0  0  0  0  0  0  0
  -16.6276   14.2983  -26.3214 C   0  0  0  0  0  0  0  0  0  0  0  0
  -17.4011   13.2948  -25.7805 C   0  0  0  0  0  0  0  0  0  0  0  0
  -17.4081   13.0453  -24.4256 C   0  0  0  0  0  0  0  0  0  0  0  0
  -16.6376   13.7906  -23.5384 C   0  0  0  0  0  0  0  0  0  0  0  0
  -15.8619   14.8018  -24.1079 C   0  0  0  0  0  0  0  0  0  0  0  0
  -15.8570   15.0490  -25.4626 C   0  0  0  0  0  0  0  0  0  0  0  0
  -15.8370   15.5573  -28.2721 C   0  0  0  0  0  0  0  0  0  0  0  0
  -16.6325   14.5384  -27.7009 O   0  0  0  0  0  0  0  0  0  0  0  0
 22 23  1  0  0  0
 23 16  1  0  0  0
 16 17  2  0  0  0
 17 18  1  0  0  0
 18 19  2  0  0  0
 19 15  1  0  0  0
 15  1  1  0  0  0
  1  2  1  0  0  0
  2  3  1  0  0  0
  3  4  1  0  0  0
  4  5  1  0  0  0
  5  6  1  0  0  0
  6  7  1  0  0  0
  7  8  1  0  0  0
  8  9  1  0  0  0
  9 10  1  0  0  0
 10 11  1  0  0  0
 11 12  1  0  0  0
 11 13  1  0  0  0
 19 20  1  0  0  0
 20 21  2  0  0  0
 21 16  1  0  0  0
 11  1  1  0  0  0
  9  2  1  0  0  0
 13  3  1  0  0  0
  8  4  1  0  0  0
 13  6  1  0  0  0
 10  7  1  0  0  0
 12 14  1  0  0  0
M  END
> <minimizedAffinity>
-7.17324

> <CNNscore>
0.3218647242

> <CNNaffinity>
5.7015261650

> <CNN_VS>
1.8351202011

> <CNNaffinity_variance>
0.1178069338

$$$$
[H]OC12N(C([H])([H])c3c([H])c([H])c(OC([H])([H])[H])c([H])c3[H])C3([H])C4([H])C5([H])C([H])([H])C([H])(C14[H])C1([H])C2([H])C3([H])C51[H]


 23 29  0  0  0  0  0  0  0  0999 V2000
  -18.2152   17.0647  -23.7642 N   0  0  0  0  0  0  0  0  0  0  0  0
  -18.0601   15.8178  -23.0274 C   0  0  0  0  0  0  0  0  0  0  0  0
  -17.8195   14.8754  -24.1865 C   0  0  0  0  0  0  0  0  0  0  0  0
  -16.8375   13.8695  -23.6601 C   0  0  0  0  0  0  0  0  0  0  0  0
  -15.9766   13.6454  -24.9091 C   0  0  0  0  0  0  0  0  0  0  0  0
  -15.6618   15.1285  -25.1544 C   0  0  0  0  0  0  0  0  0  0  0  0
  -15.1352   15.5441  -23.8182 C   0  0  0  0  0  0  0  0  0  0  0  0
  -15.9270   14.6929  -22.8149 C   0  0  0  0  0  0  0  0  0  0  0  0
  -16.7086   15.8998  -22.3931 C   0  0  0  0  0  0  0  0  0  0  0  0
  -15.9083   16.7407  -23.3906 C   0  0  0  0  0  0  0  0  0  0  0  0
  -16.9420   17.0531  -24.4422 C   0  0  0  0  0  0  0  0  0  0  0  0
  -16.6614   18.0956  -25.2481 O   0  0  0  0  0  0  0  0  0  0  0  0
  -17.0323   15.7148  -25.1734 C   0  0  0  0  0  0  0  0  0  0  0  0
  -15.7204   18.3831  -25.1515 H   0  0  0  0  0  0  0  0  0  0  0  0
  -18.4536   18.1843  -22.9145 C   0  0  0  0  0  0  0  0  0  0  0  0
  -22.1858   20.0097  -24.0689 C   0  0  0  0  0  0  0  0  0  0  0  0
  -21.0372   20.7569  -23.9262 C   0  0  0  0  0  0  0  0  0  0  0  0
  -19.8447   20.1759  -23.5543 C   0  0  0  0  0  0  0  0  0  0  0  0
  -19.7401   18.8109  -23.3047 C   0  0  0  0  0  0  0  0  0  0  0  0
  -20.9157   18.0734  -23.4552 C   0  0  0  0  0  0  0  0  0  0  0  0
  -22.1063   18.6569  -23.8272 C   0  0  0  0  0  0  0  0  0  0  0  0
  -24.3599   19.9170  -25.2004 C   0  0  0  0  0  0  0  0  0  0  0  0
  -23.3896   20.6165  -24.4478 O   0  0  0  0  0  0  0  0  0  0  0  0
 22 23  1  0  0  0
 23 16  1  0  0  0
 16 17  2  0  0  0
 17 18  1  0  0  0
 18 19  2  0  0  0
 19 15  1  0  0  0
 15  1  1  0  0  0
  1  2  1  0  0  0
  2  3  1  0  0  0
  3  4  1  0  0  0
  4  5  1  0  0  0
  5  6  1  0  0  0
  6  7  1  0  0  0
  7  8  1  0  0  0
  8  9  1  0  0  0
  9 10  1  0  0  0
 10 11  1  0  0  0
 11 12  1  0  0  0
 11 13  1  0  0  0
 19 20  1  0  0  0
 20 21  2  0  0  0
 21 16  1  0  0  0
 11  1  1  0  0  0
  9  2  1  0  0  0
 13  3  1  0  0  0
  8  4  1  0  0  0
 13  6  1  0  0  0
 10  7  1  0  0  0
 12 14  1  0  0  0
M  END
> <minimizedAffinity>
-7.56515

> <CNNscore>
0.3141034544

> <CNNaffinity>
5.5864272118

> <CNN_VS>
1.7547160387

> <CNNaffinity_variance>
0.0682683289

$$$$
[H]OC12N(C([H])([H])c3c([H])c([H])c(OC([H])([H])[H])c([H])c3[H])C3([H])C4([H])C5([H])C([H])([H])C([H])(C14[H])C1([H])C2([H])C3([H])C51[H]


 23 29  0  0  0  0  0  0  0  0999 V2000
  -17.3118   16.5483  -23.1714 N   0  0  0  0  0  0  0  0  0  0  0  0
  -17.0584   15.1250  -22.9928 C   0  0  0  0  0  0  0  0  0  0  0  0
  -17.6953   14.6007  -24.2612 C   0  0  0  0  0  0  0  0  0  0  0  0
  -16.8316   13.4426  -24.6687 C   0  0  0  0  0  0  0  0  0  0  0  0
  -16.8569   13.6031  -26.1935 C   0  0  0  0  0  0  0  0  0  0  0  0
  -16.4112   15.0728  -26.2067 C   0  0  0  0  0  0  0  0  0  0  0  0
  -15.1700   15.0130  -25.3753 C   0  0  0  0  0  0  0  0  0  0  0  0
  -15.4555   13.9130  -24.3426 C   0  0  0  0  0  0  0  0  0  0  0  0
  -15.5995   14.9465  -23.2672 C   0  0  0  0  0  0  0  0  0  0  0  0
  -15.3062   16.0346  -24.3028 C   0  0  0  0  0  0  0  0  0  0  0  0
  -16.6469   16.7093  -24.4414 C   0  0  0  0  0  0  0  0  0  0  0  0
  -16.6281   17.9454  -24.9769 O   0  0  0  0  0  0  0  0  0  0  0  0
  -17.4071   15.6845  -25.2814 C   0  0  0  0  0  0  0  0  0  0  0  0
  -15.7490   18.1507  -25.3797 H   0  0  0  0  0  0  0  0  0  0  0  0
  -16.8020   17.3403  -22.1012 C   0  0  0  0  0  0  0  0  0  0  0  0
  -19.2853   16.7015  -18.6343 C   0  0  0  0  0  0  0  0  0  0  0  0
  -19.8125   17.1772  -19.8149 C   0  0  0  0  0  0  0  0  0  0  0  0
  -19.0199   17.3850  -20.9224 C   0  0  0  0  0  0  0  0  0  0  0  0
  -17.6528   17.1263  -20.9053 C   0  0  0  0  0  0  0  0  0  0  0  0
  -17.1402   16.6451  -19.6994 C   0  0  0  0  0  0  0  0  0  0  0  0
  -17.9347   16.4383  -18.5938 C   0  0  0  0  0  0  0  0  0  0  0  0
  -19.7315   16.9597  -16.2365 C   0  0  0  0  0  0  0  0  0  0  0  0
  -20.1053   16.4959  -17.5180 O   0  0  0  0  0  0  0  0  0  0  0  0
 22 23  1  0  0  0
 23 16  1  0  0  0
 16 17  2  0  0  0
 17 18  1  0  0  0
 18 19  2  0  0  0
 19 15  1  0  0  0
 15  1  1  0  0  0
  1  2  1  0  0  0
  2  3  1  0  0  0
  3  4  1  0  0  0
  4  5  1  0  0  0
  5  6  1  0  0  0
  6  7  1  0  0  0
  7  8  1  0  0  0
  8  9  1  0  0  0
  9 10  1  0  0  0
 10 11  1  0  0  0
 11 12  1  0  0  0
 11 13  1  0  0  0
 19 20  1  0  0  0
 20 21  2  0  0  0
 21 16  1  0  0  0
 11  1  1  0  0  0
  9  2  1  0  0  0
 13  3  1  0  0  0
  8  4  1  0  0  0
 13  6  1  0  0  0
 10  7  1  0  0  0
 12 14  1  0  0  0
M  END
> <minimizedAffinity>
-7.43380

> <CNNscore>
0.3083785176

> <CNNaffinity>
5.6680979729

> <CNN_VS>
1.7479196787

> <CNNaffinity_variance>
0.1546213329

$$$$
[H]OC12N(C([H])([H])c3c([H])c([H])c(OC([H])([H])[H])c([H])c3[H])C3([H])C4([H])C5([H])C([H])([H])C([H])(C14[H])C1([H])C2([H])C3([H])C51[H]


 23 29  0  0  0  0  0  0  0  0999 V2000
  -17.7016   14.1564  -21.9625 N   0  0  0  0  0  0  0  0  0  0  0  0
  -16.5850   13.5555  -22.6795 C   0  0  0  0  0  0  0  0  0  0  0  0
  -17.2242   13.3966  -24.0416 C   0  0  0  0  0  0  0  0  0  0  0  0
  -16.1090   13.6444  -25.0154 C   0  0  0  0  0  0  0  0  0  0  0  0
  -16.8668   14.3948  -26.1171 C   0  0  0  0  0  0  0  0  0  0  0  0
  -17.4746   15.4617  -25.1946 C   0  0  0  0  0  0  0  0  0  0  0  0
  -16.2577   15.9752  -24.4941 C   0  0  0  0  0  0  0  0  0  0  0  0
  -15.3396   14.7499  -24.3773 C   0  0  0  0  0  0  0  0  0  0  0  0
  -15.6158   14.6710  -22.9067 C   0  0  0  0  0  0  0  0  0  0  0  0
  -16.5226   15.8975  -23.0325 C   0  0  0  0  0  0  0  0  0  0  0  0
  -17.8909   15.3029  -22.8172 C   0  0  0  0  0  0  0  0  0  0  0  0
  -18.8612   16.1736  -22.4775 O   0  0  0  0  0  0  0  0  0  0  0  0
  -18.1254   14.6101  -24.1584 C   0  0  0  0  0  0  0  0  0  0  0  0
  -18.5688   17.1088  -22.6089 H   0  0  0  0  0  0  0  0  0  0  0  0
  -17.3948   14.4439  -20.6003 C   0  0  0  0  0  0  0  0  0  0  0  0
  -18.9509   11.2782  -18.1201 C   0  0  0  0  0  0  0  0  0  0  0  0
  -17.8071   11.1052  -18.8683 C   0  0  0  0  0  0  0  0  0  0  0  0
  -17.3104   12.1144  -19.6637 C   0  0  0  0  0  0  0  0  0  0  0  0
  -17.9359   13.3543  -19.7518 C   0  0  0  0  0  0  0  0  0  0  0  0
  -19.0927   13.5075  -18.9857 C   0  0  0  0  0  0  0  0  0  0  0  0
  -19.5869   12.4969  -18.1914 C   0  0  0  0  0  0  0  0  0  0  0  0
  -18.6674    9.0905  -17.0481 C   0  0  0  0  0  0  0  0  0  0  0  0
  -19.4419   10.2417  -17.3168 O   0  0  0  0  0  0  0  0  0  0  0  0
 22 23  1  0  0  0
 23 16  1  0  0  0
 16 17  2  0  0  0
 17 18  1  0  0  0
 18 19  2  0  0  0
 19 15  1  0  0  0
 15  1  1  0  0  0
  1  2  1  0  0  0
  2  3  1  0  0  0
  3  4  1  0  0  0
  4  5  1  0  0  0
  5  6  1  0  0  0
  6  7  1  0  0  0
  7  8  1  0  0  0
  8  9  1  0  0  0
  9 10  1  0  0  0
 10 11  1  0  0  0
 11 12  1  0  0  0
 11 13  1  0  0  0
 19 20  1  0  0  0
 20 21  2  0  0  0
 21 16  1  0  0  0
 11  1  1  0  0  0
  9  2  1  0  0  0
 13  3  1  0  0  0
  8  4  1  0  0  0
 13  6  1  0  0  0
 10  7  1  0  0  0
 12 14  1  0  0  0
M  END
> <minimizedAffinity>
-7.88276

> <CNNscore>
0.2867815197

> <CNNaffinity>
5.8209605217

> <CNN_VS>
1.6693439484

> <CNNaffinity_variance>
0.0426851697

$$$$
[H]OC12N(C([H])([H])c3c([H])c([H])c(OC([H])([H])[H])c([H])c3[H])C3([H])C4([H])C5([H])C([H])([H])C([H])(C14[H])C1([H])C2([H])C3([H])C51[H]


 23 29  0  0  0  0  0  0  0  0999 V2000
  -19.9955    9.7905  -13.4456 N   0  0  0  0  0  0  0  0  0  0  0  0
  -19.1286    9.2054  -12.4317 C   0  0  0  0  0  0  0  0  0  0  0  0
  -19.1324   10.3338  -11.4238 C   0  0  0  0  0  0  0  0  0  0  0  0
  -19.0858    9.6499  -10.0883 C   0  0  0  0  0  0  0  0  0  0  0  0
  -20.0002   10.5730   -9.2740 C   0  0  0  0  0  0  0  0  0  0  0  0
  -21.1896   10.5159  -10.2441 C   0  0  0  0  0  0  0  0  0  0  0  0
  -21.3799    9.0404  -10.3923 C   0  0  0  0  0  0  0  0  0  0  0  0
  -19.9622    8.4604  -10.2845 C   0  0  0  0  0  0  0  0  0  0  0  0
  -19.9610    8.1649  -11.7535 C   0  0  0  0  0  0  0  0  0  0  0  0
  -21.3769    8.7379  -11.8487 C   0  0  0  0  0  0  0  0  0  0  0  0
  -21.1496   10.0184  -12.6107 C   0  0  0  0  0  0  0  0  0  0  0  0
  -22.2391   10.5536  -13.1951 O   0  0  0  0  0  0  0  0  0  0  0  0
  -20.5344   10.9014  -11.5265 C   0  0  0  0  0  0  0  0  0  0  0  0
  -23.0691   10.1241  -12.8727 H   0  0  0  0  0  0  0  0  0  0  0  0
  -20.2005    8.9294  -14.5632 C   0  0  0  0  0  0  0  0  0  0  0  0
  -18.6957   10.8614  -18.1125 C   0  0  0  0  0  0  0  0  0  0  0  0
  -18.3302    9.5731  -17.7888 C   0  0  0  0  0  0  0  0  0  0  0  0
  -18.8074    8.9556  -16.6535 C   0  0  0  0  0  0  0  0  0  0  0  0
  -19.6789    9.5986  -15.7798 C   0  0  0  0  0  0  0  0  0  0  0  0
  -20.0357   10.9026  -16.1271 C   0  0  0  0  0  0  0  0  0  0  0  0
  -19.5572   11.5174  -17.2626 C   0  0  0  0  0  0  0  0  0  0  0  0
  -16.8233   11.4493  -19.5836 C   0  0  0  0  0  0  0  0  0  0  0  0
  -18.2012   11.4740  -19.2704 O   0  0  0  0  0  0  0  0  0  0  0  0
 22 23  1  0  0  0
 23 16  1  0  0  0
 16 17  2  0  0  0
 17 18  1  0  0  0
 18 19  2  0  0  0
 19 15  1  0  0  0
 15  1  1  0  0  0
  1  2  1  0  0  0
  2  3  1  0  0  0
  3  4  1  0  0  0
  4  5  1  0  0  0
  5  6  1  0  0  0
  6  7  1  0  0  0
  7  8  1  0  0  0
  8  9  1  0  0  0
  9 10  1  0  0  0
 10 11  1  0  0  0
 11 12  1  0  0  0
 11 13  1  0  0  0
 19 20  1  0  0  0
 20 21  2  0  0  0
 21 16  1  0  0  0
 11  1  1  0  0  0
  9  2  1  0  0  0
 13  3  1  0  0  0
  8  4  1  0  0  0
 13  6  1  0  0  0
 10  7  1  0  0  0
 12 14  1  0  0  0
M  END
> <minimizedAffinity>
-5.46633

> <CNNscore>
0.2785078883

> <CNNaffinity>
4.3764686584

> <CNN_VS>
1.2188810110

> <CNNaffinity_variance>
0.0473799892

$$$$
[H]OC12N(C([H])([H])c3c([H])c([H])c(OC([H])([H])[H])c([H])c3[H])C3([H])C4([H])C5([H])C([H])([H])C([H])(C14[H])C1([H])C2([H])C3([H])C51[H]


 23 29  0  0  0  0  0  0  0  0999 V2000
  -17.1328   16.3688  -23.0674 N   0  0  0  0  0  0  0  0  0  0  0  0
  -16.8618   14.9734  -22.7492 C   0  0  0  0  0  0  0  0  0  0  0  0
  -17.7198   14.3095  -23.8039 C   0  0  0  0  0  0  0  0  0  0  0  0
  -16.9518   13.0822  -24.2005 C   0  0  0  0  0  0  0  0  0  0  0  0
  -17.2492   13.0451  -25.7043 C   0  0  0  0  0  0  0  0  0  0  0  0
  -16.8025   14.4862  -25.9911 C   0  0  0  0  0  0  0  0  0  0  0  0
  -15.4327   14.4961  -25.3921 C   0  0  0  0  0  0  0  0  0  0  0  0
  -15.5361   13.5482  -24.1885 C   0  0  0  0  0  0  0  0  0  0  0  0
  -15.4772   14.7159  -23.2514 C   0  0  0  0  0  0  0  0  0  0  0  0
  -15.3666   15.6514  -24.4576 C   0  0  0  0  0  0  0  0  0  0  0  0
  -16.7056   16.3437  -24.4450 C   0  0  0  0  0  0  0  0  0  0  0  0
  -16.7742   17.4991  -25.1345 O   0  0  0  0  0  0  0  0  0  0  0  0
  -17.6116   15.2429  -24.9936 C   0  0  0  0  0  0  0  0  0  0  0  0
  -15.9802   17.6233  -25.7102 H   0  0  0  0  0  0  0  0  0  0  0  0
  -16.4334   17.2764  -22.2191 C   0  0  0  0  0  0  0  0  0  0  0  0
  -19.2933   19.8046  -20.2132 C   0  0  0  0  0  0  0  0  0  0  0  0
  -18.4534   18.9724  -19.5061 C   0  0  0  0  0  0  0  0  0  0  0  0
  -17.5414   18.1616  -20.1455 C   0  0  0  0  0  0  0  0  0  0  0  0
  -17.4227   18.1418  -21.5318 C   0  0  0  0  0  0  0  0  0  0  0  0
  -18.2831   18.9925  -22.2279 C   0  0  0  0  0  0  0  0  0  0  0  0
  -19.1937   19.8020  -21.5861 C   0  0  0  0  0  0  0  0  0  0  0  0
  -19.9104   21.2035  -18.2954 C   0  0  0  0  0  0  0  0  0  0  0  0
  -20.2145   20.6223  -19.5473 O   0  0  0  0  0  0  0  0  0  0  0  0
 22 23  1  0  0  0
 23 16  1  0  0  0
 16 17  2  0  0  0
 17 18  1  0  0  0
 18 19  2  0  0  0
 19 15  1  0  0  0
 15  1  1  0  0  0
  1  2  1  0  0  0
  2  3  1  0  0  0
  3  4  1  0  0  0
  4  5  1  0  0  0
  5  6  1  0  0  0
  6  7  1  0  0  0
  7  8  1  0  0  0
  8  9  1  0  0  0
  9 10  1  0  0  0
 10 11  1  0  0  0
 11 12  1  0  0  0
 11 13  1  0  0  0
 19 20  1  0  0  0
 20 21  2  0  0  0
 21 16  1  0  0  0
 11  1  1  0  0  0
  9  2  1  0  0  0
 13  3  1  0  0  0
  8  4  1  0  0  0
 13  6  1  0  0  0
 10  7  1  0  0  0
 12 14  1  0  0  0
M  END
> <minimizedAffinity>
-7.33948

> <CNNscore>
0.2651462555

> <CNNaffinity>
5.6058535576

> <CNN_VS>
1.4863710403

> <CNNaffinity_variance>
0.2907665372

$$$$
[H]c1nc(N2C([H])([H])C([H])([H])N(C([H])([H])C([H])([H])C([H])([H])Sc3c([H])c([H])c(F)c([H])c3[H])C([H])([H])C2([H])[H])c([H])c([H])c1[H]


 23 25  0  0  0  0  0  0  0  0999 V2000
  -18.5023   17.0554  -21.3516 N   0  0  0  0  0  0  0  0  0  0  0  0
  -18.3490   16.6097  -19.9887 C   0  0  0  0  0  0  0  0  0  0  0  0
  -18.6231   15.1486  -19.7606 C   0  0  0  0  0  0  0  0  0  0  0  0
  -18.0342   14.2968  -20.7463 N   0  0  0  0  0  0  0  0  0  0  0  0
  -17.8555   14.8022  -22.0827 C   0  0  0  0  0  0  0  0  0  0  0  0
  -18.7744   15.9733  -22.2631 C   0  0  0  0  0  0  0  0  0  0  0  0
  -17.6438   12.9794  -20.3896 C   0  0  0  0  0  0  0  0  0  0  0  0
  -17.1755   12.0674  -21.3071 C   0  0  0  0  0  0  0  0  0  0  0  0
  -16.8074   10.7728  -20.9334 C   0  0  0  0  0  0  0  0  0  0  0  0
  -16.9085   10.3854  -19.6263 C   0  0  0  0  0  0  0  0  0  0  0  0
  -17.3786   11.3133  -18.7271 C   0  0  0  0  0  0  0  0  0  0  0  0
  -17.7277   12.5512  -19.1015 N   0  0  0  0  0  0  0  0  0  0  0  0
  -19.4768   18.1193  -21.4601 C   0  0  0  0  0  0  0  0  0  0  0  0
  -20.7533   17.5678  -22.0385 C   0  0  0  0  0  0  0  0  0  0  0  0
  -21.9183   18.2737  -21.3461 C   0  0  0  0  0  0  0  0  0  0  0  0
  -23.4797   17.7181  -22.0753 S   0  0  0  0  0  0  0  0  0  0  0  0
  -23.6481   18.8374  -27.9208 F   0  0  0  0  0  0  0  0  0  0  0  0
  -23.6130   18.6040  -26.5812 C   0  0  0  0  0  0  0  0  0  0  0  0
  -23.4656   17.3045  -26.1149 C   0  0  0  0  0  0  0  0  0  0  0  0
  -23.4268   17.0389  -24.7696 C   0  0  0  0  0  0  0  0  0  0  0  0
  -23.5314   18.0410  -23.8286 C   0  0  0  0  0  0  0  0  0  0  0  0
  -23.6774   19.3278  -24.3045 C   0  0  0  0  0  0  0  0  0  0  0  0
  -23.7188   19.6171  -25.6565 C   0  0  0  0  0  0  0  0  0  0  0  0
 17 18  1  0  0  0
 18 19  2  0  0  0
 19 20  1  0  0  0
 20 21  2  0  0  0
 21 16  1  0  0  0
 16 15  1  0  0  0
 15 14  1  0  0  0
 14 13  1  0  0  0
 13  1  1  0  0  0
  1  2  1  0  0  0
  2  3  1  0  0  0
  3  4  1  0  0  0
  4  7  1  0  0  0
  7  8  2  0  0  0
  8  9  1  0  0  0
  9 10  2  0  0  0
 10 11  1  0  0  0
 11 12  2  0  0  0
  4  5  1  0  0  0
  5  6  1  0  0  0
 21 22  1  0  0  0
 22 23  2  0  0  0
 23 18  1  0  0  0
  6  1  1  0  0  0
 12  7  1  0  0  0
M  END
> <minimizedAffinity>
-6.88816

> <CNNscore>
0.5008025169

> <CNNaffinity>
5.6845068932

> <CNN_VS>
2.8468153477

> <CNNaffinity_variance>
0.1415266097

$$$$
[H]c1nc(N2C([H])([H])C([H])([H])N(C([H])([H])C([H])([H])C([H])([H])Sc3c([H])c([H])c(F)c([H])c3[H])C([H])([H])C2([H])[H])c([H])c([H])c1[H]


 23 25  0  0  0  0  0  0  0  0999 V2000
  -20.9763   15.8692  -20.3914 N   0  0  0  0  0  0  0  0  0  0  0  0
  -19.7884   15.7445  -21.1995 C   0  0  0  0  0  0  0  0  0  0  0  0
  -18.6674   14.9643  -20.5698 C   0  0  0  0  0  0  0  0  0  0  0  0
  -19.0980   13.7575  -19.9356 N   0  0  0  0  0  0  0  0  0  0  0  0
  -20.4244   13.7017  -19.3780 C   0  0  0  0  0  0  0  0  0  0  0  0
  -20.9004   15.1083  -19.1703 C   0  0  0  0  0  0  0  0  0  0  0  0
  -18.2137   12.6490  -19.8671 C   0  0  0  0  0  0  0  0  0  0  0  0
  -17.9603   11.9700  -18.6977 C   0  0  0  0  0  0  0  0  0  0  0  0
  -17.0774   10.8884  -18.6533 C   0  0  0  0  0  0  0  0  0  0  0  0
  -16.4405   10.4807  -19.7921 C   0  0  0  0  0  0  0  0  0  0  0  0
  -16.7092   11.1737  -20.9488 C   0  0  0  0  0  0  0  0  0  0  0  0
  -17.5586   12.2093  -20.9748 N   0  0  0  0  0  0  0  0  0  0  0  0
  -21.3172   17.2547  -20.1516 C   0  0  0  0  0  0  0  0  0  0  0  0
  -22.7751   17.3525  -19.7865 C   0  0  0  0  0  0  0  0  0  0  0  0
  -23.5192   17.9123  -20.9981 C   0  0  0  0  0  0  0  0  0  0  0  0
  -22.3800   18.8969  -22.0038 S   0  0  0  0  0  0  0  0  0  0  0  0
  -23.7357   18.6120  -27.7944 F   0  0  0  0  0  0  0  0  0  0  0  0
  -23.4241   18.6998  -26.4733 C   0  0  0  0  0  0  0  0  0  0  0  0
  -23.4095   17.5508  -25.6940 C   0  0  0  0  0  0  0  0  0  0  0  0
  -23.0988   17.6088  -24.3591 C   0  0  0  0  0  0  0  0  0  0  0  0
  -22.7901   18.7997  -23.7368 C   0  0  0  0  0  0  0  0  0  0  0  0
  -22.8081   19.9342  -24.5217 C   0  0  0  0  0  0  0  0  0  0  0  0
  -23.1185   19.8975  -25.8692 C   0  0  0  0  0  0  0  0  0  0  0  0
 17 18  1  0  0  0
 18 19  2  0  0  0
 19 20  1  0  0  0
 20 21  2  0  0  0
 21 16  1  0  0  0
 16 15  1  0  0  0
 15 14  1  0  0  0
 14 13  1  0  0  0
 13  1  1  0  0  0
  1  2  1  0  0  0
  2  3  1  0  0  0
  3  4  1  0  0  0
  4  7  1  0  0  0
  7  8  2  0  0  0
  8  9  1  0  0  0
  9 10  2  0  0  0
 10 11  1  0  0  0
 11 12  2  0  0  0
  4  5  1  0  0  0
  5  6  1  0  0  0
 21 22  1  0  0  0
 22 23  2  0  0  0
 23 18  1  0  0  0
  6  1  1  0  0  0
 12  7  1  0  0  0
M  END
> <minimizedAffinity>
-6.37040

> <CNNscore>
0.4527758062

> <CNNaffinity>
5.4935059547

> <CNN_VS>
2.4873266220

> <CNNaffinity_variance>
0.0389628187

$$$$
[H]c1nc(N2C([H])([H])C([H])([H])N(C([H])([H])C([H])([H])C([H])([H])Sc3c([H])c([H])c(F)c([H])c3[H])C([H])([H])C2([H])[H])c([H])c([H])c1[H]


 23 25  0  0  0  0  0  0  0  0999 V2000
  -19.3943   17.2771  -18.2477 N   0  0  0  0  0  0  0  0  0  0  0  0
  -19.0611   16.6469  -19.5013 C   0  0  0  0  0  0  0  0  0  0  0  0
  -20.2342   16.3280  -20.3867 C   0  0  0  0  0  0  0  0  0  0  0  0
  -21.1865   17.3904  -20.4770 N   0  0  0  0  0  0  0  0  0  0  0  0
  -21.3441   18.2784  -19.3545 C   0  0  0  0  0  0  0  0  0  0  0  0
  -20.7959   17.5923  -18.1392 C   0  0  0  0  0  0  0  0  0  0  0  0
  -21.9530   17.5442  -21.6620 C   0  0  0  0  0  0  0  0  0  0  0  0
  -21.4343   18.0751  -22.8205 C   0  0  0  0  0  0  0  0  0  0  0  0
  -22.2117   18.2264  -23.9712 C   0  0  0  0  0  0  0  0  0  0  0  0
  -23.5236   17.8418  -23.9635 C   0  0  0  0  0  0  0  0  0  0  0  0
  -24.0201   17.3138  -22.7951 C   0  0  0  0  0  0  0  0  0  0  0  0
  -23.2615   17.1754  -21.6998 N   0  0  0  0  0  0  0  0  0  0  0  0
  -18.9184   16.5072  -17.1189 C   0  0  0  0  0  0  0  0  0  0  0  0
  -18.1435   15.3168  -17.6195 C   0  0  0  0  0  0  0  0  0  0  0  0
  -18.7835   14.0638  -17.0234 C   0  0  0  0  0  0  0  0  0  0  0  0
  -19.5243   13.0762  -18.3479 S   0  0  0  0  0  0  0  0  0  0  0  0
  -15.3927   10.1039  -21.4377 F   0  0  0  0  0  0  0  0  0  0  0  0
  -16.3448   10.7914  -20.7514 C   0  0  0  0  0  0  0  0  0  0  0  0
  -16.4254   10.6597  -19.3715 C   0  0  0  0  0  0  0  0  0  0  0  0
  -17.3751   11.3408  -18.6532 C   0  0  0  0  0  0  0  0  0  0  0  0
  -18.2841   12.1788  -19.2632 C   0  0  0  0  0  0  0  0  0  0  0  0
  -18.1938   12.3011  -20.6345 C   0  0  0  0  0  0  0  0  0  0  0  0
  -17.2438   11.6236  -21.3774 C   0  0  0  0  0  0  0  0  0  0  0  0
 17 18  1  0  0  0
 18 19  2  0  0  0
 19 20  1  0  0  0
 20 21  2  0  0  0
 21 16  1  0  0  0
 16 15  1  0  0  0
 15 14  1  0  0  0
 14 13  1  0  0  0
 13  1  1  0  0  0
  1  2  1  0  0  0
  2  3  1  0  0  0
  3  4  1  0  0  0
  4  7  1  0  0  0
  7  8  2  0  0  0
  8  9  1  0  0  0
  9 10  2  0  0  0
 10 11  1  0  0  0
 11 12  2  0  0  0
  4  5  1  0  0  0
  5  6  1  0  0  0
 21 22  1  0  0  0
 22 23  2  0  0  0
 23 18  1  0  0  0
  6  1  1  0  0  0
 12  7  1  0  0  0
M  END
> <minimizedAffinity>
-6.38049

> <CNNscore>
0.3810009062

> <CNNaffinity>
5.1685004234

> <CNN_VS>
1.9692033529

> <CNNaffinity_variance>
0.6437455416

$$$$
[H]c1nc(N2C([H])([H])C([H])([H])N(C([H])([H])C([H])([H])C([H])([H])Sc3c([H])c([H])c(F)c([H])c3[H])C([H])([H])C2([H])[H])c([H])c([H])c1[H]


 23 25  0  0  0  0  0  0  0  0999 V2000
  -17.8381   16.6194  -20.3443 N   0  0  0  0  0  0  0  0  0  0  0  0
  -16.5025   16.3865  -20.8359 C   0  0  0  0  0  0  0  0  0  0  0  0
  -16.4007   15.3931  -21.9603 C   0  0  0  0  0  0  0  0  0  0  0  0
  -17.3958   15.5714  -22.9713 N   0  0  0  0  0  0  0  0  0  0  0  0
  -18.6750   16.1164  -22.5974 C   0  0  0  0  0  0  0  0  0  0  0  0
  -18.8425   15.9354  -21.1184 C   0  0  0  0  0  0  0  0  0  0  0  0
  -17.1042   15.2071  -24.3121 C   0  0  0  0  0  0  0  0  0  0  0  0
  -17.4454   13.9842  -24.8423 C   0  0  0  0  0  0  0  0  0  0  0  0
  -17.1381   13.6447  -26.1619 C   0  0  0  0  0  0  0  0  0  0  0  0
  -16.4820   14.5388  -26.9612 C   0  0  0  0  0  0  0  0  0  0  0  0
  -16.1515   15.7544  -26.4103 C   0  0  0  0  0  0  0  0  0  0  0  0
  -16.4532   16.0649  -25.1426 N   0  0  0  0  0  0  0  0  0  0  0  0
  -17.9461   16.3293  -18.9310 C   0  0  0  0  0  0  0  0  0  0  0  0
  -19.0699   15.3518  -18.7080 C   0  0  0  0  0  0  0  0  0  0  0  0
  -18.6452   14.4065  -17.5850 C   0  0  0  0  0  0  0  0  0  0  0  0
  -19.1491   12.7166  -17.9960 S   0  0  0  0  0  0  0  0  0  0  0  0
  -15.3217   10.1867  -21.7909 F   0  0  0  0  0  0  0  0  0  0  0  0
  -16.2050   10.7766  -20.9413 C   0  0  0  0  0  0  0  0  0  0  0  0
  -16.2168   10.4116  -19.6017 C   0  0  0  0  0  0  0  0  0  0  0  0
  -17.0962   10.9896  -18.7217 C   0  0  0  0  0  0  0  0  0  0  0  0
  -17.9998   11.9500  -19.1240 C   0  0  0  0  0  0  0  0  0  0  0  0
  -17.9783   12.3041  -20.4573 C   0  0  0  0  0  0  0  0  0  0  0  0
  -17.0997   11.7338  -21.3609 C   0  0  0  0  0  0  0  0  0  0  0  0
 17 18  1  0  0  0
 18 19  2  0  0  0
 19 20  1  0  0  0
 20 21  2  0  0  0
 21 16  1  0  0  0
 16 15  1  0  0  0
 15 14  1  0  0  0
 14 13  1  0  0  0
 13  1  1  0  0  0
  1  2  1  0  0  0
  2  3  1  0  0  0
  3  4  1  0  0  0
  4  7  1  0  0  0
  7  8  2  0  0  0
  8  9  1  0  0  0
  9 10  2  0  0  0
 10 11  1  0  0  0
 11 12  2  0  0  0
  4  5  1  0  0  0
  5  6  1  0  0  0
 21 22  1  0  0  0
 22 23  2  0  0  0
 23 18  1  0  0  0
  6  1  1  0  0  0
 12  7  1  0  0  0
M  END
> <minimizedAffinity>
-7.27859

> <CNNscore>
0.3677291572

> <CNNaffinity>
5.8712697029

> <CNN_VS>
2.1590371132

> <CNNaffinity_variance>
0.5302001238

$$$$
[H]c1nc(N2C([H])([H])C([H])([H])N(C([H])([H])C([H])([H])C([H])([H])Sc3c([H])c([H])c(F)c([H])c3[H])C([H])([H])C2([H])[H])c([H])c([H])c1[H]


 23 25  0  0  0  0  0  0  0  0999 V2000
  -18.2003   15.7146  -21.0721 N   0  0  0  0  0  0  0  0  0  0  0  0
  -18.8238   16.2793  -22.2434 C   0  0  0  0  0  0  0  0  0  0  0  0
  -17.8768   16.6709  -23.3442 C   0  0  0  0  0  0  0  0  0  0  0  0
  -16.8702   15.6902  -23.6069 N   0  0  0  0  0  0  0  0  0  0  0  0
  -16.4210   14.8503  -22.5271 C   0  0  0  0  0  0  0  0  0  0  0  0
  -16.7819   15.5215  -21.2358 C   0  0  0  0  0  0  0  0  0  0  0  0
  -16.3370   15.5684  -24.9170 C   0  0  0  0  0  0  0  0  0  0  0  0
  -16.9851   14.8920  -25.9247 C   0  0  0  0  0  0  0  0  0  0  0  0
  -16.4349   14.7766  -27.2034 C   0  0  0  0  0  0  0  0  0  0  0  0
  -15.2222   15.3446  -27.4780 C   0  0  0  0  0  0  0  0  0  0  0  0
  -14.5932   16.0158  -26.4561 C   0  0  0  0  0  0  0  0  0  0  0  0
  -15.1340   16.1174  -25.2348 N   0  0  0  0  0  0  0  0  0  0  0  0
  -18.5146   16.4729  -19.8806 C   0  0  0  0  0  0  0  0  0  0  0  0
  -19.9375   16.1936  -19.4738 C   0  0  0  0  0  0  0  0  0  0  0  0
  -20.1455   14.6807  -19.5266 C   0  0  0  0  0  0  0  0  0  0  0  0
  -18.9701   13.8708  -18.4126 S   0  0  0  0  0  0  0  0  0  0  0  0
  -15.9371    9.5457  -21.1594 F   0  0  0  0  0  0  0  0  0  0  0  0
  -16.6182   10.5296  -20.5127 C   0  0  0  0  0  0  0  0  0  0  0  0
  -17.5550   11.2848  -21.2054 C   0  0  0  0  0  0  0  0  0  0  0  0
  -18.2570   12.2834  -20.5794 C   0  0  0  0  0  0  0  0  0  0  0  0
  -18.0657   12.5795  -19.2465 C   0  0  0  0  0  0  0  0  0  0  0  0
  -17.1323   11.8221  -18.5693 C   0  0  0  0  0  0  0  0  0  0  0  0
  -16.4140   10.8109  -19.1816 C   0  0  0  0  0  0  0  0  0  0  0  0
 17 18  1  0  0  0
 18 19  2  0  0  0
 19 20  1  0  0  0
 20 21  2  0  0  0
 21 16  1  0  0  0
 16 15  1  0  0  0
 15 14  1  0  0  0
 14 13  1  0  0  0
 13  1  1  0  0  0
  1  2  1  0  0  0
  2  3  1  0  0  0
  3  4  1  0  0  0
  4  7  1  0  0  0
  7  8  2  0  0  0
  8  9  1  0  0  0
  9 10  2  0  0  0
 10 11  1  0  0  0
 11 12  2  0  0  0
  4  5  1  0  0  0
  5  6  1  0  0  0
 21 22  1  0  0  0
 22 23  2  0  0  0
 23 18  1  0  0  0
  6  1  1  0  0  0
 12  7  1  0  0  0
M  END
> <minimizedAffinity>
-6.93824

> <CNNscore>
0.3327500522

> <CNNaffinity>
5.9309349060

> <CNN_VS>
1.9735188484

> <CNNaffinity_variance>
0.3297974467

$$$$
[H]c1nc(N2C([H])([H])C([H])([H])N(C([H])([H])C([H])([H])C([H])([H])Sc3c([H])c([H])c(F)c([H])c3[H])C([H])([H])C2([H])[H])c([H])c([H])c1[H]


 23 25  0  0  0  0  0  0  0  0999 V2000
  -19.1851   16.4625  -21.2490 N   0  0  0  0  0  0  0  0  0  0  0  0
  -20.5330   16.6573  -20.7746 C   0  0  0  0  0  0  0  0  0  0  0  0
  -21.2546   17.8353  -21.3691 C   0  0  0  0  0  0  0  0  0  0  0  0
  -21.0877   17.9520  -22.7842 N   0  0  0  0  0  0  0  0  0  0  0  0
  -19.8695   17.4698  -23.3814 C   0  0  0  0  0  0  0  0  0  0  0  0
  -18.8300   17.3763  -22.3048 C   0  0  0  0  0  0  0  0  0  0  0  0
  -22.1182   18.5394  -23.5642 C   0  0  0  0  0  0  0  0  0  0  0  0
  -22.6435   17.9329  -24.6819 C   0  0  0  0  0  0  0  0  0  0  0  0
  -23.6501   18.5358  -25.4398 C   0  0  0  0  0  0  0  0  0  0  0  0
  -24.1377   19.7599  -25.0754 C   0  0  0  0  0  0  0  0  0  0  0  0
  -23.5982   20.3468  -23.9552 C   0  0  0  0  0  0  0  0  0  0  0  0
  -22.6328   19.7555  -23.2390 N   0  0  0  0  0  0  0  0  0  0  0  0
  -18.2281   16.4825  -20.1641 C   0  0  0  0  0  0  0  0  0  0  0  0
  -18.9587   16.3540  -18.8535 C   0  0  0  0  0  0  0  0  0  0  0  0
  -18.3645   15.1602  -18.1073 C   0  0  0  0  0  0  0  0  0  0  0  0
  -19.2249   13.6474  -18.6070 S   0  0  0  0  0  0  0  0  0  0  0  0
  -15.5538    9.8598  -21.3690 F   0  0  0  0  0  0  0  0  0  0  0  0
  -16.3860   10.7164  -20.7179 C   0  0  0  0  0  0  0  0  0  0  0  0
  -17.1186   11.6461  -21.4438 C   0  0  0  0  0  0  0  0  0  0  0  0
  -17.9657   12.5223  -20.8143 C   0  0  0  0  0  0  0  0  0  0  0  0
  -18.1264   12.5196  -19.4450 C   0  0  0  0  0  0  0  0  0  0  0  0
  -17.3931   11.5913  -18.7349 C   0  0  0  0  0  0  0  0  0  0  0  0
  -16.5337   10.6989  -19.3502 C   0  0  0  0  0  0  0  0  0  0  0  0
 17 18  1  0  0  0
 18 19  2  0  0  0
 19 20  1  0  0  0
 20 21  2  0  0  0
 21 16  1  0  0  0
 16 15  1  0  0  0
 15 14  1  0  0  0
 14 13  1  0  0  0
 13  1  1  0  0  0
  1  2  1  0  0  0
  2  3  1  0  0  0
  3  4  1  0  0  0
  4  7  1  0  0  0
  7  8  2  0  0  0
  8  9  1  0  0  0
  9 10  2  0  0  0
 10 11  1  0  0  0
 11 12  2  0  0  0
  4  5  1  0  0  0
  5  6  1  0  0  0
 21 22  1  0  0  0
 22 23  2  0  0  0
 23 18  1  0  0  0
  6  1  1  0  0  0
 12  7  1  0  0  0
M  END
> <minimizedAffinity>
-6.52043

> <CNNscore>
0.2567956746

> <CNNaffinity>
5.1138496399

> <CNN_VS>
1.3132144213

> <CNNaffinity_variance>
0.4296010435

$$$$
[H]c1nc(N2C([H])([H])C([H])([H])N(C([H])([H])C([H])([H])C([H])([H])Sc3c([H])c([H])c(F)c([H])c3[H])C([H])([H])C2([H])[H])c([H])c([H])c1[H]


 23 25  0  0  0  0  0  0  0  0999 V2000
  -17.3716   12.2198  -19.3683 N   0  0  0  0  0  0  0  0  0  0  0  0
  -18.2339   12.8359  -18.3903 C   0  0  0  0  0  0  0  0  0  0  0  0
  -19.3243   11.9503  -17.8531 C   0  0  0  0  0  0  0  0  0  0  0  0
  -18.8788   10.6325  -17.5233 N   0  0  0  0  0  0  0  0  0  0  0  0
  -17.7813   10.0656  -18.2631 C   0  0  0  0  0  0  0  0  0  0  0  0
  -17.6527   10.8188  -19.5532 C   0  0  0  0  0  0  0  0  0  0  0  0
  -19.5254    9.9152  -16.4827 C   0  0  0  0  0  0  0  0  0  0  0  0
  -20.8419   10.1234  -16.1415 C   0  0  0  0  0  0  0  0  0  0  0  0
  -21.4532    9.4123  -15.1062 C   0  0  0  0  0  0  0  0  0  0  0  0
  -20.7397    8.4816  -14.4037 C   0  0  0  0  0  0  0  0  0  0  0  0
  -19.4262    8.2902  -14.7624 C   0  0  0  0  0  0  0  0  0  0  0  0
  -18.8542    8.9805  -15.7578 N   0  0  0  0  0  0  0  0  0  0  0  0
  -17.3754   12.9475  -20.6188 C   0  0  0  0  0  0  0  0  0  0  0  0
  -16.9756   12.0197  -21.7358 C   0  0  0  0  0  0  0  0  0  0  0  0
  -17.1157   12.7885  -23.0489 C   0  0  0  0  0  0  0  0  0  0  0  0
  -15.6170   13.7617  -23.3411 S   0  0  0  0  0  0  0  0  0  0  0  0
  -15.5570   15.9857  -28.8639 F   0  0  0  0  0  0  0  0  0  0  0  0
  -15.5896   15.4658  -27.6074 C   0  0  0  0  0  0  0  0  0  0  0  0
  -14.5836   15.7867  -26.7057 C   0  0  0  0  0  0  0  0  0  0  0  0
  -14.5904   15.2775  -25.4320 C   0  0  0  0  0  0  0  0  0  0  0  0
  -15.5872   14.4319  -24.9936 C   0  0  0  0  0  0  0  0  0  0  0  0
  -16.5809   14.1206  -25.8987 C   0  0  0  0  0  0  0  0  0  0  0  0
  -16.5928   14.6232  -27.1874 C   0  0  0  0  0  0  0  0  0  0  0  0
 17 18  1  0  0  0
 18 19  2  0  0  0
 19 20  1  0  0  0
 20 21  2  0  0  0
 21 16  1  0  0  0
 16 15  1  0  0  0
 15 14  1  0  0  0
 14 13  1  0  0  0
 13  1  1  0  0  0
  1  2  1  0  0  0
  2  3  1  0  0  0
  3  4  1  0  0  0
  4  7  1  0  0  0
  7  8  2  0  0  0
  8  9  1  0  0  0
  9 10  2  0  0  0
 10 11  1  0  0  0
 11 12  2  0  0  0
  4  5  1  0  0  0
  5  6  1  0  0  0
 21 22  1  0  0  0
 22 23  2  0  0  0
 23 18  1  0  0  0
  6  1  1  0  0  0
 12  7  1  0  0  0
M  END
> <minimizedAffinity>
-7.27596

> <CNNscore>
0.2206458151

> <CNNaffinity>
5.4799265862

> <CNN_VS>
1.2091228962

> <CNNaffinity_variance>
0.3178629577

$$$$
[H]c1nc(N2C([H])([H])C([H])([H])N(C([H])([H])C([H])([H])C([H])([H])Sc3c([H])c([H])c(F)c([H])c3[H])C([H])([H])C2([H])[H])c([H])c([H])c1[H]


 23 25  0  0  0  0  0  0  0  0999 V2000
  -15.6446   13.9995  -25.5006 N   0  0  0  0  0  0  0  0  0  0  0  0
  -14.7404   13.9415  -24.3787 C   0  0  0  0  0  0  0  0  0  0  0  0
  -15.3987   13.7781  -23.0365 C   0  0  0  0  0  0  0  0  0  0  0  0
  -16.4395   12.7980  -23.0268 N   0  0  0  0  0  0  0  0  0  0  0  0
  -17.1878   12.5685  -24.2354 C   0  0  0  0  0  0  0  0  0  0  0  0
  -17.0150   13.7648  -25.1228 C   0  0  0  0  0  0  0  0  0  0  0  0
  -16.7129   12.0794  -21.8335 C   0  0  0  0  0  0  0  0  0  0  0  0
  -17.6693   12.4766  -20.9277 C   0  0  0  0  0  0  0  0  0  0  0  0
  -17.9129   11.7583  -19.7547 C   0  0  0  0  0  0  0  0  0  0  0  0
  -17.1915   10.6290  -19.4842 C   0  0  0  0  0  0  0  0  0  0  0  0
  -16.2415   10.2510  -20.4035 C   0  0  0  0  0  0  0  0  0  0  0  0
  -16.0198   10.9509  -21.5239 N   0  0  0  0  0  0  0  0  0  0  0  0
  -15.4873   15.2261  -26.2517 C   0  0  0  0  0  0  0  0  0  0  0  0
  -16.6054   16.1718  -25.9000 C   0  0  0  0  0  0  0  0  0  0  0  0
  -16.0964   17.1018  -24.7996 C   0  0  0  0  0  0  0  0  0  0  0  0
  -17.5044   17.8000  -23.9005 S   0  0  0  0  0  0  0  0  0  0  0  0
  -18.0389   15.3671  -18.4926 F   0  0  0  0  0  0  0  0  0  0  0  0
  -17.8955   15.9293  -19.7228 C   0  0  0  0  0  0  0  0  0  0  0  0
  -18.9309   15.8388  -20.6435 C   0  0  0  0  0  0  0  0  0  0  0  0
  -18.8146   16.3962  -21.8915 C   0  0  0  0  0  0  0  0  0  0  0  0
  -17.6749   17.0651  -22.2844 C   0  0  0  0  0  0  0  0  0  0  0  0
  -16.6533   17.1482  -21.3608 C   0  0  0  0  0  0  0  0  0  0  0  0
  -16.7503   16.5933  -20.0974 C   0  0  0  0  0  0  0  0  0  0  0  0
 17 18  1  0  0  0
 18 19  2  0  0  0
 19 20  1  0  0  0
 20 21  2  0  0  0
 21 16  1  0  0  0
 16 15  1  0  0  0
 15 14  1  0  0  0
 14 13  1  0  0  0
 13  1  1  0  0  0
  1  2  1  0  0  0
  2  3  1  0  0  0
  3  4  1  0  0  0
  4  7  1  0  0  0
  7  8  2  0  0  0
  8  9  1  0  0  0
  9 10  2  0  0  0
 10 11  1  0  0  0
 11 12  2  0  0  0
  4  5  1  0  0  0
  5  6  1  0  0  0
 21 22  1  0  0  0
 22 23  2  0  0  0
 23 18  1  0  0  0
  6  1  1  0  0  0
 12  7  1  0  0  0
M  END
> <minimizedAffinity>
-6.65025

> <CNNscore>
0.2149235159

> <CNNaffinity>
6.2919564247

> <CNN_VS>
1.3522894382

> <CNNaffinity_variance>
0.0736732110

$$$$
[H]c1nc(N2C([H])([H])C([H])([H])N(C([H])([H])C([H])([H])C([H])([H])Sc3c([H])c([H])c(F)c([H])c3[H])C([H])([H])C2([H])[H])c([H])c([H])c1[H]


 23 25  0  0  0  0  0  0  0  0999 V2000
  -17.9526   14.6507  -19.6598 N   0  0  0  0  0  0  0  0  0  0  0  0
  -18.8723   14.6804  -18.5494 C   0  0  0  0  0  0  0  0  0  0  0  0
  -19.6288   13.4023  -18.3132 C   0  0  0  0  0  0  0  0  0  0  0  0
  -18.8110   12.2323  -18.3912 N   0  0  0  0  0  0  0  0  0  0  0  0
  -17.6609   12.2460  -19.2576 C   0  0  0  0  0  0  0  0  0  0  0  0
  -17.8479   13.3452  -20.2601 C   0  0  0  0  0  0  0  0  0  0  0  0
  -19.1495   11.0892  -17.6205 C   0  0  0  0  0  0  0  0  0  0  0  0
  -20.1782   11.0853  -16.7068 C   0  0  0  0  0  0  0  0  0  0  0  0
  -20.4856    9.9507  -15.9521 C   0  0  0  0  0  0  0  0  0  0  0  0
  -19.7557    8.8061  -16.1131 C   0  0  0  0  0  0  0  0  0  0  0  0
  -18.7330    8.8331  -17.0317 C   0  0  0  0  0  0  0  0  0  0  0  0
  -18.4507    9.9295  -17.7478 N   0  0  0  0  0  0  0  0  0  0  0  0
  -18.2562   15.6770  -20.6334 C   0  0  0  0  0  0  0  0  0  0  0  0
  -16.9812   16.3644  -21.0460 C   0  0  0  0  0  0  0  0  0  0  0  0
  -17.2649   17.1297  -22.3378 C   0  0  0  0  0  0  0  0  0  0  0  0
  -16.0159   16.7044  -23.5777 S   0  0  0  0  0  0  0  0  0  0  0  0
  -17.5699   11.8870  -26.7128 F   0  0  0  0  0  0  0  0  0  0  0  0
  -17.2115   12.9989  -26.0162 C   0  0  0  0  0  0  0  0  0  0  0  0
  -17.2548   12.9827  -24.6284 C   0  0  0  0  0  0  0  0  0  0  0  0
  -16.8990   14.0890  -23.8996 C   0  0  0  0  0  0  0  0  0  0  0  0
  -16.4862   15.2561  -24.5064 C   0  0  0  0  0  0  0  0  0  0  0  0
  -16.4474   15.2596  -25.8855 C   0  0  0  0  0  0  0  0  0  0  0  0
  -16.8018   14.1551  -26.6391 C   0  0  0  0  0  0  0  0  0  0  0  0
 17 18  1  0  0  0
 18 19  2  0  0  0
 19 20  1  0  0  0
 20 21  2  0  0  0
 21 16  1  0  0  0
 16 15  1  0  0  0
 15 14  1  0  0  0
 14 13  1  0  0  0
 13  1  1  0  0  0
  1  2  1  0  0  0
  2  3  1  0  0  0
  3  4  1  0  0  0
  4  7  1  0  0  0
  7  8  2  0  0  0
  8  9  1  0  0  0
  9 10  2  0  0  0
 10 11  1  0  0  0
 11 12  2  0  0  0
  4  5  1  0  0  0
  5  6  1  0  0  0
 21 22  1  0  0  0
 22 23  2  0  0  0
 23 18  1  0  0  0
  6  1  1  0  0  0
 12  7  1  0  0  0
M  END
> <minimizedAffinity>
-7.01546

> <CNNscore>
0.2111376822

> <CNNaffinity>
5.6807732582

> <CNN_VS>
1.1994253397

> <CNNaffinity_variance>
0.2126527727

$$$$
[H]c1c([H])c([H])c2c(c1[H])[C@]([H])(c1c([H])c([H])c(F)c([H])c1[H])C([H])([H])C([H])([H])[C@]2([H])N([H])C([H])([H])[H]


 20 22  0  0  0  0  0  0  0  0999 V2000
  -20.7596   14.5843  -17.0065 C   0  0  0  0  0  0  0  0  0  0  0  0
  -19.9418   15.1552  -18.1163 C   0  0  0  0  0  0  0  0  0  0  0  0
  -18.6940   14.3352  -18.3463 C   0  0  0  0  0  0  0  0  0  0  0  0
  -19.1866   12.9792  -18.8733 C   0  0  0  0  0  0  0  0  0  0  0  0
  -19.8395   12.3425  -17.6881 C   0  0  0  0  0  0  0  0  0  0  0  0
  -19.6998   10.9986  -17.4752 C   0  0  0  0  0  0  0  0  0  0  0  0
  -20.3104   10.4321  -16.3735 C   0  0  0  0  0  0  0  0  0  0  0  0
  -21.0482   11.1675  -15.4906 C   0  0  0  0  0  0  0  0  0  0  0  0
  -21.1697   12.5299  -15.7369 C   0  0  0  0  0  0  0  0  0  0  0  0
  -20.5741   13.1276  -16.8256 C   0  0  0  0  0  0  0  0  0  0  0  0
  -18.1297   12.1770  -19.4760 C   0  0  0  0  0  0  0  0  0  0  0  0
  -18.0911   12.0002  -20.8400 C   0  0  0  0  0  0  0  0  0  0  0  0
  -17.1087   11.2497  -21.4499 C   0  0  0  0  0  0  0  0  0  0  0  0
  -16.1325   10.6539  -20.6893 C   0  0  0  0  0  0  0  0  0  0  0  0
  -15.1654    9.9126  -21.3029 F   0  0  0  0  0  0  0  0  0  0  0  0
  -16.1455   10.8123  -19.3313 C   0  0  0  0  0  0  0  0  0  0  0  0
  -17.1469   11.5761  -18.7216 C   0  0  0  0  0  0  0  0  0  0  0  0
  -20.3731   16.7218  -15.9604 C   0  0  0  0  0  0  0  0  0  0  0  0
  -20.6412   15.3244  -15.7643 N   0  0  0  0  0  0  0  0  0  0  0  0
  -21.5603   15.2362  -15.2760 H   0  0  0  0  0  0  0  0  0  0  0  0
 18 19  1  0  0  0
 19  1  1  0  0  0
  1  2  1  0  0  0
  2  3  1  0  0  0
  3  4  1  0  0  0
  4 11  1  0  0  0
 11 12  2  0  0  0
 12 13  1  0  0  0
 13 14  2  0  0  0
 14 15  1  0  0  0
 14 16  1  0  0  0
 16 17  2  0  0  0
  4  5  1  0  0  0
  5  6  2  0  0  0
  6  7  1  0  0  0
  7  8  2  0  0  0
  8  9  1  0  0  0
  9 10  2  0  0  0
 10  1  1  0  0  0
 17 11  1  0  0  0
 10  5  1  0  0  0
 19 20  1  0  0  0
M  END
> <minimizedAffinity>
-7.13365

> <CNNscore>
0.6033266187

> <CNNaffinity>
5.0071773529

> <CNN_VS>
3.0209634304

> <CNNaffinity_variance>
0.1583966315

$$$$
[H]c1c([H])c([H])c2c(c1[H])[C@]([H])(c1c([H])c([H])c(F)c([H])c1[H])C([H])([H])C([H])([H])[C@]2([H])N([H])C([H])([H])[H]


 20 22  0  0  0  0  0  0  0  0999 V2000
  -20.7690   11.8407  -15.9493 C   0  0  0  0  0  0  0  0  0  0  0  0
  -19.8838   10.6472  -16.0848 C   0  0  0  0  0  0  0  0  0  0  0  0
  -19.4425   10.4606  -17.5175 C   0  0  0  0  0  0  0  0  0  0  0  0
  -18.5380   11.6628  -17.8271 C   0  0  0  0  0  0  0  0  0  0  0  0
  -19.4783   12.8246  -17.8736 C   0  0  0  0  0  0  0  0  0  0  0  0
  -19.2938   13.8120  -18.8019 C   0  0  0  0  0  0  0  0  0  0  0  0
  -20.1752   14.8749  -18.8274 C   0  0  0  0  0  0  0  0  0  0  0  0
  -21.2236   14.9734  -17.9580 C   0  0  0  0  0  0  0  0  0  0  0  0
  -21.3818   13.9529  -17.0279 C   0  0  0  0  0  0  0  0  0  0  0  0
  -20.5216   12.8785  -16.9744 C   0  0  0  0  0  0  0  0  0  0  0  0
  -17.7426   11.4891  -19.0358 C   0  0  0  0  0  0  0  0  0  0  0  0
  -16.5301   10.8413  -18.9761 C   0  0  0  0  0  0  0  0  0  0  0  0
  -15.7473   10.6556  -20.0956 C   0  0  0  0  0  0  0  0  0  0  0  0
  -16.1745   11.1245  -21.3138 C   0  0  0  0  0  0  0  0  0  0  0  0
  -15.3917   10.9362  -22.4152 F   0  0  0  0  0  0  0  0  0  0  0  0
  -17.3754   11.7722  -21.4034 C   0  0  0  0  0  0  0  0  0  0  0  0
  -18.1627   11.9556  -20.2614 C   0  0  0  0  0  0  0  0  0  0  0  0
  -22.3942   10.1715  -15.3288 C   0  0  0  0  0  0  0  0  0  0  0  0
  -22.1740   11.5038  -15.8183 N   0  0  0  0  0  0  0  0  0  0  0  0
  -22.5781   12.1740  -15.1267 H   0  0  0  0  0  0  0  0  0  0  0  0
 18 19  1  0  0  0
 19  1  1  0  0  0
  1  2  1  0  0  0
  2  3  1  0  0  0
  3  4  1  0  0  0
  4 11  1  0  0  0
 11 12  2  0  0  0
 12 13  1  0  0  0
 13 14  2  0  0  0
 14 15  1  0  0  0
 14 16  1  0  0  0
 16 17  2  0  0  0
  4  5  1  0  0  0
  5  6  2  0  0  0
  6  7  1  0  0  0
  7  8  2  0  0  0
  8  9  1  0  0  0
  9 10  2  0  0  0
 10  1  1  0  0  0
 17 11  1  0  0  0
 10  5  1  0  0  0
 19 20  1  0  0  0
M  END
> <minimizedAffinity>
-6.82566

> <CNNscore>
0.4211369455

> <CNNaffinity>
4.7629675865

> <CNN_VS>
2.0058615208

> <CNNaffinity_variance>
0.2616922259

$$$$
[H]c1c([H])c([H])c2c(c1[H])[C@]([H])(c1c([H])c([H])c(F)c([H])c1[H])C([H])([H])C([H])([H])[C@]2([H])N([H])C([H])([H])[H]


 20 22  0  0  0  0  0  0  0  0999 V2000
  -16.7515   14.7815  -24.8491 C   0  0  0  0  0  0  0  0  0  0  0  0
  -17.1048   13.3341  -24.9293 C   0  0  0  0  0  0  0  0  0  0  0  0
  -16.6819   12.6035  -23.6764 C   0  0  0  0  0  0  0  0  0  0  0  0
  -17.5679   13.1668  -22.5553 C   0  0  0  0  0  0  0  0  0  0  0  0
  -17.0677   14.5626  -22.3613 C   0  0  0  0  0  0  0  0  0  0  0  0
  -16.9911   15.0885  -21.1010 C   0  0  0  0  0  0  0  0  0  0  0  0
  -16.5251   16.3792  -20.9454 C   0  0  0  0  0  0  0  0  0  0  0  0
  -16.1385   17.1474  -22.0061 C   0  0  0  0  0  0  0  0  0  0  0  0
  -16.2291   16.5821  -23.2725 C   0  0  0  0  0  0  0  0  0  0  0  0
  -16.6893   15.2980  -23.4640 C   0  0  0  0  0  0  0  0  0  0  0  0
  -17.5536   12.3534  -21.3461 C   0  0  0  0  0  0  0  0  0  0  0  0
  -18.4827   12.5743  -20.3556 C   0  0  0  0  0  0  0  0  0  0  0  0
  -18.5042   11.8275  -19.1971 C   0  0  0  0  0  0  0  0  0  0  0  0
  -17.5787   10.8301  -19.0095 C   0  0  0  0  0  0  0  0  0  0  0  0
  -17.6083   10.0976  -17.8589 F   0  0  0  0  0  0  0  0  0  0  0  0
  -16.6433   10.5879  -19.9769 C   0  0  0  0  0  0  0  0  0  0  0  0
  -16.6298   11.3514  -21.1494 C   0  0  0  0  0  0  0  0  0  0  0  0
  -15.9000   15.5364  -26.9746 C   0  0  0  0  0  0  0  0  0  0  0  0
  -15.5825   15.1333  -25.6330 N   0  0  0  0  0  0  0  0  0  0  0  0
  -15.1319   15.9421  -25.1498 H   0  0  0  0  0  0  0  0  0  0  0  0
 18 19  1  0  0  0
 19  1  1  0  0  0
  1  2  1  0  0  0
  2  3  1  0  0  0
  3  4  1  0  0  0
  4 11  1  0  0  0
 11 12  2  0  0  0
 12 13  1  0  0  0
 13 14  2  0  0  0
 14 15  1  0  0  0
 14 16  1  0  0  0
 16 17  2  0  0  0
  4  5  1  0  0  0
  5  6  2  0  0  0
  6  7  1  0  0  0
  7  8  2  0  0  0
  8  9  1  0  0  0
  9 10  2  0  0  0
 10  1  1  0  0  0
 17 11  1  0  0  0
 10  5  1  0  0  0
 19 20  1  0  0  0
M  END
> <minimizedAffinity>
-8.23399

> <CNNscore>
0.4149266183

> <CNNaffinity>
5.8409380913

> <CNN_VS>
2.4235606194

> <CNNaffinity_variance>
0.1069711000

$$$$
[H]c1c([H])c([H])c2c(c1[H])[C@]([H])(c1c([H])c([H])c(F)c([H])c1[H])C([H])([H])C([H])([H])[C@]2([H])N([H])C([H])([H])[H]


 20 22  0  0  0  0  0  0  0  0999 V2000
  -16.6308   14.7523  -24.7192 C   0  0  0  0  0  0  0  0  0  0  0  0
  -17.0103   13.3117  -24.8023 C   0  0  0  0  0  0  0  0  0  0  0  0
  -16.6410   12.5806  -23.5329 C   0  0  0  0  0  0  0  0  0  0  0  0
  -17.5497   13.1682  -22.4429 C   0  0  0  0  0  0  0  0  0  0  0  0
  -17.0279   14.5550  -22.2412 C   0  0  0  0  0  0  0  0  0  0  0  0
  -16.9797   15.0871  -20.9821 C   0  0  0  0  0  0  0  0  0  0  0  0
  -16.4929   16.3692  -20.8193 C   0  0  0  0  0  0  0  0  0  0  0  0
  -16.0586   17.1230  -21.8718 C   0  0  0  0  0  0  0  0  0  0  0  0
  -16.1214   16.5518  -23.1372 C   0  0  0  0  0  0  0  0  0  0  0  0
  -16.6011   15.2760  -23.3357 C   0  0  0  0  0  0  0  0  0  0  0  0
  -17.5889   12.3622  -21.2293 C   0  0  0  0  0  0  0  0  0  0  0  0
  -16.6779   11.3475  -21.0459 C   0  0  0  0  0  0  0  0  0  0  0  0
  -16.6801   10.5623  -19.9128 C   0  0  0  0  0  0  0  0  0  0  0  0
  -17.6118   10.7853  -18.9285 C   0  0  0  0  0  0  0  0  0  0  0  0
  -17.6057   10.0018  -17.8116 F   0  0  0  0  0  0  0  0  0  0  0  0
  -18.5295   11.7869  -19.0835 C   0  0  0  0  0  0  0  0  0  0  0  0
  -18.5190   12.5785  -20.2372 C   0  0  0  0  0  0  0  0  0  0  0  0
  -15.7046   15.5783  -26.7862 C   0  0  0  0  0  0  0  0  0  0  0  0
  -15.4315   15.0760  -25.4685 N   0  0  0  0  0  0  0  0  0  0  0  0
  -14.9378   15.8242  -24.9325 H   0  0  0  0  0  0  0  0  0  0  0  0
 18 19  1  0  0  0
 19  1  1  0  0  0
  1  2  1  0  0  0
  2  3  1  0  0  0
  3  4  1  0  0  0
  4 11  1  0  0  0
 11 12  2  0  0  0
 12 13  1  0  0  0
 13 14  2  0  0  0
 14 15  1  0  0  0
 14 16  1  0  0  0
 16 17  2  0  0  0
  4  5  1  0  0  0
  5  6  2  0  0  0
  6  7  1  0  0  0
  7  8  2  0  0  0
  8  9  1  0  0  0
  9 10  2  0  0  0
 10  1  1  0  0  0
 17 11  1  0  0  0
 10  5  1  0  0  0
 19 20  1  0  0  0
M  END
> <minimizedAffinity>
-8.27118

> <CNNscore>
0.3981226683

> <CNNaffinity>
5.8141212463

> <CNN_VS>
2.3147335052

> <CNNaffinity_variance>
0.1136286706

$$$$
[H]c1c([H])c([H])c2c(c1[H])[C@]([H])(c1c([H])c([H])c(F)c([H])c1[H])C([H])([H])C([H])([H])[C@]2([H])N([H])C([H])([H])[H]


 20 22  0  0  0  0  0  0  0  0999 V2000
  -17.7669   13.7997  -21.5684 C   0  0  0  0  0  0  0  0  0  0  0  0
  -18.8346   14.1413  -20.5837 C   0  0  0  0  0  0  0  0  0  0  0  0
  -19.4090   12.8942  -19.9538 C   0  0  0  0  0  0  0  0  0  0  0  0
  -18.2698   12.2983  -19.1133 C   0  0  0  0  0  0  0  0  0  0  0  0
  -17.2953   11.7903  -20.1274 C   0  0  0  0  0  0  0  0  0  0  0  0
  -16.6338   10.6139  -19.9052 C   0  0  0  0  0  0  0  0  0  0  0  0
  -15.7392   10.1633  -20.8560 C   0  0  0  0  0  0  0  0  0  0  0  0
  -15.4929   10.8518  -22.0092 C   0  0  0  0  0  0  0  0  0  0  0  0
  -16.1820   12.0430  -22.2031 C   0  0  0  0  0  0  0  0  0  0  0  0
  -17.0811   12.5217  -21.2759 C   0  0  0  0  0  0  0  0  0  0  0  0
  -18.7219   11.2909  -18.1621 C   0  0  0  0  0  0  0  0  0  0  0  0
  -19.7412   11.5800  -17.2840 C   0  0  0  0  0  0  0  0  0  0  0  0
  -20.1987   10.6559  -16.3692 C   0  0  0  0  0  0  0  0  0  0  0  0
  -19.6322    9.4056  -16.3187 C   0  0  0  0  0  0  0  0  0  0  0  0
  -20.0921    8.4989  -15.4089 F   0  0  0  0  0  0  0  0  0  0  0  0
  -18.6175    9.0901  -17.1792 C   0  0  0  0  0  0  0  0  0  0  0  0
  -18.1601   10.0350  -18.1042 C   0  0  0  0  0  0  0  0  0  0  0  0
  -17.9380   15.1851  -23.5342 C   0  0  0  0  0  0  0  0  0  0  0  0
  -18.2027   13.9005  -22.9486 N   0  0  0  0  0  0  0  0  0  0  0  0
  -17.6648   13.1832  -23.4842 H   0  0  0  0  0  0  0  0  0  0  0  0
 18 19  1  0  0  0
 19  1  1  0  0  0
  1  2  1  0  0  0
  2  3  1  0  0  0
  3  4  1  0  0  0
  4 11  1  0  0  0
 11 12  2  0  0  0
 12 13  1  0  0  0
 13 14  2  0  0  0
 14 15  1  0  0  0
 14 16  1  0  0  0
 16 17  2  0  0  0
  4  5  1  0  0  0
  5  6  2  0  0  0
  6  7  1  0  0  0
  7  8  2  0  0  0
  8  9  1  0  0  0
  9 10  2  0  0  0
 10  1  1  0  0  0
 17 11  1  0  0  0
 10  5  1  0  0  0
 19 20  1  0  0  0
M  END
> <minimizedAffinity>
-7.99190

> <CNNscore>
0.3168603182

> <CNNaffinity>
5.3779296875

> <CNN_VS>
1.7040525675

> <CNNaffinity_variance>
0.2463749647

$$$$
[H]c1c([H])c([H])c2c(c1[H])[C@]([H])(c1c([H])c([H])c(F)c([H])c1[H])C([H])([H])C([H])([H])[C@]2([H])N([H])C([H])([H])[H]


 20 22  0  0  0  0  0  0  0  0999 V2000
  -18.2554   15.5429  -20.0356 C   0  0  0  0  0  0  0  0  0  0  0  0
  -18.7509   15.4458  -18.6315 C   0  0  0  0  0  0  0  0  0  0  0  0
  -19.4145   14.1116  -18.3829 C   0  0  0  0  0  0  0  0  0  0  0  0
  -18.2893   13.0705  -18.4796 C   0  0  0  0  0  0  0  0  0  0  0  0
  -17.9370   13.0480  -19.9327 C   0  0  0  0  0  0  0  0  0  0  0  0
  -17.6281   11.8615  -20.5392 C   0  0  0  0  0  0  0  0  0  0  0  0
  -17.3069   11.8643  -21.8824 C   0  0  0  0  0  0  0  0  0  0  0  0
  -17.2871   13.0102  -22.6247 C   0  0  0  0  0  0  0  0  0  0  0  0
  -17.6060   14.1979  -21.9772 C   0  0  0  0  0  0  0  0  0  0  0  0
  -17.9310   14.2316  -20.6391 C   0  0  0  0  0  0  0  0  0  0  0  0
  -18.6589   11.7706  -17.9341 C   0  0  0  0  0  0  0  0  0  0  0  0
  -19.7696   11.6505  -17.1309 C   0  0  0  0  0  0  0  0  0  0  0  0
  -20.1540   10.4398  -16.5954 C   0  0  0  0  0  0  0  0  0  0  0  0
  -19.4185    9.3105  -16.8608 C   0  0  0  0  0  0  0  0  0  0  0  0
  -19.8073    8.1175  -16.3251 F   0  0  0  0  0  0  0  0  0  0  0  0
  -18.3097    9.3997  -17.6559 C   0  0  0  0  0  0  0  0  0  0  0  0
  -17.9278   10.6332  -18.1948 C   0  0  0  0  0  0  0  0  0  0  0  0
  -18.7095   17.7439  -20.9088 C   0  0  0  0  0  0  0  0  0  0  0  0
  -19.0973   16.3610  -20.8881 N   0  0  0  0  0  0  0  0  0  0  0  0
  -18.9985   15.9823  -21.8565 H   0  0  0  0  0  0  0  0  0  0  0  0
 18 19  1  0  0  0
 19  1  1  0  0  0
  1  2  1  0  0  0
  2  3  1  0  0  0
  3  4  1  0  0  0
  4 11  1  0  0  0
 11 12  2  0  0  0
 12 13  1  0  0  0
 13 14  2  0  0  0
 14 15  1  0  0  0
 14 16  1  0  0  0
 16 17  2  0  0  0
  4  5  1  0  0  0
  5  6  2  0  0  0
  6  7  1  0  0  0
  7  8  2  0  0  0
  8  9  1  0  0  0
  9 10  2  0  0  0
 10  1  1  0  0  0
 17 11  1  0  0  0
 10  5  1  0  0  0
 19 20  1  0  0  0
M  END
> <minimizedAffinity>
-7.31063

> <CNNscore>
0.3155985475

> <CNNaffinity>
5.2738966942

> <CNN_VS>
1.6644341946

> <CNNaffinity_variance>
0.1482428610

$$$$
[H]c1c([H])c([H])c2c(c1[H])[C@]([H])(c1c([H])c([H])c(F)c([H])c1[H])C([H])([H])C([H])([H])[C@]2([H])N([H])C([H])([H])[H]


 20 22  0  0  0  0  0  0  0  0999 V2000
  -18.6475   13.1316  -19.0555 C   0  0  0  0  0  0  0  0  0  0  0  0
  -18.9416   14.3837  -19.8120 C   0  0  0  0  0  0  0  0  0  0  0  0
  -17.8097   14.7264  -20.7520 C   0  0  0  0  0  0  0  0  0  0  0  0
  -17.8063   13.6142  -21.8113 C   0  0  0  0  0  0  0  0  0  0  0  0
  -17.3254   12.4070  -21.0713 C   0  0  0  0  0  0  0  0  0  0  0  0
  -16.4852   11.5213  -21.6880 C   0  0  0  0  0  0  0  0  0  0  0  0
  -16.0527   10.4140  -20.9851 C   0  0  0  0  0  0  0  0  0  0  0  0
  -16.4351   10.1736  -19.6964 C   0  0  0  0  0  0  0  0  0  0  0  0
  -17.2893   11.0936  -19.1001 C   0  0  0  0  0  0  0  0  0  0  0  0
  -17.7399   12.2085  -19.7718 C   0  0  0  0  0  0  0  0  0  0  0  0
  -17.0178   13.9450  -22.9914 C   0  0  0  0  0  0  0  0  0  0  0  0
  -15.8675   14.6895  -22.8655 C   0  0  0  0  0  0  0  0  0  0  0  0
  -15.0929   15.0237  -23.9558 C   0  0  0  0  0  0  0  0  0  0  0  0
  -15.4654   14.6100  -25.2115 C   0  0  0  0  0  0  0  0  0  0  0  0
  -14.6921   14.9470  -26.2838 F   0  0  0  0  0  0  0  0  0  0  0  0
  -16.6038   13.8689  -25.3670 C   0  0  0  0  0  0  0  0  0  0  0  0
  -17.3832   13.5347  -24.2540 C   0  0  0  0  0  0  0  0  0  0  0  0
  -18.6995   14.6278  -17.1656 C   0  0  0  0  0  0  0  0  0  0  0  0
  -18.2388   13.3700  -17.6840 N   0  0  0  0  0  0  0  0  0  0  0  0
  -18.6631   12.6079  -17.1096 H   0  0  0  0  0  0  0  0  0  0  0  0
 18 19  1  0  0  0
 19  1  1  0  0  0
  1  2  1  0  0  0
  2  3  1  0  0  0
  3  4  1  0  0  0
  4 11  1  0  0  0
 11 12  2  0  0  0
 12 13  1  0  0  0
 13 14  2  0  0  0
 14 15  1  0  0  0
 14 16  1  0  0  0
 16 17  2  0  0  0
  4  5  1  0  0  0
  5  6  2  0  0  0
  6  7  1  0  0  0
  7  8  2  0  0  0
  8  9  1  0  0  0
  9 10  2  0  0  0
 10  1  1  0  0  0
 17 11  1  0  0  0
 10  5  1  0  0  0
 19 20  1  0  0  0
M  END
> <minimizedAffinity>
-8.41037

> <CNNscore>
0.3074886203

> <CNNaffinity>
5.4639477730

> <CNN_VS>
1.6801017523

> <CNNaffinity_variance>
0.1898354590

$$$$
[H]c1c([H])c([H])c2c(c1[H])[C@]([H])(c1c([H])c([H])c(F)c([H])c1[H])C([H])([H])C([H])([H])[C@]2([H])N([H])C([H])([H])[H]


 20 22  0  0  0  0  0  0  0  0999 V2000
  -17.6025   13.3856  -20.4344 C   0  0  0  0  0  0  0  0  0  0  0  0
  -17.2988   12.3907  -21.5041 C   0  0  0  0  0  0  0  0  0  0  0  0
  -17.3766   13.0264  -22.8724 C   0  0  0  0  0  0  0  0  0  0  0  0
  -16.2158   14.0310  -22.9235 C   0  0  0  0  0  0  0  0  0  0  0  0
  -16.6309   15.1166  -21.9825 C   0  0  0  0  0  0  0  0  0  0  0  0
  -16.3601   16.4219  -22.2883 C   0  0  0  0  0  0  0  0  0  0  0  0
  -16.7538   17.4080  -21.4051 C   0  0  0  0  0  0  0  0  0  0  0  0
  -17.4036   17.1242  -20.2381 C   0  0  0  0  0  0  0  0  0  0  0  0
  -17.6629   15.7877  -19.9585 C   0  0  0  0  0  0  0  0  0  0  0  0
  -17.2844   14.7790  -20.8167 C   0  0  0  0  0  0  0  0  0  0  0  0
  -15.9126   14.4929  -24.2721 C   0  0  0  0  0  0  0  0  0  0  0  0
  -14.6292   14.8636  -24.6017 C   0  0  0  0  0  0  0  0  0  0  0  0
  -14.3002   15.3053  -25.8654 C   0  0  0  0  0  0  0  0  0  0  0  0
  -15.2691   15.3842  -26.8357 C   0  0  0  0  0  0  0  0  0  0  0  0
  -14.9329   15.8236  -28.0828 F   0  0  0  0  0  0  0  0  0  0  0  0
  -16.5534   15.0224  -26.5369 C   0  0  0  0  0  0  0  0  0  0  0  0
  -16.8772   14.5751  -25.2513 C   0  0  0  0  0  0  0  0  0  0  0  0
  -19.0230   12.2349  -18.8624 C   0  0  0  0  0  0  0  0  0  0  0  0
  -18.9356   13.2455  -19.8793 N   0  0  0  0  0  0  0  0  0  0  0  0
  -19.1756   14.1643  -19.4445 H   0  0  0  0  0  0  0  0  0  0  0  0
 18 19  1  0  0  0
 19  1  1  0  0  0
  1  2  1  0  0  0
  2  3  1  0  0  0
  3  4  1  0  0  0
  4 11  1  0  0  0
 11 12  2  0  0  0
 12 13  1  0  0  0
 13 14  2  0  0  0
 14 15  1  0  0  0
 14 16  1  0  0  0
 16 17  2  0  0  0
  4  5  1  0  0  0
  5  6  2  0  0  0
  6  7  1  0  0  0
  7  8  2  0  0  0
  8  9  1  0  0  0
  9 10  2  0  0  0
 10  1  1  0  0  0
 17 11  1  0  0  0
 10  5  1  0  0  0
 19 20  1  0  0  0
M  END
> <minimizedAffinity>
-7.87764

> <CNNscore>
0.3006557822

> <CNNaffinity>
5.4793353081

> <CNN_VS>
1.6473938227

> <CNNaffinity_variance>
0.2672315538

$$$$
[H]c1c([H])c([H])c2c(c1[H])[C@]([H])(c1c([H])c([H])c(F)c([H])c1[H])C([H])([H])C([H])([H])[C@]2([H])N([H])C([H])([H])[H]


 20 22  0  0  0  0  0  0  0  0999 V2000
  -18.8795   12.7868  -19.1964 C   0  0  0  0  0  0  0  0  0  0  0  0
  -19.2287   14.0170  -19.9652 C   0  0  0  0  0  0  0  0  0  0  0  0
  -18.0655   14.4729  -20.8145 C   0  0  0  0  0  0  0  0  0  0  0  0
  -17.8814   13.3794  -21.8774 C   0  0  0  0  0  0  0  0  0  0  0  0
  -17.3495   12.2110  -21.1106 C   0  0  0  0  0  0  0  0  0  0  0  0
  -16.3883   11.4129  -21.6674 C   0  0  0  0  0  0  0  0  0  0  0  0
  -15.9108   10.3400  -20.9406 C   0  0  0  0  0  0  0  0  0  0  0  0
  -16.3653   10.0492  -19.6862 C   0  0  0  0  0  0  0  0  0  0  0  0
  -17.3419   10.8805  -19.1507 C   0  0  0  0  0  0  0  0  0  0  0  0
  -17.8405   11.9589  -19.8476 C   0  0  0  0  0  0  0  0  0  0  0  0
  -17.0401   13.7956  -22.9922 C   0  0  0  0  0  0  0  0  0  0  0  0
  -17.3420   13.3912  -24.2723 C   0  0  0  0  0  0  0  0  0  0  0  0
  -16.5728   13.7627  -25.3542 C   0  0  0  0  0  0  0  0  0  0  0  0
  -15.4695   14.5592  -25.1673 C   0  0  0  0  0  0  0  0  0  0  0  0
  -14.7146   14.9203  -26.2449 F   0  0  0  0  0  0  0  0  0  0  0  0
  -15.1452   14.9764  -23.9063 C   0  0  0  0  0  0  0  0  0  0  0  0
  -15.9323   14.5940  -22.8145 C   0  0  0  0  0  0  0  0  0  0  0  0
  -19.7296   12.8188  -16.9405 C   0  0  0  0  0  0  0  0  0  0  0  0
  -18.5981   13.0431  -17.7964 N   0  0  0  0  0  0  0  0  0  0  0  0
  -17.8436   12.3771  -17.5172 H   0  0  0  0  0  0  0  0  0  0  0  0
 18 19  1  0  0  0
 19  1  1  0  0  0
  1  2  1  0  0  0
  2  3  1  0  0  0
  3  4  1  0  0  0
  4 11  1  0  0  0
 11 12  2  0  0  0
 12 13  1  0  0  0
 13 14  2  0  0  0
 14 15  1  0  0  0
 14 16  1  0  0  0
 16 17  2  0  0  0
  4  5  1  0  0  0
  5  6  2  0  0  0
  6  7  1  0  0  0
  7  8  2  0  0  0
  8  9  1  0  0  0
  9 10  2  0  0  0
 10  1  1  0  0  0
 17 11  1  0  0  0
 10  5  1  0  0  0
 19 20  1  0  0  0
M  END
> <minimizedAffinity>
-8.30136

> <CNNscore>
0.3004178405

> <CNNaffinity>
5.4431900978

> <CNN_VS>
1.6352313757

> <CNNaffinity_variance>
0.2278982699

$$$$
[H]OC(=O)C([H])(Oc1c([H])c([H])c(-c2noc([H])c3c(C(=O)C4([H])C([H])([H])C([H])([H])C([H])([H])C4([H])[H])c([H])c([H])c2-3)c([H])c1[H])C(=O)O[H]


 32 35  0  0  0  0  0  0  0  0999 V2000
  -17.1105   13.2988  -21.9478 C   0  0  0  0  0  0  0  0  0  0  0  0
  -18.2015   13.7436  -21.2318 C   0  0  0  0  0  0  0  0  0  0  0  0
  -18.5117   12.8701  -20.1949 C   0  0  0  0  0  0  0  0  0  0  0  0
  -17.6052   11.8340  -20.2349 C   0  0  0  0  0  0  0  0  0  0  0  0
  -17.3827   10.6893  -19.4994 C   0  0  0  0  0  0  0  0  0  0  0  0
  -16.3609    9.8704  -19.8306 N   0  0  0  0  0  0  0  0  0  0  0  0
  -15.5863   10.1330  -20.8206 O   0  0  0  0  0  0  0  0  0  0  0  0
  -15.7081   11.1903  -21.5836 C   0  0  0  0  0  0  0  0  0  0  0  0
  -16.7166   12.1177  -21.3560 C   0  0  0  0  0  0  0  0  0  0  0  0
  -18.2423   10.3624  -18.3655 C   0  0  0  0  0  0  0  0  0  0  0  0
  -19.0920   11.3219  -17.8596 C   0  0  0  0  0  0  0  0  0  0  0  0
  -19.9277   11.0673  -16.7782 C   0  0  0  0  0  0  0  0  0  0  0  0
  -19.9312    9.8369  -16.1742 C   0  0  0  0  0  0  0  0  0  0  0  0
  -19.0741    8.8580  -16.6790 C   0  0  0  0  0  0  0  0  0  0  0  0
  -18.2611    9.1315  -17.7437 C   0  0  0  0  0  0  0  0  0  0  0  0
  -20.7249    9.5218  -15.1105 O   0  0  0  0  0  0  0  0  0  0  0  0
  -20.9659    8.2967  -14.5132 C   0  0  0  0  0  0  0  0  0  0  0  0
  -22.4122    8.0257  -14.4574 C   0  0  0  0  0  0  0  0  0  0  0  0
  -23.1200    8.4526  -13.4982 O   0  0  0  0  0  0  0  0  0  0  0  0
  -23.0638    7.3046  -15.4258 O   0  0  0  0  0  0  0  0  0  0  0  0
  -23.4065    6.3705  -15.2511 H   0  0  0  0  0  0  0  0  0  0  0  0
  -20.2572    8.0962  -13.2281 C   0  0  0  0  0  0  0  0  0  0  0  0
  -19.2120    8.7464  -12.9909 O   0  0  0  0  0  0  0  0  0  0  0  0
  -20.7600    7.1926  -12.3059 O   0  0  0  0  0  0  0  0  0  0  0  0
  -20.3569    7.1614  -11.3800 H   0  0  0  0  0  0  0  0  0  0  0  0
  -15.8805   15.0148  -22.9839 O   0  0  0  0  0  0  0  0  0  0  0  0
  -16.4704   13.9094  -23.1043 C   0  0  0  0  0  0  0  0  0  0  0  0
  -16.4554   13.3205  -24.4558 C   0  0  0  0  0  0  0  0  0  0  0  0
  -17.6654   12.5634  -24.8378 C   0  0  0  0  0  0  0  0  0  0  0  0
  -17.5896   12.5559  -26.3695 C   0  0  0  0  0  0  0  0  0  0  0  0
  -16.7908   13.7512  -26.7724 C   0  0  0  0  0  0  0  0  0  0  0  0
  -16.2876   14.3734  -25.5047 C   0  0  0  0  0  0  0  0  0  0  0  0
 26 27  2  0  0  0
 27  1  1  0  0  0
  1  2  2  0  0  0
  2  3  1  0  0  0
  3  4  2  0  0  0
  4  5  1  0  0  0
  5 10  1  0  0  0
 10 11  2  0  0  0
 11 12  1  0  0  0
 12 13  2  0  0  0
 13 16  1  0  0  0
 16 17  1  0  0  0
 17 18  1  0  0  0
 18 19  2  0  0  0
 18 20  1  0  0  0
 17 22  1  0  0  0
 22 23  2  0  0  0
 22 24  1  0  0  0
 13 14  1  0  0  0
 14 15  2  0  0  0
  5  6  2  0  0  0
  6  7  1  0  0  0
  7  8  1  0  0  0
  8  9  2  0  0  0
 27 28  1  0  0  0
 28 29  1  0  0  0
 29 30  1  0  0  0
 30 31  1  0  0  0
 31 32  1  0  0  0
  9  1  1  0  0  0
 32 28  1  0  0  0
  9  4  1  0  0  0
 15 10  1  0  0  0
 20 21  1  0  0  0
 24 25  1  0  0  0
M  END
> <minimizedAffinity>
-8.72504

> <CNNscore>
0.8801144361

> <CNNaffinity>
6.6422376633

> <CNN_VS>
5.8459291458

> <CNNaffinity_variance>
0.5273116231

$$$$
[H]OC(=O)C([H])(Oc1c([H])c([H])c(-c2noc([H])c3c(C(=O)C4([H])C([H])([H])C([H])([H])C([H])([H])C4([H])[H])c([H])c([H])c2-3)c([H])c1[H])C(=O)O[H]


 32 35  0  0  0  0  0  0  0  0999 V2000
  -16.7085   12.8810  -22.5301 C   0  0  0  0  0  0  0  0  0  0  0  0
  -17.7936   13.5142  -21.9623 C   0  0  0  0  0  0  0  0  0  0  0  0
  -18.2057   12.8631  -20.8044 C   0  0  0  0  0  0  0  0  0  0  0  0
  -17.3729   11.7831  -20.6124 C   0  0  0  0  0  0  0  0  0  0  0  0
  -17.2608   10.7786  -19.6747 C   0  0  0  0  0  0  0  0  0  0  0  0
  -16.2863    9.8520  -19.8015 N   0  0  0  0  0  0  0  0  0  0  0  0
  -15.4560    9.8832  -20.7806 O   0  0  0  0  0  0  0  0  0  0  0  0
  -15.4728   10.7907  -21.7246 C   0  0  0  0  0  0  0  0  0  0  0  0
  -16.4223   11.8043  -21.7182 C   0  0  0  0  0  0  0  0  0  0  0  0
  -18.1862   10.7155  -18.5471 C   0  0  0  0  0  0  0  0  0  0  0  0
  -18.3543    9.5255  -17.8733 C   0  0  0  0  0  0  0  0  0  0  0  0
  -19.2261    9.4071  -16.7970 C   0  0  0  0  0  0  0  0  0  0  0  0
  -19.9550   10.4857  -16.3681 C   0  0  0  0  0  0  0  0  0  0  0  0
  -19.7921   11.6958  -17.0440 C   0  0  0  0  0  0  0  0  0  0  0  0
  -18.9286   11.7884  -18.1001 C   0  0  0  0  0  0  0  0  0  0  0  0
  -20.8271   10.4374  -15.3203 O   0  0  0  0  0  0  0  0  0  0  0  0
  -22.1745   10.7502  -15.2699 C   0  0  0  0  0  0  0  0  0  0  0  0
  -22.4825   11.5089  -14.0461 C   0  0  0  0  0  0  0  0  0  0  0  0
  -23.6785   11.7744  -13.7261 O   0  0  0  0  0  0  0  0  0  0  0  0
  -21.5057   11.9654  -13.1977 O   0  0  0  0  0  0  0  0  0  0  0  0
  -21.2789   12.9475  -13.1296 H   0  0  0  0  0  0  0  0  0  0  0  0
  -23.0757    9.6015  -15.5192 C   0  0  0  0  0  0  0  0  0  0  0  0
  -22.6470    8.4341  -15.3609 O   0  0  0  0  0  0  0  0  0  0  0  0
  -24.3804    9.8336  -15.9238 O   0  0  0  0  0  0  0  0  0  0  0  0
  -25.0286    9.0594  -15.9566 H   0  0  0  0  0  0  0  0  0  0  0  0
  -14.7468   12.9993  -23.8219 O   0  0  0  0  0  0  0  0  0  0  0  0
  -15.9813   13.2320  -23.7417 C   0  0  0  0  0  0  0  0  0  0  0  0
  -16.5916   13.8617  -24.9268 C   0  0  0  0  0  0  0  0  0  0  0  0
  -15.6903   14.7052  -25.7390 C   0  0  0  0  0  0  0  0  0  0  0  0
  -16.4064   14.7569  -27.0942 C   0  0  0  0  0  0  0  0  0  0  0  0
  -17.2480   13.5273  -27.1900 C   0  0  0  0  0  0  0  0  0  0  0  0
  -17.1409   12.8345  -25.8648 C   0  0  0  0  0  0  0  0  0  0  0  0
 26 27  2  0  0  0
 27  1  1  0  0  0
  1  2  2  0  0  0
  2  3  1  0  0  0
  3  4  2  0  0  0
  4  5  1  0  0  0
  5 10  1  0  0  0
 10 11  2  0  0  0
 11 12  1  0  0  0
 12 13  2  0  0  0
 13 16  1  0  0  0
 16 17  1  0  0  0
 17 18  1  0  0  0
 18 19  2  0  0  0
 18 20  1  0  0  0
 17 22  1  0  0  0
 22 23  2  0  0  0
 22 24  1  0  0  0
 13 14  1  0  0  0
 14 15  2  0  0  0
  5  6  2  0  0  0
  6  7  1  0  0  0
  7  8  1  0  0  0
  8  9  2  0  0  0
 27 28  1  0  0  0
 28 29  1  0  0  0
 29 30  1  0  0  0
 30 31  1  0  0  0
 31 32  1  0  0  0
  9  1  1  0  0  0
 32 28  1  0  0  0
  9  4  1  0  0  0
 15 10  1  0  0  0
 20 21  1  0  0  0
 24 25  1  0  0  0
M  END
> <minimizedAffinity>
-9.46584

> <CNNscore>
0.8496032357

> <CNNaffinity>
6.4912781715

> <CNN_VS>
5.5150108337

> <CNNaffinity_variance>
0.4054756761

$$$$
[H]OC(=O)C([H])(Oc1c([H])c([H])c(-c2noc([H])c3c(C(=O)C4([H])C([H])([H])C([H])([H])C([H])([H])C4([H])[H])c([H])c([H])c2-3)c([H])c1[H])C(=O)O[H]


 32 35  0  0  0  0  0  0  0  0999 V2000
  -16.7870   12.7533  -22.4312 C   0  0  0  0  0  0  0  0  0  0  0  0
  -17.8548   13.4130  -21.8607 C   0  0  0  0  0  0  0  0  0  0  0  0
  -18.2593   12.7906  -20.6844 C   0  0  0  0  0  0  0  0  0  0  0  0
  -17.4393   11.7026  -20.4830 C   0  0  0  0  0  0  0  0  0  0  0  0
  -17.3279   10.7150  -19.5274 C   0  0  0  0  0  0  0  0  0  0  0  0
  -16.3685    9.7721  -19.6497 N   0  0  0  0  0  0  0  0  0  0  0  0
  -15.5521    9.7723  -20.6409 O   0  0  0  0  0  0  0  0  0  0  0  0
  -15.5696   10.6614  -21.6022 C   0  0  0  0  0  0  0  0  0  0  0  0
  -16.5044   11.6885  -21.6024 C   0  0  0  0  0  0  0  0  0  0  0  0
  -18.2377   10.6873  -18.3858 C   0  0  0  0  0  0  0  0  0  0  0  0
  -18.4197    9.5110  -17.6919 C   0  0  0  0  0  0  0  0  0  0  0  0
  -19.2779    9.4261  -16.6015 C   0  0  0  0  0  0  0  0  0  0  0  0
  -19.9787   10.5255  -16.1784 C   0  0  0  0  0  0  0  0  0  0  0  0
  -19.8014   11.7220  -16.8746 C   0  0  0  0  0  0  0  0  0  0  0  0
  -18.9518   11.7815  -17.9443 C   0  0  0  0  0  0  0  0  0  0  0  0
  -20.8361   10.5102  -15.1176 O   0  0  0  0  0  0  0  0  0  0  0  0
  -20.6950    9.9303  -13.8687 C   0  0  0  0  0  0  0  0  0  0  0  0
  -21.9101    9.1809  -13.5078 C   0  0  0  0  0  0  0  0  0  0  0  0
  -22.1903    8.0815  -14.0700 O   0  0  0  0  0  0  0  0  0  0  0  0
  -22.7944    9.6260  -12.5580 O   0  0  0  0  0  0  0  0  0  0  0  0
  -23.7087    9.9761  -12.8071 H   0  0  0  0  0  0  0  0  0  0  0  0
  -20.2148   10.8572  -12.8180 C   0  0  0  0  0  0  0  0  0  0  0  0
  -21.0042   11.6996  -12.3293 O   0  0  0  0  0  0  0  0  0  0  0  0
  -18.8993   10.7799  -12.3899 O   0  0  0  0  0  0  0  0  0  0  0  0
  -18.6148   11.3140  -11.5809 H   0  0  0  0  0  0  0  0  0  0  0  0
  -14.8546   12.7720  -23.7714 O   0  0  0  0  0  0  0  0  0  0  0  0
  -16.0725   13.0700  -23.6595 C   0  0  0  0  0  0  0  0  0  0  0  0
  -16.6775   13.7366  -24.8271 C   0  0  0  0  0  0  0  0  0  0  0  0
  -15.7775   14.6195  -25.5977 C   0  0  0  0  0  0  0  0  0  0  0  0
  -16.4799   14.7136  -26.9577 C   0  0  0  0  0  0  0  0  0  0  0  0
  -17.3063   13.4792  -27.1081 C   0  0  0  0  0  0  0  0  0  0  0  0
  -17.2052   12.7389  -25.8084 C   0  0  0  0  0  0  0  0  0  0  0  0
 26 27  2  0  0  0
 27  1  1  0  0  0
  1  2  2  0  0  0
  2  3  1  0  0  0
  3  4  2  0  0  0
  4  5  1  0  0  0
  5 10  1  0  0  0
 10 11  2  0  0  0
 11 12  1  0  0  0
 12 13  2  0  0  0
 13 16  1  0  0  0
 16 17  1  0  0  0
 17 18  1  0  0  0
 18 19  2  0  0  0
 18 20  1  0  0  0
 17 22  1  0  0  0
 22 23  2  0  0  0
 22 24  1  0  0  0
 13 14  1  0  0  0
 14 15  2  0  0  0
  5  6  2  0  0  0
  6  7  1  0  0  0
  7  8  1  0  0  0
  8  9  2  0  0  0
 27 28  1  0  0  0
 28 29  1  0  0  0
 29 30  1  0  0  0
 30 31  1  0  0  0
 31 32  1  0  0  0
  9  1  1  0  0  0
 32 28  1  0  0  0
  9  4  1  0  0  0
 15 10  1  0  0  0
 20 21  1  0  0  0
 24 25  1  0  0  0
M  END
> <minimizedAffinity>
-9.39315

> <CNNscore>
0.8119524121

> <CNNaffinity>
6.5163969994

> <CNN_VS>
5.2910041809

> <CNNaffinity_variance>
0.5646819472

$$$$
[H]OC(=O)C([H])(Oc1c([H])c([H])c(-c2noc([H])c3c(C(=O)C4([H])C([H])([H])C([H])([H])C([H])([H])C4([H])[H])c([H])c([H])c2-3)c([H])c1[H])C(=O)O[H]


 32 35  0  0  0  0  0  0  0  0999 V2000
  -16.8044   12.7346  -22.3831 C   0  0  0  0  0  0  0  0  0  0  0  0
  -17.9144   13.3380  -21.8312 C   0  0  0  0  0  0  0  0  0  0  0  0
  -18.3219   12.6793  -20.6760 C   0  0  0  0  0  0  0  0  0  0  0  0
  -17.4609   11.6243  -20.4697 C   0  0  0  0  0  0  0  0  0  0  0  0
  -17.3316   10.6267  -19.5269 C   0  0  0  0  0  0  0  0  0  0  0  0
  -16.3293    9.7281  -19.6382 N   0  0  0  0  0  0  0  0  0  0  0  0
  -15.4881    9.7800  -20.6070 O   0  0  0  0  0  0  0  0  0  0  0  0
  -15.5192   10.6835  -21.5545 C   0  0  0  0  0  0  0  0  0  0  0  0
  -16.4975   11.6693  -21.5637 C   0  0  0  0  0  0  0  0  0  0  0  0
  -18.2688   10.5407  -18.4107 C   0  0  0  0  0  0  0  0  0  0  0  0
  -18.4754    9.3279  -17.7902 C   0  0  0  0  0  0  0  0  0  0  0  0
  -19.3601    9.1874  -16.7272 C   0  0  0  0  0  0  0  0  0  0  0  0
  -20.0635   10.2663  -16.2581 C   0  0  0  0  0  0  0  0  0  0  0  0
  -19.8616   11.4993  -16.8798 C   0  0  0  0  0  0  0  0  0  0  0  0
  -18.9860   11.6134  -17.9238 C   0  0  0  0  0  0  0  0  0  0  0  0
  -20.9463   10.1970  -15.2205 O   0  0  0  0  0  0  0  0  0  0  0  0
  -20.7887    9.6628  -13.9533 C   0  0  0  0  0  0  0  0  0  0  0  0
  -19.4286    9.9194  -13.4509 C   0  0  0  0  0  0  0  0  0  0  0  0
  -19.0940   11.0650  -13.0281 O   0  0  0  0  0  0  0  0  0  0  0  0
  -18.4616    8.9468  -13.4150 O   0  0  0  0  0  0  0  0  0  0  0  0
  -17.6730    8.9593  -14.0463 H   0  0  0  0  0  0  0  0  0  0  0  0
  -21.2306    8.2547  -13.8272 C   0  0  0  0  0  0  0  0  0  0  0  0
  -20.4843    7.3339  -14.2354 O   0  0  0  0  0  0  0  0  0  0  0  0
  -22.4632    7.9751  -13.2594 O   0  0  0  0  0  0  0  0  0  0  0  0
  -22.6993    7.0159  -13.0479 H   0  0  0  0  0  0  0  0  0  0  0  0
  -14.8350   12.8837  -23.6598 O   0  0  0  0  0  0  0  0  0  0  0  0
  -16.0725   13.1023  -23.5868 C   0  0  0  0  0  0  0  0  0  0  0  0
  -16.6812   13.7339  -24.7717 C   0  0  0  0  0  0  0  0  0  0  0  0
  -15.7888   14.6083  -25.5606 C   0  0  0  0  0  0  0  0  0  0  0  0
  -16.4879   14.6620  -26.9245 C   0  0  0  0  0  0  0  0  0  0  0  0
  -17.3000   13.4152  -27.0477 C   0  0  0  0  0  0  0  0  0  0  0  0
  -17.1947   12.7073  -25.7304 C   0  0  0  0  0  0  0  0  0  0  0  0
 26 27  2  0  0  0
 27  1  1  0  0  0
  1  2  2  0  0  0
  2  3  1  0  0  0
  3  4  2  0  0  0
  4  5  1  0  0  0
  5 10  1  0  0  0
 10 11  2  0  0  0
 11 12  1  0  0  0
 12 13  2  0  0  0
 13 16  1  0  0  0
 16 17  1  0  0  0
 17 18  1  0  0  0
 18 19  2  0  0  0
 18 20  1  0  0  0
 17 22  1  0  0  0
 22 23  2  0  0  0
 22 24  1  0  0  0
 13 14  1  0  0  0
 14 15  2  0  0  0
  5  6  2  0  0  0
  6  7  1  0  0  0
  7  8  1  0  0  0
  8  9  2  0  0  0
 27 28  1  0  0  0
 28 29  1  0  0  0
 29 30  1  0  0  0
 30 31  1  0  0  0
 31 32  1  0  0  0
  9  1  1  0  0  0
 32 28  1  0  0  0
  9  4  1  0  0  0
 15 10  1  0  0  0
 20 21  1  0  0  0
 24 25  1  0  0  0
M  END
> <minimizedAffinity>
-9.49068

> <CNNscore>
0.7592263818

> <CNNaffinity>
6.4608087540

> <CNN_VS>
4.9052162170

> <CNNaffinity_variance>
0.4966855049

$$$$
[H]OC(=O)C([H])(Oc1c([H])c([H])c(-c2noc([H])c3c(C(=O)C4([H])C([H])([H])C([H])([H])C([H])([H])C4([H])[H])c([H])c([H])c2-3)c([H])c1[H])C(=O)O[H]


 32 35  0  0  0  0  0  0  0  0999 V2000
  -18.0953   13.5882  -21.4332 C   0  0  0  0  0  0  0  0  0  0  0  0
  -19.0701   13.9413  -20.5243 C   0  0  0  0  0  0  0  0  0  0  0  0
  -19.1834   12.9912  -19.5149 C   0  0  0  0  0  0  0  0  0  0  0  0
  -18.2644   11.9976  -19.7700 C   0  0  0  0  0  0  0  0  0  0  0  0
  -17.8925   10.8181  -19.1607 C   0  0  0  0  0  0  0  0  0  0  0  0
  -16.9131   10.0645  -19.7057 N   0  0  0  0  0  0  0  0  0  0  0  0
  -16.3157   10.4213  -20.7849 O   0  0  0  0  0  0  0  0  0  0  0  0
  -16.5901   11.5195  -21.4434 C   0  0  0  0  0  0  0  0  0  0  0  0
  -17.5763   12.3886  -20.9950 C   0  0  0  0  0  0  0  0  0  0  0  0
  -18.5488   10.3845  -17.9306 C   0  0  0  0  0  0  0  0  0  0  0  0
  -19.3494   11.2686  -17.2409 C   0  0  0  0  0  0  0  0  0  0  0  0
  -19.9934   10.9112  -16.0619 C   0  0  0  0  0  0  0  0  0  0  0  0
  -19.8487    9.6509  -15.5428 C   0  0  0  0  0  0  0  0  0  0  0  0
  -19.0397    8.7477  -16.2337 C   0  0  0  0  0  0  0  0  0  0  0  0
  -18.4163    9.1219  -17.3917 C   0  0  0  0  0  0  0  0  0  0  0  0
  -20.4514    9.2364  -14.3914 O   0  0  0  0  0  0  0  0  0  0  0  0
  -20.3133    9.7060  -13.0967 C   0  0  0  0  0  0  0  0  0  0  0  0
  -19.2107    9.0115  -12.4110 C   0  0  0  0  0  0  0  0  0  0  0  0
  -18.7223    9.4654  -11.3345 O   0  0  0  0  0  0  0  0  0  0  0  0
  -18.6578    7.8523  -12.8936 O   0  0  0  0  0  0  0  0  0  0  0  0
  -17.7313    7.8339  -13.2957 H   0  0  0  0  0  0  0  0  0  0  0  0
  -21.5783    9.7515  -12.3276 C   0  0  0  0  0  0  0  0  0  0  0  0
  -22.6360    9.3305  -12.8524 O   0  0  0  0  0  0  0  0  0  0  0  0
  -21.5745   10.2589  -11.0383 O   0  0  0  0  0  0  0  0  0  0  0  0
  -22.4039   10.1597  -10.4699 H   0  0  0  0  0  0  0  0  0  0  0  0
  -18.5091   14.9367  -23.3150 O   0  0  0  0  0  0  0  0  0  0  0  0
  -17.6679   14.2972  -22.6308 C   0  0  0  0  0  0  0  0  0  0  0  0
  -16.2809   14.3296  -23.1295 C   0  0  0  0  0  0  0  0  0  0  0  0
  -16.0261   13.5581  -24.3637 C   0  0  0  0  0  0  0  0  0  0  0  0
  -14.7369   14.1933  -24.8989 C   0  0  0  0  0  0  0  0  0  0  0  0
  -14.6848   15.5878  -24.3681 C   0  0  0  0  0  0  0  0  0  0  0  0
  -15.8441   15.7285  -23.4280 C   0  0  0  0  0  0  0  0  0  0  0  0
 26 27  2  0  0  0
 27  1  1  0  0  0
  1  2  2  0  0  0
  2  3  1  0  0  0
  3  4  2  0  0  0
  4  5  1  0  0  0
  5 10  1  0  0  0
 10 11  2  0  0  0
 11 12  1  0  0  0
 12 13  2  0  0  0
 13 16  1  0  0  0
 16 17  1  0  0  0
 17 18  1  0  0  0
 18 19  2  0  0  0
 18 20  1  0  0  0
 17 22  1  0  0  0
 22 23  2  0  0  0
 22 24  1  0  0  0
 13 14  1  0  0  0
 14 15  2  0  0  0
  5  6  2  0  0  0
  6  7  1  0  0  0
  7  8  1  0  0  0
  8  9  2  0  0  0
 27 28  1  0  0  0
 28 29  1  0  0  0
 29 30  1  0  0  0
 30 31  1  0  0  0
 31 32  1  0  0  0
  9  1  1  0  0  0
 32 28  1  0  0  0
  9  4  1  0  0  0
 15 10  1  0  0  0
 20 21  1  0  0  0
 24 25  1  0  0  0
M  END
> <minimizedAffinity>
-8.42846

> <CNNscore>
0.7510166764

> <CNNaffinity>
6.4841399193

> <CNN_VS>
4.8696970940

> <CNNaffinity_variance>
0.4612941742

$$$$
[H]OC(=O)C([H])(Oc1c([H])c([H])c(-c2noc([H])c3c(C(=O)C4([H])C([H])([H])C([H])([H])C([H])([H])C4([H])[H])c([H])c([H])c2-3)c([H])c1[H])C(=O)O[H]


 32 35  0  0  0  0  0  0  0  0999 V2000
  -17.8317   14.5290  -22.6383 C   0  0  0  0  0  0  0  0  0  0  0  0
  -18.8008   14.8161  -21.7006 C   0  0  0  0  0  0  0  0  0  0  0  0
  -18.8530   13.8354  -20.7158 C   0  0  0  0  0  0  0  0  0  0  0  0
  -17.8990   12.8887  -21.0167 C   0  0  0  0  0  0  0  0  0  0  0  0
  -17.4654   11.7100  -20.4479 C   0  0  0  0  0  0  0  0  0  0  0  0
  -16.4671   11.0133  -21.0332 N   0  0  0  0  0  0  0  0  0  0  0  0
  -15.9083   11.4239  -22.1140 O   0  0  0  0  0  0  0  0  0  0  0  0
  -16.2422   12.5268  -22.7361 C   0  0  0  0  0  0  0  0  0  0  0  0
  -17.2539   13.3411  -22.2441 C   0  0  0  0  0  0  0  0  0  0  0  0
  -18.0766   11.2162  -19.2174 C   0  0  0  0  0  0  0  0  0  0  0  0
  -17.7532    9.9587  -18.7566 C   0  0  0  0  0  0  0  0  0  0  0  0
  -18.3094    9.4361  -17.5946 C   0  0  0  0  0  0  0  0  0  0  0  0
  -19.2090   10.1665  -16.8625 C   0  0  0  0  0  0  0  0  0  0  0  0
  -19.5434   11.4416  -17.3208 C   0  0  0  0  0  0  0  0  0  0  0  0
  -18.9834   11.9346  -18.4666 C   0  0  0  0  0  0  0  0  0  0  0  0
  -19.7914    9.7135  -15.7151 O   0  0  0  0  0  0  0  0  0  0  0  0
  -19.2582    8.9560  -14.6867 C   0  0  0  0  0  0  0  0  0  0  0  0
  -19.6776    7.5499  -14.8107 C   0  0  0  0  0  0  0  0  0  0  0  0
  -20.4225    7.1722  -15.7624 O   0  0  0  0  0  0  0  0  0  0  0  0
  -19.2922    6.5851  -13.9146 O   0  0  0  0  0  0  0  0  0  0  0  0
  -19.9438    6.1819  -13.2563 H   0  0  0  0  0  0  0  0  0  0  0  0
  -19.4565    9.5354  -13.3381 C   0  0  0  0  0  0  0  0  0  0  0  0
  -20.0188    8.8535  -12.4490 O   0  0  0  0  0  0  0  0  0  0  0  0
  -19.0174   10.8237  -13.0782 O   0  0  0  0  0  0  0  0  0  0  0  0
  -19.0270   11.1623  -12.1264 H   0  0  0  0  0  0  0  0  0  0  0  0
  -18.0799   16.3440  -24.1132 O   0  0  0  0  0  0  0  0  0  0  0  0
  -17.4598   15.2873  -23.8243 C   0  0  0  0  0  0  0  0  0  0  0  0
  -16.3781   14.9070  -24.7511 C   0  0  0  0  0  0  0  0  0  0  0  0
  -16.5528   15.3427  -26.1521 C   0  0  0  0  0  0  0  0  0  0  0  0
  -15.1220   15.2941  -26.7018 C   0  0  0  0  0  0  0  0  0  0  0  0
  -14.2018   15.4626  -25.5381 C   0  0  0  0  0  0  0  0  0  0  0  0
  -15.0641   15.4702  -24.3118 C   0  0  0  0  0  0  0  0  0  0  0  0
 26 27  2  0  0  0
 27  1  1  0  0  0
  1  2  2  0  0  0
  2  3  1  0  0  0
  3  4  2  0  0  0
  4  5  1  0  0  0
  5 10  1  0  0  0
 10 11  2  0  0  0
 11 12  1  0  0  0
 12 13  2  0  0  0
 13 16  1  0  0  0
 16 17  1  0  0  0
 17 18  1  0  0  0
 18 19  2  0  0  0
 18 20  1  0  0  0
 17 22  1  0  0  0
 22 23  2  0  0  0
 22 24  1  0  0  0
 13 14  1  0  0  0
 14 15  2  0  0  0
  5  6  2  0  0  0
  6  7  1  0  0  0
  7  8  1  0  0  0
  8  9  2  0  0  0
 27 28  1  0  0  0
 28 29  1  0  0  0
 29 30  1  0  0  0
 30 31  1  0  0  0
 31 32  1  0  0  0
  9  1  1  0  0  0
 32 28  1  0  0  0
  9  4  1  0  0  0
 15 10  1  0  0  0
 20 21  1  0  0  0
 24 25  1  0  0  0
M  END
> <minimizedAffinity>
-9.05097

> <CNNscore>
0.6935765743

> <CNNaffinity>
6.5041227341

> <CNN_VS>
4.5111069679

> <CNNaffinity_variance>
0.5003193021

$$$$
[H]OC(=O)C([H])(Oc1c([H])c([H])c(-c2noc([H])c3c(C(=O)C4([H])C([H])([H])C([H])([H])C([H])([H])C4([H])[H])c([H])c([H])c2-3)c([H])c1[H])C(=O)O[H]


 32 35  0  0  0  0  0  0  0  0999 V2000
  -17.2143   13.1815  -22.7236 C   0  0  0  0  0  0  0  0  0  0  0  0
  -18.1938   13.9903  -22.1876 C   0  0  0  0  0  0  0  0  0  0  0  0
  -18.5465   13.5719  -20.9089 C   0  0  0  0  0  0  0  0  0  0  0  0
  -17.7822   12.4675  -20.6040 C   0  0  0  0  0  0  0  0  0  0  0  0
  -17.6605   11.6202  -19.5233 C   0  0  0  0  0  0  0  0  0  0  0  0
  -16.7728   10.6031  -19.5683 N   0  0  0  0  0  0  0  0  0  0  0  0
  -16.0345   10.4040  -20.5999 O   0  0  0  0  0  0  0  0  0  0  0  0
  -16.0693   11.1466  -21.6780 C   0  0  0  0  0  0  0  0  0  0  0  0
  -16.9365   12.2277  -21.7678 C   0  0  0  0  0  0  0  0  0  0  0  0
  -18.4822   11.8201  -18.3331 C   0  0  0  0  0  0  0  0  0  0  0  0
  -18.4846   13.0485  -17.7090 C   0  0  0  0  0  0  0  0  0  0  0  0
  -19.2432   13.2927  -16.5699 C   0  0  0  0  0  0  0  0  0  0  0  0
  -20.0220   12.3047  -16.0257 C   0  0  0  0  0  0  0  0  0  0  0  0
  -20.0265   11.0567  -16.6503 C   0  0  0  0  0  0  0  0  0  0  0  0
  -19.2722   10.8399  -17.7700 C   0  0  0  0  0  0  0  0  0  0  0  0
  -20.7887   12.4777  -14.9108 O   0  0  0  0  0  0  0  0  0  0  0  0
  -22.1096   12.8742  -14.7929 C   0  0  0  0  0  0  0  0  0  0  0  0
  -22.2448   14.3111  -15.0850 C   0  0  0  0  0  0  0  0  0  0  0  0
  -22.5385   14.7162  -16.2481 O   0  0  0  0  0  0  0  0  0  0  0  0
  -22.0610   15.2771  -14.1282 O   0  0  0  0  0  0  0  0  0  0  0  0
  -21.2507   15.8804  -14.1324 H   0  0  0  0  0  0  0  0  0  0  0  0
  -22.7648   12.4422  -13.5368 C   0  0  0  0  0  0  0  0  0  0  0  0
  -22.3830   12.9227  -12.4437 O   0  0  0  0  0  0  0  0  0  0  0  0
  -23.7912   11.5128  -13.5878 O   0  0  0  0  0  0  0  0  0  0  0  0
  -24.3264   11.3270  -12.7513 H   0  0  0  0  0  0  0  0  0  0  0  0
  -16.5286   12.2544  -24.7733 O   0  0  0  0  0  0  0  0  0  0  0  0
  -16.5757   13.2686  -24.0291 C   0  0  0  0  0  0  0  0  0  0  0  0
  -15.9551   14.4903  -24.5732 C   0  0  0  0  0  0  0  0  0  0  0  0
  -14.5115   14.3956  -24.8738 C   0  0  0  0  0  0  0  0  0  0  0  0
  -14.2977   15.5429  -25.8686 C   0  0  0  0  0  0  0  0  0  0  0  0
  -15.6101   15.7921  -26.5355 C   0  0  0  0  0  0  0  0  0  0  0  0
  -16.6092   14.9081  -25.8516 C   0  0  0  0  0  0  0  0  0  0  0  0
 26 27  2  0  0  0
 27  1  1  0  0  0
  1  2  2  0  0  0
  2  3  1  0  0  0
  3  4  2  0  0  0
  4  5  1  0  0  0
  5 10  1  0  0  0
 10 11  2  0  0  0
 11 12  1  0  0  0
 12 13  2  0  0  0
 13 16  1  0  0  0
 16 17  1  0  0  0
 17 18  1  0  0  0
 18 19  2  0  0  0
 18 20  1  0  0  0
 17 22  1  0  0  0
 22 23  2  0  0  0
 22 24  1  0  0  0
 13 14  1  0  0  0
 14 15  2  0  0  0
  5  6  2  0  0  0
  6  7  1  0  0  0
  7  8  1  0  0  0
  8  9  2  0  0  0
 27 28  1  0  0  0
 28 29  1  0  0  0
 29 30  1  0  0  0
 30 31  1  0  0  0
 31 32  1  0  0  0
  9  1  1  0  0  0
 32 28  1  0  0  0
  9  4  1  0  0  0
 15 10  1  0  0  0
 20 21  1  0  0  0
 24 25  1  0  0  0
M  END
> <minimizedAffinity>
-8.45939

> <CNNscore>
0.6851946115

> <CNNaffinity>
6.4403901100

> <CNN_VS>
4.4129204750

> <CNNaffinity_variance>
0.6005625725

$$$$
[H]OC(=O)C([H])(Oc1c([H])c([H])c(-c2noc([H])c3c(C(=O)C4([H])C([H])([H])C([H])([H])C([H])([H])C4([H])[H])c([H])c([H])c2-3)c([H])c1[H])C(=O)O[H]


 32 35  0  0  0  0  0  0  0  0999 V2000
  -17.4283   14.0613  -20.8738 C   0  0  0  0  0  0  0  0  0  0  0  0
  -18.4749   14.4123  -20.0478 C   0  0  0  0  0  0  0  0  0  0  0  0
  -18.8374   13.3552  -19.2197 C   0  0  0  0  0  0  0  0  0  0  0  0
  -18.0110   12.2926  -19.5111 C   0  0  0  0  0  0  0  0  0  0  0  0
  -17.8659   11.0010  -19.0512 C   0  0  0  0  0  0  0  0  0  0  0  0
  -16.9117   10.2060  -19.5821 N   0  0  0  0  0  0  0  0  0  0  0  0
  -16.1311   10.6259  -20.5113 O   0  0  0  0  0  0  0  0  0  0  0  0
  -16.1827   11.8315  -21.0200 C   0  0  0  0  0  0  0  0  0  0  0  0
  -17.1166   12.7540  -20.5667 C   0  0  0  0  0  0  0  0  0  0  0  0
  -18.7344   10.4928  -17.9934 C   0  0  0  0  0  0  0  0  0  0  0  0
  -19.7222   11.3038  -17.4785 C   0  0  0  0  0  0  0  0  0  0  0  0
  -20.5734   10.8737  -16.4670 C   0  0  0  0  0  0  0  0  0  0  0  0
  -20.4535    9.6124  -15.9440 C   0  0  0  0  0  0  0  0  0  0  0  0
  -19.4559    8.7830  -16.4586 C   0  0  0  0  0  0  0  0  0  0  0  0
  -18.6305    9.2279  -17.4537 C   0  0  0  0  0  0  0  0  0  0  0  0
  -21.2546    9.1288  -14.9515 O   0  0  0  0  0  0  0  0  0  0  0  0
  -22.6152    9.2858  -14.7515 C   0  0  0  0  0  0  0  0  0  0  0  0
  -22.9117    9.4363  -13.3170 C   0  0  0  0  0  0  0  0  0  0  0  0
  -21.9832    9.4484  -12.4561 O   0  0  0  0  0  0  0  0  0  0  0  0
  -24.1912    9.5680  -12.8397 O   0  0  0  0  0  0  0  0  0  0  0  0
  -24.6450    8.8254  -12.3268 H   0  0  0  0  0  0  0  0  0  0  0  0
  -23.4524    8.2802  -15.4456 C   0  0  0  0  0  0  0  0  0  0  0  0
  -22.9665    7.1592  -15.7262 O   0  0  0  0  0  0  0  0  0  0  0  0
  -24.7614    8.5931  -15.7750 O   0  0  0  0  0  0  0  0  0  0  0  0
  -25.3683    7.8624  -16.1192 H   0  0  0  0  0  0  0  0  0  0  0  0
  -16.0162   15.8214  -21.5365 O   0  0  0  0  0  0  0  0  0  0  0  0
  -16.7579   14.8659  -21.8852 C   0  0  0  0  0  0  0  0  0  0  0  0
  -16.8798   14.6484  -23.3383 C   0  0  0  0  0  0  0  0  0  0  0  0
  -16.0635   13.5481  -23.8917 C   0  0  0  0  0  0  0  0  0  0  0  0
  -16.7745   13.2317  -25.2131 C   0  0  0  0  0  0  0  0  0  0  0  0
  -18.1965   13.6591  -25.0565 C   0  0  0  0  0  0  0  0  0  0  0  0
  -18.2914   14.3403  -23.7244 C   0  0  0  0  0  0  0  0  0  0  0  0
 26 27  2  0  0  0
 27  1  1  0  0  0
  1  2  2  0  0  0
  2  3  1  0  0  0
  3  4  2  0  0  0
  4  5  1  0  0  0
  5 10  1  0  0  0
 10 11  2  0  0  0
 11 12  1  0  0  0
 12 13  2  0  0  0
 13 16  1  0  0  0
 16 17  1  0  0  0
 17 18  1  0  0  0
 18 19  2  0  0  0
 18 20  1  0  0  0
 17 22  1  0  0  0
 22 23  2  0  0  0
 22 24  1  0  0  0
 13 14  1  0  0  0
 14 15  2  0  0  0
  5  6  2  0  0  0
  6  7  1  0  0  0
  7  8  1  0  0  0
  8  9  2  0  0  0
 27 28  1  0  0  0
 28 29  1  0  0  0
 29 30  1  0  0  0
 30 31  1  0  0  0
 31 32  1  0  0  0
  9  1  1  0  0  0
 32 28  1  0  0  0
  9  4  1  0  0  0
 15 10  1  0  0  0
 20 21  1  0  0  0
 24 25  1  0  0  0
M  END
> <minimizedAffinity>
-7.63005

> <CNNscore>
0.6790112853

> <CNNaffinity>
6.3699369431

> <CNN_VS>
4.3252592087

> <CNNaffinity_variance>
0.7721673250

$$$$
[H]OC(=O)C([H])(Oc1c([H])c([H])c(-c2noc([H])c3c(C(=O)C4([H])C([H])([H])C([H])([H])C([H])([H])C4([H])[H])c([H])c([H])c2-3)c([H])c1[H])C(=O)O[H]


 32 35  0  0  0  0  0  0  0  0999 V2000
  -17.3038   13.8331  -22.3024 C   0  0  0  0  0  0  0  0  0  0  0  0
  -17.3547   12.4635  -22.4516 C   0  0  0  0  0  0  0  0  0  0  0  0
  -17.7369   11.8431  -21.2669 C   0  0  0  0  0  0  0  0  0  0  0  0
  -17.9393   12.8275  -20.3252 C   0  0  0  0  0  0  0  0  0  0  0  0
  -18.3189   12.8618  -19.0002 C   0  0  0  0  0  0  0  0  0  0  0  0
  -18.4223   14.0495  -18.3653 N   0  0  0  0  0  0  0  0  0  0  0  0
  -18.1737   15.1553  -18.9690 O   0  0  0  0  0  0  0  0  0  0  0  0
  -17.8063   15.2367  -20.2234 C   0  0  0  0  0  0  0  0  0  0  0  0
  -17.6605   14.0921  -20.9962 C   0  0  0  0  0  0  0  0  0  0  0  0
  -18.6122   11.6234  -18.2847 C   0  0  0  0  0  0  0  0  0  0  0  0
  -19.6665   11.5854  -17.3984 C   0  0  0  0  0  0  0  0  0  0  0  0
  -19.9870   10.4353  -16.6862 C   0  0  0  0  0  0  0  0  0  0  0  0
  -19.2532    9.2888  -16.8464 C   0  0  0  0  0  0  0  0  0  0  0  0
  -18.1830    9.3167  -17.7418 C   0  0  0  0  0  0  0  0  0  0  0  0
  -17.8867   10.4597  -18.4314 C   0  0  0  0  0  0  0  0  0  0  0  0
  -19.5135    8.1280  -16.1790 O   0  0  0  0  0  0  0  0  0  0  0  0
  -20.5003    7.8371  -15.2529 C   0  0  0  0  0  0  0  0  0  0  0  0
  -19.9202    7.7018  -13.9063 C   0  0  0  0  0  0  0  0  0  0  0  0
  -20.5592    7.1304  -12.9744 O   0  0  0  0  0  0  0  0  0  0  0  0
  -18.6744    8.1816  -13.5900 O   0  0  0  0  0  0  0  0  0  0  0  0
  -18.5523    8.9910  -12.9980 H   0  0  0  0  0  0  0  0  0  0  0  0
  -21.3955    6.7246  -15.6466 C   0  0  0  0  0  0  0  0  0  0  0  0
  -20.9675    5.8280  -16.4111 O   0  0  0  0  0  0  0  0  0  0  0  0
  -22.6938    6.6908  -15.1639 O   0  0  0  0  0  0  0  0  0  0  0  0
  -23.2533    5.8640  -15.3194 H   0  0  0  0  0  0  0  0  0  0  0  0
  -17.4068   16.0101  -23.1862 O   0  0  0  0  0  0  0  0  0  0  0  0
  -16.9455   14.8432  -23.2879 C   0  0  0  0  0  0  0  0  0  0  0  0
  -16.0555   14.6056  -24.4390 C   0  0  0  0  0  0  0  0  0  0  0  0
  -16.2170   15.5356  -25.5758 C   0  0  0  0  0  0  0  0  0  0  0  0
  -14.8825   15.3963  -26.3183 C   0  0  0  0  0  0  0  0  0  0  0  0
  -13.8699   14.9509  -25.3155 C   0  0  0  0  0  0  0  0  0  0  0  0
  -14.6169   14.6976  -24.0406 C   0  0  0  0  0  0  0  0  0  0  0  0
 26 27  2  0  0  0
 27  1  1  0  0  0
  1  2  2  0  0  0
  2  3  1  0  0  0
  3  4  2  0  0  0
  4  5  1  0  0  0
  5 10  1  0  0  0
 10 11  2  0  0  0
 11 12  1  0  0  0
 12 13  2  0  0  0
 13 16  1  0  0  0
 16 17  1  0  0  0
 17 18  1  0  0  0
 18 19  2  0  0  0
 18 20  1  0  0  0
 17 22  1  0  0  0
 22 23  2  0  0  0
 22 24  1  0  0  0
 13 14  1  0  0  0
 14 15  2  0  0  0
  5  6  2  0  0  0
  6  7  1  0  0  0
  7  8  1  0  0  0
  8  9  2  0  0  0
 27 28  1  0  0  0
 28 29  1  0  0  0
 29 30  1  0  0  0
 30 31  1  0  0  0
 31 32  1  0  0  0
  9  1  1  0  0  0
 32 28  1  0  0  0
  9  4  1  0  0  0
 15 10  1  0  0  0
 20 21  1  0  0  0
 24 25  1  0  0  0
M  END
> <minimizedAffinity>
-9.22509

> <CNNscore>
0.4083127677

> <CNNaffinity>
6.0494070053

> <CNN_VS>
2.4700500965

> <CNNaffinity_variance>
0.2541945577

$$$$
[H]c1c(OC([H])([H])[H])c([H])c2c3nnc(SC([H])([H])[H])nc3n(C([H])([H])[H])c2c1[H]


 18 20  0  0  0  0  0  0  0  0999 V2000
  -18.4650   10.0817  -17.4894 C   0  0  0  0  0  0  0  0  0  0  0  0
  -19.4617   10.9665  -17.1370 C   0  0  0  0  0  0  0  0  0  0  0  0
  -19.7062   12.0694  -17.9575 C   0  0  0  0  0  0  0  0  0  0  0  0
  -18.9741   12.2972  -19.1148 C   0  0  0  0  0  0  0  0  0  0  0  0
  -17.9832   11.4038  -19.4511 C   0  0  0  0  0  0  0  0  0  0  0  0
  -17.7333   10.2991  -18.6357 C   0  0  0  0  0  0  0  0  0  0  0  0
  -17.4067   11.8375  -20.6236 C   0  0  0  0  0  0  0  0  0  0  0  0
  -16.4086   11.3274  -21.3620 N   0  0  0  0  0  0  0  0  0  0  0  0
  -16.0385   11.9495  -22.4683 N   0  0  0  0  0  0  0  0  0  0  0  0
  -16.6756   13.0710  -22.8129 C   0  0  0  0  0  0  0  0  0  0  0  0
  -17.6768   13.6100  -22.0996 N   0  0  0  0  0  0  0  0  0  0  0  0
  -18.0836   12.9998  -20.9598 C   0  0  0  0  0  0  0  0  0  0  0  0
  -19.0314   13.2787  -20.0484 N   0  0  0  0  0  0  0  0  0  0  0  0
  -19.9469   14.4253  -20.0658 C   0  0  0  0  0  0  0  0  0  0  0  0
  -18.9773    8.4665  -15.6956 C   0  0  0  0  0  0  0  0  0  0  0  0
  -18.1751    8.9718  -16.7193 O   0  0  0  0  0  0  0  0  0  0  0  0
  -16.1484   13.8884  -24.3159 S   0  0  0  0  0  0  0  0  0  0  0  0
  -14.4758   14.5685  -24.0645 C   0  0  0  0  0  0  0  0  0  0  0  0
 15 16  1  0  0  0
 16  1  1  0  0  0
  1  2  2  0  0  0
  2  3  1  0  0  0
  3  4  2  0  0  0
  4  5  1  0  0  0
  5  6  2  0  0  0
  5  7  1  0  0  0
  7  8  2  0  0  0
  8  9  1  0  0  0
  9 10  2  0  0  0
 10 17  1  0  0  0
 17 18  1  0  0  0
 10 11  1  0  0  0
 11 12  2  0  0  0
 12 13  1  0  0  0
 13 14  1  0  0  0
  6  1  1  0  0  0
 12  7  1  0  0  0
 13  4  1  0  0  0
M  END
> <minimizedAffinity>
-6.46237

> <CNNscore>
0.8225470781

> <CNNaffinity>
5.6612963676

> <CNN_VS>
4.6566829681

> <CNNaffinity_variance>
0.0820583180

$$$$
[H]c1c(OC([H])([H])[H])c([H])c2c3nnc(SC([H])([H])[H])nc3n(C([H])([H])[H])c2c1[H]


 18 20  0  0  0  0  0  0  0  0999 V2000
  -18.1037   10.8220  -18.5781 C   0  0  0  0  0  0  0  0  0  0  0  0
  -19.0354   11.7616  -18.1913 C   0  0  0  0  0  0  0  0  0  0  0  0
  -19.2340   12.8858  -18.9950 C   0  0  0  0  0  0  0  0  0  0  0  0
  -18.5199   13.0813  -20.1694 C   0  0  0  0  0  0  0  0  0  0  0  0
  -17.5941   12.1333  -20.5400 C   0  0  0  0  0  0  0  0  0  0  0  0
  -17.3904   11.0070  -19.7416 C   0  0  0  0  0  0  0  0  0  0  0  0
  -17.0232   12.5437  -21.7235 C   0  0  0  0  0  0  0  0  0  0  0  0
  -16.0775   11.9822  -22.4929 N   0  0  0  0  0  0  0  0  0  0  0  0
  -15.6994   12.5926  -23.6031 N   0  0  0  0  0  0  0  0  0  0  0  0
  -16.2761   13.7540  -23.9204 C   0  0  0  0  0  0  0  0  0  0  0  0
  -17.2239   14.3448  -23.1759 N   0  0  0  0  0  0  0  0  0  0  0  0
  -17.6369   13.7483  -22.0311 C   0  0  0  0  0  0  0  0  0  0  0  0
  -18.5420   14.0743  -21.0922 N   0  0  0  0  0  0  0  0  0  0  0  0
  -19.3865   15.2741  -21.0749 C   0  0  0  0  0  0  0  0  0  0  0  0
  -18.7802    9.0706  -16.9769 C   0  0  0  0  0  0  0  0  0  0  0  0
  -17.8615    9.6885  -17.8260 O   0  0  0  0  0  0  0  0  0  0  0  0
  -15.7399   14.5540  -25.4297 S   0  0  0  0  0  0  0  0  0  0  0  0
  -16.3951   16.2548  -25.4631 C   0  0  0  0  0  0  0  0  0  0  0  0
 15 16  1  0  0  0
 16  1  1  0  0  0
  1  2  2  0  0  0
  2  3  1  0  0  0
  3  4  2  0  0  0
  4  5  1  0  0  0
  5  6  2  0  0  0
  5  7  1  0  0  0
  7  8  2  0  0  0
  8  9  1  0  0  0
  9 10  2  0  0  0
 10 17  1  0  0  0
 17 18  1  0  0  0
 10 11  1  0  0  0
 11 12  2  0  0  0
 12 13  1  0  0  0
 13 14  1  0  0  0
  6  1  1  0  0  0
 12  7  1  0  0  0
 13  4  1  0  0  0
M  END
> <minimizedAffinity>
-6.69928

> <CNNscore>
0.6903197169

> <CNNaffinity>
5.6156091690

> <CNN_VS>
3.8765656948

> <CNNaffinity_variance>
0.1329690367

$$$$
[H]c1c(OC([H])([H])[H])c([H])c2c3nnc(SC([H])([H])[H])nc3n(C([H])([H])[H])c2c1[H]


 18 20  0  0  0  0  0  0  0  0999 V2000
  -17.7247   11.3022  -19.7451 C   0  0  0  0  0  0  0  0  0  0  0  0
  -18.6745   12.2195  -19.3489 C   0  0  0  0  0  0  0  0  0  0  0  0
  -18.8387   13.3868  -20.0970 C   0  0  0  0  0  0  0  0  0  0  0  0
  -18.0729   13.6467  -21.2255 C   0  0  0  0  0  0  0  0  0  0  0  0
  -17.1298   12.7201  -21.6062 C   0  0  0  0  0  0  0  0  0  0  0  0
  -16.9602   11.5510  -20.8632 C   0  0  0  0  0  0  0  0  0  0  0  0
  -16.5070   13.1952  -22.7383 C   0  0  0  0  0  0  0  0  0  0  0  0
  -15.5268   12.6766  -23.4944 N   0  0  0  0  0  0  0  0  0  0  0  0
  -15.1003   13.3474  -24.5509 N   0  0  0  0  0  0  0  0  0  0  0  0
  -15.6642   14.5251  -24.8287 C   0  0  0  0  0  0  0  0  0  0  0  0
  -16.6455   15.0744  -24.0958 N   0  0  0  0  0  0  0  0  0  0  0  0
  -17.1085   14.4155  -23.0057 C   0  0  0  0  0  0  0  0  0  0  0  0
  -18.0553   14.6895  -22.0917 N   0  0  0  0  0  0  0  0  0  0  0  0
  -18.9018   15.8872  -22.0457 C   0  0  0  0  0  0  0  0  0  0  0  0
  -18.2193    9.7261  -17.9119 C   0  0  0  0  0  0  0  0  0  0  0  0
  -17.5147   10.1284  -19.0470 O   0  0  0  0  0  0  0  0  0  0  0  0
  -15.0621   15.4073  -26.2656 S   0  0  0  0  0  0  0  0  0  0  0  0
  -16.1972   15.1107  -27.6609 C   0  0  0  0  0  0  0  0  0  0  0  0
 15 16  1  0  0  0
 16  1  1  0  0  0
  1  2  2  0  0  0
  2  3  1  0  0  0
  3  4  2  0  0  0
  4  5  1  0  0  0
  5  6  2  0  0  0
  5  7  1  0  0  0
  7  8  2  0  0  0
  8  9  1  0  0  0
  9 10  2  0  0  0
 10 17  1  0  0  0
 17 18  1  0  0  0
 10 11  1  0  0  0
 11 12  2  0  0  0
 12 13  1  0  0  0
 13 14  1  0  0  0
  6  1  1  0  0  0
 12  7  1  0  0  0
 13  4  1  0  0  0
M  END
> <minimizedAffinity>
-7.15559

> <CNNscore>
0.6732550263

> <CNNaffinity>
5.8027076721

> <CNN_VS>
3.9067020416

> <CNNaffinity_variance>
0.1049389094

$$$$
[H]c1c(OC([H])([H])[H])c([H])c2c3nnc(SC([H])([H])[H])nc3n(C([H])([H])[H])c2c1[H]


 18 20  0  0  0  0  0  0  0  0999 V2000
  -17.3483   12.3834  -21.3177 C   0  0  0  0  0  0  0  0  0  0  0  0
  -18.1533   13.4988  -21.2257 C   0  0  0  0  0  0  0  0  0  0  0  0
  -19.0123   13.6227  -20.1321 C   0  0  0  0  0  0  0  0  0  0  0  0
  -19.0766   12.6552  -19.1385 C   0  0  0  0  0  0  0  0  0  0  0  0
  -18.2660   11.5487  -19.2467 C   0  0  0  0  0  0  0  0  0  0  0  0
  -17.4048   11.4182  -20.3370 C   0  0  0  0  0  0  0  0  0  0  0  0
  -18.5064   10.7436  -18.1561 C   0  0  0  0  0  0  0  0  0  0  0  0
  -17.9809    9.5631  -17.7931 N   0  0  0  0  0  0  0  0  0  0  0  0
  -18.3916    8.9878  -16.6757 N   0  0  0  0  0  0  0  0  0  0  0  0
  -19.3211    9.6067  -15.9442 C   0  0  0  0  0  0  0  0  0  0  0  0
  -19.8687   10.7864  -16.2758 N   0  0  0  0  0  0  0  0  0  0  0  0
  -19.4722   11.4061  -17.4141 C   0  0  0  0  0  0  0  0  0  0  0  0
  -19.8177   12.5618  -18.0071 N   0  0  0  0  0  0  0  0  0  0  0  0
  -20.8067   13.5302  -17.5196 C   0  0  0  0  0  0  0  0  0  0  0  0
  -16.3586   13.0496  -23.4778 C   0  0  0  0  0  0  0  0  0  0  0  0
  -16.4773   12.2030  -22.3750 O   0  0  0  0  0  0  0  0  0  0  0  0
  -19.8553    8.7994  -14.4381 S   0  0  0  0  0  0  0  0  0  0  0  0
  -19.3750    9.8290  -13.0123 C   0  0  0  0  0  0  0  0  0  0  0  0
 15 16  1  0  0  0
 16  1  1  0  0  0
  1  2  2  0  0  0
  2  3  1  0  0  0
  3  4  2  0  0  0
  4  5  1  0  0  0
  5  6  2  0  0  0
  5  7  1  0  0  0
  7  8  2  0  0  0
  8  9  1  0  0  0
  9 10  2  0  0  0
 10 17  1  0  0  0
 17 18  1  0  0  0
 10 11  1  0  0  0
 11 12  2  0  0  0
 12 13  1  0  0  0
 13 14  1  0  0  0
  6  1  1  0  0  0
 12  7  1  0  0  0
 13  4  1  0  0  0
M  END
> <minimizedAffinity>
-6.25494

> <CNNscore>
0.6683602929

> <CNNaffinity>
5.1348338127

> <CNN_VS>
3.4319190979

> <CNNaffinity_variance>
0.0480609350

$$$$
[H]c1c(OC([H])([H])[H])c([H])c2c3nnc(SC([H])([H])[H])nc3n(C([H])([H])[H])c2c1[H]


 18 20  0  0  0  0  0  0  0  0999 V2000
  -16.9482   10.8012  -19.7498 C   0  0  0  0  0  0  0  0  0  0  0  0
  -17.5868   10.3854  -18.6010 C   0  0  0  0  0  0  0  0  0  0  0  0
  -18.6254   11.1639  -18.0866 C   0  0  0  0  0  0  0  0  0  0  0  0
  -19.0301   12.3418  -18.7000 C   0  0  0  0  0  0  0  0  0  0  0  0
  -18.3815   12.7415  -19.8457 C   0  0  0  0  0  0  0  0  0  0  0  0
  -17.3425   11.9682  -20.3656 C   0  0  0  0  0  0  0  0  0  0  0  0
  -18.9539   13.9221  -20.2624 C   0  0  0  0  0  0  0  0  0  0  0  0
  -18.6892   14.7125  -21.3144 N   0  0  0  0  0  0  0  0  0  0  0  0
  -19.4001   15.8129  -21.4926 N   0  0  0  0  0  0  0  0  0  0  0  0
  -20.3622   16.0999  -20.6127 C   0  0  0  0  0  0  0  0  0  0  0  0
  -20.6546   15.3340  -19.5500 N   0  0  0  0  0  0  0  0  0  0  0  0
  -19.9471   14.1981  -19.3352 C   0  0  0  0  0  0  0  0  0  0  0  0
  -19.9940   13.2433  -18.3902 N   0  0  0  0  0  0  0  0  0  0  0  0
  -20.9126   13.1929  -17.2469 C   0  0  0  0  0  0  0  0  0  0  0  0
  -15.2850   10.3637  -21.5194 C   0  0  0  0  0  0  0  0  0  0  0  0
  -15.9138   10.0748  -20.3079 O   0  0  0  0  0  0  0  0  0  0  0  0
  -21.3047   17.5979  -20.8833 S   0  0  0  0  0  0  0  0  0  0  0  0
  -23.0523   17.1566  -21.1556 C   0  0  0  0  0  0  0  0  0  0  0  0
 15 16  1  0  0  0
 16  1  1  0  0  0
  1  2  2  0  0  0
  2  3  1  0  0  0
  3  4  2  0  0  0
  4  5  1  0  0  0
  5  6  2  0  0  0
  5  7  1  0  0  0
  7  8  2  0  0  0
  8  9  1  0  0  0
  9 10  2  0  0  0
 10 17  1  0  0  0
 17 18  1  0  0  0
 10 11  1  0  0  0
 11 12  2  0  0  0
 12 13  1  0  0  0
 13 14  1  0  0  0
  6  1  1  0  0  0
 12  7  1  0  0  0
 13  4  1  0  0  0
M  END
> <minimizedAffinity>
-5.94402

> <CNNscore>
0.6429184675

> <CNNaffinity>
5.5129194260

> <CNN_VS>
3.5443577766

> <CNNaffinity_variance>
0.0972448140

$$$$
[H]c1c(OC([H])([H])[H])c([H])c2c3nnc(SC([H])([H])[H])nc3n(C([H])([H])[H])c2c1[H]


 18 20  0  0  0  0  0  0  0  0999 V2000
  -16.3738   13.7248  -23.6802 C   0  0  0  0  0  0  0  0  0  0  0  0
  -17.2510   14.7855  -23.7573 C   0  0  0  0  0  0  0  0  0  0  0  0
  -18.2251   14.9291  -22.7676 C   0  0  0  0  0  0  0  0  0  0  0  0
  -18.3329   14.0344  -21.7115 C   0  0  0  0  0  0  0  0  0  0  0  0
  -17.4491   12.9817  -21.6505 C   0  0  0  0  0  0  0  0  0  0  0  0
  -16.4727   12.8320  -22.6363 C   0  0  0  0  0  0  0  0  0  0  0  0
  -17.7517   12.2435  -20.5285 C   0  0  0  0  0  0  0  0  0  0  0  0
  -17.1953   11.1318  -20.0225 N   0  0  0  0  0  0  0  0  0  0  0  0
  -17.6839   10.6124  -18.9091 N   0  0  0  0  0  0  0  0  0  0  0  0
  -18.7208   11.2171  -18.3248 C   0  0  0  0  0  0  0  0  0  0  0  0
  -19.3023   12.3289  -18.8018 N   0  0  0  0  0  0  0  0  0  0  0  0
  -18.8283   12.8899  -19.9409 C   0  0  0  0  0  0  0  0  0  0  0  0
  -19.1806   13.9727  -20.6552 N   0  0  0  0  0  0  0  0  0  0  0  0
  -20.2724   14.9032  -20.3466 C   0  0  0  0  0  0  0  0  0  0  0  0
  -14.4185   14.4637  -24.9916 C   0  0  0  0  0  0  0  0  0  0  0  0
  -15.3881   13.5285  -24.6284 O   0  0  0  0  0  0  0  0  0  0  0  0
  -19.3581   10.4868  -16.8196 S   0  0  0  0  0  0  0  0  0  0  0  0
  -18.6340    8.8263  -16.6146 C   0  0  0  0  0  0  0  0  0  0  0  0
 15 16  1  0  0  0
 16  1  1  0  0  0
  1  2  2  0  0  0
  2  3  1  0  0  0
  3  4  2  0  0  0
  4  5  1  0  0  0
  5  6  2  0  0  0
  5  7  1  0  0  0
  7  8  2  0  0  0
  8  9  1  0  0  0
  9 10  2  0  0  0
 10 17  1  0  0  0
 17 18  1  0  0  0
 10 11  1  0  0  0
 11 12  2  0  0  0
 12 13  1  0  0  0
 13 14  1  0  0  0
  6  1  1  0  0  0
 12  7  1  0  0  0
 13  4  1  0  0  0
M  END
> <minimizedAffinity>
-6.59511

> <CNNscore>
0.6241034269

> <CNNaffinity>
5.4864082336

> <CNN_VS>
3.4240860939

> <CNNaffinity_variance>
0.1956487596

$$$$
[H]c1c(OC([H])([H])[H])c([H])c2c3nnc(SC([H])([H])[H])nc3n(C([H])([H])[H])c2c1[H]


 18 20  0  0  0  0  0  0  0  0999 V2000
  -20.7008   10.2099  -14.6271 C   0  0  0  0  0  0  0  0  0  0  0  0
  -21.5216   11.3168  -14.5897 C   0  0  0  0  0  0  0  0  0  0  0  0
  -21.4389   12.2536  -15.6215 C   0  0  0  0  0  0  0  0  0  0  0  0
  -20.5545   12.0998  -16.6805 C   0  0  0  0  0  0  0  0  0  0  0  0
  -19.7428   10.9890  -16.7016 C   0  0  0  0  0  0  0  0  0  0  0  0
  -19.8202   10.0483  -15.6736 C   0  0  0  0  0  0  0  0  0  0  0  0
  -18.9648   11.0586  -17.8352 C   0  0  0  0  0  0  0  0  0  0  0  0
  -18.0222   10.2324  -18.3152 N   0  0  0  0  0  0  0  0  0  0  0  0
  -17.4122   10.5349  -19.4486 N   0  0  0  0  0  0  0  0  0  0  0  0
  -17.7586   11.6598  -20.0785 C   0  0  0  0  0  0  0  0  0  0  0  0
  -18.6954   12.5092  -19.6286 N   0  0  0  0  0  0  0  0  0  0  0  0
  -19.3421   12.2319  -18.4702 C   0  0  0  0  0  0  0  0  0  0  0  0
  -20.3031   12.8622  -17.7731 N   0  0  0  0  0  0  0  0  0  0  0  0
  -20.9501   14.1298  -18.1303 C   0  0  0  0  0  0  0  0  0  0  0  0
  -21.2880    7.9730  -13.7665 C   0  0  0  0  0  0  0  0  0  0  0  0
  -20.7354    9.2475  -13.6363 O   0  0  0  0  0  0  0  0  0  0  0  0
  -16.9121   12.0396  -21.6098 S   0  0  0  0  0  0  0  0  0  0  0  0
  -17.5411   13.6236  -22.2567 C   0  0  0  0  0  0  0  0  0  0  0  0
 15 16  1  0  0  0
 16  1  1  0  0  0
  1  2  2  0  0  0
  2  3  1  0  0  0
  3  4  2  0  0  0
  4  5  1  0  0  0
  5  6  2  0  0  0
  5  7  1  0  0  0
  7  8  2  0  0  0
  8  9  1  0  0  0
  9 10  2  0  0  0
 10 17  1  0  0  0
 17 18  1  0  0  0
 10 11  1  0  0  0
 11 12  2  0  0  0
 12 13  1  0  0  0
 13 14  1  0  0  0
  6  1  1  0  0  0
 12  7  1  0  0  0
 13  4  1  0  0  0
M  END
> <minimizedAffinity>
-5.06664

> <CNNscore>
0.5703284144

> <CNNaffinity>
4.6248369217

> <CNN_VS>
2.6376760006

> <CNNaffinity_variance>
0.2500813305

$$$$
[H]c1c(OC([H])([H])[H])c([H])c2c3nnc(SC([H])([H])[H])nc3n(C([H])([H])[H])c2c1[H]


 18 20  0  0  0  0  0  0  0  0999 V2000
  -15.6590   15.1707  -25.1086 C   0  0  0  0  0  0  0  0  0  0  0  0
  -15.5198   16.4417  -24.5931 C   0  0  0  0  0  0  0  0  0  0  0  0
  -15.9059   16.6806  -23.2729 C   0  0  0  0  0  0  0  0  0  0  0  0
  -16.4246   15.6748  -22.4686 C   0  0  0  0  0  0  0  0  0  0  0  0
  -16.5564   14.4124  -22.9996 C   0  0  0  0  0  0  0  0  0  0  0  0
  -16.1724   14.1663  -24.3186 C   0  0  0  0  0  0  0  0  0  0  0  0
  -17.0853   13.5989  -22.0230 C   0  0  0  0  0  0  0  0  0  0  0  0
  -17.4029   12.2949  -22.0320 N   0  0  0  0  0  0  0  0  0  0  0  0
  -17.9053   11.7433  -20.9404 N   0  0  0  0  0  0  0  0  0  0  0  0
  -18.0799   12.5096  -19.8613 C   0  0  0  0  0  0  0  0  0  0  0  0
  -17.7743   13.8158  -19.8158 N   0  0  0  0  0  0  0  0  0  0  0  0
  -17.2570   14.4155  -20.9158 C   0  0  0  0  0  0  0  0  0  0  0  0
  -16.8579   15.6707  -21.1840 N   0  0  0  0  0  0  0  0  0  0  0  0
  -16.8885   16.8112  -20.2612 C   0  0  0  0  0  0  0  0  0  0  0  0
  -15.7312   15.5493  -27.5459 C   0  0  0  0  0  0  0  0  0  0  0  0
  -15.2949   14.8710  -26.4074 O   0  0  0  0  0  0  0  0  0  0  0  0
  -18.7633   11.7312  -18.4010 S   0  0  0  0  0  0  0  0  0  0  0  0
  -17.9608   10.1117  -18.1630 C   0  0  0  0  0  0  0  0  0  0  0  0
 15 16  1  0  0  0
 16  1  1  0  0  0
  1  2  2  0  0  0
  2  3  1  0  0  0
  3  4  2  0  0  0
  4  5  1  0  0  0
  5  6  2  0  0  0
  5  7  1  0  0  0
  7  8  2  0  0  0
  8  9  1  0  0  0
  9 10  2  0  0  0
 10 17  1  0  0  0
 17 18  1  0  0  0
 10 11  1  0  0  0
 11 12  2  0  0  0
 12 13  1  0  0  0
 13 14  1  0  0  0
  6  1  1  0  0  0
 12  7  1  0  0  0
 13  4  1  0  0  0
M  END
> <minimizedAffinity>
-6.45230

> <CNNscore>
0.5685606003

> <CNNaffinity>
5.6757917404

> <CNN_VS>
3.2270314693

> <CNNaffinity_variance>
0.1804081947

$$$$
[H]c1c(OC([H])([H])[H])c([H])c2c3nnc(SC([H])([H])[H])nc3n(C([H])([H])[H])c2c1[H]


 18 20  0  0  0  0  0  0  0  0999 V2000
  -17.5121   15.2113  -22.3101 C   0  0  0  0  0  0  0  0  0  0  0  0
  -18.6150   15.9608  -21.9603 C   0  0  0  0  0  0  0  0  0  0  0  0
  -19.4490   15.4989  -20.9403 C   0  0  0  0  0  0  0  0  0  0  0  0
  -19.1973   14.3085  -20.2718 C   0  0  0  0  0  0  0  0  0  0  0  0
  -18.0920   13.5735  -20.6340 C   0  0  0  0  0  0  0  0  0  0  0  0
  -17.2539   14.0291  -21.6526 C   0  0  0  0  0  0  0  0  0  0  0  0
  -18.0552   12.4504  -19.8387 C   0  0  0  0  0  0  0  0  0  0  0  0
  -17.1898   11.4255  -19.7920 N   0  0  0  0  0  0  0  0  0  0  0  0
  -17.3843   10.4532  -18.9175 N   0  0  0  0  0  0  0  0  0  0  0  0
  -18.4427   10.5267  -18.1071 C   0  0  0  0  0  0  0  0  0  0  0  0
  -19.3284   11.5351  -18.1256 N   0  0  0  0  0  0  0  0  0  0  0  0
  -19.1612   12.5497  -19.0085 C   0  0  0  0  0  0  0  0  0  0  0  0
  -19.8523   13.6727  -19.2694 N   0  0  0  0  0  0  0  0  0  0  0  0
  -21.0780   14.1181  -18.5966 C   0  0  0  0  0  0  0  0  0  0  0  0
  -17.0250   16.2480  -24.4958 C   0  0  0  0  0  0  0  0  0  0  0  0
  -16.6489   15.6148  -23.3107 O   0  0  0  0  0  0  0  0  0  0  0  0
  -18.6768    9.1929  -16.9360 S   0  0  0  0  0  0  0  0  0  0  0  0
  -20.0937    9.5914  -15.8604 C   0  0  0  0  0  0  0  0  0  0  0  0
 15 16  1  0  0  0
 16  1  1  0  0  0
  1  2  2  0  0  0
  2  3  1  0  0  0
  3  4  2  0  0  0
  4  5  1  0  0  0
  5  6  2  0  0  0
  5  7  1  0  0  0
  7  8  2  0  0  0
  8  9  1  0  0  0
  9 10  2  0  0  0
 10 17  1  0  0  0
 17 18  1  0  0  0
 10 11  1  0  0  0
 11 12  2  0  0  0
 12 13  1  0  0  0
 13 14  1  0  0  0
  6  1  1  0  0  0
 12  7  1  0  0  0
 13  4  1  0  0  0
M  END
> <minimizedAffinity>
-5.78104

> <CNNscore>
0.5269717574

> <CNNaffinity>
5.2372741699

> <CNN_VS>
2.7598955631

> <CNNaffinity_variance>
0.1019337177

$$$$
[H]OC1(c2c([H])c([H])c(C([H])([H])C([H])([H])C([H])([H])[H])c([H])c2[H])C([H])([H])C([H])([H])N(C([H])(c2c([H])c([H])c([H])c([H])c2[H])c2c([H])c([H])c([H])c([H])c2[H])C([H])([H])C1([H])[H]


 30 33  0  0  0  0  0  0  0  0999 V2000
  -18.2154   12.1571  -19.6560 C   0  0  0  0  0  0  0  0  0  0  0  0
  -17.1263   12.9393  -19.2116 O   0  0  0  0  0  0  0  0  0  0  0  0
  -17.7509   11.3511  -20.8077 C   0  0  0  0  0  0  0  0  0  0  0  0
  -17.1357   12.2830  -21.8159 C   0  0  0  0  0  0  0  0  0  0  0  0
  -17.6450   13.6031  -21.7767 N   0  0  0  0  0  0  0  0  0  0  0  0
  -18.9168   13.8862  -21.3092 C   0  0  0  0  0  0  0  0  0  0  0  0
  -19.3066   13.0897  -20.0860 C   0  0  0  0  0  0  0  0  0  0  0  0
  -16.6566   12.4686  -18.4770 H   0  0  0  0  0  0  0  0  0  0  0  0
  -19.5713    9.7423  -16.3834 C   0  0  0  0  0  0  0  0  0  0  0  0
  -18.5764    9.2841  -17.2256 C   0  0  0  0  0  0  0  0  0  0  0  0
  -18.1049   10.0578  -18.2845 C   0  0  0  0  0  0  0  0  0  0  0  0
  -18.6263   11.3165  -18.5235 C   0  0  0  0  0  0  0  0  0  0  0  0
  -19.6134   11.7494  -17.6668 C   0  0  0  0  0  0  0  0  0  0  0  0
  -20.0895   10.9993  -16.6180 C   0  0  0  0  0  0  0  0  0  0  0  0
  -20.1127    8.8352  -15.3502 C   0  0  0  0  0  0  0  0  0  0  0  0
  -19.3429    9.8870  -13.2517 C   0  0  0  0  0  0  0  0  0  0  0  0
  -19.1643    8.7083  -14.1698 C   0  0  0  0  0  0  0  0  0  0  0  0
  -16.7001   14.6157  -22.0348 C   0  0  0  0  0  0  0  0  0  0  0  0
  -16.3258   14.7368  -23.5028 C   0  0  0  0  0  0  0  0  0  0  0  0
  -17.2586   14.4066  -24.4888 C   0  0  0  0  0  0  0  0  0  0  0  0
  -16.9397   14.4595  -25.8174 C   0  0  0  0  0  0  0  0  0  0  0  0
  -15.6588   14.8519  -26.1610 C   0  0  0  0  0  0  0  0  0  0  0  0
  -14.7487   15.1783  -25.1990 C   0  0  0  0  0  0  0  0  0  0  0  0
  -15.0871   15.1206  -23.8367 C   0  0  0  0  0  0  0  0  0  0  0  0
  -17.0400   15.9831  -21.6455 C   0  0  0  0  0  0  0  0  0  0  0  0
  -16.3956   16.5976  -20.5753 C   0  0  0  0  0  0  0  0  0  0  0  0
  -16.6355   17.8960  -20.2256 C   0  0  0  0  0  0  0  0  0  0  0  0
  -17.5485   18.6616  -20.9455 C   0  0  0  0  0  0  0  0  0  0  0  0
  -18.1957   18.0748  -21.9958 C   0  0  0  0  0  0  0  0  0  0  0  0
  -17.9352   16.7536  -22.3270 C   0  0  0  0  0  0  0  0  0  0  0  0
 16 17  1  0  0  0
 17 15  1  0  0  0
 15  9  1  0  0  0
  9 10  2  0  0  0
 10 11  1  0  0  0
 11 12  2  0  0  0
 12  1  1  0  0  0
  1  2  1  0  0  0
  1  3  1  0  0  0
  3  4  1  0  0  0
  4  5  1  0  0  0
  5 18  1  0  0  0
 18 19  1  0  0  0
 19 20  2  0  0  0
 20 21  1  0  0  0
 21 22  2  0  0  0
 22 23  1  0  0  0
 23 24  2  0  0  0
 18 25  1  0  0  0
 25 26  2  0  0  0
 26 27  1  0  0  0
 27 28  2  0  0  0
 28 29  1  0  0  0
 29 30  2  0  0  0
  5  6  1  0  0  0
  6  7  1  0  0  0
 12 13  1  0  0  0
 13 14  2  0  0  0
 14  9  1  0  0  0
  7  1  1  0  0  0
 24 19  1  0  0  0
 30 25  1  0  0  0
  2  8  1  0  0  0
M  END
> <minimizedAffinity>
-8.95956

> <CNNscore>
0.2715173662

> <CNNaffinity>
6.3057923317

> <CNN_VS>
1.7121320963

> <CNNaffinity_variance>
0.0953759998

$$$$
[H]OC1(c2c([H])c([H])c(C([H])([H])C([H])([H])C([H])([H])[H])c([H])c2[H])C([H])([H])C([H])([H])N(C([H])(c2c([H])c([H])c([H])c([H])c2[H])c2c([H])c([H])c([H])c([H])c2[H])C([H])([H])C1([H])[H]


 30 33  0  0  0  0  0  0  0  0999 V2000
  -19.5314   16.1574  -18.6320 C   0  0  0  0  0  0  0  0  0  0  0  0
  -20.3017   16.7487  -19.6578 O   0  0  0  0  0  0  0  0  0  0  0  0
  -20.4577   15.7480  -17.5520 C   0  0  0  0  0  0  0  0  0  0  0  0
  -21.2879   16.9422  -17.1672 C   0  0  0  0  0  0  0  0  0  0  0  0
  -20.6604   18.1890  -17.4026 N   0  0  0  0  0  0  0  0  0  0  0  0
  -19.2832   18.3253  -17.4265 C   0  0  0  0  0  0  0  0  0  0  0  0
  -18.5714   17.1898  -18.1240 C   0  0  0  0  0  0  0  0  0  0  0  0
  -20.5272   16.0662  -20.3399 H   0  0  0  0  0  0  0  0  0  0  0  0
  -17.3868   12.9072  -20.4254 C   0  0  0  0  0  0  0  0  0  0  0  0
  -17.9547   12.7646  -19.1738 C   0  0  0  0  0  0  0  0  0  0  0  0
  -18.6729   13.7993  -18.5777 C   0  0  0  0  0  0  0  0  0  0  0  0
  -18.8371   15.0087  -19.2288 C   0  0  0  0  0  0  0  0  0  0  0  0
  -18.2644   15.1219  -20.4758 C   0  0  0  0  0  0  0  0  0  0  0  0
  -17.5532   14.1115  -21.0779 C   0  0  0  0  0  0  0  0  0  0  0  0
  -16.5395   11.8203  -20.9584 C   0  0  0  0  0  0  0  0  0  0  0  0
  -16.2530    9.3668  -20.9246 C   0  0  0  0  0  0  0  0  0  0  0  0
  -17.2613   10.4837  -20.9211 C   0  0  0  0  0  0  0  0  0  0  0  0
  -21.5219   19.2210  -17.8244 C   0  0  0  0  0  0  0  0  0  0  0  0
  -22.1538   18.9668  -19.1831 C   0  0  0  0  0  0  0  0  0  0  0  0
  -23.2922   18.1633  -19.2823 C   0  0  0  0  0  0  0  0  0  0  0  0
  -23.8581   17.8764  -20.4935 C   0  0  0  0  0  0  0  0  0  0  0  0
  -23.2685   18.4076  -21.6262 C   0  0  0  0  0  0  0  0  0  0  0  0
  -22.1594   19.1955  -21.5297 C   0  0  0  0  0  0  0  0  0  0  0  0
  -21.5861   19.4841  -20.2801 C   0  0  0  0  0  0  0  0  0  0  0  0
  -22.6570   19.5571  -16.9669 C   0  0  0  0  0  0  0  0  0  0  0  0
  -22.5650   19.4271  -15.5838 C   0  0  0  0  0  0  0  0  0  0  0  0
  -23.5785   19.7968  -14.7460 C   0  0  0  0  0  0  0  0  0  0  0  0
  -24.7578   20.3288  -15.2598 C   0  0  0  0  0  0  0  0  0  0  0  0
  -24.8699   20.4589  -16.6151 C   0  0  0  0  0  0  0  0  0  0  0  0
  -23.8264   20.0726  -17.4428 C   0  0  0  0  0  0  0  0  0  0  0  0
 16 17  1  0  0  0
 17 15  1  0  0  0
 15  9  1  0  0  0
  9 10  2  0  0  0
 10 11  1  0  0  0
 11 12  2  0  0  0
 12  1  1  0  0  0
  1  2  1  0  0  0
  1  3  1  0  0  0
  3  4  1  0  0  0
  4  5  1  0  0  0
  5 18  1  0  0  0
 18 19  1  0  0  0
 19 20  2  0  0  0
 20 21  1  0  0  0
 21 22  2  0  0  0
 22 23  1  0  0  0
 23 24  2  0  0  0
 18 25  1  0  0  0
 25 26  2  0  0  0
 26 27  1  0  0  0
 27 28  2  0  0  0
 28 29  1  0  0  0
 29 30  2  0  0  0
  5  6  1  0  0  0
  6  7  1  0  0  0
 12 13  1  0  0  0
 13 14  2  0  0  0
 14  9  1  0  0  0
  7  1  1  0  0  0
 24 19  1  0  0  0
 30 25  1  0  0  0
  2  8  1  0  0  0
M  END
> <minimizedAffinity>
-4.79335

> <CNNscore>
0.2694019675

> <CNNaffinity>
5.4842810631

> <CNN_VS>
1.4774761200

> <CNNaffinity_variance>
0.2996232510

$$$$
[H]OC1(c2c([H])c([H])c(C([H])([H])C([H])([H])C([H])([H])[H])c([H])c2[H])C([H])([H])C([H])([H])N(C([H])(c2c([H])c([H])c([H])c([H])c2[H])c2c([H])c([H])c([H])c([H])c2[H])C([H])([H])C1([H])[H]


 30 33  0  0  0  0  0  0  0  0999 V2000
  -19.1559   15.2537  -20.9205 C   0  0  0  0  0  0  0  0  0  0  0  0
  -18.5602   16.3595  -20.2741 O   0  0  0  0  0  0  0  0  0  0  0  0
  -20.0037   15.7754  -22.0164 C   0  0  0  0  0  0  0  0  0  0  0  0
  -20.9397   16.8017  -21.4384 C   0  0  0  0  0  0  0  0  0  0  0  0
  -21.2405   16.6108  -20.0685 N   0  0  0  0  0  0  0  0  0  0  0  0
  -21.1803   15.3642  -19.4700 C   0  0  0  0  0  0  0  0  0  0  0  0
  -20.0001   14.5323  -19.9143 C   0  0  0  0  0  0  0  0  0  0  0  0
  -17.6636   16.5276  -20.6610 H   0  0  0  0  0  0  0  0  0  0  0  0
  -16.0619   12.7407  -22.4992 C   0  0  0  0  0  0  0  0  0  0  0  0
  -15.7871   14.0461  -22.1387 C   0  0  0  0  0  0  0  0  0  0  0  0
  -16.7706   14.8768  -21.6054 C   0  0  0  0  0  0  0  0  0  0  0  0
  -18.0608   14.4128  -21.4221 C   0  0  0  0  0  0  0  0  0  0  0  0
  -18.3056   13.1077  -21.7859 C   0  0  0  0  0  0  0  0  0  0  0  0
  -17.3473   12.2751  -22.3130 C   0  0  0  0  0  0  0  0  0  0  0  0
  -15.0121   11.9430  -23.1662 C   0  0  0  0  0  0  0  0  0  0  0  0
  -14.8191   10.9316  -20.9206 C   0  0  0  0  0  0  0  0  0  0  0  0
  -14.7113   10.6670  -22.3980 C   0  0  0  0  0  0  0  0  0  0  0  0
  -21.3869   17.7946  -19.3186 C   0  0  0  0  0  0  0  0  0  0  0  0
  -22.2702   18.8332  -19.9901 C   0  0  0  0  0  0  0  0  0  0  0  0
  -21.9439   20.1884  -19.8996 C   0  0  0  0  0  0  0  0  0  0  0  0
  -22.7418   21.1516  -20.4520 C   0  0  0  0  0  0  0  0  0  0  0  0
  -23.8893   20.7445  -21.1081 C   0  0  0  0  0  0  0  0  0  0  0  0
  -24.2064   19.4212  -21.2003 C   0  0  0  0  0  0  0  0  0  0  0  0
  -23.3793   18.4397  -20.6291 C   0  0  0  0  0  0  0  0  0  0  0  0
  -21.9379   17.6851  -17.9691 C   0  0  0  0  0  0  0  0  0  0  0  0
  -22.0364   18.8059  -17.1492 C   0  0  0  0  0  0  0  0  0  0  0  0
  -22.6090   18.7570  -15.9101 C   0  0  0  0  0  0  0  0  0  0  0  0
  -23.1252   17.5607  -15.4200 C   0  0  0  0  0  0  0  0  0  0  0  0
  -23.0329   16.4480  -16.2071 C   0  0  0  0  0  0  0  0  0  0  0  0
  -22.4436   16.5254  -17.4601 C   0  0  0  0  0  0  0  0  0  0  0  0
 16 17  1  0  0  0
 17 15  1  0  0  0
 15  9  1  0  0  0
  9 10  2  0  0  0
 10 11  1  0  0  0
 11 12  2  0  0  0
 12  1  1  0  0  0
  1  2  1  0  0  0
  1  3  1  0  0  0
  3  4  1  0  0  0
  4  5  1  0  0  0
  5 18  1  0  0  0
 18 19  1  0  0  0
 19 20  2  0  0  0
 20 21  1  0  0  0
 21 22  2  0  0  0
 22 23  1  0  0  0
 23 24  2  0  0  0
 18 25  1  0  0  0
 25 26  2  0  0  0
 26 27  1  0  0  0
 27 28  2  0  0  0
 28 29  1  0  0  0
 29 30  2  0  0  0
  5  6  1  0  0  0
  6  7  1  0  0  0
 12 13  1  0  0  0
 13 14  2  0  0  0
 14  9  1  0  0  0
  7  1  1  0  0  0
 24 19  1  0  0  0
 30 25  1  0  0  0
  2  8  1  0  0  0
M  END
> <minimizedAffinity>
-2.78018

> <CNNscore>
0.2652168572

> <CNNaffinity>
5.3087797165

> <CNN_VS>
1.4079778194

> <CNNaffinity_variance>
0.5847097635

$$$$
[H]OC1(c2c([H])c([H])c(C([H])([H])C([H])([H])C([H])([H])[H])c([H])c2[H])C([H])([H])C([H])([H])N(C([H])(c2c([H])c([H])c([H])c([H])c2[H])c2c([H])c([H])c([H])c([H])c2[H])C([H])([H])C1([H])[H]


 30 33  0  0  0  0  0  0  0  0999 V2000
  -18.1519   16.8208  -21.5463 C   0  0  0  0  0  0  0  0  0  0  0  0
  -19.2316   15.9283  -21.3639 O   0  0  0  0  0  0  0  0  0  0  0  0
  -17.3459   16.8124  -20.3044 C   0  0  0  0  0  0  0  0  0  0  0  0
  -18.2640   17.0942  -19.1464 C   0  0  0  0  0  0  0  0  0  0  0  0
  -19.4089   17.8559  -19.4819 N   0  0  0  0  0  0  0  0  0  0  0  0
  -19.4235   18.7244  -20.5596 C   0  0  0  0  0  0  0  0  0  0  0  0
  -18.7193   18.1872  -21.7835 C   0  0  0  0  0  0  0  0  0  0  0  0
  -18.9916   15.0376  -21.7257 H   0  0  0  0  0  0  0  0  0  0  0  0
  -16.0610   15.4115  -25.0136 C   0  0  0  0  0  0  0  0  0  0  0  0
  -15.4840   16.3534  -24.1834 C   0  0  0  0  0  0  0  0  0  0  0  0
  -16.1349   16.8130  -23.0402 C   0  0  0  0  0  0  0  0  0  0  0  0
  -17.3884   16.3350  -22.7034 C   0  0  0  0  0  0  0  0  0  0  0  0
  -17.9380   15.3946  -23.5457 C   0  0  0  0  0  0  0  0  0  0  0  0
  -17.3097   14.9306  -24.6767 C   0  0  0  0  0  0  0  0  0  0  0  0
  -15.3774   15.0470  -26.2717 C   0  0  0  0  0  0  0  0  0  0  0  0
  -16.0964   15.7391  -28.5316 C   0  0  0  0  0  0  0  0  0  0  0  0
  -16.3724   14.7956  -27.3923 C   0  0  0  0  0  0  0  0  0  0  0  0
  -20.5834   17.5067  -18.7864 C   0  0  0  0  0  0  0  0  0  0  0  0
  -21.8556   17.7576  -19.5791 C   0  0  0  0  0  0  0  0  0  0  0  0
  -22.0922   17.0484  -20.7591 C   0  0  0  0  0  0  0  0  0  0  0  0
  -23.2034   17.2829  -21.5206 C   0  0  0  0  0  0  0  0  0  0  0  0
  -24.0936   18.2487  -21.0873 C   0  0  0  0  0  0  0  0  0  0  0  0
  -23.8652   18.9387  -19.9332 C   0  0  0  0  0  0  0  0  0  0  0  0
  -22.7202   18.6896  -19.1583 C   0  0  0  0  0  0  0  0  0  0  0  0
  -20.7218   16.1252  -18.3290 C   0  0  0  0  0  0  0  0  0  0  0  0
  -20.8364   15.0824  -19.2443 C   0  0  0  0  0  0  0  0  0  0  0  0
  -20.8971   13.7738  -18.8574 C   0  0  0  0  0  0  0  0  0  0  0  0
  -20.8420   13.4354  -17.5083 C   0  0  0  0  0  0  0  0  0  0  0  0
  -20.7355   14.4449  -16.5940 C   0  0  0  0  0  0  0  0  0  0  0  0
  -20.6789   15.7653  -17.0144 C   0  0  0  0  0  0  0  0  0  0  0  0
 16 17  1  0  0  0
 17 15  1  0  0  0
 15  9  1  0  0  0
  9 10  2  0  0  0
 10 11  1  0  0  0
 11 12  2  0  0  0
 12  1  1  0  0  0
  1  2  1  0  0  0
  1  3  1  0  0  0
  3  4  1  0  0  0
  4  5  1  0  0  0
  5 18  1  0  0  0
 18 19  1  0  0  0
 19 20  2  0  0  0
 20 21  1  0  0  0
 21 22  2  0  0  0
 22 23  1  0  0  0
 23 24  2  0  0  0
 18 25  1  0  0  0
 25 26  2  0  0  0
 26 27  1  0  0  0
 27 28  2  0  0  0
 28 29  1  0  0  0
 29 30  2  0  0  0
  5  6  1  0  0  0
  6  7  1  0  0  0
 12 13  1  0  0  0
 13 14  2  0  0  0
 14  9  1  0  0  0
  7  1  1  0  0  0
 24 19  1  0  0  0
 30 25  1  0  0  0
  2  8  1  0  0  0
M  END
> <minimizedAffinity>
-7.01201

> <CNNscore>
0.2364953160

> <CNNaffinity>
5.8157329559

> <CNN_VS>
1.3753936291

> <CNNaffinity_variance>
0.2458936274

$$$$
[H]OC1(c2c([H])c([H])c(C([H])([H])C([H])([H])C([H])([H])[H])c([H])c2[H])C([H])([H])C([H])([H])N(C([H])(c2c([H])c([H])c([H])c([H])c2[H])c2c([H])c([H])c([H])c([H])c2[H])C([H])([H])C1([H])[H]


 30 33  0  0  0  0  0  0  0  0999 V2000
  -18.0550   13.1637  -21.1468 C   0  0  0  0  0  0  0  0  0  0  0  0
  -16.8759   13.9294  -21.0102 O   0  0  0  0  0  0  0  0  0  0  0  0
  -18.0530   12.5715  -22.5037 C   0  0  0  0  0  0  0  0  0  0  0  0
  -17.8513   13.6804  -23.5001 C   0  0  0  0  0  0  0  0  0  0  0  0
  -18.3049   14.9477  -23.0621 N   0  0  0  0  0  0  0  0  0  0  0  0
  -19.3121   15.0828  -22.1223 C   0  0  0  0  0  0  0  0  0  0  0  0
  -19.2244   14.0874  -20.9892 C   0  0  0  0  0  0  0  0  0  0  0  0
  -16.1693   13.3792  -20.5860 H   0  0  0  0  0  0  0  0  0  0  0  0
  -18.1190   10.1747  -18.0740 C   0  0  0  0  0  0  0  0  0  0  0  0
  -17.2799   10.0401  -19.1636 C   0  0  0  0  0  0  0  0  0  0  0  0
  -17.2265   11.0070  -20.1657 C   0  0  0  0  0  0  0  0  0  0  0  0
  -18.0207   12.1375  -20.0963 C   0  0  0  0  0  0  0  0  0  0  0  0
  -18.8441   12.2478  -18.9983 C   0  0  0  0  0  0  0  0  0  0  0  0
  -18.9087   11.3038  -18.0013 C   0  0  0  0  0  0  0  0  0  0  0  0
  -18.2194    9.0658  -17.1028 C   0  0  0  0  0  0  0  0  0  0  0  0
  -19.2040    8.7142  -14.8645 C   0  0  0  0  0  0  0  0  0  0  0  0
  -19.4868    9.1687  -16.2708 C   0  0  0  0  0  0  0  0  0  0  0  0
  -17.5188   16.0402  -23.4788 C   0  0  0  0  0  0  0  0  0  0  0  0
  -17.2156   17.0294  -22.3655 C   0  0  0  0  0  0  0  0  0  0  0  0
  -16.2168   16.7426  -21.4320 C   0  0  0  0  0  0  0  0  0  0  0  0
  -15.9504   17.5884  -20.3912 C   0  0  0  0  0  0  0  0  0  0  0  0
  -16.7024   18.7446  -20.2873 C   0  0  0  0  0  0  0  0  0  0  0  0
  -17.6750   19.0272  -21.2007 C   0  0  0  0  0  0  0  0  0  0  0  0
  -17.9403   18.1511  -22.2664 C   0  0  0  0  0  0  0  0  0  0  0  0
  -16.2090   15.7566  -24.0625 C   0  0  0  0  0  0  0  0  0  0  0  0
  -15.3145   14.9052  -23.4196 C   0  0  0  0  0  0  0  0  0  0  0  0
  -14.1111   14.5612  -23.9668 C   0  0  0  0  0  0  0  0  0  0  0  0
  -13.7357   15.0594  -25.2113 C   0  0  0  0  0  0  0  0  0  0  0  0
  -14.5972   15.9013  -25.8556 C   0  0  0  0  0  0  0  0  0  0  0  0
  -15.8115   16.2364  -25.2755 C   0  0  0  0  0  0  0  0  0  0  0  0
 16 17  1  0  0  0
 17 15  1  0  0  0
 15  9  1  0  0  0
  9 10  2  0  0  0
 10 11  1  0  0  0
 11 12  2  0  0  0
 12  1  1  0  0  0
  1  2  1  0  0  0
  1  3  1  0  0  0
  3  4  1  0  0  0
  4  5  1  0  0  0
  5 18  1  0  0  0
 18 19  1  0  0  0
 19 20  2  0  0  0
 20 21  1  0  0  0
 21 22  2  0  0  0
 22 23  1  0  0  0
 23 24  2  0  0  0
 18 25  1  0  0  0
 25 26  2  0  0  0
 26 27  1  0  0  0
 27 28  2  0  0  0
 28 29  1  0  0  0
 29 30  2  0  0  0
  5  6  1  0  0  0
  6  7  1  0  0  0
 12 13  1  0  0  0
 13 14  2  0  0  0
 14  9  1  0  0  0
  7  1  1  0  0  0
 24 19  1  0  0  0
 30 25  1  0  0  0
  2  8  1  0  0  0
M  END
> <minimizedAffinity>
-8.15045

> <CNNscore>
0.1834189296

> <CNNaffinity>
6.3075184822

> <CNN_VS>
1.1569182873

> <CNNaffinity_variance>
0.2395221442

$$$$
[H]OC1(c2c([H])c([H])c(C([H])([H])C([H])([H])C([H])([H])[H])c([H])c2[H])C([H])([H])C([H])([H])N(C([H])(c2c([H])c([H])c([H])c([H])c2[H])c2c([H])c([H])c([H])c([H])c2[H])C([H])([H])C1([H])[H]


 30 33  0  0  0  0  0  0  0  0999 V2000
  -19.5123   16.5550  -18.2246 C   0  0  0  0  0  0  0  0  0  0  0  0
  -20.0869   15.2649  -18.2520 O   0  0  0  0  0  0  0  0  0  0  0  0
  -19.8624   17.2313  -19.4943 C   0  0  0  0  0  0  0  0  0  0  0  0
  -19.4529   16.3360  -20.6319 C   0  0  0  0  0  0  0  0  0  0  0  0
  -18.3771   15.4666  -20.3317 N   0  0  0  0  0  0  0  0  0  0  0  0
  -17.4376   15.7684  -19.3609 C   0  0  0  0  0  0  0  0  0  0  0  0
  -18.0262   16.3948  -18.1185 C   0  0  0  0  0  0  0  0  0  0  0  0
  -20.9698   15.2844  -17.8026 H   0  0  0  0  0  0  0  0  0  0  0  0
  -21.0185   18.6693  -14.8126 C   0  0  0  0  0  0  0  0  0  0  0  0
  -21.8531   18.3634  -15.8706 C   0  0  0  0  0  0  0  0  0  0  0  0
  -21.3925   17.6603  -16.9820 C   0  0  0  0  0  0  0  0  0  0  0  0
  -20.0745   17.2470  -17.0571 C   0  0  0  0  0  0  0  0  0  0  0  0
  -19.2663   17.5617  -15.9878 C   0  0  0  0  0  0  0  0  0  0  0  0
  -19.7046   18.2541  -14.8842 C   0  0  0  0  0  0  0  0  0  0  0  0
  -21.5301   19.5158  -13.7149 C   0  0  0  0  0  0  0  0  0  0  0  0
  -22.2750   18.4971  -11.5912 C   0  0  0  0  0  0  0  0  0  0  0  0
  -21.0815   18.9981  -12.3586 C   0  0  0  0  0  0  0  0  0  0  0  0
  -18.4558   14.1916  -20.9260 C   0  0  0  0  0  0  0  0  0  0  0  0
  -17.5345   14.0218  -22.1227 C   0  0  0  0  0  0  0  0  0  0  0  0
  -16.4711   14.9071  -22.3141 C   0  0  0  0  0  0  0  0  0  0  0  0
  -15.6518   14.8112  -23.4046 C   0  0  0  0  0  0  0  0  0  0  0  0
  -15.9065   13.8060  -24.3198 C   0  0  0  0  0  0  0  0  0  0  0  0
  -16.9422   12.9388  -24.1315 C   0  0  0  0  0  0  0  0  0  0  0  0
  -17.7778   13.0463  -23.0073 C   0  0  0  0  0  0  0  0  0  0  0  0
  -18.1631   13.0286  -20.0901 C   0  0  0  0  0  0  0  0  0  0  0  0
  -19.0863   12.5798  -19.1495 C   0  0  0  0  0  0  0  0  0  0  0  0
  -18.8788   11.4570  -18.3999 C   0  0  0  0  0  0  0  0  0  0  0  0
  -17.7153   10.7096  -18.5589 C   0  0  0  0  0  0  0  0  0  0  0  0
  -16.7941   11.1369  -19.4728 C   0  0  0  0  0  0  0  0  0  0  0  0
  -17.0290   12.2824  -20.2184 C   0  0  0  0  0  0  0  0  0  0  0  0
 16 17  1  0  0  0
 17 15  1  0  0  0
 15  9  1  0  0  0
  9 10  2  0  0  0
 10 11  1  0  0  0
 11 12  2  0  0  0
 12  1  1  0  0  0
  1  2  1  0  0  0
  1  3  1  0  0  0
  3  4  1  0  0  0
  4  5  1  0  0  0
  5 18  1  0  0  0
 18 19  1  0  0  0
 19 20  2  0  0  0
 20 21  1  0  0  0
 21 22  2  0  0  0
 22 23  1  0  0  0
 23 24  2  0  0  0
 18 25  1  0  0  0
 25 26  2  0  0  0
 26 27  1  0  0  0
 27 28  2  0  0  0
 28 29  1  0  0  0
 29 30  2  0  0  0
  5  6  1  0  0  0
  6  7  1  0  0  0
 12 13  1  0  0  0
 13 14  2  0  0  0
 14  9  1  0  0  0
  7  1  1  0  0  0
 24 19  1  0  0  0
 30 25  1  0  0  0
  2  8  1  0  0  0
M  END
> <minimizedAffinity>
-7.18660

> <CNNscore>
0.1769970655

> <CNNaffinity>
5.6212797165

> <CNN_VS>
0.9949499965

> <CNNaffinity_variance>
0.1930883378

$$$$
[H]OC1(c2c([H])c([H])c(C([H])([H])C([H])([H])C([H])([H])[H])c([H])c2[H])C([H])([H])C([H])([H])N(C([H])(c2c([H])c([H])c([H])c([H])c2[H])c2c([H])c([H])c([H])c([H])c2[H])C([H])([H])C1([H])[H]


 30 33  0  0  0  0  0  0  0  0999 V2000
  -17.5230   16.7128  -21.4810 C   0  0  0  0  0  0  0  0  0  0  0  0
  -16.8737   15.9940  -20.4528 O   0  0  0  0  0  0  0  0  0  0  0  0
  -17.4137   18.1542  -21.1614 C   0  0  0  0  0  0  0  0  0  0  0  0
  -17.9282   18.3659  -19.7636 C   0  0  0  0  0  0  0  0  0  0  0  0
  -18.8859   17.4119  -19.3439 N   0  0  0  0  0  0  0  0  0  0  0  0
  -19.6872   16.7305  -20.2438 C   0  0  0  0  0  0  0  0  0  0  0  0
  -18.9622   16.2957  -21.4959 C   0  0  0  0  0  0  0  0  0  0  0  0
  -15.9366   15.8092  -20.7169 H   0  0  0  0  0  0  0  0  0  0  0  0
  -15.4816   15.8754  -25.1568 C   0  0  0  0  0  0  0  0  0  0  0  0
  -15.3840   15.0047  -24.0883 C   0  0  0  0  0  0  0  0  0  0  0  0
  -16.0533   15.2446  -22.8898 C   0  0  0  0  0  0  0  0  0  0  0  0
  -16.8398   16.3720  -22.7360 C   0  0  0  0  0  0  0  0  0  0  0  0
  -16.9224   17.2201  -23.8175 C   0  0  0  0  0  0  0  0  0  0  0  0
  -16.2691   16.9984  -25.0063 C   0  0  0  0  0  0  0  0  0  0  0  0
  -14.6597   15.6316  -26.3602 C   0  0  0  0  0  0  0  0  0  0  0  0
  -16.4897   14.4948  -27.5692 C   0  0  0  0  0  0  0  0  0  0  0  0
  -15.5069   15.6331  -27.6216 C   0  0  0  0  0  0  0  0  0  0  0  0
  -18.8118   17.0493  -17.9845 C   0  0  0  0  0  0  0  0  0  0  0  0
  -19.5149   18.0262  -17.0565 C   0  0  0  0  0  0  0  0  0  0  0  0
  -19.1621   18.0808  -15.7060 C   0  0  0  0  0  0  0  0  0  0  0  0
  -19.8065   18.9145  -14.8346 C   0  0  0  0  0  0  0  0  0  0  0  0
  -20.8246   19.7084  -15.3305 C   0  0  0  0  0  0  0  0  0  0  0  0
  -21.1669   19.6586  -16.6498 C   0  0  0  0  0  0  0  0  0  0  0  0
  -20.4981   18.7983  -17.5366 C   0  0  0  0  0  0  0  0  0  0  0  0
  -19.3482   15.7467  -17.5943 C   0  0  0  0  0  0  0  0  0  0  0  0
  -18.4973   14.6710  -17.3554 C   0  0  0  0  0  0  0  0  0  0  0  0
  -18.9550   13.4593  -16.9220 C   0  0  0  0  0  0  0  0  0  0  0  0
  -20.3143   13.2594  -16.6982 C   0  0  0  0  0  0  0  0  0  0  0  0
  -21.1665   14.3011  -16.9326 C   0  0  0  0  0  0  0  0  0  0  0  0
  -20.6750   15.5199  -17.3754 C   0  0  0  0  0  0  0  0  0  0  0  0
 16 17  1  0  0  0
 17 15  1  0  0  0
 15  9  1  0  0  0
  9 10  2  0  0  0
 10 11  1  0  0  0
 11 12  2  0  0  0
 12  1  1  0  0  0
  1  2  1  0  0  0
  1  3  1  0  0  0
  3  4  1  0  0  0
  4  5  1  0  0  0
  5 18  1  0  0  0
 18 19  1  0  0  0
 19 20  2  0  0  0
 20 21  1  0  0  0
 21 22  2  0  0  0
 22 23  1  0  0  0
 23 24  2  0  0  0
 18 25  1  0  0  0
 25 26  2  0  0  0
 26 27  1  0  0  0
 27 28  2  0  0  0
 28 29  1  0  0  0
 29 30  2  0  0  0
  5  6  1  0  0  0
  6  7  1  0  0  0
 12 13  1  0  0  0
 13 14  2  0  0  0
 14  9  1  0  0  0
  7  1  1  0  0  0
 24 19  1  0  0  0
 30 25  1  0  0  0
  2  8  1  0  0  0
M  END
> <minimizedAffinity>
-7.51290

> <CNNscore>
0.1602892280

> <CNNaffinity>
5.4372200966

> <CNN_VS>
0.8715277910

> <CNNaffinity_variance>
0.4533710480

$$$$
[H]OC1(c2c([H])c([H])c(C([H])([H])C([H])([H])C([H])([H])[H])c([H])c2[H])C([H])([H])C([H])([H])N(C([H])(c2c([H])c([H])c([H])c([H])c2[H])c2c([H])c([H])c([H])c([H])c2[H])C([H])([H])C1([H])[H]


 30 33  0  0  0  0  0  0  0  0999 V2000
  -18.9465   16.9458  -18.9617 C   0  0  0  0  0  0  0  0  0  0  0  0
  -17.7432   16.2933  -18.6131 O   0  0  0  0  0  0  0  0  0  0  0  0
  -19.9384   15.9042  -19.3128 C   0  0  0  0  0  0  0  0  0  0  0  0
  -19.3304   15.0097  -20.3585 C   0  0  0  0  0  0  0  0  0  0  0  0
  -18.3468   15.6357  -21.1612 N   0  0  0  0  0  0  0  0  0  0  0  0
  -18.3370   17.0028  -21.3783 C   0  0  0  0  0  0  0  0  0  0  0  0
  -18.6706   17.8163  -20.1498 C   0  0  0  0  0  0  0  0  0  0  0  0
  -17.7064   16.1657  -17.6312 H   0  0  0  0  0  0  0  0  0  0  0  0
  -20.3093   19.2314  -15.6003 C   0  0  0  0  0  0  0  0  0  0  0  0
  -19.4024   18.2036  -15.4260 C   0  0  0  0  0  0  0  0  0  0  0  0
  -18.9295   17.4587  -16.5047 C   0  0  0  0  0  0  0  0  0  0  0  0
  -19.3605   17.7302  -17.7907 C   0  0  0  0  0  0  0  0  0  0  0  0
  -20.2608   18.7617  -17.9359 C   0  0  0  0  0  0  0  0  0  0  0  0
  -20.7370   19.5061  -16.8831 C   0  0  0  0  0  0  0  0  0  0  0  0
  -20.8639   19.9102  -14.4108 C   0  0  0  0  0  0  0  0  0  0  0  0
  -21.8585   18.9995  -12.3410 C   0  0  0  0  0  0  0  0  0  0  0  0
  -20.5904   19.1200  -13.1421 C   0  0  0  0  0  0  0  0  0  0  0  0
  -17.2676   14.8109  -21.5353 C   0  0  0  0  0  0  0  0  0  0  0  0
  -17.3243   13.4216  -20.9217 C   0  0  0  0  0  0  0  0  0  0  0  0
  -17.3710   12.2965  -21.7484 C   0  0  0  0  0  0  0  0  0  0  0  0
  -17.4697   11.0352  -21.2298 C   0  0  0  0  0  0  0  0  0  0  0  0
  -17.5222   10.9026  -19.8541 C   0  0  0  0  0  0  0  0  0  0  0  0
  -17.4726   12.0003  -19.0463 C   0  0  0  0  0  0  0  0  0  0  0  0
  -17.3711   13.2919  -19.5897 C   0  0  0  0  0  0  0  0  0  0  0  0
  -17.0632   14.5570  -22.9602 C   0  0  0  0  0  0  0  0  0  0  0  0
  -15.7807   14.3860  -23.4742 C   0  0  0  0  0  0  0  0  0  0  0  0
  -15.5539   14.0783  -24.7856 C   0  0  0  0  0  0  0  0  0  0  0  0
  -16.6205   13.9199  -25.6660 C   0  0  0  0  0  0  0  0  0  0  0  0
  -17.8868   14.0895  -25.1822 C   0  0  0  0  0  0  0  0  0  0  0  0
  -18.0882   14.4048  -23.8468 C   0  0  0  0  0  0  0  0  0  0  0  0
 16 17  1  0  0  0
 17 15  1  0  0  0
 15  9  1  0  0  0
  9 10  2  0  0  0
 10 11  1  0  0  0
 11 12  2  0  0  0
 12  1  1  0  0  0
  1  2  1  0  0  0
  1  3  1  0  0  0
  3  4  1  0  0  0
  4  5  1  0  0  0
  5 18  1  0  0  0
 18 19  1  0  0  0
 19 20  2  0  0  0
 20 21  1  0  0  0
 21 22  2  0  0  0
 22 23  1  0  0  0
 23 24  2  0  0  0
 18 25  1  0  0  0
 25 26  2  0  0  0
 26 27  1  0  0  0
 27 28  2  0  0  0
 28 29  1  0  0  0
 29 30  2  0  0  0
  5  6  1  0  0  0
  6  7  1  0  0  0
 12 13  1  0  0  0
 13 14  2  0  0  0
 14  9  1  0  0  0
  7  1  1  0  0  0
 24 19  1  0  0  0
 30 25  1  0  0  0
  2  8  1  0  0  0
M  END
> <minimizedAffinity>
-7.52750

> <CNNscore>
0.1452865899

> <CNNaffinity>
5.5999155045

> <CNN_VS>
0.8135926127

> <CNNaffinity_variance>
0.2665192783

$$$$
[H]OC1(c2c([H])c([H])c(C([H])([H])C([H])([H])C([H])([H])[H])c([H])c2[H])C([H])([H])C([H])([H])N(C([H])(c2c([H])c([H])c([H])c([H])c2[H])c2c([H])c([H])c([H])c([H])c2[H])C([H])([H])C1([H])[H]


 30 33  0  0  0  0  0  0  0  0999 V2000
  -19.6343   17.4503  -17.3983 C   0  0  0  0  0  0  0  0  0  0  0  0
  -20.6069   16.6805  -18.0742 O   0  0  0  0  0  0  0  0  0  0  0  0
  -19.2884   18.6003  -18.2643 C   0  0  0  0  0  0  0  0  0  0  0  0
  -18.9049   18.0699  -19.6188 C   0  0  0  0  0  0  0  0  0  0  0  0
  -18.3832   16.7541  -19.6036 N   0  0  0  0  0  0  0  0  0  0  0  0
  -17.7568   16.2251  -18.4883 C   0  0  0  0  0  0  0  0  0  0  0  0
  -18.4297   16.5852  -17.1845 C   0  0  0  0  0  0  0  0  0  0  0  0
  -21.5123   16.9571  -17.7817 H   0  0  0  0  0  0  0  0  0  0  0  0
  -21.2827   18.8195  -13.6851 C   0  0  0  0  0  0  0  0  0  0  0  0
  -22.1135   18.4127  -14.7116 C   0  0  0  0  0  0  0  0  0  0  0  0
  -21.6021   17.9455  -15.9207 C   0  0  0  0  0  0  0  0  0  0  0  0
  -20.2362   17.8770  -16.1280 C   0  0  0  0  0  0  0  0  0  0  0  0
  -19.4320   18.2847  -15.0874 C   0  0  0  0  0  0  0  0  0  0  0  0
  -19.9200   18.7479  -13.8888 C   0  0  0  0  0  0  0  0  0  0  0  0
  -21.8787   19.4139  -12.4707 C   0  0  0  0  0  0  0  0  0  0  0  0
  -22.3428   17.9058  -10.5698 C   0  0  0  0  0  0  0  0  0  0  0  0
  -21.3066   18.7905  -11.2085 C   0  0  0  0  0  0  0  0  0  0  0  0
  -18.7385   15.9579  -20.7104 C   0  0  0  0  0  0  0  0  0  0  0  0
  -17.9683   16.2989  -21.9755 C   0  0  0  0  0  0  0  0  0  0  0  0
  -18.6163   16.2760  -23.2128 C   0  0  0  0  0  0  0  0  0  0  0  0
  -17.9423   16.5318  -24.3747 C   0  0  0  0  0  0  0  0  0  0  0  0
  -16.5914   16.8162  -24.2908 C   0  0  0  0  0  0  0  0  0  0  0  0
  -15.9590   16.8427  -23.0828 C   0  0  0  0  0  0  0  0  0  0  0  0
  -16.6611   16.5784  -21.8950 C   0  0  0  0  0  0  0  0  0  0  0  0
  -18.5868   14.5093  -20.5870 C   0  0  0  0  0  0  0  0  0  0  0  0
  -17.5833   13.8388  -21.2810 C   0  0  0  0  0  0  0  0  0  0  0  0
  -17.3661   12.4979  -21.1376 C   0  0  0  0  0  0  0  0  0  0  0  0
  -18.1559   11.7455  -20.2728 C   0  0  0  0  0  0  0  0  0  0  0  0
  -19.1501   12.3840  -19.5871 C   0  0  0  0  0  0  0  0  0  0  0  0
  -19.3506   13.7461  -19.7541 C   0  0  0  0  0  0  0  0  0  0  0  0
 16 17  1  0  0  0
 17 15  1  0  0  0
 15  9  1  0  0  0
  9 10  2  0  0  0
 10 11  1  0  0  0
 11 12  2  0  0  0
 12  1  1  0  0  0
  1  2  1  0  0  0
  1  3  1  0  0  0
  3  4  1  0  0  0
  4  5  1  0  0  0
  5 18  1  0  0  0
 18 19  1  0  0  0
 19 20  2  0  0  0
 20 21  1  0  0  0
 21 22  2  0  0  0
 22 23  1  0  0  0
 23 24  2  0  0  0
 18 25  1  0  0  0
 25 26  2  0  0  0
 26 27  1  0  0  0
 27 28  2  0  0  0
 28 29  1  0  0  0
 29 30  2  0  0  0
  5  6  1  0  0  0
  6  7  1  0  0  0
 12 13  1  0  0  0
 13 14  2  0  0  0
 14  9  1  0  0  0
  7  1  1  0  0  0
 24 19  1  0  0  0
 30 25  1  0  0  0
  2  8  1  0  0  0
M  END
> <minimizedAffinity>
-6.86522

> <CNNscore>
0.1379723251

> <CNNaffinity>
5.0157194138

> <CNN_VS>
0.6920304894

> <CNNaffinity_variance>
0.3777370751

$$$$
[H]N=C(c1c([H])c([H])c([H])c(Oc2nc(Oc3c([H])c([H])c([H])c(N([H])C(=O)C([H])([H])[H])c3[H])c(F)c(C([H])([H])[H])c2F)c1[H])N([H])[H]


 34 36  0  0  0  0  0  0  0  0999 V2000
  -17.9997   13.5643  -19.9154 C   0  0  0  0  0  0  0  0  0  0  0  0
  -17.3410   13.3152  -21.0731 N   0  0  0  0  0  0  0  0  0  0  0  0
  -16.8195   12.1330  -21.4097 C   0  0  0  0  0  0  0  0  0  0  0  0
  -16.9524   11.0807  -20.5275 C   0  0  0  0  0  0  0  0  0  0  0  0
  -16.4266    9.8641  -20.8527 F   0  0  0  0  0  0  0  0  0  0  0  0
  -17.6080   11.2523  -19.3301 C   0  0  0  0  0  0  0  0  0  0  0  0
  -17.7636   10.1354  -18.3652 C   0  0  0  0  0  0  0  0  0  0  0  0
  -18.1204   12.4993  -19.0496 C   0  0  0  0  0  0  0  0  0  0  0  0
  -18.7617   12.6186  -17.8485 F   0  0  0  0  0  0  0  0  0  0  0  0
  -18.5055   14.7983  -19.6401 O   0  0  0  0  0  0  0  0  0  0  0  0
  -19.0427   17.5007  -22.0644 C   0  0  0  0  0  0  0  0  0  0  0  0
  -17.9386   18.2600  -21.7644 C   0  0  0  0  0  0  0  0  0  0  0  0
  -17.0177   17.9209  -20.7931 C   0  0  0  0  0  0  0  0  0  0  0  0
  -17.1827   16.7763  -20.0729 C   0  0  0  0  0  0  0  0  0  0  0  0
  -18.2685   15.9734  -20.3258 C   0  0  0  0  0  0  0  0  0  0  0  0
  -19.1660   16.3353  -21.2960 C   0  0  0  0  0  0  0  0  0  0  0  0
  -22.1461   18.5298  -24.1221 C   0  0  0  0  0  0  0  0  0  0  0  0
  -21.2878   18.2990  -22.9139 C   0  0  0  0  0  0  0  0  0  0  0  0
  -21.7985   18.5855  -21.8250 O   0  0  0  0  0  0  0  0  0  0  0  0
  -20.0051   17.7932  -23.0562 N   0  0  0  0  0  0  0  0  0  0  0  0
  -19.6666   17.5778  -24.0605 H   0  0  0  0  0  0  0  0  0  0  0  0
  -16.1589   11.9809  -22.6283 O   0  0  0  0  0  0  0  0  0  0  0  0
  -16.3952   12.8118  -23.7062 C   0  0  0  0  0  0  0  0  0  0  0  0
  -17.5311   12.7221  -24.4993 C   0  0  0  0  0  0  0  0  0  0  0  0
  -17.7208   13.5722  -25.5606 C   0  0  0  0  0  0  0  0  0  0  0  0
  -16.7727   14.5522  -25.8707 C   0  0  0  0  0  0  0  0  0  0  0  0
  -15.6486   14.6609  -25.1072 C   0  0  0  0  0  0  0  0  0  0  0  0
  -15.4789   13.7760  -24.0241 C   0  0  0  0  0  0  0  0  0  0  0  0
  -14.6264   15.6600  -25.3789 C   0  0  0  0  0  0  0  0  0  0  0  0
  -14.9146   16.8803  -25.5466 N   0  0  0  0  0  0  0  0  0  0  0  0
  -13.2694   15.2609  -25.4583 N   0  0  0  0  0  0  0  0  0  0  0  0
  -15.8652   17.2450  -25.5047 H   0  0  0  0  0  0  0  0  0  0  0  0
  -12.7434   15.4605  -26.3247 H   0  0  0  0  0  0  0  0  0  0  0  0
  -12.8261   14.7802  -24.6582 H   0  0  0  0  0  0  0  0  0  0  0  0
 17 18  1  0  0  0
 18 19  2  0  0  0
 18 20  1  0  0  0
 20 11  1  0  0  0
 11 12  2  0  0  0
 12 13  1  0  0  0
 13 14  2  0  0  0
 14 15  1  0  0  0
 15 10  1  0  0  0
 10  1  1  0  0  0
  1  2  2  0  0  0
  2  3  1  0  0  0
  3 22  1  0  0  0
 22 23  1  0  0  0
 23 24  2  0  0  0
 24 25  1  0  0  0
 25 26  2  0  0  0
 26 27  1  0  0  0
 27 29  1  0  0  0
 29 30  2  0  0  0
 29 31  1  0  0  0
 27 28  2  0  0  0
  3  4  2  0  0  0
  4  5  1  0  0  0
  4  6  1  0  0  0
  6  7  1  0  0  0
  6  8  2  0  0  0
  8  9  1  0  0  0
 15 16  2  0  0  0
 16 11  1  0  0  0
  8  1  1  0  0  0
 28 23  1  0  0  0
 20 21  1  0  0  0
 30 32  1  0  0  0
 31 33  1  0  0  0
 31 34  1  0  0  0
M  END
> <minimizedAffinity>
-9.28107

> <CNNscore>
0.4445241988

> <CNNaffinity>
7.0271139145

> <CNN_VS>
3.1237220764

> <CNNaffinity_variance>
0.1809411049

$$$$
[H]N=C(c1c([H])c([H])c([H])c(Oc2nc(Oc3c([H])c([H])c([H])c(N([H])C(=O)C([H])([H])[H])c3[H])c(F)c(C([H])([H])[H])c2F)c1[H])N([H])[H]


 34 36  0  0  0  0  0  0  0  0999 V2000
  -17.9206   14.0724  -20.1415 C   0  0  0  0  0  0  0  0  0  0  0  0
  -17.2693   13.7331  -21.2803 N   0  0  0  0  0  0  0  0  0  0  0  0
  -16.8572   12.4987  -21.5792 C   0  0  0  0  0  0  0  0  0  0  0  0
  -17.1046   11.4861  -20.6755 C   0  0  0  0  0  0  0  0  0  0  0  0
  -16.6918   10.2174  -20.9622 F   0  0  0  0  0  0  0  0  0  0  0  0
  -17.7609   11.7490  -19.4952 C   0  0  0  0  0  0  0  0  0  0  0  0
  -18.0384   10.6764  -18.5077 C   0  0  0  0  0  0  0  0  0  0  0  0
  -18.1568   13.0455  -19.2536 C   0  0  0  0  0  0  0  0  0  0  0  0
  -18.8039   13.2551  -18.0680 F   0  0  0  0  0  0  0  0  0  0  0  0
  -18.3111   15.3553  -19.9047 O   0  0  0  0  0  0  0  0  0  0  0  0
  -20.3961   17.6748  -21.8388 C   0  0  0  0  0  0  0  0  0  0  0  0
  -21.6212   17.3026  -21.3427 C   0  0  0  0  0  0  0  0  0  0  0  0
  -21.7944   16.3154  -20.3931 C   0  0  0  0  0  0  0  0  0  0  0  0
  -20.7113   15.6529  -19.8990 C   0  0  0  0  0  0  0  0  0  0  0  0
  -19.4574   15.9794  -20.3559 C   0  0  0  0  0  0  0  0  0  0  0  0
  -19.3161   16.9637  -21.2988 C   0  0  0  0  0  0  0  0  0  0  0  0
  -19.4899   20.8794  -23.7969 C   0  0  0  0  0  0  0  0  0  0  0  0
  -19.6493   19.9616  -22.6213 C   0  0  0  0  0  0  0  0  0  0  0  0
  -19.2993   20.4186  -21.5271 O   0  0  0  0  0  0  0  0  0  0  0  0
  -20.1625   18.6861  -22.7971 N   0  0  0  0  0  0  0  0  0  0  0  0
  -20.4365   18.3971  -23.8026 H   0  0  0  0  0  0  0  0  0  0  0  0
  -16.1937   12.2542  -22.7811 O   0  0  0  0  0  0  0  0  0  0  0  0
  -16.4655   12.9655  -23.9336 C   0  0  0  0  0  0  0  0  0  0  0  0
  -17.3627   12.5314  -24.9000 C   0  0  0  0  0  0  0  0  0  0  0  0
  -17.5993   13.2752  -26.0295 C   0  0  0  0  0  0  0  0  0  0  0  0
  -16.9411   14.4915  -26.2361 C   0  0  0  0  0  0  0  0  0  0  0  0
  -16.0551   14.9399  -25.3022 C   0  0  0  0  0  0  0  0  0  0  0  0
  -15.8310   14.1572  -24.1523 C   0  0  0  0  0  0  0  0  0  0  0  0
  -15.3398   16.1970  -25.4597 C   0  0  0  0  0  0  0  0  0  0  0  0
  -14.2140   16.2564  -26.0335 N   0  0  0  0  0  0  0  0  0  0  0  0
  -15.9156   17.3907  -24.9589 N   0  0  0  0  0  0  0  0  0  0  0  0
  -13.7356   15.4437  -26.4194 H   0  0  0  0  0  0  0  0  0  0  0  0
  -15.3834   17.9477  -24.2707 H   0  0  0  0  0  0  0  0  0  0  0  0
  -16.8505   17.6875  -25.2838 H   0  0  0  0  0  0  0  0  0  0  0  0
 17 18  1  0  0  0
 18 19  2  0  0  0
 18 20  1  0  0  0
 20 11  1  0  0  0
 11 12  2  0  0  0
 12 13  1  0  0  0
 13 14  2  0  0  0
 14 15  1  0  0  0
 15 10  1  0  0  0
 10  1  1  0  0  0
  1  2  2  0  0  0
  2  3  1  0  0  0
  3 22  1  0  0  0
 22 23  1  0  0  0
 23 24  2  0  0  0
 24 25  1  0  0  0
 25 26  2  0  0  0
 26 27  1  0  0  0
 27 29  1  0  0  0
 29 30  2  0  0  0
 29 31  1  0  0  0
 27 28  2  0  0  0
  3  4  2  0  0  0
  4  5  1  0  0  0
  4  6  1  0  0  0
  6  7  1  0  0  0
  6  8  2  0  0  0
  8  9  1  0  0  0
 15 16  2  0  0  0
 16 11  1  0  0  0
  8  1  1  0  0  0
 28 23  1  0  0  0
 20 21  1  0  0  0
 30 32  1  0  0  0
 31 33  1  0  0  0
 31 34  1  0  0  0
M  END
> <minimizedAffinity>
-8.65276

> <CNNscore>
0.3243592381

> <CNNaffinity>
6.7938170433

> <CNN_VS>
2.2036373615

> <CNNaffinity_variance>
0.1980473548

$$$$
[H]N=C(c1c([H])c([H])c([H])c(Oc2nc(Oc3c([H])c([H])c([H])c(N([H])C(=O)C([H])([H])[H])c3[H])c(F)c(C([H])([H])[H])c2F)c1[H])N([H])[H]


 34 36  0  0  0  0  0  0  0  0999 V2000
  -18.3669   13.2429  -20.0757 C   0  0  0  0  0  0  0  0  0  0  0  0
  -18.7198   13.0639  -18.7797 N   0  0  0  0  0  0  0  0  0  0  0  0
  -18.4203   11.9836  -18.0544 C   0  0  0  0  0  0  0  0  0  0  0  0
  -17.7011   10.9692  -18.6520 C   0  0  0  0  0  0  0  0  0  0  0  0
  -17.3846    9.8567  -17.9279 F   0  0  0  0  0  0  0  0  0  0  0  0
  -17.3050   11.0746  -19.9654 C   0  0  0  0  0  0  0  0  0  0  0  0
  -16.5307    9.9967  -20.6298 C   0  0  0  0  0  0  0  0  0  0  0  0
  -17.6495   12.2174  -20.6520 C   0  0  0  0  0  0  0  0  0  0  0  0
  -17.2335   12.2737  -21.9529 F   0  0  0  0  0  0  0  0  0  0  0  0
  -18.7087   14.3738  -20.7528 O   0  0  0  0  0  0  0  0  0  0  0  0
  -17.5256   17.8041  -20.2033 C   0  0  0  0  0  0  0  0  0  0  0  0
  -16.5272   17.8240  -21.1458 C   0  0  0  0  0  0  0  0  0  0  0  0
  -16.2228   16.7518  -21.9607 C   0  0  0  0  0  0  0  0  0  0  0  0
  -16.9320   15.5939  -21.8503 C   0  0  0  0  0  0  0  0  0  0  0  0
  -17.9443   15.5110  -20.9251 C   0  0  0  0  0  0  0  0  0  0  0  0
  -18.2240   16.5914  -20.1299 C   0  0  0  0  0  0  0  0  0  0  0  0
  -19.1905   20.7772  -18.3829 C   0  0  0  0  0  0  0  0  0  0  0  0
  -19.0134   19.6831  -19.3935 C   0  0  0  0  0  0  0  0  0  0  0  0
  -19.9179   19.5662  -20.2281 O   0  0  0  0  0  0  0  0  0  0  0  0
  -17.8875   18.8754  -19.3565 N   0  0  0  0  0  0  0  0  0  0  0  0
  -17.1613   19.0738  -18.5800 H   0  0  0  0  0  0  0  0  0  0  0  0
  -18.8316   11.8971  -16.7248 O   0  0  0  0  0  0  0  0  0  0  0  0
  -19.8834   11.0948  -16.3270 C   0  0  0  0  0  0  0  0  0  0  0  0
  -21.1922   11.5489  -16.2350 C   0  0  0  0  0  0  0  0  0  0  0  0
  -22.2040   10.7117  -15.8346 C   0  0  0  0  0  0  0  0  0  0  0  0
  -21.9418    9.3775  -15.5083 C   0  0  0  0  0  0  0  0  0  0  0  0
  -20.6650    8.9071  -15.5905 C   0  0  0  0  0  0  0  0  0  0  0  0
  -19.6456    9.7873  -16.0041 C   0  0  0  0  0  0  0  0  0  0  0  0
  -20.3290    7.5294  -15.2651 C   0  0  0  0  0  0  0  0  0  0  0  0
  -19.1308    7.1247  -15.2337 N   0  0  0  0  0  0  0  0  0  0  0  0
  -21.3683    6.6116  -14.9741 N   0  0  0  0  0  0  0  0  0  0  0  0
  -18.3295    7.7228  -15.4304 H   0  0  0  0  0  0  0  0  0  0  0  0
  -21.4454    5.7526  -15.5428 H   0  0  0  0  0  0  0  0  0  0  0  0
  -22.0298    6.8093  -14.2054 H   0  0  0  0  0  0  0  0  0  0  0  0
 17 18  1  0  0  0
 18 19  2  0  0  0
 18 20  1  0  0  0
 20 11  1  0  0  0
 11 12  2  0  0  0
 12 13  1  0  0  0
 13 14  2  0  0  0
 14 15  1  0  0  0
 15 10  1  0  0  0
 10  1  1  0  0  0
  1  2  2  0  0  0
  2  3  1  0  0  0
  3 22  1  0  0  0
 22 23  1  0  0  0
 23 24  2  0  0  0
 24 25  1  0  0  0
 25 26  2  0  0  0
 26 27  1  0  0  0
 27 29  1  0  0  0
 29 30  2  0  0  0
 29 31  1  0  0  0
 27 28  2  0  0  0
  3  4  2  0  0  0
  4  5  1  0  0  0
  4  6  1  0  0  0
  6  7  1  0  0  0
  6  8  2  0  0  0
  8  9  1  0  0  0
 15 16  2  0  0  0
 16 11  1  0  0  0
  8  1  1  0  0  0
 28 23  1  0  0  0
 20 21  1  0  0  0
 30 32  1  0  0  0
 31 33  1  0  0  0
 31 34  1  0  0  0
M  END
> <minimizedAffinity>
-8.02729

> <CNNscore>
0.3034353256

> <CNNaffinity>
6.0486454964

> <CNN_VS>
1.8353726864

> <CNNaffinity_variance>
0.4237910211

$$$$
[H]N=C(c1c([H])c([H])c([H])c(Oc2nc(Oc3c([H])c([H])c([H])c(N([H])C(=O)C([H])([H])[H])c3[H])c(F)c(C([H])([H])[H])c2F)c1[H])N([H])[H]


 34 36  0  0  0  0  0  0  0  0999 V2000
  -18.7482   13.6094  -20.5900 C   0  0  0  0  0  0  0  0  0  0  0  0
  -17.8241   13.5849  -21.5808 N   0  0  0  0  0  0  0  0  0  0  0  0
  -16.8913   12.6406  -21.7248 C   0  0  0  0  0  0  0  0  0  0  0  0
  -16.8524   11.6099  -20.8085 C   0  0  0  0  0  0  0  0  0  0  0  0
  -15.9068   10.6345  -20.9380 F   0  0  0  0  0  0  0  0  0  0  0  0
  -17.7565   11.5625  -19.7725 C   0  0  0  0  0  0  0  0  0  0  0  0
  -17.7344   10.4641  -18.7747 C   0  0  0  0  0  0  0  0  0  0  0  0
  -18.6905   12.5707  -19.6865 C   0  0  0  0  0  0  0  0  0  0  0  0
  -19.5653   12.4788  -18.6403 F   0  0  0  0  0  0  0  0  0  0  0  0
  -19.6708   14.6075  -20.5069 O   0  0  0  0  0  0  0  0  0  0  0  0
  -18.9992   17.5656  -18.4412 C   0  0  0  0  0  0  0  0  0  0  0  0
  -18.9859   18.5075  -19.4402 C   0  0  0  0  0  0  0  0  0  0  0  0
  -19.1896   18.2118  -20.7734 C   0  0  0  0  0  0  0  0  0  0  0  0
  -19.4189   16.9241  -21.1546 C   0  0  0  0  0  0  0  0  0  0  0  0
  -19.4442   15.9351  -20.2013 C   0  0  0  0  0  0  0  0  0  0  0  0
  -19.2390   16.2584  -18.8856 C   0  0  0  0  0  0  0  0  0  0  0  0
  -19.2924   18.4859  -14.7006 C   0  0  0  0  0  0  0  0  0  0  0  0
  -19.7163   18.2906  -16.1260 C   0  0  0  0  0  0  0  0  0  0  0  0
  -20.8909   18.5765  -16.3850 O   0  0  0  0  0  0  0  0  0  0  0  0
  -18.8123   17.8159  -17.0635 N   0  0  0  0  0  0  0  0  0  0  0  0
  -17.8095   17.6015  -16.7198 H   0  0  0  0  0  0  0  0  0  0  0  0
  -15.9845   12.7078  -22.7820 O   0  0  0  0  0  0  0  0  0  0  0  0
  -16.3670   13.0553  -24.0631 C   0  0  0  0  0  0  0  0  0  0  0  0
  -17.3734   12.3996  -24.7592 C   0  0  0  0  0  0  0  0  0  0  0  0
  -17.7178   12.7831  -26.0317 C   0  0  0  0  0  0  0  0  0  0  0  0
  -17.0622   13.8461  -26.6607 C   0  0  0  0  0  0  0  0  0  0  0  0
  -16.0702   14.5063  -25.9985 C   0  0  0  0  0  0  0  0  0  0  0  0
  -15.7368   14.0924  -24.6938 C   0  0  0  0  0  0  0  0  0  0  0  0
  -15.3517   15.6199  -26.5990 C   0  0  0  0  0  0  0  0  0  0  0  0
  -15.4477   15.8886  -27.8315 N   0  0  0  0  0  0  0  0  0  0  0  0
  -14.5207   16.4292  -25.7857 N   0  0  0  0  0  0  0  0  0  0  0  0
  -16.0239   15.3548  -28.4806 H   0  0  0  0  0  0  0  0  0  0  0  0
  -13.5227   16.5240  -26.0353 H   0  0  0  0  0  0  0  0  0  0  0  0
  -14.9172   16.9099  -24.9615 H   0  0  0  0  0  0  0  0  0  0  0  0
 17 18  1  0  0  0
 18 19  2  0  0  0
 18 20  1  0  0  0
 20 11  1  0  0  0
 11 12  2  0  0  0
 12 13  1  0  0  0
 13 14  2  0  0  0
 14 15  1  0  0  0
 15 10  1  0  0  0
 10  1  1  0  0  0
  1  2  2  0  0  0
  2  3  1  0  0  0
  3 22  1  0  0  0
 22 23  1  0  0  0
 23 24  2  0  0  0
 24 25  1  0  0  0
 25 26  2  0  0  0
 26 27  1  0  0  0
 27 29  1  0  0  0
 29 30  2  0  0  0
 29 31  1  0  0  0
 27 28  2  0  0  0
  3  4  2  0  0  0
  4  5  1  0  0  0
  4  6  1  0  0  0
  6  7  1  0  0  0
  6  8  2  0  0  0
  8  9  1  0  0  0
 15 16  2  0  0  0
 16 11  1  0  0  0
  8  1  1  0  0  0
 28 23  1  0  0  0
 20 21  1  0  0  0
 30 32  1  0  0  0
 31 33  1  0  0  0
 31 34  1  0  0  0
M  END
> <minimizedAffinity>
-8.99462

> <CNNscore>
0.2816040814

> <CNNaffinity>
6.9003524780

> <CNN_VS>
1.9431674480

> <CNNaffinity_variance>
0.1288692057

$$$$
[H]N=C(c1c([H])c([H])c([H])c(Oc2nc(Oc3c([H])c([H])c([H])c(N([H])C(=O)C([H])([H])[H])c3[H])c(F)c(C([H])([H])[H])c2F)c1[H])N([H])[H]


 34 36  0  0  0  0  0  0  0  0999 V2000
  -18.0449   12.4552  -18.8384 C   0  0  0  0  0  0  0  0  0  0  0  0
  -18.3926   13.2949  -19.8435 N   0  0  0  0  0  0  0  0  0  0  0  0
  -18.0113   13.1542  -21.1154 C   0  0  0  0  0  0  0  0  0  0  0  0
  -17.2066   12.0834  -21.4459 C   0  0  0  0  0  0  0  0  0  0  0  0
  -16.8061   11.9215  -22.7403 F   0  0  0  0  0  0  0  0  0  0  0  0
  -16.8096   11.1852  -20.4823 C   0  0  0  0  0  0  0  0  0  0  0  0
  -15.9443   10.0258  -20.8136 C   0  0  0  0  0  0  0  0  0  0  0  0
  -17.2410   11.3933  -19.1913 C   0  0  0  0  0  0  0  0  0  0  0  0
  -16.8193   10.4743  -18.2715 F   0  0  0  0  0  0  0  0  0  0  0  0
  -18.4727   12.6630  -17.5624 O   0  0  0  0  0  0  0  0  0  0  0  0
  -21.5931   12.4043  -15.6482 C   0  0  0  0  0  0  0  0  0  0  0  0
  -21.7102   11.0362  -15.6417 C   0  0  0  0  0  0  0  0  0  0  0  0
  -20.8021   10.1877  -16.2432 C   0  0  0  0  0  0  0  0  0  0  0  0
  -19.7180   10.7024  -16.8881 C   0  0  0  0  0  0  0  0  0  0  0  0
  -19.5446   12.0646  -16.9298 C   0  0  0  0  0  0  0  0  0  0  0  0
  -20.4623   12.8822  -16.3238 C   0  0  0  0  0  0  0  0  0  0  0  0
  -23.7490   14.5486  -13.2651 C   0  0  0  0  0  0  0  0  0  0  0  0
  -22.7491   13.5150  -13.6912 C   0  0  0  0  0  0  0  0  0  0  0  0
  -22.2041   12.8818  -12.7798 O   0  0  0  0  0  0  0  0  0  0  0  0
  -22.4832   13.3152  -15.0368 N   0  0  0  0  0  0  0  0  0  0  0  0
  -23.0240   13.9285  -15.7446 H   0  0  0  0  0  0  0  0  0  0  0  0
  -18.4251   14.0762  -22.0763 O   0  0  0  0  0  0  0  0  0  0  0  0
  -17.5851   15.0541  -22.5726 C   0  0  0  0  0  0  0  0  0  0  0  0
  -17.2084   16.1734  -21.8428 C   0  0  0  0  0  0  0  0  0  0  0  0
  -16.3701   17.1182  -22.3807 C   0  0  0  0  0  0  0  0  0  0  0  0
  -15.8732   16.9773  -23.6802 C   0  0  0  0  0  0  0  0  0  0  0  0
  -16.2281   15.8871  -24.4176 C   0  0  0  0  0  0  0  0  0  0  0  0
  -17.0897   14.9327  -23.8415 C   0  0  0  0  0  0  0  0  0  0  0  0
  -15.7439   15.6838  -25.7745 C   0  0  0  0  0  0  0  0  0  0  0  0
  -16.3694   14.9627  -26.6047 N   0  0  0  0  0  0  0  0  0  0  0  0
  -14.5397   16.3085  -26.1827 N   0  0  0  0  0  0  0  0  0  0  0  0
  -17.2407   14.4812  -26.3875 H   0  0  0  0  0  0  0  0  0  0  0  0
  -13.7693   15.7179  -26.5360 H   0  0  0  0  0  0  0  0  0  0  0  0
  -14.4464   17.3358  -26.1231 H   0  0  0  0  0  0  0  0  0  0  0  0
 17 18  1  0  0  0
 18 19  2  0  0  0
 18 20  1  0  0  0
 20 11  1  0  0  0
 11 12  2  0  0  0
 12 13  1  0  0  0
 13 14  2  0  0  0
 14 15  1  0  0  0
 15 10  1  0  0  0
 10  1  1  0  0  0
  1  2  2  0  0  0
  2  3  1  0  0  0
  3 22  1  0  0  0
 22 23  1  0  0  0
 23 24  2  0  0  0
 24 25  1  0  0  0
 25 26  2  0  0  0
 26 27  1  0  0  0
 27 29  1  0  0  0
 29 30  2  0  0  0
 29 31  1  0  0  0
 27 28  2  0  0  0
  3  4  2  0  0  0
  4  5  1  0  0  0
  4  6  1  0  0  0
  6  7  1  0  0  0
  6  8  2  0  0  0
  8  9  1  0  0  0
 15 16  2  0  0  0
 16 11  1  0  0  0
  8  1  1  0  0  0
 28 23  1  0  0  0
 20 21  1  0  0  0
 30 32  1  0  0  0
 31 33  1  0  0  0
 31 34  1  0  0  0
M  END
> <minimizedAffinity>
-8.58737

> <CNNscore>
0.2809127867

> <CNNaffinity>
6.3764543533

> <CNN_VS>
1.7912275791

> <CNNaffinity_variance>
0.2525428832

$$$$
[H]N=C(c1c([H])c([H])c([H])c(Oc2nc(Oc3c([H])c([H])c([H])c(N([H])C(=O)C([H])([H])[H])c3[H])c(F)c(C([H])([H])[H])c2F)c1[H])N([H])[H]


 34 36  0  0  0  0  0  0  0  0999 V2000
  -17.5464   12.4267  -21.6555 C   0  0  0  0  0  0  0  0  0  0  0  0
  -18.6707   13.1061  -21.3232 N   0  0  0  0  0  0  0  0  0  0  0  0
  -19.3114   12.9884  -20.1578 C   0  0  0  0  0  0  0  0  0  0  0  0
  -18.8057   12.1178  -19.2146 C   0  0  0  0  0  0  0  0  0  0  0  0
  -19.4456   11.9830  -18.0168 F   0  0  0  0  0  0  0  0  0  0  0  0
  -17.6672   11.3906  -19.4754 C   0  0  0  0  0  0  0  0  0  0  0  0
  -17.1044   10.4481  -18.4766 C   0  0  0  0  0  0  0  0  0  0  0  0
  -17.0593   11.5631  -20.6988 C   0  0  0  0  0  0  0  0  0  0  0  0
  -15.9328   10.8182  -20.9096 F   0  0  0  0  0  0  0  0  0  0  0  0
  -16.9469   12.5988  -22.8661 O   0  0  0  0  0  0  0  0  0  0  0  0
  -16.2101   16.1515  -23.4174 C   0  0  0  0  0  0  0  0  0  0  0  0
  -15.0435   16.0054  -24.1267 C   0  0  0  0  0  0  0  0  0  0  0  0
  -14.4834   14.7816  -24.4346 C   0  0  0  0  0  0  0  0  0  0  0  0
  -15.0954   13.6345  -24.0275 C   0  0  0  0  0  0  0  0  0  0  0  0
  -16.2664   13.7142  -23.3134 C   0  0  0  0  0  0  0  0  0  0  0  0
  -16.7991   14.9428  -23.0226 C   0  0  0  0  0  0  0  0  0  0  0  0
  -18.5487   19.1942  -22.9727 C   0  0  0  0  0  0  0  0  0  0  0  0
  -18.0913   17.8429  -23.4356 C   0  0  0  0  0  0  0  0  0  0  0  0
  -18.8969   17.2056  -24.1237 O   0  0  0  0  0  0  0  0  0  0  0  0
  -16.8328   17.3764  -23.0893 N   0  0  0  0  0  0  0  0  0  0  0  0
  -16.2139   18.0247  -22.4842 H   0  0  0  0  0  0  0  0  0  0  0  0
  -20.4638   13.7349  -19.9139 O   0  0  0  0  0  0  0  0  0  0  0  0
  -20.4793   15.1144  -19.9828 C   0  0  0  0  0  0  0  0  0  0  0  0
  -21.6293   15.8490  -20.2381 C   0  0  0  0  0  0  0  0  0  0  0  0
  -21.5934   17.2202  -20.2964 C   0  0  0  0  0  0  0  0  0  0  0  0
  -20.3950   17.9136  -20.0999 C   0  0  0  0  0  0  0  0  0  0  0  0
  -19.2517   17.2154  -19.8478 C   0  0  0  0  0  0  0  0  0  0  0  0
  -19.3165   15.8091  -19.7933 C   0  0  0  0  0  0  0  0  0  0  0  0
  -17.9748   17.8793  -19.6343 C   0  0  0  0  0  0  0  0  0  0  0  0
  -16.8745   17.2759  -19.7943 N   0  0  0  0  0  0  0  0  0  0  0  0
  -17.9572   19.2390  -19.2366 N   0  0  0  0  0  0  0  0  0  0  0  0
  -16.8040   16.2999  -20.0787 H   0  0  0  0  0  0  0  0  0  0  0  0
  -17.4745   19.4932  -18.3594 H   0  0  0  0  0  0  0  0  0  0  0  0
  -18.4220   19.9528  -19.8215 H   0  0  0  0  0  0  0  0  0  0  0  0
 17 18  1  0  0  0
 18 19  2  0  0  0
 18 20  1  0  0  0
 20 11  1  0  0  0
 11 12  2  0  0  0
 12 13  1  0  0  0
 13 14  2  0  0  0
 14 15  1  0  0  0
 15 10  1  0  0  0
 10  1  1  0  0  0
  1  2  2  0  0  0
  2  3  1  0  0  0
  3 22  1  0  0  0
 22 23  1  0  0  0
 23 24  2  0  0  0
 24 25  1  0  0  0
 25 26  2  0  0  0
 26 27  1  0  0  0
 27 29  1  0  0  0
 29 30  2  0  0  0
 29 31  1  0  0  0
 27 28  2  0  0  0
  3  4  2  0  0  0
  4  5  1  0  0  0
  4  6  1  0  0  0
  6  7  1  0  0  0
  6  8  2  0  0  0
  8  9  1  0  0  0
 15 16  2  0  0  0
 16 11  1  0  0  0
  8  1  1  0  0  0
 28 23  1  0  0  0
 20 21  1  0  0  0
 30 32  1  0  0  0
 31 33  1  0  0  0
 31 34  1  0  0  0
M  END
> <minimizedAffinity>
-8.43505

> <CNNscore>
0.2777123749

> <CNNaffinity>
6.2698049545

> <CNN_VS>
1.7412024736

> <CNNaffinity_variance>
0.6053198576

$$$$
[H]N=C(c1c([H])c([H])c([H])c(Oc2nc(Oc3c([H])c([H])c([H])c(N([H])C(=O)C([H])([H])[H])c3[H])c(F)c(C([H])([H])[H])c2F)c1[H])N([H])[H]


 34 36  0  0  0  0  0  0  0  0999 V2000
  -17.1505   13.0534  -23.6329 C   0  0  0  0  0  0  0  0  0  0  0  0
  -16.6437   14.1551  -23.0283 N   0  0  0  0  0  0  0  0  0  0  0  0
  -16.1807   15.2287  -23.6729 C   0  0  0  0  0  0  0  0  0  0  0  0
  -16.2138   15.2324  -25.0521 C   0  0  0  0  0  0  0  0  0  0  0  0
  -15.7455   16.3202  -25.7300 F   0  0  0  0  0  0  0  0  0  0  0  0
  -16.7134   14.1514  -25.7412 C   0  0  0  0  0  0  0  0  0  0  0  0
  -16.7594   14.1322  -27.2245 C   0  0  0  0  0  0  0  0  0  0  0  0
  -17.1737   13.0789  -25.0103 C   0  0  0  0  0  0  0  0  0  0  0  0
  -17.6592   12.0304  -25.7406 F   0  0  0  0  0  0  0  0  0  0  0  0
  -17.6051   11.9939  -22.9082 O   0  0  0  0  0  0  0  0  0  0  0  0
  -17.9225   11.9081  -19.2530 C   0  0  0  0  0  0  0  0  0  0  0  0
  -16.8164   11.1435  -18.9747 C   0  0  0  0  0  0  0  0  0  0  0  0
  -15.9638   10.6508  -19.9424 C   0  0  0  0  0  0  0  0  0  0  0  0
  -16.2032   10.9185  -21.2566 C   0  0  0  0  0  0  0  0  0  0  0  0
  -17.2950   11.6785  -21.5999 C   0  0  0  0  0  0  0  0  0  0  0  0
  -18.1238   12.1542  -20.6177 C   0  0  0  0  0  0  0  0  0  0  0  0
  -20.5143   12.5818  -16.4684 C   0  0  0  0  0  0  0  0  0  0  0  0
  -19.6311   11.7951  -17.3908 C   0  0  0  0  0  0  0  0  0  0  0  0
  -19.6875   10.5654  -17.2754 O   0  0  0  0  0  0  0  0  0  0  0  0
  -18.8169   12.4487  -18.3024 N   0  0  0  0  0  0  0  0  0  0  0  0
  -18.8539   13.5295  -18.3131 H   0  0  0  0  0  0  0  0  0  0  0  0
  -15.6785   16.3137  -22.9551 O   0  0  0  0  0  0  0  0  0  0  0  0
  -16.5006   17.2239  -22.3197 C   0  0  0  0  0  0  0  0  0  0  0  0
  -16.4450   17.4739  -20.9552 C   0  0  0  0  0  0  0  0  0  0  0  0
  -17.2841   18.3894  -20.3698 C   0  0  0  0  0  0  0  0  0  0  0  0
  -18.2184   19.0949  -21.1344 C   0  0  0  0  0  0  0  0  0  0  0  0
  -18.2931   18.8676  -22.4765 C   0  0  0  0  0  0  0  0  0  0  0  0
  -17.4204   17.9229  -23.0517 C   0  0  0  0  0  0  0  0  0  0  0  0
  -19.2434   19.5701  -23.3252 C   0  0  0  0  0  0  0  0  0  0  0  0
  -20.2900   19.0090  -23.7611 N   0  0  0  0  0  0  0  0  0  0  0  0
  -18.9949   20.9201  -23.6760 N   0  0  0  0  0  0  0  0  0  0  0  0
  -20.5386   18.0428  -23.5535 H   0  0  0  0  0  0  0  0  0  0  0  0
  -18.9393   21.1707  -24.6766 H   0  0  0  0  0  0  0  0  0  0  0  0
  -18.8735   21.6307  -22.9357 H   0  0  0  0  0  0  0  0  0  0  0  0
 17 18  1  0  0  0
 18 19  2  0  0  0
 18 20  1  0  0  0
 20 11  1  0  0  0
 11 12  2  0  0  0
 12 13  1  0  0  0
 13 14  2  0  0  0
 14 15  1  0  0  0
 15 10  1  0  0  0
 10  1  1  0  0  0
  1  2  2  0  0  0
  2  3  1  0  0  0
  3 22  1  0  0  0
 22 23  1  0  0  0
 23 24  2  0  0  0
 24 25  1  0  0  0
 25 26  2  0  0  0
 26 27  1  0  0  0
 27 29  1  0  0  0
 29 30  2  0  0  0
 29 31  1  0  0  0
 27 28  2  0  0  0
  3  4  2  0  0  0
  4  5  1  0  0  0
  4  6  1  0  0  0
  6  7  1  0  0  0
  6  8  2  0  0  0
  8  9  1  0  0  0
 15 16  2  0  0  0
 16 11  1  0  0  0
  8  1  1  0  0  0
 28 23  1  0  0  0
 20 21  1  0  0  0
 30 32  1  0  0  0
 31 33  1  0  0  0
 31 34  1  0  0  0
M  END
> <minimizedAffinity>
-8.97935

> <CNNscore>
0.2551683187

> <CNNaffinity>
6.7016992569

> <CNN_VS>
1.7100613117

> <CNNaffinity_variance>
0.1473486871

$$$$
[H]N=C(c1c([H])c([H])c([H])c(Oc2nc(Oc3c([H])c([H])c([H])c(N([H])C(=O)C([H])([H])[H])c3[H])c(F)c(C([H])([H])[H])c2F)c1[H])N([H])[H]


 34 36  0  0  0  0  0  0  0  0999 V2000
  -17.9422   13.3300  -21.6924 C   0  0  0  0  0  0  0  0  0  0  0  0
  -18.2602   13.4645  -20.3821 N   0  0  0  0  0  0  0  0  0  0  0  0
  -17.7648   12.7078  -19.4000 C   0  0  0  0  0  0  0  0  0  0  0  0
  -16.8642   11.7147  -19.7257 C   0  0  0  0  0  0  0  0  0  0  0  0
  -16.3459   10.9304  -18.7365 F   0  0  0  0  0  0  0  0  0  0  0  0
  -16.4897   11.5139  -21.0343 C   0  0  0  0  0  0  0  0  0  0  0  0
  -15.5228   10.4522  -21.4091 C   0  0  0  0  0  0  0  0  0  0  0  0
  -17.0414   12.3322  -21.9946 C   0  0  0  0  0  0  0  0  0  0  0  0
  -16.6383   12.0925  -23.2785 F   0  0  0  0  0  0  0  0  0  0  0  0
  -18.4891   14.1404  -22.6404 O   0  0  0  0  0  0  0  0  0  0  0  0
  -17.6805   17.6716  -23.2283 C   0  0  0  0  0  0  0  0  0  0  0  0
  -16.8438   17.5079  -24.3048 C   0  0  0  0  0  0  0  0  0  0  0  0
  -16.5309   16.2790  -24.8507 C   0  0  0  0  0  0  0  0  0  0  0  0
  -17.0638   15.1446  -24.3166 C   0  0  0  0  0  0  0  0  0  0  0  0
  -17.9086   15.2421  -23.2376 C   0  0  0  0  0  0  0  0  0  0  0  0
  -18.2013   16.4754  -22.7169 C   0  0  0  0  0  0  0  0  0  0  0  0
  -19.2752   21.0404  -22.2121 C   0  0  0  0  0  0  0  0  0  0  0  0
  -19.0740   19.7685  -22.9810 C   0  0  0  0  0  0  0  0  0  0  0  0
  -19.8694   19.5635  -23.9050 O   0  0  0  0  0  0  0  0  0  0  0  0
  -18.0450   18.9039  -22.6417 N   0  0  0  0  0  0  0  0  0  0  0  0
  -17.4102   19.1906  -21.8144 H   0  0  0  0  0  0  0  0  0  0  0  0
  -18.1577   12.9282  -18.0803 O   0  0  0  0  0  0  0  0  0  0  0  0
  -19.0826   12.1259  -17.4405 C   0  0  0  0  0  0  0  0  0  0  0  0
  -20.3396   12.5734  -17.0571 C   0  0  0  0  0  0  0  0  0  0  0  0
  -21.2246   11.7366  -16.4235 C   0  0  0  0  0  0  0  0  0  0  0  0
  -20.8818   10.4093  -16.1473 C   0  0  0  0  0  0  0  0  0  0  0  0
  -19.6534    9.9455  -16.5135 C   0  0  0  0  0  0  0  0  0  0  0  0
  -18.7645   10.8252  -17.1623 C   0  0  0  0  0  0  0  0  0  0  0  0
  -19.2385    8.5752  -16.2544 C   0  0  0  0  0  0  0  0  0  0  0  0
  -18.0193    8.2380  -16.2454 N   0  0  0  0  0  0  0  0  0  0  0  0
  -20.2229    7.5875  -16.0043 N   0  0  0  0  0  0  0  0  0  0  0  0
  -17.2541    8.8889  -16.4158 H   0  0  0  0  0  0  0  0  0  0  0  0
  -20.2545    6.7532  -16.6126 H   0  0  0  0  0  0  0  0  0  0  0  0
  -20.8904    7.7111  -15.2253 H   0  0  0  0  0  0  0  0  0  0  0  0
 17 18  1  0  0  0
 18 19  2  0  0  0
 18 20  1  0  0  0
 20 11  1  0  0  0
 11 12  2  0  0  0
 12 13  1  0  0  0
 13 14  2  0  0  0
 14 15  1  0  0  0
 15 10  1  0  0  0
 10  1  1  0  0  0
  1  2  2  0  0  0
  2  3  1  0  0  0
  3 22  1  0  0  0
 22 23  1  0  0  0
 23 24  2  0  0  0
 24 25  1  0  0  0
 25 26  2  0  0  0
 26 27  1  0  0  0
 27 29  1  0  0  0
 29 30  2  0  0  0
 29 31  1  0  0  0
 27 28  2  0  0  0
  3  4  2  0  0  0
  4  5  1  0  0  0
  4  6  1  0  0  0
  6  7  1  0  0  0
  6  8  2  0  0  0
  8  9  1  0  0  0
 15 16  2  0  0  0
 16 11  1  0  0  0
  8  1  1  0  0  0
 28 23  1  0  0  0
 20 21  1  0  0  0
 30 32  1  0  0  0
 31 33  1  0  0  0
 31 34  1  0  0  0
M  END
> <minimizedAffinity>
-8.71477

> <CNNscore>
0.2525954843

> <CNNaffinity>
6.4009108543

> <CNN_VS>
1.6168411970

> <CNNaffinity_variance>
0.1550857127

$$$$
[H]N=C(c1c([H])c([H])c([H])c(Oc2nc(Oc3c([H])c([H])c([H])c(N([H])C(=O)C([H])([H])[H])c3[H])c(F)c(C([H])([H])[H])c2F)c1[H])N([H])[H]


 34 36  0  0  0  0  0  0  0  0999 V2000
  -18.0797   13.3272  -21.0358 C   0  0  0  0  0  0  0  0  0  0  0  0
  -18.4086   13.5056  -19.7334 N   0  0  0  0  0  0  0  0  0  0  0  0
  -18.0910   12.6619  -18.7486 C   0  0  0  0  0  0  0  0  0  0  0  0
  -17.3775   11.5236  -19.0626 C   0  0  0  0  0  0  0  0  0  0  0  0
  -17.0427   10.6485  -18.0704 F   0  0  0  0  0  0  0  0  0  0  0  0
  -17.0054   11.2695  -20.3626 C   0  0  0  0  0  0  0  0  0  0  0  0
  -16.2377   10.0521  -20.7247 C   0  0  0  0  0  0  0  0  0  0  0  0
  -17.3677   12.1839  -21.3263 C   0  0  0  0  0  0  0  0  0  0  0  0
  -16.9752   11.8861  -22.6013 F   0  0  0  0  0  0  0  0  0  0  0  0
  -18.4391   14.2327  -21.9872 O   0  0  0  0  0  0  0  0  0  0  0  0
  -16.7131   16.0951  -24.6369 C   0  0  0  0  0  0  0  0  0  0  0  0
  -16.1054   17.0430  -23.8509 C   0  0  0  0  0  0  0  0  0  0  0  0
  -16.2384   17.0980  -22.4778 C   0  0  0  0  0  0  0  0  0  0  0  0
  -17.0081   16.1765  -21.8340 C   0  0  0  0  0  0  0  0  0  0  0  0
  -17.6430   15.2019  -22.5652 C   0  0  0  0  0  0  0  0  0  0  0  0
  -17.4925   15.1720  -23.9269 C   0  0  0  0  0  0  0  0  0  0  0  0
  -15.6206   15.5358  -28.3000 C   0  0  0  0  0  0  0  0  0  0  0  0
  -15.5180   15.5708  -26.8040 C   0  0  0  0  0  0  0  0  0  0  0  0
  -14.4341   15.2145  -26.3278 O   0  0  0  0  0  0  0  0  0  0  0  0
  -16.5983   15.9848  -26.0406 N   0  0  0  0  0  0  0  0  0  0  0  0
  -17.4957   16.2756  -26.5695 H   0  0  0  0  0  0  0  0  0  0  0  0
  -18.4781   12.9385  -17.4378 O   0  0  0  0  0  0  0  0  0  0  0  0
  -19.3925   13.9271  -17.1300 C   0  0  0  0  0  0  0  0  0  0  0  0
  -20.7633   13.7098  -17.0969 C   0  0  0  0  0  0  0  0  0  0  0  0
  -21.6324   14.7257  -16.7849 C   0  0  0  0  0  0  0  0  0  0  0  0
  -21.1583   16.0082  -16.4919 C   0  0  0  0  0  0  0  0  0  0  0  0
  -19.8166   16.2475  -16.5177 C   0  0  0  0  0  0  0  0  0  0  0  0
  -18.9468   15.1873  -16.8409 C   0  0  0  0  0  0  0  0  0  0  0  0
  -19.2622   17.5598  -16.2218 C   0  0  0  0  0  0  0  0  0  0  0  0
  -18.8075   18.3122  -17.1314 N   0  0  0  0  0  0  0  0  0  0  0  0
  -19.2286   18.0126  -14.8798 N   0  0  0  0  0  0  0  0  0  0  0  0
  -18.7966   18.0587  -18.1183 H   0  0  0  0  0  0  0  0  0  0  0  0
  -18.3187   18.2764  -14.4677 H   0  0  0  0  0  0  0  0  0  0  0  0
  -20.1041   18.0733  -14.3345 H   0  0  0  0  0  0  0  0  0  0  0  0
 17 18  1  0  0  0
 18 19  2  0  0  0
 18 20  1  0  0  0
 20 11  1  0  0  0
 11 12  2  0  0  0
 12 13  1  0  0  0
 13 14  2  0  0  0
 14 15  1  0  0  0
 15 10  1  0  0  0
 10  1  1  0  0  0
  1  2  2  0  0  0
  2  3  1  0  0  0
  3 22  1  0  0  0
 22 23  1  0  0  0
 23 24  2  0  0  0
 24 25  1  0  0  0
 25 26  2  0  0  0
 26 27  1  0  0  0
 27 29  1  0  0  0
 29 30  2  0  0  0
 29 31  1  0  0  0
 27 28  2  0  0  0
  3  4  2  0  0  0
  4  5  1  0  0  0
  4  6  1  0  0  0
  6  7  1  0  0  0
  6  8  2  0  0  0
  8  9  1  0  0  0
 15 16  2  0  0  0
 16 11  1  0  0  0
  8  1  1  0  0  0
 28 23  1  0  0  0
 20 21  1  0  0  0
 30 32  1  0  0  0
 31 33  1  0  0  0
 31 34  1  0  0  0
M  END
> <minimizedAffinity>
-9.05302

> <CNNscore>
0.2444750220

> <CNNaffinity>
6.2254772186

> <CNN_VS>
1.5219737291

> <CNNaffinity_variance>
0.5258999467

$$$$
[H]c1c([H])c(C(N=[N+]=[N-])(C([H])([H])[H])C([H])([H])[H])c(Cl)c([H])c1C(F)(F)F


 17 17  0  0  0  0  0  0  0  0999 V2000
  -19.6626   11.0545  -16.7897 C   0  0  0  0  0  0  0  0  0  0  0  0
  -19.3361   12.2130  -17.5262 C   0  0  0  0  0  0  0  0  0  0  0  0
  -18.4166   12.0171  -18.5180 C   0  0  0  0  0  0  0  0  0  0  0  0
  -17.7881   10.8721  -18.8491 C   0  0  0  0  0  0  0  0  0  0  0  0
  -18.1212    9.7176  -18.0973 C   0  0  0  0  0  0  0  0  0  0  0  0
  -19.0672    9.8417  -17.0717 C   0  0  0  0  0  0  0  0  0  0  0  0
  -19.4625    8.4014  -16.1130 Cl  0  0  0  0  0  0  0  0  0  0  0  0
  -16.8124   10.7193  -19.9600 C   0  0  0  0  0  0  0  0  0  0  0  0
  -17.1648    9.6986  -20.8405 F   0  0  0  0  0  0  0  0  0  0  0  0
  -15.5445   10.5751  -19.5036 F   0  0  0  0  0  0  0  0  0  0  0  0
  -16.8248   11.8542  -20.7833 F   0  0  0  0  0  0  0  0  0  0  0  0
  -20.0581   10.9951  -14.3519 C   0  0  0  0  0  0  0  0  0  0  0  0
  -20.7343   11.1146  -15.7586 C   0  0  0  0  0  0  0  0  0  0  0  0
  -21.4894   12.3966  -15.7375 C   0  0  0  0  0  0  0  0  0  0  0  0
  -21.6432    9.9986  -15.8756 N   0  0  0  0  0  0  0  0  0  0  0  0
  -22.8117   10.1414  -15.6006 N   0  0  0  0  0  0  0  0  0  0  0  0
  -23.9720    9.6216  -15.5225 N   0  0  0  0  0  0  0  0  0  0  0  0
 12 13  1  0  0  0
 13 14  1  0  0  0
 13 15  1  0  0  0
 15 16  2  0  0  0
 16 17  2  0  0  0
 13  1  1  0  0  0
  1  2  2  0  0  0
  2  3  1  0  0  0
  3  4  2  0  0  0
  4  8  1  0  0  0
  8  9  1  0  0  0
  8 10  1  0  0  0
  8 11  1  0  0  0
  4  5  1  0  0  0
  5  6  2  0  0  0
  6  7  1  0  0  0
  6  1  1  0  0  0
M  CHG 1  16   1
M  CHG 1  17  -1
M  END
> <minimizedAffinity>
-6.15299

> <CNNscore>
0.4748701155

> <CNNaffinity>
4.4753003120

> <CNN_VS>
2.1251864433

> <CNNaffinity_variance>
0.4624564648

$$$$
[H]c1c([H])c(C(N=[N+]=[N-])(C([H])([H])[H])C([H])([H])[H])c(Cl)c([H])c1C(F)(F)F


 17 17  0  0  0  0  0  0  0  0999 V2000
  -17.2624   13.3193  -22.3377 C   0  0  0  0  0  0  0  0  0  0  0  0
  -18.3154   14.0805  -21.7874 C   0  0  0  0  0  0  0  0  0  0  0  0
  -18.7475   13.6536  -20.5632 C   0  0  0  0  0  0  0  0  0  0  0  0
  -18.3033   12.6000  -19.8503 C   0  0  0  0  0  0  0  0  0  0  0  0
  -17.2495   11.8408  -20.4176 C   0  0  0  0  0  0  0  0  0  0  0  0
  -16.7475   12.2288  -21.6665 C   0  0  0  0  0  0  0  0  0  0  0  0
  -15.4470   11.2604  -22.3882 Cl  0  0  0  0  0  0  0  0  0  0  0  0
  -18.8007   12.2020  -18.5073 C   0  0  0  0  0  0  0  0  0  0  0  0
  -18.1443   12.8722  -17.4771 F   0  0  0  0  0  0  0  0  0  0  0  0
  -18.7694   10.8582  -18.3340 F   0  0  0  0  0  0  0  0  0  0  0  0
  -20.1327   12.6058  -18.3379 F   0  0  0  0  0  0  0  0  0  0  0  0
  -17.5635   14.8163  -24.2796 C   0  0  0  0  0  0  0  0  0  0  0  0
  -16.6291   13.7517  -23.6134 C   0  0  0  0  0  0  0  0  0  0  0  0
  -15.3103   14.4194  -23.4441 C   0  0  0  0  0  0  0  0  0  0  0  0
  -16.5207   12.6558  -24.5475 N   0  0  0  0  0  0  0  0  0  0  0  0
  -17.1331   12.6888  -25.5892 N   0  0  0  0  0  0  0  0  0  0  0  0
  -17.4105   12.1206  -26.6950 N   0  0  0  0  0  0  0  0  0  0  0  0
 12 13  1  0  0  0
 13 14  1  0  0  0
 13 15  1  0  0  0
 15 16  2  0  0  0
 16 17  2  0  0  0
 13  1  1  0  0  0
  1  2  2  0  0  0
  2  3  1  0  0  0
  3  4  2  0  0  0
  4  8  1  0  0  0
  8  9  1  0  0  0
  8 10  1  0  0  0
  8 11  1  0  0  0
  4  5  1  0  0  0
  5  6  2  0  0  0
  6  7  1  0  0  0
  6  1  1  0  0  0
M  CHG 1  16   1
M  CHG 1  17  -1
M  END
> <minimizedAffinity>
-7.05797

> <CNNscore>
0.4611321688

> <CNNaffinity>
5.4261193275

> <CNN_VS>
2.5021581650

> <CNNaffinity_variance>
0.3062666059

$$$$
[H]c1c([H])c(C(N=[N+]=[N-])(C([H])([H])[H])C([H])([H])[H])c(Cl)c([H])c1C(F)(F)F


 17 17  0  0  0  0  0  0  0  0999 V2000
  -17.0579   13.5571  -22.7881 C   0  0  0  0  0  0  0  0  0  0  0  0
  -16.2636   12.3912  -22.7589 C   0  0  0  0  0  0  0  0  0  0  0  0
  -16.4197   11.6237  -21.6391 C   0  0  0  0  0  0  0  0  0  0  0  0
  -17.2140   11.8617  -20.5769 C   0  0  0  0  0  0  0  0  0  0  0  0
  -18.0019   13.0393  -20.6170 C   0  0  0  0  0  0  0  0  0  0  0  0
  -17.9023   13.8684  -21.7417 C   0  0  0  0  0  0  0  0  0  0  0  0
  -18.8683   15.3567  -21.7779 Cl  0  0  0  0  0  0  0  0  0  0  0  0
  -17.3577   10.9703  -19.3962 C   0  0  0  0  0  0  0  0  0  0  0  0
  -17.1934    9.6257  -19.7221 F   0  0  0  0  0  0  0  0  0  0  0  0
  -18.5203   11.1897  -18.7351 F   0  0  0  0  0  0  0  0  0  0  0  0
  -16.3183   11.1951  -18.4824 F   0  0  0  0  0  0  0  0  0  0  0  0
  -15.9455   13.8921  -24.9683 C   0  0  0  0  0  0  0  0  0  0  0  0
  -17.0620   14.4155  -24.0041 C   0  0  0  0  0  0  0  0  0  0  0  0
  -18.3281   14.3627  -24.7839 C   0  0  0  0  0  0  0  0  0  0  0  0
  -16.7249   15.7832  -23.6865 N   0  0  0  0  0  0  0  0  0  0  0  0
  -17.0665   16.6758  -24.4267 N   0  0  0  0  0  0  0  0  0  0  0  0
  -17.0915   17.9264  -24.6676 N   0  0  0  0  0  0  0  0  0  0  0  0
 12 13  1  0  0  0
 13 14  1  0  0  0
 13 15  1  0  0  0
 15 16  2  0  0  0
 16 17  2  0  0  0
 13  1  1  0  0  0
  1  2  2  0  0  0
  2  3  1  0  0  0
  3  4  2  0  0  0
  4  8  1  0  0  0
  8  9  1  0  0  0
  8 10  1  0  0  0
  8 11  1  0  0  0
  4  5  1  0  0  0
  5  6  2  0  0  0
  6  7  1  0  0  0
  6  1  1  0  0  0
M  CHG 1  16   1
M  CHG 1  17  -1
M  END
> <minimizedAffinity>
-6.83941

> <CNNscore>
0.4186167717

> <CNNaffinity>
5.2701082230

> <CNN_VS>
2.2061557770

> <CNNaffinity_variance>
0.3164612651

$$$$
[H]c1c([H])c(C(N=[N+]=[N-])(C([H])([H])[H])C([H])([H])[H])c(Cl)c([H])c1C(F)(F)F


 17 17  0  0  0  0  0  0  0  0999 V2000
  -16.4056   14.8767  -23.4542 C   0  0  0  0  0  0  0  0  0  0  0  0
  -16.4119   15.6258  -22.2583 C   0  0  0  0  0  0  0  0  0  0  0  0
  -16.9711   14.9855  -21.1883 C   0  0  0  0  0  0  0  0  0  0  0  0
  -17.5213   13.7560  -21.1548 C   0  0  0  0  0  0  0  0  0  0  0  0
  -17.5134   13.0172  -22.3644 C   0  0  0  0  0  0  0  0  0  0  0  0
  -16.9441   13.6068  -23.5004 C   0  0  0  0  0  0  0  0  0  0  0  0
  -16.9601   12.6915  -25.0208 Cl  0  0  0  0  0  0  0  0  0  0  0  0
  -18.0926   13.1044  -19.9472 C   0  0  0  0  0  0  0  0  0  0  0  0
  -18.3925   14.0201  -18.9407 F   0  0  0  0  0  0  0  0  0  0  0  0
  -17.3051   12.0987  -19.4945 F   0  0  0  0  0  0  0  0  0  0  0  0
  -19.3450   12.5449  -20.2377 F   0  0  0  0  0  0  0  0  0  0  0  0
  -15.6153   16.9728  -24.4957 C   0  0  0  0  0  0  0  0  0  0  0  0
  -15.7228   15.4198  -24.6602 C   0  0  0  0  0  0  0  0  0  0  0  0
  -14.3281   14.9342  -24.8423 C   0  0  0  0  0  0  0  0  0  0  0  0
  -16.4965   15.1842  -25.8564 N   0  0  0  0  0  0  0  0  0  0  0  0
  -16.0471   15.4924  -26.9355 N   0  0  0  0  0  0  0  0  0  0  0  0
  -16.2044   15.5257  -28.1991 N   0  0  0  0  0  0  0  0  0  0  0  0
 12 13  1  0  0  0
 13 14  1  0  0  0
 13 15  1  0  0  0
 15 16  2  0  0  0
 16 17  2  0  0  0
 13  1  1  0  0  0
  1  2  2  0  0  0
  2  3  1  0  0  0
  3  4  2  0  0  0
  4  8  1  0  0  0
  8  9  1  0  0  0
  8 10  1  0  0  0
  8 11  1  0  0  0
  4  5  1  0  0  0
  5  6  2  0  0  0
  6  7  1  0  0  0
  6  1  1  0  0  0
M  CHG 1  16   1
M  CHG 1  17  -1
M  END
> <minimizedAffinity>
-6.66981

> <CNNscore>
0.4092162848

> <CNNaffinity>
5.2294821739

> <CNN_VS>
2.1399893761

> <CNNaffinity_variance>
0.4696708322

$$$$
[H]c1c([H])c(C(N=[N+]=[N-])(C([H])([H])[H])C([H])([H])[H])c(Cl)c([H])c1C(F)(F)F


 17 17  0  0  0  0  0  0  0  0999 V2000
  -16.8528   13.5628  -22.4226 C   0  0  0  0  0  0  0  0  0  0  0  0
  -17.0958   12.1914  -22.1955 C   0  0  0  0  0  0  0  0  0  0  0  0
  -17.6488   11.9048  -20.9792 C   0  0  0  0  0  0  0  0  0  0  0  0
  -17.9616   12.7639  -19.9894 C   0  0  0  0  0  0  0  0  0  0  0  0
  -17.7068   14.1375  -20.2287 C   0  0  0  0  0  0  0  0  0  0  0  0
  -17.1517   14.5063  -21.4608 C   0  0  0  0  0  0  0  0  0  0  0  0
  -16.8074   16.2235  -21.7480 Cl  0  0  0  0  0  0  0  0  0  0  0  0
  -18.5869   12.3893  -18.6940 C   0  0  0  0  0  0  0  0  0  0  0  0
  -18.0076   13.0505  -17.6131 F   0  0  0  0  0  0  0  0  0  0  0  0
  -18.6065   11.0466  -18.5112 F   0  0  0  0  0  0  0  0  0  0  0  0
  -19.9177   12.8285  -18.6465 F   0  0  0  0  0  0  0  0  0  0  0  0
  -17.4175   14.9977  -24.3526 C   0  0  0  0  0  0  0  0  0  0  0  0
  -16.3588   14.0132  -23.7524 C   0  0  0  0  0  0  0  0  0  0  0  0
  -15.0808   14.7736  -23.7030 C   0  0  0  0  0  0  0  0  0  0  0  0
  -16.2508   12.9097  -24.6775 N   0  0  0  0  0  0  0  0  0  0  0  0
  -17.0410   12.8052  -25.5863 N   0  0  0  0  0  0  0  0  0  0  0  0
  -17.4225   12.1562  -26.6138 N   0  0  0  0  0  0  0  0  0  0  0  0
 12 13  1  0  0  0
 13 14  1  0  0  0
 13 15  1  0  0  0
 15 16  2  0  0  0
 16 17  2  0  0  0
 13  1  1  0  0  0
  1  2  2  0  0  0
  2  3  1  0  0  0
  3  4  2  0  0  0
  4  8  1  0  0  0
  8  9  1  0  0  0
  8 10  1  0  0  0
  8 11  1  0  0  0
  4  5  1  0  0  0
  5  6  2  0  0  0
  6  7  1  0  0  0
  6  1  1  0  0  0
M  CHG 1  16   1
M  CHG 1  17  -1
M  END
> <minimizedAffinity>
-7.24756

> <CNNscore>
0.4032513499

> <CNNaffinity>
5.4031558037

> <CNN_VS>
2.1788299084

> <CNNaffinity_variance>
0.3104649484

$$$$
[H]c1c([H])c(C(N=[N+]=[N-])(C([H])([H])[H])C([H])([H])[H])c(Cl)c([H])c1C(F)(F)F


 17 17  0  0  0  0  0  0  0  0999 V2000
  -17.1655   14.4437  -23.1529 C   0  0  0  0  0  0  0  0  0  0  0  0
  -17.9880   15.5902  -23.1371 C   0  0  0  0  0  0  0  0  0  0  0  0
  -18.8704   15.6438  -22.0951 C   0  0  0  0  0  0  0  0  0  0  0  0
  -19.0510   14.7355  -21.1163 C   0  0  0  0  0  0  0  0  0  0  0  0
  -18.2223   13.5861  -21.1477 C   0  0  0  0  0  0  0  0  0  0  0  0
  -17.2844   13.4702  -22.1818 C   0  0  0  0  0  0  0  0  0  0  0  0
  -16.2668   12.0172  -22.2356 Cl  0  0  0  0  0  0  0  0  0  0  0  0
  -20.0149   14.8657  -19.9923 C   0  0  0  0  0  0  0  0  0  0  0  0
  -20.1761   13.6736  -19.2893 F   0  0  0  0  0  0  0  0  0  0  0  0
  -21.2030   15.3737  -20.4009 F   0  0  0  0  0  0  0  0  0  0  0  0
  -19.5127   15.7350  -19.0135 F   0  0  0  0  0  0  0  0  0  0  0  0
  -16.3111   15.4422  -25.2447 C   0  0  0  0  0  0  0  0  0  0  0  0
  -16.0873   14.3243  -24.1720 C   0  0  0  0  0  0  0  0  0  0  0  0
  -14.7160   14.5440  -23.6380 C   0  0  0  0  0  0  0  0  0  0  0  0
  -16.1577   13.0624  -24.8704 N   0  0  0  0  0  0  0  0  0  0  0  0
  -16.9953   12.8925  -25.7254 N   0  0  0  0  0  0  0  0  0  0  0  0
  -17.4999   12.1172  -26.6011 N   0  0  0  0  0  0  0  0  0  0  0  0
 12 13  1  0  0  0
 13 14  1  0  0  0
 13 15  1  0  0  0
 15 16  2  0  0  0
 16 17  2  0  0  0
 13  1  1  0  0  0
  1  2  2  0  0  0
  2  3  1  0  0  0
  3  4  2  0  0  0
  4  8  1  0  0  0
  8  9  1  0  0  0
  8 10  1  0  0  0
  8 11  1  0  0  0
  4  5  1  0  0  0
  5  6  2  0  0  0
  6  7  1  0  0  0
  6  1  1  0  0  0
M  CHG 1  16   1
M  CHG 1  17  -1
M  END
> <minimizedAffinity>
-6.41532

> <CNNscore>
0.3865498304

> <CNNaffinity>
5.3255100250

> <CNN_VS>
2.0585749149

> <CNNaffinity_variance>
0.3672583699

$$$$
[H]c1c([H])c(C(N=[N+]=[N-])(C([H])([H])[H])C([H])([H])[H])c(Cl)c([H])c1C(F)(F)F


 17 17  0  0  0  0  0  0  0  0999 V2000
  -17.8301   14.0162  -22.1149 C   0  0  0  0  0  0  0  0  0  0  0  0
  -18.4921   14.0400  -20.8689 C   0  0  0  0  0  0  0  0  0  0  0  0
  -18.2295   12.9674  -20.0640 C   0  0  0  0  0  0  0  0  0  0  0  0
  -17.4433   11.9060  -20.3301 C   0  0  0  0  0  0  0  0  0  0  0  0
  -16.7892   11.8922  -21.5875 C   0  0  0  0  0  0  0  0  0  0  0  0
  -17.0024   12.9671  -22.4600 C   0  0  0  0  0  0  0  0  0  0  0  0
  -16.2048   12.9348  -24.0452 Cl  0  0  0  0  0  0  0  0  0  0  0  0
  -17.1783   10.7793  -19.3975 C   0  0  0  0  0  0  0  0  0  0  0  0
  -16.7572    9.6283  -20.0602 F   0  0  0  0  0  0  0  0  0  0  0  0
  -18.2360   10.5346  -18.5862 F   0  0  0  0  0  0  0  0  0  0  0  0
  -16.0864   11.0747  -18.5690 F   0  0  0  0  0  0  0  0  0  0  0  0
  -16.5467   15.8818  -23.1024 C   0  0  0  0  0  0  0  0  0  0  0  0
  -17.9453   15.1822  -23.0328 C   0  0  0  0  0  0  0  0  0  0  0  0
  -18.2888   14.8229  -24.4353 C   0  0  0  0  0  0  0  0  0  0  0  0
  -18.8733   16.1649  -22.5248 N   0  0  0  0  0  0  0  0  0  0  0  0
  -19.3039   17.0236  -23.2588 N   0  0  0  0  0  0  0  0  0  0  0  0
  -20.0639   18.0353  -23.4047 N   0  0  0  0  0  0  0  0  0  0  0  0
 12 13  1  0  0  0
 13 14  1  0  0  0
 13 15  1  0  0  0
 15 16  2  0  0  0
 16 17  2  0  0  0
 13  1  1  0  0  0
  1  2  2  0  0  0
  2  3  1  0  0  0
  3  4  2  0  0  0
  4  8  1  0  0  0
  8  9  1  0  0  0
  8 10  1  0  0  0
  8 11  1  0  0  0
  4  5  1  0  0  0
  5  6  2  0  0  0
  6  7  1  0  0  0
  6  1  1  0  0  0
M  CHG 1  16   1
M  CHG 1  17  -1
M  END
> <minimizedAffinity>
-6.69763

> <CNNscore>
0.3746006489

> <CNNaffinity>
5.1838731766

> <CNN_VS>
1.9418822527

> <CNNaffinity_variance>
0.3041603267

$$$$
[H]c1c([H])c(C(N=[N+]=[N-])(C([H])([H])[H])C([H])([H])[H])c(Cl)c([H])c1C(F)(F)F


 17 17  0  0  0  0  0  0  0  0999 V2000
  -19.6351   11.1861  -16.7950 C   0  0  0  0  0  0  0  0  0  0  0  0
  -19.3199   12.3207  -17.5727 C   0  0  0  0  0  0  0  0  0  0  0  0
  -18.4304   12.0888  -18.5838 C   0  0  0  0  0  0  0  0  0  0  0  0
  -17.8209   10.9294  -18.9000 C   0  0  0  0  0  0  0  0  0  0  0  0
  -18.1422    9.7994  -18.1070 C   0  0  0  0  0  0  0  0  0  0  0  0
  -19.0579    9.9606  -17.0592 C   0  0  0  0  0  0  0  0  0  0  0  0
  -19.4378    8.5513  -16.0497 Cl  0  0  0  0  0  0  0  0  0  0  0  0
  -16.8782   10.7369  -20.0330 C   0  0  0  0  0  0  0  0  0  0  0  0
  -16.7950   11.8608  -20.8522 F   0  0  0  0  0  0  0  0  0  0  0  0
  -17.1611    9.6170  -20.7419 F   0  0  0  0  0  0  0  0  0  0  0  0
  -15.5649   10.6019  -19.5609 F   0  0  0  0  0  0  0  0  0  0  0  0
  -21.2611   12.7365  -15.7679 C   0  0  0  0  0  0  0  0  0  0  0  0
  -20.6768   11.2847  -15.7364 C   0  0  0  0  0  0  0  0  0  0  0  0
  -21.8381   10.3762  -15.9368 C   0  0  0  0  0  0  0  0  0  0  0  0
  -20.1127   11.0954  -14.4207 N   0  0  0  0  0  0  0  0  0  0  0  0
  -20.7548   11.3936  -13.4409 N   0  0  0  0  0  0  0  0  0  0  0  0
  -20.8202   11.4461  -12.1699 N   0  0  0  0  0  0  0  0  0  0  0  0
 12 13  1  0  0  0
 13 14  1  0  0  0
 13 15  1  0  0  0
 15 16  2  0  0  0
 16 17  2  0  0  0
 13  1  1  0  0  0
  1  2  2  0  0  0
  2  3  1  0  0  0
  3  4  2  0  0  0
  4  8  1  0  0  0
  8  9  1  0  0  0
  8 10  1  0  0  0
  8 11  1  0  0  0
  4  5  1  0  0  0
  5  6  2  0  0  0
  6  7  1  0  0  0
  6  1  1  0  0  0
M  CHG 1  16   1
M  CHG 1  17  -1
M  END
> <minimizedAffinity>
-6.20423

> <CNNscore>
0.3741962612

> <CNNaffinity>
4.4307007790

> <CNN_VS>
1.6579517126

> <CNNaffinity_variance>
0.3713503480

$$$$
[H]c1c([H])c(C(N=[N+]=[N-])(C([H])([H])[H])C([H])([H])[H])c(Cl)c([H])c1C(F)(F)F


 17 17  0  0  0  0  0  0  0  0999 V2000
  -18.0699   13.5829  -21.7663 C   0  0  0  0  0  0  0  0  0  0  0  0
  -17.2862   12.6424  -22.4683 C   0  0  0  0  0  0  0  0  0  0  0  0
  -16.8292   13.0743  -23.6815 C   0  0  0  0  0  0  0  0  0  0  0  0
  -17.0551   14.2624  -24.2756 C   0  0  0  0  0  0  0  0  0  0  0  0
  -17.8486   15.1952  -23.5620 C   0  0  0  0  0  0  0  0  0  0  0  0
  -18.3413   14.8246  -22.3042 C   0  0  0  0  0  0  0  0  0  0  0  0
  -19.3579   15.9831  -21.4242 Cl  0  0  0  0  0  0  0  0  0  0  0  0
  -16.5057   14.6818  -25.5916 C   0  0  0  0  0  0  0  0  0  0  0  0
  -15.1505   14.3851  -25.7209 F   0  0  0  0  0  0  0  0  0  0  0  0
  -16.7628   15.9862  -25.8547 F   0  0  0  0  0  0  0  0  0  0  0  0
  -17.0850   13.9334  -26.6261 F   0  0  0  0  0  0  0  0  0  0  0  0
  -17.8756   14.3116  -19.4139 C   0  0  0  0  0  0  0  0  0  0  0  0
  -18.5308   13.2736  -20.3853 C   0  0  0  0  0  0  0  0  0  0  0  0
  -19.9997   13.4058  -20.1884 C   0  0  0  0  0  0  0  0  0  0  0  0
  -18.0825   11.9690  -19.9584 N   0  0  0  0  0  0  0  0  0  0  0  0
  -17.0776   11.8642  -19.2947 N   0  0  0  0  0  0  0  0  0  0  0  0
  -16.2716   11.0988  -18.6726 N   0  0  0  0  0  0  0  0  0  0  0  0
 12 13  1  0  0  0
 13 14  1  0  0  0
 13 15  1  0  0  0
 15 16  2  0  0  0
 16 17  2  0  0  0
 13  1  1  0  0  0
  1  2  2  0  0  0
  2  3  1  0  0  0
  3  4  2  0  0  0
  4  8  1  0  0  0
  8  9  1  0  0  0
  8 10  1  0  0  0
  8 11  1  0  0  0
  4  5  1  0  0  0
  5  6  2  0  0  0
  6  7  1  0  0  0
  6  1  1  0  0  0
M  CHG 1  16   1
M  CHG 1  17  -1
M  END
> <minimizedAffinity>
-6.23265

> <CNNscore>
0.3732604980

> <CNNaffinity>
5.1917643547

> <CNN_VS>
1.9378805161

> <CNNaffinity_variance>
0.5963269472

$$$$
[H]c1c([H])c(C([H])([H])OC([H])([H])C2([H])C([H])([H])C([H])([H])N(C([H])([H])C([H])([H])C([H])([H])C([H])([H])C([H])([H])[H])C([H])([H])C2([H])[H])c([H])c([H])c1F


 21 22  0  0  0  0  0  0  0  0999 V2000
  -17.7560   16.6328  -22.9273 N   0  0  0  0  0  0  0  0  0  0  0  0
  -18.8603   16.7841  -23.7909 C   0  0  0  0  0  0  0  0  0  0  0  0
  -19.9406   17.7011  -23.3628 C   0  0  0  0  0  0  0  0  0  0  0  0
  -20.3735   17.2776  -21.9643 C   0  0  0  0  0  0  0  0  0  0  0  0
  -19.1592   17.5185  -21.0943 C   0  0  0  0  0  0  0  0  0  0  0  0
  -17.9295   16.8342  -21.5497 C   0  0  0  0  0  0  0  0  0  0  0  0
  -17.0646   15.4181  -23.2748 C   0  0  0  0  0  0  0  0  0  0  0  0
  -17.9125   14.3863  -23.9285 C   0  0  0  0  0  0  0  0  0  0  0  0
  -17.0929   13.2447  -24.4742 C   0  0  0  0  0  0  0  0  0  0  0  0
  -17.2158   13.1964  -26.9224 C   0  0  0  0  0  0  0  0  0  0  0  0
  -17.7590   12.5852  -25.6543 C   0  0  0  0  0  0  0  0  0  0  0  0
  -21.4979   18.1477  -21.4548 C   0  0  0  0  0  0  0  0  0  0  0  0
  -22.7262   17.5533  -21.7502 O   0  0  0  0  0  0  0  0  0  0  0  0
  -23.6224   18.5256  -22.1859 C   0  0  0  0  0  0  0  0  0  0  0  0
  -23.6240   18.5236  -23.6810 C   0  0  0  0  0  0  0  0  0  0  0  0
  -23.4711   17.3487  -24.3946 C   0  0  0  0  0  0  0  0  0  0  0  0
  -23.4690   17.3200  -25.7742 C   0  0  0  0  0  0  0  0  0  0  0  0
  -23.6222   18.4837  -26.4995 C   0  0  0  0  0  0  0  0  0  0  0  0
  -23.6236   18.4826  -27.8649 F   0  0  0  0  0  0  0  0  0  0  0  0
  -23.7749   19.6585  -25.7939 C   0  0  0  0  0  0  0  0  0  0  0  0
  -23.7772   19.6892  -24.4024 C   0  0  0  0  0  0  0  0  0  0  0  0
 10 11  1  0  0  0
 11  9  1  0  0  0
  9  8  1  0  0  0
  8  7  1  0  0  0
  7  1  1  0  0  0
  1  2  1  0  0  0
  2  3  1  0  0  0
  3  4  1  0  0  0
  4 12  1  0  0  0
 12 13  1  0  0  0
 13 14  1  0  0  0
 14 15  1  0  0  0
 15 16  2  0  0  0
 16 17  1  0  0  0
 17 18  2  0  0  0
 18 19  1  0  0  0
 18 20  1  0  0  0
 20 21  2  0  0  0
  4  5  1  0  0  0
  5  6  1  0  0  0
  6  1  1  0  0  0
 21 15  1  0  0  0
M  END
> <minimizedAffinity>
-5.83302

> <CNNscore>
0.5024515986

> <CNNaffinity>
5.2913122177

> <CNN_VS>
2.6586282253

> <CNNaffinity_variance>
0.1872511208

$$$$
[H]c1c([H])c(C([H])([H])OC([H])([H])C2([H])C([H])([H])C([H])([H])N(C([H])([H])C([H])([H])C([H])([H])C([H])([H])C([H])([H])[H])C([H])([H])C2([H])[H])c([H])c([H])c1F


 21 22  0  0  0  0  0  0  0  0999 V2000
  -18.1473   15.6431  -20.9671 N   0  0  0  0  0  0  0  0  0  0  0  0
  -18.8133   16.1328  -22.1094 C   0  0  0  0  0  0  0  0  0  0  0  0
  -19.9219   17.0899  -21.8949 C   0  0  0  0  0  0  0  0  0  0  0  0
  -20.8923   16.4528  -20.9074 C   0  0  0  0  0  0  0  0  0  0  0  0
  -20.1061   16.3247  -19.6210 C   0  0  0  0  0  0  0  0  0  0  0  0
  -18.8365   15.5762  -19.7469 C   0  0  0  0  0  0  0  0  0  0  0  0
  -17.4438   14.4389  -21.3268 C   0  0  0  0  0  0  0  0  0  0  0  0
  -18.0471   13.1863  -20.7996 C   0  0  0  0  0  0  0  0  0  0  0  0
  -17.4716   11.9601  -21.4615 C   0  0  0  0  0  0  0  0  0  0  0  0
  -15.7752   10.2804  -20.9031 C   0  0  0  0  0  0  0  0  0  0  0  0
  -17.0707   10.9115  -20.4560 C   0  0  0  0  0  0  0  0  0  0  0  0
  -22.0761   17.3541  -20.6479 C   0  0  0  0  0  0  0  0  0  0  0  0
  -23.0220   17.1953  -21.6625 O   0  0  0  0  0  0  0  0  0  0  0  0
  -23.4947   18.4433  -22.0593 C   0  0  0  0  0  0  0  0  0  0  0  0
  -23.5591   18.4657  -23.5529 C   0  0  0  0  0  0  0  0  0  0  0  0
  -23.8498   19.6311  -24.2387 C   0  0  0  0  0  0  0  0  0  0  0  0
  -23.9152   19.6782  -25.6162 C   0  0  0  0  0  0  0  0  0  0  0  0
  -23.6885   18.5435  -26.3676 C   0  0  0  0  0  0  0  0  0  0  0  0
  -23.7473   18.5632  -27.7316 F   0  0  0  0  0  0  0  0  0  0  0  0
  -23.3983   17.3782  -25.6899 C   0  0  0  0  0  0  0  0  0  0  0  0
  -23.3319   17.3291  -24.3005 C   0  0  0  0  0  0  0  0  0  0  0  0
 10 11  1  0  0  0
 11  9  1  0  0  0
  9  8  1  0  0  0
  8  7  1  0  0  0
  7  1  1  0  0  0
  1  2  1  0  0  0
  2  3  1  0  0  0
  3  4  1  0  0  0
  4 12  1  0  0  0
 12 13  1  0  0  0
 13 14  1  0  0  0
 14 15  1  0  0  0
 15 16  2  0  0  0
 16 17  1  0  0  0
 17 18  2  0  0  0
 18 19  1  0  0  0
 18 20  1  0  0  0
 20 21  2  0  0  0
  4  5  1  0  0  0
  5  6  1  0  0  0
  6  1  1  0  0  0
 21 15  1  0  0  0
M  END
> <minimizedAffinity>
-5.97354

> <CNNscore>
0.4987144768

> <CNNaffinity>
5.1541380882

> <CNN_VS>
2.5704433918

> <CNNaffinity_variance>
0.2817835212

$$$$
[H]c1c([H])c(C([H])([H])OC([H])([H])C2([H])C([H])([H])C([H])([H])N(C([H])([H])C([H])([H])C([H])([H])C([H])([H])C([H])([H])[H])C([H])([H])C2([H])[H])c([H])c([H])c1F


 21 22  0  0  0  0  0  0  0  0999 V2000
  -16.8059   17.3295  -23.4720 N   0  0  0  0  0  0  0  0  0  0  0  0
  -18.1248   17.0539  -23.8876 C   0  0  0  0  0  0  0  0  0  0  0  0
  -19.1563   16.9132  -22.8353 C   0  0  0  0  0  0  0  0  0  0  0  0
  -18.6531   15.8783  -21.8362 C   0  0  0  0  0  0  0  0  0  0  0  0
  -17.4173   16.5010  -21.2242 C   0  0  0  0  0  0  0  0  0  0  0  0
  -16.3848   16.9093  -22.2014 C   0  0  0  0  0  0  0  0  0  0  0  0
  -15.9065   16.9923  -24.5452 C   0  0  0  0  0  0  0  0  0  0  0  0
  -15.1819   15.7062  -24.3672 C   0  0  0  0  0  0  0  0  0  0  0  0
  -15.2854   14.8261  -25.5869 C   0  0  0  0  0  0  0  0  0  0  0  0
  -16.0898   15.2649  -27.8610 C   0  0  0  0  0  0  0  0  0  0  0  0
  -15.0101   15.5881  -26.8577 C   0  0  0  0  0  0  0  0  0  0  0  0
  -19.6602   15.6497  -20.7341 C   0  0  0  0  0  0  0  0  0  0  0  0
  -19.8792   14.2805  -20.5709 O   0  0  0  0  0  0  0  0  0  0  0  0
  -19.3120   13.8568  -19.3721 C   0  0  0  0  0  0  0  0  0  0  0  0
  -18.3897   12.7179  -19.6680 C   0  0  0  0  0  0  0  0  0  0  0  0
  -17.7818   12.0068  -18.6492 C   0  0  0  0  0  0  0  0  0  0  0  0
  -16.9269   10.9521  -18.8956 C   0  0  0  0  0  0  0  0  0  0  0  0
  -16.6457   10.5658  -20.1900 C   0  0  0  0  0  0  0  0  0  0  0  0
  -15.8034    9.5258  -20.4609 F   0  0  0  0  0  0  0  0  0  0  0  0
  -17.2485   11.2707  -21.2103 C   0  0  0  0  0  0  0  0  0  0  0  0
  -18.1111   12.3348  -20.9634 C   0  0  0  0  0  0  0  0  0  0  0  0
 10 11  1  0  0  0
 11  9  1  0  0  0
  9  8  1  0  0  0
  8  7  1  0  0  0
  7  1  1  0  0  0
  1  2  1  0  0  0
  2  3  1  0  0  0
  3  4  1  0  0  0
  4 12  1  0  0  0
 12 13  1  0  0  0
 13 14  1  0  0  0
 14 15  1  0  0  0
 15 16  2  0  0  0
 16 17  1  0  0  0
 17 18  2  0  0  0
 18 19  1  0  0  0
 18 20  1  0  0  0
 20 21  2  0  0  0
  4  5  1  0  0  0
  5  6  1  0  0  0
  6  1  1  0  0  0
 21 15  1  0  0  0
M  END
> <minimizedAffinity>
-6.63236

> <CNNscore>
0.4497228563

> <CNNaffinity>
5.5597052574

> <CNN_VS>
2.5003266335

> <CNNaffinity_variance>
0.6284433007

$$$$
[H]c1c([H])c(C([H])([H])OC([H])([H])C2([H])C([H])([H])C([H])([H])N(C([H])([H])C([H])([H])C([H])([H])C([H])([H])C([H])([H])[H])C([H])([H])C2([H])[H])c([H])c([H])c1F


 21 22  0  0  0  0  0  0  0  0999 V2000
  -16.4810   17.0324  -23.7149 N   0  0  0  0  0  0  0  0  0  0  0  0
  -17.7676   16.7159  -24.1974 C   0  0  0  0  0  0  0  0  0  0  0  0
  -18.8846   16.7371  -23.2264 C   0  0  0  0  0  0  0  0  0  0  0  0
  -18.4888   15.8481  -22.0535 C   0  0  0  0  0  0  0  0  0  0  0  0
  -17.2931   16.5369  -21.4328 C   0  0  0  0  0  0  0  0  0  0  0  0
  -16.1750   16.7912  -22.3671 C   0  0  0  0  0  0  0  0  0  0  0  0
  -15.5050   16.5366  -24.6508 C   0  0  0  0  0  0  0  0  0  0  0  0
  -14.7420   15.3496  -24.1819 C   0  0  0  0  0  0  0  0  0  0  0  0
  -15.1710   14.0880  -24.8869 C   0  0  0  0  0  0  0  0  0  0  0  0
  -17.4107   13.1065  -25.0635 C   0  0  0  0  0  0  0  0  0  0  0  0
  -16.2516   13.3586  -24.1310 C   0  0  0  0  0  0  0  0  0  0  0  0
  -19.5877   15.7892  -21.0190 C   0  0  0  0  0  0  0  0  0  0  0  0
  -19.7701   14.4704  -20.5984 O   0  0  0  0  0  0  0  0  0  0  0  0
  -19.0035   14.2334  -19.4605 C   0  0  0  0  0  0  0  0  0  0  0  0
  -18.2739   12.9421  -19.6489 C   0  0  0  0  0  0  0  0  0  0  0  0
  -17.7077   12.6118  -20.8669 C   0  0  0  0  0  0  0  0  0  0  0  0
  -17.0295   11.4268  -21.0666 C   0  0  0  0  0  0  0  0  0  0  0  0
  -16.8918   10.5165  -20.0390 C   0  0  0  0  0  0  0  0  0  0  0  0
  -16.2257    9.3370  -20.2105 F   0  0  0  0  0  0  0  0  0  0  0  0
  -17.4542   10.8397  -18.8222 C   0  0  0  0  0  0  0  0  0  0  0  0
  -18.1386   12.0346  -18.6191 C   0  0  0  0  0  0  0  0  0  0  0  0
 10 11  1  0  0  0
 11  9  1  0  0  0
  9  8  1  0  0  0
  8  7  1  0  0  0
  7  1  1  0  0  0
  1  2  1  0  0  0
  2  3  1  0  0  0
  3  4  1  0  0  0
  4 12  1  0  0  0
 12 13  1  0  0  0
 13 14  1  0  0  0
 14 15  1  0  0  0
 15 16  2  0  0  0
 16 17  1  0  0  0
 17 18  2  0  0  0
 18 19  1  0  0  0
 18 20  1  0  0  0
 20 21  2  0  0  0
  4  5  1  0  0  0
  5  6  1  0  0  0
  6  1  1  0  0  0
 21 15  1  0  0  0
M  END
> <minimizedAffinity>
-6.56956

> <CNNscore>
0.3873144984

> <CNNaffinity>
5.5969824791

> <CNN_VS>
2.1677925587

> <CNNaffinity_variance>
0.4775253236

$$$$
[H]c1c([H])c(C([H])([H])OC([H])([H])C2([H])C([H])([H])C([H])([H])N(C([H])([H])C([H])([H])C([H])([H])C([H])([H])C([H])([H])[H])C([H])([H])C2([H])[H])c([H])c([H])c1F


 21 22  0  0  0  0  0  0  0  0999 V2000
  -19.4045   16.9639  -20.1284 N   0  0  0  0  0  0  0  0  0  0  0  0
  -19.5912   16.0482  -21.1844 C   0  0  0  0  0  0  0  0  0  0  0  0
  -18.4329   15.2144  -21.5771 C   0  0  0  0  0  0  0  0  0  0  0  0
  -17.2630   16.1533  -21.8463 C   0  0  0  0  0  0  0  0  0  0  0  0
  -16.9673   16.7957  -20.5086 C   0  0  0  0  0  0  0  0  0  0  0  0
  -18.1219   17.4769  -19.8836 C   0  0  0  0  0  0  0  0  0  0  0  0
  -20.4467   17.9559  -20.1915 C   0  0  0  0  0  0  0  0  0  0  0  0
  -21.7023   17.4970  -20.8426 C   0  0  0  0  0  0  0  0  0  0  0  0
  -22.2365   18.5138  -21.8189 C   0  0  0  0  0  0  0  0  0  0  0  0
  -24.1881   18.2638  -20.3561 C   0  0  0  0  0  0  0  0  0  0  0  0
  -23.7375   18.6293  -21.7489 C   0  0  0  0  0  0  0  0  0  0  0  0
  -16.0371   15.3860  -22.2815 C   0  0  0  0  0  0  0  0  0  0  0  0
  -16.4132   14.1353  -22.7750 O   0  0  0  0  0  0  0  0  0  0  0  0
  -15.3904   13.6188  -23.5659 C   0  0  0  0  0  0  0  0  0  0  0  0
  -15.5079   14.2164  -24.9312 C   0  0  0  0  0  0  0  0  0  0  0  0
  -14.5326   15.0622  -25.4280 C   0  0  0  0  0  0  0  0  0  0  0  0
  -14.6175   15.6265  -26.6843 C   0  0  0  0  0  0  0  0  0  0  0  0
  -15.6977   15.3605  -27.5004 C   0  0  0  0  0  0  0  0  0  0  0  0
  -15.8057   15.9061  -28.7475 F   0  0  0  0  0  0  0  0  0  0  0  0
  -16.6736   14.5181  -27.0111 C   0  0  0  0  0  0  0  0  0  0  0  0
  -16.5895   13.9481  -25.7440 C   0  0  0  0  0  0  0  0  0  0  0  0
 10 11  1  0  0  0
 11  9  1  0  0  0
  9  8  1  0  0  0
  8  7  1  0  0  0
  7  1  1  0  0  0
  1  2  1  0  0  0
  2  3  1  0  0  0
  3  4  1  0  0  0
  4 12  1  0  0  0
 12 13  1  0  0  0
 13 14  1  0  0  0
 14 15  1  0  0  0
 15 16  2  0  0  0
 16 17  1  0  0  0
 17 18  2  0  0  0
 18 19  1  0  0  0
 18 20  1  0  0  0
 20 21  2  0  0  0
  4  5  1  0  0  0
  5  6  1  0  0  0
  6  1  1  0  0  0
 21 15  1  0  0  0
M  END
> <minimizedAffinity>
-5.78219

> <CNNscore>
0.3844721317

> <CNNaffinity>
5.4126615524

> <CNN_VS>
2.0810174942

> <CNNaffinity_variance>
0.1508757770

$$$$
[H]c1c([H])c(C([H])([H])OC([H])([H])C2([H])C([H])([H])C([H])([H])N(C([H])([H])C([H])([H])C([H])([H])C([H])([H])C([H])([H])[H])C([H])([H])C2([H])[H])c([H])c([H])c1F


 21 22  0  0  0  0  0  0  0  0999 V2000
  -17.9110   17.2248  -22.3511 N   0  0  0  0  0  0  0  0  0  0  0  0
  -19.2329   16.7876  -22.1279 C   0  0  0  0  0  0  0  0  0  0  0  0
  -19.6589   16.5923  -20.7238 C   0  0  0  0  0  0  0  0  0  0  0  0
  -18.6419   15.6714  -20.0604 C   0  0  0  0  0  0  0  0  0  0  0  0
  -17.3473   16.4545  -20.0703 C   0  0  0  0  0  0  0  0  0  0  0  0
  -16.9187   16.9195  -21.4074 C   0  0  0  0  0  0  0  0  0  0  0  0
  -17.5542   16.9303  -23.7150 C   0  0  0  0  0  0  0  0  0  0  0  0
  -18.2759   15.7743  -24.3098 C   0  0  0  0  0  0  0  0  0  0  0  0
  -17.3281   14.7194  -24.8213 C   0  0  0  0  0  0  0  0  0  0  0  0
  -15.1739   13.8867  -23.9984 C   0  0  0  0  0  0  0  0  0  0  0  0
  -16.6499   13.9776  -23.6984 C   0  0  0  0  0  0  0  0  0  0  0  0
  -19.0136   15.3941  -18.6230 C   0  0  0  0  0  0  0  0  0  0  0  0
  -18.2614   14.3221  -18.1391 O   0  0  0  0  0  0  0  0  0  0  0  0
  -18.9302   13.1285  -18.3971 C   0  0  0  0  0  0  0  0  0  0  0  0
  -18.0209   12.2449  -19.1894 C   0  0  0  0  0  0  0  0  0  0  0  0
  -18.1400   12.1448  -20.5638 C   0  0  0  0  0  0  0  0  0  0  0  0
  -17.3137   11.3368  -21.3177 C   0  0  0  0  0  0  0  0  0  0  0  0
  -16.3239   10.5890  -20.7138 C   0  0  0  0  0  0  0  0  0  0  0  0
  -15.4932    9.7817  -21.4367 F   0  0  0  0  0  0  0  0  0  0  0  0
  -16.1999   10.6843  -19.3437 C   0  0  0  0  0  0  0  0  0  0  0  0
  -17.0327   11.4988  -18.5819 C   0  0  0  0  0  0  0  0  0  0  0  0
 10 11  1  0  0  0
 11  9  1  0  0  0
  9  8  1  0  0  0
  8  7  1  0  0  0
  7  1  1  0  0  0
  1  2  1  0  0  0
  2  3  1  0  0  0
  3  4  1  0  0  0
  4 12  1  0  0  0
 12 13  1  0  0  0
 13 14  1  0  0  0
 14 15  1  0  0  0
 15 16  2  0  0  0
 16 17  1  0  0  0
 17 18  2  0  0  0
 18 19  1  0  0  0
 18 20  1  0  0  0
 20 21  2  0  0  0
  4  5  1  0  0  0
  5  6  1  0  0  0
  6  1  1  0  0  0
 21 15  1  0  0  0
M  END
> <minimizedAffinity>
-6.08810

> <CNNscore>
0.3723953068

> <CNNaffinity>
5.4321599007

> <CNN_VS>
2.0229108334

> <CNNaffinity_variance>
0.6326634884

$$$$
[H]c1c([H])c(C([H])([H])OC([H])([H])C2([H])C([H])([H])C([H])([H])N(C([H])([H])C([H])([H])C([H])([H])C([H])([H])C([H])([H])[H])C([H])([H])C2([H])[H])c([H])c([H])c1F


 21 22  0  0  0  0  0  0  0  0999 V2000
  -17.4698   17.4731  -22.7521 N   0  0  0  0  0  0  0  0  0  0  0  0
  -18.5622   17.1474  -23.5820 C   0  0  0  0  0  0  0  0  0  0  0  0
  -19.8515   17.8211  -23.3084 C   0  0  0  0  0  0  0  0  0  0  0  0
  -20.1786   17.6033  -21.8359 C   0  0  0  0  0  0  0  0  0  0  0  0
  -19.0832   18.3286  -21.0853 C   0  0  0  0  0  0  0  0  0  0  0  0
  -17.7104   17.9073  -21.4398 C   0  0  0  0  0  0  0  0  0  0  0  0
  -16.4786   16.4348  -22.8694 C   0  0  0  0  0  0  0  0  0  0  0  0
  -16.9817   15.1579  -23.4417 C   0  0  0  0  0  0  0  0  0  0  0  0
  -16.8681   14.0169  -22.4629 C   0  0  0  0  0  0  0  0  0  0  0  0
  -18.8627   14.2136  -21.0509 C   0  0  0  0  0  0  0  0  0  0  0  0
  -17.3656   14.3973  -21.0922 C   0  0  0  0  0  0  0  0  0  0  0  0
  -21.4995   18.2384  -21.4711 C   0  0  0  0  0  0  0  0  0  0  0  0
  -22.5492   17.4156  -21.8838 O   0  0  0  0  0  0  0  0  0  0  0  0
  -23.6324   18.1998  -22.2711 C   0  0  0  0  0  0  0  0  0  0  0  0
  -23.6261   18.3020  -23.7627 C   0  0  0  0  0  0  0  0  0  0  0  0
  -23.8039   19.5183  -24.3968 C   0  0  0  0  0  0  0  0  0  0  0  0
  -23.8022   19.6394  -25.7714 C   0  0  0  0  0  0  0  0  0  0  0  0
  -23.6198   18.5307  -26.5722 C   0  0  0  0  0  0  0  0  0  0  0  0
  -23.6139   18.6234  -27.9344 F   0  0  0  0  0  0  0  0  0  0  0  0
  -23.4420   17.3151  -25.9461 C   0  0  0  0  0  0  0  0  0  0  0  0
  -23.4435   17.1913  -24.5597 C   0  0  0  0  0  0  0  0  0  0  0  0
 10 11  1  0  0  0
 11  9  1  0  0  0
  9  8  1  0  0  0
  8  7  1  0  0  0
  7  1  1  0  0  0
  1  2  1  0  0  0
  2  3  1  0  0  0
  3  4  1  0  0  0
  4 12  1  0  0  0
 12 13  1  0  0  0
 13 14  1  0  0  0
 14 15  1  0  0  0
 15 16  2  0  0  0
 16 17  1  0  0  0
 17 18  2  0  0  0
 18 19  1  0  0  0
 18 20  1  0  0  0
 20 21  2  0  0  0
  4  5  1  0  0  0
  5  6  1  0  0  0
  6  1  1  0  0  0
 21 15  1  0  0  0
M  END
> <minimizedAffinity>
-5.49472

> <CNNscore>
0.2928985059

> <CNNaffinity>
4.8858919144

> <CNN_VS>
1.4310704470

> <CNNaffinity_variance>
0.3491589129

$$$$
[H]c1c([H])c(C([H])([H])OC([H])([H])C2([H])C([H])([H])C([H])([H])N(C([H])([H])C([H])([H])C([H])([H])C([H])([H])C([H])([H])[H])C([H])([H])C2([H])[H])c([H])c([H])c1F


 21 22  0  0  0  0  0  0  0  0999 V2000
  -16.9063   16.1224  -25.6491 N   0  0  0  0  0  0  0  0  0  0  0  0
  -17.5755   15.0319  -25.0563 C   0  0  0  0  0  0  0  0  0  0  0  0
  -18.3862   15.3041  -23.8480 C   0  0  0  0  0  0  0  0  0  0  0  0
  -17.4903   16.0257  -22.8484 C   0  0  0  0  0  0  0  0  0  0  0  0
  -17.1522   17.3424  -23.5127 C   0  0  0  0  0  0  0  0  0  0  0  0
  -16.5378   17.2168  -24.8523 C   0  0  0  0  0  0  0  0  0  0  0  0
  -15.8565   15.6129  -26.4930 C   0  0  0  0  0  0  0  0  0  0  0  0
  -14.4794   15.9394  -26.0368 C   0  0  0  0  0  0  0  0  0  0  0  0
  -13.8045   14.7578  -25.3878 C   0  0  0  0  0  0  0  0  0  0  0  0
  -14.8145   13.3489  -23.6540 C   0  0  0  0  0  0  0  0  0  0  0  0
  -14.1224   14.6635  -23.9177 C   0  0  0  0  0  0  0  0  0  0  0  0
  -18.2318   16.3218  -21.5663 C   0  0  0  0  0  0  0  0  0  0  0  0
  -17.6942   15.5643  -20.5240 O   0  0  0  0  0  0  0  0  0  0  0  0
  -18.6417   14.6476  -20.0764 C   0  0  0  0  0  0  0  0  0  0  0  0
  -18.0217   13.2873  -20.0956 C   0  0  0  0  0  0  0  0  0  0  0  0
  -17.8486   12.5638  -18.9295 C   0  0  0  0  0  0  0  0  0  0  0  0
  -17.2793   11.3069  -18.9202 C   0  0  0  0  0  0  0  0  0  0  0  0
  -16.8565   10.7205  -20.0954 C   0  0  0  0  0  0  0  0  0  0  0  0
  -16.2901    9.4782  -20.1136 F   0  0  0  0  0  0  0  0  0  0  0  0
  -17.0261   11.4366  -21.2616 C   0  0  0  0  0  0  0  0  0  0  0  0
  -17.6002   12.7045  -21.2726 C   0  0  0  0  0  0  0  0  0  0  0  0
 10 11  1  0  0  0
 11  9  1  0  0  0
  9  8  1  0  0  0
  8  7  1  0  0  0
  7  1  1  0  0  0
  1  2  1  0  0  0
  2  3  1  0  0  0
  3  4  1  0  0  0
  4 12  1  0  0  0
 12 13  1  0  0  0
 13 14  1  0  0  0
 14 15  1  0  0  0
 15 16  2  0  0  0
 16 17  1  0  0  0
 17 18  2  0  0  0
 18 19  1  0  0  0
 18 20  1  0  0  0
 20 21  2  0  0  0
  4  5  1  0  0  0
  5  6  1  0  0  0
  6  1  1  0  0  0
 21 15  1  0  0  0
M  END
> <minimizedAffinity>
-6.59979

> <CNNscore>
0.2873055041

> <CNNaffinity>
5.5557126999

> <CNN_VS>
1.5961868763

> <CNNaffinity_variance>
0.4895446897

$$$$
[H]c1c([H])c(C([H])([H])OC([H])([H])C2([H])C([H])([H])C([H])([H])N(C([H])([H])C([H])([H])C([H])([H])C([H])([H])C([H])([H])[H])C([H])([H])C2([H])[H])c([H])c([H])c1F


 21 22  0  0  0  0  0  0  0  0999 V2000
  -15.7819   12.3056  -23.1066 N   0  0  0  0  0  0  0  0  0  0  0  0
  -14.9541   11.4273  -22.3774 C   0  0  0  0  0  0  0  0  0  0  0  0
  -15.6162   10.4464  -21.4882 C   0  0  0  0  0  0  0  0  0  0  0  0
  -16.5593   11.2200  -20.5745 C   0  0  0  0  0  0  0  0  0  0  0  0
  -17.5975   11.8118  -21.5026 C   0  0  0  0  0  0  0  0  0  0  0  0
  -17.0453   12.6402  -22.5965 C   0  0  0  0  0  0  0  0  0  0  0  0
  -14.9911   13.4293  -23.5382 C   0  0  0  0  0  0  0  0  0  0  0  0
  -15.2967   13.9130  -24.9107 C   0  0  0  0  0  0  0  0  0  0  0  0
  -15.0718   15.3972  -25.0495 C   0  0  0  0  0  0  0  0  0  0  0  0
  -15.8040   15.4019  -27.3894 C   0  0  0  0  0  0  0  0  0  0  0  0
  -14.6820   15.7801  -26.4541 C   0  0  0  0  0  0  0  0  0  0  0  0
  -17.2628   10.2959  -19.6090 C   0  0  0  0  0  0  0  0  0  0  0  0
  -17.4576   10.9468  -18.3893 O   0  0  0  0  0  0  0  0  0  0  0  0
  -18.8183   11.1612  -18.1868 C   0  0  0  0  0  0  0  0  0  0  0  0
  -19.2480   10.3539  -17.0041 C   0  0  0  0  0  0  0  0  0  0  0  0
  -20.0882   10.8856  -16.0425 C   0  0  0  0  0  0  0  0  0  0  0  0
  -20.4992   10.1617  -14.9420 C   0  0  0  0  0  0  0  0  0  0  0  0
  -20.0775    8.8604  -14.7620 C   0  0  0  0  0  0  0  0  0  0  0  0
  -20.4695    8.1226  -13.6820 F   0  0  0  0  0  0  0  0  0  0  0  0
  -19.2397    8.3244  -15.7171 C   0  0  0  0  0  0  0  0  0  0  0  0
  -18.8242    9.0533  -16.8277 C   0  0  0  0  0  0  0  0  0  0  0  0
 10 11  1  0  0  0
 11  9  1  0  0  0
  9  8  1  0  0  0
  8  7  1  0  0  0
  7  1  1  0  0  0
  1  2  1  0  0  0
  2  3  1  0  0  0
  3  4  1  0  0  0
  4 12  1  0  0  0
 12 13  1  0  0  0
 13 14  1  0  0  0
 14 15  1  0  0  0
 15 16  2  0  0  0
 16 17  1  0  0  0
 17 18  2  0  0  0
 18 19  1  0  0  0
 18 20  1  0  0  0
 20 21  2  0  0  0
  4  5  1  0  0  0
  5  6  1  0  0  0
  6  1  1  0  0  0
 21 15  1  0  0  0
M  END
> <minimizedAffinity>
-6.25689

> <CNNscore>
0.2848001420

> <CNNaffinity>
5.3842926025

> <CNN_VS>
1.5334472656

> <CNNaffinity_variance>
0.0852480233

$$$$
[H]c1c([H])c([H])c([C@@]2([H])C([H])([H])[C@]2([H])N([H])C([H])([H])C2([H])C([H])([H])C([H])([H])N([H])C([H])([H])C2([H])[H])c([H])c1[H]


 19 21  0  0  0  0  0  0  0  0999 V2000
  -16.8004   15.2746  -23.1515 N   0  0  0  0  0  0  0  0  0  0  0  0
  -17.0874   16.2663  -23.1362 H   0  0  0  0  0  0  0  0  0  0  0  0
  -17.9481   13.3547  -21.9225 C   0  0  0  0  0  0  0  0  0  0  0  0
  -18.5572   14.6995  -21.5139 C   0  0  0  0  0  0  0  0  0  0  0  0
  -17.0867   14.5612  -21.9223 C   0  0  0  0  0  0  0  0  0  0  0  0
  -17.0801   10.4366  -18.8777 C   0  0  0  0  0  0  0  0  0  0  0  0
  -16.5255   10.3546  -20.1374 C   0  0  0  0  0  0  0  0  0  0  0  0
  -16.8216   11.3125  -21.1086 C   0  0  0  0  0  0  0  0  0  0  0  0
  -17.6667   12.3645  -20.8555 C   0  0  0  0  0  0  0  0  0  0  0  0
  -18.2178   12.4403  -19.5934 C   0  0  0  0  0  0  0  0  0  0  0  0
  -17.9270   11.4886  -18.6204 C   0  0  0  0  0  0  0  0  0  0  0  0
  -15.3888   15.0919  -23.4194 C   0  0  0  0  0  0  0  0  0  0  0  0
  -15.1117   14.1610  -24.5629 C   0  0  0  0  0  0  0  0  0  0  0  0
  -14.0556   14.7665  -25.4428 C   0  0  0  0  0  0  0  0  0  0  0  0
  -14.4814   16.0051  -26.1617 C   0  0  0  0  0  0  0  0  0  0  0  0
  -15.9232   16.1094  -26.3039 N   0  0  0  0  0  0  0  0  0  0  0  0
  -16.3848   14.7527  -26.6360 C   0  0  0  0  0  0  0  0  0  0  0  0
  -16.4242   13.9895  -25.3197 C   0  0  0  0  0  0  0  0  0  0  0  0
  -16.1476   16.7792  -27.0466 H   0  0  0  0  0  0  0  0  0  0  0  0
  6  7  2  0  0  0
  7  8  1  0  0  0
  8  9  2  0  0  0
  9  3  1  0  0  0
  3  4  1  0  0  0
  4  5  1  0  0  0
  5  1  1  0  0  0
  1 12  1  0  0  0
 12 13  1  0  0  0
 13 14  1  0  0  0
 14 15  1  0  0  0
 15 16  1  0  0  0
 16 17  1  0  0  0
 17 18  1  0  0  0
  9 10  1  0  0  0
 10 11  2  0  0  0
 11  6  1  0  0  0
  5  3  1  0  0  0
 18 13  1  0  0  0
  1  2  1  0  0  0
 16 19  1  0  0  0
M  END
> <minimizedAffinity>
-7.19486

> <CNNscore>
0.3950076401

> <CNNaffinity>
5.4440894127

> <CNN_VS>
2.1504569054

> <CNNaffinity_variance>
0.1601383984

$$$$
[H]c1c([H])c([H])c([C@@]2([H])C([H])([H])[C@]2([H])N([H])C([H])([H])C2([H])C([H])([H])C([H])([H])N([H])C([H])([H])C2([H])[H])c([H])c1[H]


 19 21  0  0  0  0  0  0  0  0999 V2000
  -19.8796   12.8635  -16.0233 N   0  0  0  0  0  0  0  0  0  0  0  0
  -20.6658   13.5292  -15.9541 H   0  0  0  0  0  0  0  0  0  0  0  0
  -18.2780   13.0733  -17.9993 C   0  0  0  0  0  0  0  0  0  0  0  0
  -19.6202   13.7392  -18.3178 C   0  0  0  0  0  0  0  0  0  0  0  0
  -19.5122   12.5281  -17.3852 C   0  0  0  0  0  0  0  0  0  0  0  0
  -16.4966   10.6717  -21.0975 C   0  0  0  0  0  0  0  0  0  0  0  0
  -17.2193   11.8091  -21.3893 C   0  0  0  0  0  0  0  0  0  0  0  0
  -17.7877   12.5722  -20.3679 C   0  0  0  0  0  0  0  0  0  0  0  0
  -17.6540   12.2282  -19.0456 C   0  0  0  0  0  0  0  0  0  0  0  0
  -16.9299   11.0893  -18.7610 C   0  0  0  0  0  0  0  0  0  0  0  0
  -16.3606   10.3238  -19.7743 C   0  0  0  0  0  0  0  0  0  0  0  0
  -20.1286   11.6114  -15.3394 C   0  0  0  0  0  0  0  0  0  0  0  0
  -20.6511   10.5307  -16.2394 C   0  0  0  0  0  0  0  0  0  0  0  0
  -22.0456   10.1698  -15.8132 C   0  0  0  0  0  0  0  0  0  0  0  0
  -22.1355    9.5134  -14.4741 C   0  0  0  0  0  0  0  0  0  0  0  0
  -20.8914    8.8831  -14.0683 N   0  0  0  0  0  0  0  0  0  0  0  0
  -20.3650    8.2358  -15.2798 C   0  0  0  0  0  0  0  0  0  0  0  0
  -19.7079    9.3415  -16.0938 C   0  0  0  0  0  0  0  0  0  0  0  0
  -21.0776    8.2026  -13.3247 H   0  0  0  0  0  0  0  0  0  0  0  0
  6  7  2  0  0  0
  7  8  1  0  0  0
  8  9  2  0  0  0
  9  3  1  0  0  0
  3  4  1  0  0  0
  4  5  1  0  0  0
  5  1  1  0  0  0
  1 12  1  0  0  0
 12 13  1  0  0  0
 13 14  1  0  0  0
 14 15  1  0  0  0
 15 16  1  0  0  0
 16 17  1  0  0  0
 17 18  1  0  0  0
  9 10  1  0  0  0
 10 11  2  0  0  0
 11  6  1  0  0  0
  5  3  1  0  0  0
 18 13  1  0  0  0
  1  2  1  0  0  0
 16 19  1  0  0  0
M  END
> <minimizedAffinity>
-5.97267

> <CNNscore>
0.3418948352

> <CNNaffinity>
4.2275671959

> <CNN_VS>
1.4453834295

> <CNNaffinity_variance>
0.3526735902

$$$$
[H]c1c([H])c([H])c([C@@]2([H])C([H])([H])[C@]2([H])N([H])C([H])([H])C2([H])C([H])([H])C([H])([H])N([H])C([H])([H])C2([H])[H])c([H])c1[H]


 19 21  0  0  0  0  0  0  0  0999 V2000
  -18.9388   15.3897  -17.5525 N   0  0  0  0  0  0  0  0  0  0  0  0
  -19.0610   15.6214  -16.5538 H   0  0  0  0  0  0  0  0  0  0  0  0
  -19.0431   13.0932  -18.6611 C   0  0  0  0  0  0  0  0  0  0  0  0
  -19.2041   12.9688  -17.1429 C   0  0  0  0  0  0  0  0  0  0  0  0
  -18.3652   14.0787  -17.7854 C   0  0  0  0  0  0  0  0  0  0  0  0
  -16.4623   10.3353  -20.7281 C   0  0  0  0  0  0  0  0  0  0  0  0
  -16.9227   11.4863  -21.3318 C   0  0  0  0  0  0  0  0  0  0  0  0
  -17.7586   12.3658  -20.6417 C   0  0  0  0  0  0  0  0  0  0  0  0
  -18.1538   12.1266  -19.3488 C   0  0  0  0  0  0  0  0  0  0  0  0
  -17.6895   10.9735  -18.7513 C   0  0  0  0  0  0  0  0  0  0  0  0
  -16.8559   10.0922  -19.4335 C   0  0  0  0  0  0  0  0  0  0  0  0
  -18.1073   16.3396  -18.2624 C   0  0  0  0  0  0  0  0  0  0  0  0
  -18.3694   16.3788  -19.7391 C   0  0  0  0  0  0  0  0  0  0  0  0
  -17.0632   16.2639  -20.4718 C   0  0  0  0  0  0  0  0  0  0  0  0
  -16.1491   17.4330  -20.2989 C   0  0  0  0  0  0  0  0  0  0  0  0
  -16.8492   18.6468  -19.9162 N   0  0  0  0  0  0  0  0  0  0  0  0
  -18.0789   18.6626  -20.7233 C   0  0  0  0  0  0  0  0  0  0  0  0
  -19.0467   17.7133  -20.0313 C   0  0  0  0  0  0  0  0  0  0  0  0
  -16.2571   19.4606  -20.1104 H   0  0  0  0  0  0  0  0  0  0  0  0
  6  7  2  0  0  0
  7  8  1  0  0  0
  8  9  2  0  0  0
  9  3  1  0  0  0
  3  4  1  0  0  0
  4  5  1  0  0  0
  5  1  1  0  0  0
  1 12  1  0  0  0
 12 13  1  0  0  0
 13 14  1  0  0  0
 14 15  1  0  0  0
 15 16  1  0  0  0
 16 17  1  0  0  0
 17 18  1  0  0  0
  9 10  1  0  0  0
 10 11  2  0  0  0
 11  6  1  0  0  0
  5  3  1  0  0  0
 18 13  1  0  0  0
  1  2  1  0  0  0
 16 19  1  0  0  0
M  END
> <minimizedAffinity>
-6.30562

> <CNNscore>
0.3288627565

> <CNNaffinity>
4.8331203461

> <CNN_VS>
1.5894333124

> <CNNaffinity_variance>
0.1906645447

$$$$
[H]c1c([H])c([H])c([C@@]2([H])C([H])([H])[C@]2([H])N([H])C([H])([H])C2([H])C([H])([H])C([H])([H])N([H])C([H])([H])C2([H])[H])c([H])c1[H]


 19 21  0  0  0  0  0  0  0  0999 V2000
  -20.2199   11.2555  -16.0468 N   0  0  0  0  0  0  0  0  0  0  0  0
  -21.1838   11.5893  -15.8870 H   0  0  0  0  0  0  0  0  0  0  0  0
  -18.5744   12.2067  -17.7500 C   0  0  0  0  0  0  0  0  0  0  0  0
  -19.9638   12.8238  -17.9372 C   0  0  0  0  0  0  0  0  0  0  0  0
  -19.7697   11.3952  -17.4178 C   0  0  0  0  0  0  0  0  0  0  0  0
  -16.3655   10.9343  -21.2201 C   0  0  0  0  0  0  0  0  0  0  0  0
  -16.1120   10.4119  -19.9695 C   0  0  0  0  0  0  0  0  0  0  0  0
  -16.8412   10.8398  -18.8588 C   0  0  0  0  0  0  0  0  0  0  0  0
  -17.8297   11.7870  -18.9614 C   0  0  0  0  0  0  0  0  0  0  0  0
  -18.0778   12.3052  -20.2153 C   0  0  0  0  0  0  0  0  0  0  0  0
  -17.3546   11.8832  -21.3269 C   0  0  0  0  0  0  0  0  0  0  0  0
  -20.0286    9.8660  -15.6857 C   0  0  0  0  0  0  0  0  0  0  0  0
  -19.4681    9.6770  -14.3070 C   0  0  0  0  0  0  0  0  0  0  0  0
  -20.2983    8.6611  -13.5756 C   0  0  0  0  0  0  0  0  0  0  0  0
  -21.6939    9.1007  -13.2736 C   0  0  0  0  0  0  0  0  0  0  0  0
  -21.8411   10.5457  -13.2579 N   0  0  0  0  0  0  0  0  0  0  0  0
  -20.6410   11.0559  -12.5772 C   0  0  0  0  0  0  0  0  0  0  0  0
  -19.5290   11.0351  -13.6164 C   0  0  0  0  0  0  0  0  0  0  0  0
  -22.6985   10.7983  -12.7562 H   0  0  0  0  0  0  0  0  0  0  0  0
  6  7  2  0  0  0
  7  8  1  0  0  0
  8  9  2  0  0  0
  9  3  1  0  0  0
  3  4  1  0  0  0
  4  5  1  0  0  0
  5  1  1  0  0  0
  1 12  1  0  0  0
 12 13  1  0  0  0
 13 14  1  0  0  0
 14 15  1  0  0  0
 15 16  1  0  0  0
 16 17  1  0  0  0
 17 18  1  0  0  0
  9 10  1  0  0  0
 10 11  2  0  0  0
 11  6  1  0  0  0
  5  3  1  0  0  0
 18 13  1  0  0  0
  1  2  1  0  0  0
 16 19  1  0  0  0
M  END
> <minimizedAffinity>
-5.47659

> <CNNscore>
0.3115415871

> <CNNaffinity>
4.0897960663

> <CNN_VS>
1.2741415501

> <CNNaffinity_variance>
0.3466855288

$$$$
[H]c1c([H])c([H])c([C@@]2([H])C([H])([H])[C@]2([H])N([H])C([H])([H])C2([H])C([H])([H])C([H])([H])N([H])C([H])([H])C2([H])[H])c([H])c1[H]


 19 21  0  0  0  0  0  0  0  0999 V2000
  -17.6760   14.7860  -22.0011 N   0  0  0  0  0  0  0  0  0  0  0  0
  -18.4422   15.3751  -22.3643 H   0  0  0  0  0  0  0  0  0  0  0  0
  -17.1977   12.7294  -20.5675 C   0  0  0  0  0  0  0  0  0  0  0  0
  -17.4873   12.3237  -22.0159 C   0  0  0  0  0  0  0  0  0  0  0  0
  -18.1255   13.5593  -21.3724 C   0  0  0  0  0  0  0  0  0  0  0  0
  -19.0687   10.4859  -17.4043 C   0  0  0  0  0  0  0  0  0  0  0  0
  -19.5038   11.7473  -17.7517 C   0  0  0  0  0  0  0  0  0  0  0  0
  -18.8816   12.4559  -18.7809 C   0  0  0  0  0  0  0  0  0  0  0  0
  -17.8232   11.9348  -19.4832 C   0  0  0  0  0  0  0  0  0  0  0  0
  -17.3933   10.6727  -19.1303 C   0  0  0  0  0  0  0  0  0  0  0  0
  -18.0089    9.9607  -18.1051 C   0  0  0  0  0  0  0  0  0  0  0  0
  -16.8403   15.4670  -21.0339 C   0  0  0  0  0  0  0  0  0  0  0  0
  -16.2753   16.7625  -21.5373 C   0  0  0  0  0  0  0  0  0  0  0  0
  -16.4478   17.8159  -20.4804 C   0  0  0  0  0  0  0  0  0  0  0  0
  -17.8669   18.1946  -20.2069 C   0  0  0  0  0  0  0  0  0  0  0  0
  -18.7564   17.8941  -21.3152 N   0  0  0  0  0  0  0  0  0  0  0  0
  -18.0132   18.2678  -22.5284 C   0  0  0  0  0  0  0  0  0  0  0  0
  -17.0508   17.1205  -22.8004 C   0  0  0  0  0  0  0  0  0  0  0  0
  -19.6214   18.4354  -21.2180 H   0  0  0  0  0  0  0  0  0  0  0  0
  6  7  2  0  0  0
  7  8  1  0  0  0
  8  9  2  0  0  0
  9  3  1  0  0  0
  3  4  1  0  0  0
  4  5  1  0  0  0
  5  1  1  0  0  0
  1 12  1  0  0  0
 12 13  1  0  0  0
 13 14  1  0  0  0
 14 15  1  0  0  0
 15 16  1  0  0  0
 16 17  1  0  0  0
 17 18  1  0  0  0
  9 10  1  0  0  0
 10 11  2  0  0  0
 11  6  1  0  0  0
  5  3  1  0  0  0
 18 13  1  0  0  0
  1  2  1  0  0  0
 16 19  1  0  0  0
M  END
> <minimizedAffinity>
-6.01019

> <CNNscore>
0.3106783628

> <CNNaffinity>
4.6681909561

> <CNN_VS>
1.4503059387

> <CNNaffinity_variance>
0.3671763539

$$$$
[H]c1c([H])c([H])c([C@@]2([H])C([H])([H])[C@]2([H])N([H])C([H])([H])C2([H])C([H])([H])C([H])([H])N([H])C([H])([H])C2([H])[H])c([H])c1[H]


 19 21  0  0  0  0  0  0  0  0999 V2000
  -17.3379   16.1414  -22.0831 N   0  0  0  0  0  0  0  0  0  0  0  0
  -17.3956   17.0719  -21.6394 H   0  0  0  0  0  0  0  0  0  0  0  0
  -18.0969   13.8757  -21.1864 C   0  0  0  0  0  0  0  0  0  0  0  0
  -18.3702   14.9818  -20.1626 C   0  0  0  0  0  0  0  0  0  0  0  0
  -17.1925   15.0493  -21.1406 C   0  0  0  0  0  0  0  0  0  0  0  0
  -16.4496   10.1908  -19.6871 C   0  0  0  0  0  0  0  0  0  0  0  0
  -17.1351   11.0629  -18.8681 C   0  0  0  0  0  0  0  0  0  0  0  0
  -17.6605   12.2520  -19.3767 C   0  0  0  0  0  0  0  0  0  0  0  0
  -17.5197   12.6007  -20.6971 C   0  0  0  0  0  0  0  0  0  0  0  0
  -16.8329   11.7237  -21.5104 C   0  0  0  0  0  0  0  0  0  0  0  0
  -16.3064   10.5366  -21.0100 C   0  0  0  0  0  0  0  0  0  0  0  0
  -16.2457   16.0245  -23.0269 C   0  0  0  0  0  0  0  0  0  0  0  0
  -16.6346   15.3585  -24.3138 C   0  0  0  0  0  0  0  0  0  0  0  0
  -15.9683   14.0145  -24.3908 C   0  0  0  0  0  0  0  0  0  0  0  0
  -14.4805   14.0651  -24.5177 C   0  0  0  0  0  0  0  0  0  0  0  0
  -14.0012   15.3263  -25.0558 N   0  0  0  0  0  0  0  0  0  0  0  0
  -14.9418   15.6782  -26.1307 C   0  0  0  0  0  0  0  0  0  0  0  0
  -16.1633   16.2698  -25.4418 C   0  0  0  0  0  0  0  0  0  0  0  0
  -13.0467   15.2081  -25.4101 H   0  0  0  0  0  0  0  0  0  0  0  0
  6  7  2  0  0  0
  7  8  1  0  0  0
  8  9  2  0  0  0
  9  3  1  0  0  0
  3  4  1  0  0  0
  4  5  1  0  0  0
  5  1  1  0  0  0
  1 12  1  0  0  0
 12 13  1  0  0  0
 13 14  1  0  0  0
 14 15  1  0  0  0
 15 16  1  0  0  0
 16 17  1  0  0  0
 17 18  1  0  0  0
  9 10  1  0  0  0
 10 11  2  0  0  0
 11  6  1  0  0  0
  5  3  1  0  0  0
 18 13  1  0  0  0
  1  2  1  0  0  0
 16 19  1  0  0  0
M  END
> <minimizedAffinity>
-6.85014

> <CNNscore>
0.2980783880

> <CNNaffinity>
5.1634626389

> <CNN_VS>
1.5391166210

> <CNNaffinity_variance>
0.2281656712

$$$$
[H]c1c([H])c([H])c([C@@]2([H])C([H])([H])[C@]2([H])N([H])C([H])([H])C2([H])C([H])([H])C([H])([H])N([H])C([H])([H])C2([H])[H])c([H])c1[H]


 19 21  0  0  0  0  0  0  0  0999 V2000
  -17.4883   13.7852  -21.4582 N   0  0  0  0  0  0  0  0  0  0  0  0
  -17.9896   14.0240  -22.3287 H   0  0  0  0  0  0  0  0  0  0  0  0
  -17.2475   11.9472  -19.7039 C   0  0  0  0  0  0  0  0  0  0  0  0
  -17.2302   11.3532  -21.1157 C   0  0  0  0  0  0  0  0  0  0  0  0
  -18.0191   12.6219  -20.7749 C   0  0  0  0  0  0  0  0  0  0  0  0
  -19.6315   10.0190  -16.6810 C   0  0  0  0  0  0  0  0  0  0  0  0
  -19.8034   11.3499  -16.9980 C   0  0  0  0  0  0  0  0  0  0  0  0
  -19.0186   11.9537  -17.9819 C   0  0  0  0  0  0  0  0  0  0  0  0
  -18.0541   11.2582  -18.6681 C   0  0  0  0  0  0  0  0  0  0  0  0
  -17.8877    9.9275  -18.3458 C   0  0  0  0  0  0  0  0  0  0  0  0
  -18.6665    9.3192  -17.3659 C   0  0  0  0  0  0  0  0  0  0  0  0
  -17.4737   14.8643  -20.4923 C   0  0  0  0  0  0  0  0  0  0  0  0
  -18.8362   15.2289  -19.9808 C   0  0  0  0  0  0  0  0  0  0  0  0
  -19.3531   16.4051  -20.7591 C   0  0  0  0  0  0  0  0  0  0  0  0
  -18.6000   17.6762  -20.5370 C   0  0  0  0  0  0  0  0  0  0  0  0
  -17.8774   17.6930  -19.2771 N   0  0  0  0  0  0  0  0  0  0  0  0
  -18.7848   17.0795  -18.2951 C   0  0  0  0  0  0  0  0  0  0  0  0
  -18.6747   15.5760  -18.5049 C   0  0  0  0  0  0  0  0  0  0  0  0
  -17.6449   18.6595  -19.0272 H   0  0  0  0  0  0  0  0  0  0  0  0
  6  7  2  0  0  0
  7  8  1  0  0  0
  8  9  2  0  0  0
  9  3  1  0  0  0
  3  4  1  0  0  0
  4  5  1  0  0  0
  5  1  1  0  0  0
  1 12  1  0  0  0
 12 13  1  0  0  0
 13 14  1  0  0  0
 14 15  1  0  0  0
 15 16  1  0  0  0
 16 17  1  0  0  0
 17 18  1  0  0  0
  9 10  1  0  0  0
 10 11  2  0  0  0
 11  6  1  0  0  0
  5  3  1  0  0  0
 18 13  1  0  0  0
  1  2  1  0  0  0
 16 19  1  0  0  0
M  END
> <minimizedAffinity>
-6.10860

> <CNNscore>
0.2966829240

> <CNNaffinity>
4.7036581039

> <CNN_VS>
1.3954950571

> <CNNaffinity_variance>
0.2412455082

$$$$
[H]c1c([H])c([H])c([C@@]2([H])C([H])([H])[C@]2([H])N([H])C([H])([H])C2([H])C([H])([H])C([H])([H])N([H])C([H])([H])C2([H])[H])c([H])c1[H]


 19 21  0  0  0  0  0  0  0  0999 V2000
  -16.0060   12.6595  -23.4558 N   0  0  0  0  0  0  0  0  0  0  0  0
  -16.0259   11.9848  -24.2370 H   0  0  0  0  0  0  0  0  0  0  0  0
  -17.2808   13.2243  -21.3181 C   0  0  0  0  0  0  0  0  0  0  0  0
  -17.3120   11.7162  -21.5841 C   0  0  0  0  0  0  0  0  0  0  0  0
  -17.2524   12.7431  -22.7199 C   0  0  0  0  0  0  0  0  0  0  0  0
  -20.9599   15.0617  -20.0423 C   0  0  0  0  0  0  0  0  0  0  0  0
  -20.6897   13.7331  -19.7913 C   0  0  0  0  0  0  0  0  0  0  0  0
  -19.4898   13.1590  -20.2146 C   0  0  0  0  0  0  0  0  0  0  0  0
  -18.5386   13.8825  -20.8904 C   0  0  0  0  0  0  0  0  0  0  0  0
  -18.8155   15.2107  -21.1380 C   0  0  0  0  0  0  0  0  0  0  0  0
  -20.0098   15.7895  -20.7190 C   0  0  0  0  0  0  0  0  0  0  0  0
  -15.6777   14.0073  -23.8723 C   0  0  0  0  0  0  0  0  0  0  0  0
  -16.7625   14.6686  -24.6702 C   0  0  0  0  0  0  0  0  0  0  0  0
  -16.3411   14.7335  -26.1105 C   0  0  0  0  0  0  0  0  0  0  0  0
  -15.1805   15.6355  -26.3781 C   0  0  0  0  0  0  0  0  0  0  0  0
  -15.0058   16.6515  -25.3548 N   0  0  0  0  0  0  0  0  0  0  0  0
  -16.3625   17.1147  -25.0249 C   0  0  0  0  0  0  0  0  0  0  0  0
  -16.9474   16.0663  -24.0892 C   0  0  0  0  0  0  0  0  0  0  0  0
  -14.4237   17.4115  -25.7211 H   0  0  0  0  0  0  0  0  0  0  0  0
  6  7  2  0  0  0
  7  8  1  0  0  0
  8  9  2  0  0  0
  9  3  1  0  0  0
  3  4  1  0  0  0
  4  5  1  0  0  0
  5  1  1  0  0  0
  1 12  1  0  0  0
 12 13  1  0  0  0
 13 14  1  0  0  0
 14 15  1  0  0  0
 15 16  1  0  0  0
 16 17  1  0  0  0
 17 18  1  0  0  0
  9 10  1  0  0  0
 10 11  2  0  0  0
 11  6  1  0  0  0
  5  3  1  0  0  0
 18 13  1  0  0  0
  1  2  1  0  0  0
 16 19  1  0  0  0
M  END
> <minimizedAffinity>
-6.62237

> <CNNscore>
0.2937016785

> <CNNaffinity>
5.2406029701

> <CNN_VS>
1.5391738415

> <CNNaffinity_variance>
0.2438159287

$$$$
[H]c1c([H])c([H])c([C@@]2([H])C([H])([H])[C@]2([H])N([H])C([H])([H])C2([H])C([H])([H])C([H])([H])N([H])C([H])([H])C2([H])[H])c([H])c1[H]


 19 21  0  0  0  0  0  0  0  0999 V2000
  -17.1283   15.3847  -24.3333 N   0  0  0  0  0  0  0  0  0  0  0  0
  -17.4614   15.4333  -25.3093 H   0  0  0  0  0  0  0  0  0  0  0  0
  -16.2865   13.1080  -23.5449 C   0  0  0  0  0  0  0  0  0  0  0  0
  -17.2912   12.9464  -24.6898 C   0  0  0  0  0  0  0  0  0  0  0  0
  -17.3716   14.1071  -23.6925 C   0  0  0  0  0  0  0  0  0  0  0  0
  -16.6997   10.5100  -20.1362 C   0  0  0  0  0  0  0  0  0  0  0  0
  -17.5702   11.5561  -20.3582 C   0  0  0  0  0  0  0  0  0  0  0  0
  -17.4164   12.3853  -21.4705 C   0  0  0  0  0  0  0  0  0  0  0  0
  -16.4053   12.1982  -22.3802 C   0  0  0  0  0  0  0  0  0  0  0  0
  -15.5384   11.1500  -22.1518 C   0  0  0  0  0  0  0  0  0  0  0  0
  -15.6858   10.3195  -21.0449 C   0  0  0  0  0  0  0  0  0  0  0  0
  -17.7131   16.3969  -23.4783 C   0  0  0  0  0  0  0  0  0  0  0  0
  -17.5722   16.0993  -22.0147 C   0  0  0  0  0  0  0  0  0  0  0  0
  -18.8369   16.4985  -21.3095 C   0  0  0  0  0  0  0  0  0  0  0  0
  -19.1005   17.9690  -21.2918 C   0  0  0  0  0  0  0  0  0  0  0  0
  -17.8972   18.7618  -21.4746 N   0  0  0  0  0  0  0  0  0  0  0  0
  -16.8596   18.0915  -20.6759 C   0  0  0  0  0  0  0  0  0  0  0  0
  -16.3839   16.9119  -21.5120 C   0  0  0  0  0  0  0  0  0  0  0  0
  -18.0648   19.7201  -21.1519 H   0  0  0  0  0  0  0  0  0  0  0  0
  6  7  2  0  0  0
  7  8  1  0  0  0
  8  9  2  0  0  0
  9  3  1  0  0  0
  3  4  1  0  0  0
  4  5  1  0  0  0
  5  1  1  0  0  0
  1 12  1  0  0  0
 12 13  1  0  0  0
 13 14  1  0  0  0
 14 15  1  0  0  0
 15 16  1  0  0  0
 16 17  1  0  0  0
 17 18  1  0  0  0
  9 10  1  0  0  0
 10 11  2  0  0  0
 11  6  1  0  0  0
  5  3  1  0  0  0
 18 13  1  0  0  0
  1  2  1  0  0  0
 16 19  1  0  0  0
M  END
> <minimizedAffinity>
-5.88719

> <CNNscore>
0.2867125869

> <CNNaffinity>
4.9196314812

> <CNN_VS>
1.4105203152

> <CNNaffinity_variance>
0.3909598291

$$$$
[H]OC([H])([H])C(F)(F)C([H])([H])N1[C@]([H])(c2c(F)c([H])nc(OC([H])([H])C([H])([H])N([H])C([H])([H])C([H])([H])C([H])([H])F)c2F)c2c(c3c([H])c([H])c([H])c([H])c3n2[H])C([H])([H])[C@@]1([H])C([H])([H])[H]


 39 42  0  0  0  0  0  0  0  0999 V2000
  -16.2154   11.0745  -19.1046 C   0  0  0  0  0  0  0  0  0  0  0  0
  -17.7130   11.0270  -19.2474 C   0  0  0  0  0  0  0  0  0  0  0  0
  -17.9032   11.2334  -20.7789 C   0  0  0  0  0  0  0  0  0  0  0  0
  -17.5274   12.6386  -21.0195 C   0  0  0  0  0  0  0  0  0  0  0  0
  -17.7253   13.5836  -20.0460 C   0  0  0  0  0  0  0  0  0  0  0  0
  -17.2823   14.7482  -20.5687 N   0  0  0  0  0  0  0  0  0  0  0  0
  -16.8188   14.5872  -21.8131 C   0  0  0  0  0  0  0  0  0  0  0  0
  -16.2711   15.4309  -22.7615 C   0  0  0  0  0  0  0  0  0  0  0  0
  -15.8798   14.9461  -23.9888 C   0  0  0  0  0  0  0  0  0  0  0  0
  -16.0242   13.5924  -24.3104 C   0  0  0  0  0  0  0  0  0  0  0  0
  -16.5722   12.7769  -23.3464 C   0  0  0  0  0  0  0  0  0  0  0  0
  -16.9668   13.2491  -22.1176 C   0  0  0  0  0  0  0  0  0  0  0  0
  -18.3185   13.2931  -18.7083 C   0  0  0  0  0  0  0  0  0  0  0  0
  -18.4866   11.8904  -18.4907 N   0  0  0  0  0  0  0  0  0  0  0  0
  -17.2940   15.6648  -20.0753 H   0  0  0  0  0  0  0  0  0  0  0  0
  -19.4098   14.1901  -18.3652 C   0  0  0  0  0  0  0  0  0  0  0  0
  -20.6302   14.1621  -19.0051 C   0  0  0  0  0  0  0  0  0  0  0  0
  -20.8178   13.2811  -19.9794 F   0  0  0  0  0  0  0  0  0  0  0  0
  -21.6638   15.0181  -18.6680 C   0  0  0  0  0  0  0  0  0  0  0  0
  -21.4781   15.9125  -17.6814 N   0  0  0  0  0  0  0  0  0  0  0  0
  -20.3209   16.0076  -17.0064 C   0  0  0  0  0  0  0  0  0  0  0  0
  -19.2971   15.1429  -17.3570 C   0  0  0  0  0  0  0  0  0  0  0  0
  -18.1422   15.2708  -16.6521 F   0  0  0  0  0  0  0  0  0  0  0  0
  -20.1883   16.9364  -16.0111 O   0  0  0  0  0  0  0  0  0  0  0  0
  -19.6309   18.2101  -16.0979 C   0  0  0  0  0  0  0  0  0  0  0  0
  -19.7948   18.8931  -17.4111 C   0  0  0  0  0  0  0  0  0  0  0  0
  -18.5470   18.9919  -18.1485 N   0  0  0  0  0  0  0  0  0  0  0  0
  -18.2080   19.9526  -18.2753 H   0  0  0  0  0  0  0  0  0  0  0  0
  -18.5446   18.2248  -19.3599 C   0  0  0  0  0  0  0  0  0  0  0  0
  -19.9108   18.1300  -19.9922 C   0  0  0  0  0  0  0  0  0  0  0  0
  -19.8882   17.5780  -21.3872 C   0  0  0  0  0  0  0  0  0  0  0  0
  -19.9386   16.2030  -21.4369 F   0  0  0  0  0  0  0  0  0  0  0  0
  -19.3942   11.5228  -17.5271 C   0  0  0  0  0  0  0  0  0  0  0  0
  -19.4437   10.2907  -16.7597 C   0  0  0  0  0  0  0  0  0  0  0  0
  -19.2121   10.4430  -15.3930 F   0  0  0  0  0  0  0  0  0  0  0  0
  -20.8429    9.8573  -16.6908 F   0  0  0  0  0  0  0  0  0  0  0  0
  -18.7722    9.0476  -17.2082 C   0  0  0  0  0  0  0  0  0  0  0  0
  -17.8592    8.4471  -16.4098 O   0  0  0  0  0  0  0  0  0  0  0  0
  -18.2579    7.7731  -15.8115 H   0  0  0  0  0  0  0  0  0  0  0  0
  1  2  1  0  0  0
  2  3  1  0  0  0
  3  4  1  0  0  0
  4  5  2  0  0  0
  5  6  1  0  0  0
  6  7  1  0  0  0
  7  8  2  0  0  0
  8  9  1  0  0  0
  9 10  2  0  0  0
 10 11  1  0  0  0
 11 12  2  0  0  0
  5 13  1  0  0  0
 13 16  1  0  0  0
 16 17  2  0  0  0
 17 18  1  0  0  0
 17 19  1  0  0  0
 19 20  2  0  0  0
 20 21  1  0  0  0
 21 24  1  0  0  0
 24 25  1  0  0  0
 25 26  1  0  0  0
 26 27  1  0  0  0
 27 29  1  0  0  0
 29 30  1  0  0  0
 30 31  1  0  0  0
 31 32  1  0  0  0
 21 22  2  0  0  0
 22 23  1  0  0  0
 13 14  1  0  0  0
 14 33  1  0  0  0
 33 34  1  0  0  0
 34 35  1  0  0  0
 34 36  1  0  0  0
 34 37  1  0  0  0
 37 38  1  0  0  0
 14  2  1  0  0  0
 12  4  1  0  0  0
 22 16  1  0  0  0
 12  7  1  0  0  0
  6 15  1  0  0  0
 27 28  1  0  0  0
 38 39  1  0  0  0
M  END
> <minimizedAffinity>
-7.99765

> <CNNscore>
0.2806467712

> <CNNaffinity>
6.8136529922

> <CNN_VS>
1.9122296572

> <CNNaffinity_variance>
0.4227319658

$$$$
[H]OC([H])([H])C(F)(F)C([H])([H])N1[C@]([H])(c2c(F)c([H])nc(OC([H])([H])C([H])([H])N([H])C([H])([H])C([H])([H])C([H])([H])F)c2F)c2c(c3c([H])c([H])c([H])c([H])c3n2[H])C([H])([H])[C@@]1([H])C([H])([H])[H]


 39 42  0  0  0  0  0  0  0  0999 V2000
  -16.2873   10.9391  -19.2307 C   0  0  0  0  0  0  0  0  0  0  0  0
  -17.7847   10.9444  -19.3833 C   0  0  0  0  0  0  0  0  0  0  0  0
  -17.9581   11.2080  -20.9080 C   0  0  0  0  0  0  0  0  0  0  0  0
  -17.5361   12.6077  -21.0990 C   0  0  0  0  0  0  0  0  0  0  0  0
  -17.7103   13.5254  -20.0953 C   0  0  0  0  0  0  0  0  0  0  0  0
  -17.2269   14.6921  -20.5760 N   0  0  0  0  0  0  0  0  0  0  0  0
  -16.7605   14.5581  -21.8224 C   0  0  0  0  0  0  0  0  0  0  0  0
  -16.1800   15.4152  -22.7388 C   0  0  0  0  0  0  0  0  0  0  0  0
  -15.7961   14.9596  -23.9796 C   0  0  0  0  0  0  0  0  0  0  0  0
  -15.9814   13.6227  -24.3474 C   0  0  0  0  0  0  0  0  0  0  0  0
  -16.5615   12.7933  -23.4146 C   0  0  0  0  0  0  0  0  0  0  0  0
  -16.9490   13.2365  -22.1727 C   0  0  0  0  0  0  0  0  0  0  0  0
  -18.3213   13.2094  -18.7715 C   0  0  0  0  0  0  0  0  0  0  0  0
  -18.5355   11.8063  -18.6022 N   0  0  0  0  0  0  0  0  0  0  0  0
  -17.2128   15.5915  -20.0519 H   0  0  0  0  0  0  0  0  0  0  0  0
  -19.3858   14.1288  -18.4044 C   0  0  0  0  0  0  0  0  0  0  0  0
  -20.5778   14.2058  -19.0921 C   0  0  0  0  0  0  0  0  0  0  0  0
  -20.7622   13.4092  -20.1371 F   0  0  0  0  0  0  0  0  0  0  0  0
  -21.5862   15.0822  -18.7318 C   0  0  0  0  0  0  0  0  0  0  0  0
  -21.4036   15.8913  -17.6736 N   0  0  0  0  0  0  0  0  0  0  0  0
  -20.2732   15.8816  -16.9483 C   0  0  0  0  0  0  0  0  0  0  0  0
  -19.2744   14.9980  -17.3231 C   0  0  0  0  0  0  0  0  0  0  0  0
  -18.1462   15.0189  -16.5657 F   0  0  0  0  0  0  0  0  0  0  0  0
  -20.1426   16.7268  -15.8809 O   0  0  0  0  0  0  0  0  0  0  0  0
  -19.2999   17.8296  -15.7608 C   0  0  0  0  0  0  0  0  0  0  0  0
  -19.6565   18.7942  -14.6838 C   0  0  0  0  0  0  0  0  0  0  0  0
  -19.6838   18.1776  -13.3686 N   0  0  0  0  0  0  0  0  0  0  0  0
  -19.5476   17.1601  -13.3779 H   0  0  0  0  0  0  0  0  0  0  0  0
  -20.8020   18.5932  -12.5731 C   0  0  0  0  0  0  0  0  0  0  0  0
  -22.0962   18.6041  -13.3477 C   0  0  0  0  0  0  0  0  0  0  0  0
  -22.7241   17.2483  -13.4842 C   0  0  0  0  0  0  0  0  0  0  0  0
  -23.2126   16.9913  -14.7455 F   0  0  0  0  0  0  0  0  0  0  0  0
  -19.4606   11.4358  -17.6567 C   0  0  0  0  0  0  0  0  0  0  0  0
  -19.4489   10.2671  -16.7945 C   0  0  0  0  0  0  0  0  0  0  0  0
  -19.1082   10.5231  -15.4667 F   0  0  0  0  0  0  0  0  0  0  0  0
  -20.8382    9.8497  -16.5804 F   0  0  0  0  0  0  0  0  0  0  0  0
  -18.8162    8.9886  -17.1975 C   0  0  0  0  0  0  0  0  0  0  0  0
  -17.8241    8.4589  -16.4445 O   0  0  0  0  0  0  0  0  0  0  0  0
  -18.1567    7.8403  -15.7531 H   0  0  0  0  0  0  0  0  0  0  0  0
  1  2  1  0  0  0
  2  3  1  0  0  0
  3  4  1  0  0  0
  4  5  2  0  0  0
  5  6  1  0  0  0
  6  7  1  0  0  0
  7  8  2  0  0  0
  8  9  1  0  0  0
  9 10  2  0  0  0
 10 11  1  0  0  0
 11 12  2  0  0  0
  5 13  1  0  0  0
 13 16  1  0  0  0
 16 17  2  0  0  0
 17 18  1  0  0  0
 17 19  1  0  0  0
 19 20  2  0  0  0
 20 21  1  0  0  0
 21 24  1  0  0  0
 24 25  1  0  0  0
 25 26  1  0  0  0
 26 27  1  0  0  0
 27 29  1  0  0  0
 29 30  1  0  0  0
 30 31  1  0  0  0
 31 32  1  0  0  0
 21 22  2  0  0  0
 22 23  1  0  0  0
 13 14  1  0  0  0
 14 33  1  0  0  0
 33 34  1  0  0  0
 34 35  1  0  0  0
 34 36  1  0  0  0
 34 37  1  0  0  0
 37 38  1  0  0  0
 14  2  1  0  0  0
 12  4  1  0  0  0
 22 16  1  0  0  0
 12  7  1  0  0  0
  6 15  1  0  0  0
 27 28  1  0  0  0
 38 39  1  0  0  0
M  END
> <minimizedAffinity>
-7.90221

> <CNNscore>
0.2741670907

> <CNNaffinity>
6.5912504196

> <CNN_VS>
1.8071039915

> <CNNaffinity_variance>
0.3197247684

$$$$
[H]OC([H])([H])C(F)(F)C([H])([H])N1[C@]([H])(c2c(F)c([H])nc(OC([H])([H])C([H])([H])N([H])C([H])([H])C([H])([H])C([H])([H])F)c2F)c2c(c3c([H])c([H])c([H])c([H])c3n2[H])C([H])([H])[C@@]1([H])C([H])([H])[H]


 39 42  0  0  0  0  0  0  0  0999 V2000
  -15.9664   12.1845  -22.2342 C   0  0  0  0  0  0  0  0  0  0  0  0
  -17.3512   12.6905  -21.9319 C   0  0  0  0  0  0  0  0  0  0  0  0
  -17.9641   12.8395  -23.3554 C   0  0  0  0  0  0  0  0  0  0  0  0
  -17.2487   13.9800  -23.9564 C   0  0  0  0  0  0  0  0  0  0  0  0
  -16.7848   14.9995  -23.1655 C   0  0  0  0  0  0  0  0  0  0  0  0
  -16.1841   15.8717  -24.0048 N   0  0  0  0  0  0  0  0  0  0  0  0
  -16.2454   15.4575  -25.2752 C   0  0  0  0  0  0  0  0  0  0  0  0
  -15.8012   15.9625  -26.4830 C   0  0  0  0  0  0  0  0  0  0  0  0
  -16.0274   15.2774  -27.6552 C   0  0  0  0  0  0  0  0  0  0  0  0
  -16.7100   14.0563  -27.6581 C   0  0  0  0  0  0  0  0  0  0  0  0
  -17.1400   13.5787  -26.4409 C   0  0  0  0  0  0  0  0  0  0  0  0
  -16.9203   14.2536  -25.2641 C   0  0  0  0  0  0  0  0  0  0  0  0
  -16.9559   15.0516  -21.6843 C   0  0  0  0  0  0  0  0  0  0  0  0
  -17.4949   13.8340  -21.1647 N   0  0  0  0  0  0  0  0  0  0  0  0
  -15.7262   16.7597  -23.7125 H   0  0  0  0  0  0  0  0  0  0  0  0
  -17.5074   16.3145  -21.2215 C   0  0  0  0  0  0  0  0  0  0  0  0
  -16.7898   17.2082  -20.4559 C   0  0  0  0  0  0  0  0  0  0  0  0
  -15.5423   16.9026  -20.1229 F   0  0  0  0  0  0  0  0  0  0  0  0
  -17.3232   18.4096  -20.0238 C   0  0  0  0  0  0  0  0  0  0  0  0
  -18.5870   18.7233  -20.3588 N   0  0  0  0  0  0  0  0  0  0  0  0
  -19.3563   17.9105  -21.1014 C   0  0  0  0  0  0  0  0  0  0  0  0
  -18.8061   16.7120  -21.5254 C   0  0  0  0  0  0  0  0  0  0  0  0
  -19.6158   15.9168  -22.2732 F   0  0  0  0  0  0  0  0  0  0  0  0
  -20.6354   18.2815  -21.4126 O   0  0  0  0  0  0  0  0  0  0  0  0
  -21.0468   19.3259  -22.2376 C   0  0  0  0  0  0  0  0  0  0  0  0
  -20.9415   19.0668  -23.7003 C   0  0  0  0  0  0  0  0  0  0  0  0
  -21.9652   19.7581  -24.4649 N   0  0  0  0  0  0  0  0  0  0  0  0
  -21.8811   20.7812  -24.4522 H   0  0  0  0  0  0  0  0  0  0  0  0
  -23.2920   19.2942  -24.1810 C   0  0  0  0  0  0  0  0  0  0  0  0
  -24.1877   19.3128  -25.3944 C   0  0  0  0  0  0  0  0  0  0  0  0
  -23.7256   18.4025  -26.4940 C   0  0  0  0  0  0  0  0  0  0  0  0
  -23.1680   19.0677  -27.5627 F   0  0  0  0  0  0  0  0  0  0  0  0
  -18.0943   13.9049  -19.9307 C   0  0  0  0  0  0  0  0  0  0  0  0
  -18.2380   12.8549  -18.9375 C   0  0  0  0  0  0  0  0  0  0  0  0
  -19.0569   11.7938  -19.3224 F   0  0  0  0  0  0  0  0  0  0  0  0
  -16.9676   12.1263  -18.8632 F   0  0  0  0  0  0  0  0  0  0  0  0
  -18.4954   13.1443  -17.5067 C   0  0  0  0  0  0  0  0  0  0  0  0
  -18.0442   14.2967  -16.9587 O   0  0  0  0  0  0  0  0  0  0  0  0
  -18.7005   15.0298  -17.0142 H   0  0  0  0  0  0  0  0  0  0  0  0
  1  2  1  0  0  0
  2  3  1  0  0  0
  3  4  1  0  0  0
  4  5  2  0  0  0
  5  6  1  0  0  0
  6  7  1  0  0  0
  7  8  2  0  0  0
  8  9  1  0  0  0
  9 10  2  0  0  0
 10 11  1  0  0  0
 11 12  2  0  0  0
  5 13  1  0  0  0
 13 16  1  0  0  0
 16 17  2  0  0  0
 17 18  1  0  0  0
 17 19  1  0  0  0
 19 20  2  0  0  0
 20 21  1  0  0  0
 21 24  1  0  0  0
 24 25  1  0  0  0
 25 26  1  0  0  0
 26 27  1  0  0  0
 27 29  1  0  0  0
 29 30  1  0  0  0
 30 31  1  0  0  0
 31 32  1  0  0  0
 21 22  2  0  0  0
 22 23  1  0  0  0
 13 14  1  0  0  0
 14 33  1  0  0  0
 33 34  1  0  0  0
 34 35  1  0  0  0
 34 36  1  0  0  0
 34 37  1  0  0  0
 37 38  1  0  0  0
 14  2  1  0  0  0
 12  4  1  0  0  0
 22 16  1  0  0  0
 12  7  1  0  0  0
  6 15  1  0  0  0
 27 28  1  0  0  0
 38 39  1  0  0  0
M  END
> <minimizedAffinity>
-8.11358

> <CNNscore>
0.2524249256

> <CNNaffinity>
7.1641073227

> <CNN_VS>
1.8083992004

> <CNNaffinity_variance>
0.0883824378

$$$$
[H]OC([H])([H])C(F)(F)C([H])([H])N1[C@]([H])(c2c(F)c([H])nc(OC([H])([H])C([H])([H])N([H])C([H])([H])C([H])([H])C([H])([H])F)c2F)c2c(c3c([H])c([H])c([H])c([H])c3n2[H])C([H])([H])[C@@]1([H])C([H])([H])[H]


 39 42  0  0  0  0  0  0  0  0999 V2000
  -17.8773   12.3531  -24.6602 C   0  0  0  0  0  0  0  0  0  0  0  0
  -16.7965   13.3555  -24.3558 C   0  0  0  0  0  0  0  0  0  0  0  0
  -16.1049   12.7246  -23.1118 C   0  0  0  0  0  0  0  0  0  0  0  0
  -17.0895   12.8618  -22.0230 C   0  0  0  0  0  0  0  0  0  0  0  0
  -17.9662   13.9160  -22.0124 C   0  0  0  0  0  0  0  0  0  0  0  0
  -18.7232   13.7534  -20.9050 N   0  0  0  0  0  0  0  0  0  0  0  0
  -18.3713   12.6588  -20.2216 C   0  0  0  0  0  0  0  0  0  0  0  0
  -18.8125   12.0579  -19.0573 C   0  0  0  0  0  0  0  0  0  0  0  0
  -18.2258   10.8997  -18.6002 C   0  0  0  0  0  0  0  0  0  0  0  0
  -17.1714   10.3001  -19.2971 C   0  0  0  0  0  0  0  0  0  0  0  0
  -16.7540   10.9209  -20.4524 C   0  0  0  0  0  0  0  0  0  0  0  0
  -17.3315   12.0774  -20.9189 C   0  0  0  0  0  0  0  0  0  0  0  0
  -18.0031   14.9820  -23.0555 C   0  0  0  0  0  0  0  0  0  0  0  0
  -17.1466   14.6804  -24.1594 N   0  0  0  0  0  0  0  0  0  0  0  0
  -19.4892   14.3930  -20.6085 H   0  0  0  0  0  0  0  0  0  0  0  0
  -17.9774   16.3235  -22.4961 C   0  0  0  0  0  0  0  0  0  0  0  0
  -16.9648   16.7726  -21.6760 C   0  0  0  0  0  0  0  0  0  0  0  0
  -15.9711   15.9446  -21.3801 F   0  0  0  0  0  0  0  0  0  0  0  0
  -16.9482   18.0531  -21.1519 C   0  0  0  0  0  0  0  0  0  0  0  0
  -17.9532   18.8955  -21.4490 N   0  0  0  0  0  0  0  0  0  0  0  0
  -18.9788   18.5397  -22.2398 C   0  0  0  0  0  0  0  0  0  0  0  0
  -18.9793   17.2542  -22.7557 C   0  0  0  0  0  0  0  0  0  0  0  0
  -20.0339   16.9318  -23.5499 F   0  0  0  0  0  0  0  0  0  0  0  0
  -19.9740   19.4387  -22.5088 O   0  0  0  0  0  0  0  0  0  0  0  0
  -20.1852   20.1548  -23.6849 C   0  0  0  0  0  0  0  0  0  0  0  0
  -21.5927   20.1892  -24.1701 C   0  0  0  0  0  0  0  0  0  0  0  0
  -22.4329   19.2007  -23.5164 N   0  0  0  0  0  0  0  0  0  0  0  0
  -21.9262   18.3732  -23.1811 H   0  0  0  0  0  0  0  0  0  0  0  0
  -23.6130   18.8789  -24.2645 C   0  0  0  0  0  0  0  0  0  0  0  0
  -23.5334   19.3310  -25.7012 C   0  0  0  0  0  0  0  0  0  0  0  0
  -23.6774   18.2119  -26.6902 C   0  0  0  0  0  0  0  0  0  0  0  0
  -23.4991   18.6051  -27.9976 F   0  0  0  0  0  0  0  0  0  0  0  0
  -16.7612   15.7394  -24.9449 C   0  0  0  0  0  0  0  0  0  0  0  0
  -15.4211   16.2512  -25.1726 C   0  0  0  0  0  0  0  0  0  0  0  0
  -15.2862   17.6299  -25.0115 F   0  0  0  0  0  0  0  0  0  0  0  0
  -14.5777   15.8232  -24.0519 F   0  0  0  0  0  0  0  0  0  0  0  0
  -14.5991   15.8373  -26.3345 C   0  0  0  0  0  0  0  0  0  0  0  0
  -15.0906   15.9639  -27.5892 O   0  0  0  0  0  0  0  0  0  0  0  0
  -14.8695   16.8313  -28.0014 H   0  0  0  0  0  0  0  0  0  0  0  0
  1  2  1  0  0  0
  2  3  1  0  0  0
  3  4  1  0  0  0
  4  5  2  0  0  0
  5  6  1  0  0  0
  6  7  1  0  0  0
  7  8  2  0  0  0
  8  9  1  0  0  0
  9 10  2  0  0  0
 10 11  1  0  0  0
 11 12  2  0  0  0
  5 13  1  0  0  0
 13 16  1  0  0  0
 16 17  2  0  0  0
 17 18  1  0  0  0
 17 19  1  0  0  0
 19 20  2  0  0  0
 20 21  1  0  0  0
 21 24  1  0  0  0
 24 25  1  0  0  0
 25 26  1  0  0  0
 26 27  1  0  0  0
 27 29  1  0  0  0
 29 30  1  0  0  0
 30 31  1  0  0  0
 31 32  1  0  0  0
 21 22  2  0  0  0
 22 23  1  0  0  0
 13 14  1  0  0  0
 14 33  1  0  0  0
 33 34  1  0  0  0
 34 35  1  0  0  0
 34 36  1  0  0  0
 34 37  1  0  0  0
 37 38  1  0  0  0
 14  2  1  0  0  0
 12  4  1  0  0  0
 22 16  1  0  0  0
 12  7  1  0  0  0
  6 15  1  0  0  0
 27 28  1  0  0  0
 38 39  1  0  0  0
M  END
> <minimizedAffinity>
-8.55779

> <CNNscore>
0.2240512669

> <CNNaffinity>
7.1966829300

> <CNN_VS>
1.6124259233

> <CNNaffinity_variance>
0.1217687875

$$$$
[H]OC([H])([H])C(F)(F)C([H])([H])N1[C@]([H])(c2c(F)c([H])nc(OC([H])([H])C([H])([H])N([H])C([H])([H])C([H])([H])C([H])([H])F)c2F)c2c(c3c([H])c([H])c([H])c([H])c3n2[H])C([H])([H])[C@@]1([H])C([H])([H])[H]


 39 42  0  0  0  0  0  0  0  0999 V2000
  -17.7840   12.2827  -24.7654 C   0  0  0  0  0  0  0  0  0  0  0  0
  -16.7094   13.2923  -24.4633 C   0  0  0  0  0  0  0  0  0  0  0  0
  -16.0070   12.6631  -23.2245 C   0  0  0  0  0  0  0  0  0  0  0  0
  -16.9874   12.7896  -22.1305 C   0  0  0  0  0  0  0  0  0  0  0  0
  -17.8719   13.8371  -22.1126 C   0  0  0  0  0  0  0  0  0  0  0  0
  -18.6224   13.6656  -21.0021 N   0  0  0  0  0  0  0  0  0  0  0  0
  -18.2588   12.5716  -20.3237 C   0  0  0  0  0  0  0  0  0  0  0  0
  -18.6899   11.9640  -19.1591 C   0  0  0  0  0  0  0  0  0  0  0  0
  -18.0923   10.8089  -18.7082 C   0  0  0  0  0  0  0  0  0  0  0  0
  -17.0367   10.2194  -19.4119 C   0  0  0  0  0  0  0  0  0  0  0  0
  -16.6296   10.8467  -20.5674 C   0  0  0  0  0  0  0  0  0  0  0  0
  -17.2182   12.0002  -21.0276 C   0  0  0  0  0  0  0  0  0  0  0  0
  -17.9220   14.9059  -23.1523 C   0  0  0  0  0  0  0  0  0  0  0  0
  -17.0686   14.6140  -24.2613 N   0  0  0  0  0  0  0  0  0  0  0  0
  -19.3917   14.2985  -20.7000 H   0  0  0  0  0  0  0  0  0  0  0  0
  -17.9037   16.2459  -22.5892 C   0  0  0  0  0  0  0  0  0  0  0  0
  -16.9326   16.6745  -21.7100 C   0  0  0  0  0  0  0  0  0  0  0  0
  -15.9737   15.8274  -21.3585 F   0  0  0  0  0  0  0  0  0  0  0  0
  -16.9224   17.9538  -21.1827 C   0  0  0  0  0  0  0  0  0  0  0  0
  -17.8922   18.8155  -21.5361 N   0  0  0  0  0  0  0  0  0  0  0  0
  -18.8763   18.4804  -22.3864 C   0  0  0  0  0  0  0  0  0  0  0  0
  -18.8708   17.1958  -22.9046 C   0  0  0  0  0  0  0  0  0  0  0  0
  -19.8830   16.8946  -23.7601 F   0  0  0  0  0  0  0  0  0  0  0  0
  -19.8367   19.3985  -22.7111 O   0  0  0  0  0  0  0  0  0  0  0  0
  -21.0573   19.6205  -22.0774 C   0  0  0  0  0  0  0  0  0  0  0  0
  -22.2320   18.9445  -22.6944 C   0  0  0  0  0  0  0  0  0  0  0  0
  -22.6441   17.7606  -21.9602 N   0  0  0  0  0  0  0  0  0  0  0  0
  -23.6558   17.5869  -21.9754 H   0  0  0  0  0  0  0  0  0  0  0  0
  -22.0749   17.6841  -20.6464 C   0  0  0  0  0  0  0  0  0  0  0  0
  -21.4039   16.3601  -20.3783 C   0  0  0  0  0  0  0  0  0  0  0  0
  -20.2398   16.4584  -19.4368 C   0  0  0  0  0  0  0  0  0  0  0  0
  -19.8037   17.7481  -19.2320 F   0  0  0  0  0  0  0  0  0  0  0  0
  -16.6950   15.6782  -25.0455 C   0  0  0  0  0  0  0  0  0  0  0  0
  -15.3791   16.2776  -25.1830 C   0  0  0  0  0  0  0  0  0  0  0  0
  -15.3081   17.6223  -24.8205 F   0  0  0  0  0  0  0  0  0  0  0  0
  -14.5201   15.7282  -24.1292 F   0  0  0  0  0  0  0  0  0  0  0  0
  -14.5358   16.0760  -26.3852 C   0  0  0  0  0  0  0  0  0  0  0  0
  -15.1159   15.8818  -27.5926 O   0  0  0  0  0  0  0  0  0  0  0  0
  -15.2619   16.7217  -28.0868 H   0  0  0  0  0  0  0  0  0  0  0  0
  1  2  1  0  0  0
  2  3  1  0  0  0
  3  4  1  0  0  0
  4  5  2  0  0  0
  5  6  1  0  0  0
  6  7  1  0  0  0
  7  8  2  0  0  0
  8  9  1  0  0  0
  9 10  2  0  0  0
 10 11  1  0  0  0
 11 12  2  0  0  0
  5 13  1  0  0  0
 13 16  1  0  0  0
 16 17  2  0  0  0
 17 18  1  0  0  0
 17 19  1  0  0  0
 19 20  2  0  0  0
 20 21  1  0  0  0
 21 24  1  0  0  0
 24 25  1  0  0  0
 25 26  1  0  0  0
 26 27  1  0  0  0
 27 29  1  0  0  0
 29 30  1  0  0  0
 30 31  1  0  0  0
 31 32  1  0  0  0
 21 22  2  0  0  0
 22 23  1  0  0  0
 13 14  1  0  0  0
 14 33  1  0  0  0
 33 34  1  0  0  0
 34 35  1  0  0  0
 34 36  1  0  0  0
 34 37  1  0  0  0
 37 38  1  0  0  0
 14  2  1  0  0  0
 12  4  1  0  0  0
 22 16  1  0  0  0
 12  7  1  0  0  0
  6 15  1  0  0  0
 27 28  1  0  0  0
 38 39  1  0  0  0
M  END
> <minimizedAffinity>
-7.76768

> <CNNscore>
0.1825957745

> <CNNaffinity>
7.0061492920

> <CNN_VS>
1.2792932987

> <CNNaffinity_variance>
0.4455461502

$$$$
[H]OC([H])([H])C(F)(F)C([H])([H])N1[C@]([H])(c2c(F)c([H])nc(OC([H])([H])C([H])([H])N([H])C([H])([H])C([H])([H])C([H])([H])F)c2F)c2c(c3c([H])c([H])c([H])c([H])c3n2[H])C([H])([H])[C@@]1([H])C([H])([H])[H]


 39 42  0  0  0  0  0  0  0  0999 V2000
  -18.1820   11.4376  -21.2031 C   0  0  0  0  0  0  0  0  0  0  0  0
  -17.3382   12.4246  -20.4421 C   0  0  0  0  0  0  0  0  0  0  0  0
  -17.0511   11.6582  -19.1176 C   0  0  0  0  0  0  0  0  0  0  0  0
  -18.3468   11.6211  -18.4150 C   0  0  0  0  0  0  0  0  0  0  0  0
  -19.2525   12.6372  -18.5808 C   0  0  0  0  0  0  0  0  0  0  0  0
  -20.3182   12.3077  -17.8182 N   0  0  0  0  0  0  0  0  0  0  0  0
  -20.1322   11.1446  -17.1845 C   0  0  0  0  0  0  0  0  0  0  0  0
  -20.8874   10.3831  -16.3120 C   0  0  0  0  0  0  0  0  0  0  0  0
  -20.4013    9.1939  -15.8182 C   0  0  0  0  0  0  0  0  0  0  0  0
  -19.1354    8.7236  -16.1830 C   0  0  0  0  0  0  0  0  0  0  0  0
  -18.4070    9.5029  -17.0529 C   0  0  0  0  0  0  0  0  0  0  0  0
  -18.8813   10.6920  -17.5526 C   0  0  0  0  0  0  0  0  0  0  0  0
  -19.0212   13.8288  -19.4481 C   0  0  0  0  0  0  0  0  0  0  0  0
  -17.8292   13.7010  -20.2265 N   0  0  0  0  0  0  0  0  0  0  0  0
  -21.1836   12.8790  -17.7262 H   0  0  0  0  0  0  0  0  0  0  0  0
  -19.2793   15.0858  -18.7651 C   0  0  0  0  0  0  0  0  0  0  0  0
  -18.6441   15.4460  -17.5961 C   0  0  0  0  0  0  0  0  0  0  0  0
  -17.7607   14.6085  -17.0679 F   0  0  0  0  0  0  0  0  0  0  0  0
  -18.8944   16.6469  -16.9560 C   0  0  0  0  0  0  0  0  0  0  0  0
  -19.7888   17.4984  -17.4877 N   0  0  0  0  0  0  0  0  0  0  0  0
  -20.4526   17.2266  -18.6232 C   0  0  0  0  0  0  0  0  0  0  0  0
  -20.1896   16.0200  -19.2506 C   0  0  0  0  0  0  0  0  0  0  0  0
  -20.8816   15.7812  -20.3957 F   0  0  0  0  0  0  0  0  0  0  0  0
  -21.3513   18.1308  -19.1188 O   0  0  0  0  0  0  0  0  0  0  0  0
  -21.1240   19.1391  -20.0528 C   0  0  0  0  0  0  0  0  0  0  0  0
  -21.7507   18.9295  -21.3873 C   0  0  0  0  0  0  0  0  0  0  0  0
  -20.8314   19.1869  -22.4824 N   0  0  0  0  0  0  0  0  0  0  0  0
  -20.2899   20.0533  -22.3825 H   0  0  0  0  0  0  0  0  0  0  0  0
  -21.4367   19.0416  -23.7741 C   0  0  0  0  0  0  0  0  0  0  0  0
  -22.5515   18.0256  -23.7841 C   0  0  0  0  0  0  0  0  0  0  0  0
  -23.3216   17.9941  -25.0714 C   0  0  0  0  0  0  0  0  0  0  0  0
  -23.3249   16.7600  -25.6817 F   0  0  0  0  0  0  0  0  0  0  0  0
  -17.2847   14.8651  -20.7119 C   0  0  0  0  0  0  0  0  0  0  0  0
  -17.1782   15.3023  -22.0928 C   0  0  0  0  0  0  0  0  0  0  0  0
  -16.0138   14.8993  -22.7459 F   0  0  0  0  0  0  0  0  0  0  0  0
  -18.1430   14.5338  -22.8858 F   0  0  0  0  0  0  0  0  0  0  0  0
  -17.4898   16.6891  -22.5135 C   0  0  0  0  0  0  0  0  0  0  0  0
  -18.5749   17.3207  -22.0082 O   0  0  0  0  0  0  0  0  0  0  0  0
  -18.3741   17.8317  -21.1898 H   0  0  0  0  0  0  0  0  0  0  0  0
  1  2  1  0  0  0
  2  3  1  0  0  0
  3  4  1  0  0  0
  4  5  2  0  0  0
  5  6  1  0  0  0
  6  7  1  0  0  0
  7  8  2  0  0  0
  8  9  1  0  0  0
  9 10  2  0  0  0
 10 11  1  0  0  0
 11 12  2  0  0  0
  5 13  1  0  0  0
 13 16  1  0  0  0
 16 17  2  0  0  0
 17 18  1  0  0  0
 17 19  1  0  0  0
 19 20  2  0  0  0
 20 21  1  0  0  0
 21 24  1  0  0  0
 24 25  1  0  0  0
 25 26  1  0  0  0
 26 27  1  0  0  0
 27 29  1  0  0  0
 29 30  1  0  0  0
 30 31  1  0  0  0
 31 32  1  0  0  0
 21 22  2  0  0  0
 22 23  1  0  0  0
 13 14  1  0  0  0
 14 33  1  0  0  0
 33 34  1  0  0  0
 34 35  1  0  0  0
 34 36  1  0  0  0
 34 37  1  0  0  0
 37 38  1  0  0  0
 14  2  1  0  0  0
 12  4  1  0  0  0
 22 16  1  0  0  0
 12  7  1  0  0  0
  6 15  1  0  0  0
 27 28  1  0  0  0
 38 39  1  0  0  0
M  END
> <minimizedAffinity>
-7.04784

> <CNNscore>
0.1782826334

> <CNNaffinity>
6.6022768021

> <CNN_VS>
1.1770713329

> <CNNaffinity_variance>
0.1783319116

$$$$
[H]OC([H])([H])C(F)(F)C([H])([H])N1[C@]([H])(c2c(F)c([H])nc(OC([H])([H])C([H])([H])N([H])C([H])([H])C([H])([H])C([H])([H])F)c2F)c2c(c3c([H])c([H])c([H])c([H])c3n2[H])C([H])([H])[C@@]1([H])C([H])([H])[H]


 39 42  0  0  0  0  0  0  0  0999 V2000
  -15.7425   12.2169  -22.4944 C   0  0  0  0  0  0  0  0  0  0  0  0
  -17.1317   12.6843  -22.1525 C   0  0  0  0  0  0  0  0  0  0  0  0
  -17.7946   12.7977  -23.5567 C   0  0  0  0  0  0  0  0  0  0  0  0
  -17.1344   13.9521  -24.1932 C   0  0  0  0  0  0  0  0  0  0  0  0
  -16.6766   14.9945  -23.4291 C   0  0  0  0  0  0  0  0  0  0  0  0
  -16.1305   15.8744  -24.2971 N   0  0  0  0  0  0  0  0  0  0  0  0
  -16.2201   15.4435  -25.5602 C   0  0  0  0  0  0  0  0  0  0  0  0
  -15.8309   15.9474  -26.7874 C   0  0  0  0  0  0  0  0  0  0  0  0
  -16.0739   15.2418  -27.9440 C   0  0  0  0  0  0  0  0  0  0  0  0
  -16.7184   14.0007  -27.9113 C   0  0  0  0  0  0  0  0  0  0  0  0
  -17.0939   13.5248  -26.6755 C   0  0  0  0  0  0  0  0  0  0  0  0
  -16.8570   14.2199  -25.5139 C   0  0  0  0  0  0  0  0  0  0  0  0
  -16.8012   15.0591  -21.9438 C   0  0  0  0  0  0  0  0  0  0  0  0
  -17.2855   13.8319  -21.3936 N   0  0  0  0  0  0  0  0  0  0  0  0
  -15.6908   16.7794  -24.0297 H   0  0  0  0  0  0  0  0  0  0  0  0
  -17.3759   16.3101  -21.4770 C   0  0  0  0  0  0  0  0  0  0  0  0
  -16.7299   17.1453  -20.5910 C   0  0  0  0  0  0  0  0  0  0  0  0
  -15.5328   16.7920  -20.1408 F   0  0  0  0  0  0  0  0  0  0  0  0
  -17.2845   18.3360  -20.1560 C   0  0  0  0  0  0  0  0  0  0  0  0
  -18.4974   18.6979  -20.6096 N   0  0  0  0  0  0  0  0  0  0  0  0
  -19.1956   17.9436  -21.4740 C   0  0  0  0  0  0  0  0  0  0  0  0
  -18.6253   16.7549  -21.8990 C   0  0  0  0  0  0  0  0  0  0  0  0
  -19.3628   16.0195  -22.7721 F   0  0  0  0  0  0  0  0  0  0  0  0
  -20.4253   18.3619  -21.9026 O   0  0  0  0  0  0  0  0  0  0  0  0
  -20.7329   19.5076  -22.6329 C   0  0  0  0  0  0  0  0  0  0  0  0
  -21.2748   20.6462  -21.8408 C   0  0  0  0  0  0  0  0  0  0  0  0
  -22.2040   20.2169  -20.8099 N   0  0  0  0  0  0  0  0  0  0  0  0
  -21.8402   19.4785  -20.1963 H   0  0  0  0  0  0  0  0  0  0  0  0
  -23.5178   19.9403  -21.3132 C   0  0  0  0  0  0  0  0  0  0  0  0
  -24.1093   18.6786  -20.7357 C   0  0  0  0  0  0  0  0  0  0  0  0
  -23.7321   17.4392  -21.4926 C   0  0  0  0  0  0  0  0  0  0  0  0
  -23.8201   17.5797  -22.8594 F   0  0  0  0  0  0  0  0  0  0  0  0
  -17.8465   13.8993  -20.1414 C   0  0  0  0  0  0  0  0  0  0  0  0
  -19.1870   13.5175  -19.7333 C   0  0  0  0  0  0  0  0  0  0  0  0
  -19.8419   12.6536  -20.6106 F   0  0  0  0  0  0  0  0  0  0  0  0
  -19.0691   12.6083  -18.5889 F   0  0  0  0  0  0  0  0  0  0  0  0
  -20.1741   14.5009  -19.2275 C   0  0  0  0  0  0  0  0  0  0  0  0
  -21.0652   15.0621  -20.0777 O   0  0  0  0  0  0  0  0  0  0  0  0
  -21.9078   14.5548  -20.1392 H   0  0  0  0  0  0  0  0  0  0  0  0
  1  2  1  0  0  0
  2  3  1  0  0  0
  3  4  1  0  0  0
  4  5  2  0  0  0
  5  6  1  0  0  0
  6  7  1  0  0  0
  7  8  2  0  0  0
  8  9  1  0  0  0
  9 10  2  0  0  0
 10 11  1  0  0  0
 11 12  2  0  0  0
  5 13  1  0  0  0
 13 16  1  0  0  0
 16 17  2  0  0  0
 17 18  1  0  0  0
 17 19  1  0  0  0
 19 20  2  0  0  0
 20 21  1  0  0  0
 21 24  1  0  0  0
 24 25  1  0  0  0
 25 26  1  0  0  0
 26 27  1  0  0  0
 27 29  1  0  0  0
 29 30  1  0  0  0
 30 31  1  0  0  0
 31 32  1  0  0  0
 21 22  2  0  0  0
 22 23  1  0  0  0
 13 14  1  0  0  0
 14 33  1  0  0  0
 33 34  1  0  0  0
 34 35  1  0  0  0
 34 36  1  0  0  0
 34 37  1  0  0  0
 37 38  1  0  0  0
 14  2  1  0  0  0
 12  4  1  0  0  0
 22 16  1  0  0  0
 12  7  1  0  0  0
  6 15  1  0  0  0
 27 28  1  0  0  0
 38 39  1  0  0  0
M  END
> <minimizedAffinity>
-7.11293

> <CNNscore>
0.1589852124

> <CNNaffinity>
6.7469797134

> <CNN_VS>
1.0726699829

> <CNNaffinity_variance>
0.2316348851

$$$$
[H]OC([H])([H])C(F)(F)C([H])([H])N1[C@]([H])(c2c(F)c([H])nc(OC([H])([H])C([H])([H])N([H])C([H])([H])C([H])([H])C([H])([H])F)c2F)c2c(c3c([H])c([H])c([H])c([H])c3n2[H])C([H])([H])[C@@]1([H])C([H])([H])[H]


 39 42  0  0  0  0  0  0  0  0999 V2000
  -15.7527   12.1960  -22.4968 C   0  0  0  0  0  0  0  0  0  0  0  0
  -17.1200   12.7257  -22.1573 C   0  0  0  0  0  0  0  0  0  0  0  0
  -17.7708   12.8793  -23.5633 C   0  0  0  0  0  0  0  0  0  0  0  0
  -17.0545   14.0058  -24.1893 C   0  0  0  0  0  0  0  0  0  0  0  0
  -16.5517   15.0205  -23.4163 C   0  0  0  0  0  0  0  0  0  0  0  0
  -15.9613   15.8796  -24.2760 N   0  0  0  0  0  0  0  0  0  0  0  0
  -16.0655   15.4617  -25.5424 C   0  0  0  0  0  0  0  0  0  0  0  0
  -15.6479   15.9549  -26.7646 C   0  0  0  0  0  0  0  0  0  0  0  0
  -15.9186   15.2691  -27.9269 C   0  0  0  0  0  0  0  0  0  0  0  0
  -16.6207   14.0594  -27.9052 C   0  0  0  0  0  0  0  0  0  0  0  0
  -17.0234   13.5934  -26.6743 C   0  0  0  0  0  0  0  0  0  0  0  0
  -16.7592   14.2690  -25.5070 C   0  0  0  0  0  0  0  0  0  0  0  0
  -16.6795   15.0809  -21.9311 C   0  0  0  0  0  0  0  0  0  0  0  0
  -17.2231   13.8742  -21.3912 N   0  0  0  0  0  0  0  0  0  0  0  0
  -15.4809   16.7611  -24.0007 H   0  0  0  0  0  0  0  0  0  0  0  0
  -17.1970   16.3544  -21.4581 C   0  0  0  0  0  0  0  0  0  0  0  0
  -16.4974   17.1728  -20.5975 C   0  0  0  0  0  0  0  0  0  0  0  0
  -15.3008   16.7813  -20.1788 F   0  0  0  0  0  0  0  0  0  0  0  0
  -16.9978   18.3851  -20.1564 C   0  0  0  0  0  0  0  0  0  0  0  0
  -18.2100   18.7857  -20.5781 N   0  0  0  0  0  0  0  0  0  0  0  0
  -18.9585   18.0501  -21.4162 C   0  0  0  0  0  0  0  0  0  0  0  0
  -18.4420   16.8394  -21.8478 C   0  0  0  0  0  0  0  0  0  0  0  0
  -19.2293   16.1240  -22.6936 F   0  0  0  0  0  0  0  0  0  0  0  0
  -20.1848   18.5079  -21.8128 O   0  0  0  0  0  0  0  0  0  0  0  0
  -21.0994   19.2549  -21.0738 C   0  0  0  0  0  0  0  0  0  0  0  0
  -22.4291   18.6171  -20.8668 C   0  0  0  0  0  0  0  0  0  0  0  0
  -22.3443   17.1704  -20.7635 N   0  0  0  0  0  0  0  0  0  0  0  0
  -23.0500   16.6671  -21.3136 H   0  0  0  0  0  0  0  0  0  0  0  0
  -22.2417   16.7058  -19.4109 C   0  0  0  0  0  0  0  0  0  0  0  0
  -20.9187   16.0417  -19.1217 C   0  0  0  0  0  0  0  0  0  0  0  0
  -20.0811   16.7849  -18.1231 C   0  0  0  0  0  0  0  0  0  0  0  0
  -18.7376   16.4951  -18.2059 F   0  0  0  0  0  0  0  0  0  0  0  0
  -17.7857   13.9595  -20.1408 C   0  0  0  0  0  0  0  0  0  0  0  0
  -18.7237   13.0468  -19.5110 C   0  0  0  0  0  0  0  0  0  0  0  0
  -19.9629   12.9528  -20.1437 F   0  0  0  0  0  0  0  0  0  0  0  0
  -18.2562   11.6786  -19.7557 F   0  0  0  0  0  0  0  0  0  0  0  0
  -18.9479   13.0236  -18.0460 C   0  0  0  0  0  0  0  0  0  0  0  0
  -18.1210   13.7123  -17.2250 O   0  0  0  0  0  0  0  0  0  0  0  0
  -18.4314   14.6315  -17.0520 H   0  0  0  0  0  0  0  0  0  0  0  0
  1  2  1  0  0  0
  2  3  1  0  0  0
  3  4  1  0  0  0
  4  5  2  0  0  0
  5  6  1  0  0  0
  6  7  1  0  0  0
  7  8  2  0  0  0
  8  9  1  0  0  0
  9 10  2  0  0  0
 10 11  1  0  0  0
 11 12  2  0  0  0
  5 13  1  0  0  0
 13 16  1  0  0  0
 16 17  2  0  0  0
 17 18  1  0  0  0
 17 19  1  0  0  0
 19 20  2  0  0  0
 20 21  1  0  0  0
 21 24  1  0  0  0
 24 25  1  0  0  0
 25 26  1  0  0  0
 26 27  1  0  0  0
 27 29  1  0  0  0
 29 30  1  0  0  0
 30 31  1  0  0  0
 31 32  1  0  0  0
 21 22  2  0  0  0
 22 23  1  0  0  0
 13 14  1  0  0  0
 14 33  1  0  0  0
 33 34  1  0  0  0
 34 35  1  0  0  0
 34 36  1  0  0  0
 34 37  1  0  0  0
 37 38  1  0  0  0
 14  2  1  0  0  0
 12  4  1  0  0  0
 22 16  1  0  0  0
 12  7  1  0  0  0
  6 15  1  0  0  0
 27 28  1  0  0  0
 38 39  1  0  0  0
M  END
> <minimizedAffinity>
-7.16947

> <CNNscore>
0.1581428647

> <CNNaffinity>
6.6732673645

> <CNN_VS>
1.0553295612

> <CNNaffinity_variance>
0.5897319317

$$$$
[H]OC([H])([H])C(F)(F)C([H])([H])N1[C@]([H])(c2c(F)c([H])nc(OC([H])([H])C([H])([H])N([H])C([H])([H])C([H])([H])C([H])([H])F)c2F)c2c(c3c([H])c([H])c([H])c([H])c3n2[H])C([H])([H])[C@@]1([H])C([H])([H])[H]


 39 42  0  0  0  0  0  0  0  0999 V2000
  -18.2468   11.5261  -21.4346 C   0  0  0  0  0  0  0  0  0  0  0  0
  -17.3313   12.4779  -20.7126 C   0  0  0  0  0  0  0  0  0  0  0  0
  -17.0043   11.6929  -19.4084 C   0  0  0  0  0  0  0  0  0  0  0  0
  -18.2631   11.6959  -18.6408 C   0  0  0  0  0  0  0  0  0  0  0  0
  -19.1398   12.7440  -18.7549 C   0  0  0  0  0  0  0  0  0  0  0  0
  -20.1763   12.4464  -17.9406 N   0  0  0  0  0  0  0  0  0  0  0  0
  -19.9991   11.2731  -17.3232 C   0  0  0  0  0  0  0  0  0  0  0  0
  -20.7351   10.5324  -16.4172 C   0  0  0  0  0  0  0  0  0  0  0  0
  -20.2665    9.3235  -15.9549 C   0  0  0  0  0  0  0  0  0  0  0  0
  -19.0380    8.8122  -16.3863 C   0  0  0  0  0  0  0  0  0  0  0  0
  -18.3279    9.5717  -17.2883 C   0  0  0  0  0  0  0  0  0  0  0  0
  -18.7852   10.7800  -17.7570 C   0  0  0  0  0  0  0  0  0  0  0  0
  -18.9115   13.9328  -19.6268 C   0  0  0  0  0  0  0  0  0  0  0  0
  -17.7657   13.7690  -20.4657 N   0  0  0  0  0  0  0  0  0  0  0  0
  -21.0154   13.0467  -17.8015 H   0  0  0  0  0  0  0  0  0  0  0  0
  -19.0903   15.1932  -18.9250 C   0  0  0  0  0  0  0  0  0  0  0  0
  -18.5244   15.4513  -17.6950 C   0  0  0  0  0  0  0  0  0  0  0  0
  -17.7868   14.5079  -17.1235 F   0  0  0  0  0  0  0  0  0  0  0  0
  -18.6979   16.6562  -17.0373 C   0  0  0  0  0  0  0  0  0  0  0  0
  -19.4446   17.6149  -17.6127 N   0  0  0  0  0  0  0  0  0  0  0  0
  -20.0321   17.4470  -18.8087 C   0  0  0  0  0  0  0  0  0  0  0  0
  -19.8478   16.2346  -19.4530 C   0  0  0  0  0  0  0  0  0  0  0  0
  -20.4589   16.1028  -20.6598 F   0  0  0  0  0  0  0  0  0  0  0  0
  -20.7805   18.4575  -19.3468 O   0  0  0  0  0  0  0  0  0  0  0  0
  -21.9711   18.9929  -18.8606 C   0  0  0  0  0  0  0  0  0  0  0  0
  -23.0452   18.0044  -18.5661 C   0  0  0  0  0  0  0  0  0  0  0  0
  -23.2030   17.7587  -17.1430 N   0  0  0  0  0  0  0  0  0  0  0  0
  -22.4167   18.0860  -16.5697 H   0  0  0  0  0  0  0  0  0  0  0  0
  -23.6037   16.4152  -16.8427 C   0  0  0  0  0  0  0  0  0  0  0  0
  -22.4702   15.4277  -16.9660 C   0  0  0  0  0  0  0  0  0  0  0  0
  -21.8243   15.0905  -15.6545 C   0  0  0  0  0  0  0  0  0  0  0  0
  -21.2526   16.1743  -15.0266 F   0  0  0  0  0  0  0  0  0  0  0  0
  -17.2063   14.9169  -20.9722 C   0  0  0  0  0  0  0  0  0  0  0  0
  -17.3869   15.5015  -22.2895 C   0  0  0  0  0  0  0  0  0  0  0  0
  -18.6031   15.2000  -22.9016 F   0  0  0  0  0  0  0  0  0  0  0  0
  -17.5868   16.9443  -22.1198 F   0  0  0  0  0  0  0  0  0  0  0  0
  -16.3264   15.4710  -23.3246 C   0  0  0  0  0  0  0  0  0  0  0  0
  -15.3676   14.5166  -23.2817 O   0  0  0  0  0  0  0  0  0  0  0  0
  -15.6070   13.7099  -23.7946 H   0  0  0  0  0  0  0  0  0  0  0  0
  1  2  1  0  0  0
  2  3  1  0  0  0
  3  4  1  0  0  0
  4  5  2  0  0  0
  5  6  1  0  0  0
  6  7  1  0  0  0
  7  8  2  0  0  0
  8  9  1  0  0  0
  9 10  2  0  0  0
 10 11  1  0  0  0
 11 12  2  0  0  0
  5 13  1  0  0  0
 13 16  1  0  0  0
 16 17  2  0  0  0
 17 18  1  0  0  0
 17 19  1  0  0  0
 19 20  2  0  0  0
 20 21  1  0  0  0
 21 24  1  0  0  0
 24 25  1  0  0  0
 25 26  1  0  0  0
 26 27  1  0  0  0
 27 29  1  0  0  0
 29 30  1  0  0  0
 30 31  1  0  0  0
 31 32  1  0  0  0
 21 22  2  0  0  0
 22 23  1  0  0  0
 13 14  1  0  0  0
 14 33  1  0  0  0
 33 34  1  0  0  0
 34 35  1  0  0  0
 34 36  1  0  0  0
 34 37  1  0  0  0
 37 38  1  0  0  0
 14  2  1  0  0  0
 12  4  1  0  0  0
 22 16  1  0  0  0
 12  7  1  0  0  0
  6 15  1  0  0  0
 27 28  1  0  0  0
 38 39  1  0  0  0
M  END
> <minimizedAffinity>
-6.57013

> <CNNscore>
0.1577542275

> <CNNaffinity>
6.3377599716

> <CNN_VS>
0.9998084307

> <CNNaffinity_variance>
0.4395448565

$$$$
[H]c1c([H])c(C([H])(C(=O)N([H])C([H])([H])c2c([H])c([H])c(C(F)(F)F)c([H])c2C2([H])C([H])([H])C([H])([H])C([H])([H])C([H])([H])C2([H])[H])C([H])([H])[H])c([H])c(F)c1N([H])S(=O)(=O)C([H])([H])[H]


 36 38  0  0  0  0  0  0  0  0999 V2000
  -17.1419   10.7768  -20.7219 C   0  0  0  0  0  0  0  0  0  0  0  0
  -16.9170    9.7072  -20.7825 O   0  0  0  0  0  0  0  0  0  0  0  0
  -17.5250   11.9869  -21.3127 N   0  0  0  0  0  0  0  0  0  0  0  0
  -17.7184   11.3274  -22.5361 H   0  0  0  0  0  0  0  0  0  0  0  0
  -15.7160   10.9127  -18.9018 C   0  0  0  0  0  0  0  0  0  0  0  0
  -17.0848   11.5463  -19.2450 C   0  0  0  0  0  0  0  0  0  0  0  0
  -18.0920   11.0128  -18.3999 C   0  0  0  0  0  0  0  0  0  0  0  0
  -18.0594    9.7825  -17.8795 C   0  0  0  0  0  0  0  0  0  0  0  0
  -18.9257    9.3157  -16.9868 C   0  0  0  0  0  0  0  0  0  0  0  0
  -20.0091   10.1868  -16.5589 C   0  0  0  0  0  0  0  0  0  0  0  0
  -20.0492   11.3849  -17.0824 C   0  0  0  0  0  0  0  0  0  0  0  0
  -21.1634   12.1737  -16.7598 F   0  0  0  0  0  0  0  0  0  0  0  0
  -19.1529   11.9105  -17.9886 C   0  0  0  0  0  0  0  0  0  0  0  0
  -20.6310    9.6152  -15.4321 N   0  0  0  0  0  0  0  0  0  0  0  0
  -21.3565    8.8122  -15.7839 H   0  0  0  0  0  0  0  0  0  0  0  0
  -20.4696    9.7612  -13.7999 S   0  0  0  0  0  0  0  0  0  0  0  0
  -19.2209    8.6320  -13.1755 C   0  0  0  0  0  0  0  0  0  0  0  0
  -21.7718    9.7012  -13.1042 O   0  0  0  0  0  0  0  0  0  0  0  0
  -19.8440   11.1712  -13.5424 O   0  0  0  0  0  0  0  0  0  0  0  0
  -17.8674   13.0638  -21.8471 C   0  0  0  0  0  0  0  0  0  0  0  0
  -17.4707   13.7096  -23.1246 C   0  0  0  0  0  0  0  0  0  0  0  0
  -17.2659   13.1273  -24.3482 C   0  0  0  0  0  0  0  0  0  0  0  0
  -16.4403   13.7383  -25.3436 C   0  0  0  0  0  0  0  0  0  0  0  0
  -15.8850   14.8917  -25.0278 C   0  0  0  0  0  0  0  0  0  0  0  0
  -16.0654   15.4985  -23.7920 C   0  0  0  0  0  0  0  0  0  0  0  0
  -16.8272   14.9481  -22.8692 C   0  0  0  0  0  0  0  0  0  0  0  0
  -17.3220   15.5311  -21.5791 C   0  0  0  0  0  0  0  0  0  0  0  0
  -18.7275   16.1346  -21.7939 C   0  0  0  0  0  0  0  0  0  0  0  0
  -18.8231   17.2883  -22.6826 C   0  0  0  0  0  0  0  0  0  0  0  0
  -17.8777   18.3908  -22.2693 C   0  0  0  0  0  0  0  0  0  0  0  0
  -17.0932   18.0046  -21.0410 C   0  0  0  0  0  0  0  0  0  0  0  0
  -16.4387   16.6631  -21.0910 C   0  0  0  0  0  0  0  0  0  0  0  0
  -14.7296   15.4583  -25.8863 C   0  0  0  0  0  0  0  0  0  0  0  0
  -14.8622   15.3892  -27.1646 F   0  0  0  0  0  0  0  0  0  0  0  0
  -13.5733   14.8974  -25.3919 F   0  0  0  0  0  0  0  0  0  0  0  0
  -14.6341   16.8279  -25.4869 F   0  0  0  0  0  0  0  0  0  0  0  0
  5  6  1  0  0  0
  6  1  1  0  0  0
  1  2  2  0  0  0
  1  3  1  0  0  0
  3 20  1  0  0  0
 20 21  1  0  0  0
 21 22  2  0  0  0
 22 23  1  0  0  0
 23 24  2  0  0  0
 24 33  1  0  0  0
 33 34  1  0  0  0
 33 35  1  0  0  0
 33 36  1  0  0  0
 24 25  1  0  0  0
 25 26  2  0  0  0
 26 27  1  0  0  0
 27 28  1  0  0  0
 28 29  1  0  0  0
 29 30  1  0  0  0
 30 31  1  0  0  0
 31 32  1  0  0  0
  6  7  1  0  0  0
  7  8  2  0  0  0
  8  9  1  0  0  0
  9 10  2  0  0  0
 10 14  1  0  0  0
 14 16  1  0  0  0
 16 17  1  0  0  0
 16 18  2  0  0  0
 16 19  2  0  0  0
 10 11  1  0  0  0
 11 12  1  0  0  0
 11 13  2  0  0  0
 26 21  1  0  0  0
 32 27  1  0  0  0
 13  7  1  0  0  0
  3  4  1  0  0  0
 14 15  1  0  0  0
M  END
> <minimizedAffinity>
-9.52298

> <CNNscore>
0.6039516330

> <CNNaffinity>
7.5640029907

> <CNN_VS>
4.5682921410

> <CNNaffinity_variance>
0.4713649154

$$$$
[H]c1c([H])c(C([H])(C(=O)N([H])C([H])([H])c2c([H])c([H])c(C(F)(F)F)c([H])c2C2([H])C([H])([H])C([H])([H])C([H])([H])C([H])([H])C2([H])[H])C([H])([H])[H])c([H])c(F)c1N([H])S(=O)(=O)C([H])([H])[H]


 36 38  0  0  0  0  0  0  0  0999 V2000
  -16.6263   10.4256  -20.5005 C   0  0  0  0  0  0  0  0  0  0  0  0
  -16.2144    9.4258  -20.3301 O   0  0  0  0  0  0  0  0  0  0  0  0
  -17.1470   11.4118  -21.3470 N   0  0  0  0  0  0  0  0  0  0  0  0
  -17.0896   10.5155  -22.4251 H   0  0  0  0  0  0  0  0  0  0  0  0
  -15.5297   11.0218  -18.5495 C   0  0  0  0  0  0  0  0  0  0  0  0
  -16.8637   11.4482  -19.2065 C   0  0  0  0  0  0  0  0  0  0  0  0
  -17.9571   10.9791  -18.4334 C   0  0  0  0  0  0  0  0  0  0  0  0
  -18.0413    9.7462  -17.9253 C   0  0  0  0  0  0  0  0  0  0  0  0
  -18.9930    9.3337  -17.0949 C   0  0  0  0  0  0  0  0  0  0  0  0
  -20.0406   10.2737  -16.7280 C   0  0  0  0  0  0  0  0  0  0  0  0
  -19.9658   11.4750  -17.2402 C   0  0  0  0  0  0  0  0  0  0  0  0
  -21.0428   12.3357  -16.9812 F   0  0  0  0  0  0  0  0  0  0  0  0
  -18.9794   11.9442  -18.0813 C   0  0  0  0  0  0  0  0  0  0  0  0
  -20.7712    9.7386  -15.6496 N   0  0  0  0  0  0  0  0  0  0  0  0
  -21.4808    8.9435  -16.0485 H   0  0  0  0  0  0  0  0  0  0  0  0
  -20.7500    9.9151  -14.0127 S   0  0  0  0  0  0  0  0  0  0  0  0
  -19.2967    9.1356  -13.3024 C   0  0  0  0  0  0  0  0  0  0  0  0
  -22.0342    9.5263  -13.3941 O   0  0  0  0  0  0  0  0  0  0  0  0
  -20.5165   11.4366  -13.7356 O   0  0  0  0  0  0  0  0  0  0  0  0
  -17.6108   12.2876  -22.1088 C   0  0  0  0  0  0  0  0  0  0  0  0
  -17.7690   13.7564  -21.9546 C   0  0  0  0  0  0  0  0  0  0  0  0
  -18.2722   14.4537  -20.8875 C   0  0  0  0  0  0  0  0  0  0  0  0
  -18.8163   15.7681  -21.0366 C   0  0  0  0  0  0  0  0  0  0  0  0
  -18.8100   16.2787  -22.2521 C   0  0  0  0  0  0  0  0  0  0  0  0
  -18.3177   15.5906  -23.3530 C   0  0  0  0  0  0  0  0  0  0  0  0
  -17.8096   14.3818  -23.2276 C   0  0  0  0  0  0  0  0  0  0  0  0
  -17.0403   13.5702  -24.2269 C   0  0  0  0  0  0  0  0  0  0  0  0
  -15.5456   13.9538  -24.1582 C   0  0  0  0  0  0  0  0  0  0  0  0
  -15.1920   15.3111  -24.5614 C   0  0  0  0  0  0  0  0  0  0  0  0
  -15.7159   15.6383  -25.9394 C   0  0  0  0  0  0  0  0  0  0  0  0
  -16.4586   14.4679  -26.5326 C   0  0  0  0  0  0  0  0  0  0  0  0
  -17.4893   13.8451  -25.6491 C   0  0  0  0  0  0  0  0  0  0  0  0
  -19.6630   17.5285  -22.5740 C   0  0  0  0  0  0  0  0  0  0  0  0
  -19.0695   18.6695  -22.5281 F   0  0  0  0  0  0  0  0  0  0  0  0
  -20.7947   17.4316  -21.7955 F   0  0  0  0  0  0  0  0  0  0  0  0
  -20.1471   17.2919  -23.8985 F   0  0  0  0  0  0  0  0  0  0  0  0
  5  6  1  0  0  0
  6  1  1  0  0  0
  1  2  2  0  0  0
  1  3  1  0  0  0
  3 20  1  0  0  0
 20 21  1  0  0  0
 21 22  2  0  0  0
 22 23  1  0  0  0
 23 24  2  0  0  0
 24 33  1  0  0  0
 33 34  1  0  0  0
 33 35  1  0  0  0
 33 36  1  0  0  0
 24 25  1  0  0  0
 25 26  2  0  0  0
 26 27  1  0  0  0
 27 28  1  0  0  0
 28 29  1  0  0  0
 29 30  1  0  0  0
 30 31  1  0  0  0
 31 32  1  0  0  0
  6  7  1  0  0  0
  7  8  2  0  0  0
  8  9  1  0  0  0
  9 10  2  0  0  0
 10 14  1  0  0  0
 14 16  1  0  0  0
 16 17  1  0  0  0
 16 18  2  0  0  0
 16 19  2  0  0  0
 10 11  1  0  0  0
 11 12  1  0  0  0
 11 13  2  0  0  0
 26 21  1  0  0  0
 32 27  1  0  0  0
 13  7  1  0  0  0
  3  4  1  0  0  0
 14 15  1  0  0  0
M  END
> <minimizedAffinity>
-9.49379

> <CNNscore>
0.5987231731

> <CNNaffinity>
7.4986677170

> <CNN_VS>
4.4896259308

> <CNNaffinity_variance>
0.4379377365

$$$$
[H]c1c([H])c(C([H])(C(=O)N([H])C([H])([H])c2c([H])c([H])c(C(F)(F)F)c([H])c2C2([H])C([H])([H])C([H])([H])C([H])([H])C([H])([H])C2([H])[H])C([H])([H])[H])c([H])c(F)c1N([H])S(=O)(=O)C([H])([H])[H]


 36 38  0  0  0  0  0  0  0  0999 V2000
  -16.9406   11.5359  -19.1990 C   0  0  0  0  0  0  0  0  0  0  0  0
  -16.2526   10.9978  -18.5391 O   0  0  0  0  0  0  0  0  0  0  0  0
  -17.2226   12.2097  -20.3935 N   0  0  0  0  0  0  0  0  0  0  0  0
  -15.9301   11.9235  -20.8589 H   0  0  0  0  0  0  0  0  0  0  0  0
  -18.2211   13.0917  -18.0570 C   0  0  0  0  0  0  0  0  0  0  0  0
  -18.5297   11.7387  -18.7403 C   0  0  0  0  0  0  0  0  0  0  0  0
  -18.8625   10.7659  -17.7624 C   0  0  0  0  0  0  0  0  0  0  0  0
  -18.3916    9.5155  -17.7587 C   0  0  0  0  0  0  0  0  0  0  0  0
  -18.5904    8.6354  -16.7834 C   0  0  0  0  0  0  0  0  0  0  0  0
  -19.4015    9.0405  -15.6461 C   0  0  0  0  0  0  0  0  0  0  0  0
  -19.8759   10.2595  -15.6598 C   0  0  0  0  0  0  0  0  0  0  0  0
  -20.7564   10.6019  -14.6228 F   0  0  0  0  0  0  0  0  0  0  0  0
  -19.6671   11.2060  -16.6402 C   0  0  0  0  0  0  0  0  0  0  0  0
  -19.2579    8.0826  -14.6238 N   0  0  0  0  0  0  0  0  0  0  0  0
  -18.3661    8.3694  -13.9778 H   0  0  0  0  0  0  0  0  0  0  0  0
  -20.1136    6.7722  -14.1122 S   0  0  0  0  0  0  0  0  0  0  0  0
  -20.0467    6.6210  -12.3242 C   0  0  0  0  0  0  0  0  0  0  0  0
  -19.7556    5.5478  -14.8577 O   0  0  0  0  0  0  0  0  0  0  0  0
  -21.6189    7.0909  -14.3925 O   0  0  0  0  0  0  0  0  0  0  0  0
  -17.4668   12.8103  -21.4621 C   0  0  0  0  0  0  0  0  0  0  0  0
  -17.6227   14.2533  -21.7780 C   0  0  0  0  0  0  0  0  0  0  0  0
  -17.9814   15.2769  -20.9403 C   0  0  0  0  0  0  0  0  0  0  0  0
  -18.5596   16.4876  -21.4361 C   0  0  0  0  0  0  0  0  0  0  0  0
  -18.7306   16.5727  -22.7406 C   0  0  0  0  0  0  0  0  0  0  0  0
  -18.3875   15.5471  -23.6114 C   0  0  0  0  0  0  0  0  0  0  0  0
  -17.8499   14.4297  -23.1674 C   0  0  0  0  0  0  0  0  0  0  0  0
  -17.2166   13.3116  -23.9406 C   0  0  0  0  0  0  0  0  0  0  0  0
  -15.7607   13.6902  -24.2914 C   0  0  0  0  0  0  0  0  0  0  0  0
  -15.5710   14.8116  -25.2060 C   0  0  0  0  0  0  0  0  0  0  0  0
  -16.3478   14.6242  -26.4873 C   0  0  0  0  0  0  0  0  0  0  0  0
  -17.1059   13.3209  -26.4799 C   0  0  0  0  0  0  0  0  0  0  0  0
  -17.9241   13.0593  -25.2581 C   0  0  0  0  0  0  0  0  0  0  0  0
  -19.6379   17.6760  -23.3346 C   0  0  0  0  0  0  0  0  0  0  0  0
  -20.5284   17.3053  -24.1866 F   0  0  0  0  0  0  0  0  0  0  0  0
  -18.7940   18.6717  -23.7736 F   0  0  0  0  0  0  0  0  0  0  0  0
  -20.2763   18.2573  -22.1948 F   0  0  0  0  0  0  0  0  0  0  0  0
  5  6  1  0  0  0
  6  1  1  0  0  0
  1  2  2  0  0  0
  1  3  1  0  0  0
  3 20  1  0  0  0
 20 21  1  0  0  0
 21 22  2  0  0  0
 22 23  1  0  0  0
 23 24  2  0  0  0
 24 33  1  0  0  0
 33 34  1  0  0  0
 33 35  1  0  0  0
 33 36  1  0  0  0
 24 25  1  0  0  0
 25 26  2  0  0  0
 26 27  1  0  0  0
 27 28  1  0  0  0
 28 29  1  0  0  0
 29 30  1  0  0  0
 30 31  1  0  0  0
 31 32  1  0  0  0
  6  7  1  0  0  0
  7  8  2  0  0  0
  8  9  1  0  0  0
  9 10  2  0  0  0
 10 14  1  0  0  0
 14 16  1  0  0  0
 16 17  1  0  0  0
 16 18  2  0  0  0
 16 19  2  0  0  0
 10 11  1  0  0  0
 11 12  1  0  0  0
 11 13  2  0  0  0
 26 21  1  0  0  0
 32 27  1  0  0  0
 13  7  1  0  0  0
  3  4  1  0  0  0
 14 15  1  0  0  0
M  END
> <minimizedAffinity>
-9.44968

> <CNNscore>
0.3946846426

> <CNNaffinity>
7.0160636902

> <CNN_VS>
2.7691326141

> <CNNaffinity_variance>
0.5408722758

$$$$
[H]c1c([H])c(C([H])(C(=O)N([H])C([H])([H])c2c([H])c([H])c(C(F)(F)F)c([H])c2C2([H])C([H])([H])C([H])([H])C([H])([H])C([H])([H])C2([H])[H])C([H])([H])[H])c([H])c(F)c1N([H])S(=O)(=O)C([H])([H])[H]


 36 38  0  0  0  0  0  0  0  0999 V2000
  -17.2814   10.9915  -20.8158 C   0  0  0  0  0  0  0  0  0  0  0  0
  -17.4783    9.9148  -20.8005 O   0  0  0  0  0  0  0  0  0  0  0  0
  -17.2546   12.2262  -21.4754 N   0  0  0  0  0  0  0  0  0  0  0  0
  -17.8210   11.6300  -22.6124 H   0  0  0  0  0  0  0  0  0  0  0  0
  -16.3114   10.4183  -18.7922 C   0  0  0  0  0  0  0  0  0  0  0  0
  -16.7701   11.7534  -19.4248 C   0  0  0  0  0  0  0  0  0  0  0  0
  -17.8970   12.2592  -18.7267 C   0  0  0  0  0  0  0  0  0  0  0  0
  -18.2806   13.5389  -18.7500 C   0  0  0  0  0  0  0  0  0  0  0  0
  -19.4022   14.0024  -18.2092 C   0  0  0  0  0  0  0  0  0  0  0  0
  -20.2692   13.0643  -17.5136 C   0  0  0  0  0  0  0  0  0  0  0  0
  -19.8834   11.8148  -17.4771 C   0  0  0  0  0  0  0  0  0  0  0  0
  -20.6595   10.9409  -16.7014 F   0  0  0  0  0  0  0  0  0  0  0  0
  -18.7420   11.2956  -18.0499 C   0  0  0  0  0  0  0  0  0  0  0  0
  -21.5063   13.6899  -17.2657 N   0  0  0  0  0  0  0  0  0  0  0  0
  -22.3298   13.0774  -17.7574 H   0  0  0  0  0  0  0  0  0  0  0  0
  -22.0144   14.9785  -16.3756 S   0  0  0  0  0  0  0  0  0  0  0  0
  -22.6567   14.4461  -14.7856 C   0  0  0  0  0  0  0  0  0  0  0  0
  -22.9076   15.8692  -17.1450 O   0  0  0  0  0  0  0  0  0  0  0  0
  -20.7303   15.7862  -15.9952 O   0  0  0  0  0  0  0  0  0  0  0  0
  -17.2331   13.3250  -22.0709 C   0  0  0  0  0  0  0  0  0  0  0  0
  -17.3771   13.6807  -23.5059 C   0  0  0  0  0  0  0  0  0  0  0  0
  -17.3456   12.8534  -24.5980 C   0  0  0  0  0  0  0  0  0  0  0  0
  -17.0097   13.3395  -25.9007 C   0  0  0  0  0  0  0  0  0  0  0  0
  -16.7322   14.6244  -26.0014 C   0  0  0  0  0  0  0  0  0  0  0  0
  -16.7448   15.4830  -24.9102 C   0  0  0  0  0  0  0  0  0  0  0  0
  -17.0573   15.0484  -23.7068 C   0  0  0  0  0  0  0  0  0  0  0  0
  -17.3400   15.8337  -22.4608 C   0  0  0  0  0  0  0  0  0  0  0  0
  -18.8516   16.1404  -22.3791 C   0  0  0  0  0  0  0  0  0  0  0  0
  -19.4038   17.0223  -23.4025 C   0  0  0  0  0  0  0  0  0  0  0  0
  -18.6460   18.3259  -23.4837 C   0  0  0  0  0  0  0  0  0  0  0  0
  -17.5247   18.3686  -22.4766 C   0  0  0  0  0  0  0  0  0  0  0  0
  -16.6293   17.1733  -22.4595 C   0  0  0  0  0  0  0  0  0  0  0  0
  -16.0434   15.1729  -27.2733 C   0  0  0  0  0  0  0  0  0  0  0  0
  -14.7592   15.2553  -27.2539 F   0  0  0  0  0  0  0  0  0  0  0  0
  -16.6952   16.3444  -27.5879 F   0  0  0  0  0  0  0  0  0  0  0  0
  -16.4513   14.2750  -28.3087 F   0  0  0  0  0  0  0  0  0  0  0  0
  5  6  1  0  0  0
  6  1  1  0  0  0
  1  2  2  0  0  0
  1  3  1  0  0  0
  3 20  1  0  0  0
 20 21  1  0  0  0
 21 22  2  0  0  0
 22 23  1  0  0  0
 23 24  2  0  0  0
 24 33  1  0  0  0
 33 34  1  0  0  0
 33 35  1  0  0  0
 33 36  1  0  0  0
 24 25  1  0  0  0
 25 26  2  0  0  0
 26 27  1  0  0  0
 27 28  1  0  0  0
 28 29  1  0  0  0
 29 30  1  0  0  0
 30 31  1  0  0  0
 31 32  1  0  0  0
  6  7  1  0  0  0
  7  8  2  0  0  0
  8  9  1  0  0  0
  9 10  2  0  0  0
 10 14  1  0  0  0
 14 16  1  0  0  0
 16 17  1  0  0  0
 16 18  2  0  0  0
 16 19  2  0  0  0
 10 11  1  0  0  0
 11 12  1  0  0  0
 11 13  2  0  0  0
 26 21  1  0  0  0
 32 27  1  0  0  0
 13  7  1  0  0  0
  3  4  1  0  0  0
 14 15  1  0  0  0
M  END
> <minimizedAffinity>
-8.76352

> <CNNscore>
0.3862457573

> <CNNaffinity>
7.2758703232

> <CNN_VS>
2.8102741241

> <CNNaffinity_variance>
0.4612157941

$$$$
[H]c1c([H])c(C([H])(C(=O)N([H])C([H])([H])c2c([H])c([H])c(C(F)(F)F)c([H])c2C2([H])C([H])([H])C([H])([H])C([H])([H])C([H])([H])C2([H])[H])C([H])([H])[H])c([H])c(F)c1N([H])S(=O)(=O)C([H])([H])[H]


 36 38  0  0  0  0  0  0  0  0999 V2000
  -17.1566   11.5964  -19.1405 C   0  0  0  0  0  0  0  0  0  0  0  0
  -16.5890   10.9898  -18.4277 O   0  0  0  0  0  0  0  0  0  0  0  0
  -17.2743   12.2627  -20.3663 N   0  0  0  0  0  0  0  0  0  0  0  0
  -16.0115   11.7836  -20.7469 H   0  0  0  0  0  0  0  0  0  0  0  0
  -18.2779   13.4152  -18.2466 C   0  0  0  0  0  0  0  0  0  0  0  0
  -18.7239   12.0342  -18.7821 C   0  0  0  0  0  0  0  0  0  0  0  0
  -19.2019   11.2311  -17.7145 C   0  0  0  0  0  0  0  0  0  0  0  0
  -20.1660   11.6055  -16.8685 C   0  0  0  0  0  0  0  0  0  0  0  0
  -20.7122   10.8184  -15.9480 C   0  0  0  0  0  0  0  0  0  0  0  0
  -20.2135    9.4579  -15.8226 C   0  0  0  0  0  0  0  0  0  0  0  0
  -19.2577    9.0985  -16.6403 C   0  0  0  0  0  0  0  0  0  0  0  0
  -18.6983    7.8291  -16.4324 F   0  0  0  0  0  0  0  0  0  0  0  0
  -18.6878    9.8790  -17.6235 C   0  0  0  0  0  0  0  0  0  0  0  0
  -21.0947    8.7267  -15.0028 N   0  0  0  0  0  0  0  0  0  0  0  0
  -21.9153    9.4245  -14.6359 H   0  0  0  0  0  0  0  0  0  0  0  0
  -21.2598    7.1465  -14.5705 S   0  0  0  0  0  0  0  0  0  0  0  0
  -21.5266    6.1115  -16.0133 C   0  0  0  0  0  0  0  0  0  0  0  0
  -22.2419    6.9671  -13.4812 O   0  0  0  0  0  0  0  0  0  0  0  0
  -19.8608    6.6836  -14.0465 O   0  0  0  0  0  0  0  0  0  0  0  0
  -17.3720   12.8555  -21.4624 C   0  0  0  0  0  0  0  0  0  0  0  0
  -17.5342   14.2919  -21.8044 C   0  0  0  0  0  0  0  0  0  0  0  0
  -17.8450   15.3374  -20.9747 C   0  0  0  0  0  0  0  0  0  0  0  0
  -18.4392   16.5404  -21.4703 C   0  0  0  0  0  0  0  0  0  0  0  0
  -18.6735   16.5963  -22.7666 C   0  0  0  0  0  0  0  0  0  0  0  0
  -18.3800   15.5480  -23.6285 C   0  0  0  0  0  0  0  0  0  0  0  0
  -17.8282   14.4373  -23.1849 C   0  0  0  0  0  0  0  0  0  0  0  0
  -17.2405   13.2968  -23.9614 C   0  0  0  0  0  0  0  0  0  0  0  0
  -15.7865   13.6387  -24.3548 C   0  0  0  0  0  0  0  0  0  0  0  0
  -15.5965   14.7454  -25.2871 C   0  0  0  0  0  0  0  0  0  0  0  0
  -16.4110   14.5612  -26.5452 C   0  0  0  0  0  0  0  0  0  0  0  0
  -17.1973   13.2754  -26.5026 C   0  0  0  0  0  0  0  0  0  0  0  0
  -17.9882   13.0458  -25.2567 C   0  0  0  0  0  0  0  0  0  0  0  0
  -19.6019   17.6920  -23.3415 C   0  0  0  0  0  0  0  0  0  0  0  0
  -20.4804   17.3203  -24.2055 F   0  0  0  0  0  0  0  0  0  0  0  0
  -18.7780   18.7148  -23.7552 F   0  0  0  0  0  0  0  0  0  0  0  0
  -20.2578   18.2350  -22.1928 F   0  0  0  0  0  0  0  0  0  0  0  0
  5  6  1  0  0  0
  6  1  1  0  0  0
  1  2  2  0  0  0
  1  3  1  0  0  0
  3 20  1  0  0  0
 20 21  1  0  0  0
 21 22  2  0  0  0
 22 23  1  0  0  0
 23 24  2  0  0  0
 24 33  1  0  0  0
 33 34  1  0  0  0
 33 35  1  0  0  0
 33 36  1  0  0  0
 24 25  1  0  0  0
 25 26  2  0  0  0
 26 27  1  0  0  0
 27 28  1  0  0  0
 28 29  1  0  0  0
 29 30  1  0  0  0
 30 31  1  0  0  0
 31 32  1  0  0  0
  6  7  1  0  0  0
  7  8  2  0  0  0
  8  9  1  0  0  0
  9 10  2  0  0  0
 10 14  1  0  0  0
 14 16  1  0  0  0
 16 17  1  0  0  0
 16 18  2  0  0  0
 16 19  2  0  0  0
 10 11  1  0  0  0
 11 12  1  0  0  0
 11 13  2  0  0  0
 26 21  1  0  0  0
 32 27  1  0  0  0
 13  7  1  0  0  0
  3  4  1  0  0  0
 14 15  1  0  0  0
M  END
> <minimizedAffinity>
-9.01456

> <CNNscore>
0.3563619554

> <CNNaffinity>
7.0258474350

> <CNN_VS>
2.5037448406

> <CNNaffinity_variance>
0.6293691397

$$$$
[H]c1c([H])c(C([H])(C(=O)N([H])C([H])([H])c2c([H])c([H])c(C(F)(F)F)c([H])c2C2([H])C([H])([H])C([H])([H])C([H])([H])C([H])([H])C2([H])[H])C([H])([H])[H])c([H])c(F)c1N([H])S(=O)(=O)C([H])([H])[H]


 36 38  0  0  0  0  0  0  0  0999 V2000
  -16.5851   11.4676  -19.5323 C   0  0  0  0  0  0  0  0  0  0  0  0
  -16.0292   10.9693  -18.7317 O   0  0  0  0  0  0  0  0  0  0  0  0
  -16.6309   12.2325  -20.7041 N   0  0  0  0  0  0  0  0  0  0  0  0
  -15.2291   12.2222  -20.7645 H   0  0  0  0  0  0  0  0  0  0  0  0
  -18.2444   11.0600  -21.0959 C   0  0  0  0  0  0  0  0  0  0  0  0
  -18.2466   11.3488  -19.5762 C   0  0  0  0  0  0  0  0  0  0  0  0
  -18.8140   12.6249  -19.3256 C   0  0  0  0  0  0  0  0  0  0  0  0
  -19.8206   13.1491  -20.0310 C   0  0  0  0  0  0  0  0  0  0  0  0
  -20.4462   14.2818  -19.7294 C   0  0  0  0  0  0  0  0  0  0  0  0
  -19.9932   15.0292  -18.5668 C   0  0  0  0  0  0  0  0  0  0  0  0
  -18.9964   14.5231  -17.8875 C   0  0  0  0  0  0  0  0  0  0  0  0
  -18.4857   15.3084  -16.8433 F   0  0  0  0  0  0  0  0  0  0  0  0
  -18.3433   13.3389  -18.1555 C   0  0  0  0  0  0  0  0  0  0  0  0
  -20.9449   16.0236  -18.2693 N   0  0  0  0  0  0  0  0  0  0  0  0
  -21.7488   15.5714  -17.6028 H   0  0  0  0  0  0  0  0  0  0  0  0
  -21.0885   17.6379  -18.5602 S   0  0  0  0  0  0  0  0  0  0  0  0
  -21.5743   18.5169  -17.0717 C   0  0  0  0  0  0  0  0  0  0  0  0
  -21.9175   17.9174  -19.7509 O   0  0  0  0  0  0  0  0  0  0  0  0
  -19.6431   18.1668  -18.8376 O   0  0  0  0  0  0  0  0  0  0  0  0
  -16.6640   12.9160  -21.7501 C   0  0  0  0  0  0  0  0  0  0  0  0
  -16.8942   14.3647  -21.9837 C   0  0  0  0  0  0  0  0  0  0  0  0
  -17.0856   15.3588  -21.0600 C   0  0  0  0  0  0  0  0  0  0  0  0
  -17.7636   16.5738  -21.3916 C   0  0  0  0  0  0  0  0  0  0  0  0
  -18.1960   16.6928  -22.6314 C   0  0  0  0  0  0  0  0  0  0  0  0
  -18.0267   15.6973  -23.5844 C   0  0  0  0  0  0  0  0  0  0  0  0
  -17.3997   14.5763  -23.2925 C   0  0  0  0  0  0  0  0  0  0  0  0
  -16.9255   13.4902  -24.2115 C   0  0  0  0  0  0  0  0  0  0  0  0
  -15.4942   13.8140  -24.6935 C   0  0  0  0  0  0  0  0  0  0  0  0
  -15.3317   14.9928  -25.5386 C   0  0  0  0  0  0  0  0  0  0  0  0
  -16.2512   14.9521  -26.7357 C   0  0  0  0  0  0  0  0  0  0  0  0
  -17.0862   13.6966  -26.7397 C   0  0  0  0  0  0  0  0  0  0  0  0
  -17.7843   13.3840  -25.4569 C   0  0  0  0  0  0  0  0  0  0  0  0
  -19.2151   17.7981  -22.9958 C   0  0  0  0  0  0  0  0  0  0  0  0
  -19.8047   18.3951  -22.0199 F   0  0  0  0  0  0  0  0  0  0  0  0
  -20.0594   17.2475  -23.9340 F   0  0  0  0  0  0  0  0  0  0  0  0
  -18.4522   18.7454  -23.7477 F   0  0  0  0  0  0  0  0  0  0  0  0
  5  6  1  0  0  0
  6  1  1  0  0  0
  1  2  2  0  0  0
  1  3  1  0  0  0
  3 20  1  0  0  0
 20 21  1  0  0  0
 21 22  2  0  0  0
 22 23  1  0  0  0
 23 24  2  0  0  0
 24 33  1  0  0  0
 33 34  1  0  0  0
 33 35  1  0  0  0
 33 36  1  0  0  0
 24 25  1  0  0  0
 25 26  2  0  0  0
 26 27  1  0  0  0
 27 28  1  0  0  0
 28 29  1  0  0  0
 29 30  1  0  0  0
 30 31  1  0  0  0
 31 32  1  0  0  0
  6  7  1  0  0  0
  7  8  2  0  0  0
  8  9  1  0  0  0
  9 10  2  0  0  0
 10 14  1  0  0  0
 14 16  1  0  0  0
 16 17  1  0  0  0
 16 18  2  0  0  0
 16 19  2  0  0  0
 10 11  1  0  0  0
 11 12  1  0  0  0
 11 13  2  0  0  0
 26 21  1  0  0  0
 32 27  1  0  0  0
 13  7  1  0  0  0
  3  4  1  0  0  0
 14 15  1  0  0  0
M  END
> <minimizedAffinity>
-7.83443

> <CNNscore>
0.3211417496

> <CNNaffinity>
7.2036542892

> <CNN_VS>
2.3133940697

> <CNNaffinity_variance>
0.4228599668

$$$$
[H]c1c([H])c(C([H])(C(=O)N([H])C([H])([H])c2c([H])c([H])c(C(F)(F)F)c([H])c2C2([H])C([H])([H])C([H])([H])C([H])([H])C([H])([H])C2([H])[H])C([H])([H])[H])c([H])c(F)c1N([H])S(=O)(=O)C([H])([H])[H]


 36 38  0  0  0  0  0  0  0  0999 V2000
  -17.2614   10.9219  -20.4737 C   0  0  0  0  0  0  0  0  0  0  0  0
  -16.8510    9.9139  -20.5914 O   0  0  0  0  0  0  0  0  0  0  0  0
  -17.9831   12.0189  -20.9593 N   0  0  0  0  0  0  0  0  0  0  0  0
  -18.2896   11.3001  -22.1248 H   0  0  0  0  0  0  0  0  0  0  0  0
  -15.7694   10.9355  -18.7022 C   0  0  0  0  0  0  0  0  0  0  0  0
  -17.0555   11.7297  -19.0308 C   0  0  0  0  0  0  0  0  0  0  0  0
  -18.0942   11.3628  -18.1365 C   0  0  0  0  0  0  0  0  0  0  0  0
  -18.9922   12.2184  -17.6395 C   0  0  0  0  0  0  0  0  0  0  0  0
  -20.0441   11.8698  -16.9065 C   0  0  0  0  0  0  0  0  0  0  0  0
  -20.2265   10.4617  -16.5911 C   0  0  0  0  0  0  0  0  0  0  0  0
  -19.3367    9.6276  -17.0642 C   0  0  0  0  0  0  0  0  0  0  0  0
  -19.4495    8.2907  -16.6545 F   0  0  0  0  0  0  0  0  0  0  0  0
  -18.2506    9.9509  -17.8493 C   0  0  0  0  0  0  0  0  0  0  0  0
  -21.5175   10.2808  -16.0586 N   0  0  0  0  0  0  0  0  0  0  0  0
  -22.2710   10.7770  -16.7522 H   0  0  0  0  0  0  0  0  0  0  0  0
  -22.1589    9.4585  -14.7844 S   0  0  0  0  0  0  0  0  0  0  0  0
  -22.6536    7.8031  -15.2731 C   0  0  0  0  0  0  0  0  0  0  0  0
  -23.1979   10.2409  -14.0831 O   0  0  0  0  0  0  0  0  0  0  0  0
  -20.9826    9.2048  -13.7854 O   0  0  0  0  0  0  0  0  0  0  0  0
  -18.6285   12.9946  -21.3997 C   0  0  0  0  0  0  0  0  0  0  0  0
  -19.4060   14.0611  -20.7183 C   0  0  0  0  0  0  0  0  0  0  0  0
  -20.5651   13.9442  -19.9965 C   0  0  0  0  0  0  0  0  0  0  0  0
  -21.4539   15.0503  -19.8159 C   0  0  0  0  0  0  0  0  0  0  0  0
  -21.1038   16.1907  -20.3773 C   0  0  0  0  0  0  0  0  0  0  0  0
  -19.9419   16.3347  -21.1236 C   0  0  0  0  0  0  0  0  0  0  0  0
  -19.1132   15.3250  -21.2928 C   0  0  0  0  0  0  0  0  0  0  0  0
  -17.7263   15.3243  -21.8636 C   0  0  0  0  0  0  0  0  0  0  0  0
  -16.7061   15.5868  -20.7340 C   0  0  0  0  0  0  0  0  0  0  0  0
  -16.7499   16.8980  -20.0946 C   0  0  0  0  0  0  0  0  0  0  0  0
  -16.6549   18.0153  -21.1060 C   0  0  0  0  0  0  0  0  0  0  0  0
  -16.5316   17.4733  -22.5076 C   0  0  0  0  0  0  0  0  0  0  0  0
  -17.5309   16.4292  -22.8839 C   0  0  0  0  0  0  0  0  0  0  0  0
  -22.1365   17.3331  -20.5244 C   0  0  0  0  0  0  0  0  0  0  0  0
  -22.9977   17.2245  -21.4746 F   0  0  0  0  0  0  0  0  0  0  0  0
  -21.4141   18.5054  -20.5274 F   0  0  0  0  0  0  0  0  0  0  0  0
  -22.8123   17.3602  -19.2646 F   0  0  0  0  0  0  0  0  0  0  0  0
  5  6  1  0  0  0
  6  1  1  0  0  0
  1  2  2  0  0  0
  1  3  1  0  0  0
  3 20  1  0  0  0
 20 21  1  0  0  0
 21 22  2  0  0  0
 22 23  1  0  0  0
 23 24  2  0  0  0
 24 33  1  0  0  0
 33 34  1  0  0  0
 33 35  1  0  0  0
 33 36  1  0  0  0
 24 25  1  0  0  0
 25 26  2  0  0  0
 26 27  1  0  0  0
 27 28  1  0  0  0
 28 29  1  0  0  0
 29 30  1  0  0  0
 30 31  1  0  0  0
 31 32  1  0  0  0
  6  7  1  0  0  0
  7  8  2  0  0  0
  8  9  1  0  0  0
  9 10  2  0  0  0
 10 14  1  0  0  0
 14 16  1  0  0  0
 16 17  1  0  0  0
 16 18  2  0  0  0
 16 19  2  0  0  0
 10 11  1  0  0  0
 11 12  1  0  0  0
 11 13  2  0  0  0
 26 21  1  0  0  0
 32 27  1  0  0  0
 13  7  1  0  0  0
  3  4  1  0  0  0
 14 15  1  0  0  0
M  END
> <minimizedAffinity>
-7.93811

> <CNNscore>
0.2749986947

> <CNNaffinity>
6.7237334251

> <CNN_VS>
1.8490178585

> <CNNaffinity_variance>
0.2060348541

$$$$
[H]c1c([H])c(C([H])(C(=O)N([H])C([H])([H])c2c([H])c([H])c(C(F)(F)F)c([H])c2C2([H])C([H])([H])C([H])([H])C([H])([H])C([H])([H])C2([H])[H])C([H])([H])[H])c([H])c(F)c1N([H])S(=O)(=O)C([H])([H])[H]


 36 38  0  0  0  0  0  0  0  0999 V2000
  -20.5832   16.8828  -19.4408 C   0  0  0  0  0  0  0  0  0  0  0  0
  -21.2881   17.7084  -19.3001 O   0  0  0  0  0  0  0  0  0  0  0  0
  -19.6607   16.1744  -20.2202 N   0  0  0  0  0  0  0  0  0  0  0  0
  -19.7821   17.1354  -21.2355 H   0  0  0  0  0  0  0  0  0  0  0  0
  -21.5196   14.9579  -18.5564 C   0  0  0  0  0  0  0  0  0  0  0  0
  -20.2942   15.8259  -18.1854 C   0  0  0  0  0  0  0  0  0  0  0  0
  -20.5248   16.4892  -16.9524 C   0  0  0  0  0  0  0  0  0  0  0  0
  -21.6323   16.3440  -16.2191 C   0  0  0  0  0  0  0  0  0  0  0  0
  -21.8081   16.8550  -15.0053 C   0  0  0  0  0  0  0  0  0  0  0  0
  -20.7368   17.6563  -14.4345 C   0  0  0  0  0  0  0  0  0  0  0  0
  -19.6602   17.8115  -15.1612 C   0  0  0  0  0  0  0  0  0  0  0  0
  -18.6841   18.6845  -14.6583 F   0  0  0  0  0  0  0  0  0  0  0  0
  -19.4336   17.2740  -16.4104 C   0  0  0  0  0  0  0  0  0  0  0  0
  -21.0044   17.8615  -13.0673 N   0  0  0  0  0  0  0  0  0  0  0  0
  -20.1040   17.5156  -12.4634 H   0  0  0  0  0  0  0  0  0  0  0  0
  -22.2175   18.5578  -12.1985 S   0  0  0  0  0  0  0  0  0  0  0  0
  -21.5559   19.5829  -10.8811 C   0  0  0  0  0  0  0  0  0  0  0  0
  -23.2347   17.5734  -11.7748 O   0  0  0  0  0  0  0  0  0  0  0  0
  -22.9055   19.5906  -13.1502 O   0  0  0  0  0  0  0  0  0  0  0  0
  -18.8384   15.5469  -20.9220 C   0  0  0  0  0  0  0  0  0  0  0  0
  -18.5719   14.0943  -21.0810 C   0  0  0  0  0  0  0  0  0  0  0  0
  -18.9737   13.0595  -20.2774 C   0  0  0  0  0  0  0  0  0  0  0  0
  -18.2737   11.8124  -20.2502 C   0  0  0  0  0  0  0  0  0  0  0  0
  -17.2217   11.7050  -21.0375 C   0  0  0  0  0  0  0  0  0  0  0  0
  -16.7852   12.7407  -21.8528 C   0  0  0  0  0  0  0  0  0  0  0  0
  -17.4242   13.8918  -21.8903 C   0  0  0  0  0  0  0  0  0  0  0  0
  -17.2548   15.0377  -22.8428 C   0  0  0  0  0  0  0  0  0  0  0  0
  -18.1503   14.8127  -24.0811 C   0  0  0  0  0  0  0  0  0  0  0  0
  -17.8205   13.6788  -24.9387 C   0  0  0  0  0  0  0  0  0  0  0  0
  -16.3773   13.7155  -25.3815 C   0  0  0  0  0  0  0  0  0  0  0  0
  -15.6659   14.9220  -24.8233 C   0  0  0  0  0  0  0  0  0  0  0  0
  -15.8317   15.1450  -23.3558 C   0  0  0  0  0  0  0  0  0  0  0  0
  -16.2178   10.5449  -20.8385 C   0  0  0  0  0  0  0  0  0  0  0  0
  -16.6672    9.3491  -20.9949 F   0  0  0  0  0  0  0  0  0  0  0  0
  -15.5964   10.7778  -19.6320 F   0  0  0  0  0  0  0  0  0  0  0  0
  -15.1900   10.8011  -21.7989 F   0  0  0  0  0  0  0  0  0  0  0  0
  5  6  1  0  0  0
  6  1  1  0  0  0
  1  2  2  0  0  0
  1  3  1  0  0  0
  3 20  1  0  0  0
 20 21  1  0  0  0
 21 22  2  0  0  0
 22 23  1  0  0  0
 23 24  2  0  0  0
 24 33  1  0  0  0
 33 34  1  0  0  0
 33 35  1  0  0  0
 33 36  1  0  0  0
 24 25  1  0  0  0
 25 26  2  0  0  0
 26 27  1  0  0  0
 27 28  1  0  0  0
 28 29  1  0  0  0
 29 30  1  0  0  0
 30 31  1  0  0  0
 31 32  1  0  0  0
  6  7  1  0  0  0
  7  8  2  0  0  0
  8  9  1  0  0  0
  9 10  2  0  0  0
 10 14  1  0  0  0
 14 16  1  0  0  0
 16 17  1  0  0  0
 16 18  2  0  0  0
 16 19  2  0  0  0
 10 11  1  0  0  0
 11 12  1  0  0  0
 11 13  2  0  0  0
 26 21  1  0  0  0
 32 27  1  0  0  0
 13  7  1  0  0  0
  3  4  1  0  0  0
 14 15  1  0  0  0
M  END
> <minimizedAffinity>
-8.47015

> <CNNscore>
0.2745003104

> <CNNaffinity>
6.5923323631

> <CNN_VS>
1.8095972538

> <CNNaffinity_variance>
0.0797293335

$$$$
[H]c1c([H])c(C([H])(C(=O)N([H])C([H])([H])c2c([H])c([H])c(C(F)(F)F)c([H])c2C2([H])C([H])([H])C([H])([H])C([H])([H])C([H])([H])C2([H])[H])C([H])([H])[H])c([H])c(F)c1N([H])S(=O)(=O)C([H])([H])[H]


 36 38  0  0  0  0  0  0  0  0999 V2000
  -17.3152   12.0024  -19.0578 C   0  0  0  0  0  0  0  0  0  0  0  0
  -16.5375   11.3892  -18.5914 O   0  0  0  0  0  0  0  0  0  0  0  0
  -17.7622   12.8561  -20.0734 N   0  0  0  0  0  0  0  0  0  0  0  0
  -16.5355   12.7060  -20.7381 H   0  0  0  0  0  0  0  0  0  0  0  0
  -18.4243   13.1953  -17.4112 C   0  0  0  0  0  0  0  0  0  0  0  0
  -18.8352   12.0592  -18.3773 C   0  0  0  0  0  0  0  0  0  0  0  0
  -19.0674   10.8635  -17.6495 C   0  0  0  0  0  0  0  0  0  0  0  0
  -18.3566    9.7426  -17.8033 C   0  0  0  0  0  0  0  0  0  0  0  0
  -18.4767    8.6604  -17.0419 C   0  0  0  0  0  0  0  0  0  0  0  0
  -19.4701    8.6736  -15.9795 C   0  0  0  0  0  0  0  0  0  0  0  0
  -20.1768    9.7657  -15.8416 C   0  0  0  0  0  0  0  0  0  0  0  0
  -21.2142    9.7268  -14.8982 F   0  0  0  0  0  0  0  0  0  0  0  0
  -20.0599   10.9146  -16.5945 C   0  0  0  0  0  0  0  0  0  0  0  0
  -19.2462    7.5676  -15.1370 N   0  0  0  0  0  0  0  0  0  0  0  0
  -18.1486    7.5539  -14.8369 H   0  0  0  0  0  0  0  0  0  0  0  0
  -20.1893    6.4156  -14.4339 S   0  0  0  0  0  0  0  0  0  0  0  0
  -21.7987    6.3333  -15.2259 C   0  0  0  0  0  0  0  0  0  0  0  0
  -20.2218    6.5446  -12.9623 O   0  0  0  0  0  0  0  0  0  0  0  0
  -19.5406    5.0373  -14.7881 O   0  0  0  0  0  0  0  0  0  0  0  0
  -18.1541   13.6180  -20.9835 C   0  0  0  0  0  0  0  0  0  0  0  0
  -17.6028   13.9263  -22.3279 C   0  0  0  0  0  0  0  0  0  0  0  0
  -17.0163   13.0736  -23.2263 C   0  0  0  0  0  0  0  0  0  0  0  0
  -16.1137   13.5440  -24.2313 C   0  0  0  0  0  0  0  0  0  0  0  0
  -15.8729   14.8401  -24.2531 C   0  0  0  0  0  0  0  0  0  0  0  0
  -16.4437   15.7251  -23.3482 C   0  0  0  0  0  0  0  0  0  0  0  0
  -17.2799   15.3048  -22.4215 C   0  0  0  0  0  0  0  0  0  0  0  0
  -18.1588   16.1046  -21.5067 C   0  0  0  0  0  0  0  0  0  0  0  0
  -19.3865   16.6164  -22.2919 C   0  0  0  0  0  0  0  0  0  0  0  0
  -19.1347   17.5800  -23.3587 C   0  0  0  0  0  0  0  0  0  0  0  0
  -18.3441   18.7672  -22.8629 C   0  0  0  0  0  0  0  0  0  0  0  0
  -18.0341   18.6407  -21.3928 C   0  0  0  0  0  0  0  0  0  0  0  0
  -17.4508   17.3329  -20.9684 C   0  0  0  0  0  0  0  0  0  0  0  0
  -14.6787   15.3946  -25.0652 C   0  0  0  0  0  0  0  0  0  0  0  0
  -14.6605   16.6622  -25.2873 F   0  0  0  0  0  0  0  0  0  0  0  0
  -14.5810   14.6070  -26.1905 F   0  0  0  0  0  0  0  0  0  0  0  0
  -13.5302   15.0251  -24.2978 F   0  0  0  0  0  0  0  0  0  0  0  0
  5  6  1  0  0  0
  6  1  1  0  0  0
  1  2  2  0  0  0
  1  3  1  0  0  0
  3 20  1  0  0  0
 20 21  1  0  0  0
 21 22  2  0  0  0
 22 23  1  0  0  0
 23 24  2  0  0  0
 24 33  1  0  0  0
 33 34  1  0  0  0
 33 35  1  0  0  0
 33 36  1  0  0  0
 24 25  1  0  0  0
 25 26  2  0  0  0
 26 27  1  0  0  0
 27 28  1  0  0  0
 28 29  1  0  0  0
 29 30  1  0  0  0
 30 31  1  0  0  0
 31 32  1  0  0  0
  6  7  1  0  0  0
  7  8  2  0  0  0
  8  9  1  0  0  0
  9 10  2  0  0  0
 10 14  1  0  0  0
 14 16  1  0  0  0
 16 17  1  0  0  0
 16 18  2  0  0  0
 16 19  2  0  0  0
 10 11  1  0  0  0
 11 12  1  0  0  0
 11 13  2  0  0  0
 26 21  1  0  0  0
 32 27  1  0  0  0
 13  7  1  0  0  0
  3  4  1  0  0  0
 14 15  1  0  0  0
M  END
> <minimizedAffinity>
-9.12877

> <CNNscore>
0.2648131251

> <CNNaffinity>
6.7731146812

> <CNN_VS>
1.7936096191

> <CNNaffinity_variance>
0.2079848796

$$$$
[H]OC(=O)C([H])([H])N(C([H])([H])c1c([H])c([H])c([H])c(OC([H])([H])C([H])([H])c2nc(-c3c([H])c([H])c([H])c([H])c3[H])oc2C([H])([H])[H])c1[H])C([H])([H])c1c([H])c([H])c2c([H])c([H])c([H])c([H])c2c1[H]


 39 43  0  0  0  0  0  0  0  0999 V2000
  -16.9493   17.2515  -23.0081 C   0  0  0  0  0  0  0  0  0  0  0  0
  -16.4624   16.9222  -21.7748 C   0  0  0  0  0  0  0  0  0  0  0  0
  -16.8413   17.6537  -20.6744 C   0  0  0  0  0  0  0  0  0  0  0  0
  -17.7047   18.7229  -20.7526 C   0  0  0  0  0  0  0  0  0  0  0  0
  -18.2134   19.0807  -21.9792 C   0  0  0  0  0  0  0  0  0  0  0  0
  -17.8283   18.3446  -23.0685 C   0  0  0  0  0  0  0  0  0  0  0  0
  -16.6262   16.5859  -24.1442 O   0  0  0  0  0  0  0  0  0  0  0  0
  -15.4680   16.3875  -24.8323 C   0  0  0  0  0  0  0  0  0  0  0  0
  -15.0828   14.9880  -25.1809 C   0  0  0  0  0  0  0  0  0  0  0  0
  -17.3315   13.1244  -26.3293 C   0  0  0  0  0  0  0  0  0  0  0  0
  -16.9006   13.1587  -24.9200 C   0  0  0  0  0  0  0  0  0  0  0  0
  -17.3691   12.4353  -23.9280 O   0  0  0  0  0  0  0  0  0  0  0  0
  -16.7465   12.7352  -22.8155 C   0  0  0  0  0  0  0  0  0  0  0  0
  -15.8473   13.6886  -23.1212 N   0  0  0  0  0  0  0  0  0  0  0  0
  -15.9046   13.9867  -24.4204 C   0  0  0  0  0  0  0  0  0  0  0  0
  -16.9676   12.1613  -21.4952 C   0  0  0  0  0  0  0  0  0  0  0  0
  -16.4477   10.9267  -21.1671 C   0  0  0  0  0  0  0  0  0  0  0  0
  -16.6466   10.3564  -19.9126 C   0  0  0  0  0  0  0  0  0  0  0  0
  -17.3805   11.0331  -18.9655 C   0  0  0  0  0  0  0  0  0  0  0  0
  -17.9054   12.2568  -19.2664 C   0  0  0  0  0  0  0  0  0  0  0  0
  -17.6972   12.8168  -20.5303 C   0  0  0  0  0  0  0  0  0  0  0  0
  -19.1303   20.2224  -22.0717 C   0  0  0  0  0  0  0  0  0  0  0  0
  -19.9217   20.4892  -20.9191 N   0  0  0  0  0  0  0  0  0  0  0  0
  -19.5813   21.7111  -20.2825 C   0  0  0  0  0  0  0  0  0  0  0  0
  -19.0215   22.7515  -21.1554 C   0  0  0  0  0  0  0  0  0  0  0  0
  -19.6495   23.4653  -21.9554 O   0  0  0  0  0  0  0  0  0  0  0  0
  -17.6322   22.9756  -21.0918 O   0  0  0  0  0  0  0  0  0  0  0  0
  -17.0489   22.6932  -21.8666 H   0  0  0  0  0  0  0  0  0  0  0  0
  -21.3203   20.2450  -21.1102 C   0  0  0  0  0  0  0  0  0  0  0  0
  -21.7729   20.1700  -22.4960 C   0  0  0  0  0  0  0  0  0  0  0  0
  -21.8296   21.2198  -23.3834 C   0  0  0  0  0  0  0  0  0  0  0  0
  -22.2827   21.0456  -24.6821 C   0  0  0  0  0  0  0  0  0  0  0  0
  -22.6973   19.8181  -25.1495 C   0  0  0  0  0  0  0  0  0  0  0  0
  -23.1423   19.6829  -26.4475 C   0  0  0  0  0  0  0  0  0  0  0  0
  -23.5610   18.4569  -26.9243 C   0  0  0  0  0  0  0  0  0  0  0  0
  -23.5168   17.3849  -26.0599 C   0  0  0  0  0  0  0  0  0  0  0  0
  -23.0656   17.5242  -24.7462 C   0  0  0  0  0  0  0  0  0  0  0  0
  -22.6469   18.7538  -24.2722 C   0  0  0  0  0  0  0  0  0  0  0  0
  -22.1952   18.9323  -22.9806 C   0  0  0  0  0  0  0  0  0  0  0  0
 10 11  1  0  0  0
 11 12  1  0  0  0
 12 13  1  0  0  0
 13 16  1  0  0  0
 16 17  2  0  0  0
 17 18  1  0  0  0
 18 19  2  0  0  0
 19 20  1  0  0  0
 20 21  2  0  0  0
 13 14  2  0  0  0
 14 15  1  0  0  0
 15  9  1  0  0  0
  9  8  1  0  0  0
  8  7  1  0  0  0
  7  1  1  0  0  0
  1  2  2  0  0  0
  2  3  1  0  0  0
  3  4  2  0  0  0
  4  5  1  0  0  0
  5 22  1  0  0  0
 22 23  1  0  0  0
 23 24  1  0  0  0
 24 25  1  0  0  0
 25 26  2  0  0  0
 25 27  1  0  0  0
 23 29  1  0  0  0
 29 30  1  0  0  0
 30 31  2  0  0  0
 31 32  1  0  0  0
 32 33  2  0  0  0
 33 34  1  0  0  0
 34 35  2  0  0  0
 35 36  1  0  0  0
 36 37  2  0  0  0
 37 38  1  0  0  0
 38 39  2  0  0  0
  5  6  2  0  0  0
 15 11  2  0  0  0
  6  1  1  0  0  0
 21 16  1  0  0  0
 39 30  1  0  0  0
 38 33  1  0  0  0
 27 28  1  0  0  0
M  END
> <minimizedAffinity>
-9.63468

> <CNNscore>
0.5946508050

> <CNNaffinity>
6.9246344566

> <CNN_VS>
4.1177396774

> <CNNaffinity_variance>
0.6453675032

$$$$
[H]OC(=O)C([H])([H])N(C([H])([H])c1c([H])c([H])c([H])c(OC([H])([H])C([H])([H])c2nc(-c3c([H])c([H])c([H])c([H])c3[H])oc2C([H])([H])[H])c1[H])C([H])([H])c1c([H])c([H])c2c([H])c([H])c([H])c([H])c2c1[H]


 39 43  0  0  0  0  0  0  0  0999 V2000
  -17.9887   11.7165  -18.0173 C   0  0  0  0  0  0  0  0  0  0  0  0
  -18.6943   10.6016  -17.6627 C   0  0  0  0  0  0  0  0  0  0  0  0
  -19.8925   10.7343  -17.0022 C   0  0  0  0  0  0  0  0  0  0  0  0
  -20.4298   11.9583  -16.6736 C   0  0  0  0  0  0  0  0  0  0  0  0
  -19.7450   13.1007  -17.0164 C   0  0  0  0  0  0  0  0  0  0  0  0
  -18.5520   12.9559  -17.6739 C   0  0  0  0  0  0  0  0  0  0  0  0
  -16.7997   11.6762  -18.6675 O   0  0  0  0  0  0  0  0  0  0  0  0
  -16.2901   10.9071  -19.6691 C   0  0  0  0  0  0  0  0  0  0  0  0
  -17.1148   10.7074  -20.8972 C   0  0  0  0  0  0  0  0  0  0  0  0
  -19.1634   13.0826  -20.7966 C   0  0  0  0  0  0  0  0  0  0  0  0
  -18.0209   12.9909  -21.7237 C   0  0  0  0  0  0  0  0  0  0  0  0
  -17.6711   13.8629  -22.6425 O   0  0  0  0  0  0  0  0  0  0  0  0
  -16.6030   13.4485  -23.2768 C   0  0  0  0  0  0  0  0  0  0  0  0
  -16.2662   12.2644  -22.7331 N   0  0  0  0  0  0  0  0  0  0  0  0
  -17.1193   11.9360  -21.7614 C   0  0  0  0  0  0  0  0  0  0  0  0
  -15.9004   14.1216  -24.3606 C   0  0  0  0  0  0  0  0  0  0  0  0
  -14.5521   14.3958  -24.2638 C   0  0  0  0  0  0  0  0  0  0  0  0
  -13.8588   15.0394  -25.2853 C   0  0  0  0  0  0  0  0  0  0  0  0
  -14.5258   15.4177  -26.4279 C   0  0  0  0  0  0  0  0  0  0  0  0
  -15.8606   15.1572  -26.5474 C   0  0  0  0  0  0  0  0  0  0  0  0
  -16.5433   14.5100  -25.5133 C   0  0  0  0  0  0  0  0  0  0  0  0
  -20.3085   14.4091  -16.6651 C   0  0  0  0  0  0  0  0  0  0  0  0
  -20.5773   15.2906  -17.7499 N   0  0  0  0  0  0  0  0  0  0  0  0
  -21.9645   15.4966  -17.9673 C   0  0  0  0  0  0  0  0  0  0  0  0
  -22.7679   15.7545  -16.7649 C   0  0  0  0  0  0  0  0  0  0  0  0
  -22.9091   16.8455  -16.1872 O   0  0  0  0  0  0  0  0  0  0  0  0
  -23.4546   14.6644  -16.1953 O   0  0  0  0  0  0  0  0  0  0  0  0
  -23.1389   14.2860  -15.3135 H   0  0  0  0  0  0  0  0  0  0  0  0
  -19.7559   16.4642  -17.7569 C   0  0  0  0  0  0  0  0  0  0  0  0
  -18.8983   16.6378  -18.9254 C   0  0  0  0  0  0  0  0  0  0  0  0
  -17.5227   16.6556  -18.9201 C   0  0  0  0  0  0  0  0  0  0  0  0
  -16.7971   16.8338  -20.0880 C   0  0  0  0  0  0  0  0  0  0  0  0
  -17.4127   17.0010  -21.3087 C   0  0  0  0  0  0  0  0  0  0  0  0
  -16.6582   17.1762  -22.4494 C   0  0  0  0  0  0  0  0  0  0  0  0
  -17.2665   17.3458  -23.6770 C   0  0  0  0  0  0  0  0  0  0  0  0
  -18.6437   17.3332  -23.7161 C   0  0  0  0  0  0  0  0  0  0  0  0
  -19.4055   17.1554  -22.5599 C   0  0  0  0  0  0  0  0  0  0  0  0
  -18.7926   16.9856  -21.3320 C   0  0  0  0  0  0  0  0  0  0  0  0
  -19.5103   16.8081  -20.1670 C   0  0  0  0  0  0  0  0  0  0  0  0
 10 11  1  0  0  0
 11 12  1  0  0  0
 12 13  1  0  0  0
 13 16  1  0  0  0
 16 17  2  0  0  0
 17 18  1  0  0  0
 18 19  2  0  0  0
 19 20  1  0  0  0
 20 21  2  0  0  0
 13 14  2  0  0  0
 14 15  1  0  0  0
 15  9  1  0  0  0
  9  8  1  0  0  0
  8  7  1  0  0  0
  7  1  1  0  0  0
  1  2  2  0  0  0
  2  3  1  0  0  0
  3  4  2  0  0  0
  4  5  1  0  0  0
  5 22  1  0  0  0
 22 23  1  0  0  0
 23 24  1  0  0  0
 24 25  1  0  0  0
 25 26  2  0  0  0
 25 27  1  0  0  0
 23 29  1  0  0  0
 29 30  1  0  0  0
 30 31  2  0  0  0
 31 32  1  0  0  0
 32 33  2  0  0  0
 33 34  1  0  0  0
 34 35  2  0  0  0
 35 36  1  0  0  0
 36 37  2  0  0  0
 37 38  1  0  0  0
 38 39  2  0  0  0
  5  6  2  0  0  0
 15 11  2  0  0  0
  6  1  1  0  0  0
 21 16  1  0  0  0
 39 30  1  0  0  0
 38 33  1  0  0  0
 27 28  1  0  0  0
M  END
> <minimizedAffinity>
-8.62871

> <CNNscore>
0.4707971811

> <CNNaffinity>
7.3990364075

> <CNN_VS>
3.4834454060

> <CNNaffinity_variance>
0.1433750987

$$$$
[H]OC(=O)C([H])([H])N(C([H])([H])c1c([H])c([H])c([H])c(OC([H])([H])C([H])([H])c2nc(-c3c([H])c([H])c([H])c([H])c3[H])oc2C([H])([H])[H])c1[H])C([H])([H])c1c([H])c([H])c2c([H])c([H])c([H])c([H])c2c1[H]


 39 43  0  0  0  0  0  0  0  0999 V2000
  -19.1384   13.5982  -18.0587 C   0  0  0  0  0  0  0  0  0  0  0  0
  -20.4733   13.5106  -18.3365 C   0  0  0  0  0  0  0  0  0  0  0  0
  -21.2931   14.5863  -18.0908 C   0  0  0  0  0  0  0  0  0  0  0  0
  -20.8285   15.7724  -17.5691 C   0  0  0  0  0  0  0  0  0  0  0  0
  -19.4898   15.8939  -17.2784 C   0  0  0  0  0  0  0  0  0  0  0  0
  -18.6829   14.8152  -17.5271 C   0  0  0  0  0  0  0  0  0  0  0  0
  -18.2608   12.5862  -18.2678 O   0  0  0  0  0  0  0  0  0  0  0  0
  -17.4255   12.2489  -19.2890 C   0  0  0  0  0  0  0  0  0  0  0  0
  -18.0270   11.9081  -20.6120 C   0  0  0  0  0  0  0  0  0  0  0  0
  -15.4825   10.2051  -21.3005 C   0  0  0  0  0  0  0  0  0  0  0  0
  -15.9289   11.3962  -22.0455 C   0  0  0  0  0  0  0  0  0  0  0  0
  -15.3560   11.9363  -23.0976 O   0  0  0  0  0  0  0  0  0  0  0  0
  -16.0328   12.9854  -23.4931 C   0  0  0  0  0  0  0  0  0  0  0  0
  -17.0769   13.1104  -22.6533 N   0  0  0  0  0  0  0  0  0  0  0  0
  -17.0562   12.1440  -21.7337 C   0  0  0  0  0  0  0  0  0  0  0  0
  -15.7326   13.8594  -24.6189 C   0  0  0  0  0  0  0  0  0  0  0  0
  -16.6385   14.0221  -25.6462 C   0  0  0  0  0  0  0  0  0  0  0  0
  -16.3740   14.8504  -26.7336 C   0  0  0  0  0  0  0  0  0  0  0  0
  -15.1796   15.5305  -26.7970 C   0  0  0  0  0  0  0  0  0  0  0  0
  -14.2667   15.3860  -25.7923 C   0  0  0  0  0  0  0  0  0  0  0  0
  -14.5464   14.5508  -24.7066 C   0  0  0  0  0  0  0  0  0  0  0  0
  -18.9877   17.1532  -16.7173 C   0  0  0  0  0  0  0  0  0  0  0  0
  -19.7758   18.3120  -16.9666 N   0  0  0  0  0  0  0  0  0  0  0  0
  -20.2115   18.9534  -15.7780 C   0  0  0  0  0  0  0  0  0  0  0  0
  -19.8539   18.2813  -14.5218 C   0  0  0  0  0  0  0  0  0  0  0  0
  -18.8601   18.5138  -13.8131 O   0  0  0  0  0  0  0  0  0  0  0  0
  -20.7146   17.2667  -14.0590 O   0  0  0  0  0  0  0  0  0  0  0  0
  -20.4107   16.3041  -14.0962 H   0  0  0  0  0  0  0  0  0  0  0  0
  -19.2405   19.1657  -17.9849 C   0  0  0  0  0  0  0  0  0  0  0  0
  -19.3196   18.6585  -19.3515 C   0  0  0  0  0  0  0  0  0  0  0  0
  -20.4751   18.4542  -20.0698 C   0  0  0  0  0  0  0  0  0  0  0  0
  -20.4439   17.9607  -21.3651 C   0  0  0  0  0  0  0  0  0  0  0  0
  -19.2601   17.6511  -21.9974 C   0  0  0  0  0  0  0  0  0  0  0  0
  -19.2681   17.1617  -23.2864 C   0  0  0  0  0  0  0  0  0  0  0  0
  -18.0866   16.8475  -23.9277 C   0  0  0  0  0  0  0  0  0  0  0  0
  -16.9114   17.0404  -23.2349 C   0  0  0  0  0  0  0  0  0  0  0  0
  -16.9058   17.5363  -21.9300 C   0  0  0  0  0  0  0  0  0  0  0  0
  -18.0912   17.8502  -21.2910 C   0  0  0  0  0  0  0  0  0  0  0  0
  -18.1275   18.3415  -20.0021 C   0  0  0  0  0  0  0  0  0  0  0  0
 10 11  1  0  0  0
 11 12  1  0  0  0
 12 13  1  0  0  0
 13 16  1  0  0  0
 16 17  2  0  0  0
 17 18  1  0  0  0
 18 19  2  0  0  0
 19 20  1  0  0  0
 20 21  2  0  0  0
 13 14  2  0  0  0
 14 15  1  0  0  0
 15  9  1  0  0  0
  9  8  1  0  0  0
  8  7  1  0  0  0
  7  1  1  0  0  0
  1  2  2  0  0  0
  2  3  1  0  0  0
  3  4  2  0  0  0
  4  5  1  0  0  0
  5 22  1  0  0  0
 22 23  1  0  0  0
 23 24  1  0  0  0
 24 25  1  0  0  0
 25 26  2  0  0  0
 25 27  1  0  0  0
 23 29  1  0  0  0
 29 30  1  0  0  0
 30 31  2  0  0  0
 31 32  1  0  0  0
 32 33  2  0  0  0
 33 34  1  0  0  0
 34 35  2  0  0  0
 35 36  1  0  0  0
 36 37  2  0  0  0
 37 38  1  0  0  0
 38 39  2  0  0  0
  5  6  2  0  0  0
 15 11  2  0  0  0
  6  1  1  0  0  0
 21 16  1  0  0  0
 39 30  1  0  0  0
 38 33  1  0  0  0
 27 28  1  0  0  0
M  END
> <minimizedAffinity>
-9.02849

> <CNNscore>
0.2613106370

> <CNNaffinity>
6.6266379356

> <CNN_VS>
1.7316110134

> <CNNaffinity_variance>
0.6846577525

$$$$
[H]OC(=O)C([H])([H])N(C([H])([H])c1c([H])c([H])c([H])c(OC([H])([H])C([H])([H])c2nc(-c3c([H])c([H])c([H])c([H])c3[H])oc2C([H])([H])[H])c1[H])C([H])([H])c1c([H])c([H])c2c([H])c([H])c([H])c([H])c2c1[H]


 39 43  0  0  0  0  0  0  0  0999 V2000
  -21.7105   15.7672  -20.0580 C   0  0  0  0  0  0  0  0  0  0  0  0
  -21.9269   16.4730  -18.9084 C   0  0  0  0  0  0  0  0  0  0  0  0
  -22.6833   17.6202  -18.9445 C   0  0  0  0  0  0  0  0  0  0  0  0
  -23.2464   18.1042  -20.1036 C   0  0  0  0  0  0  0  0  0  0  0  0
  -23.0482   17.4174  -21.2785 C   0  0  0  0  0  0  0  0  0  0  0  0
  -22.2924   16.2759  -21.2301 C   0  0  0  0  0  0  0  0  0  0  0  0
  -20.9763   14.6287  -20.1121 O   0  0  0  0  0  0  0  0  0  0  0  0
  -19.6679   14.3302  -19.8809 C   0  0  0  0  0  0  0  0  0  0  0  0
  -19.2257   12.9138  -20.0443 C   0  0  0  0  0  0  0  0  0  0  0  0
  -17.1530   10.5737  -20.3199 C   0  0  0  0  0  0  0  0  0  0  0  0
  -17.2020   11.7653  -21.1863 C   0  0  0  0  0  0  0  0  0  0  0  0
  -16.4095   12.0467  -22.1961 O   0  0  0  0  0  0  0  0  0  0  0  0
  -16.7507   13.1910  -22.7342 C   0  0  0  0  0  0  0  0  0  0  0  0
  -17.8036   13.6490  -22.0323 N   0  0  0  0  0  0  0  0  0  0  0  0
  -18.1227   12.7962  -21.0571 C   0  0  0  0  0  0  0  0  0  0  0  0
  -16.1270   13.8556  -23.8703 C   0  0  0  0  0  0  0  0  0  0  0  0
  -16.8628   14.1709  -24.9935 C   0  0  0  0  0  0  0  0  0  0  0  0
  -16.2891   14.8046  -26.0926 C   0  0  0  0  0  0  0  0  0  0  0  0
  -14.9523   15.1300  -26.0699 C   0  0  0  0  0  0  0  0  0  0  0  0
  -14.2030   14.8283  -24.9694 C   0  0  0  0  0  0  0  0  0  0  0  0
  -14.7930   14.1920  -23.8732 C   0  0  0  0  0  0  0  0  0  0  0  0
  -23.6408   17.9296  -22.5192 C   0  0  0  0  0  0  0  0  0  0  0  0
  -22.7681   18.0301  -23.6391 N   0  0  0  0  0  0  0  0  0  0  0  0
  -23.4132   17.7528  -24.8724 C   0  0  0  0  0  0  0  0  0  0  0  0
  -23.9015   18.9224  -25.6148 C   0  0  0  0  0  0  0  0  0  0  0  0
  -24.8876   19.6228  -25.3302 O   0  0  0  0  0  0  0  0  0  0  0  0
  -23.1911   19.3023  -26.7704 O   0  0  0  0  0  0  0  0  0  0  0  0
  -23.6088   19.1576  -27.6787 H   0  0  0  0  0  0  0  0  0  0  0  0
  -21.9271   19.1896  -23.6131 C   0  0  0  0  0  0  0  0  0  0  0  0
  -20.7329   19.0950  -22.7790 C   0  0  0  0  0  0  0  0  0  0  0  0
  -20.4883   19.8213  -21.6364 C   0  0  0  0  0  0  0  0  0  0  0  0
  -19.3149   19.6618  -20.9152 C   0  0  0  0  0  0  0  0  0  0  0  0
  -18.3379   18.7718  -21.3030 C   0  0  0  0  0  0  0  0  0  0  0  0
  -17.1832   18.6405  -20.5609 C   0  0  0  0  0  0  0  0  0  0  0  0
  -16.1980   17.7520  -20.9425 C   0  0  0  0  0  0  0  0  0  0  0  0
  -16.4126   17.0095  -22.0831 C   0  0  0  0  0  0  0  0  0  0  0  0
  -17.5825   17.1440  -22.8327 C   0  0  0  0  0  0  0  0  0  0  0  0
  -18.5673   18.0349  -22.4472 C   0  0  0  0  0  0  0  0  0  0  0  0
  -19.7366   18.1973  -23.1615 C   0  0  0  0  0  0  0  0  0  0  0  0
 10 11  1  0  0  0
 11 12  1  0  0  0
 12 13  1  0  0  0
 13 16  1  0  0  0
 16 17  2  0  0  0
 17 18  1  0  0  0
 18 19  2  0  0  0
 19 20  1  0  0  0
 20 21  2  0  0  0
 13 14  2  0  0  0
 14 15  1  0  0  0
 15  9  1  0  0  0
  9  8  1  0  0  0
  8  7  1  0  0  0
  7  1  1  0  0  0
  1  2  2  0  0  0
  2  3  1  0  0  0
  3  4  2  0  0  0
  4  5  1  0  0  0
  5 22  1  0  0  0
 22 23  1  0  0  0
 23 24  1  0  0  0
 24 25  1  0  0  0
 25 26  2  0  0  0
 25 27  1  0  0  0
 23 29  1  0  0  0
 29 30  1  0  0  0
 30 31  2  0  0  0
 31 32  1  0  0  0
 32 33  2  0  0  0
 33 34  1  0  0  0
 34 35  2  0  0  0
 35 36  1  0  0  0
 36 37  2  0  0  0
 37 38  1  0  0  0
 38 39  2  0  0  0
  5  6  2  0  0  0
 15 11  2  0  0  0
  6  1  1  0  0  0
 21 16  1  0  0  0
 39 30  1  0  0  0
 38 33  1  0  0  0
 27 28  1  0  0  0
M  END
> <minimizedAffinity>
-8.49183

> <CNNscore>
0.2493893057

> <CNNaffinity>
6.5536422729

> <CNN_VS>
1.6344083548

> <CNNaffinity_variance>
0.7826977968

$$$$
[H]OC(=O)C([H])([H])N(C([H])([H])c1c([H])c([H])c([H])c(OC([H])([H])C([H])([H])c2nc(-c3c([H])c([H])c([H])c([H])c3[H])oc2C([H])([H])[H])c1[H])C([H])([H])c1c([H])c([H])c2c([H])c([H])c([H])c([H])c2c1[H]


 39 43  0  0  0  0  0  0  0  0999 V2000
  -18.2324   18.1464  -23.1730 C   0  0  0  0  0  0  0  0  0  0  0  0
  -17.6773   18.3360  -21.9391 C   0  0  0  0  0  0  0  0  0  0  0  0
  -16.5743   17.6045  -21.5678 C   0  0  0  0  0  0  0  0  0  0  0  0
  -15.9875   16.6718  -22.3928 C   0  0  0  0  0  0  0  0  0  0  0  0
  -16.5214   16.4567  -23.6419 C   0  0  0  0  0  0  0  0  0  0  0  0
  -17.6207   17.1913  -24.0005 C   0  0  0  0  0  0  0  0  0  0  0  0
  -19.3201   18.8225  -23.6180 O   0  0  0  0  0  0  0  0  0  0  0  0
  -20.1643   19.7352  -23.0623 C   0  0  0  0  0  0  0  0  0  0  0  0
  -21.5575   19.3065  -22.7408 C   0  0  0  0  0  0  0  0  0  0  0  0
  -23.8339   17.2068  -22.2325 C   0  0  0  0  0  0  0  0  0  0  0  0
  -22.5743   17.2884  -21.4711 C   0  0  0  0  0  0  0  0  0  0  0  0
  -22.1960   16.5180  -20.4760 O   0  0  0  0  0  0  0  0  0  0  0  0
  -21.0157   16.8846  -20.0429 C   0  0  0  0  0  0  0  0  0  0  0  0
  -20.6350   17.9311  -20.7986 N   0  0  0  0  0  0  0  0  0  0  0  0
  -21.5724   18.2209  -21.7027 C   0  0  0  0  0  0  0  0  0  0  0  0
  -20.2471   16.2900  -18.9579 C   0  0  0  0  0  0  0  0  0  0  0  0
  -20.8636   15.5088  -18.0029 C   0  0  0  0  0  0  0  0  0  0  0  0
  -20.1510   14.9309  -16.9556 C   0  0  0  0  0  0  0  0  0  0  0  0
  -18.7940   15.1376  -16.8595 C   0  0  0  0  0  0  0  0  0  0  0  0
  -18.1610   15.9070  -17.7928 C   0  0  0  0  0  0  0  0  0  0  0  0
  -18.8898   16.4806  -18.8389 C   0  0  0  0  0  0  0  0  0  0  0  0
  -15.9048   15.4606  -24.5252 C   0  0  0  0  0  0  0  0  0  0  0  0
  -16.5983   14.2250  -24.6616 N   0  0  0  0  0  0  0  0  0  0  0  0
  -16.7946   13.8450  -26.0148 C   0  0  0  0  0  0  0  0  0  0  0  0
  -17.5244   12.5878  -26.2255 C   0  0  0  0  0  0  0  0  0  0  0  0
  -18.5682   12.2313  -25.6533 O   0  0  0  0  0  0  0  0  0  0  0  0
  -17.0010   11.6822  -27.1691 O   0  0  0  0  0  0  0  0  0  0  0  0
  -16.5812   10.8209  -26.8492 H   0  0  0  0  0  0  0  0  0  0  0  0
  -16.1281   13.1989  -23.7794 C   0  0  0  0  0  0  0  0  0  0  0  0
  -16.9068   12.9962  -22.5615 C   0  0  0  0  0  0  0  0  0  0  0  0
  -17.9428   13.7897  -22.1258 C   0  0  0  0  0  0  0  0  0  0  0  0
  -18.6182   13.5147  -20.9466 C   0  0  0  0  0  0  0  0  0  0  0  0
  -18.2889   12.4376  -20.1538 C   0  0  0  0  0  0  0  0  0  0  0  0
  -18.9826   12.1956  -18.9870 C   0  0  0  0  0  0  0  0  0  0  0  0
  -18.6589   11.1193  -18.1855 C   0  0  0  0  0  0  0  0  0  0  0  0
  -17.6252   10.3051  -18.5940 C   0  0  0  0  0  0  0  0  0  0  0  0
  -16.9244   10.5519  -19.7759 C   0  0  0  0  0  0  0  0  0  0  0  0
  -17.2517   11.6309  -20.5763 C   0  0  0  0  0  0  0  0  0  0  0  0
  -16.5827   11.9088  -21.7506 C   0  0  0  0  0  0  0  0  0  0  0  0
 10 11  1  0  0  0
 11 12  1  0  0  0
 12 13  1  0  0  0
 13 16  1  0  0  0
 16 17  2  0  0  0
 17 18  1  0  0  0
 18 19  2  0  0  0
 19 20  1  0  0  0
 20 21  2  0  0  0
 13 14  2  0  0  0
 14 15  1  0  0  0
 15  9  1  0  0  0
  9  8  1  0  0  0
  8  7  1  0  0  0
  7  1  1  0  0  0
  1  2  2  0  0  0
  2  3  1  0  0  0
  3  4  2  0  0  0
  4  5  1  0  0  0
  5 22  1  0  0  0
 22 23  1  0  0  0
 23 24  1  0  0  0
 24 25  1  0  0  0
 25 26  2  0  0  0
 25 27  1  0  0  0
 23 29  1  0  0  0
 29 30  1  0  0  0
 30 31  2  0  0  0
 31 32  1  0  0  0
 32 33  2  0  0  0
 33 34  1  0  0  0
 34 35  2  0  0  0
 35 36  1  0  0  0
 36 37  2  0  0  0
 37 38  1  0  0  0
 38 39  2  0  0  0
  5  6  2  0  0  0
 15 11  2  0  0  0
  6  1  1  0  0  0
 21 16  1  0  0  0
 39 30  1  0  0  0
 38 33  1  0  0  0
 27 28  1  0  0  0
M  END
> <minimizedAffinity>
-9.29852

> <CNNscore>
0.2446313202

> <CNNaffinity>
6.5141386986

> <CNN_VS>
1.5935623646

> <CNNaffinity_variance>
1.5981730223

$$$$
[H]OC(=O)C([H])([H])N(C([H])([H])c1c([H])c([H])c([H])c(OC([H])([H])C([H])([H])c2nc(-c3c([H])c([H])c([H])c([H])c3[H])oc2C([H])([H])[H])c1[H])C([H])([H])c1c([H])c([H])c2c([H])c([H])c([H])c([H])c2c1[H]


 39 43  0  0  0  0  0  0  0  0999 V2000
  -17.1142   17.1759  -22.8971 C   0  0  0  0  0  0  0  0  0  0  0  0
  -16.1515   16.8860  -21.9720 C   0  0  0  0  0  0  0  0  0  0  0  0
  -16.1951   17.4799  -20.7331 C   0  0  0  0  0  0  0  0  0  0  0  0
  -17.1800   18.3699  -20.3686 C   0  0  0  0  0  0  0  0  0  0  0  0
  -18.1646   18.6833  -21.2763 C   0  0  0  0  0  0  0  0  0  0  0  0
  -18.1103   18.0854  -22.5077 C   0  0  0  0  0  0  0  0  0  0  0  0
  -17.1452   16.6376  -24.1410 O   0  0  0  0  0  0  0  0  0  0  0  0
  -18.0617   15.9120  -24.8396 C   0  0  0  0  0  0  0  0  0  0  0  0
  -17.7097   14.5146  -25.2292 C   0  0  0  0  0  0  0  0  0  0  0  0
  -14.6434   14.0527  -24.7467 C   0  0  0  0  0  0  0  0  0  0  0  0
  -15.7204   13.5613  -23.8682 C   0  0  0  0  0  0  0  0  0  0  0  0
  -15.5877   12.8648  -22.7618 O   0  0  0  0  0  0  0  0  0  0  0  0
  -16.7634   12.6052  -22.2465 C   0  0  0  0  0  0  0  0  0  0  0  0
  -17.6751   13.1629  -23.0643 N   0  0  0  0  0  0  0  0  0  0  0  0
  -17.0748   13.7702  -24.0895 C   0  0  0  0  0  0  0  0  0  0  0  0
  -17.0507   11.8613  -21.0277 C   0  0  0  0  0  0  0  0  0  0  0  0
  -16.5001   10.6145  -20.8164 C   0  0  0  0  0  0  0  0  0  0  0  0
  -16.7609    9.8834  -19.6605 C   0  0  0  0  0  0  0  0  0  0  0  0
  -17.5892   10.4080  -18.6952 C   0  0  0  0  0  0  0  0  0  0  0  0
  -18.1462   11.6404  -18.8812 C   0  0  0  0  0  0  0  0  0  0  0  0
  -17.8750   12.3629  -20.0470 C   0  0  0  0  0  0  0  0  0  0  0  0
  -19.2150   19.6349  -20.8973 C   0  0  0  0  0  0  0  0  0  0  0  0
  -20.5173   19.0925  -20.7075 N   0  0  0  0  0  0  0  0  0  0  0  0
  -20.6726   18.4473  -19.4530 C   0  0  0  0  0  0  0  0  0  0  0  0
  -20.8439   16.9893  -19.5018 C   0  0  0  0  0  0  0  0  0  0  0  0
  -21.2498   16.3220  -20.4682 O   0  0  0  0  0  0  0  0  0  0  0  0
  -20.5197   16.2572  -18.3427 O   0  0  0  0  0  0  0  0  0  0  0  0
  -21.2604   15.8397  -17.7972 H   0  0  0  0  0  0  0  0  0  0  0  0
  -21.5737   19.9782  -21.0972 C   0  0  0  0  0  0  0  0  0  0  0  0
  -21.9257   19.9696  -22.5138 C   0  0  0  0  0  0  0  0  0  0  0  0
  -21.8326   21.0393  -23.3740 C   0  0  0  0  0  0  0  0  0  0  0  0
  -22.1994   20.9300  -24.7066 C   0  0  0  0  0  0  0  0  0  0  0  0
  -22.6735   19.7503  -25.2363 C   0  0  0  0  0  0  0  0  0  0  0  0
  -23.0293   19.6793  -26.5665 C   0  0  0  0  0  0  0  0  0  0  0  0
  -23.5066   18.5016  -27.1059 C   0  0  0  0  0  0  0  0  0  0  0  0
  -23.6122   17.4113  -26.2701 C   0  0  0  0  0  0  0  0  0  0  0  0
  -23.2512   17.4856  -24.9237 C   0  0  0  0  0  0  0  0  0  0  0  0
  -22.7732   18.6670  -24.3870 C   0  0  0  0  0  0  0  0  0  0  0  0
  -22.4069   18.7807  -23.0616 C   0  0  0  0  0  0  0  0  0  0  0  0
 10 11  1  0  0  0
 11 12  1  0  0  0
 12 13  1  0  0  0
 13 16  1  0  0  0
 16 17  2  0  0  0
 17 18  1  0  0  0
 18 19  2  0  0  0
 19 20  1  0  0  0
 20 21  2  0  0  0
 13 14  2  0  0  0
 14 15  1  0  0  0
 15  9  1  0  0  0
  9  8  1  0  0  0
  8  7  1  0  0  0
  7  1  1  0  0  0
  1  2  2  0  0  0
  2  3  1  0  0  0
  3  4  2  0  0  0
  4  5  1  0  0  0
  5 22  1  0  0  0
 22 23  1  0  0  0
 23 24  1  0  0  0
 24 25  1  0  0  0
 25 26  2  0  0  0
 25 27  1  0  0  0
 23 29  1  0  0  0
 29 30  1  0  0  0
 30 31  2  0  0  0
 31 32  1  0  0  0
 32 33  2  0  0  0
 33 34  1  0  0  0
 34 35  2  0  0  0
 35 36  1  0  0  0
 36 37  2  0  0  0
 37 38  1  0  0  0
 38 39  2  0  0  0
  5  6  2  0  0  0
 15 11  2  0  0  0
  6  1  1  0  0  0
 21 16  1  0  0  0
 39 30  1  0  0  0
 38 33  1  0  0  0
 27 28  1  0  0  0
M  END
> <minimizedAffinity>
-8.67743

> <CNNscore>
0.2400185317

> <CNNaffinity>
6.3955717087

> <CNN_VS>
1.5350557566

> <CNNaffinity_variance>
0.7804603577

$$$$
[H]OC(=O)C([H])([H])N(C([H])([H])c1c([H])c([H])c([H])c(OC([H])([H])C([H])([H])c2nc(-c3c([H])c([H])c([H])c([H])c3[H])oc2C([H])([H])[H])c1[H])C([H])([H])c1c([H])c([H])c2c([H])c([H])c([H])c([H])c2c1[H]


 39 43  0  0  0  0  0  0  0  0999 V2000
  -18.8668   19.1655  -22.9265 C   0  0  0  0  0  0  0  0  0  0  0  0
  -19.0339   20.5171  -23.0359 C   0  0  0  0  0  0  0  0  0  0  0  0
  -19.7187   21.2008  -22.0597 C   0  0  0  0  0  0  0  0  0  0  0  0
  -20.2555   20.5810  -20.9539 C   0  0  0  0  0  0  0  0  0  0  0  0
  -20.1049   19.2212  -20.8131 C   0  0  0  0  0  0  0  0  0  0  0  0
  -19.4210   18.5507  -21.7925 C   0  0  0  0  0  0  0  0  0  0  0  0
  -18.2079   18.4146  -23.8431 O   0  0  0  0  0  0  0  0  0  0  0  0
  -17.7029   17.1500  -23.8493 C   0  0  0  0  0  0  0  0  0  0  0  0
  -18.6360   16.0168  -24.1203 C   0  0  0  0  0  0  0  0  0  0  0  0
  -17.2287   13.7727  -25.8031 C   0  0  0  0  0  0  0  0  0  0  0  0
  -17.4591   13.7186  -24.3481 C   0  0  0  0  0  0  0  0  0  0  0  0
  -17.1245   12.7495  -23.5261 O   0  0  0  0  0  0  0  0  0  0  0  0
  -17.4876   13.0472  -22.3035 C   0  0  0  0  0  0  0  0  0  0  0  0
  -18.0760   14.2562  -22.3591 N   0  0  0  0  0  0  0  0  0  0  0  0
  -18.0829   14.7162  -23.6114 C   0  0  0  0  0  0  0  0  0  0  0  0
  -17.3004   12.2425  -21.1040 C   0  0  0  0  0  0  0  0  0  0  0  0
  -17.9071   12.5954  -19.9166 C   0  0  0  0  0  0  0  0  0  0  0  0
  -17.7422   11.8435  -18.7564 C   0  0  0  0  0  0  0  0  0  0  0  0
  -16.9547   10.7154  -18.7821 C   0  0  0  0  0  0  0  0  0  0  0  0
  -16.3437   10.3455  -19.9455 C   0  0  0  0  0  0  0  0  0  0  0  0
  -16.5187   11.1104  -21.1026 C   0  0  0  0  0  0  0  0  0  0  0  0
  -20.6786   18.5524  -19.6399 C   0  0  0  0  0  0  0  0  0  0  0  0
  -21.7315   17.6289  -19.8939 N   0  0  0  0  0  0  0  0  0  0  0  0
  -21.7431   16.5370  -18.9874 C   0  0  0  0  0  0  0  0  0  0  0  0
  -20.8671   15.4101  -19.3340 C   0  0  0  0  0  0  0  0  0  0  0  0
  -20.5162   14.4850  -18.5823 O   0  0  0  0  0  0  0  0  0  0  0  0
  -20.3642   15.3575  -20.6488 O   0  0  0  0  0  0  0  0  0  0  0  0
  -19.3842   15.5404  -20.8120 H   0  0  0  0  0  0  0  0  0  0  0  0
  -22.9963   18.2516  -20.1486 C   0  0  0  0  0  0  0  0  0  0  0  0
  -23.2313   18.6836  -21.5231 C   0  0  0  0  0  0  0  0  0  0  0  0
  -23.5503   19.9607  -21.9232 C   0  0  0  0  0  0  0  0  0  0  0  0
  -23.7608   20.2691  -23.2584 C   0  0  0  0  0  0  0  0  0  0  0  0
  -23.6617   19.3175  -24.2492 C   0  0  0  0  0  0  0  0  0  0  0  0
  -23.8786   19.6610  -25.5669 C   0  0  0  0  0  0  0  0  0  0  0  0
  -23.7827   18.7139  -26.5666 C   0  0  0  0  0  0  0  0  0  0  0  0
  -23.4650   17.4247  -26.1985 C   0  0  0  0  0  0  0  0  0  0  0  0
  -23.2456   17.0793  -24.8638 C   0  0  0  0  0  0  0  0  0  0  0  0
  -23.3423   18.0309  -23.8652 C   0  0  0  0  0  0  0  0  0  0  0  0
  -23.1338   17.7290  -22.5351 C   0  0  0  0  0  0  0  0  0  0  0  0
 10 11  1  0  0  0
 11 12  1  0  0  0
 12 13  1  0  0  0
 13 16  1  0  0  0
 16 17  2  0  0  0
 17 18  1  0  0  0
 18 19  2  0  0  0
 19 20  1  0  0  0
 20 21  2  0  0  0
 13 14  2  0  0  0
 14 15  1  0  0  0
 15  9  1  0  0  0
  9  8  1  0  0  0
  8  7  1  0  0  0
  7  1  1  0  0  0
  1  2  2  0  0  0
  2  3  1  0  0  0
  3  4  2  0  0  0
  4  5  1  0  0  0
  5 22  1  0  0  0
 22 23  1  0  0  0
 23 24  1  0  0  0
 24 25  1  0  0  0
 25 26  2  0  0  0
 25 27  1  0  0  0
 23 29  1  0  0  0
 29 30  1  0  0  0
 30 31  2  0  0  0
 31 32  1  0  0  0
 32 33  2  0  0  0
 33 34  1  0  0  0
 34 35  2  0  0  0
 35 36  1  0  0  0
 36 37  2  0  0  0
 37 38  1  0  0  0
 38 39  2  0  0  0
  5  6  2  0  0  0
 15 11  2  0  0  0
  6  1  1  0  0  0
 21 16  1  0  0  0
 39 30  1  0  0  0
 38 33  1  0  0  0
 27 28  1  0  0  0
M  END
> <minimizedAffinity>
-8.53805

> <CNNscore>
0.2209028304

> <CNNaffinity>
6.0793027878

> <CNN_VS>
1.3429352045

> <CNNaffinity_variance>
1.1707760096

$$$$
[H]OC(=O)C([H])([H])N(C([H])([H])c1c([H])c([H])c([H])c(OC([H])([H])C([H])([H])c2nc(-c3c([H])c([H])c([H])c([H])c3[H])oc2C([H])([H])[H])c1[H])C([H])([H])c1c([H])c([H])c2c([H])c([H])c([H])c([H])c2c1[H]


 39 43  0  0  0  0  0  0  0  0999 V2000
  -16.4473   17.2577  -22.1706 C   0  0  0  0  0  0  0  0  0  0  0  0
  -16.1590   16.5410  -21.0438 C   0  0  0  0  0  0  0  0  0  0  0  0
  -16.8883   16.7498  -19.8975 C   0  0  0  0  0  0  0  0  0  0  0  0
  -17.9163   17.6625  -19.8252 C   0  0  0  0  0  0  0  0  0  0  0  0
  -18.2326   18.4003  -20.9419 C   0  0  0  0  0  0  0  0  0  0  0  0
  -17.4986   18.1837  -22.0781 C   0  0  0  0  0  0  0  0  0  0  0  0
  -15.7777   17.1165  -23.3410 O   0  0  0  0  0  0  0  0  0  0  0  0
  -16.0945   16.5996  -24.5604 C   0  0  0  0  0  0  0  0  0  0  0  0
  -15.4606   15.3114  -24.9692 C   0  0  0  0  0  0  0  0  0  0  0  0
  -17.2685   13.1260  -26.3123 C   0  0  0  0  0  0  0  0  0  0  0  0
  -16.9159   13.1683  -24.8816 C   0  0  0  0  0  0  0  0  0  0  0  0
  -17.2861   12.3223  -23.9467 O   0  0  0  0  0  0  0  0  0  0  0  0
  -16.7815   12.6754  -22.7909 C   0  0  0  0  0  0  0  0  0  0  0  0
  -16.0625   13.7920  -23.0085 N   0  0  0  0  0  0  0  0  0  0  0  0
  -16.1153   14.1392  -24.2957 C   0  0  0  0  0  0  0  0  0  0  0  0
  -16.9516   12.0052  -21.5090 C   0  0  0  0  0  0  0  0  0  0  0  0
  -16.4379   10.7423  -21.3001 C   0  0  0  0  0  0  0  0  0  0  0  0
  -16.5889   10.0805  -20.0845 C   0  0  0  0  0  0  0  0  0  0  0  0
  -17.2673   10.6923  -19.0556 C   0  0  0  0  0  0  0  0  0  0  0  0
  -17.7849   11.9423  -19.2379 C   0  0  0  0  0  0  0  0  0  0  0  0
  -17.6253   12.5945  -20.4642 C   0  0  0  0  0  0  0  0  0  0  0  0
  -19.3235   19.3788  -20.8714 C   0  0  0  0  0  0  0  0  0  0  0  0
  -20.6204   18.9014  -21.2123 N   0  0  0  0  0  0  0  0  0  0  0  0
  -20.6098   17.9990  -22.3076 C   0  0  0  0  0  0  0  0  0  0  0  0
  -21.0931   18.5396  -23.5850 C   0  0  0  0  0  0  0  0  0  0  0  0
  -22.0153   18.0836  -24.2819 O   0  0  0  0  0  0  0  0  0  0  0  0
  -20.4569   19.6923  -24.0858 O   0  0  0  0  0  0  0  0  0  0  0  0
  -19.8616   19.6162  -24.8984 H   0  0  0  0  0  0  0  0  0  0  0  0
  -21.4077   18.5115  -20.0807 C   0  0  0  0  0  0  0  0  0  0  0  0
  -21.2512   17.1292  -19.6383 C   0  0  0  0  0  0  0  0  0  0  0  0
  -21.0037   16.0463  -20.4500 C   0  0  0  0  0  0  0  0  0  0  0  0
  -20.8772   14.7670  -19.9307 C   0  0  0  0  0  0  0  0  0  0  0  0
  -20.9917   14.5149  -18.5814 C   0  0  0  0  0  0  0  0  0  0  0  0
  -20.8605   13.2291  -18.1011 C   0  0  0  0  0  0  0  0  0  0  0  0
  -20.9750   12.9666  -16.7506 C   0  0  0  0  0  0  0  0  0  0  0  0
  -21.2233   14.0302  -15.9107 C   0  0  0  0  0  0  0  0  0  0  0  0
  -21.3555   15.3312  -16.3993 C   0  0  0  0  0  0  0  0  0  0  0  0
  -21.2400   15.5903  -17.7527 C   0  0  0  0  0  0  0  0  0  0  0  0
  -21.3651   16.8615  -18.2743 C   0  0  0  0  0  0  0  0  0  0  0  0
 10 11  1  0  0  0
 11 12  1  0  0  0
 12 13  1  0  0  0
 13 16  1  0  0  0
 16 17  2  0  0  0
 17 18  1  0  0  0
 18 19  2  0  0  0
 19 20  1  0  0  0
 20 21  2  0  0  0
 13 14  2  0  0  0
 14 15  1  0  0  0
 15  9  1  0  0  0
  9  8  1  0  0  0
  8  7  1  0  0  0
  7  1  1  0  0  0
  1  2  2  0  0  0
  2  3  1  0  0  0
  3  4  2  0  0  0
  4  5  1  0  0  0
  5 22  1  0  0  0
 22 23  1  0  0  0
 23 24  1  0  0  0
 24 25  1  0  0  0
 25 26  2  0  0  0
 25 27  1  0  0  0
 23 29  1  0  0  0
 29 30  1  0  0  0
 30 31  2  0  0  0
 31 32  1  0  0  0
 32 33  2  0  0  0
 33 34  1  0  0  0
 34 35  2  0  0  0
 35 36  1  0  0  0
 36 37  2  0  0  0
 37 38  1  0  0  0
 38 39  2  0  0  0
  5  6  2  0  0  0
 15 11  2  0  0  0
  6  1  1  0  0  0
 21 16  1  0  0  0
 39 30  1  0  0  0
 38 33  1  0  0  0
 27 28  1  0  0  0
M  END
> <minimizedAffinity>
-8.23324

> <CNNscore>
0.1925020665

> <CNNaffinity>
6.4896292686

> <CNN_VS>
1.2492671013

> <CNNaffinity_variance>
0.9090915918

$$$$
[H]OC(=O)C([H])([H])N(C([H])([H])c1c([H])c([H])c([H])c(OC([H])([H])C([H])([H])c2nc(-c3c([H])c([H])c([H])c([H])c3[H])oc2C([H])([H])[H])c1[H])C([H])([H])c1c([H])c([H])c2c([H])c([H])c([H])c([H])c2c1[H]


 39 43  0  0  0  0  0  0  0  0999 V2000
  -22.0552   19.0038  -22.2231 C   0  0  0  0  0  0  0  0  0  0  0  0
  -23.1444   18.3272  -22.6948 C   0  0  0  0  0  0  0  0  0  0  0  0
  -23.6683   17.2858  -21.9665 C   0  0  0  0  0  0  0  0  0  0  0  0
  -23.1415   16.8815  -20.7606 C   0  0  0  0  0  0  0  0  0  0  0  0
  -22.0450   17.5417  -20.2573 C   0  0  0  0  0  0  0  0  0  0  0  0
  -21.5316   18.5776  -20.9922 C   0  0  0  0  0  0  0  0  0  0  0  0
  -21.4746   20.0397  -22.8774 O   0  0  0  0  0  0  0  0  0  0  0  0
  -20.4781   20.1420  -23.7998 C   0  0  0  0  0  0  0  0  0  0  0  0
  -19.0721   20.2598  -23.3125 C   0  0  0  0  0  0  0  0  0  0  0  0
  -17.9368   19.1566  -20.6028 C   0  0  0  0  0  0  0  0  0  0  0  0
  -17.9557   18.4136  -21.8758 C   0  0  0  0  0  0  0  0  0  0  0  0
  -17.5136   17.1950  -22.0913 O   0  0  0  0  0  0  0  0  0  0  0  0
  -17.6953   16.8626  -23.3450 C   0  0  0  0  0  0  0  0  0  0  0  0
  -18.2770   17.9180  -23.9439 N   0  0  0  0  0  0  0  0  0  0  0  0
  -18.4599   18.9097  -23.0703 C   0  0  0  0  0  0  0  0  0  0  0  0
  -17.3447   15.6027  -23.9862 C   0  0  0  0  0  0  0  0  0  0  0  0
  -16.0601   15.1063  -23.9098 C   0  0  0  0  0  0  0  0  0  0  0  0
  -15.7001   13.9054  -24.5156 C   0  0  0  0  0  0  0  0  0  0  0  0
  -16.6427   13.1849  -25.2126 C   0  0  0  0  0  0  0  0  0  0  0  0
  -17.9210   13.6554  -25.3023 C   0  0  0  0  0  0  0  0  0  0  0  0
  -18.2677   14.8628  -24.6887 C   0  0  0  0  0  0  0  0  0  0  0  0
  -21.4745   17.1136  -18.9751 C   0  0  0  0  0  0  0  0  0  0  0  0
  -20.3283   16.2724  -19.0456 N   0  0  0  0  0  0  0  0  0  0  0  0
  -19.3066   16.6487  -18.1354 C   0  0  0  0  0  0  0  0  0  0  0  0
  -19.4587   16.1492  -16.7625 C   0  0  0  0  0  0  0  0  0  0  0  0
  -20.2511   16.5710  -15.9033 O   0  0  0  0  0  0  0  0  0  0  0  0
  -18.6288   15.0835  -16.3624 O   0  0  0  0  0  0  0  0  0  0  0  0
  -17.8853   15.2561  -15.7009 H   0  0  0  0  0  0  0  0  0  0  0  0
  -20.6405   14.8754  -19.1021 C   0  0  0  0  0  0  0  0  0  0  0  0
  -19.6308   14.0188  -19.7166 C   0  0  0  0  0  0  0  0  0  0  0  0
  -19.0536   14.2107  -20.9506 C   0  0  0  0  0  0  0  0  0  0  0  0
  -18.1039   13.3324  -21.4495 C   0  0  0  0  0  0  0  0  0  0  0  0
  -17.6905   12.2274  -20.7389 C   0  0  0  0  0  0  0  0  0  0  0  0
  -16.7440   11.3753  -21.2676 C   0  0  0  0  0  0  0  0  0  0  0  0
  -16.3244   10.2647  -20.5632 C   0  0  0  0  0  0  0  0  0  0  0  0
  -16.8839   10.0439  -19.3236 C   0  0  0  0  0  0  0  0  0  0  0  0
  -17.8418   10.9081  -18.7904 C   0  0  0  0  0  0  0  0  0  0  0  0
  -18.2595   12.0198  -19.4988 C   0  0  0  0  0  0  0  0  0  0  0  0
  -19.2042   12.8967  -19.0066 C   0  0  0  0  0  0  0  0  0  0  0  0
 10 11  1  0  0  0
 11 12  1  0  0  0
 12 13  1  0  0  0
 13 16  1  0  0  0
 16 17  2  0  0  0
 17 18  1  0  0  0
 18 19  2  0  0  0
 19 20  1  0  0  0
 20 21  2  0  0  0
 13 14  2  0  0  0
 14 15  1  0  0  0
 15  9  1  0  0  0
  9  8  1  0  0  0
  8  7  1  0  0  0
  7  1  1  0  0  0
  1  2  2  0  0  0
  2  3  1  0  0  0
  3  4  2  0  0  0
  4  5  1  0  0  0
  5 22  1  0  0  0
 22 23  1  0  0  0
 23 24  1  0  0  0
 24 25  1  0  0  0
 25 26  2  0  0  0
 25 27  1  0  0  0
 23 29  1  0  0  0
 29 30  1  0  0  0
 30 31  2  0  0  0
 31 32  1  0  0  0
 32 33  2  0  0  0
 33 34  1  0  0  0
 34 35  2  0  0  0
 35 36  1  0  0  0
 36 37  2  0  0  0
 37 38  1  0  0  0
 38 39  2  0  0  0
  5  6  2  0  0  0
 15 11  2  0  0  0
  6  1  1  0  0  0
 21 16  1  0  0  0
 39 30  1  0  0  0
 38 33  1  0  0  0
 27 28  1  0  0  0
M  END
> <minimizedAffinity>
-8.75520

> <CNNscore>
0.1890658289

> <CNNaffinity>
6.6832857132

> <CNN_VS>
1.2635809183

> <CNNaffinity_variance>
0.4256957471

$$$$
[H]c1nc([H])c(N([H])C2([H])C([H])([H])N(C(=O)c3c(C([H])([H])[H])noc3C([H])([H])[H])C2([H])[H])c([H])c1N1C(=O)c2c([H])c([H])c(Cl)c([H])c2C([H])([H])C1([H])[H]


 33 37  0  0  0  0  0  0  0  0999 V2000
  -17.9404   14.4250  -22.5926 C   0  0  0  0  0  0  0  0  0  0  0  0
  -17.0675   13.6143  -23.3333 C   0  0  0  0  0  0  0  0  0  0  0  0
  -16.5929   12.4773  -22.8026 N   0  0  0  0  0  0  0  0  0  0  0  0
  -16.9351   12.0791  -21.5526 C   0  0  0  0  0  0  0  0  0  0  0  0
  -17.7895   12.8252  -20.7646 C   0  0  0  0  0  0  0  0  0  0  0  0
  -18.2782   14.0071  -21.3255 C   0  0  0  0  0  0  0  0  0  0  0  0
  -18.1630   12.4105  -19.4610 N   0  0  0  0  0  0  0  0  0  0  0  0
  -18.8275   13.3760  -18.6135 C   0  0  0  0  0  0  0  0  0  0  0  0
  -19.8513   12.7675  -17.7166 C   0  0  0  0  0  0  0  0  0  0  0  0
  -19.5582   11.3714  -17.3373 C   0  0  0  0  0  0  0  0  0  0  0  0
  -20.2955   10.8623  -16.2703 C   0  0  0  0  0  0  0  0  0  0  0  0
  -20.0922    9.5521  -15.8242 C   0  0  0  0  0  0  0  0  0  0  0  0
  -21.0147    8.8965  -14.4837 Cl  0  0  0  0  0  0  0  0  0  0  0  0
  -19.1561    8.7238  -16.4257 C   0  0  0  0  0  0  0  0  0  0  0  0
  -18.4405    9.2662  -17.4862 C   0  0  0  0  0  0  0  0  0  0  0  0
  -18.6454   10.5563  -17.9212 C   0  0  0  0  0  0  0  0  0  0  0  0
  -17.8790   11.0722  -19.0567 C   0  0  0  0  0  0  0  0  0  0  0  0
  -17.0264   10.3526  -19.6227 O   0  0  0  0  0  0  0  0  0  0  0  0
  -18.4254   15.6098  -23.1880 N   0  0  0  0  0  0  0  0  0  0  0  0
  -18.9677   15.5308  -24.0819 H   0  0  0  0  0  0  0  0  0  0  0  0
  -21.2127   18.3885  -23.1703 C   0  0  0  0  0  0  0  0  0  0  0  0
  -21.9695   18.0163  -22.1333 O   0  0  0  0  0  0  0  0  0  0  0  0
  -19.8707   18.0634  -22.9387 N   0  0  0  0  0  0  0  0  0  0  0  0
  -19.2819   17.4140  -21.7147 C   0  0  0  0  0  0  0  0  0  0  0  0
  -18.1663   16.8902  -22.5563 C   0  0  0  0  0  0  0  0  0  0  0  0
  -18.5556   18.0724  -23.4486 C   0  0  0  0  0  0  0  0  0  0  0  0
  -20.7787   21.3457  -23.9778 C   0  0  0  0  0  0  0  0  0  0  0  0
  -21.6987   20.3577  -24.6098 C   0  0  0  0  0  0  0  0  0  0  0  0
  -22.4879   20.6229  -25.6605 N   0  0  0  0  0  0  0  0  0  0  0  0
  -23.1442   19.5833  -25.9637 O   0  0  0  0  0  0  0  0  0  0  0  0
  -22.8274   18.5738  -25.1341 C   0  0  0  0  0  0  0  0  0  0  0  0
  -23.4380   17.2486  -25.2576 C   0  0  0  0  0  0  0  0  0  0  0  0
  -21.9054   19.0116  -24.2444 C   0  0  0  0  0  0  0  0  0  0  0  0
 27 28  1  0  0  0
 28 29  2  0  0  0
 29 30  1  0  0  0
 30 31  1  0  0  0
 31 32  1  0  0  0
 31 33  2  0  0  0
 33 21  1  0  0  0
 21 22  2  0  0  0
 21 23  1  0  0  0
 23 24  1  0  0  0
 24 25  1  0  0  0
 25 19  1  0  0  0
 19  1  1  0  0  0
  1  2  2  0  0  0
  2  3  1  0  0  0
  3  4  2  0  0  0
  4  5  1  0  0  0
  5  7  1  0  0  0
  7  8  1  0  0  0
  8  9  1  0  0  0
  9 10  1  0  0  0
 10 11  2  0  0  0
 11 12  1  0  0  0
 12 13  1  0  0  0
 12 14  2  0  0  0
 14 15  1  0  0  0
 15 16  2  0  0  0
 16 17  1  0  0  0
 17 18  2  0  0  0
  5  6  2  0  0  0
 25 26  1  0  0  0
 33 28  1  0  0  0
 26 23  1  0  0  0
  6  1  1  0  0  0
 17  7  1  0  0  0
 16 10  1  0  0  0
 19 20  1  0  0  0
M  END
> <minimizedAffinity>
-9.32267

> <CNNscore>
0.5406345129

> <CNNaffinity>
6.9877767563

> <CNN_VS>
3.7778332233

> <CNNaffinity_variance>
0.3011308014

$$$$
[H]c1nc([H])c(N([H])C2([H])C([H])([H])N(C(=O)c3c(C([H])([H])[H])noc3C([H])([H])[H])C2([H])[H])c([H])c1N1C(=O)c2c([H])c([H])c(Cl)c([H])c2C([H])([H])C1([H])[H]


 33 37  0  0  0  0  0  0  0  0999 V2000
  -17.2765   11.1205  -20.5745 C   0  0  0  0  0  0  0  0  0  0  0  0
  -16.2078   10.2194  -20.4578 C   0  0  0  0  0  0  0  0  0  0  0  0
  -15.1567   10.3122  -21.2861 N   0  0  0  0  0  0  0  0  0  0  0  0
  -15.0921   11.2646  -22.2489 C   0  0  0  0  0  0  0  0  0  0  0  0
  -16.1061   12.1861  -22.4234 C   0  0  0  0  0  0  0  0  0  0  0  0
  -17.1960   12.0814  -21.5566 C   0  0  0  0  0  0  0  0  0  0  0  0
  -16.0417   13.1936  -23.4192 N   0  0  0  0  0  0  0  0  0  0  0  0
  -15.1440   14.3050  -23.1933 C   0  0  0  0  0  0  0  0  0  0  0  0
  -14.5160   14.8194  -24.4439 C   0  0  0  0  0  0  0  0  0  0  0  0
  -15.3499   14.6389  -25.6484 C   0  0  0  0  0  0  0  0  0  0  0  0
  -14.9641   15.3677  -26.7715 C   0  0  0  0  0  0  0  0  0  0  0  0
  -15.6891   15.2761  -27.9643 C   0  0  0  0  0  0  0  0  0  0  0  0
  -15.2139   16.1856  -29.3872 Cl  0  0  0  0  0  0  0  0  0  0  0  0
  -16.8081   14.4626  -28.0661 C   0  0  0  0  0  0  0  0  0  0  0  0
  -17.1620   13.7514  -26.9259 C   0  0  0  0  0  0  0  0  0  0  0  0
  -16.4441   13.8451  -25.7549 C   0  0  0  0  0  0  0  0  0  0  0  0
  -16.8478   13.0582  -24.5884 C   0  0  0  0  0  0  0  0  0  0  0  0
  -17.8520   12.3143  -24.6449 O   0  0  0  0  0  0  0  0  0  0  0  0
  -18.3612   10.9963  -19.6794 N   0  0  0  0  0  0  0  0  0  0  0  0
  -19.2244   10.5014  -20.0102 H   0  0  0  0  0  0  0  0  0  0  0  0
  -19.4286   14.7240  -19.0038 C   0  0  0  0  0  0  0  0  0  0  0  0
  -20.7536   14.6131  -18.8671 O   0  0  0  0  0  0  0  0  0  0  0  0
  -18.7890   13.5752  -18.5226 N   0  0  0  0  0  0  0  0  0  0  0  0
  -19.4275   12.3613  -17.9019 C   0  0  0  0  0  0  0  0  0  0  0  0
  -18.2560   11.5477  -18.3412 C   0  0  0  0  0  0  0  0  0  0  0  0
  -17.5602   12.9118  -18.3233 C   0  0  0  0  0  0  0  0  0  0  0  0
  -19.0595   17.3411  -17.3914 C   0  0  0  0  0  0  0  0  0  0  0  0
  -18.7993   17.1249  -18.8431 C   0  0  0  0  0  0  0  0  0  0  0  0
  -18.3441   18.0687  -19.6792 N   0  0  0  0  0  0  0  0  0  0  0  0
  -18.2238   17.5768  -20.8398 O   0  0  0  0  0  0  0  0  0  0  0  0
  -18.5908   16.2834  -20.8380 C   0  0  0  0  0  0  0  0  0  0  0  0
  -18.5494   15.4644  -22.0512 C   0  0  0  0  0  0  0  0  0  0  0  0
  -18.9700   15.9379  -19.5850 C   0  0  0  0  0  0  0  0  0  0  0  0
 27 28  1  0  0  0
 28 29  2  0  0  0
 29 30  1  0  0  0
 30 31  1  0  0  0
 31 32  1  0  0  0
 31 33  2  0  0  0
 33 21  1  0  0  0
 21 22  2  0  0  0
 21 23  1  0  0  0
 23 24  1  0  0  0
 24 25  1  0  0  0
 25 19  1  0  0  0
 19  1  1  0  0  0
  1  2  2  0  0  0
  2  3  1  0  0  0
  3  4  2  0  0  0
  4  5  1  0  0  0
  5  7  1  0  0  0
  7  8  1  0  0  0
  8  9  1  0  0  0
  9 10  1  0  0  0
 10 11  2  0  0  0
 11 12  1  0  0  0
 12 13  1  0  0  0
 12 14  2  0  0  0
 14 15  1  0  0  0
 15 16  2  0  0  0
 16 17  1  0  0  0
 17 18  2  0  0  0
  5  6  2  0  0  0
 25 26  1  0  0  0
 33 28  1  0  0  0
 26 23  1  0  0  0
  6  1  1  0  0  0
 17  7  1  0  0  0
 16 10  1  0  0  0
 19 20  1  0  0  0
M  END
> <minimizedAffinity>
-8.41960

> <CNNscore>
0.5087094903

> <CNNaffinity>
7.5106019974

> <CNN_VS>
3.8207144737

> <CNNaffinity_variance>
0.1193744987

$$$$
[H]c1nc([H])c(N([H])C2([H])C([H])([H])N(C(=O)c3c(C([H])([H])[H])noc3C([H])([H])[H])C2([H])[H])c([H])c1N1C(=O)c2c([H])c([H])c(Cl)c([H])c2C([H])([H])C1([H])[H]


 33 37  0  0  0  0  0  0  0  0999 V2000
  -17.5956   12.7204  -19.3990 C   0  0  0  0  0  0  0  0  0  0  0  0
  -17.0865   11.4150  -19.4662 C   0  0  0  0  0  0  0  0  0  0  0  0
  -16.5859   10.9472  -20.6196 N   0  0  0  0  0  0  0  0  0  0  0  0
  -16.5551   11.7076  -21.7416 C   0  0  0  0  0  0  0  0  0  0  0  0
  -17.0380   13.0017  -21.7515 C   0  0  0  0  0  0  0  0  0  0  0  0
  -17.5573   13.4796  -20.5463 C   0  0  0  0  0  0  0  0  0  0  0  0
  -16.9986   13.8088  -22.9167 N   0  0  0  0  0  0  0  0  0  0  0  0
  -16.5653   15.1809  -22.7690 C   0  0  0  0  0  0  0  0  0  0  0  0
  -15.7950   15.6855  -23.9415 C   0  0  0  0  0  0  0  0  0  0  0  0
  -16.1718   15.0520  -25.2204 C   0  0  0  0  0  0  0  0  0  0  0  0
  -15.7212   15.6916  -26.3733 C   0  0  0  0  0  0  0  0  0  0  0  0
  -16.0276   15.1796  -27.6386 C   0  0  0  0  0  0  0  0  0  0  0  0
  -15.4652   15.9726  -29.0989 Cl  0  0  0  0  0  0  0  0  0  0  0  0
  -16.7850   14.0267  -27.7847 C   0  0  0  0  0  0  0  0  0  0  0  0
  -17.2162   13.4169  -26.6129 C   0  0  0  0  0  0  0  0  0  0  0  0
  -16.9110   13.9251  -25.3703 C   0  0  0  0  0  0  0  0  0  0  0  0
  -17.3728   13.2319  -24.1665 C   0  0  0  0  0  0  0  0  0  0  0  0
  -18.0581   12.1896  -24.2614 O   0  0  0  0  0  0  0  0  0  0  0  0
  -18.1065   13.1799  -18.1657 N   0  0  0  0  0  0  0  0  0  0  0  0
  -17.4367   13.3181  -17.3708 H   0  0  0  0  0  0  0  0  0  0  0  0
  -20.2844   11.0161  -15.7027 C   0  0  0  0  0  0  0  0  0  0  0  0
  -20.0482   11.6096  -14.5285 O   0  0  0  0  0  0  0  0  0  0  0  0
  -20.2610   11.9563  -16.7400 N   0  0  0  0  0  0  0  0  0  0  0  0
  -20.0370   13.4408  -16.6280 C   0  0  0  0  0  0  0  0  0  0  0  0
  -19.5263   13.4473  -18.0302 C   0  0  0  0  0  0  0  0  0  0  0  0
  -20.3735   12.1753  -18.1288 C   0  0  0  0  0  0  0  0  0  0  0  0
  -18.3895    8.9570  -17.0273 C   0  0  0  0  0  0  0  0  0  0  0  0
  -19.6310    8.6797  -16.2504 C   0  0  0  0  0  0  0  0  0  0  0  0
  -20.1103    7.4525  -16.0023 N   0  0  0  0  0  0  0  0  0  0  0  0
  -21.1719    7.5483  -15.3187 O   0  0  0  0  0  0  0  0  0  0  0  0
  -21.4546    8.8401  -15.0757 C   0  0  0  0  0  0  0  0  0  0  0  0
  -22.6304    9.2437  -14.3018 C   0  0  0  0  0  0  0  0  0  0  0  0
  -20.5014    9.6119  -15.6490 C   0  0  0  0  0  0  0  0  0  0  0  0
 27 28  1  0  0  0
 28 29  2  0  0  0
 29 30  1  0  0  0
 30 31  1  0  0  0
 31 32  1  0  0  0
 31 33  2  0  0  0
 33 21  1  0  0  0
 21 22  2  0  0  0
 21 23  1  0  0  0
 23 24  1  0  0  0
 24 25  1  0  0  0
 25 19  1  0  0  0
 19  1  1  0  0  0
  1  2  2  0  0  0
  2  3  1  0  0  0
  3  4  2  0  0  0
  4  5  1  0  0  0
  5  7  1  0  0  0
  7  8  1  0  0  0
  8  9  1  0  0  0
  9 10  1  0  0  0
 10 11  2  0  0  0
 11 12  1  0  0  0
 12 13  1  0  0  0
 12 14  2  0  0  0
 14 15  1  0  0  0
 15 16  2  0  0  0
 16 17  1  0  0  0
 17 18  2  0  0  0
  5  6  2  0  0  0
 25 26  1  0  0  0
 33 28  1  0  0  0
 26 23  1  0  0  0
  6  1  1  0  0  0
 17  7  1  0  0  0
 16 10  1  0  0  0
 19 20  1  0  0  0
M  END
> <minimizedAffinity>
-8.48287

> <CNNscore>
0.4556526244

> <CNNaffinity>
7.0262160301

> <CNN_VS>
3.2015137672

> <CNNaffinity_variance>
0.3102599680

$$$$
[H]c1nc([H])c(N([H])C2([H])C([H])([H])N(C(=O)c3c(C([H])([H])[H])noc3C([H])([H])[H])C2([H])[H])c([H])c1N1C(=O)c2c([H])c([H])c(Cl)c([H])c2C([H])([H])C1([H])[H]


 33 37  0  0  0  0  0  0  0  0999 V2000
  -18.2479   13.0383  -20.1340 C   0  0  0  0  0  0  0  0  0  0  0  0
  -17.6063   11.9667  -19.4956 C   0  0  0  0  0  0  0  0  0  0  0  0
  -16.7324   11.2067  -20.1726 N   0  0  0  0  0  0  0  0  0  0  0  0
  -16.4439   11.4444  -21.4758 C   0  0  0  0  0  0  0  0  0  0  0  0
  -17.0361   12.4813  -22.1700 C   0  0  0  0  0  0  0  0  0  0  0  0
  -17.9445   13.2667  -21.4569 C   0  0  0  0  0  0  0  0  0  0  0  0
  -16.7312   12.7454  -23.5294 N   0  0  0  0  0  0  0  0  0  0  0  0
  -17.5386   12.0945  -24.5376 C   0  0  0  0  0  0  0  0  0  0  0  0
  -17.7569   12.9335  -25.7505 C   0  0  0  0  0  0  0  0  0  0  0  0
  -16.6563   13.8768  -26.0295 C   0  0  0  0  0  0  0  0  0  0  0  0
  -16.6544   14.4528  -27.2983 C   0  0  0  0  0  0  0  0  0  0  0  0
  -15.6523   15.3553  -27.6697 C   0  0  0  0  0  0  0  0  0  0  0  0
  -15.6381   16.0904  -29.2626 Cl  0  0  0  0  0  0  0  0  0  0  0  0
  -14.6352   15.7030  -26.7929 C   0  0  0  0  0  0  0  0  0  0  0  0
  -14.6705   15.1087  -25.5372 C   0  0  0  0  0  0  0  0  0  0  0  0
  -15.6598   14.2215  -25.1771 C   0  0  0  0  0  0  0  0  0  0  0  0
  -15.6622   13.6395  -23.8339 C   0  0  0  0  0  0  0  0  0  0  0  0
  -14.7600   13.9308  -23.0175 O   0  0  0  0  0  0  0  0  0  0  0  0
  -19.1550   13.8204  -19.3864 N   0  0  0  0  0  0  0  0  0  0  0  0
  -20.1661   13.5428  -19.3842 H   0  0  0  0  0  0  0  0  0  0  0  0
  -19.6075   17.4353  -20.8761 C   0  0  0  0  0  0  0  0  0  0  0  0
  -20.8654   17.7238  -20.5279 O   0  0  0  0  0  0  0  0  0  0  0  0
  -19.0036   16.6275  -19.9049 N   0  0  0  0  0  0  0  0  0  0  0  0
  -19.6066   16.1360  -18.6160 C   0  0  0  0  0  0  0  0  0  0  0  0
  -18.6723   14.9727  -18.6482 C   0  0  0  0  0  0  0  0  0  0  0  0
  -17.8447   15.9216  -19.5199 C   0  0  0  0  0  0  0  0  0  0  0  0
  -19.3747   20.4815  -21.3773 C   0  0  0  0  0  0  0  0  0  0  0  0
  -19.0602   19.3783  -22.3291 C   0  0  0  0  0  0  0  0  0  0  0  0
  -18.6077   19.5618  -23.5775 N   0  0  0  0  0  0  0  0  0  0  0  0
  -18.4338   18.4354  -24.1293 O   0  0  0  0  0  0  0  0  0  0  0  0
  -18.7596   17.4453  -23.2800 C   0  0  0  0  0  0  0  0  0  0  0  0
  -18.6524   16.0344  -23.6570 C   0  0  0  0  0  0  0  0  0  0  0  0
  -19.1687   17.9896  -22.1098 C   0  0  0  0  0  0  0  0  0  0  0  0
 27 28  1  0  0  0
 28 29  2  0  0  0
 29 30  1  0  0  0
 30 31  1  0  0  0
 31 32  1  0  0  0
 31 33  2  0  0  0
 33 21  1  0  0  0
 21 22  2  0  0  0
 21 23  1  0  0  0
 23 24  1  0  0  0
 24 25  1  0  0  0
 25 19  1  0  0  0
 19  1  1  0  0  0
  1  2  2  0  0  0
  2  3  1  0  0  0
  3  4  2  0  0  0
  4  5  1  0  0  0
  5  7  1  0  0  0
  7  8  1  0  0  0
  8  9  1  0  0  0
  9 10  1  0  0  0
 10 11  2  0  0  0
 11 12  1  0  0  0
 12 13  1  0  0  0
 12 14  2  0  0  0
 14 15  1  0  0  0
 15 16  2  0  0  0
 16 17  1  0  0  0
 17 18  2  0  0  0
  5  6  2  0  0  0
 25 26  1  0  0  0
 33 28  1  0  0  0
 26 23  1  0  0  0
  6  1  1  0  0  0
 17  7  1  0  0  0
 16 10  1  0  0  0
 19 20  1  0  0  0
M  END
> <minimizedAffinity>
-8.97412

> <CNNscore>
0.4070724845

> <CNNaffinity>
7.3250417709

> <CNN_VS>
2.9818229675

> <CNNaffinity_variance>
0.1313026845

$$$$
[H]c1nc([H])c(N([H])C2([H])C([H])([H])N(C(=O)c3c(C([H])([H])[H])noc3C([H])([H])[H])C2([H])[H])c([H])c1N1C(=O)c2c([H])c([H])c(Cl)c([H])c2C([H])([H])C1([H])[H]


 33 37  0  0  0  0  0  0  0  0999 V2000
  -17.9812   11.8437  -19.9597 C   0  0  0  0  0  0  0  0  0  0  0  0
  -17.0584   10.7904  -19.8775 C   0  0  0  0  0  0  0  0  0  0  0  0
  -16.1120   10.6509  -20.8180 N   0  0  0  0  0  0  0  0  0  0  0  0
  -16.0163   11.5093  -21.8631 C   0  0  0  0  0  0  0  0  0  0  0  0
  -16.8891   12.5696  -22.0101 C   0  0  0  0  0  0  0  0  0  0  0  0
  -17.8709   12.7064  -21.0263 C   0  0  0  0  0  0  0  0  0  0  0  0
  -16.7890   13.4798  -23.0929 N   0  0  0  0  0  0  0  0  0  0  0  0
  -16.1663   14.7602  -22.8386 C   0  0  0  0  0  0  0  0  0  0  0  0
  -15.3845   15.2765  -23.9985 C   0  0  0  0  0  0  0  0  0  0  0  0
  -15.8983   14.8328  -25.3092 C   0  0  0  0  0  0  0  0  0  0  0  0
  -15.4138   15.5224  -26.4188 C   0  0  0  0  0  0  0  0  0  0  0  0
  -15.8406   15.1878  -27.7082 C   0  0  0  0  0  0  0  0  0  0  0  0
  -15.2375   16.0453  -29.1148 Cl  0  0  0  0  0  0  0  0  0  0  0  0
  -16.7542   14.1661  -27.9218 C   0  0  0  0  0  0  0  0  0  0  0  0
  -17.2147   13.5014  -26.7917 C   0  0  0  0  0  0  0  0  0  0  0  0
  -16.7904   13.8347  -25.5251 C   0  0  0  0  0  0  0  0  0  0  0  0
  -17.2913   13.0887  -24.3695 C   0  0  0  0  0  0  0  0  0  0  0  0
  -18.1162   12.1612  -24.5255 O   0  0  0  0  0  0  0  0  0  0  0  0
  -18.9574   11.9625  -18.9467 N   0  0  0  0  0  0  0  0  0  0  0  0
  -19.5271   11.1163  -18.7038 H   0  0  0  0  0  0  0  0  0  0  0  0
  -20.6924   12.0789  -15.4158 C   0  0  0  0  0  0  0  0  0  0  0  0
  -19.6777   11.7827  -14.5977 O   0  0  0  0  0  0  0  0  0  0  0  0
  -20.2322   12.7951  -16.5274 N   0  0  0  0  0  0  0  0  0  0  0  0
  -18.8207   13.2310  -16.8179 C   0  0  0  0  0  0  0  0  0  0  0  0
  -19.1452   13.2348  -18.2746 C   0  0  0  0  0  0  0  0  0  0  0  0
  -20.5723   13.4137  -17.7485 C   0  0  0  0  0  0  0  0  0  0  0  0
  -22.8171   13.9303  -14.1339 C   0  0  0  0  0  0  0  0  0  0  0  0
  -22.9371   12.4722  -14.4195 C   0  0  0  0  0  0  0  0  0  0  0  0
  -24.0271   11.7370  -14.1579 N   0  0  0  0  0  0  0  0  0  0  0  0
  -23.8204   10.5402  -14.5162 O   0  0  0  0  0  0  0  0  0  0  0  0
  -22.5859   10.4155  -15.0342 C   0  0  0  0  0  0  0  0  0  0  0  0
  -22.0804    9.1348  -15.5325 C   0  0  0  0  0  0  0  0  0  0  0  0
  -21.9724   11.6219  -14.9979 C   0  0  0  0  0  0  0  0  0  0  0  0
 27 28  1  0  0  0
 28 29  2  0  0  0
 29 30  1  0  0  0
 30 31  1  0  0  0
 31 32  1  0  0  0
 31 33  2  0  0  0
 33 21  1  0  0  0
 21 22  2  0  0  0
 21 23  1  0  0  0
 23 24  1  0  0  0
 24 25  1  0  0  0
 25 19  1  0  0  0
 19  1  1  0  0  0
  1  2  2  0  0  0
  2  3  1  0  0  0
  3  4  2  0  0  0
  4  5  1  0  0  0
  5  7  1  0  0  0
  7  8  1  0  0  0
  8  9  1  0  0  0
  9 10  1  0  0  0
 10 11  2  0  0  0
 11 12  1  0  0  0
 12 13  1  0  0  0
 12 14  2  0  0  0
 14 15  1  0  0  0
 15 16  2  0  0  0
 16 17  1  0  0  0
 17 18  2  0  0  0
  5  6  2  0  0  0
 25 26  1  0  0  0
 33 28  1  0  0  0
 26 23  1  0  0  0
  6  1  1  0  0  0
 17  7  1  0  0  0
 16 10  1  0  0  0
 19 20  1  0  0  0
M  END
> <minimizedAffinity>
-7.99195

> <CNNscore>
0.3976605237

> <CNNaffinity>
6.8728265762

> <CNN_VS>
2.7330517769

> <CNNaffinity_variance>
0.3155857921

$$$$
[H]c1nc([H])c(N([H])C2([H])C([H])([H])N(C(=O)c3c(C([H])([H])[H])noc3C([H])([H])[H])C2([H])[H])c([H])c1N1C(=O)c2c([H])c([H])c(Cl)c([H])c2C([H])([H])C1([H])[H]


 33 37  0  0  0  0  0  0  0  0999 V2000
  -17.5938   11.3629  -20.3444 C   0  0  0  0  0  0  0  0  0  0  0  0
  -16.5803   10.3969  -20.2585 C   0  0  0  0  0  0  0  0  0  0  0  0
  -15.5728   10.3989  -21.1444 N   0  0  0  0  0  0  0  0  0  0  0  0
  -15.5008   11.3195  -22.1370 C   0  0  0  0  0  0  0  0  0  0  0  0
  -16.4616   12.3008  -22.2842 C   0  0  0  0  0  0  0  0  0  0  0  0
  -17.5064   12.2905  -21.3574 C   0  0  0  0  0  0  0  0  0  0  0  0
  -16.3880   13.2755  -23.3114 N   0  0  0  0  0  0  0  0  0  0  0  0
  -15.6479   14.4872  -23.0358 C   0  0  0  0  0  0  0  0  0  0  0  0
  -14.9348   15.0269  -24.2287 C   0  0  0  0  0  0  0  0  0  0  0  0
  -15.5958   14.7144  -25.5110 C   0  0  0  0  0  0  0  0  0  0  0  0
  -15.1599   15.4442  -26.6150 C   0  0  0  0  0  0  0  0  0  0  0  0
  -15.7243   15.2325  -27.8773 C   0  0  0  0  0  0  0  0  0  0  0  0
  -15.1840   16.1418  -29.2770 Cl  0  0  0  0  0  0  0  0  0  0  0  0
  -16.7295   14.2960  -28.0688 C   0  0  0  0  0  0  0  0  0  0  0  0
  -17.1379   13.5879  -26.9450 C   0  0  0  0  0  0  0  0  0  0  0  0
  -16.5781   13.8001  -25.7052 C   0  0  0  0  0  0  0  0  0  0  0  0
  -17.0306   13.0121  -24.5575 C   0  0  0  0  0  0  0  0  0  0  0  0
  -17.9354   12.1590  -24.6941 O   0  0  0  0  0  0  0  0  0  0  0  0
  -18.6329   11.3335  -19.3892 N   0  0  0  0  0  0  0  0  0  0  0  0
  -19.5843   11.0200  -19.6992 H   0  0  0  0  0  0  0  0  0  0  0  0
  -19.7077   14.9061  -18.1350 C   0  0  0  0  0  0  0  0  0  0  0  0
  -20.9978   14.7202  -17.8391 O   0  0  0  0  0  0  0  0  0  0  0  0
  -18.9748   13.7397  -17.8842 N   0  0  0  0  0  0  0  0  0  0  0  0
  -19.4867   12.4346  -17.3354 C   0  0  0  0  0  0  0  0  0  0  0  0
  -18.3626   11.7311  -18.0200 C   0  0  0  0  0  0  0  0  0  0  0  0
  -17.7114   13.1143  -17.9300 C   0  0  0  0  0  0  0  0  0  0  0  0
  -19.1970   15.5101  -21.1282 C   0  0  0  0  0  0  0  0  0  0  0  0
  -19.1425   16.4672  -19.9869 C   0  0  0  0  0  0  0  0  0  0  0  0
  -18.8626   17.7727  -20.1066 N   0  0  0  0  0  0  0  0  0  0  0  0
  -18.8962   18.3146  -18.9626 O   0  0  0  0  0  0  0  0  0  0  0  0
  -19.1999   17.4016  -18.0235 C   0  0  0  0  0  0  0  0  0  0  0  0
  -19.3084   17.7542  -16.6064 C   0  0  0  0  0  0  0  0  0  0  0  0
  -19.3686   16.1985  -18.6212 C   0  0  0  0  0  0  0  0  0  0  0  0
 27 28  1  0  0  0
 28 29  2  0  0  0
 29 30  1  0  0  0
 30 31  1  0  0  0
 31 32  1  0  0  0
 31 33  2  0  0  0
 33 21  1  0  0  0
 21 22  2  0  0  0
 21 23  1  0  0  0
 23 24  1  0  0  0
 24 25  1  0  0  0
 25 19  1  0  0  0
 19  1  1  0  0  0
  1  2  2  0  0  0
  2  3  1  0  0  0
  3  4  2  0  0  0
  4  5  1  0  0  0
  5  7  1  0  0  0
  7  8  1  0  0  0
  8  9  1  0  0  0
  9 10  1  0  0  0
 10 11  2  0  0  0
 11 12  1  0  0  0
 12 13  1  0  0  0
 12 14  2  0  0  0
 14 15  1  0  0  0
 15 16  2  0  0  0
 16 17  1  0  0  0
 17 18  2  0  0  0
  5  6  2  0  0  0
 25 26  1  0  0  0
 33 28  1  0  0  0
 26 23  1  0  0  0
  6  1  1  0  0  0
 17  7  1  0  0  0
 16 10  1  0  0  0
 19 20  1  0  0  0
M  END
> <minimizedAffinity>
-8.30152

> <CNNscore>
0.3551569283

> <CNNaffinity>
7.2817277908

> <CNN_VS>
2.5861561298

> <CNNaffinity_variance>
0.0680691749

$$$$
[H]c1nc([H])c(N([H])C2([H])C([H])([H])N(C(=O)c3c(C([H])([H])[H])noc3C([H])([H])[H])C2([H])[H])c([H])c1N1C(=O)c2c([H])c([H])c(Cl)c([H])c2C([H])([H])C1([H])[H]


 33 37  0  0  0  0  0  0  0  0999 V2000
  -17.4356   16.6224  -23.5647 C   0  0  0  0  0  0  0  0  0  0  0  0
  -16.0944   16.7703  -23.9480 C   0  0  0  0  0  0  0  0  0  0  0  0
  -15.2008   15.8150  -23.6503 N   0  0  0  0  0  0  0  0  0  0  0  0
  -15.5575   14.6920  -22.9796 C   0  0  0  0  0  0  0  0  0  0  0  0
  -16.8591   14.4769  -22.5704 C   0  0  0  0  0  0  0  0  0  0  0  0
  -17.7819   15.4770  -22.8847 C   0  0  0  0  0  0  0  0  0  0  0  0
  -17.2441   13.2999  -21.8796 N   0  0  0  0  0  0  0  0  0  0  0  0
  -16.6523   12.0494  -22.3017 C   0  0  0  0  0  0  0  0  0  0  0  0
  -16.4161   11.0995  -21.1770 C   0  0  0  0  0  0  0  0  0  0  0  0
  -17.3699   11.2479  -20.0603 C   0  0  0  0  0  0  0  0  0  0  0  0
  -17.3981   10.2021  -19.1400 C   0  0  0  0  0  0  0  0  0  0  0  0
  -18.2706   10.2378  -18.0472 C   0  0  0  0  0  0  0  0  0  0  0  0
  -18.3156    8.9297  -16.8789 Cl  0  0  0  0  0  0  0  0  0  0  0  0
  -19.1300   11.3080  -17.8465 C   0  0  0  0  0  0  0  0  0  0  0  0
  -19.0733   12.3316  -18.7846 C   0  0  0  0  0  0  0  0  0  0  0  0
  -18.2120   12.2913  -19.8579 C   0  0  0  0  0  0  0  0  0  0  0  0
  -18.1773   13.4061  -20.8060 C   0  0  0  0  0  0  0  0  0  0  0  0
  -18.9388   14.3872  -20.6556 O   0  0  0  0  0  0  0  0  0  0  0  0
  -18.3481   17.6451  -23.9032 N   0  0  0  0  0  0  0  0  0  0  0  0
  -18.7876   17.6241  -24.8550 H   0  0  0  0  0  0  0  0  0  0  0  0
  -22.0923   18.6316  -23.1969 C   0  0  0  0  0  0  0  0  0  0  0  0
  -22.4663   17.6934  -22.3213 O   0  0  0  0  0  0  0  0  0  0  0  0
  -20.7384   18.9463  -23.0287 N   0  0  0  0  0  0  0  0  0  0  0  0
  -19.7829   18.3761  -22.0147 C   0  0  0  0  0  0  0  0  0  0  0  0
  -18.6524   18.6856  -22.9385 C   0  0  0  0  0  0  0  0  0  0  0  0
  -19.6467   19.7155  -23.4826 C   0  0  0  0  0  0  0  0  0  0  0  0
  -23.5210   21.3571  -22.8567 C   0  0  0  0  0  0  0  0  0  0  0  0
  -23.7527   20.3370  -23.9185 C   0  0  0  0  0  0  0  0  0  0  0  0
  -24.6398   20.4696  -24.9147 N   0  0  0  0  0  0  0  0  0  0  0  0
  -24.5986   19.4406  -25.6515 O   0  0  0  0  0  0  0  0  0  0  0  0
  -23.6843   18.5712  -25.1868 C   0  0  0  0  0  0  0  0  0  0  0  0
  -23.4249   17.2914  -25.8494 C   0  0  0  0  0  0  0  0  0  0  0  0
  -23.1100   19.0919  -24.0767 C   0  0  0  0  0  0  0  0  0  0  0  0
 27 28  1  0  0  0
 28 29  2  0  0  0
 29 30  1  0  0  0
 30 31  1  0  0  0
 31 32  1  0  0  0
 31 33  2  0  0  0
 33 21  1  0  0  0
 21 22  2  0  0  0
 21 23  1  0  0  0
 23 24  1  0  0  0
 24 25  1  0  0  0
 25 19  1  0  0  0
 19  1  1  0  0  0
  1  2  2  0  0  0
  2  3  1  0  0  0
  3  4  2  0  0  0
  4  5  1  0  0  0
  5  7  1  0  0  0
  7  8  1  0  0  0
  8  9  1  0  0  0
  9 10  1  0  0  0
 10 11  2  0  0  0
 11 12  1  0  0  0
 12 13  1  0  0  0
 12 14  2  0  0  0
 14 15  1  0  0  0
 15 16  2  0  0  0
 16 17  1  0  0  0
 17 18  2  0  0  0
  5  6  2  0  0  0
 25 26  1  0  0  0
 33 28  1  0  0  0
 26 23  1  0  0  0
  6  1  1  0  0  0
 17  7  1  0  0  0
 16 10  1  0  0  0
 19 20  1  0  0  0
M  END
> <minimizedAffinity>
-9.94787

> <CNNscore>
0.3378024399

> <CNNaffinity>
6.6501722336

> <CNN_VS>
2.2464444637

> <CNNaffinity_variance>
0.0721351951

$$$$
[H]c1nc([H])c(N([H])C2([H])C([H])([H])N(C(=O)c3c(C([H])([H])[H])noc3C([H])([H])[H])C2([H])[H])c([H])c1N1C(=O)c2c([H])c([H])c(Cl)c([H])c2C([H])([H])C1([H])[H]


 33 37  0  0  0  0  0  0  0  0999 V2000
  -17.3559   14.3306  -23.5650 C   0  0  0  0  0  0  0  0  0  0  0  0
  -16.4592   13.4813  -24.2300 C   0  0  0  0  0  0  0  0  0  0  0  0
  -15.9840   12.3893  -23.6125 N   0  0  0  0  0  0  0  0  0  0  0  0
  -16.3481   12.0740  -22.3452 C   0  0  0  0  0  0  0  0  0  0  0  0
  -17.2267   12.8623  -21.6281 C   0  0  0  0  0  0  0  0  0  0  0  0
  -17.7158   13.9970  -22.2791 C   0  0  0  0  0  0  0  0  0  0  0  0
  -17.6232   12.5339  -20.3068 N   0  0  0  0  0  0  0  0  0  0  0  0
  -18.3031   13.5522  -19.5369 C   0  0  0  0  0  0  0  0  0  0  0  0
  -19.3425   13.0026  -18.6200 C   0  0  0  0  0  0  0  0  0  0  0  0
  -19.0556   11.6350  -18.1443 C   0  0  0  0  0  0  0  0  0  0  0  0
  -19.8115   11.1962  -17.0592 C   0  0  0  0  0  0  0  0  0  0  0  0
  -19.6157    9.9187  -16.5242 C   0  0  0  0  0  0  0  0  0  0  0  0
  -20.5616    9.3514  -15.1599 Cl  0  0  0  0  0  0  0  0  0  0  0  0
  -18.6687    9.0540  -17.0529 C   0  0  0  0  0  0  0  0  0  0  0  0
  -17.9344    9.5264  -18.1341 C   0  0  0  0  0  0  0  0  0  0  0  0
  -18.1322   10.7846  -18.6568 C   0  0  0  0  0  0  0  0  0  0  0  0
  -17.3458   11.2258  -19.8101 C   0  0  0  0  0  0  0  0  0  0  0  0
  -16.4830   10.4718  -20.3121 O   0  0  0  0  0  0  0  0  0  0  0  0
  -17.8405   15.4657  -24.2505 N   0  0  0  0  0  0  0  0  0  0  0  0
  -18.8098   15.4294  -24.6488 H   0  0  0  0  0  0  0  0  0  0  0  0
  -17.2839   17.8433  -21.1636 C   0  0  0  0  0  0  0  0  0  0  0  0
  -16.3155   17.2089  -20.4954 O   0  0  0  0  0  0  0  0  0  0  0  0
  -17.1371   17.6471  -22.5421 N   0  0  0  0  0  0  0  0  0  0  0  0
  -16.0574   16.8715  -23.2487 C   0  0  0  0  0  0  0  0  0  0  0  0
  -16.9977   16.6394  -24.3841 C   0  0  0  0  0  0  0  0  0  0  0  0
  -17.6605   17.9025  -23.8267 C   0  0  0  0  0  0  0  0  0  0  0  0
  -18.4024   16.7511  -18.4912 C   0  0  0  0  0  0  0  0  0  0  0  0
  -18.7201   18.0531  -19.1438 C   0  0  0  0  0  0  0  0  0  0  0  0
  -19.5595   18.9679  -18.6386 N   0  0  0  0  0  0  0  0  0  0  0  0
  -19.6158   19.9617  -19.4213 O   0  0  0  0  0  0  0  0  0  0  0  0
  -18.8189   19.7621  -20.4857 C   0  0  0  0  0  0  0  0  0  0  0  0
  -18.6889   20.7556  -21.5535 C   0  0  0  0  0  0  0  0  0  0  0  0
  -18.2189   18.5546  -20.3627 C   0  0  0  0  0  0  0  0  0  0  0  0
 27 28  1  0  0  0
 28 29  2  0  0  0
 29 30  1  0  0  0
 30 31  1  0  0  0
 31 32  1  0  0  0
 31 33  2  0  0  0
 33 21  1  0  0  0
 21 22  2  0  0  0
 21 23  1  0  0  0
 23 24  1  0  0  0
 24 25  1  0  0  0
 25 19  1  0  0  0
 19  1  1  0  0  0
  1  2  2  0  0  0
  2  3  1  0  0  0
  3  4  2  0  0  0
  4  5  1  0  0  0
  5  7  1  0  0  0
  7  8  1  0  0  0
  8  9  1  0  0  0
  9 10  1  0  0  0
 10 11  2  0  0  0
 11 12  1  0  0  0
 12 13  1  0  0  0
 12 14  2  0  0  0
 14 15  1  0  0  0
 15 16  2  0  0  0
 16 17  1  0  0  0
 17 18  2  0  0  0
  5  6  2  0  0  0
 25 26  1  0  0  0
 33 28  1  0  0  0
 26 23  1  0  0  0
  6  1  1  0  0  0
 17  7  1  0  0  0
 16 10  1  0  0  0
 19 20  1  0  0  0
M  END
> <minimizedAffinity>
-9.37065

> <CNNscore>
0.3004270196

> <CNNaffinity>
7.1984243393

> <CNN_VS>
2.1626012325

> <CNNaffinity_variance>
0.1368877143

$$$$
[H]c1nc([H])c(N([H])C2([H])C([H])([H])N(C(=O)c3c(C([H])([H])[H])noc3C([H])([H])[H])C2([H])[H])c([H])c1N1C(=O)c2c([H])c([H])c(Cl)c([H])c2C([H])([H])C1([H])[H]


 33 37  0  0  0  0  0  0  0  0999 V2000
  -17.0775   11.9398  -21.6623 C   0  0  0  0  0  0  0  0  0  0  0  0
  -15.9858   11.0613  -21.5963 C   0  0  0  0  0  0  0  0  0  0  0  0
  -15.6717   10.4655  -20.4361 N   0  0  0  0  0  0  0  0  0  0  0  0
  -16.3868   10.6883  -19.3060 C   0  0  0  0  0  0  0  0  0  0  0  0
  -17.4742   11.5398  -19.2945 C   0  0  0  0  0  0  0  0  0  0  0  0
  -17.7933   12.1554  -20.5068 C   0  0  0  0  0  0  0  0  0  0  0  0
  -18.2358   11.7692  -18.1206 N   0  0  0  0  0  0  0  0  0  0  0  0
  -18.2193   13.1020  -17.5590 C   0  0  0  0  0  0  0  0  0  0  0  0
  -19.5175   13.4980  -16.9419 C   0  0  0  0  0  0  0  0  0  0  0  0
  -20.2919   12.3635  -16.4015 C   0  0  0  0  0  0  0  0  0  0  0  0
  -21.3429   12.6943  -15.5486 C   0  0  0  0  0  0  0  0  0  0  0  0
  -22.1368   11.6956  -14.9750 C   0  0  0  0  0  0  0  0  0  0  0  0
  -23.4651   12.0970  -13.9015 Cl  0  0  0  0  0  0  0  0  0  0  0  0
  -21.9043   10.3530  -15.2349 C   0  0  0  0  0  0  0  0  0  0  0  0
  -20.8480   10.0620  -16.0897 C   0  0  0  0  0  0  0  0  0  0  0  0
  -20.0705   11.0494  -16.6518 C   0  0  0  0  0  0  0  0  0  0  0  0
  -18.9825   10.6894  -17.5626 C   0  0  0  0  0  0  0  0  0  0  0  0
  -18.7446    9.4882  -17.8191 O   0  0  0  0  0  0  0  0  0  0  0  0
  -17.3820   12.5412  -22.9028 N   0  0  0  0  0  0  0  0  0  0  0  0
  -18.0246   12.0329  -23.5572 H   0  0  0  0  0  0  0  0  0  0  0  0
  -18.6402   15.7855  -21.0634 C   0  0  0  0  0  0  0  0  0  0  0  0
  -17.9356   15.7521  -19.9280 O   0  0  0  0  0  0  0  0  0  0  0  0
  -17.8964   15.2413  -22.1175 N   0  0  0  0  0  0  0  0  0  0  0  0
  -16.4918   14.7017  -22.0666 C   0  0  0  0  0  0  0  0  0  0  0  0
  -16.8074   13.8311  -23.2369 C   0  0  0  0  0  0  0  0  0  0  0  0
  -17.8749   14.9006  -23.4860 C   0  0  0  0  0  0  0  0  0  0  0  0
  -21.0684   14.2330  -19.9324 C   0  0  0  0  0  0  0  0  0  0  0  0
  -21.0434   15.6340  -20.4408 C   0  0  0  0  0  0  0  0  0  0  0  0
  -22.1086   16.4474  -20.4707 N   0  0  0  0  0  0  0  0  0  0  0  0
  -21.7665   17.5673  -20.9526 O   0  0  0  0  0  0  0  0  0  0  0  0
  -20.4595   17.5592  -21.2677 C   0  0  0  0  0  0  0  0  0  0  0  0
  -19.7941   18.7295  -21.8440 C   0  0  0  0  0  0  0  0  0  0  0  0
  -19.9432   16.3455  -20.9620 C   0  0  0  0  0  0  0  0  0  0  0  0
 27 28  1  0  0  0
 28 29  2  0  0  0
 29 30  1  0  0  0
 30 31  1  0  0  0
 31 32  1  0  0  0
 31 33  2  0  0  0
 33 21  1  0  0  0
 21 22  2  0  0  0
 21 23  1  0  0  0
 23 24  1  0  0  0
 24 25  1  0  0  0
 25 19  1  0  0  0
 19  1  1  0  0  0
  1  2  2  0  0  0
  2  3  1  0  0  0
  3  4  2  0  0  0
  4  5  1  0  0  0
  5  7  1  0  0  0
  7  8  1  0  0  0
  8  9  1  0  0  0
  9 10  1  0  0  0
 10 11  2  0  0  0
 11 12  1  0  0  0
 12 13  1  0  0  0
 12 14  2  0  0  0
 14 15  1  0  0  0
 15 16  2  0  0  0
 16 17  1  0  0  0
 17 18  2  0  0  0
  5  6  2  0  0  0
 25 26  1  0  0  0
 33 28  1  0  0  0
 26 23  1  0  0  0
  6  1  1  0  0  0
 17  7  1  0  0  0
 16 10  1  0  0  0
 19 20  1  0  0  0
M  END
> <minimizedAffinity>
-8.62027

> <CNNscore>
0.2912453711

> <CNNaffinity>
6.7461633682

> <CNN_VS>
1.9647887945

> <CNNaffinity_variance>
0.0541254953

$$$$
[H]c1c([H])c([H])c2c(nc(SC([H])([H])C(=O)N3C(=O)C([H])([H])C([H])([H])C3([H])[H])n2C([H])([H])[H])c1[H]


 20 22  0  0  0  0  0  0  0  0999 V2000
  -19.4918   13.2087  -18.3328 C   0  0  0  0  0  0  0  0  0  0  0  0
  -18.9666   11.8442  -18.2338 N   0  0  0  0  0  0  0  0  0  0  0  0
  -17.9657   11.2592  -18.8767 C   0  0  0  0  0  0  0  0  0  0  0  0
  -17.8501    9.9909  -18.3849 N   0  0  0  0  0  0  0  0  0  0  0  0
  -18.7769    9.7735  -17.4341 C   0  0  0  0  0  0  0  0  0  0  0  0
  -19.0712    8.6736  -16.6488 C   0  0  0  0  0  0  0  0  0  0  0  0
  -20.0990    8.7457  -15.7437 C   0  0  0  0  0  0  0  0  0  0  0  0
  -20.8197    9.9301  -15.6417 C   0  0  0  0  0  0  0  0  0  0  0  0
  -20.5260   11.0168  -16.4202 C   0  0  0  0  0  0  0  0  0  0  0  0
  -19.4832   10.9519  -17.3421 C   0  0  0  0  0  0  0  0  0  0  0  0
  -16.9551   11.8759  -20.1604 S   0  0  0  0  0  0  0  0  0  0  0  0
  -17.7166   12.8172  -21.4408 C   0  0  0  0  0  0  0  0  0  0  0  0
  -17.3497   14.2041  -21.6372 C   0  0  0  0  0  0  0  0  0  0  0  0
  -17.7915   15.1581  -20.9982 O   0  0  0  0  0  0  0  0  0  0  0  0
  -16.3819   14.4769  -22.6758 N   0  0  0  0  0  0  0  0  0  0  0  0
  -15.7598   13.4914  -23.5146 C   0  0  0  0  0  0  0  0  0  0  0  0
  -14.5415   14.2034  -24.1139 C   0  0  0  0  0  0  0  0  0  0  0  0
  -15.0407   15.6163  -24.2535 C   0  0  0  0  0  0  0  0  0  0  0  0
  -15.8804   15.7677  -23.0405 C   0  0  0  0  0  0  0  0  0  0  0  0
  -16.1412   16.8184  -22.4012 O   0  0  0  0  0  0  0  0  0  0  0  0
  1  2  1  0  0  0
  2  3  1  0  0  0
  3 11  1  0  0  0
 11 12  1  0  0  0
 12 13  1  0  0  0
 13 14  2  0  0  0
 13 15  1  0  0  0
 15 16  1  0  0  0
 16 17  1  0  0  0
 17 18  1  0  0  0
 18 19  1  0  0  0
 19 20  2  0  0  0
  3  4  2  0  0  0
  4  5  1  0  0  0
  5  6  2  0  0  0
  6  7  1  0  0  0
  7  8  2  0  0  0
  8  9  1  0  0  0
  9 10  2  0  0  0
 10  2  1  0  0  0
 19 15  1  0  0  0
 10  5  1  0  0  0
M  END
> <minimizedAffinity>
-6.90441

> <CNNscore>
0.4896871150

> <CNNaffinity>
5.4339570999

> <CNN_VS>
2.6609387398

> <CNNaffinity_variance>
0.0374803953

$$$$
[H]c1c([H])c([H])c2c(nc(SC([H])([H])C(=O)N3C(=O)C([H])([H])C([H])([H])C3([H])[H])n2C([H])([H])[H])c1[H]


 20 22  0  0  0  0  0  0  0  0999 V2000
  -18.1718   13.4556  -20.3880 C   0  0  0  0  0  0  0  0  0  0  0  0
  -17.8799   12.0793  -19.9781 N   0  0  0  0  0  0  0  0  0  0  0  0
  -17.0698   11.1763  -20.5125 C   0  0  0  0  0  0  0  0  0  0  0  0
  -17.1197   10.0642  -19.7224 N   0  0  0  0  0  0  0  0  0  0  0  0
  -17.9609   10.2625  -18.6912 C   0  0  0  0  0  0  0  0  0  0  0  0
  -18.3515    9.4596  -17.6349 C   0  0  0  0  0  0  0  0  0  0  0  0
  -19.2471    9.9421  -16.7151 C   0  0  0  0  0  0  0  0  0  0  0  0
  -19.7393   11.2326  -16.8729 C   0  0  0  0  0  0  0  0  0  0  0  0
  -19.3508   12.0247  -17.9193 C   0  0  0  0  0  0  0  0  0  0  0  0
  -18.4412   11.5421  -18.8580 C   0  0  0  0  0  0  0  0  0  0  0  0
  -16.1146   11.2624  -21.9719 S   0  0  0  0  0  0  0  0  0  0  0  0
  -15.6396   12.8528  -22.5640 C   0  0  0  0  0  0  0  0  0  0  0  0
  -16.0637   13.2944  -23.8761 C   0  0  0  0  0  0  0  0  0  0  0  0
  -16.3351   12.5595  -24.8248 O   0  0  0  0  0  0  0  0  0  0  0  0
  -16.1729   14.7221  -24.0748 N   0  0  0  0  0  0  0  0  0  0  0  0
  -15.9013   15.7244  -23.0831 C   0  0  0  0  0  0  0  0  0  0  0  0
  -16.5651   16.9964  -23.6233 C   0  0  0  0  0  0  0  0  0  0  0  0
  -16.3878   16.8364  -25.1092 C   0  0  0  0  0  0  0  0  0  0  0  0
  -16.5701   15.3752  -25.2856 C   0  0  0  0  0  0  0  0  0  0  0  0
  -16.9954   14.7608  -26.2969 O   0  0  0  0  0  0  0  0  0  0  0  0
  1  2  1  0  0  0
  2  3  1  0  0  0
  3 11  1  0  0  0
 11 12  1  0  0  0
 12 13  1  0  0  0
 13 14  2  0  0  0
 13 15  1  0  0  0
 15 16  1  0  0  0
 16 17  1  0  0  0
 17 18  1  0  0  0
 18 19  1  0  0  0
 19 20  2  0  0  0
  3  4  2  0  0  0
  4  5  1  0  0  0
  5  6  2  0  0  0
  6  7  1  0  0  0
  7  8  2  0  0  0
  8  9  1  0  0  0
  9 10  2  0  0  0
 10  2  1  0  0  0
 19 15  1  0  0  0
 10  5  1  0  0  0
M  END
> <minimizedAffinity>
-6.29260

> <CNNscore>
0.4729594588

> <CNNaffinity>
5.7482018471

> <CNN_VS>
2.7186665535

> <CNNaffinity_variance>
0.0584821701

$$$$
[H]c1c([H])c([H])c2c(nc(SC([H])([H])C(=O)N3C(=O)C([H])([H])C([H])([H])C3([H])[H])n2C([H])([H])[H])c1[H]


 20 22  0  0  0  0  0  0  0  0999 V2000
  -20.6728   13.7718  -17.4165 C   0  0  0  0  0  0  0  0  0  0  0  0
  -19.6558   12.8575  -17.9429 N   0  0  0  0  0  0  0  0  0  0  0  0
  -18.7015   13.0577  -18.8410 C   0  0  0  0  0  0  0  0  0  0  0  0
  -17.9874   11.8987  -18.9435 N   0  0  0  0  0  0  0  0  0  0  0  0
  -18.4900   10.9667  -18.1133 C   0  0  0  0  0  0  0  0  0  0  0  0
  -18.1317    9.6568  -17.8510 C   0  0  0  0  0  0  0  0  0  0  0  0
  -18.8469    8.9322  -16.9321 C   0  0  0  0  0  0  0  0  0  0  0  0
  -19.9181    9.5399  -16.2872 C   0  0  0  0  0  0  0  0  0  0  0  0
  -20.2701   10.8363  -16.5490 C   0  0  0  0  0  0  0  0  0  0  0  0
  -19.5486   11.5794  -17.4810 C   0  0  0  0  0  0  0  0  0  0  0  0
  -18.3615   14.4715  -19.8080 S   0  0  0  0  0  0  0  0  0  0  0  0
  -18.3908   14.3075  -21.5624 C   0  0  0  0  0  0  0  0  0  0  0  0
  -17.3489   13.5633  -22.2385 C   0  0  0  0  0  0  0  0  0  0  0  0
  -17.2507   12.3373  -22.2692 O   0  0  0  0  0  0  0  0  0  0  0  0
  -16.3451   14.3389  -22.9318 N   0  0  0  0  0  0  0  0  0  0  0  0
  -16.3036   15.7724  -23.0054 C   0  0  0  0  0  0  0  0  0  0  0  0
  -15.3535   16.0751  -24.1697 C   0  0  0  0  0  0  0  0  0  0  0  0
  -14.3642   14.9453  -24.0697 C   0  0  0  0  0  0  0  0  0  0  0  0
  -15.2301   13.8130  -23.6603 C   0  0  0  0  0  0  0  0  0  0  0  0
  -15.0654   12.5869  -23.8852 O   0  0  0  0  0  0  0  0  0  0  0  0
  1  2  1  0  0  0
  2  3  1  0  0  0
  3 11  1  0  0  0
 11 12  1  0  0  0
 12 13  1  0  0  0
 13 14  2  0  0  0
 13 15  1  0  0  0
 15 16  1  0  0  0
 16 17  1  0  0  0
 17 18  1  0  0  0
 18 19  1  0  0  0
 19 20  2  0  0  0
  3  4  2  0  0  0
  4  5  1  0  0  0
  5  6  2  0  0  0
  6  7  1  0  0  0
  7  8  2  0  0  0
  8  9  1  0  0  0
  9 10  2  0  0  0
 10  2  1  0  0  0
 19 15  1  0  0  0
 10  5  1  0  0  0
M  END
> <minimizedAffinity>
-7.21209

> <CNNscore>
0.3550098538

> <CNNaffinity>
5.2136855125

> <CNN_VS>
1.8509097099

> <CNNaffinity_variance>
0.0217012856

$$$$
[H]c1c([H])c([H])c2c(nc(SC([H])([H])C(=O)N3C(=O)C([H])([H])C([H])([H])C3([H])[H])n2C([H])([H])[H])c1[H]


 20 22  0  0  0  0  0  0  0  0999 V2000
  -19.4055   14.8955  -19.0060 C   0  0  0  0  0  0  0  0  0  0  0  0
  -18.5512   13.7851  -19.4355 N   0  0  0  0  0  0  0  0  0  0  0  0
  -17.6107   13.7345  -20.3684 C   0  0  0  0  0  0  0  0  0  0  0  0
  -17.0762   12.4786  -20.3420 N   0  0  0  0  0  0  0  0  0  0  0  0
  -17.6784   11.7357  -19.3955 C   0  0  0  0  0  0  0  0  0  0  0  0
  -17.5045   10.4273  -18.9822 C   0  0  0  0  0  0  0  0  0  0  0  0
  -18.2837    9.9299  -17.9691 C   0  0  0  0  0  0  0  0  0  0  0  0
  -19.2319   10.7612  -17.3838 C   0  0  0  0  0  0  0  0  0  0  0  0
  -19.4014   12.0556  -17.7950 C   0  0  0  0  0  0  0  0  0  0  0  0
  -18.6137   12.5686  -18.8235 C   0  0  0  0  0  0  0  0  0  0  0  0
  -17.1043   14.9585  -21.5064 S   0  0  0  0  0  0  0  0  0  0  0  0
  -16.1627   14.4543  -22.9081 C   0  0  0  0  0  0  0  0  0  0  0  0
  -16.7597   13.5999  -23.9132 C   0  0  0  0  0  0  0  0  0  0  0  0
  -17.3852   12.5640  -23.6914 O   0  0  0  0  0  0  0  0  0  0  0  0
  -16.5989   14.0102  -25.2900 N   0  0  0  0  0  0  0  0  0  0  0  0
  -15.9060   15.1872  -25.7332 C   0  0  0  0  0  0  0  0  0  0  0  0
  -16.3817   15.3993  -27.1750 C   0  0  0  0  0  0  0  0  0  0  0  0
  -16.5746   13.9854  -27.6533 C   0  0  0  0  0  0  0  0  0  0  0  0
  -17.1023   13.3185  -26.4384 C   0  0  0  0  0  0  0  0  0  0  0  0
  -17.8621   12.3192  -26.3675 O   0  0  0  0  0  0  0  0  0  0  0  0
  1  2  1  0  0  0
  2  3  1  0  0  0
  3 11  1  0  0  0
 11 12  1  0  0  0
 12 13  1  0  0  0
 13 14  2  0  0  0
 13 15  1  0  0  0
 15 16  1  0  0  0
 16 17  1  0  0  0
 17 18  1  0  0  0
 18 19  1  0  0  0
 19 20  2  0  0  0
  3  4  2  0  0  0
  4  5  1  0  0  0
  5  6  2  0  0  0
  6  7  1  0  0  0
  7  8  2  0  0  0
  8  9  1  0  0  0
  9 10  2  0  0  0
 10  2  1  0  0  0
 19 15  1  0  0  0
 10  5  1  0  0  0
M  END
> <minimizedAffinity>
-7.24324

> <CNNscore>
0.3501026332

> <CNNaffinity>
5.5901751518

> <CNN_VS>
1.9571350813

> <CNNaffinity_variance>
0.0499172434

$$$$
[H]c1c([H])c([H])c2c(nc(SC([H])([H])C(=O)N3C(=O)C([H])([H])C([H])([H])C3([H])[H])n2C([H])([H])[H])c1[H]


 20 22  0  0  0  0  0  0  0  0999 V2000
  -16.4550   17.1052  -23.8014 C   0  0  0  0  0  0  0  0  0  0  0  0
  -16.9356   15.7210  -23.7808 N   0  0  0  0  0  0  0  0  0  0  0  0
  -17.4510   15.0042  -22.7918 C   0  0  0  0  0  0  0  0  0  0  0  0
  -17.7857   13.7836  -23.3034 N   0  0  0  0  0  0  0  0  0  0  0  0
  -17.4812   13.7276  -24.6128 C   0  0  0  0  0  0  0  0  0  0  0  0
  -17.6194   12.7327  -25.5635 C   0  0  0  0  0  0  0  0  0  0  0  0
  -17.2091   12.9673  -26.8510 C   0  0  0  0  0  0  0  0  0  0  0  0
  -16.6625   14.2065  -27.1643 C   0  0  0  0  0  0  0  0  0  0  0  0
  -16.5271   15.1890  -26.2212 C   0  0  0  0  0  0  0  0  0  0  0  0
  -16.9416   14.9588  -24.9109 C   0  0  0  0  0  0  0  0  0  0  0  0
  -17.6609   15.4185  -21.1084 S   0  0  0  0  0  0  0  0  0  0  0  0
  -18.6157   14.3365  -20.0970 C   0  0  0  0  0  0  0  0  0  0  0  0
  -18.1170   13.0154  -19.7763 C   0  0  0  0  0  0  0  0  0  0  0  0
  -17.1924   12.4414  -20.3500 O   0  0  0  0  0  0  0  0  0  0  0  0
  -18.7704   12.3233  -18.6882 N   0  0  0  0  0  0  0  0  0  0  0  0
  -19.8591   12.8392  -17.9069 C   0  0  0  0  0  0  0  0  0  0  0  0
  -19.8920   11.9560  -16.6543 C   0  0  0  0  0  0  0  0  0  0  0  0
  -19.4588   10.6217  -17.1993 C   0  0  0  0  0  0  0  0  0  0  0  0
  -18.4435   11.0152  -18.2062 C   0  0  0  0  0  0  0  0  0  0  0  0
  -17.4489   10.3580  -18.6058 O   0  0  0  0  0  0  0  0  0  0  0  0
  1  2  1  0  0  0
  2  3  1  0  0  0
  3 11  1  0  0  0
 11 12  1  0  0  0
 12 13  1  0  0  0
 13 14  2  0  0  0
 13 15  1  0  0  0
 15 16  1  0  0  0
 16 17  1  0  0  0
 17 18  1  0  0  0
 18 19  1  0  0  0
 19 20  2  0  0  0
  3  4  2  0  0  0
  4  5  1  0  0  0
  5  6  2  0  0  0
  6  7  1  0  0  0
  7  8  2  0  0  0
  8  9  1  0  0  0
  9 10  2  0  0  0
 10  2  1  0  0  0
 19 15  1  0  0  0
 10  5  1  0  0  0
M  END
> <minimizedAffinity>
-6.67743

> <CNNscore>
0.3353674710

> <CNNaffinity>
5.3611907959

> <CNN_VS>
1.7979689837

> <CNNaffinity_variance>
0.0491294339

$$$$
[H]c1c([H])c([H])c2c(nc(SC([H])([H])C(=O)N3C(=O)C([H])([H])C([H])([H])C3([H])[H])n2C([H])([H])[H])c1[H]


 20 22  0  0  0  0  0  0  0  0999 V2000
  -18.1065   12.5863  -25.2709 C   0  0  0  0  0  0  0  0  0  0  0  0
  -17.0086   13.5316  -25.0505 N   0  0  0  0  0  0  0  0  0  0  0  0
  -16.3617   13.8544  -23.9394 C   0  0  0  0  0  0  0  0  0  0  0  0
  -15.3888   14.7500  -24.2786 N   0  0  0  0  0  0  0  0  0  0  0  0
  -15.4212   14.9945  -25.6013 C   0  0  0  0  0  0  0  0  0  0  0  0
  -14.6617   15.8098  -26.4206 C   0  0  0  0  0  0  0  0  0  0  0  0
  -14.9327   15.8576  -27.7642 C   0  0  0  0  0  0  0  0  0  0  0  0
  -15.9700   15.0799  -28.2662 C   0  0  0  0  0  0  0  0  0  0  0  0
  -16.7197   14.2741  -27.4528 C   0  0  0  0  0  0  0  0  0  0  0  0
  -16.4507   14.2197  -26.0867 C   0  0  0  0  0  0  0  0  0  0  0  0
  -16.6460   13.3381  -22.2955 S   0  0  0  0  0  0  0  0  0  0  0  0
  -17.5423   11.8434  -22.0351 C   0  0  0  0  0  0  0  0  0  0  0  0
  -17.4281   11.1397  -20.7748 C   0  0  0  0  0  0  0  0  0  0  0  0
  -16.6941   10.1765  -20.5576 O   0  0  0  0  0  0  0  0  0  0  0  0
  -18.2522   11.6195  -19.6883 N   0  0  0  0  0  0  0  0  0  0  0  0
  -19.1609   12.7290  -19.7590 C   0  0  0  0  0  0  0  0  0  0  0  0
  -19.4419   13.0958  -18.2973 C   0  0  0  0  0  0  0  0  0  0  0  0
  -19.3898   11.7523  -17.6208 C   0  0  0  0  0  0  0  0  0  0  0  0
  -18.3003   11.0749  -18.3648 C   0  0  0  0  0  0  0  0  0  0  0  0
  -17.5228   10.1748  -17.9572 O   0  0  0  0  0  0  0  0  0  0  0  0
  1  2  1  0  0  0
  2  3  1  0  0  0
  3 11  1  0  0  0
 11 12  1  0  0  0
 12 13  1  0  0  0
 13 14  2  0  0  0
 13 15  1  0  0  0
 15 16  1  0  0  0
 16 17  1  0  0  0
 17 18  1  0  0  0
 18 19  1  0  0  0
 19 20  2  0  0  0
  3  4  2  0  0  0
  4  5  1  0  0  0
  5  6  2  0  0  0
  6  7  1  0  0  0
  7  8  2  0  0  0
  8  9  1  0  0  0
  9 10  2  0  0  0
 10  2  1  0  0  0
 19 15  1  0  0  0
 10  5  1  0  0  0
M  END
> <minimizedAffinity>
-6.46235

> <CNNscore>
0.3331608474

> <CNNaffinity>
5.5754179955

> <CNN_VS>
1.8575110435

> <CNNaffinity_variance>
0.0277799312

$$$$
[H]c1c([H])c([H])c2c(nc(SC([H])([H])C(=O)N3C(=O)C([H])([H])C([H])([H])C3([H])[H])n2C([H])([H])[H])c1[H]


 20 22  0  0  0  0  0  0  0  0999 V2000
  -18.5129    8.8685  -16.8460 C   0  0  0  0  0  0  0  0  0  0  0  0
  -18.7886   10.1618  -17.4776 N   0  0  0  0  0  0  0  0  0  0  0  0
  -19.6275   11.1274  -17.1296 C   0  0  0  0  0  0  0  0  0  0  0  0
  -19.4693   12.1476  -18.0227 N   0  0  0  0  0  0  0  0  0  0  0  0
  -18.5334   11.8275  -18.9349 C   0  0  0  0  0  0  0  0  0  0  0  0
  -18.0197   12.5055  -20.0255 C   0  0  0  0  0  0  0  0  0  0  0  0
  -17.0499   11.9131  -20.7933 C   0  0  0  0  0  0  0  0  0  0  0  0
  -16.6091   10.6400  -20.4504 C   0  0  0  0  0  0  0  0  0  0  0  0
  -17.1194    9.9717  -19.3706 C   0  0  0  0  0  0  0  0  0  0  0  0
  -18.1048   10.5665  -18.5852 C   0  0  0  0  0  0  0  0  0  0  0  0
  -20.7945   11.1740  -15.8312 S   0  0  0  0  0  0  0  0  0  0  0  0
  -20.2076   11.0126  -14.1775 C   0  0  0  0  0  0  0  0  0  0  0  0
  -20.9549   11.5956  -13.0828 C   0  0  0  0  0  0  0  0  0  0  0  0
  -21.9420   12.3211  -13.1971 O   0  0  0  0  0  0  0  0  0  0  0  0
  -20.4908   11.2919  -11.7478 N   0  0  0  0  0  0  0  0  0  0  0  0
  -19.3630   10.4634  -11.4262 C   0  0  0  0  0  0  0  0  0  0  0  0
  -19.5508   10.1074   -9.9470 C   0  0  0  0  0  0  0  0  0  0  0  0
  -20.1964   11.3535   -9.4035 C   0  0  0  0  0  0  0  0  0  0  0  0
  -21.0745   11.7606  -10.5271 C   0  0  0  0  0  0  0  0  0  0  0  0
  -22.1536   12.4041  -10.4773 O   0  0  0  0  0  0  0  0  0  0  0  0
  1  2  1  0  0  0
  2  3  1  0  0  0
  3 11  1  0  0  0
 11 12  1  0  0  0
 12 13  1  0  0  0
 13 14  2  0  0  0
 13 15  1  0  0  0
 15 16  1  0  0  0
 16 17  1  0  0  0
 17 18  1  0  0  0
 18 19  1  0  0  0
 19 20  2  0  0  0
  3  4  2  0  0  0
  4  5  1  0  0  0
  5  6  2  0  0  0
  6  7  1  0  0  0
  7  8  2  0  0  0
  8  9  1  0  0  0
  9 10  2  0  0  0
 10  2  1  0  0  0
 19 15  1  0  0  0
 10  5  1  0  0  0
M  END
> <minimizedAffinity>
-6.06029

> <CNNscore>
0.3326838911

> <CNNaffinity>
4.4959859848

> <CNN_VS>
1.4957420826

> <CNNaffinity_variance>
0.1592355371

$$$$
[H]c1c([H])c([H])c2c(nc(SC([H])([H])C(=O)N3C(=O)C([H])([H])C([H])([H])C3([H])[H])n2C([H])([H])[H])c1[H]


 20 22  0  0  0  0  0  0  0  0999 V2000
  -16.9534   15.1815  -21.1457 C   0  0  0  0  0  0  0  0  0  0  0  0
  -16.5843   14.4310  -22.3490 N   0  0  0  0  0  0  0  0  0  0  0  0
  -16.6346   13.1304  -22.6007 C   0  0  0  0  0  0  0  0  0  0  0  0
  -16.2242   12.9477  -23.8898 N   0  0  0  0  0  0  0  0  0  0  0  0
  -15.9135   14.1299  -24.4520 C   0  0  0  0  0  0  0  0  0  0  0  0
  -15.4564   14.4756  -25.7108 C   0  0  0  0  0  0  0  0  0  0  0  0
  -15.2195   15.7941  -26.0046 C   0  0  0  0  0  0  0  0  0  0  0  0
  -15.4473   16.7506  -25.0218 C   0  0  0  0  0  0  0  0  0  0  0  0
  -15.8998   16.4052  -23.7771 C   0  0  0  0  0  0  0  0  0  0  0  0
  -16.1430   15.0679  -23.4706 C   0  0  0  0  0  0  0  0  0  0  0  0
  -17.0732   11.8087  -21.5470 S   0  0  0  0  0  0  0  0  0  0  0  0
  -18.5087   11.9869  -20.5404 C   0  0  0  0  0  0  0  0  0  0  0  0
  -18.3858   12.4728  -19.1820 C   0  0  0  0  0  0  0  0  0  0  0  0
  -17.4939   12.1679  -18.3914 O   0  0  0  0  0  0  0  0  0  0  0  0
  -19.4045   13.3931  -18.7290 N   0  0  0  0  0  0  0  0  0  0  0  0
  -20.5127   13.8610  -19.5130 C   0  0  0  0  0  0  0  0  0  0  0  0
  -21.0204   15.1011  -18.7682 C   0  0  0  0  0  0  0  0  0  0  0  0
  -20.7608   14.7331  -17.3321 C   0  0  0  0  0  0  0  0  0  0  0  0
  -19.4797   13.9925  -17.4307 C   0  0  0  0  0  0  0  0  0  0  0  0
  -18.5792   13.8767  -16.5608 O   0  0  0  0  0  0  0  0  0  0  0  0
  1  2  1  0  0  0
  2  3  1  0  0  0
  3 11  1  0  0  0
 11 12  1  0  0  0
 12 13  1  0  0  0
 13 14  2  0  0  0
 13 15  1  0  0  0
 15 16  1  0  0  0
 16 17  1  0  0  0
 17 18  1  0  0  0
 18 19  1  0  0  0
 19 20  2  0  0  0
  3  4  2  0  0  0
  4  5  1  0  0  0
  5  6  2  0  0  0
  6  7  1  0  0  0
  7  8  2  0  0  0
  8  9  1  0  0  0
  9 10  2  0  0  0
 10  2  1  0  0  0
 19 15  1  0  0  0
 10  5  1  0  0  0
M  END
> <minimizedAffinity>
-6.23745

> <CNNscore>
0.3236440718

> <CNNaffinity>
5.6203646660

> <CNN_VS>
1.8189977407

> <CNNaffinity_variance>
0.0996496454

$$$$
[H]c1c([H])c([H])c2c(nc(SC([H])([H])C(=O)N3C(=O)C([H])([H])C([H])([H])C3([H])[H])n2C([H])([H])[H])c1[H]


 20 22  0  0  0  0  0  0  0  0999 V2000
  -18.2620   14.7249  -19.9696 C   0  0  0  0  0  0  0  0  0  0  0  0
  -17.7355   13.7513  -20.9299 N   0  0  0  0  0  0  0  0  0  0  0  0
  -17.1940   12.5572  -20.7346 C   0  0  0  0  0  0  0  0  0  0  0  0
  -16.9116   12.0310  -21.9622 N   0  0  0  0  0  0  0  0  0  0  0  0
  -17.2723   12.8910  -22.9321 C   0  0  0  0  0  0  0  0  0  0  0  0
  -17.1961   12.8305  -24.3117 C   0  0  0  0  0  0  0  0  0  0  0  0
  -17.6521   13.8854  -25.0601 C   0  0  0  0  0  0  0  0  0  0  0  0
  -18.1809   14.9919  -24.4054 C   0  0  0  0  0  0  0  0  0  0  0  0
  -18.2549   15.0487  -23.0399 C   0  0  0  0  0  0  0  0  0  0  0  0
  -17.7940   13.9812  -22.2723 C   0  0  0  0  0  0  0  0  0  0  0  0
  -16.8169   11.7366  -19.2399 S   0  0  0  0  0  0  0  0  0  0  0  0
  -17.9706   10.5554  -18.6241 C   0  0  0  0  0  0  0  0  0  0  0  0
  -19.1093   10.9927  -17.8439 C   0  0  0  0  0  0  0  0  0  0  0  0
  -19.6946   12.0671  -17.9733 O   0  0  0  0  0  0  0  0  0  0  0  0
  -19.5884   10.0803  -16.8302 N   0  0  0  0  0  0  0  0  0  0  0  0
  -19.0330    8.7877  -16.5430 C   0  0  0  0  0  0  0  0  0  0  0  0
  -20.1194    8.0677  -15.7359 C   0  0  0  0  0  0  0  0  0  0  0  0
  -20.7384    9.2005  -14.9620 C   0  0  0  0  0  0  0  0  0  0  0  0
  -20.6928   10.3079  -15.9475 C   0  0  0  0  0  0  0  0  0  0  0  0
  -21.4618   11.2982  -16.0409 O   0  0  0  0  0  0  0  0  0  0  0  0
  1  2  1  0  0  0
  2  3  1  0  0  0
  3 11  1  0  0  0
 11 12  1  0  0  0
 12 13  1  0  0  0
 13 14  2  0  0  0
 13 15  1  0  0  0
 15 16  1  0  0  0
 16 17  1  0  0  0
 17 18  1  0  0  0
 18 19  1  0  0  0
 19 20  2  0  0  0
  3  4  2  0  0  0
  4  5  1  0  0  0
  5  6  2  0  0  0
  6  7  1  0  0  0
  7  8  2  0  0  0
  8  9  1  0  0  0
  9 10  2  0  0  0
 10  2  1  0  0  0
 19 15  1  0  0  0
 10  5  1  0  0  0
M  END
> <minimizedAffinity>
-6.56804

> <CNNscore>
0.3005656302

> <CNNaffinity>
5.2231526375

> <CNN_VS>
1.5699001551

> <CNNaffinity_variance>
0.0599136055

$$$$
[H]c1c(C([H])([H])[H])c([H])c2c(c1C(F)(F)F)C(=O)N1C([H])([H])C([H])([H])N([H])C([H])([H])[C@@]21[H]


 20 22  0  0  0  0  0  0  0  0999 V2000
  -23.3925   17.8405  -18.4173 C   0  0  0  0  0  0  0  0  0  0  0  0
  -23.3455   17.7388  -16.9343 C   0  0  0  0  0  0  0  0  0  0  0  0
  -23.4079   16.4764  -16.3870 C   0  0  0  0  0  0  0  0  0  0  0  0
  -23.3693   16.3177  -15.0277 C   0  0  0  0  0  0  0  0  0  0  0  0
  -23.2671   17.4498  -14.2109 C   0  0  0  0  0  0  0  0  0  0  0  0
  -23.2026   18.7167  -14.7279 C   0  0  0  0  0  0  0  0  0  0  0  0
  -23.2436   18.8470  -16.1101 C   0  0  0  0  0  0  0  0  0  0  0  0
  -23.2849   16.9280  -12.8438 C   0  0  0  0  0  0  0  0  0  0  0  0
  -23.2106   17.6333  -11.8220 O   0  0  0  0  0  0  0  0  0  0  0  0
  -23.3967   15.5321  -12.8473 N   0  0  0  0  0  0  0  0  0  0  0  0
  -23.5213   14.5156  -11.8333 C   0  0  0  0  0  0  0  0  0  0  0  0
  -24.6694   13.5657  -12.1681 C   0  0  0  0  0  0  0  0  0  0  0  0
  -24.4988   13.0979  -13.5061 N   0  0  0  0  0  0  0  0  0  0  0  0
  -24.5171   14.1481  -14.5110 C   0  0  0  0  0  0  0  0  0  0  0  0
  -23.3932   15.0918  -14.2234 C   0  0  0  0  0  0  0  0  0  0  0  0
  -25.1764   12.3635  -13.7842 H   0  0  0  0  0  0  0  0  0  0  0  0
  -23.0856   19.8960  -13.8431 C   0  0  0  0  0  0  0  0  0  0  0  0
  -23.1649   21.0977  -14.4752 F   0  0  0  0  0  0  0  0  0  0  0  0
  -21.9250   19.7966  -13.0622 F   0  0  0  0  0  0  0  0  0  0  0  0
  -24.1290   19.8763  -12.9051 F   0  0  0  0  0  0  0  0  0  0  0  0
  1  2  1  0  0  0
  2  3  2  0  0  0
  3  4  1  0  0  0
  4  5  2  0  0  0
  5  6  1  0  0  0
  6 17  1  0  0  0
 17 18  1  0  0  0
 17 19  1  0  0  0
 17 20  1  0  0  0
  6  7  2  0  0  0
  5  8  1  0  0  0
  8  9  2  0  0  0
  8 10  1  0  0  0
 10 11  1  0  0  0
 11 12  1  0  0  0
 12 13  1  0  0  0
 13 14  1  0  0  0
 14 15  1  0  0  0
  7  2  1  0  0  0
 15 10  1  0  0  0
 15  4  1  0  0  0
 13 16  1  0  0  0
M  END
> <minimizedAffinity>
-1.73082

> <CNNscore>
0.6557833552

> <CNNaffinity>
4.0184831619

> <CNN_VS>
2.6352543831

> <CNNaffinity_variance>
0.4514913559

$$$$
[H]c1c(C([H])([H])[H])c([H])c2c(c1C(F)(F)F)C(=O)N1C([H])([H])C([H])([H])N([H])C([H])([H])[C@@]21[H]


 20 22  0  0  0  0  0  0  0  0999 V2000
  -16.8408   12.9539  -23.9798 C   0  0  0  0  0  0  0  0  0  0  0  0
  -17.1801   12.9179  -22.5324 C   0  0  0  0  0  0  0  0  0  0  0  0
  -17.8396   14.0097  -22.0125 C   0  0  0  0  0  0  0  0  0  0  0  0
  -18.1791   14.0360  -20.6864 C   0  0  0  0  0  0  0  0  0  0  0  0
  -17.8469   12.9449  -19.8750 C   0  0  0  0  0  0  0  0  0  0  0  0
  -17.1922   11.8460  -20.3654 C   0  0  0  0  0  0  0  0  0  0  0  0
  -16.8608   11.8473  -21.7142 C   0  0  0  0  0  0  0  0  0  0  0  0
  -18.3181   13.3141  -18.5397 C   0  0  0  0  0  0  0  0  0  0  0  0
  -18.2065   12.5941  -17.5317 O   0  0  0  0  0  0  0  0  0  0  0  0
  -18.9084   14.5838  -18.5557 N   0  0  0  0  0  0  0  0  0  0  0  0
  -19.4723   15.4599  -17.5600 C   0  0  0  0  0  0  0  0  0  0  0  0
  -18.9022   16.8694  -17.7049 C   0  0  0  0  0  0  0  0  0  0  0  0
  -19.0531   17.2851  -19.0623 N   0  0  0  0  0  0  0  0  0  0  0  0
  -18.3521   16.4486  -20.0226 C   0  0  0  0  0  0  0  0  0  0  0  0
  -18.8966   15.0596  -19.9199 C   0  0  0  0  0  0  0  0  0  0  0  0
  -18.7886   18.2736  -19.2311 H   0  0  0  0  0  0  0  0  0  0  0  0
  -16.8609   10.7019  -19.4887 C   0  0  0  0  0  0  0  0  0  0  0  0
  -17.9285   10.1136  -18.8853 F   0  0  0  0  0  0  0  0  0  0  0  0
  -15.8819   11.0784  -18.5579 F   0  0  0  0  0  0  0  0  0  0  0  0
  -16.2391    9.7003  -20.2497 F   0  0  0  0  0  0  0  0  0  0  0  0
  1  2  1  0  0  0
  2  3  2  0  0  0
  3  4  1  0  0  0
  4  5  2  0  0  0
  5  6  1  0  0  0
  6 17  1  0  0  0
 17 18  1  0  0  0
 17 19  1  0  0  0
 17 20  1  0  0  0
  6  7  2  0  0  0
  5  8  1  0  0  0
  8  9  2  0  0  0
  8 10  1  0  0  0
 10 11  1  0  0  0
 11 12  1  0  0  0
 12 13  1  0  0  0
 13 14  1  0  0  0
 14 15  1  0  0  0
  7  2  1  0  0  0
 15 10  1  0  0  0
 15  4  1  0  0  0
 13 16  1  0  0  0
M  END
> <minimizedAffinity>
-7.67329

> <CNNscore>
0.5249185562

> <CNNaffinity>
5.1383142471

> <CNN_VS>
2.6971964836

> <CNNaffinity_variance>
0.1639060527

$$$$
[H]c1c(C([H])([H])[H])c([H])c2c(c1C(F)(F)F)C(=O)N1C([H])([H])C([H])([H])N([H])C([H])([H])[C@@]21[H]


 20 22  0  0  0  0  0  0  0  0999 V2000
  -19.1900   20.7255  -18.2041 C   0  0  0  0  0  0  0  0  0  0  0  0
  -19.8197   19.3784  -18.2203 C   0  0  0  0  0  0  0  0  0  0  0  0
  -20.5866   19.0282  -17.1311 C   0  0  0  0  0  0  0  0  0  0  0  0
  -21.1923   17.8012  -17.0872 C   0  0  0  0  0  0  0  0  0  0  0  0
  -21.0199   16.9161  -18.1579 C   0  0  0  0  0  0  0  0  0  0  0  0
  -20.2636   17.2383  -19.2538 C   0  0  0  0  0  0  0  0  0  0  0  0
  -19.6616   18.4898  -19.2707 C   0  0  0  0  0  0  0  0  0  0  0  0
  -21.7610   15.7143  -17.7733 C   0  0  0  0  0  0  0  0  0  0  0  0
  -21.8498   14.6901  -18.4733 O   0  0  0  0  0  0  0  0  0  0  0  0
  -22.3521   15.8780  -16.5145 N   0  0  0  0  0  0  0  0  0  0  0  0
  -23.1206   15.0380  -15.6308 C   0  0  0  0  0  0  0  0  0  0  0  0
  -22.5518   15.0920  -14.2144 C   0  0  0  0  0  0  0  0  0  0  0  0
  -22.4253   16.4599  -13.8255 N   0  0  0  0  0  0  0  0  0  0  0  0
  -21.5305   17.2377  -14.6666 C   0  0  0  0  0  0  0  0  0  0  0  0
  -22.0659   17.2202  -16.0628 C   0  0  0  0  0  0  0  0  0  0  0  0
  -22.1449   16.5912  -12.8357 H   0  0  0  0  0  0  0  0  0  0  0  0
  -20.1049   16.2885  -20.3762 C   0  0  0  0  0  0  0  0  0  0  0  0
  -19.3496   16.7445  -21.4113 F   0  0  0  0  0  0  0  0  0  0  0  0
  -21.3622   15.8427  -20.8090 F   0  0  0  0  0  0  0  0  0  0  0  0
  -19.4730   15.1248  -19.9121 F   0  0  0  0  0  0  0  0  0  0  0  0
  1  2  1  0  0  0
  2  3  2  0  0  0
  3  4  1  0  0  0
  4  5  2  0  0  0
  5  6  1  0  0  0
  6 17  1  0  0  0
 17 18  1  0  0  0
 17 19  1  0  0  0
 17 20  1  0  0  0
  6  7  2  0  0  0
  5  8  1  0  0  0
  8  9  2  0  0  0
  8 10  1  0  0  0
 10 11  1  0  0  0
 11 12  1  0  0  0
 12 13  1  0  0  0
 13 14  1  0  0  0
 14 15  1  0  0  0
  7  2  1  0  0  0
 15 10  1  0  0  0
 15  4  1  0  0  0
 13 16  1  0  0  0
M  END
> <minimizedAffinity>
-3.84987

> <CNNscore>
0.5138077140

> <CNNaffinity>
4.3368959427

> <CNN_VS>
2.2283306122

> <CNNaffinity_variance>
0.3430919945

$$$$
[H]c1c(C([H])([H])[H])c([H])c2c(c1C(F)(F)F)C(=O)N1C([H])([H])C([H])([H])N([H])C([H])([H])[C@@]21[H]


 20 22  0  0  0  0  0  0  0  0999 V2000
  -18.4895   15.2487  -21.6637 C   0  0  0  0  0  0  0  0  0  0  0  0
  -18.4102   14.0187  -20.8316 C   0  0  0  0  0  0  0  0  0  0  0  0
  -19.2660   13.9293  -19.7561 C   0  0  0  0  0  0  0  0  0  0  0  0
  -19.2405   12.8214  -18.9521 C   0  0  0  0  0  0  0  0  0  0  0  0
  -18.3377   11.7908  -19.2385 C   0  0  0  0  0  0  0  0  0  0  0  0
  -17.4759   11.8528  -20.3016 C   0  0  0  0  0  0  0  0  0  0  0  0
  -17.5245   12.9884  -21.0997 C   0  0  0  0  0  0  0  0  0  0  0  0
  -18.5528   10.8004  -18.1829 C   0  0  0  0  0  0  0  0  0  0  0  0
  -17.9325    9.7263  -18.0907 O   0  0  0  0  0  0  0  0  0  0  0  0
  -19.5487   11.2289  -17.2965 N   0  0  0  0  0  0  0  0  0  0  0  0
  -20.1185   10.7159  -16.0762 C   0  0  0  0  0  0  0  0  0  0  0  0
  -20.1595   11.8057  -15.0069 C   0  0  0  0  0  0  0  0  0  0  0  0
  -20.7932   12.9607  -15.5568 N   0  0  0  0  0  0  0  0  0  0  0  0
  -20.1059   13.5266  -16.7060 C   0  0  0  0  0  0  0  0  0  0  0  0
  -20.0604   12.4896  -17.7825 C   0  0  0  0  0  0  0  0  0  0  0  0
  -20.9601   13.7170  -14.8671 H   0  0  0  0  0  0  0  0  0  0  0  0
  -16.5379   10.7458  -20.5879 C   0  0  0  0  0  0  0  0  0  0  0  0
  -17.1271    9.5519  -20.8659 F   0  0  0  0  0  0  0  0  0  0  0  0
  -15.5994   10.6321  -19.5520 F   0  0  0  0  0  0  0  0  0  0  0  0
  -15.7649   11.0732  -21.7123 F   0  0  0  0  0  0  0  0  0  0  0  0
  1  2  1  0  0  0
  2  3  2  0  0  0
  3  4  1  0  0  0
  4  5  2  0  0  0
  5  6  1  0  0  0
  6 17  1  0  0  0
 17 18  1  0  0  0
 17 19  1  0  0  0
 17 20  1  0  0  0
  6  7  2  0  0  0
  5  8  1  0  0  0
  8  9  2  0  0  0
  8 10  1  0  0  0
 10 11  1  0  0  0
 11 12  1  0  0  0
 12 13  1  0  0  0
 13 14  1  0  0  0
 14 15  1  0  0  0
  7  2  1  0  0  0
 15 10  1  0  0  0
 15  4  1  0  0  0
 13 16  1  0  0  0
M  END
> <minimizedAffinity>
-7.64468

> <CNNscore>
0.4434620440

> <CNNaffinity>
4.6977019310

> <CNN_VS>
2.0832524300

> <CNNaffinity_variance>
0.1704285443

$$$$
[H]c1c(C([H])([H])[H])c([H])c2c(c1C(F)(F)F)C(=O)N1C([H])([H])C([H])([H])N([H])C([H])([H])[C@@]21[H]


 20 22  0  0  0  0  0  0  0  0999 V2000
  -15.7498   10.3354  -21.1622 C   0  0  0  0  0  0  0  0  0  0  0  0
  -16.8359   10.9159  -20.3285 C   0  0  0  0  0  0  0  0  0  0  0  0
  -17.1491   10.2622  -19.1574 C   0  0  0  0  0  0  0  0  0  0  0  0
  -18.1401   10.7477  -18.3471 C   0  0  0  0  0  0  0  0  0  0  0  0
  -18.8241   11.9088  -18.7259 C   0  0  0  0  0  0  0  0  0  0  0  0
  -18.5329   12.5796  -19.8844 C   0  0  0  0  0  0  0  0  0  0  0  0
  -17.5229   12.0639  -20.6861 C   0  0  0  0  0  0  0  0  0  0  0  0
  -19.8159   12.1202  -17.6709 C   0  0  0  0  0  0  0  0  0  0  0  0
  -20.6252   13.0644  -17.6470 O   0  0  0  0  0  0  0  0  0  0  0  0
  -19.7268   11.1167  -16.6983 N   0  0  0  0  0  0  0  0  0  0  0  0
  -20.4625   10.7841  -15.5045 C   0  0  0  0  0  0  0  0  0  0  0  0
  -20.8346    9.3028  -15.5023 C   0  0  0  0  0  0  0  0  0  0  0  0
  -19.6552    8.5359  -15.7450 N   0  0  0  0  0  0  0  0  0  0  0  0
  -19.0216    8.8070  -17.0250 C   0  0  0  0  0  0  0  0  0  0  0  0
  -18.6284   10.2494  -17.0572 C   0  0  0  0  0  0  0  0  0  0  0  0
  -19.7939    7.5119  -15.6561 H   0  0  0  0  0  0  0  0  0  0  0  0
  -19.2644   13.8097  -20.2572 C   0  0  0  0  0  0  0  0  0  0  0  0
  -19.0664   14.8688  -19.4270 F   0  0  0  0  0  0  0  0  0  0  0  0
  -20.6282   13.5264  -20.4198 F   0  0  0  0  0  0  0  0  0  0  0  0
  -18.8497   14.2268  -21.5311 F   0  0  0  0  0  0  0  0  0  0  0  0
  1  2  1  0  0  0
  2  3  2  0  0  0
  3  4  1  0  0  0
  4  5  2  0  0  0
  5  6  1  0  0  0
  6 17  1  0  0  0
 17 18  1  0  0  0
 17 19  1  0  0  0
 17 20  1  0  0  0
  6  7  2  0  0  0
  5  8  1  0  0  0
  8  9  2  0  0  0
  8 10  1  0  0  0
 10 11  1  0  0  0
 11 12  1  0  0  0
 12 13  1  0  0  0
 13 14  1  0  0  0
 14 15  1  0  0  0
  7  2  1  0  0  0
 15 10  1  0  0  0
 15  4  1  0  0  0
 13 16  1  0  0  0
M  END
> <minimizedAffinity>
-7.31925

> <CNNscore>
0.4345903695

> <CNNaffinity>
4.7609004974

> <CNN_VS>
2.0690414906

> <CNNaffinity_variance>
0.1510270834

$$$$
[H]c1c(C([H])([H])[H])c([H])c2c(c1C(F)(F)F)C(=O)N1C([H])([H])C([H])([H])N([H])C([H])([H])[C@@]21[H]


 20 22  0  0  0  0  0  0  0  0999 V2000
  -14.1176   16.3696  -26.3004 C   0  0  0  0  0  0  0  0  0  0  0  0
  -15.1878   15.9376  -25.3626 C   0  0  0  0  0  0  0  0  0  0  0  0
  -15.5131   16.7987  -24.3380 C   0  0  0  0  0  0  0  0  0  0  0  0
  -16.4902   16.4573  -23.4419 C   0  0  0  0  0  0  0  0  0  0  0  0
  -17.1466   15.2291  -23.5827 C   0  0  0  0  0  0  0  0  0  0  0  0
  -16.8441   14.3538  -24.5922 C   0  0  0  0  0  0  0  0  0  0  0  0
  -15.8490   14.7271  -25.4863 C   0  0  0  0  0  0  0  0  0  0  0  0
  -18.0852   15.1753  -22.4612 C   0  0  0  0  0  0  0  0  0  0  0  0
  -18.8606   14.2285  -22.2393 O   0  0  0  0  0  0  0  0  0  0  0  0
  -17.9883   16.3319  -21.6778 N   0  0  0  0  0  0  0  0  0  0  0  0
  -18.5983   16.7907  -20.4553 C   0  0  0  0  0  0  0  0  0  0  0  0
  -17.5340   17.3048  -19.4880 C   0  0  0  0  0  0  0  0  0  0  0  0
  -16.7146   18.2522  -20.1729 N   0  0  0  0  0  0  0  0  0  0  0  0
  -16.0093   17.7088  -21.3220 C   0  0  0  0  0  0  0  0  0  0  0  0
  -17.0232   17.2083  -22.3007 C   0  0  0  0  0  0  0  0  0  0  0  0
  -16.0284   18.7336  -19.5622 H   0  0  0  0  0  0  0  0  0  0  0  0
  -17.5592   13.0660  -24.7243 C   0  0  0  0  0  0  0  0  0  0  0  0
  -17.6075   12.3176  -23.5896 F   0  0  0  0  0  0  0  0  0  0  0  0
  -17.0399   12.3374  -25.8042 F   0  0  0  0  0  0  0  0  0  0  0  0
  -18.8916   13.3117  -25.0894 F   0  0  0  0  0  0  0  0  0  0  0  0
  1  2  1  0  0  0
  2  3  2  0  0  0
  3  4  1  0  0  0
  4  5  2  0  0  0
  5  6  1  0  0  0
  6 17  1  0  0  0
 17 18  1  0  0  0
 17 19  1  0  0  0
 17 20  1  0  0  0
  6  7  2  0  0  0
  5  8  1  0  0  0
  8  9  2  0  0  0
  8 10  1  0  0  0
 10 11  1  0  0  0
 11 12  1  0  0  0
 12 13  1  0  0  0
 13 14  1  0  0  0
 14 15  1  0  0  0
  7  2  1  0  0  0
 15 10  1  0  0  0
 15  4  1  0  0  0
 13 16  1  0  0  0
M  END
> <minimizedAffinity>
-5.93546

> <CNNscore>
0.3937624097

> <CNNaffinity>
4.8960661888

> <CNN_VS>
1.9278868437

> <CNNaffinity_variance>
0.2216383219

$$$$
[H]c1c(C([H])([H])[H])c([H])c2c(c1C(F)(F)F)C(=O)N1C([H])([H])C([H])([H])N([H])C([H])([H])[C@@]21[H]


 20 22  0  0  0  0  0  0  0  0999 V2000
  -18.6843    8.8287  -16.9759 C   0  0  0  0  0  0  0  0  0  0  0  0
  -18.7233   10.2117  -17.5213 C   0  0  0  0  0  0  0  0  0  0  0  0
  -19.3040   11.1826  -16.7357 C   0  0  0  0  0  0  0  0  0  0  0  0
  -19.3702   12.4749  -17.1829 C   0  0  0  0  0  0  0  0  0  0  0  0
  -18.8434   12.7898  -18.4409 C   0  0  0  0  0  0  0  0  0  0  0  0
  -18.2597   11.8447  -19.2427 C   0  0  0  0  0  0  0  0  0  0  0  0
  -18.2065   10.5425  -18.7627 C   0  0  0  0  0  0  0  0  0  0  0  0
  -19.1076   14.2191  -18.6105 C   0  0  0  0  0  0  0  0  0  0  0  0
  -18.7839   14.8788  -19.6139 O   0  0  0  0  0  0  0  0  0  0  0  0
  -19.7721   14.7366  -17.4917 N   0  0  0  0  0  0  0  0  0  0  0  0
  -20.3236   16.0194  -17.1351 C   0  0  0  0  0  0  0  0  0  0  0  0
  -21.7473   15.8598  -16.6058 C   0  0  0  0  0  0  0  0  0  0  0  0
  -21.7427   14.8718  -15.5753 N   0  0  0  0  0  0  0  0  0  0  0  0
  -21.3086   13.5557  -16.0141 C   0  0  0  0  0  0  0  0  0  0  0  0
  -19.9082   13.6705  -16.5261 C   0  0  0  0  0  0  0  0  0  0  0  0
  -22.6507   14.7728  -15.0839 H   0  0  0  0  0  0  0  0  0  0  0  0
  -17.7021   12.2054  -20.5641 C   0  0  0  0  0  0  0  0  0  0  0  0
  -17.1486   11.1725  -21.2546 F   0  0  0  0  0  0  0  0  0  0  0  0
  -16.8086   13.2780  -20.4313 F   0  0  0  0  0  0  0  0  0  0  0  0
  -18.7270   12.7154  -21.3755 F   0  0  0  0  0  0  0  0  0  0  0  0
  1  2  1  0  0  0
  2  3  2  0  0  0
  3  4  1  0  0  0
  4  5  2  0  0  0
  5  6  1  0  0  0
  6 17  1  0  0  0
 17 18  1  0  0  0
 17 19  1  0  0  0
 17 20  1  0  0  0
  6  7  2  0  0  0
  5  8  1  0  0  0
  8  9  2  0  0  0
  8 10  1  0  0  0
 10 11  1  0  0  0
 11 12  1  0  0  0
 12 13  1  0  0  0
 13 14  1  0  0  0
 14 15  1  0  0  0
  7  2  1  0  0  0
 15 10  1  0  0  0
 15  4  1  0  0  0
 13 16  1  0  0  0
M  END
> <minimizedAffinity>
-6.05654

> <CNNscore>
0.3886626065

> <CNNaffinity>
4.4455647469

> <CNN_VS>
1.7278248072

> <CNNaffinity_variance>
0.1589152217

$$$$
[H]c1c(C([H])([H])[H])c([H])c2c(c1C(F)(F)F)C(=O)N1C([H])([H])C([H])([H])N([H])C([H])([H])[C@@]21[H]


 20 22  0  0  0  0  0  0  0  0999 V2000
  -18.5538    4.7036  -11.9875 C   0  0  0  0  0  0  0  0  0  0  0  0
  -19.2204    5.9846  -12.3428 C   0  0  0  0  0  0  0  0  0  0  0  0
  -19.2080    6.9850  -11.3962 C   0  0  0  0  0  0  0  0  0  0  0  0
  -19.8054    8.1874  -11.6642 C   0  0  0  0  0  0  0  0  0  0  0  0
  -20.4241    8.3809  -12.9048 C   0  0  0  0  0  0  0  0  0  0  0  0
  -20.4508    7.4040  -13.8648 C   0  0  0  0  0  0  0  0  0  0  0  0
  -19.8365    6.1949  -13.5651 C   0  0  0  0  0  0  0  0  0  0  0  0
  -20.9758    9.7347  -12.8411 C   0  0  0  0  0  0  0  0  0  0  0  0
  -21.6057   10.2805  -13.7643 O   0  0  0  0  0  0  0  0  0  0  0  0
  -20.6970   10.3260  -11.6026 N   0  0  0  0  0  0  0  0  0  0  0  0
  -21.0318   11.5770  -10.9704 C   0  0  0  0  0  0  0  0  0  0  0  0
  -21.5657   11.3361   -9.5599 C   0  0  0  0  0  0  0  0  0  0  0  0
  -20.6397   10.5074   -8.8571 N   0  0  0  0  0  0  0  0  0  0  0  0
  -20.4367    9.1992   -9.4575 C   0  0  0  0  0  0  0  0  0  0  0  0
  -19.8979    9.3958  -10.8386 C   0  0  0  0  0  0  0  0  0  0  0  0
  -20.8691   10.3778   -7.8539 H   0  0  0  0  0  0  0  0  0  0  0  0
  -21.1032    7.6371  -15.1715 C   0  0  0  0  0  0  0  0  0  0  0  0
  -20.5798    8.6596  -15.8997 F   0  0  0  0  0  0  0  0  0  0  0  0
  -22.4874    7.7796  -14.9979 F   0  0  0  0  0  0  0  0  0  0  0  0
  -20.9767    6.4860  -15.9639 F   0  0  0  0  0  0  0  0  0  0  0  0
  1  2  1  0  0  0
  2  3  2  0  0  0
  3  4  1  0  0  0
  4  5  2  0  0  0
  5  6  1  0  0  0
  6 17  1  0  0  0
 17 18  1  0  0  0
 17 19  1  0  0  0
 17 20  1  0  0  0
  6  7  2  0  0  0
  5  8  1  0  0  0
  8  9  2  0  0  0
  8 10  1  0  0  0
 10 11  1  0  0  0
 11 12  1  0  0  0
 12 13  1  0  0  0
 13 14  1  0  0  0
 14 15  1  0  0  0
  7  2  1  0  0  0
 15 10  1  0  0  0
 15  4  1  0  0  0
 13 16  1  0  0  0
M  END
> <minimizedAffinity>
-3.40001

> <CNNscore>
0.3574831188

> <CNNaffinity>
3.4615473747

> <CNN_VS>
1.2374447584

> <CNNaffinity_variance>
0.2736991942

$$$$
[H]c1c(C([H])([H])[H])c([H])c2c(c1C(F)(F)F)C(=O)N1C([H])([H])C([H])([H])N([H])C([H])([H])[C@@]21[H]


 20 22  0  0  0  0  0  0  0  0999 V2000
  -18.4032   16.7113  -19.5465 C   0  0  0  0  0  0  0  0  0  0  0  0
  -17.7475   15.7624  -20.4852 C   0  0  0  0  0  0  0  0  0  0  0  0
  -16.9377   16.3000  -21.4611 C   0  0  0  0  0  0  0  0  0  0  0  0
  -16.3064   15.4778  -22.3555 C   0  0  0  0  0  0  0  0  0  0  0  0
  -16.4967   14.0941  -22.2627 C   0  0  0  0  0  0  0  0  0  0  0  0
  -17.2955   13.5323  -21.3020 C   0  0  0  0  0  0  0  0  0  0  0  0
  -17.9228   14.3908  -20.4085 C   0  0  0  0  0  0  0  0  0  0  0  0
  -15.7193   13.5343  -23.3688 C   0  0  0  0  0  0  0  0  0  0  0  0
  -15.6334   12.3197  -23.6227 O   0  0  0  0  0  0  0  0  0  0  0  0
  -15.0897   14.5513  -24.0971 N   0  0  0  0  0  0  0  0  0  0  0  0
  -14.2754   14.6019  -25.2851 C   0  0  0  0  0  0  0  0  0  0  0  0
  -14.7976   15.6691  -26.2449 C   0  0  0  0  0  0  0  0  0  0  0  0
  -14.9384   16.8964  -25.5294 N   0  0  0  0  0  0  0  0  0  0  0  0
  -15.8763   16.8350  -24.4205 C   0  0  0  0  0  0  0  0  0  0  0  0
  -15.3876   15.8080  -23.4495 C   0  0  0  0  0  0  0  0  0  0  0  0
  -15.1882   17.7057  -26.1282 H   0  0  0  0  0  0  0  0  0  0  0  0
  -17.4726   12.0662  -21.2199 C   0  0  0  0  0  0  0  0  0  0  0  0
  -16.3299   11.3617  -21.0013 F   0  0  0  0  0  0  0  0  0  0  0  0
  -18.1597   11.6018  -22.3507 F   0  0  0  0  0  0  0  0  0  0  0  0
  -18.3310   11.7627  -20.1522 F   0  0  0  0  0  0  0  0  0  0  0  0
  1  2  1  0  0  0
  2  3  2  0  0  0
  3  4  1  0  0  0
  4  5  2  0  0  0
  5  6  1  0  0  0
  6 17  1  0  0  0
 17 18  1  0  0  0
 17 19  1  0  0  0
 17 20  1  0  0  0
  6  7  2  0  0  0
  5  8  1  0  0  0
  8  9  2  0  0  0
  8 10  1  0  0  0
 10 11  1  0  0  0
 11 12  1  0  0  0
 12 13  1  0  0  0
 13 14  1  0  0  0
 14 15  1  0  0  0
  7  2  1  0  0  0
 15 10  1  0  0  0
 15  4  1  0  0  0
 13 16  1  0  0  0
M  END
> <minimizedAffinity>
-8.14609

> <CNNscore>
0.3264538050

> <CNNaffinity>
5.3092918396

> <CNN_VS>
1.7332385778

> <CNNaffinity_variance>
0.1814638525

$$$$
[H]N=C1c2c([H])nc([H])nc2C([H])([H])[C@](c2c([H])c(-c3c([H])nc([H])c(Cl)c3[H])c([H])c([H])c2F)(C([H])([H])[H])N1[H]


 28 31  0  0  0  0  0  0  0  0999 V2000
  -19.9872   10.4311  -14.4464 C   0  0  0  0  0  0  0  0  0  0  0  0
  -20.3759   10.1602  -15.8681 C   0  0  0  0  0  0  0  0  0  0  0  0
  -19.8650    8.7872  -16.2304 C   0  0  0  0  0  0  0  0  0  0  0  0
  -20.4677    7.7541  -15.3664 C   0  0  0  0  0  0  0  0  0  0  0  0
  -19.7745    6.6328  -15.0835 N   0  0  0  0  0  0  0  0  0  0  0  0
  -20.2795    5.6534  -14.3134 C   0  0  0  0  0  0  0  0  0  0  0  0
  -21.5190    5.8298  -13.8254 N   0  0  0  0  0  0  0  0  0  0  0  0
  -22.2548    6.9420  -14.0827 C   0  0  0  0  0  0  0  0  0  0  0  0
  -21.7337    7.9331  -14.8665 C   0  0  0  0  0  0  0  0  0  0  0  0
  -22.4992    9.1647  -15.1551 C   0  0  0  0  0  0  0  0  0  0  0  0
  -23.6701    9.3514  -14.7118 N   0  0  0  0  0  0  0  0  0  0  0  0
  -21.8295   10.1181  -15.9680 N   0  0  0  0  0  0  0  0  0  0  0  0
  -24.2586    8.7570  -14.1302 H   0  0  0  0  0  0  0  0  0  0  0  0
  -22.3939   10.7355  -16.5890 H   0  0  0  0  0  0  0  0  0  0  0  0
  -19.8015   11.1544  -16.8109 C   0  0  0  0  0  0  0  0  0  0  0  0
  -18.9081   10.8078  -17.8003 C   0  0  0  0  0  0  0  0  0  0  0  0
  -18.3794   11.7580  -18.6702 C   0  0  0  0  0  0  0  0  0  0  0  0
  -18.7778   13.0716  -18.5145 C   0  0  0  0  0  0  0  0  0  0  0  0
  -19.6810   13.4601  -17.5239 C   0  0  0  0  0  0  0  0  0  0  0  0
  -20.1725   12.4755  -16.6900 C   0  0  0  0  0  0  0  0  0  0  0  0
  -21.0590   12.8097  -15.7067 F   0  0  0  0  0  0  0  0  0  0  0  0
  -17.4324   11.4170  -19.7232 C   0  0  0  0  0  0  0  0  0  0  0  0
  -16.5740   10.3539  -19.5533 C   0  0  0  0  0  0  0  0  0  0  0  0
  -15.6779   10.0123  -20.5145 N   0  0  0  0  0  0  0  0  0  0  0  0
  -15.5774   10.6864  -21.6788 C   0  0  0  0  0  0  0  0  0  0  0  0
  -16.4176   11.7516  -21.8818 C   0  0  0  0  0  0  0  0  0  0  0  0
  -16.3009   12.6352  -23.3816 Cl  0  0  0  0  0  0  0  0  0  0  0  0
  -17.3472   12.1206  -20.9064 C   0  0  0  0  0  0  0  0  0  0  0  0
  2  1  1  0  0  0
  2 15  1  0  0  0
 15 16  2  0  0  0
 16 17  1  0  0  0
 17 22  1  0  0  0
 22 23  2  0  0  0
 23 24  1  0  0  0
 24 25  2  0  0  0
 25 26  1  0  0  0
 26 27  1  0  0  0
 26 28  2  0  0  0
 17 18  2  0  0  0
 18 19  1  0  0  0
 19 20  2  0  0  0
 20 21  1  0  0  0
  2  3  1  0  0  0
  3  4  1  0  0  0
  4  5  2  0  0  0
  5  6  1  0  0  0
  6  7  2  0  0  0
  7  8  1  0  0  0
  8  9  2  0  0  0
  9 10  1  0  0  0
 10 11  2  0  0  0
 10 12  1  0  0  0
 12  2  1  0  0  0
 20 15  1  0  0  0
  9  4  1  0  0  0
 28 22  1  0  0  0
 11 13  1  0  0  0
 12 14  1  0  0  0
M  END
> <minimizedAffinity>
-8.38924

> <CNNscore>
0.5754181743

> <CNNaffinity>
6.3558096886

> <CNN_VS>
3.6572484970

> <CNNaffinity_variance>
0.0901576653

$$$$
[H]N=C1c2c([H])nc([H])nc2C([H])([H])[C@](c2c([H])c(-c3c([H])nc([H])c(Cl)c3[H])c([H])c([H])c2F)(C([H])([H])[H])N1[H]


 28 31  0  0  0  0  0  0  0  0999 V2000
  -21.5526   10.1744  -15.7789 C   0  0  0  0  0  0  0  0  0  0  0  0
  -20.0971   10.5261  -15.8372 C   0  0  0  0  0  0  0  0  0  0  0  0
  -19.7544   11.2749  -14.5725 C   0  0  0  0  0  0  0  0  0  0  0  0
  -19.9953   10.4382  -13.3813 C   0  0  0  0  0  0  0  0  0  0  0  0
  -20.3419   11.0204  -12.2156 N   0  0  0  0  0  0  0  0  0  0  0  0
  -20.5602   10.3085  -11.0963 C   0  0  0  0  0  0  0  0  0  0  0  0
  -20.4196    8.9746  -11.1767 N   0  0  0  0  0  0  0  0  0  0  0  0
  -20.0725    8.3439  -12.3283 C   0  0  0  0  0  0  0  0  0  0  0  0
  -19.8526    9.0752  -13.4619 C   0  0  0  0  0  0  0  0  0  0  0  0
  -19.4888    8.4219  -14.7374 C   0  0  0  0  0  0  0  0  0  0  0  0
  -19.3448    7.1681  -14.8368 N   0  0  0  0  0  0  0  0  0  0  0  0
  -19.3076    9.3009  -15.8386 N   0  0  0  0  0  0  0  0  0  0  0  0
  -19.4399    6.4349  -14.1359 H   0  0  0  0  0  0  0  0  0  0  0  0
  -18.6317    9.0383  -16.5867 H   0  0  0  0  0  0  0  0  0  0  0  0
  -19.7676   11.3786  -17.0084 C   0  0  0  0  0  0  0  0  0  0  0  0
  -18.7948   11.0390  -17.9224 C   0  0  0  0  0  0  0  0  0  0  0  0
  -18.5002   11.8561  -19.0107 C   0  0  0  0  0  0  0  0  0  0  0  0
  -19.2161   13.0291  -19.1527 C   0  0  0  0  0  0  0  0  0  0  0  0
  -20.2090   13.4060  -18.2470 C   0  0  0  0  0  0  0  0  0  0  0  0
  -20.4581   12.5571  -17.1870 C   0  0  0  0  0  0  0  0  0  0  0  0
  -21.4211   12.8854  -16.2763 F   0  0  0  0  0  0  0  0  0  0  0  0
  -17.4753   11.5198  -19.9898 C   0  0  0  0  0  0  0  0  0  0  0  0
  -16.6196   10.4680  -19.7508 C   0  0  0  0  0  0  0  0  0  0  0  0
  -15.6523   10.1311  -20.6420 N   0  0  0  0  0  0  0  0  0  0  0  0
  -15.4750   10.7992  -21.8005 C   0  0  0  0  0  0  0  0  0  0  0  0
  -16.3102   11.8532  -22.0714 C   0  0  0  0  0  0  0  0  0  0  0  0
  -16.0949   12.7289  -23.5648 Cl  0  0  0  0  0  0  0  0  0  0  0  0
  -17.3123   12.2172  -21.1686 C   0  0  0  0  0  0  0  0  0  0  0  0
  2  1  1  0  0  0
  2 15  1  0  0  0
 15 16  2  0  0  0
 16 17  1  0  0  0
 17 22  1  0  0  0
 22 23  2  0  0  0
 23 24  1  0  0  0
 24 25  2  0  0  0
 25 26  1  0  0  0
 26 27  1  0  0  0
 26 28  2  0  0  0
 17 18  2  0  0  0
 18 19  1  0  0  0
 19 20  2  0  0  0
 20 21  1  0  0  0
  2  3  1  0  0  0
  3  4  1  0  0  0
  4  5  2  0  0  0
  5  6  1  0  0  0
  6  7  2  0  0  0
  7  8  1  0  0  0
  8  9  2  0  0  0
  9 10  1  0  0  0
 10 11  2  0  0  0
 10 12  1  0  0  0
 12  2  1  0  0  0
 20 15  1  0  0  0
  9  4  1  0  0  0
 28 22  1  0  0  0
 11 13  1  0  0  0
 12 14  1  0  0  0
M  END
> <minimizedAffinity>
-8.61398

> <CNNscore>
0.5551462173

> <CNNaffinity>
6.4297347069

> <CNN_VS>
3.5694429874

> <CNNaffinity_variance>
0.2440592349

$$$$
[H]N=C1c2c([H])nc([H])nc2C([H])([H])[C@](c2c([H])c(-c3c([H])nc([H])c(Cl)c3[H])c([H])c([H])c2F)(C([H])([H])[H])N1[H]


 28 31  0  0  0  0  0  0  0  0999 V2000
  -19.4714    9.1591  -15.7969 C   0  0  0  0  0  0  0  0  0  0  0  0
  -20.0820   10.5251  -15.7130 C   0  0  0  0  0  0  0  0  0  0  0  0
  -21.5771   10.3537  -15.5999 C   0  0  0  0  0  0  0  0  0  0  0  0
  -21.9318    9.5976  -14.3836 C   0  0  0  0  0  0  0  0  0  0  0  0
  -23.0414    8.8316  -14.3735 N   0  0  0  0  0  0  0  0  0  0  0  0
  -23.4195    8.1324  -13.2892 C   0  0  0  0  0  0  0  0  0  0  0  0
  -22.6432    8.2221  -12.1961 N   0  0  0  0  0  0  0  0  0  0  0  0
  -21.5169    8.9801  -12.1593 C   0  0  0  0  0  0  0  0  0  0  0  0
  -21.1395    9.6877  -13.2661 C   0  0  0  0  0  0  0  0  0  0  0  0
  -19.9113   10.5108  -13.2680 C   0  0  0  0  0  0  0  0  0  0  0  0
  -19.1672   10.6157  -12.2492 N   0  0  0  0  0  0  0  0  0  0  0  0
  -19.6305   11.1778  -14.4905 N   0  0  0  0  0  0  0  0  0  0  0  0
  -19.2534   10.2004  -11.3230 H   0  0  0  0  0  0  0  0  0  0  0  0
  -19.1232   12.0874  -14.4630 H   0  0  0  0  0  0  0  0  0  0  0  0
  -19.7793   11.3544  -16.9079 C   0  0  0  0  0  0  0  0  0  0  0  0
  -18.8100   11.0093  -17.8236 C   0  0  0  0  0  0  0  0  0  0  0  0
  -18.5407   11.8047  -18.9344 C   0  0  0  0  0  0  0  0  0  0  0  0
  -19.2783   12.9615  -19.0970 C   0  0  0  0  0  0  0  0  0  0  0  0
  -20.2683   13.3432  -18.1903 C   0  0  0  0  0  0  0  0  0  0  0  0
  -20.4920   12.5162  -17.1075 C   0  0  0  0  0  0  0  0  0  0  0  0
  -21.4512   12.8500  -16.1950 F   0  0  0  0  0  0  0  0  0  0  0  0
  -17.5201   11.4624  -19.9158 C   0  0  0  0  0  0  0  0  0  0  0  0
  -16.6830   10.3932  -19.6879 C   0  0  0  0  0  0  0  0  0  0  0  0
  -15.7201   10.0502  -20.5815 N   0  0  0  0  0  0  0  0  0  0  0  0
  -15.5294   10.7286  -21.7318 C   0  0  0  0  0  0  0  0  0  0  0  0
  -16.3458   11.8000  -21.9915 C   0  0  0  0  0  0  0  0  0  0  0  0
  -16.1129   12.6894  -23.4742 Cl  0  0  0  0  0  0  0  0  0  0  0  0
  -17.3431   12.1706  -21.0860 C   0  0  0  0  0  0  0  0  0  0  0  0
  2  1  1  0  0  0
  2 15  1  0  0  0
 15 16  2  0  0  0
 16 17  1  0  0  0
 17 22  1  0  0  0
 22 23  2  0  0  0
 23 24  1  0  0  0
 24 25  2  0  0  0
 25 26  1  0  0  0
 26 27  1  0  0  0
 26 28  2  0  0  0
 17 18  2  0  0  0
 18 19  1  0  0  0
 19 20  2  0  0  0
 20 21  1  0  0  0
  2  3  1  0  0  0
  3  4  1  0  0  0
  4  5  2  0  0  0
  5  6  1  0  0  0
  6  7  2  0  0  0
  7  8  1  0  0  0
  8  9  2  0  0  0
  9 10  1  0  0  0
 10 11  2  0  0  0
 10 12  1  0  0  0
 12  2  1  0  0  0
 20 15  1  0  0  0
  9  4  1  0  0  0
 28 22  1  0  0  0
 11 13  1  0  0  0
 12 14  1  0  0  0
M  END
> <minimizedAffinity>
-8.21249

> <CNNscore>
0.5472811460

> <CNNaffinity>
6.3229861259

> <CNN_VS>
3.4604511261

> <CNNaffinity_variance>
0.2052909881

$$$$
[H]N=C1c2c([H])nc([H])nc2C([H])([H])[C@](c2c([H])c(-c3c([H])nc([H])c(Cl)c3[H])c([H])c([H])c2F)(C([H])([H])[H])N1[H]


 28 31  0  0  0  0  0  0  0  0999 V2000
  -18.6666   16.0314  -23.6485 C   0  0  0  0  0  0  0  0  0  0  0  0
  -17.5350   15.3193  -22.9715 C   0  0  0  0  0  0  0  0  0  0  0  0
  -17.3672   13.9792  -23.6448 C   0  0  0  0  0  0  0  0  0  0  0  0
  -17.0399   14.1433  -25.0742 C   0  0  0  0  0  0  0  0  0  0  0  0
  -17.4268   13.2030  -25.9597 N   0  0  0  0  0  0  0  0  0  0  0  0
  -17.1445   13.2945  -27.2710 C   0  0  0  0  0  0  0  0  0  0  0  0
  -16.4522   14.3715  -27.6790 N   0  0  0  0  0  0  0  0  0  0  0  0
  -16.0418   15.3439  -26.8243 C   0  0  0  0  0  0  0  0  0  0  0  0
  -16.3333   15.2433  -25.4927 C   0  0  0  0  0  0  0  0  0  0  0  0
  -15.9166   16.2901  -24.5354 C   0  0  0  0  0  0  0  0  0  0  0  0
  -15.2591   17.3105  -24.8945 N   0  0  0  0  0  0  0  0  0  0  0  0
  -16.3017   16.0659  -23.1864 N   0  0  0  0  0  0  0  0  0  0  0  0
  -14.9204   17.5877  -25.8145 H   0  0  0  0  0  0  0  0  0  0  0  0
  -15.6990   16.4373  -22.4222 H   0  0  0  0  0  0  0  0  0  0  0  0
  -17.7874   15.1048  -21.5232 C   0  0  0  0  0  0  0  0  0  0  0  0
  -17.8828   13.8491  -20.9654 C   0  0  0  0  0  0  0  0  0  0  0  0
  -18.1241   13.6723  -19.6054 C   0  0  0  0  0  0  0  0  0  0  0  0
  -18.2668   14.8004  -18.8207 C   0  0  0  0  0  0  0  0  0  0  0  0
  -18.1762   16.0884  -19.3505 C   0  0  0  0  0  0  0  0  0  0  0  0
  -17.9358   16.2032  -20.7054 C   0  0  0  0  0  0  0  0  0  0  0  0
  -17.8391   17.4440  -21.2670 F   0  0  0  0  0  0  0  0  0  0  0  0
  -18.2308   12.3553  -18.9920 C   0  0  0  0  0  0  0  0  0  0  0  0
  -17.3470   11.3613  -19.3479 C   0  0  0  0  0  0  0  0  0  0  0  0
  -17.4217   10.1226  -18.7967 N   0  0  0  0  0  0  0  0  0  0  0  0
  -18.3551    9.7971  -17.8787 C   0  0  0  0  0  0  0  0  0  0  0  0
  -19.2522   10.7636  -17.5005 C   0  0  0  0  0  0  0  0  0  0  0  0
  -20.4666   10.3599  -16.3148 Cl  0  0  0  0  0  0  0  0  0  0  0  0
  -19.1937   12.0447  -18.0548 C   0  0  0  0  0  0  0  0  0  0  0  0
  2  1  1  0  0  0
  2 15  1  0  0  0
 15 16  2  0  0  0
 16 17  1  0  0  0
 17 22  1  0  0  0
 22 23  2  0  0  0
 23 24  1  0  0  0
 24 25  2  0  0  0
 25 26  1  0  0  0
 26 27  1  0  0  0
 26 28  2  0  0  0
 17 18  2  0  0  0
 18 19  1  0  0  0
 19 20  2  0  0  0
 20 21  1  0  0  0
  2  3  1  0  0  0
  3  4  1  0  0  0
  4  5  2  0  0  0
  5  6  1  0  0  0
  6  7  2  0  0  0
  7  8  1  0  0  0
  8  9  2  0  0  0
  9 10  1  0  0  0
 10 11  2  0  0  0
 10 12  1  0  0  0
 12  2  1  0  0  0
 20 15  1  0  0  0
  9  4  1  0  0  0
 28 22  1  0  0  0
 11 13  1  0  0  0
 12 14  1  0  0  0
M  END
> <minimizedAffinity>
-9.31314

> <CNNscore>
0.3672870696

> <CNNaffinity>
7.1020784378

> <CNN_VS>
2.6085016727

> <CNNaffinity_variance>
0.2699056864

$$$$
[H]N=C1c2c([H])nc([H])nc2C([H])([H])[C@](c2c([H])c(-c3c([H])nc([H])c(Cl)c3[H])c([H])c([H])c2F)(C([H])([H])[H])N1[H]


 28 31  0  0  0  0  0  0  0  0999 V2000
  -19.0384   12.1258  -20.9059 C   0  0  0  0  0  0  0  0  0  0  0  0
  -17.8876   12.7966  -20.2193 C   0  0  0  0  0  0  0  0  0  0  0  0
  -18.3274   13.1426  -18.8177 C   0  0  0  0  0  0  0  0  0  0  0  0
  -18.6904   11.9279  -18.0628 C   0  0  0  0  0  0  0  0  0  0  0  0
  -19.6276   11.9979  -17.0961 N   0  0  0  0  0  0  0  0  0  0  0  0
  -19.9876   10.9264  -16.3682 C   0  0  0  0  0  0  0  0  0  0  0  0
  -19.3732    9.7624  -16.6390 N   0  0  0  0  0  0  0  0  0  0  0  0
  -18.4240    9.6435  -17.6030 C   0  0  0  0  0  0  0  0  0  0  0  0
  -18.0640   10.7378  -18.3386 C   0  0  0  0  0  0  0  0  0  0  0  0
  -17.0461   10.6427  -19.4067 C   0  0  0  0  0  0  0  0  0  0  0  0
  -16.4497    9.5593  -19.6764 N   0  0  0  0  0  0  0  0  0  0  0  0
  -16.7829   11.8530  -20.1025 N   0  0  0  0  0  0  0  0  0  0  0  0
  -16.5394    8.6344  -19.2589 H   0  0  0  0  0  0  0  0  0  0  0  0
  -15.8303   12.0124  -20.4931 H   0  0  0  0  0  0  0  0  0  0  0  0
  -17.4614   14.0393  -20.9130 C   0  0  0  0  0  0  0  0  0  0  0  0
  -16.8146   14.0249  -22.1290 C   0  0  0  0  0  0  0  0  0  0  0  0
  -16.4206   15.2027  -22.7588 C   0  0  0  0  0  0  0  0  0  0  0  0
  -16.6980   16.3994  -22.1266 C   0  0  0  0  0  0  0  0  0  0  0  0
  -17.3516   16.4532  -20.8946 C   0  0  0  0  0  0  0  0  0  0  0  0
  -17.7188   15.2541  -20.3168 C   0  0  0  0  0  0  0  0  0  0  0  0
  -18.3609   15.2587  -19.1118 F   0  0  0  0  0  0  0  0  0  0  0  0
  -15.7342   15.2138  -24.0436 C   0  0  0  0  0  0  0  0  0  0  0  0
  -14.3746   15.0029  -24.0947 C   0  0  0  0  0  0  0  0  0  0  0  0
  -13.7051   15.0099  -25.2759 N   0  0  0  0  0  0  0  0  0  0  0  0
  -14.3256   15.2213  -26.4550 C   0  0  0  0  0  0  0  0  0  0  0  0
  -15.6806   15.4350  -26.4414 C   0  0  0  0  0  0  0  0  0  0  0  0
  -16.4993   15.7108  -27.9571 Cl  0  0  0  0  0  0  0  0  0  0  0  0
  -16.3894   15.4321  -25.2375 C   0  0  0  0  0  0  0  0  0  0  0  0
  2  1  1  0  0  0
  2 15  1  0  0  0
 15 16  2  0  0  0
 16 17  1  0  0  0
 17 22  1  0  0  0
 22 23  2  0  0  0
 23 24  1  0  0  0
 24 25  2  0  0  0
 25 26  1  0  0  0
 26 27  1  0  0  0
 26 28  2  0  0  0
 17 18  2  0  0  0
 18 19  1  0  0  0
 19 20  2  0  0  0
 20 21  1  0  0  0
  2  3  1  0  0  0
  3  4  1  0  0  0
  4  5  2  0  0  0
  5  6  1  0  0  0
  6  7  2  0  0  0
  7  8  1  0  0  0
  8  9  2  0  0  0
  9 10  1  0  0  0
 10 11  2  0  0  0
 10 12  1  0  0  0
 12  2  1  0  0  0
 20 15  1  0  0  0
  9  4  1  0  0  0
 28 22  1  0  0  0
 11 13  1  0  0  0
 12 14  1  0  0  0
M  END
> <minimizedAffinity>
-9.43118

> <CNNscore>
0.3555091918

> <CNNaffinity>
6.7345552444

> <CNN_VS>
2.3941962719

> <CNNaffinity_variance>
0.2078662813

$$$$
[H]N=C1c2c([H])nc([H])nc2C([H])([H])[C@](c2c([H])c(-c3c([H])nc([H])c(Cl)c3[H])c([H])c([H])c2F)(C([H])([H])[H])N1[H]


 28 31  0  0  0  0  0  0  0  0999 V2000
  -15.1040   12.3223  -23.2437 C   0  0  0  0  0  0  0  0  0  0  0  0
  -16.5148   12.5921  -22.8165 C   0  0  0  0  0  0  0  0  0  0  0  0
  -16.6724   14.0857  -22.6691 C   0  0  0  0  0  0  0  0  0  0  0  0
  -16.4230   14.7725  -23.9509 C   0  0  0  0  0  0  0  0  0  0  0  0
  -15.9229   16.0246  -23.9512 N   0  0  0  0  0  0  0  0  0  0  0  0
  -15.6888   16.7024  -25.0884 C   0  0  0  0  0  0  0  0  0  0  0  0
  -15.9738   16.0820  -26.2458 N   0  0  0  0  0  0  0  0  0  0  0  0
  -16.4782   14.8220  -26.2952 C   0  0  0  0  0  0  0  0  0  0  0  0
  -16.7131   14.1398  -25.1342 C   0  0  0  0  0  0  0  0  0  0  0  0
  -17.2467   12.7610  -25.1496 C   0  0  0  0  0  0  0  0  0  0  0  0
  -17.5282   12.1580  -26.2264 N   0  0  0  0  0  0  0  0  0  0  0  0
  -17.4252   12.1659  -23.8720 N   0  0  0  0  0  0  0  0  0  0  0  0
  -17.4528   12.4655  -27.1947 H   0  0  0  0  0  0  0  0  0  0  0  0
  -18.1839   11.4633  -23.7453 H   0  0  0  0  0  0  0  0  0  0  0  0
  -16.8489   11.9405  -21.5238 C   0  0  0  0  0  0  0  0  0  0  0  0
  -17.8152   12.4315  -20.6740 C   0  0  0  0  0  0  0  0  0  0  0  0
  -18.1084   11.8060  -19.4649 C   0  0  0  0  0  0  0  0  0  0  0  0
  -17.3980   10.6678  -19.1353 C   0  0  0  0  0  0  0  0  0  0  0  0
  -16.4121   10.1411  -19.9711 C   0  0  0  0  0  0  0  0  0  0  0  0
  -16.1637   10.8031  -21.1571 C   0  0  0  0  0  0  0  0  0  0  0  0
  -15.2079   10.3233  -22.0060 F   0  0  0  0  0  0  0  0  0  0  0  0
  -19.1244   12.3063  -18.5487 C   0  0  0  0  0  0  0  0  0  0  0  0
  -19.3710   11.6389  -17.3700 C   0  0  0  0  0  0  0  0  0  0  0  0
  -20.3132   12.0779  -16.4964 N   0  0  0  0  0  0  0  0  0  0  0  0
  -21.0541   13.1809  -16.7292 C   0  0  0  0  0  0  0  0  0  0  0  0
  -20.8348   13.8709  -17.8945 C   0  0  0  0  0  0  0  0  0  0  0  0
  -21.7845   15.2994  -18.2123 Cl  0  0  0  0  0  0  0  0  0  0  0  0
  -19.8705   13.4370  -18.8075 C   0  0  0  0  0  0  0  0  0  0  0  0
  2  1  1  0  0  0
  2 15  1  0  0  0
 15 16  2  0  0  0
 16 17  1  0  0  0
 17 22  1  0  0  0
 22 23  2  0  0  0
 23 24  1  0  0  0
 24 25  2  0  0  0
 25 26  1  0  0  0
 26 27  1  0  0  0
 26 28  2  0  0  0
 17 18  2  0  0  0
 18 19  1  0  0  0
 19 20  2  0  0  0
 20 21  1  0  0  0
  2  3  1  0  0  0
  3  4  1  0  0  0
  4  5  2  0  0  0
  5  6  1  0  0  0
  6  7  2  0  0  0
  7  8  1  0  0  0
  8  9  2  0  0  0
  9 10  1  0  0  0
 10 11  2  0  0  0
 10 12  1  0  0  0
 12  2  1  0  0  0
 20 15  1  0  0  0
  9  4  1  0  0  0
 28 22  1  0  0  0
 11 13  1  0  0  0
 12 14  1  0  0  0
M  END
> <minimizedAffinity>
-9.78028

> <CNNscore>
0.2912691236

> <CNNaffinity>
6.5924568176

> <CNN_VS>
1.9201791286

> <CNNaffinity_variance>
0.2039664984

$$$$
[H]N=C1c2c([H])nc([H])nc2C([H])([H])[C@](c2c([H])c(-c3c([H])nc([H])c(Cl)c3[H])c([H])c([H])c2F)(C([H])([H])[H])N1[H]


 28 31  0  0  0  0  0  0  0  0999 V2000
  -18.4290   15.2114  -18.6379 C   0  0  0  0  0  0  0  0  0  0  0  0
  -18.6329   15.6005  -20.0707 C   0  0  0  0  0  0  0  0  0  0  0  0
  -20.1191   15.6358  -20.3300 C   0  0  0  0  0  0  0  0  0  0  0  0
  -20.7827   16.6314  -19.4667 C   0  0  0  0  0  0  0  0  0  0  0  0
  -22.0598   16.4355  -19.0815 N   0  0  0  0  0  0  0  0  0  0  0  0
  -22.7176   17.3156  -18.3068 C   0  0  0  0  0  0  0  0  0  0  0  0
  -22.0507   18.4167  -17.9214 N   0  0  0  0  0  0  0  0  0  0  0  0
  -20.7640   18.6567  -18.2840 C   0  0  0  0  0  0  0  0  0  0  0  0
  -20.1025   17.7565  -19.0716 C   0  0  0  0  0  0  0  0  0  0  0  0
  -18.6967   17.9767  -19.4730 C   0  0  0  0  0  0  0  0  0  0  0  0
  -18.0494   19.0082  -19.1274 N   0  0  0  0  0  0  0  0  0  0  0  0
  -18.1283   16.9523  -20.2767 N   0  0  0  0  0  0  0  0  0  0  0  0
  -18.3337   19.8084  -18.5646 H   0  0  0  0  0  0  0  0  0  0  0  0
  -17.3890   17.2048  -20.9659 H   0  0  0  0  0  0  0  0  0  0  0  0
  -18.0001   14.6417  -21.0128 C   0  0  0  0  0  0  0  0  0  0  0  0
  -17.2437   15.0497  -22.0890 C   0  0  0  0  0  0  0  0  0  0  0  0
  -16.6634   14.1326  -22.9615 C   0  0  0  0  0  0  0  0  0  0  0  0
  -16.8675   12.7881  -22.7179 C   0  0  0  0  0  0  0  0  0  0  0  0
  -17.6276   12.3373  -21.6376 C   0  0  0  0  0  0  0  0  0  0  0  0
  -18.1789   13.2916  -20.8058 C   0  0  0  0  0  0  0  0  0  0  0  0
  -18.9298   12.8964  -19.7360 F   0  0  0  0  0  0  0  0  0  0  0  0
  -15.8607   14.5389  -24.1072 C   0  0  0  0  0  0  0  0  0  0  0  0
  -14.4965   14.6697  -23.9749 C   0  0  0  0  0  0  0  0  0  0  0  0
  -13.7209   15.0493  -25.0227 N   0  0  0  0  0  0  0  0  0  0  0  0
  -14.2354   15.3172  -26.2407 C   0  0  0  0  0  0  0  0  0  0  0  0
  -15.5916   15.1969  -26.4085 C   0  0  0  0  0  0  0  0  0  0  0  0
  -16.2742   15.5401  -27.9769 Cl  0  0  0  0  0  0  0  0  0  0  0  0
  -16.4085   14.8077  -25.3441 C   0  0  0  0  0  0  0  0  0  0  0  0
  2  1  1  0  0  0
  2 15  1  0  0  0
 15 16  2  0  0  0
 16 17  1  0  0  0
 17 22  1  0  0  0
 22 23  2  0  0  0
 23 24  1  0  0  0
 24 25  2  0  0  0
 25 26  1  0  0  0
 26 27  1  0  0  0
 26 28  2  0  0  0
 17 18  2  0  0  0
 18 19  1  0  0  0
 19 20  2  0  0  0
 20 21  1  0  0  0
  2  3  1  0  0  0
  3  4  1  0  0  0
  4  5  2  0  0  0
  5  6  1  0  0  0
  6  7  2  0  0  0
  7  8  1  0  0  0
  8  9  2  0  0  0
  9 10  1  0  0  0
 10 11  2  0  0  0
 10 12  1  0  0  0
 12  2  1  0  0  0
 20 15  1  0  0  0
  9  4  1  0  0  0
 28 22  1  0  0  0
 11 13  1  0  0  0
 12 14  1  0  0  0
M  END
> <minimizedAffinity>
-8.83865

> <CNNscore>
0.2438568324

> <CNNaffinity>
6.2057557106

> <CNN_VS>
1.5133159161

> <CNNaffinity_variance>
0.2460461408

$$$$
[H]N=C1c2c([H])nc([H])nc2C([H])([H])[C@](c2c([H])c(-c3c([H])nc([H])c(Cl)c3[H])c([H])c([H])c2F)(C([H])([H])[H])N1[H]


 28 31  0  0  0  0  0  0  0  0999 V2000
  -15.4891   13.2151  -23.6729 C   0  0  0  0  0  0  0  0  0  0  0  0
  -16.8383   13.8488  -23.5189 C   0  0  0  0  0  0  0  0  0  0  0  0
  -16.7836   15.2096  -24.1689 C   0  0  0  0  0  0  0  0  0  0  0  0
  -16.4715   15.0964  -25.6065 C   0  0  0  0  0  0  0  0  0  0  0  0
  -15.8026   16.0906  -26.2247 N   0  0  0  0  0  0  0  0  0  0  0  0
  -15.5035   16.0464  -27.5347 C   0  0  0  0  0  0  0  0  0  0  0  0
  -15.8990   14.9611  -28.2212 N   0  0  0  0  0  0  0  0  0  0  0  0
  -16.5745   13.9353  -27.6417 C   0  0  0  0  0  0  0  0  0  0  0  0
  -16.8744   13.9880  -26.3092 C   0  0  0  0  0  0  0  0  0  0  0  0
  -17.5944   12.8830  -25.6410 C   0  0  0  0  0  0  0  0  0  0  0  0
  -17.9821   11.8535  -26.2672 N   0  0  0  0  0  0  0  0  0  0  0  0
  -17.8236   13.0623  -24.2504 N   0  0  0  0  0  0  0  0  0  0  0  0
  -17.8876   11.6040  -27.2505 H   0  0  0  0  0  0  0  0  0  0  0  0
  -18.6693   12.6324  -23.8199 H   0  0  0  0  0  0  0  0  0  0  0  0
  -17.2290   14.0084  -22.0944 C   0  0  0  0  0  0  0  0  0  0  0  0
  -17.5354   12.9369  -21.2851 C   0  0  0  0  0  0  0  0  0  0  0  0
  -17.9033   13.1112  -19.9534 C   0  0  0  0  0  0  0  0  0  0  0  0
  -17.9536   14.4001  -19.4586 C   0  0  0  0  0  0  0  0  0  0  0  0
  -17.6499   15.5100  -20.2484 C   0  0  0  0  0  0  0  0  0  0  0  0
  -17.2917   15.2771  -21.5614 C   0  0  0  0  0  0  0  0  0  0  0  0
  -16.9857   16.3333  -22.3709 F   0  0  0  0  0  0  0  0  0  0  0  0
  -18.2332   11.9947  -19.0779 C   0  0  0  0  0  0  0  0  0  0  0  0
  -17.4761   10.8454  -19.1198 C   0  0  0  0  0  0  0  0  0  0  0  0
  -17.7594    9.7863  -18.3188 N   0  0  0  0  0  0  0  0  0  0  0  0
  -18.7872    9.7978  -17.4451 C   0  0  0  0  0  0  0  0  0  0  0  0
  -19.5630   10.9272  -17.3768 C   0  0  0  0  0  0  0  0  0  0  0  0
  -20.8969   10.9592  -16.2529 Cl  0  0  0  0  0  0  0  0  0  0  0  0
  -19.2895   12.0286  -18.1916 C   0  0  0  0  0  0  0  0  0  0  0  0
  2  1  1  0  0  0
  2 15  1  0  0  0
 15 16  2  0  0  0
 16 17  1  0  0  0
 17 22  1  0  0  0
 22 23  2  0  0  0
 23 24  1  0  0  0
 24 25  2  0  0  0
 25 26  1  0  0  0
 26 27  1  0  0  0
 26 28  2  0  0  0
 17 18  2  0  0  0
 18 19  1  0  0  0
 19 20  2  0  0  0
 20 21  1  0  0  0
  2  3  1  0  0  0
  3  4  1  0  0  0
  4  5  2  0  0  0
  5  6  1  0  0  0
  6  7  2  0  0  0
  7  8  1  0  0  0
  8  9  2  0  0  0
  9 10  1  0  0  0
 10 11  2  0  0  0
 10 12  1  0  0  0
 12  2  1  0  0  0
 20 15  1  0  0  0
  9  4  1  0  0  0
 28 22  1  0  0  0
 11 13  1  0  0  0
 12 14  1  0  0  0
M  END
> <minimizedAffinity>
-9.54566

> <CNNscore>
0.2356616855

> <CNNaffinity>
6.8113350868

> <CNN_VS>
1.6051707268

> <CNNaffinity_variance>
0.0900920033

$$$$
[H]N=C1c2c([H])nc([H])nc2C([H])([H])[C@](c2c([H])c(-c3c([H])nc([H])c(Cl)c3[H])c([H])c([H])c2F)(C([H])([H])[H])N1[H]


 28 31  0  0  0  0  0  0  0  0999 V2000
  -18.6856   16.0687  -23.5371 C   0  0  0  0  0  0  0  0  0  0  0  0
  -17.5859   15.4048  -22.7654 C   0  0  0  0  0  0  0  0  0  0  0  0
  -17.5257   13.9612  -23.2011 C   0  0  0  0  0  0  0  0  0  0  0  0
  -17.2271   13.8562  -24.6422 C   0  0  0  0  0  0  0  0  0  0  0  0
  -17.6994   12.8084  -25.3472 N   0  0  0  0  0  0  0  0  0  0  0  0
  -17.4473   12.6552  -26.6588 C   0  0  0  0  0  0  0  0  0  0  0  0
  -16.6963   13.5959  -27.2563 N   0  0  0  0  0  0  0  0  0  0  0  0
  -16.1993   14.6684  -26.5877 C   0  0  0  0  0  0  0  0  0  0  0  0
  -16.4606   14.8166  -25.2542 C   0  0  0  0  0  0  0  0  0  0  0  0
  -15.9495   15.9794  -24.4974 C   0  0  0  0  0  0  0  0  0  0  0  0
  -15.2357   16.8751  -25.0364 N   0  0  0  0  0  0  0  0  0  0  0  0
  -16.3120   16.0156  -23.1242 N   0  0  0  0  0  0  0  0  0  0  0  0
  -14.9044   16.9672  -25.9954 H   0  0  0  0  0  0  0  0  0  0  0  0
  -15.6654   16.4685  -22.4444 H   0  0  0  0  0  0  0  0  0  0  0  0
  -17.8126   15.4581  -21.2981 C   0  0  0  0  0  0  0  0  0  0  0  0
  -18.3104   14.3898  -20.5855 C   0  0  0  0  0  0  0  0  0  0  0  0
  -18.5186   14.4643  -19.2107 C   0  0  0  0  0  0  0  0  0  0  0  0
  -18.2098   15.6498  -18.5720 C   0  0  0  0  0  0  0  0  0  0  0  0
  -17.7036   16.7531  -19.2608 C   0  0  0  0  0  0  0  0  0  0  0  0
  -17.5177   16.6220  -20.6227 C   0  0  0  0  0  0  0  0  0  0  0  0
  -17.0241   17.6757  -21.3371 F   0  0  0  0  0  0  0  0  0  0  0  0
  -19.0452   13.3492  -18.4352 C   0  0  0  0  0  0  0  0  0  0  0  0
  -20.1344   13.5403  -17.6149 C   0  0  0  0  0  0  0  0  0  0  0  0
  -20.6472   12.5222  -16.8773 N   0  0  0  0  0  0  0  0  0  0  0  0
  -20.1257   11.2783  -16.9045 C   0  0  0  0  0  0  0  0  0  0  0  0
  -19.0395   11.0520  -17.7113 C   0  0  0  0  0  0  0  0  0  0  0  0
  -18.3518    9.4493  -17.7584 Cl  0  0  0  0  0  0  0  0  0  0  0  0
  -18.4957   12.0849  -18.4787 C   0  0  0  0  0  0  0  0  0  0  0  0
  2  1  1  0  0  0
  2 15  1  0  0  0
 15 16  2  0  0  0
 16 17  1  0  0  0
 17 22  1  0  0  0
 22 23  2  0  0  0
 23 24  1  0  0  0
 24 25  2  0  0  0
 25 26  1  0  0  0
 26 27  1  0  0  0
 26 28  2  0  0  0
 17 18  2  0  0  0
 18 19  1  0  0  0
 19 20  2  0  0  0
 20 21  1  0  0  0
  2  3  1  0  0  0
  3  4  1  0  0  0
  4  5  2  0  0  0
  5  6  1  0  0  0
  6  7  2  0  0  0
  7  8  1  0  0  0
  8  9  2  0  0  0
  9 10  1  0  0  0
 10 11  2  0  0  0
 10 12  1  0  0  0
 12  2  1  0  0  0
 20 15  1  0  0  0
  9  4  1  0  0  0
 28 22  1  0  0  0
 11 13  1  0  0  0
 12 14  1  0  0  0
M  END
> <minimizedAffinity>
-8.93727

> <CNNscore>
0.2331621200

> <CNNaffinity>
6.7621297836

> <CNN_VS>
1.5766725540

> <CNNaffinity_variance>
0.0941730738

$$$$
[H]/C(C(=O)/C([H])=C(\[H])c1c([H])c([H])c(F)c([H])c1[H])=C(/[H])c1c([H])c([H])c(F)c([H])c1[H]


 20 21  0  0  0  0  0  0  0  0999 V2000
  -15.0508    9.9704  -21.5008 O   0  0  0  0  0  0  0  0  0  0  0  0
  -15.9358   10.9557  -21.5506 C   0  0  0  0  0  0  0  0  0  0  0  0
  -16.8911   10.8821  -20.5146 C   0  0  0  0  0  0  0  0  0  0  0  0
  -16.8051   10.6637  -19.2385 C   0  0  0  0  0  0  0  0  0  0  0  0
  -17.9699   10.6321  -18.3296 C   0  0  0  0  0  0  0  0  0  0  0  0
  -18.7059   11.8153  -18.1806 C   0  0  0  0  0  0  0  0  0  0  0  0
  -19.8039   11.8992  -17.3641 C   0  0  0  0  0  0  0  0  0  0  0  0
  -20.1982   10.7942  -16.6697 C   0  0  0  0  0  0  0  0  0  0  0  0
  -21.2921   10.8701  -15.8534 F   0  0  0  0  0  0  0  0  0  0  0  0
  -19.4805    9.6236  -16.8090 C   0  0  0  0  0  0  0  0  0  0  0  0
  -18.3662    9.5462  -17.6403 C   0  0  0  0  0  0  0  0  0  0  0  0
  -15.7204   11.8422  -22.6180 C   0  0  0  0  0  0  0  0  0  0  0  0
  -16.3955   12.8841  -22.9899 C   0  0  0  0  0  0  0  0  0  0  0  0
  -15.9873   13.6831  -24.1555 C   0  0  0  0  0  0  0  0  0  0  0  0
  -14.8021   14.3170  -24.2994 C   0  0  0  0  0  0  0  0  0  0  0  0
  -14.4608   15.0675  -25.4324 C   0  0  0  0  0  0  0  0  0  0  0  0
  -15.3611   15.1772  -26.4597 C   0  0  0  0  0  0  0  0  0  0  0  0
  -15.1002   15.8852  -27.5838 F   0  0  0  0  0  0  0  0  0  0  0  0
  -16.5852   14.5306  -26.3267 C   0  0  0  0  0  0  0  0  0  0  0  0
  -16.9014   13.8037  -25.2162 C   0  0  0  0  0  0  0  0  0  0  0  0
  1  2  2  0  0  0
  2  3  1  0  0  0
  3  4  2  0  0  0
  4  5  1  0  0  0
  5  6  2  0  0  0
  6  7  1  0  0  0
  7  8  2  0  0  0
  8  9  1  0  0  0
  8 10  1  0  0  0
 10 11  2  0  0  0
  2 12  1  0  0  0
 12 13  2  0  0  0
 13 14  1  0  0  0
 14 15  2  0  0  0
 15 16  1  0  0  0
 16 17  2  0  0  0
 17 18  1  0  0  0
 17 19  1  0  0  0
 19 20  2  0  0  0
 11  5  1  0  0  0
 20 14  1  0  0  0
M  END
> <minimizedAffinity>
-8.39642

> <CNNscore>
0.8342460394

> <CNNaffinity>
5.6643233299

> <CNN_VS>
4.7254390717

> <CNNaffinity_variance>
0.3564091325

$$$$
[H]/C(C(=O)/C([H])=C(\[H])c1c([H])c([H])c(F)c([H])c1[H])=C(/[H])c1c([H])c([H])c(F)c([H])c1[H]


 20 21  0  0  0  0  0  0  0  0999 V2000
  -15.3273    9.9600  -21.2018 O   0  0  0  0  0  0  0  0  0  0  0  0
  -16.1941   10.9619  -21.2373 C   0  0  0  0  0  0  0  0  0  0  0  0
  -15.9480   11.8572  -22.3000 C   0  0  0  0  0  0  0  0  0  0  0  0
  -16.7020   12.6760  -22.9665 C   0  0  0  0  0  0  0  0  0  0  0  0
  -16.2127   13.5349  -24.0651 C   0  0  0  0  0  0  0  0  0  0  0  0
  -14.8873   13.9844  -23.9929 C   0  0  0  0  0  0  0  0  0  0  0  0
  -14.3300   14.7852  -24.9561 C   0  0  0  0  0  0  0  0  0  0  0  0
  -15.0886   15.1605  -26.0249 C   0  0  0  0  0  0  0  0  0  0  0  0
  -14.5399   15.9589  -26.9894 F   0  0  0  0  0  0  0  0  0  0  0  0
  -16.3952   14.7234  -26.1060 C   0  0  0  0  0  0  0  0  0  0  0  0
  -16.9543   13.9102  -25.1236 C   0  0  0  0  0  0  0  0  0  0  0  0
  -17.1537   10.9025  -20.2139 C   0  0  0  0  0  0  0  0  0  0  0  0
  -17.0840   10.3786  -19.0306 C   0  0  0  0  0  0  0  0  0  0  0  0
  -18.2251   10.4298  -18.1038 C   0  0  0  0  0  0  0  0  0  0  0  0
  -19.0232   11.5008  -17.8961 C   0  0  0  0  0  0  0  0  0  0  0  0
  -20.1002   11.4986  -16.9998 C   0  0  0  0  0  0  0  0  0  0  0  0
  -20.3760   10.3613  -16.2866 C   0  0  0  0  0  0  0  0  0  0  0  0
  -21.3996   10.2861  -15.4036 F   0  0  0  0  0  0  0  0  0  0  0  0
  -19.5638    9.2507  -16.4891 C   0  0  0  0  0  0  0  0  0  0  0  0
  -18.5188    9.2703  -17.3661 C   0  0  0  0  0  0  0  0  0  0  0  0
  1  2  2  0  0  0
  2  3  1  0  0  0
  3  4  2  0  0  0
  4  5  1  0  0  0
  5  6  2  0  0  0
  6  7  1  0  0  0
  7  8  2  0  0  0
  8  9  1  0  0  0
  8 10  1  0  0  0
 10 11  2  0  0  0
  2 12  1  0  0  0
 12 13  2  0  0  0
 13 14  1  0  0  0
 14 15  2  0  0  0
 15 16  1  0  0  0
 16 17  2  0  0  0
 17 18  1  0  0  0
 17 19  1  0  0  0
 19 20  2  0  0  0
 11  5  1  0  0  0
 20 14  1  0  0  0
M  END
> <minimizedAffinity>
-8.48571

> <CNNscore>
0.8324176073

> <CNNaffinity>
5.6725831032

> <CNN_VS>
4.7219581604

> <CNNaffinity_variance>
0.3327374756

$$$$
[H]/C(C(=O)/C([H])=C(\[H])c1c([H])c([H])c(F)c([H])c1[H])=C(/[H])c1c([H])c([H])c(F)c([H])c1[H]


 20 21  0  0  0  0  0  0  0  0999 V2000
  -15.2928    9.9161  -21.2250 O   0  0  0  0  0  0  0  0  0  0  0  0
  -16.1541   10.9224  -21.2696 C   0  0  0  0  0  0  0  0  0  0  0  0
  -17.0969   10.8789  -20.2206 C   0  0  0  0  0  0  0  0  0  0  0  0
  -17.1188   10.2838  -19.0678 C   0  0  0  0  0  0  0  0  0  0  0  0
  -18.2408   10.3856  -18.1114 C   0  0  0  0  0  0  0  0  0  0  0  0
  -18.5428    9.2513  -17.3459 C   0  0  0  0  0  0  0  0  0  0  0  0
  -19.5619    9.2341  -16.4291 C   0  0  0  0  0  0  0  0  0  0  0  0
  -20.3117   10.3588  -16.2519 C   0  0  0  0  0  0  0  0  0  0  0  0
  -21.3296   10.3493  -15.3395 F   0  0  0  0  0  0  0  0  0  0  0  0
  -20.0228   11.4817  -17.0005 C   0  0  0  0  0  0  0  0  0  0  0  0
  -18.9860   11.4915  -17.9300 C   0  0  0  0  0  0  0  0  0  0  0  0
  -15.9314   11.7966  -22.3457 C   0  0  0  0  0  0  0  0  0  0  0  0
  -16.7207   12.6651  -22.8956 C   0  0  0  0  0  0  0  0  0  0  0  0
  -16.2776   13.4896  -24.0303 C   0  0  0  0  0  0  0  0  0  0  0  0
  -17.0371   13.8418  -25.0915 C   0  0  0  0  0  0  0  0  0  0  0  0
  -16.5666   14.6310  -26.1494 C   0  0  0  0  0  0  0  0  0  0  0  0
  -15.2719   15.0796  -26.1264 C   0  0  0  0  0  0  0  0  0  0  0  0
  -14.7493   15.8455  -27.1130 F   0  0  0  0  0  0  0  0  0  0  0  0
  -14.4776   14.7257  -25.0411 C   0  0  0  0  0  0  0  0  0  0  0  0
  -14.9520   13.9562  -24.0192 C   0  0  0  0  0  0  0  0  0  0  0  0
  1  2  2  0  0  0
  2  3  1  0  0  0
  3  4  2  0  0  0
  4  5  1  0  0  0
  5  6  2  0  0  0
  6  7  1  0  0  0
  7  8  2  0  0  0
  8  9  1  0  0  0
  8 10  1  0  0  0
 10 11  2  0  0  0
  2 12  1  0  0  0
 12 13  2  0  0  0
 13 14  1  0  0  0
 14 15  2  0  0  0
 15 16  1  0  0  0
 16 17  2  0  0  0
 17 18  1  0  0  0
 17 19  1  0  0  0
 19 20  2  0  0  0
 11  5  1  0  0  0
 20 14  1  0  0  0
M  END
> <minimizedAffinity>
-8.47121

> <CNNscore>
0.8312659860

> <CNNaffinity>
5.6889519691

> <CNN_VS>
4.7290320396

> <CNNaffinity_variance>
0.3239793181

$$$$
[H]/C(C(=O)/C([H])=C(\[H])c1c([H])c([H])c(F)c([H])c1[H])=C(/[H])c1c([H])c([H])c(F)c([H])c1[H]


 20 21  0  0  0  0  0  0  0  0999 V2000
  -15.2679    9.8918  -21.2032 O   0  0  0  0  0  0  0  0  0  0  0  0
  -16.1335   10.8938  -21.2582 C   0  0  0  0  0  0  0  0  0  0  0  0
  -15.8497   11.8019  -22.3003 C   0  0  0  0  0  0  0  0  0  0  0  0
  -16.5689   12.6653  -22.9489 C   0  0  0  0  0  0  0  0  0  0  0  0
  -16.0434   13.5280  -24.0276 C   0  0  0  0  0  0  0  0  0  0  0  0
  -16.9209   13.8744  -25.0638 C   0  0  0  0  0  0  0  0  0  0  0  0
  -16.5398   14.6689  -26.1140 C   0  0  0  0  0  0  0  0  0  0  0  0
  -15.2618   15.1417  -26.1564 C   0  0  0  0  0  0  0  0  0  0  0  0
  -14.8744   15.9345  -27.2005 F   0  0  0  0  0  0  0  0  0  0  0  0
  -14.3892   14.8067  -25.1410 C   0  0  0  0  0  0  0  0  0  0  0  0
  -14.7837   13.9991  -24.0775 C   0  0  0  0  0  0  0  0  0  0  0  0
  -17.1297   10.8218  -20.2711 C   0  0  0  0  0  0  0  0  0  0  0  0
  -17.0636   11.0502  -18.9971 C   0  0  0  0  0  0  0  0  0  0  0  0
  -18.2466   10.9130  -18.1338 C   0  0  0  0  0  0  0  0  0  0  0  0
  -18.6142    9.7919  -17.4743 C   0  0  0  0  0  0  0  0  0  0  0  0
  -19.7534    9.7125  -16.6622 C   0  0  0  0  0  0  0  0  0  0  0  0
  -20.5499   10.8180  -16.5154 C   0  0  0  0  0  0  0  0  0  0  0  0
  -21.6650   10.8149  -15.7475 F   0  0  0  0  0  0  0  0  0  0  0  0
  -20.1851   11.9795  -17.1877 C   0  0  0  0  0  0  0  0  0  0  0  0
  -19.0722   12.0393  -17.9747 C   0  0  0  0  0  0  0  0  0  0  0  0
  1  2  2  0  0  0
  2  3  1  0  0  0
  3  4  2  0  0  0
  4  5  1  0  0  0
  5  6  2  0  0  0
  6  7  1  0  0  0
  7  8  2  0  0  0
  8  9  1  0  0  0
  8 10  1  0  0  0
 10 11  2  0  0  0
  2 12  1  0  0  0
 12 13  2  0  0  0
 13 14  1  0  0  0
 14 15  2  0  0  0
 15 16  1  0  0  0
 16 17  2  0  0  0
 17 18  1  0  0  0
 17 19  1  0  0  0
 19 20  2  0  0  0
 11  5  1  0  0  0
 20 14  1  0  0  0
M  END
> <minimizedAffinity>
-8.35494

> <CNNscore>
0.8165941238

> <CNNaffinity>
5.6500492096

> <CNN_VS>
4.6137971878

> <CNNaffinity_variance>
0.2366043031

$$$$
[H]/C(C(=O)/C([H])=C(\[H])c1c([H])c([H])c(F)c([H])c1[H])=C(/[H])c1c([H])c([H])c(F)c([H])c1[H]


 20 21  0  0  0  0  0  0  0  0999 V2000
  -15.2794    9.9123  -20.9687 O   0  0  0  0  0  0  0  0  0  0  0  0
  -16.3550   10.6777  -20.8521 C   0  0  0  0  0  0  0  0  0  0  0  0
  -16.4234   11.6760  -21.8471 C   0  0  0  0  0  0  0  0  0  0  0  0
  -15.6172   12.0449  -22.7945 C   0  0  0  0  0  0  0  0  0  0  0  0
  -15.9074   13.1434  -23.7394 C   0  0  0  0  0  0  0  0  0  0  0  0
  -14.8350   13.9515  -24.1405 C   0  0  0  0  0  0  0  0  0  0  0  0
  -14.9900   14.9977  -25.0127 C   0  0  0  0  0  0  0  0  0  0  0  0
  -16.2304   15.2658  -25.5109 C   0  0  0  0  0  0  0  0  0  0  0  0
  -16.3928   16.3075  -26.3812 F   0  0  0  0  0  0  0  0  0  0  0  0
  -17.2937   14.4762  -25.1227 C   0  0  0  0  0  0  0  0  0  0  0  0
  -17.1284   13.4152  -24.2362 C   0  0  0  0  0  0  0  0  0  0  0  0
  -17.1757   10.3209  -19.7700 C   0  0  0  0  0  0  0  0  0  0  0  0
  -17.8141   11.0653  -18.9227 C   0  0  0  0  0  0  0  0  0  0  0  0
  -18.6290   10.4754  -17.8495 C   0  0  0  0  0  0  0  0  0  0  0  0
  -18.4989    9.2219  -17.3608 C   0  0  0  0  0  0  0  0  0  0  0  0
  -19.3023    8.7061  -16.3351 C   0  0  0  0  0  0  0  0  0  0  0  0
  -20.2765    9.4974  -15.7849 C   0  0  0  0  0  0  0  0  0  0  0  0
  -21.0895    9.0666  -14.7917 F   0  0  0  0  0  0  0  0  0  0  0  0
  -20.4229   10.7899  -16.2770 C   0  0  0  0  0  0  0  0  0  0  0  0
  -19.6318   11.2762  -17.2766 C   0  0  0  0  0  0  0  0  0  0  0  0
  1  2  2  0  0  0
  2  3  1  0  0  0
  3  4  2  0  0  0
  4  5  1  0  0  0
  5  6  2  0  0  0
  6  7  1  0  0  0
  7  8  2  0  0  0
  8  9  1  0  0  0
  8 10  1  0  0  0
 10 11  2  0  0  0
  2 12  1  0  0  0
 12 13  2  0  0  0
 13 14  1  0  0  0
 14 15  2  0  0  0
 15 16  1  0  0  0
 16 17  2  0  0  0
 17 18  1  0  0  0
 17 19  1  0  0  0
 19 20  2  0  0  0
 11  5  1  0  0  0
 20 14  1  0  0  0
M  END
> <minimizedAffinity>
-8.24593

> <CNNscore>
0.7832825184

> <CNNaffinity>
5.6139373779

> <CNN_VS>
4.3972988129

> <CNNaffinity_variance>
0.2311288118

$$$$
[H]/C(C(=O)/C([H])=C(\[H])c1c([H])c([H])c(F)c([H])c1[H])=C(/[H])c1c([H])c([H])c(F)c([H])c1[H]


 20 21  0  0  0  0  0  0  0  0999 V2000
  -15.3177    9.8280  -20.8381 O   0  0  0  0  0  0  0  0  0  0  0  0
  -16.3327   10.6778  -20.7733 C   0  0  0  0  0  0  0  0  0  0  0  0
  -17.2101   10.3973  -19.7043 C   0  0  0  0  0  0  0  0  0  0  0  0
  -17.8312   11.1434  -18.8435 C   0  0  0  0  0  0  0  0  0  0  0  0
  -18.7199   10.6150  -17.7876 C   0  0  0  0  0  0  0  0  0  0  0  0
  -18.5442    9.2787  -17.4038 C   0  0  0  0  0  0  0  0  0  0  0  0
  -19.3122    8.6859  -16.4352 C   0  0  0  0  0  0  0  0  0  0  0  0
  -20.2833    9.4187  -15.8200 C   0  0  0  0  0  0  0  0  0  0  0  0
  -21.0532    8.8345  -14.8532 F   0  0  0  0  0  0  0  0  0  0  0  0
  -20.4649   10.7358  -16.1902 C   0  0  0  0  0  0  0  0  0  0  0  0
  -19.6808   11.3310  -17.1751 C   0  0  0  0  0  0  0  0  0  0  0  0
  -16.3017   11.6575  -21.7788 C   0  0  0  0  0  0  0  0  0  0  0  0
  -17.2088   12.5060  -22.1488 C   0  0  0  0  0  0  0  0  0  0  0  0
  -16.9633   13.4587  -23.2422 C   0  0  0  0  0  0  0  0  0  0  0  0
  -15.8705   13.4801  -24.0374 C   0  0  0  0  0  0  0  0  0  0  0  0
  -15.6838   14.4109  -25.0680 C   0  0  0  0  0  0  0  0  0  0  0  0
  -16.6475   15.3576  -25.2985 C   0  0  0  0  0  0  0  0  0  0  0  0
  -16.5350   16.2878  -26.2758 F   0  0  0  0  0  0  0  0  0  0  0  0
  -17.7781   15.3488  -24.4887 C   0  0  0  0  0  0  0  0  0  0  0  0
  -17.9437   14.4349  -23.4893 C   0  0  0  0  0  0  0  0  0  0  0  0
  1  2  2  0  0  0
  2  3  1  0  0  0
  3  4  2  0  0  0
  4  5  1  0  0  0
  5  6  2  0  0  0
  6  7  1  0  0  0
  7  8  2  0  0  0
  8  9  1  0  0  0
  8 10  1  0  0  0
 10 11  2  0  0  0
  2 12  1  0  0  0
 12 13  2  0  0  0
 13 14  1  0  0  0
 14 15  2  0  0  0
 15 16  1  0  0  0
 16 17  2  0  0  0
 17 18  1  0  0  0
 17 19  1  0  0  0
 19 20  2  0  0  0
 11  5  1  0  0  0
 20 14  1  0  0  0
M  END
> <minimizedAffinity>
-8.04596

> <CNNscore>
0.7566145062

> <CNNaffinity>
5.6461668015

> <CNN_VS>
4.2719717026

> <CNNaffinity_variance>
0.1846690923

$$$$
[H]/C(C(=O)/C([H])=C(\[H])c1c([H])c([H])c(F)c([H])c1[H])=C(/[H])c1c([H])c([H])c(F)c([H])c1[H]


 20 21  0  0  0  0  0  0  0  0999 V2000
  -15.3514    9.8898  -20.8202 O   0  0  0  0  0  0  0  0  0  0  0  0
  -16.4175   10.6760  -20.7774 C   0  0  0  0  0  0  0  0  0  0  0  0
  -16.4202   11.6458  -21.8024 C   0  0  0  0  0  0  0  0  0  0  0  0
  -17.1651   12.6795  -22.0476 C   0  0  0  0  0  0  0  0  0  0  0  0
  -16.9757   13.5720  -23.2101 C   0  0  0  0  0  0  0  0  0  0  0  0
  -16.9078   14.9497  -22.9632 C   0  0  0  0  0  0  0  0  0  0  0  0
  -16.7342   15.8678  -23.9664 C   0  0  0  0  0  0  0  0  0  0  0  0
  -16.6229   15.4297  -25.2525 C   0  0  0  0  0  0  0  0  0  0  0  0
  -16.4496   16.3392  -26.2583 F   0  0  0  0  0  0  0  0  0  0  0  0
  -16.6883   14.0748  -25.5071 C   0  0  0  0  0  0  0  0  0  0  0  0
  -16.8650   13.1482  -24.4828 C   0  0  0  0  0  0  0  0  0  0  0  0
  -17.2952   10.3645  -19.7265 C   0  0  0  0  0  0  0  0  0  0  0  0
  -17.7777   11.1171  -18.7882 C   0  0  0  0  0  0  0  0  0  0  0  0
  -18.6954   10.5784  -17.7726 C   0  0  0  0  0  0  0  0  0  0  0  0
  -19.7390   11.2398  -17.2245 C   0  0  0  0  0  0  0  0  0  0  0  0
  -20.5856   10.6805  -16.2580 C   0  0  0  0  0  0  0  0  0  0  0  0
  -20.3612    9.3973  -15.8325 C   0  0  0  0  0  0  0  0  0  0  0  0
  -21.1373    8.7926  -14.9025 F   0  0  0  0  0  0  0  0  0  0  0  0
  -19.2911    8.7034  -16.3871 C   0  0  0  0  0  0  0  0  0  0  0  0
  -18.4765    9.2634  -17.3275 C   0  0  0  0  0  0  0  0  0  0  0  0
  1  2  2  0  0  0
  2  3  1  0  0  0
  3  4  2  0  0  0
  4  5  1  0  0  0
  5  6  2  0  0  0
  6  7  1  0  0  0
  7  8  2  0  0  0
  8  9  1  0  0  0
  8 10  1  0  0  0
 10 11  2  0  0  0
  2 12  1  0  0  0
 12 13  2  0  0  0
 13 14  1  0  0  0
 14 15  2  0  0  0
 15 16  1  0  0  0
 16 17  2  0  0  0
 17 18  1  0  0  0
 17 19  1  0  0  0
 19 20  2  0  0  0
 11  5  1  0  0  0
 20 14  1  0  0  0
M  END
> <minimizedAffinity>
-7.89746

> <CNNscore>
0.7549258471

> <CNNaffinity>
5.5771751404

> <CNN_VS>
4.2103538513

> <CNNaffinity_variance>
0.2641866207

$$$$
[H]/C(C(=O)/C([H])=C(\[H])c1c([H])c([H])c(F)c([H])c1[H])=C(/[H])c1c([H])c([H])c(F)c([H])c1[H]


 20 21  0  0  0  0  0  0  0  0999 V2000
  -15.0744   10.7345  -21.8156 O   0  0  0  0  0  0  0  0  0  0  0  0
  -16.1185   11.5432  -21.9267 C   0  0  0  0  0  0  0  0  0  0  0  0
  -17.0036   11.4431  -20.8323 C   0  0  0  0  0  0  0  0  0  0  0  0
  -16.8938   10.9379  -19.6422 C   0  0  0  0  0  0  0  0  0  0  0  0
  -17.9808   10.9488  -18.6411 C   0  0  0  0  0  0  0  0  0  0  0  0
  -18.2112    9.7671  -17.9240 C   0  0  0  0  0  0  0  0  0  0  0  0
  -19.1926    9.6651  -16.9723 C   0  0  0  0  0  0  0  0  0  0  0  0
  -19.9756   10.7500  -16.7103 C   0  0  0  0  0  0  0  0  0  0  0  0
  -20.9563   10.6561  -15.7626 F   0  0  0  0  0  0  0  0  0  0  0  0
  -19.7572   11.9191  -17.4106 C   0  0  0  0  0  0  0  0  0  0  0  0
  -18.7583   12.0149  -18.3760 C   0  0  0  0  0  0  0  0  0  0  0  0
  -16.1040   12.3102  -23.1029 C   0  0  0  0  0  0  0  0  0  0  0  0
  -15.3840   13.3394  -23.4220 C   0  0  0  0  0  0  0  0  0  0  0  0
  -15.5331   14.0012  -24.7272 C   0  0  0  0  0  0  0  0  0  0  0  0
  -16.5791   13.8527  -25.5703 C   0  0  0  0  0  0  0  0  0  0  0  0
  -16.6738   14.5072  -26.8056 C   0  0  0  0  0  0  0  0  0  0  0  0
  -15.6640   15.3462  -27.1985 C   0  0  0  0  0  0  0  0  0  0  0  0
  -15.6875   16.0114  -28.3775 F   0  0  0  0  0  0  0  0  0  0  0  0
  -14.5806   15.5096  -26.3420 C   0  0  0  0  0  0  0  0  0  0  0  0
  -14.5045   14.8643  -25.1422 C   0  0  0  0  0  0  0  0  0  0  0  0
  1  2  2  0  0  0
  2  3  1  0  0  0
  3  4  2  0  0  0
  4  5  1  0  0  0
  5  6  2  0  0  0
  6  7  1  0  0  0
  7  8  2  0  0  0
  8  9  1  0  0  0
  8 10  1  0  0  0
 10 11  2  0  0  0
  2 12  1  0  0  0
 12 13  2  0  0  0
 13 14  1  0  0  0
 14 15  2  0  0  0
 15 16  1  0  0  0
 16 17  2  0  0  0
 17 18  1  0  0  0
 17 19  1  0  0  0
 19 20  2  0  0  0
 11  5  1  0  0  0
 20 14  1  0  0  0
M  END
> <minimizedAffinity>
-8.39531

> <CNNscore>
0.7538718581

> <CNNaffinity>
5.5080041885

> <CNN_VS>
4.1523294449

> <CNNaffinity_variance>
0.4102078974

$$$$
[H]/C(C(=O)/C([H])=C(\[H])c1c([H])c([H])c(F)c([H])c1[H])=C(/[H])c1c([H])c([H])c(F)c([H])c1[H]


 20 21  0  0  0  0  0  0  0  0999 V2000
  -15.9209   11.1187  -21.8716 O   0  0  0  0  0  0  0  0  0  0  0  0
  -16.7596   12.1289  -22.0517 C   0  0  0  0  0  0  0  0  0  0  0  0
  -16.5622   12.7873  -23.2841 C   0  0  0  0  0  0  0  0  0  0  0  0
  -15.8850   13.8373  -23.6338 C   0  0  0  0  0  0  0  0  0  0  0  0
  -15.8242   14.3532  -25.0173 C   0  0  0  0  0  0  0  0  0  0  0  0
  -14.7483   15.1874  -25.3495 C   0  0  0  0  0  0  0  0  0  0  0  0
  -14.5930   15.7216  -26.6025 C   0  0  0  0  0  0  0  0  0  0  0  0
  -15.5159   15.4338  -27.5637 C   0  0  0  0  0  0  0  0  0  0  0  0
  -15.3678   15.9628  -28.8155 F   0  0  0  0  0  0  0  0  0  0  0  0
  -16.5795   14.6131  -27.2473 C   0  0  0  0  0  0  0  0  0  0  0  0
  -16.7305   14.0743  -25.9723 C   0  0  0  0  0  0  0  0  0  0  0  0
  -17.6478   12.3111  -20.9795 C   0  0  0  0  0  0  0  0  0  0  0  0
  -17.7280   11.6907  -19.8444 C   0  0  0  0  0  0  0  0  0  0  0  0
  -18.7508   12.0473  -18.8493 C   0  0  0  0  0  0  0  0  0  0  0  0
  -19.0112   11.3683  -17.7099 C   0  0  0  0  0  0  0  0  0  0  0  0
  -19.9989   11.7502  -16.7923 C   0  0  0  0  0  0  0  0  0  0  0  0
  -20.7513   12.8675  -17.0441 C   0  0  0  0  0  0  0  0  0  0  0  0
  -21.7221   13.2961  -16.2033 F   0  0  0  0  0  0  0  0  0  0  0  0
  -20.4955   13.5772  -18.2125 C   0  0  0  0  0  0  0  0  0  0  0  0
  -19.5296   13.1910  -19.0954 C   0  0  0  0  0  0  0  0  0  0  0  0
  1  2  2  0  0  0
  2  3  1  0  0  0
  3  4  2  0  0  0
  4  5  1  0  0  0
  5  6  2  0  0  0
  6  7  1  0  0  0
  7  8  2  0  0  0
  8  9  1  0  0  0
  8 10  1  0  0  0
 10 11  2  0  0  0
  2 12  1  0  0  0
 12 13  2  0  0  0
 13 14  1  0  0  0
 14 15  2  0  0  0
 15 16  1  0  0  0
 16 17  2  0  0  0
 17 18  1  0  0  0
 17 19  1  0  0  0
 19 20  2  0  0  0
 11  5  1  0  0  0
 20 14  1  0  0  0
M  END
> <minimizedAffinity>
-7.93737

> <CNNscore>
0.6531878114

> <CNNaffinity>
5.5300035477

> <CNN_VS>
3.6121308804

> <CNNaffinity_variance>
0.2297961265

$$$$
[H]Oc1c([H])c([H])c(N([H])c2nc([H])c(F)c(N([H])c3c([H])c([H])c(C(=O)N([H])[H])c([H])c3[H])n2)c([H])c1[H]


 30 32  0  0  0  0  0  0  0  0999 V2000
  -17.0591   12.0342  -21.3855 C   0  0  0  0  0  0  0  0  0  0  0  0
  -17.4825   11.4957  -20.2540 N   0  0  0  0  0  0  0  0  0  0  0  0
  -16.8717   10.4104  -19.6964 C   0  0  0  0  0  0  0  0  0  0  0  0
  -15.8125    9.8989  -20.3415 N   0  0  0  0  0  0  0  0  0  0  0  0
  -15.3336   10.3873  -21.4794 C   0  0  0  0  0  0  0  0  0  0  0  0
  -15.9455   11.4824  -22.0471 C   0  0  0  0  0  0  0  0  0  0  0  0
  -15.5057   12.0216  -23.1978 F   0  0  0  0  0  0  0  0  0  0  0  0
  -17.6808   13.1473  -22.0072 N   0  0  0  0  0  0  0  0  0  0  0  0
  -18.1243   12.9799  -22.9593 H   0  0  0  0  0  0  0  0  0  0  0  0
  -18.1031   17.0368  -20.4396 C   0  0  0  0  0  0  0  0  0  0  0  0
  -16.9476   16.6359  -21.0242 C   0  0  0  0  0  0  0  0  0  0  0  0
  -16.7729   15.3564  -21.5632 C   0  0  0  0  0  0  0  0  0  0  0  0
  -17.7803   14.4617  -21.5129 C   0  0  0  0  0  0  0  0  0  0  0  0
  -18.9939   14.8546  -20.9097 C   0  0  0  0  0  0  0  0  0  0  0  0
  -19.1405   16.1096  -20.3906 C   0  0  0  0  0  0  0  0  0  0  0  0
  -18.5747   18.5233  -18.5091 N   0  0  0  0  0  0  0  0  0  0  0  0
  -18.2908   18.3686  -19.8761 C   0  0  0  0  0  0  0  0  0  0  0  0
  -18.1980   19.3692  -20.6137 O   0  0  0  0  0  0  0  0  0  0  0  0
  -19.5593   18.6237  -18.1977 H   0  0  0  0  0  0  0  0  0  0  0  0
  -17.8262   18.5407  -17.7937 H   0  0  0  0  0  0  0  0  0  0  0  0
  -17.4050    9.8848  -18.5067 N   0  0  0  0  0  0  0  0  0  0  0  0
  -16.9393    9.0192  -18.1029 H   0  0  0  0  0  0  0  0  0  0  0  0
  -18.4981   10.4136  -17.8173 C   0  0  0  0  0  0  0  0  0  0  0  0
  -19.3022    9.7027  -16.9762 C   0  0  0  0  0  0  0  0  0  0  0  0
  -20.4154   10.2740  -16.3218 C   0  0  0  0  0  0  0  0  0  0  0  0
  -20.7107   11.5990  -16.5315 C   0  0  0  0  0  0  0  0  0  0  0  0
  -21.8073   12.1714  -15.8901 O   0  0  0  0  0  0  0  0  0  0  0  0
  -19.9212   12.3574  -17.3757 C   0  0  0  0  0  0  0  0  0  0  0  0
  -18.8504   11.7714  -17.9940 C   0  0  0  0  0  0  0  0  0  0  0  0
  -22.6924   12.1291  -16.3811 H   0  0  0  0  0  0  0  0  0  0  0  0
 16 17  1  0  0  0
 17 18  2  0  0  0
 17 10  1  0  0  0
 10 11  2  0  0  0
 11 12  1  0  0  0
 12 13  2  0  0  0
 13  8  1  0  0  0
  8  1  1  0  0  0
  1  2  2  0  0  0
  2  3  1  0  0  0
  3 21  1  0  0  0
 21 23  1  0  0  0
 23 24  2  0  0  0
 24 25  1  0  0  0
 25 26  2  0  0  0
 26 27  1  0  0  0
 26 28  1  0  0  0
 28 29  2  0  0  0
  3  4  2  0  0  0
  4  5  1  0  0  0
  5  6  2  0  0  0
  6  7  1  0  0  0
 13 14  1  0  0  0
 14 15  2  0  0  0
 15 10  1  0  0  0
  6  1  1  0  0  0
 29 23  1  0  0  0
 16 19  1  0  0  0
 16 20  1  0  0  0
  8  9  1  0  0  0
 21 22  1  0  0  0
 27 30  1  0  0  0
M  END
> <minimizedAffinity>
-8.11090

> <CNNscore>
0.8354721069

> <CNNaffinity>
6.8267850876

> <CNN_VS>
5.7035884857

> <CNNaffinity_variance>
0.1436489969

$$$$
[H]Oc1c([H])c([H])c(N([H])c2nc([H])c(F)c(N([H])c3c([H])c([H])c(C(=O)N([H])[H])c([H])c3[H])n2)c([H])c1[H]


 30 32  0  0  0  0  0  0  0  0999 V2000
  -17.2197   12.1729  -20.5975 C   0  0  0  0  0  0  0  0  0  0  0  0
  -17.5578   11.5366  -19.4881 N   0  0  0  0  0  0  0  0  0  0  0  0
  -17.1002   10.2826  -19.2055 C   0  0  0  0  0  0  0  0  0  0  0  0
  -16.2847    9.7065  -20.1014 N   0  0  0  0  0  0  0  0  0  0  0  0
  -15.9043   10.2853  -21.2341 C   0  0  0  0  0  0  0  0  0  0  0  0
  -16.3625   11.5507  -21.5250 C   0  0  0  0  0  0  0  0  0  0  0  0
  -16.0115   12.1879  -22.6560 F   0  0  0  0  0  0  0  0  0  0  0  0
  -17.6924   13.4665  -20.9367 N   0  0  0  0  0  0  0  0  0  0  0  0
  -17.2292   13.9449  -21.7661 H   0  0  0  0  0  0  0  0  0  0  0  0
  -20.8271   15.5427  -19.0323 C   0  0  0  0  0  0  0  0  0  0  0  0
  -19.5534   16.0056  -18.9967 C   0  0  0  0  0  0  0  0  0  0  0  0
  -18.4886   15.3490  -19.6237 C   0  0  0  0  0  0  0  0  0  0  0  0
  -18.7088   14.2034  -20.2998 C   0  0  0  0  0  0  0  0  0  0  0  0
  -20.0262   13.7007  -20.3521 C   0  0  0  0  0  0  0  0  0  0  0  0
  -21.0495   14.3599  -19.7321 C   0  0  0  0  0  0  0  0  0  0  0  0
  -22.3708   15.8123  -17.1080 N   0  0  0  0  0  0  0  0  0  0  0  0
  -21.9404   16.2226  -18.3807 C   0  0  0  0  0  0  0  0  0  0  0  0
  -22.5084   17.1697  -18.9587 O   0  0  0  0  0  0  0  0  0  0  0  0
  -23.1676   15.1531  -17.0236 H   0  0  0  0  0  0  0  0  0  0  0  0
  -21.9147   16.1492  -16.2416 H   0  0  0  0  0  0  0  0  0  0  0  0
  -17.5325    9.6687  -18.0171 N   0  0  0  0  0  0  0  0  0  0  0  0
  -16.9009    8.9271  -17.5924 H   0  0  0  0  0  0  0  0  0  0  0  0
  -18.7266    9.9596  -17.3543 C   0  0  0  0  0  0  0  0  0  0  0  0
  -19.4184    9.0763  -16.5793 C   0  0  0  0  0  0  0  0  0  0  0  0
  -20.6387    9.4071  -15.9505 C   0  0  0  0  0  0  0  0  0  0  0  0
  -21.1605   10.6667  -16.1175 C   0  0  0  0  0  0  0  0  0  0  0  0
  -22.3643   11.0022  -15.5010 O   0  0  0  0  0  0  0  0  0  0  0  0
  -20.4915   11.5941  -16.8942 C   0  0  0  0  0  0  0  0  0  0  0  0
  -19.3115   11.2396  -17.4894 C   0  0  0  0  0  0  0  0  0  0  0  0
  -23.2094   10.8265  -16.0312 H   0  0  0  0  0  0  0  0  0  0  0  0
 16 17  1  0  0  0
 17 18  2  0  0  0
 17 10  1  0  0  0
 10 11  2  0  0  0
 11 12  1  0  0  0
 12 13  2  0  0  0
 13  8  1  0  0  0
  8  1  1  0  0  0
  1  2  2  0  0  0
  2  3  1  0  0  0
  3 21  1  0  0  0
 21 23  1  0  0  0
 23 24  2  0  0  0
 24 25  1  0  0  0
 25 26  2  0  0  0
 26 27  1  0  0  0
 26 28  1  0  0  0
 28 29  2  0  0  0
  3  4  2  0  0  0
  4  5  1  0  0  0
  5  6  2  0  0  0
  6  7  1  0  0  0
 13 14  1  0  0  0
 14 15  2  0  0  0
 15 10  1  0  0  0
  6  1  1  0  0  0
 29 23  1  0  0  0
 16 19  1  0  0  0
 16 20  1  0  0  0
  8  9  1  0  0  0
 21 22  1  0  0  0
 27 30  1  0  0  0
M  END
> <minimizedAffinity>
-7.39155

> <CNNscore>
0.8271525502

> <CNNaffinity>
6.5040941238

> <CNN_VS>
5.3798780441

> <CNNaffinity_variance>
0.0769391432

$$$$
[H]Oc1c([H])c([H])c(N([H])c2nc([H])c(F)c(N([H])c3c([H])c([H])c(C(=O)N([H])[H])c([H])c3[H])n2)c([H])c1[H]


 30 32  0  0  0  0  0  0  0  0999 V2000
  -17.9878   12.3739  -20.4444 C   0  0  0  0  0  0  0  0  0  0  0  0
  -17.2813   12.5498  -21.5487 N   0  0  0  0  0  0  0  0  0  0  0  0
  -16.2842   11.6927  -21.9136 C   0  0  0  0  0  0  0  0  0  0  0  0
  -16.0392   10.6506  -21.1052 N   0  0  0  0  0  0  0  0  0  0  0  0
  -16.7076   10.4125  -19.9830 C   0  0  0  0  0  0  0  0  0  0  0  0
  -17.7150   11.2737  -19.6094 C   0  0  0  0  0  0  0  0  0  0  0  0
  -18.4269   11.0842  -18.4844 F   0  0  0  0  0  0  0  0  0  0  0  0
  -19.0158   13.2545  -20.0204 N   0  0  0  0  0  0  0  0  0  0  0  0
  -19.9838   12.8342  -19.8878 H   0  0  0  0  0  0  0  0  0  0  0  0
  -18.8091   17.4079  -19.3346 C   0  0  0  0  0  0  0  0  0  0  0  0
  -18.3385   16.5206  -18.4241 C   0  0  0  0  0  0  0  0  0  0  0  0
  -18.3819   15.1357  -18.6201 C   0  0  0  0  0  0  0  0  0  0  0  0
  -18.9098   14.6328  -19.7543 C   0  0  0  0  0  0  0  0  0  0  0  0
  -19.4062   15.5356  -20.7183 C   0  0  0  0  0  0  0  0  0  0  0  0
  -19.3525   16.8838  -20.5043 C   0  0  0  0  0  0  0  0  0  0  0  0
  -18.3253   19.6943  -20.1695 N   0  0  0  0  0  0  0  0  0  0  0  0
  -18.7667   18.8518  -19.1357 C   0  0  0  0  0  0  0  0  0  0  0  0
  -19.1239   19.3349  -18.0436 O   0  0  0  0  0  0  0  0  0  0  0  0
  -17.3370   20.0098  -20.1877 H   0  0  0  0  0  0  0  0  0  0  0  0
  -18.9600   20.0146  -20.9224 H   0  0  0  0  0  0  0  0  0  0  0  0
  -15.5645   11.9708  -23.0887 N   0  0  0  0  0  0  0  0  0  0  0  0
  -14.8212   11.2711  -23.3838 H   0  0  0  0  0  0  0  0  0  0  0  0
  -15.7528   13.0948  -23.8956 C   0  0  0  0  0  0  0  0  0  0  0  0
  -16.7644   13.2409  -24.7981 C   0  0  0  0  0  0  0  0  0  0  0  0
  -16.8986   14.3855  -25.6141 C   0  0  0  0  0  0  0  0  0  0  0  0
  -15.9800   15.4008  -25.5034 C   0  0  0  0  0  0  0  0  0  0  0  0
  -16.1042   16.5340  -26.3045 O   0  0  0  0  0  0  0  0  0  0  0  0
  -14.9388   15.2946  -24.6002 C   0  0  0  0  0  0  0  0  0  0  0  0
  -14.8388   14.1712  -23.8256 C   0  0  0  0  0  0  0  0  0  0  0  0
  -15.6331   16.5092  -27.2010 H   0  0  0  0  0  0  0  0  0  0  0  0
 16 17  1  0  0  0
 17 18  2  0  0  0
 17 10  1  0  0  0
 10 11  2  0  0  0
 11 12  1  0  0  0
 12 13  2  0  0  0
 13  8  1  0  0  0
  8  1  1  0  0  0
  1  2  2  0  0  0
  2  3  1  0  0  0
  3 21  1  0  0  0
 21 23  1  0  0  0
 23 24  2  0  0  0
 24 25  1  0  0  0
 25 26  2  0  0  0
 26 27  1  0  0  0
 26 28  1  0  0  0
 28 29  2  0  0  0
  3  4  2  0  0  0
  4  5  1  0  0  0
  5  6  2  0  0  0
  6  7  1  0  0  0
 13 14  1  0  0  0
 14 15  2  0  0  0
 15 10  1  0  0  0
  6  1  1  0  0  0
 29 23  1  0  0  0
 16 19  1  0  0  0
 16 20  1  0  0  0
  8  9  1  0  0  0
 21 22  1  0  0  0
 27 30  1  0  0  0
M  END
> <minimizedAffinity>
-7.72990

> <CNNscore>
0.8266049623

> <CNNaffinity>
7.0603094101

> <CNN_VS>
5.8360867500

> <CNNaffinity_variance>
0.1435375661

$$$$
[H]Oc1c([H])c([H])c(N([H])c2nc([H])c(F)c(N([H])c3c([H])c([H])c(C(=O)N([H])[H])c([H])c3[H])n2)c([H])c1[H]


 30 32  0  0  0  0  0  0  0  0999 V2000
  -17.6654   12.0391  -20.6329 C   0  0  0  0  0  0  0  0  0  0  0  0
  -17.9442   11.4634  -19.4751 N   0  0  0  0  0  0  0  0  0  0  0  0
  -17.2875   10.3469  -19.0458 C   0  0  0  0  0  0  0  0  0  0  0  0
  -16.3361    9.8440  -19.8467 N   0  0  0  0  0  0  0  0  0  0  0  0
  -16.0042   10.3690  -21.0202 C   0  0  0  0  0  0  0  0  0  0  0  0
  -16.6632   11.4956  -21.4589 C   0  0  0  0  0  0  0  0  0  0  0  0
  -16.3706   12.0725  -22.6379 F   0  0  0  0  0  0  0  0  0  0  0  0
  -18.3408   13.1860  -21.1231 N   0  0  0  0  0  0  0  0  0  0  0  0
  -19.3236   13.3585  -20.7550 H   0  0  0  0  0  0  0  0  0  0  0  0
  -16.7892   16.0444  -23.8038 C   0  0  0  0  0  0  0  0  0  0  0  0
  -17.7147   15.1371  -24.2014 C   0  0  0  0  0  0  0  0  0  0  0  0
  -18.2590   14.1791  -23.3387 C   0  0  0  0  0  0  0  0  0  0  0  0
  -17.8642   14.1320  -22.0503 C   0  0  0  0  0  0  0  0  0  0  0  0
  -16.9020   15.0660  -21.6114 C   0  0  0  0  0  0  0  0  0  0  0  0
  -16.3854   15.9922  -22.4725 C   0  0  0  0  0  0  0  0  0  0  0  0
  -14.9659   16.8258  -25.2949 N   0  0  0  0  0  0  0  0  0  0  0  0
  -16.2186   17.0448  -24.6983 C   0  0  0  0  0  0  0  0  0  0  0  0
  -16.8481   18.0952  -24.9308 O   0  0  0  0  0  0  0  0  0  0  0  0
  -14.1129   17.2236  -24.8581 H   0  0  0  0  0  0  0  0  0  0  0  0
  -14.8637   16.2747  -26.1656 H   0  0  0  0  0  0  0  0  0  0  0  0
  -17.6671    9.7836  -17.8151 N   0  0  0  0  0  0  0  0  0  0  0  0
  -16.9658    9.1485  -17.3313 H   0  0  0  0  0  0  0  0  0  0  0  0
  -18.8935    9.9956  -17.1820 C   0  0  0  0  0  0  0  0  0  0  0  0
  -19.6053    9.0337  -16.5283 C   0  0  0  0  0  0  0  0  0  0  0  0
  -20.8570    9.2883  -15.9264 C   0  0  0  0  0  0  0  0  0  0  0  0
  -21.3900   10.5526  -15.9940 C   0  0  0  0  0  0  0  0  0  0  0  0
  -22.6246   10.8133  -15.4031 O   0  0  0  0  0  0  0  0  0  0  0  0
  -20.7015   11.5584  -16.6462 C   0  0  0  0  0  0  0  0  0  0  0  0
  -19.4913   11.2764  -17.2188 C   0  0  0  0  0  0  0  0  0  0  0  0
  -23.4428   10.6810  -15.9856 H   0  0  0  0  0  0  0  0  0  0  0  0
 16 17  1  0  0  0
 17 18  2  0  0  0
 17 10  1  0  0  0
 10 11  2  0  0  0
 11 12  1  0  0  0
 12 13  2  0  0  0
 13  8  1  0  0  0
  8  1  1  0  0  0
  1  2  2  0  0  0
  2  3  1  0  0  0
  3 21  1  0  0  0
 21 23  1  0  0  0
 23 24  2  0  0  0
 24 25  1  0  0  0
 25 26  2  0  0  0
 26 27  1  0  0  0
 26 28  1  0  0  0
 28 29  2  0  0  0
  3  4  2  0  0  0
  4  5  1  0  0  0
  5  6  2  0  0  0
  6  7  1  0  0  0
 13 14  1  0  0  0
 14 15  2  0  0  0
 15 10  1  0  0  0
  6  1  1  0  0  0
 29 23  1  0  0  0
 16 19  1  0  0  0
 16 20  1  0  0  0
  8  9  1  0  0  0
 21 22  1  0  0  0
 27 30  1  0  0  0
M  END
> <minimizedAffinity>
-8.38999

> <CNNscore>
0.7976344824

> <CNNaffinity>
6.8083753586

> <CNN_VS>
5.4305949211

> <CNNaffinity_variance>
0.2161905020

$$$$
[H]Oc1c([H])c([H])c(N([H])c2nc([H])c(F)c(N([H])c3c([H])c([H])c(C(=O)N([H])[H])c([H])c3[H])n2)c([H])c1[H]


 30 32  0  0  0  0  0  0  0  0999 V2000
  -17.5256   11.9074  -21.0366 C   0  0  0  0  0  0  0  0  0  0  0  0
  -17.0366   12.4846  -22.1217 N   0  0  0  0  0  0  0  0  0  0  0  0
  -15.8904   12.0474  -22.7194 C   0  0  0  0  0  0  0  0  0  0  0  0
  -15.2658   10.9983  -22.1637 N   0  0  0  0  0  0  0  0  0  0  0  0
  -15.6989   10.3711  -21.0766 C   0  0  0  0  0  0  0  0  0  0  0  0
  -16.8549   10.8074  -20.4689 C   0  0  0  0  0  0  0  0  0  0  0  0
  -17.3428   10.2121  -19.3662 F   0  0  0  0  0  0  0  0  0  0  0  0
  -18.7006   12.3466  -20.3744 N   0  0  0  0  0  0  0  0  0  0  0  0
  -19.5709   11.7468  -20.4920 H   0  0  0  0  0  0  0  0  0  0  0  0
  -19.0860   15.7106  -17.8646 C   0  0  0  0  0  0  0  0  0  0  0  0
  -19.2843   15.8050  -19.2024 C   0  0  0  0  0  0  0  0  0  0  0  0
  -19.1738   14.7094  -20.0659 C   0  0  0  0  0  0  0  0  0  0  0  0
  -18.8569   13.4944  -19.5745 C   0  0  0  0  0  0  0  0  0  0  0  0
  -18.6458   13.3697  -18.1850 C   0  0  0  0  0  0  0  0  0  0  0  0
  -18.7597   14.4540  -17.3620 C   0  0  0  0  0  0  0  0  0  0  0  0
  -19.4230   16.6412  -15.5889 N   0  0  0  0  0  0  0  0  0  0  0  0
  -19.1997   16.8488  -16.9601 C   0  0  0  0  0  0  0  0  0  0  0  0
  -19.0976   18.0068  -17.4098 O   0  0  0  0  0  0  0  0  0  0  0  0
  -20.3899   16.6812  -15.2147 H   0  0  0  0  0  0  0  0  0  0  0  0
  -18.6467   16.4474  -14.9316 H   0  0  0  0  0  0  0  0  0  0  0  0
  -15.4263   12.7371  -23.8529 N   0  0  0  0  0  0  0  0  0  0  0  0
  -14.7560   12.2228  -24.4974 H   0  0  0  0  0  0  0  0  0  0  0  0
  -15.7793   14.0441  -24.1949 C   0  0  0  0  0  0  0  0  0  0  0  0
  -16.5728   14.3819  -25.2511 C   0  0  0  0  0  0  0  0  0  0  0  0
  -16.8801   15.7213  -25.5759 C   0  0  0  0  0  0  0  0  0  0  0  0
  -16.3660   16.7346  -24.8040 C   0  0  0  0  0  0  0  0  0  0  0  0
  -16.6637   18.0594  -25.1169 O   0  0  0  0  0  0  0  0  0  0  0  0
  -15.5576   16.4371  -23.7228 C   0  0  0  0  0  0  0  0  0  0  0  0
  -15.2798   15.1281  -23.4370 C   0  0  0  0  0  0  0  0  0  0  0  0
  -16.0306   18.5278  -25.7541 H   0  0  0  0  0  0  0  0  0  0  0  0
 16 17  1  0  0  0
 17 18  2  0  0  0
 17 10  1  0  0  0
 10 11  2  0  0  0
 11 12  1  0  0  0
 12 13  2  0  0  0
 13  8  1  0  0  0
  8  1  1  0  0  0
  1  2  2  0  0  0
  2  3  1  0  0  0
  3 21  1  0  0  0
 21 23  1  0  0  0
 23 24  2  0  0  0
 24 25  1  0  0  0
 25 26  2  0  0  0
 26 27  1  0  0  0
 26 28  1  0  0  0
 28 29  2  0  0  0
  3  4  2  0  0  0
  4  5  1  0  0  0
  5  6  2  0  0  0
  6  7  1  0  0  0
 13 14  1  0  0  0
 14 15  2  0  0  0
 15 10  1  0  0  0
  6  1  1  0  0  0
 29 23  1  0  0  0
 16 19  1  0  0  0
 16 20  1  0  0  0
  8  9  1  0  0  0
 21 22  1  0  0  0
 27 30  1  0  0  0
M  END
> <minimizedAffinity>
-8.19564

> <CNNscore>
0.5704358220

> <CNNaffinity>
6.7779021263

> <CNN_VS>
3.8663582802

> <CNNaffinity_variance>
0.1396690309

$$$$
[H]Oc1c([H])c([H])c(N([H])c2nc([H])c(F)c(N([H])c3c([H])c([H])c(C(=O)N([H])[H])c([H])c3[H])n2)c([H])c1[H]


 30 32  0  0  0  0  0  0  0  0999 V2000
  -17.1882   11.1483  -19.8696 C   0  0  0  0  0  0  0  0  0  0  0  0
  -17.8064   12.3025  -20.0573 N   0  0  0  0  0  0  0  0  0  0  0  0
  -17.6409   13.0347  -21.1968 C   0  0  0  0  0  0  0  0  0  0  0  0
  -16.8193   12.5399  -22.1347 N   0  0  0  0  0  0  0  0  0  0  0  0
  -16.1671   11.3897  -22.0138 C   0  0  0  0  0  0  0  0  0  0  0  0
  -16.3299   10.6463  -20.8663 C   0  0  0  0  0  0  0  0  0  0  0  0
  -15.6964    9.4737  -20.6869 F   0  0  0  0  0  0  0  0  0  0  0  0
  -17.3171   10.3704  -18.6905 N   0  0  0  0  0  0  0  0  0  0  0  0
  -16.4806    9.7742  -18.4146 H   0  0  0  0  0  0  0  0  0  0  0  0
  -20.5899    9.9929  -16.0618 C   0  0  0  0  0  0  0  0  0  0  0  0
  -20.3165   11.1680  -16.6801 C   0  0  0  0  0  0  0  0  0  0  0  0
  -19.2448   11.3294  -17.5653 C   0  0  0  0  0  0  0  0  0  0  0  0
  -18.4311   10.2882  -17.8338 C   0  0  0  0  0  0  0  0  0  0  0  0
  -18.6947    9.0538  -17.2032 C   0  0  0  0  0  0  0  0  0  0  0  0
  -19.7474    8.9208  -16.3429 C   0  0  0  0  0  0  0  0  0  0  0  0
  -22.9853   10.2842  -15.4821 N   0  0  0  0  0  0  0  0  0  0  0  0
  -21.7051    9.8190  -15.1385 C   0  0  0  0  0  0  0  0  0  0  0  0
  -21.5167    9.2555  -14.0428 O   0  0  0  0  0  0  0  0  0  0  0  0
  -23.2988   11.2160  -15.1503 H   0  0  0  0  0  0  0  0  0  0  0  0
  -23.6339    9.7224  -16.0617 H   0  0  0  0  0  0  0  0  0  0  0  0
  -18.3142   14.2643  -21.3013 N   0  0  0  0  0  0  0  0  0  0  0  0
  -18.2082   14.8036  -22.2108 H   0  0  0  0  0  0  0  0  0  0  0  0
  -19.1099   14.8287  -20.3023 C   0  0  0  0  0  0  0  0  0  0  0  0
  -18.6849   15.7694  -19.4114 C   0  0  0  0  0  0  0  0  0  0  0  0
  -19.5186   16.2915  -18.3983 C   0  0  0  0  0  0  0  0  0  0  0  0
  -20.8127   15.8426  -18.2957 C   0  0  0  0  0  0  0  0  0  0  0  0
  -21.6427   16.3518  -17.2991 O   0  0  0  0  0  0  0  0  0  0  0  0
  -21.2854   14.8899  -19.1790 C   0  0  0  0  0  0  0  0  0  0  0  0
  -20.4500   14.4053  -20.1483 C   0  0  0  0  0  0  0  0  0  0  0  0
  -21.6404   15.8611  -16.4128 H   0  0  0  0  0  0  0  0  0  0  0  0
 16 17  1  0  0  0
 17 18  2  0  0  0
 17 10  1  0  0  0
 10 11  2  0  0  0
 11 12  1  0  0  0
 12 13  2  0  0  0
 13  8  1  0  0  0
  8  1  1  0  0  0
  1  2  2  0  0  0
  2  3  1  0  0  0
  3 21  1  0  0  0
 21 23  1  0  0  0
 23 24  2  0  0  0
 24 25  1  0  0  0
 25 26  2  0  0  0
 26 27  1  0  0  0
 26 28  1  0  0  0
 28 29  2  0  0  0
  3  4  2  0  0  0
  4  5  1  0  0  0
  5  6  2  0  0  0
  6  7  1  0  0  0
 13 14  1  0  0  0
 14 15  2  0  0  0
 15 10  1  0  0  0
  6  1  1  0  0  0
 29 23  1  0  0  0
 16 19  1  0  0  0
 16 20  1  0  0  0
  8  9  1  0  0  0
 21 22  1  0  0  0
 27 30  1  0  0  0
M  END
> <minimizedAffinity>
-7.13191

> <CNNscore>
0.5230072737

> <CNNaffinity>
6.2207260132

> <CNN_VS>
3.2534849644

> <CNNaffinity_variance>
0.0264081657

$$$$
[H]Oc1c([H])c([H])c(N([H])c2nc([H])c(F)c(N([H])c3c([H])c([H])c(C(=O)N([H])[H])c([H])c3[H])n2)c([H])c1[H]


 30 32  0  0  0  0  0  0  0  0999 V2000
  -17.8051   13.6700  -20.4989 C   0  0  0  0  0  0  0  0  0  0  0  0
  -17.4757   13.5829  -21.7770 N   0  0  0  0  0  0  0  0  0  0  0  0
  -16.9420   12.4461  -22.3106 C   0  0  0  0  0  0  0  0  0  0  0  0
  -16.7591   11.4039  -21.4860 N   0  0  0  0  0  0  0  0  0  0  0  0
  -17.0663   11.4205  -20.1945 C   0  0  0  0  0  0  0  0  0  0  0  0
  -17.6052   12.5647  -19.6501 C   0  0  0  0  0  0  0  0  0  0  0  0
  -17.9367   12.6411  -18.3491 F   0  0  0  0  0  0  0  0  0  0  0  0
  -18.3406   14.8406  -19.9033 N   0  0  0  0  0  0  0  0  0  0  0  0
  -18.7945   14.7288  -18.9479 H   0  0  0  0  0  0  0  0  0  0  0  0
  -18.5193   18.7485  -21.4717 C   0  0  0  0  0  0  0  0  0  0  0  0
  -17.3717   18.2534  -20.9466 C   0  0  0  0  0  0  0  0  0  0  0  0
  -17.2715   16.9588  -20.4248 C   0  0  0  0  0  0  0  0  0  0  0  0
  -18.3473   16.1459  -20.4304 C   0  0  0  0  0  0  0  0  0  0  0  0
  -19.5539   16.6375  -20.9720 C   0  0  0  0  0  0  0  0  0  0  0  0
  -19.6269   17.9052  -21.4759 C   0  0  0  0  0  0  0  0  0  0  0  0
  -18.2302   21.2033  -21.2491 N   0  0  0  0  0  0  0  0  0  0  0  0
  -18.6294   20.0966  -22.0167 C   0  0  0  0  0  0  0  0  0  0  0  0
  -19.0797   20.2620  -23.1672 O   0  0  0  0  0  0  0  0  0  0  0  0
  -18.9375   21.7320  -20.7045 H   0  0  0  0  0  0  0  0  0  0  0  0
  -17.2428   21.5126  -21.2080 H   0  0  0  0  0  0  0  0  0  0  0  0
  -16.5943   12.4499  -23.6727 N   0  0  0  0  0  0  0  0  0  0  0  0
  -16.8552   11.5941  -24.2461 H   0  0  0  0  0  0  0  0  0  0  0  0
  -15.9336   13.4915  -24.3272 C   0  0  0  0  0  0  0  0  0  0  0  0
  -14.6632   13.9007  -24.0479 C   0  0  0  0  0  0  0  0  0  0  0  0
  -14.0452   14.9792  -24.7178 C   0  0  0  0  0  0  0  0  0  0  0  0
  -14.7407   15.6513  -25.6933 C   0  0  0  0  0  0  0  0  0  0  0  0
  -14.1391   16.7169  -26.3597 O   0  0  0  0  0  0  0  0  0  0  0  0
  -16.0311   15.2690  -26.0092 C   0  0  0  0  0  0  0  0  0  0  0  0
  -16.5994   14.2197  -25.3397 C   0  0  0  0  0  0  0  0  0  0  0  0
  -14.2658   17.6357  -25.9523 H   0  0  0  0  0  0  0  0  0  0  0  0
 16 17  1  0  0  0
 17 18  2  0  0  0
 17 10  1  0  0  0
 10 11  2  0  0  0
 11 12  1  0  0  0
 12 13  2  0  0  0
 13  8  1  0  0  0
  8  1  1  0  0  0
  1  2  2  0  0  0
  2  3  1  0  0  0
  3 21  1  0  0  0
 21 23  1  0  0  0
 23 24  2  0  0  0
 24 25  1  0  0  0
 25 26  2  0  0  0
 26 27  1  0  0  0
 26 28  1  0  0  0
 28 29  2  0  0  0
  3  4  2  0  0  0
  4  5  1  0  0  0
  5  6  2  0  0  0
  6  7  1  0  0  0
 13 14  1  0  0  0
 14 15  2  0  0  0
 15 10  1  0  0  0
  6  1  1  0  0  0
 29 23  1  0  0  0
 16 19  1  0  0  0
 16 20  1  0  0  0
  8  9  1  0  0  0
 21 22  1  0  0  0
 27 30  1  0  0  0
M  END
> <minimizedAffinity>
-8.22779

> <CNNscore>
0.4758105874

> <CNNaffinity>
6.5607194901

> <CNN_VS>
3.1216597557

> <CNNaffinity_variance>
0.0195122045

$$$$
[H]Oc1c([H])c([H])c(N([H])c2nc([H])c(F)c(N([H])c3c([H])c([H])c(C(=O)N([H])[H])c([H])c3[H])n2)c([H])c1[H]


 30 32  0  0  0  0  0  0  0  0999 V2000
  -17.0275   11.4725  -20.7463 C   0  0  0  0  0  0  0  0  0  0  0  0
  -17.5377   12.4149  -21.5218 N   0  0  0  0  0  0  0  0  0  0  0  0
  -16.9564   12.7725  -22.7033 C   0  0  0  0  0  0  0  0  0  0  0  0
  -15.8344   12.1290  -23.0591 N   0  0  0  0  0  0  0  0  0  0  0  0
  -15.2673   11.1745  -22.3311 C   0  0  0  0  0  0  0  0  0  0  0  0
  -15.8491   10.8090  -21.1378 C   0  0  0  0  0  0  0  0  0  0  0  0
  -15.3214    9.8489  -20.3580 F   0  0  0  0  0  0  0  0  0  0  0  0
  -17.5897   11.0891  -19.5018 N   0  0  0  0  0  0  0  0  0  0  0  0
  -17.2451   10.1755  -19.0802 H   0  0  0  0  0  0  0  0  0  0  0  0
  -20.4813   13.0406  -17.1367 C   0  0  0  0  0  0  0  0  0  0  0  0
  -19.8719   13.6750  -18.1681 C   0  0  0  0  0  0  0  0  0  0  0  0
  -18.9140   13.0578  -18.9804 C   0  0  0  0  0  0  0  0  0  0  0  0
  -18.5614   11.7769  -18.7505 C   0  0  0  0  0  0  0  0  0  0  0  0
  -19.1817   11.0941  -17.6828 C   0  0  0  0  0  0  0  0  0  0  0  0
  -20.1144   11.7180  -16.9037 C   0  0  0  0  0  0  0  0  0  0  0  0
  -22.3075   14.6882  -16.8061 N   0  0  0  0  0  0  0  0  0  0  0  0
  -21.4799   13.6788  -16.2870 C   0  0  0  0  0  0  0  0  0  0  0  0
  -21.5954   13.3242  -15.0976 O   0  0  0  0  0  0  0  0  0  0  0  0
  -22.0497   15.6839  -16.6696 H   0  0  0  0  0  0  0  0  0  0  0  0
  -23.1759   14.4697  -17.3262 H   0  0  0  0  0  0  0  0  0  0  0  0
  -17.5500   13.8040  -23.4515 N   0  0  0  0  0  0  0  0  0  0  0  0
  -18.3947   14.2907  -23.0286 H   0  0  0  0  0  0  0  0  0  0  0  0
  -17.1139   14.2362  -24.7057 C   0  0  0  0  0  0  0  0  0  0  0  0
  -17.2919   13.5467  -25.8685 C   0  0  0  0  0  0  0  0  0  0  0  0
  -16.8077   14.0103  -27.1114 C   0  0  0  0  0  0  0  0  0  0  0  0
  -16.1291   15.2034  -27.1651 C   0  0  0  0  0  0  0  0  0  0  0  0
  -15.6476   15.6689  -28.3870 O   0  0  0  0  0  0  0  0  0  0  0  0
  -15.9270   15.9356  -26.0100 C   0  0  0  0  0  0  0  0  0  0  0  0
  -16.4093   15.4563  -24.8227 C   0  0  0  0  0  0  0  0  0  0  0  0
  -14.7103   15.3826  -28.6434 H   0  0  0  0  0  0  0  0  0  0  0  0
 16 17  1  0  0  0
 17 18  2  0  0  0
 17 10  1  0  0  0
 10 11  2  0  0  0
 11 12  1  0  0  0
 12 13  2  0  0  0
 13  8  1  0  0  0
  8  1  1  0  0  0
  1  2  2  0  0  0
  2  3  1  0  0  0
  3 21  1  0  0  0
 21 23  1  0  0  0
 23 24  2  0  0  0
 24 25  1  0  0  0
 25 26  2  0  0  0
 26 27  1  0  0  0
 26 28  1  0  0  0
 28 29  2  0  0  0
  3  4  2  0  0  0
  4  5  1  0  0  0
  5  6  2  0  0  0
  6  7  1  0  0  0
 13 14  1  0  0  0
 14 15  2  0  0  0
 15 10  1  0  0  0
  6  1  1  0  0  0
 29 23  1  0  0  0
 16 19  1  0  0  0
 16 20  1  0  0  0
  8  9  1  0  0  0
 21 22  1  0  0  0
 27 30  1  0  0  0
M  END
> <minimizedAffinity>
-7.73870

> <CNNscore>
0.4453672469

> <CNNaffinity>
6.4247999191

> <CNN_VS>
2.8613953590

> <CNNaffinity_variance>
0.0247593112

$$$$
[H]Oc1c([H])c([H])c(N([H])c2nc([H])c(F)c(N([H])c3c([H])c([H])c(C(=O)N([H])[H])c([H])c3[H])n2)c([H])c1[H]


 30 32  0  0  0  0  0  0  0  0999 V2000
  -17.7016   13.6764  -20.4478 C   0  0  0  0  0  0  0  0  0  0  0  0
  -17.5470   13.6921  -21.7614 N   0  0  0  0  0  0  0  0  0  0  0  0
  -17.1376   12.5905  -22.4548 C   0  0  0  0  0  0  0  0  0  0  0  0
  -16.8930   11.4744  -21.7519 N   0  0  0  0  0  0  0  0  0  0  0  0
  -17.0269   11.3866  -20.4339 C   0  0  0  0  0  0  0  0  0  0  0  0
  -17.4398   12.4947  -19.7286 C   0  0  0  0  0  0  0  0  0  0  0  0
  -17.5939   12.4665  -18.3930 F   0  0  0  0  0  0  0  0  0  0  0  0
  -18.1033   14.8062  -19.6901 N   0  0  0  0  0  0  0  0  0  0  0  0
  -17.5338   15.6957  -19.8154 H   0  0  0  0  0  0  0  0  0  0  0  0
  -21.2311   15.1827  -16.8903 C   0  0  0  0  0  0  0  0  0  0  0  0
  -21.4234   14.5623  -18.0802 C   0  0  0  0  0  0  0  0  0  0  0  0
  -20.4078   14.4105  -19.0308 C   0  0  0  0  0  0  0  0  0  0  0  0
  -19.1739   14.8930  -18.7801 C   0  0  0  0  0  0  0  0  0  0  0  0
  -18.9477   15.5428  -17.5482 C   0  0  0  0  0  0  0  0  0  0  0  0
  -19.9553   15.6784  -16.6358 C   0  0  0  0  0  0  0  0  0  0  0  0
  -21.9710   15.3449  -14.5270 N   0  0  0  0  0  0  0  0  0  0  0  0
  -22.2856   15.3437  -15.8961 C   0  0  0  0  0  0  0  0  0  0  0  0
  -23.4677   15.4804  -16.2672 O   0  0  0  0  0  0  0  0  0  0  0  0
  -22.0576   14.4675  -13.9799 H   0  0  0  0  0  0  0  0  0  0  0  0
  -21.6520   16.2012  -14.0400 H   0  0  0  0  0  0  0  0  0  0  0  0
  -16.9720   12.7036  -23.8461 N   0  0  0  0  0  0  0  0  0  0  0  0
  -17.4071   11.9476  -24.4531 H   0  0  0  0  0  0  0  0  0  0  0  0
  -16.2804   13.7323  -24.4890 C   0  0  0  0  0  0  0  0  0  0  0  0
  -16.8245   14.5713  -25.4160 C   0  0  0  0  0  0  0  0  0  0  0  0
  -16.0777   15.5808  -26.0619 C   0  0  0  0  0  0  0  0  0  0  0  0
  -14.7484   15.7352  -25.7520 C   0  0  0  0  0  0  0  0  0  0  0  0
  -14.0035   16.7286  -26.3843 O   0  0  0  0  0  0  0  0  0  0  0  0
  -14.1565   14.9069  -24.8168 C   0  0  0  0  0  0  0  0  0  0  0  0
  -14.9097   13.9387  -24.2106 C   0  0  0  0  0  0  0  0  0  0  0  0
  -13.5402   16.4680  -27.2467 H   0  0  0  0  0  0  0  0  0  0  0  0
 16 17  1  0  0  0
 17 18  2  0  0  0
 17 10  1  0  0  0
 10 11  2  0  0  0
 11 12  1  0  0  0
 12 13  2  0  0  0
 13  8  1  0  0  0
  8  1  1  0  0  0
  1  2  2  0  0  0
  2  3  1  0  0  0
  3 21  1  0  0  0
 21 23  1  0  0  0
 23 24  2  0  0  0
 24 25  1  0  0  0
 25 26  2  0  0  0
 26 27  1  0  0  0
 26 28  1  0  0  0
 28 29  2  0  0  0
  3  4  2  0  0  0
  4  5  1  0  0  0
  5  6  2  0  0  0
  6  7  1  0  0  0
 13 14  1  0  0  0
 14 15  2  0  0  0
 15 10  1  0  0  0
  6  1  1  0  0  0
 29 23  1  0  0  0
 16 19  1  0  0  0
 16 20  1  0  0  0
  8  9  1  0  0  0
 21 22  1  0  0  0
 27 30  1  0  0  0
M  END
> <minimizedAffinity>
-7.83187

> <CNNscore>
0.4240505099

> <CNNaffinity>
6.5456438065

> <CNN_VS>
2.7756836414

> <CNNaffinity_variance>
0.1462934613

$$$$
[H]OC(=O)[C@@]1([H])N(C(=O)[C@@]([H])(N([H])[C@]([H])(C(=O)O[H])C([H])([H])C([H])([H])c2c([H])c([H])c([H])c([H])c2[H])C([H])([H])[H])C([H])([H])c2c([H])c([H])c([H])c([H])c2C1([H])[H]


 33 35  0  0  0  0  0  0  0  0999 V2000
  -19.6922   17.0380  -17.4474 C   0  0  0  0  0  0  0  0  0  0  0  0
  -18.4119   16.4775  -18.0868 C   0  0  0  0  0  0  0  0  0  0  0  0
  -18.3873   15.0444  -17.7812 C   0  0  0  0  0  0  0  0  0  0  0  0
  -17.8897   14.7182  -16.6476 O   0  0  0  0  0  0  0  0  0  0  0  0
  -18.8511   13.9923  -18.5992 N   0  0  0  0  0  0  0  0  0  0  0  0
  -18.6802   12.6093  -18.0960 C   0  0  0  0  0  0  0  0  0  0  0  0
  -17.8224   11.8939  -19.1121 C   0  0  0  0  0  0  0  0  0  0  0  0
  -16.7204   11.1493  -18.7876 C   0  0  0  0  0  0  0  0  0  0  0  0
  -15.9672   10.5495  -19.8099 C   0  0  0  0  0  0  0  0  0  0  0  0
  -16.3709   10.7357  -21.1148 C   0  0  0  0  0  0  0  0  0  0  0  0
  -17.5042   11.5032  -21.4140 C   0  0  0  0  0  0  0  0  0  0  0  0
  -18.2489   12.0943  -20.4189 C   0  0  0  0  0  0  0  0  0  0  0  0
  -19.4610   12.8740  -20.6627 C   0  0  0  0  0  0  0  0  0  0  0  0
  -19.4836   14.1469  -19.8786 C   0  0  0  0  0  0  0  0  0  0  0  0
  -20.8761   14.6639  -19.7384 C   0  0  0  0  0  0  0  0  0  0  0  0
  -21.6761   14.0713  -18.9970 O   0  0  0  0  0  0  0  0  0  0  0  0
  -21.2472   15.7818  -20.4281 O   0  0  0  0  0  0  0  0  0  0  0  0
  -20.7857   16.6572  -20.1866 H   0  0  0  0  0  0  0  0  0  0  0  0
  -18.5770   16.7342  -19.5133 N   0  0  0  0  0  0  0  0  0  0  0  0
  -18.4506   15.8057  -19.9910 H   0  0  0  0  0  0  0  0  0  0  0  0
  -17.4987   17.5856  -19.9596 C   0  0  0  0  0  0  0  0  0  0  0  0
  -17.9382   19.0080  -20.0642 C   0  0  0  0  0  0  0  0  0  0  0  0
  -18.2537   19.5298  -21.1626 O   0  0  0  0  0  0  0  0  0  0  0  0
  -18.0202   19.8267  -18.9464 O   0  0  0  0  0  0  0  0  0  0  0  0
  -17.3250   19.8539  -18.2148 H   0  0  0  0  0  0  0  0  0  0  0  0
  -16.8927   17.1011  -21.2522 C   0  0  0  0  0  0  0  0  0  0  0  0
  -16.6029   15.6190  -21.2212 C   0  0  0  0  0  0  0  0  0  0  0  0
  -16.8109   14.9888  -22.5486 C   0  0  0  0  0  0  0  0  0  0  0  0
  -18.0195   15.0888  -23.2265 C   0  0  0  0  0  0  0  0  0  0  0  0
  -18.2457   14.5137  -24.4574 C   0  0  0  0  0  0  0  0  0  0  0  0
  -17.2351   13.7969  -25.0679 C   0  0  0  0  0  0  0  0  0  0  0  0
  -16.0106   13.6776  -24.4145 C   0  0  0  0  0  0  0  0  0  0  0  0
  -15.8197   14.2652  -23.1856 C   0  0  0  0  0  0  0  0  0  0  0  0
  1  2  1  0  0  0
  2 19  1  0  0  0
 19 21  1  0  0  0
 21 26  1  0  0  0
 26 27  1  0  0  0
 27 28  1  0  0  0
 28 29  2  0  0  0
 29 30  1  0  0  0
 30 31  2  0  0  0
 31 32  1  0  0  0
 32 33  2  0  0  0
 21 22  1  0  0  0
 22 23  2  0  0  0
 22 24  1  0  0  0
  2  3  1  0  0  0
  3  4  2  0  0  0
  3  5  1  0  0  0
  5  6  1  0  0  0
  6  7  1  0  0  0
  7  8  2  0  0  0
  8  9  1  0  0  0
  9 10  2  0  0  0
 10 11  1  0  0  0
 11 12  2  0  0  0
 12 13  1  0  0  0
 13 14  1  0  0  0
 14 15  1  0  0  0
 15 16  2  0  0  0
 15 17  1  0  0  0
 33 28  1  0  0  0
 14  5  1  0  0  0
 12  7  1  0  0  0
 19 20  1  0  0  0
 24 25  1  0  0  0
 17 18  1  0  0  0
M  END
> <minimizedAffinity>
-8.55147

> <CNNscore>
0.2851287425

> <CNNaffinity>
5.5815343857

> <CNN_VS>
1.5914559364

> <CNNaffinity_variance>
0.7392277718

$$$$
[H]OC(=O)[C@@]1([H])N(C(=O)[C@@]([H])(N([H])[C@]([H])(C(=O)O[H])C([H])([H])C([H])([H])c2c([H])c([H])c([H])c([H])c2[H])C([H])([H])[H])C([H])([H])c2c([H])c([H])c([H])c([H])c2C1([H])[H]


 33 35  0  0  0  0  0  0  0  0999 V2000
  -18.9712   19.8686  -21.0528 C   0  0  0  0  0  0  0  0  0  0  0  0
  -19.5734   18.8397  -22.0227 C   0  0  0  0  0  0  0  0  0  0  0  0
  -18.4753   18.3826  -22.8788 C   0  0  0  0  0  0  0  0  0  0  0  0
  -18.3377   18.9952  -23.9945 O   0  0  0  0  0  0  0  0  0  0  0  0
  -17.5590   17.3449  -22.6054 N   0  0  0  0  0  0  0  0  0  0  0  0
  -16.5543   17.0284  -23.6472 C   0  0  0  0  0  0  0  0  0  0  0  0
  -16.7813   15.5848  -24.0273 C   0  0  0  0  0  0  0  0  0  0  0  0
  -16.8850   15.1460  -25.3199 C   0  0  0  0  0  0  0  0  0  0  0  0
  -17.1305   13.7860  -25.5696 C   0  0  0  0  0  0  0  0  0  0  0  0
  -17.2591   12.9362  -24.4918 C   0  0  0  0  0  0  0  0  0  0  0  0
  -17.1472   13.4164  -23.1804 C   0  0  0  0  0  0  0  0  0  0  0  0
  -16.9060   14.7474  -22.9259 C   0  0  0  0  0  0  0  0  0  0  0  0
  -16.7411   15.3032  -21.5841 C   0  0  0  0  0  0  0  0  0  0  0  0
  -17.5110   16.5712  -21.3972 C   0  0  0  0  0  0  0  0  0  0  0  0
  -16.9613   17.3681  -20.2620 C   0  0  0  0  0  0  0  0  0  0  0  0
  -15.8993   17.9931  -20.4121 O   0  0  0  0  0  0  0  0  0  0  0  0
  -17.6365   17.3971  -19.0761 O   0  0  0  0  0  0  0  0  0  0  0  0
  -18.5584   17.8304  -19.0714 H   0  0  0  0  0  0  0  0  0  0  0  0
  -20.0768   17.7781  -21.1580 N   0  0  0  0  0  0  0  0  0  0  0  0
  -20.1825   16.9305  -21.7718 H   0  0  0  0  0  0  0  0  0  0  0  0
  -21.4013   18.1363  -20.7062 C   0  0  0  0  0  0  0  0  0  0  0  0
  -21.5830   17.8259  -19.2578 C   0  0  0  0  0  0  0  0  0  0  0  0
  -21.0747   18.5357  -18.3544 O   0  0  0  0  0  0  0  0  0  0  0  0
  -22.3268   16.7320  -18.8374 O   0  0  0  0  0  0  0  0  0  0  0  0
  -22.2772   15.8184  -19.2641 H   0  0  0  0  0  0  0  0  0  0  0  0
  -22.4780   17.4959  -21.5448 C   0  0  0  0  0  0  0  0  0  0  0  0
  -23.4631   18.5115  -22.0737 C   0  0  0  0  0  0  0  0  0  0  0  0
  -23.5460   18.4794  -23.5551 C   0  0  0  0  0  0  0  0  0  0  0  0
  -23.8279   19.6186  -24.2986 C   0  0  0  0  0  0  0  0  0  0  0  0
  -23.9146   19.6219  -25.6733 C   0  0  0  0  0  0  0  0  0  0  0  0
  -23.7150   18.4455  -26.3689 C   0  0  0  0  0  0  0  0  0  0  0  0
  -23.4303   17.2849  -25.6530 C   0  0  0  0  0  0  0  0  0  0  0  0
  -23.3513   17.3182  -24.2802 C   0  0  0  0  0  0  0  0  0  0  0  0
  1  2  1  0  0  0
  2 19  1  0  0  0
 19 21  1  0  0  0
 21 26  1  0  0  0
 26 27  1  0  0  0
 27 28  1  0  0  0
 28 29  2  0  0  0
 29 30  1  0  0  0
 30 31  2  0  0  0
 31 32  1  0  0  0
 32 33  2  0  0  0
 21 22  1  0  0  0
 22 23  2  0  0  0
 22 24  1  0  0  0
  2  3  1  0  0  0
  3  4  2  0  0  0
  3  5  1  0  0  0
  5  6  1  0  0  0
  6  7  1  0  0  0
  7  8  2  0  0  0
  8  9  1  0  0  0
  9 10  2  0  0  0
 10 11  1  0  0  0
 11 12  2  0  0  0
 12 13  1  0  0  0
 13 14  1  0  0  0
 14 15  1  0  0  0
 15 16  2  0  0  0
 15 17  1  0  0  0
 33 28  1  0  0  0
 14  5  1  0  0  0
 12  7  1  0  0  0
 19 20  1  0  0  0
 24 25  1  0  0  0
 17 18  1  0  0  0
M  END
> <minimizedAffinity>
-7.49839

> <CNNscore>
0.2477171272

> <CNNaffinity>
5.5440049171

> <CNN_VS>
1.3733450174

> <CNNaffinity_variance>
0.2030076683

$$$$
[H]OC(=O)[C@@]1([H])N(C(=O)[C@@]([H])(N([H])[C@]([H])(C(=O)O[H])C([H])([H])C([H])([H])c2c([H])c([H])c([H])c([H])c2[H])C([H])([H])[H])C([H])([H])c2c([H])c([H])c([H])c([H])c2C1([H])[H]


 33 35  0  0  0  0  0  0  0  0999 V2000
  -18.9360   16.5158  -21.4715 C   0  0  0  0  0  0  0  0  0  0  0  0
  -18.0650   15.3915  -20.8888 C   0  0  0  0  0  0  0  0  0  0  0  0
  -16.8502   15.3398  -21.7070 C   0  0  0  0  0  0  0  0  0  0  0  0
  -15.9941   16.2699  -21.5043 O   0  0  0  0  0  0  0  0  0  0  0  0
  -16.5261   14.3794  -22.6886 N   0  0  0  0  0  0  0  0  0  0  0  0
  -15.2528   14.5576  -23.4248 C   0  0  0  0  0  0  0  0  0  0  0  0
  -15.6234   14.6878  -24.8828 C   0  0  0  0  0  0  0  0  0  0  0  0
  -15.1508   15.6775  -25.7021 C   0  0  0  0  0  0  0  0  0  0  0  0
  -15.5820   15.7327  -27.0374 C   0  0  0  0  0  0  0  0  0  0  0  0
  -16.4743   14.7780  -27.4764 C   0  0  0  0  0  0  0  0  0  0  0  0
  -16.9390   13.7773  -26.6129 C   0  0  0  0  0  0  0  0  0  0  0  0
  -16.5215   13.7148  -25.3028 C   0  0  0  0  0  0  0  0  0  0  0  0
  -16.9389   12.6753  -24.3638 C   0  0  0  0  0  0  0  0  0  0  0  0
  -17.3229   13.2356  -23.0318 C   0  0  0  0  0  0  0  0  0  0  0  0
  -17.2563   12.1880  -21.9716 C   0  0  0  0  0  0  0  0  0  0  0  0
  -18.2478   11.9809  -21.2541 O   0  0  0  0  0  0  0  0  0  0  0  0
  -16.1048   11.4735  -21.8087 O   0  0  0  0  0  0  0  0  0  0  0  0
  -15.8168   10.8662  -22.5741 H   0  0  0  0  0  0  0  0  0  0  0  0
  -17.7905   15.8178  -19.5209 N   0  0  0  0  0  0  0  0  0  0  0  0
  -16.8968   15.3382  -19.2421 H   0  0  0  0  0  0  0  0  0  0  0  0
  -18.8288   15.3046  -18.6576 C   0  0  0  0  0  0  0  0  0  0  0  0
  -19.0662   16.2114  -17.4962 C   0  0  0  0  0  0  0  0  0  0  0  0
  -19.1816   17.4548  -17.6332 O   0  0  0  0  0  0  0  0  0  0  0  0
  -19.1718   15.7211  -16.2020 O   0  0  0  0  0  0  0  0  0  0  0  0
  -18.5690   15.0081  -15.8178 H   0  0  0  0  0  0  0  0  0  0  0  0
  -18.5436   13.8952  -18.2051 C   0  0  0  0  0  0  0  0  0  0  0  0
  -19.7695   13.0162  -18.2832 C   0  0  0  0  0  0  0  0  0  0  0  0
  -19.5204   11.6704  -17.7096 C   0  0  0  0  0  0  0  0  0  0  0  0
  -18.5084   10.8462  -18.1857 C   0  0  0  0  0  0  0  0  0  0  0  0
  -18.2531    9.5917  -17.6776 C   0  0  0  0  0  0  0  0  0  0  0  0
  -19.0291    9.1077  -16.6426 C   0  0  0  0  0  0  0  0  0  0  0  0
  -20.0525    9.9094  -16.1420 C   0  0  0  0  0  0  0  0  0  0  0  0
  -20.2792   11.1576  -16.6737 C   0  0  0  0  0  0  0  0  0  0  0  0
  1  2  1  0  0  0
  2 19  1  0  0  0
 19 21  1  0  0  0
 21 26  1  0  0  0
 26 27  1  0  0  0
 27 28  1  0  0  0
 28 29  2  0  0  0
 29 30  1  0  0  0
 30 31  2  0  0  0
 31 32  1  0  0  0
 32 33  2  0  0  0
 21 22  1  0  0  0
 22 23  2  0  0  0
 22 24  1  0  0  0
  2  3  1  0  0  0
  3  4  2  0  0  0
  3  5  1  0  0  0
  5  6  1  0  0  0
  6  7  1  0  0  0
  7  8  2  0  0  0
  8  9  1  0  0  0
  9 10  2  0  0  0
 10 11  1  0  0  0
 11 12  2  0  0  0
 12 13  1  0  0  0
 13 14  1  0  0  0
 14 15  1  0  0  0
 15 16  2  0  0  0
 15 17  1  0  0  0
 33 28  1  0  0  0
 14  5  1  0  0  0
 12  7  1  0  0  0
 19 20  1  0  0  0
 24 25  1  0  0  0
 17 18  1  0  0  0
M  END
> <minimizedAffinity>
-8.61244

> <CNNscore>
0.2346168756

> <CNNaffinity>
5.9091711044

> <CNN_VS>
1.3863912821

> <CNNaffinity_variance>
0.1120188683

$$$$
[H]OC(=O)[C@@]1([H])N(C(=O)[C@@]([H])(N([H])[C@]([H])(C(=O)O[H])C([H])([H])C([H])([H])c2c([H])c([H])c([H])c([H])c2[H])C([H])([H])[H])C([H])([H])c2c([H])c([H])c([H])c([H])c2C1([H])[H]


 33 35  0  0  0  0  0  0  0  0999 V2000
  -20.2371   12.7260  -17.4931 C   0  0  0  0  0  0  0  0  0  0  0  0
  -19.7396   12.6450  -18.9451 C   0  0  0  0  0  0  0  0  0  0  0  0
  -20.1340   13.9003  -19.5906 C   0  0  0  0  0  0  0  0  0  0  0  0
  -21.2558   13.8887  -20.2074 O   0  0  0  0  0  0  0  0  0  0  0  0
  -19.4126   15.1129  -19.6043 N   0  0  0  0  0  0  0  0  0  0  0  0
  -19.9924   16.2443  -20.3651 C   0  0  0  0  0  0  0  0  0  0  0  0
  -18.9767   16.6061  -21.4222 C   0  0  0  0  0  0  0  0  0  0  0  0
  -19.2845   16.7800  -22.7447 C   0  0  0  0  0  0  0  0  0  0  0  0
  -18.2612   17.0829  -23.6576 C   0  0  0  0  0  0  0  0  0  0  0  0
  -16.9723   17.1945  -23.1815 C   0  0  0  0  0  0  0  0  0  0  0  0
  -16.6899   17.0113  -21.8216 C   0  0  0  0  0  0  0  0  0  0  0  0
  -17.6863   16.7149  -20.9194 C   0  0  0  0  0  0  0  0  0  0  0  0
  -17.4629   16.5498  -19.4843 C   0  0  0  0  0  0  0  0  0  0  0  0
  -18.1642   15.3486  -18.9360 C   0  0  0  0  0  0  0  0  0  0  0  0
  -18.3505   15.4655  -17.4603 C   0  0  0  0  0  0  0  0  0  0  0  0
  -17.8883   14.5872  -16.7146 O   0  0  0  0  0  0  0  0  0  0  0  0
  -19.0264   16.5379  -16.9543 O   0  0  0  0  0  0  0  0  0  0  0  0
  -18.6083   17.4582  -17.0802 H   0  0  0  0  0  0  0  0  0  0  0  0
  -18.2912   12.5182  -18.8252 N   0  0  0  0  0  0  0  0  0  0  0  0
  -17.9037   13.4867  -18.9605 H   0  0  0  0  0  0  0  0  0  0  0  0
  -17.8033   11.7144  -19.9218 C   0  0  0  0  0  0  0  0  0  0  0  0
  -16.9972   10.5584  -19.4306 C   0  0  0  0  0  0  0  0  0  0  0  0
  -15.9919   10.1336  -20.0528 O   0  0  0  0  0  0  0  0  0  0  0  0
  -17.3215    9.8941  -18.2558 O   0  0  0  0  0  0  0  0  0  0  0  0
  -18.2634    9.6480  -17.9884 H   0  0  0  0  0  0  0  0  0  0  0  0
  -17.0336   12.5340  -20.9259 C   0  0  0  0  0  0  0  0  0  0  0  0
  -17.8773   12.9001  -22.1242 C   0  0  0  0  0  0  0  0  0  0  0  0
  -17.0511   13.4206  -23.2418 C   0  0  0  0  0  0  0  0  0  0  0  0
  -15.6942   13.6782  -23.0924 C   0  0  0  0  0  0  0  0  0  0  0  0
  -14.9006   14.1638  -24.1081 C   0  0  0  0  0  0  0  0  0  0  0  0
  -15.4599   14.4148  -25.3458 C   0  0  0  0  0  0  0  0  0  0  0  0
  -16.8185   14.1670  -25.5287 C   0  0  0  0  0  0  0  0  0  0  0  0
  -17.5811   13.6818  -24.4919 C   0  0  0  0  0  0  0  0  0  0  0  0
  1  2  1  0  0  0
  2 19  1  0  0  0
 19 21  1  0  0  0
 21 26  1  0  0  0
 26 27  1  0  0  0
 27 28  1  0  0  0
 28 29  2  0  0  0
 29 30  1  0  0  0
 30 31  2  0  0  0
 31 32  1  0  0  0
 32 33  2  0  0  0
 21 22  1  0  0  0
 22 23  2  0  0  0
 22 24  1  0  0  0
  2  3  1  0  0  0
  3  4  2  0  0  0
  3  5  1  0  0  0
  5  6  1  0  0  0
  6  7  1  0  0  0
  7  8  2  0  0  0
  8  9  1  0  0  0
  9 10  2  0  0  0
 10 11  1  0  0  0
 11 12  2  0  0  0
 12 13  1  0  0  0
 13 14  1  0  0  0
 14 15  1  0  0  0
 15 16  2  0  0  0
 15 17  1  0  0  0
 33 28  1  0  0  0
 14  5  1  0  0  0
 12  7  1  0  0  0
 19 20  1  0  0  0
 24 25  1  0  0  0
 17 18  1  0  0  0
M  END
> <minimizedAffinity>
-8.10316

> <CNNscore>
0.2339210659

> <CNNaffinity>
5.9984741211

> <CNN_VS>
1.4031695127

> <CNNaffinity_variance>
0.1645732969

$$$$
[H]OC(=O)[C@@]1([H])N(C(=O)[C@@]([H])(N([H])[C@]([H])(C(=O)O[H])C([H])([H])C([H])([H])c2c([H])c([H])c([H])c([H])c2[H])C([H])([H])[H])C([H])([H])c2c([H])c([H])c([H])c([H])c2C1([H])[H]


 33 35  0  0  0  0  0  0  0  0999 V2000
  -19.3754   12.2072  -15.6580 C   0  0  0  0  0  0  0  0  0  0  0  0
  -20.5136   11.4167  -16.3227 C   0  0  0  0  0  0  0  0  0  0  0  0
  -21.2033   10.6974  -15.2481 C   0  0  0  0  0  0  0  0  0  0  0  0
  -22.4392   10.9858  -15.0794 O   0  0  0  0  0  0  0  0  0  0  0  0
  -20.6528    9.7264  -14.3847 N   0  0  0  0  0  0  0  0  0  0  0  0
  -21.5364    9.1641  -13.3369 C   0  0  0  0  0  0  0  0  0  0  0  0
  -20.8826    9.4886  -12.0151 C   0  0  0  0  0  0  0  0  0  0  0  0
  -21.5454   10.0477  -10.9558 C   0  0  0  0  0  0  0  0  0  0  0  0
  -20.8396   10.3434   -9.7782 C   0  0  0  0  0  0  0  0  0  0  0  0
  -19.4920   10.0564   -9.7341 C   0  0  0  0  0  0  0  0  0  0  0  0
  -18.8427    9.4835  -10.8354 C   0  0  0  0  0  0  0  0  0  0  0  0
  -19.5262    9.1895  -11.9934 C   0  0  0  0  0  0  0  0  0  0  0  0
  -18.9155    8.5576  -13.1615 C   0  0  0  0  0  0  0  0  0  0  0  0
  -19.3073    9.2288  -14.4388 C   0  0  0  0  0  0  0  0  0  0  0  0
  -19.1104    8.3178  -15.6038 C   0  0  0  0  0  0  0  0  0  0  0  0
  -20.0061    7.5144  -15.9095 O   0  0  0  0  0  0  0  0  0  0  0  0
  -17.9474    8.3834  -16.3152 O   0  0  0  0  0  0  0  0  0  0  0  0
  -17.7558    9.2455  -16.8229 H   0  0  0  0  0  0  0  0  0  0  0  0
  -21.3574   12.4392  -16.9315 N   0  0  0  0  0  0  0  0  0  0  0  0
  -21.8015   11.9861  -17.7704 H   0  0  0  0  0  0  0  0  0  0  0  0
  -20.5142   13.5026  -17.4265 C   0  0  0  0  0  0  0  0  0  0  0  0
  -21.0802   14.8430  -17.0946 C   0  0  0  0  0  0  0  0  0  0  0  0
  -21.9221   15.4131  -17.8325 O   0  0  0  0  0  0  0  0  0  0  0  0
  -20.7016   15.5274  -15.9479 O   0  0  0  0  0  0  0  0  0  0  0  0
  -19.7498   15.5913  -15.6174 H   0  0  0  0  0  0  0  0  0  0  0  0
  -20.2447   13.3703  -18.9038 C   0  0  0  0  0  0  0  0  0  0  0  0
  -18.8494   13.8202  -19.2675 C   0  0  0  0  0  0  0  0  0  0  0  0
  -17.9825   12.6767  -19.6459 C   0  0  0  0  0  0  0  0  0  0  0  0
  -17.5899   12.4577  -20.9604 C   0  0  0  0  0  0  0  0  0  0  0  0
  -16.7889   11.4052  -21.3449 C   0  0  0  0  0  0  0  0  0  0  0  0
  -16.3416   10.5096  -20.3932 C   0  0  0  0  0  0  0  0  0  0  0  0
  -16.7174   10.7008  -19.0655 C   0  0  0  0  0  0  0  0  0  0  0  0
  -17.5186   11.7633  -18.7173 C   0  0  0  0  0  0  0  0  0  0  0  0
  1  2  1  0  0  0
  2 19  1  0  0  0
 19 21  1  0  0  0
 21 26  1  0  0  0
 26 27  1  0  0  0
 27 28  1  0  0  0
 28 29  2  0  0  0
 29 30  1  0  0  0
 30 31  2  0  0  0
 31 32  1  0  0  0
 32 33  2  0  0  0
 21 22  1  0  0  0
 22 23  2  0  0  0
 22 24  1  0  0  0
  2  3  1  0  0  0
  3  4  2  0  0  0
  3  5  1  0  0  0
  5  6  1  0  0  0
  6  7  1  0  0  0
  7  8  2  0  0  0
  8  9  1  0  0  0
  9 10  2  0  0  0
 10 11  1  0  0  0
 11 12  2  0  0  0
 12 13  1  0  0  0
 13 14  1  0  0  0
 14 15  1  0  0  0
 15 16  2  0  0  0
 15 17  1  0  0  0
 33 28  1  0  0  0
 14  5  1  0  0  0
 12  7  1  0  0  0
 19 20  1  0  0  0
 24 25  1  0  0  0
 17 18  1  0  0  0
M  END
> <minimizedAffinity>
-7.15895

> <CNNscore>
0.1707986295

> <CNNaffinity>
4.7636246681

> <CNN_VS>
0.8136205673

> <CNNaffinity_variance>
0.5288413763

$$$$
[H]OC(=O)[C@@]1([H])N(C(=O)[C@@]([H])(N([H])[C@]([H])(C(=O)O[H])C([H])([H])C([H])([H])c2c([H])c([H])c([H])c([H])c2[H])C([H])([H])[H])C([H])([H])c2c([H])c([H])c([H])c([H])c2C1([H])[H]


 33 35  0  0  0  0  0  0  0  0999 V2000
  -19.4722   12.8977  -19.8426 C   0  0  0  0  0  0  0  0  0  0  0  0
  -19.2962   14.3195  -20.3992 C   0  0  0  0  0  0  0  0  0  0  0  0
  -20.3665   15.1311  -19.8131 C   0  0  0  0  0  0  0  0  0  0  0  0
  -21.4732   15.1541  -20.4563 O   0  0  0  0  0  0  0  0  0  0  0  0
  -20.3069   15.8855  -18.6221 N   0  0  0  0  0  0  0  0  0  0  0  0
  -21.5078   16.6685  -18.2484 C   0  0  0  0  0  0  0  0  0  0  0  0
  -21.0683   18.1119  -18.1888 C   0  0  0  0  0  0  0  0  0  0  0  0
  -21.7398   19.1371  -18.7987 C   0  0  0  0  0  0  0  0  0  0  0  0
  -21.2310   20.4432  -18.7128 C   0  0  0  0  0  0  0  0  0  0  0  0
  -20.0622   20.6447  -18.0100 C   0  0  0  0  0  0  0  0  0  0  0  0
  -19.3989   19.5741  -17.3963 C   0  0  0  0  0  0  0  0  0  0  0  0
  -19.8903   18.2908  -17.4746 C   0  0  0  0  0  0  0  0  0  0  0  0
  -19.2668   17.1389  -16.8255 C   0  0  0  0  0  0  0  0  0  0  0  0
  -19.1815   15.9542  -17.7336 C   0  0  0  0  0  0  0  0  0  0  0  0
  -19.0266   14.6922  -16.9528 C   0  0  0  0  0  0  0  0  0  0  0  0
  -17.9277   14.1151  -16.9361 O   0  0  0  0  0  0  0  0  0  0  0  0
  -20.0971   14.1932  -16.2687 O   0  0  0  0  0  0  0  0  0  0  0  0
  -20.4619   14.7495  -15.4972 H   0  0  0  0  0  0  0  0  0  0  0  0
  -17.9757   14.7297  -19.9342 N   0  0  0  0  0  0  0  0  0  0  0  0
  -18.1218   15.6245  -19.4009 H   0  0  0  0  0  0  0  0  0  0  0  0
  -17.1596   15.0535  -21.0812 C   0  0  0  0  0  0  0  0  0  0  0  0
  -16.8709   16.5163  -21.1462 C   0  0  0  0  0  0  0  0  0  0  0  0
  -16.1596   17.0164  -22.0529 O   0  0  0  0  0  0  0  0  0  0  0  0
  -17.3780   17.3991  -20.2026 O   0  0  0  0  0  0  0  0  0  0  0  0
  -17.4006   17.2128  -19.2106 H   0  0  0  0  0  0  0  0  0  0  0  0
  -17.7680   14.5557  -22.3676 C   0  0  0  0  0  0  0  0  0  0  0  0
  -16.8551   13.5941  -23.0910 C   0  0  0  0  0  0  0  0  0  0  0  0
  -16.1277   14.2553  -24.2029 C   0  0  0  0  0  0  0  0  0  0  0  0
  -14.7398   14.2870  -24.2548 C   0  0  0  0  0  0  0  0  0  0  0  0
  -14.0349   14.8943  -25.2704 C   0  0  0  0  0  0  0  0  0  0  0  0
  -14.7209   15.5090  -26.2996 C   0  0  0  0  0  0  0  0  0  0  0  0
  -16.1137   15.4951  -26.2775 C   0  0  0  0  0  0  0  0  0  0  0  0
  -16.7852   14.8790  -25.2472 C   0  0  0  0  0  0  0  0  0  0  0  0
  1  2  1  0  0  0
  2 19  1  0  0  0
 19 21  1  0  0  0
 21 26  1  0  0  0
 26 27  1  0  0  0
 27 28  1  0  0  0
 28 29  2  0  0  0
 29 30  1  0  0  0
 30 31  2  0  0  0
 31 32  1  0  0  0
 32 33  2  0  0  0
 21 22  1  0  0  0
 22 23  2  0  0  0
 22 24  1  0  0  0
  2  3  1  0  0  0
  3  4  2  0  0  0
  3  5  1  0  0  0
  5  6  1  0  0  0
  6  7  1  0  0  0
  7  8  2  0  0  0
  8  9  1  0  0  0
  9 10  2  0  0  0
 10 11  1  0  0  0
 11 12  2  0  0  0
 12 13  1  0  0  0
 13 14  1  0  0  0
 14 15  1  0  0  0
 15 16  2  0  0  0
 15 17  1  0  0  0
 33 28  1  0  0  0
 14  5  1  0  0  0
 12  7  1  0  0  0
 19 20  1  0  0  0
 24 25  1  0  0  0
 17 18  1  0  0  0
M  END
> <minimizedAffinity>
-7.17840

> <CNNscore>
0.1583395153

> <CNNaffinity>
5.1166567802

> <CNN_VS>
0.8101689816

> <CNNaffinity_variance>
0.4742447436

$$$$
[H]OC(=O)[C@@]1([H])N(C(=O)[C@@]([H])(N([H])[C@]([H])(C(=O)O[H])C([H])([H])C([H])([H])c2c([H])c([H])c([H])c([H])c2[H])C([H])([H])[H])C([H])([H])c2c([H])c([H])c([H])c([H])c2C1([H])[H]


 33 35  0  0  0  0  0  0  0  0999 V2000
  -18.4205   19.2786  -20.9094 C   0  0  0  0  0  0  0  0  0  0  0  0
  -19.3250   18.2380  -20.2305 C   0  0  0  0  0  0  0  0  0  0  0  0
  -20.2909   17.8025  -21.2430 C   0  0  0  0  0  0  0  0  0  0  0  0
  -19.8654   16.9503  -22.0984 O   0  0  0  0  0  0  0  0  0  0  0  0
  -21.6323   18.2205  -21.3743 N   0  0  0  0  0  0  0  0  0  0  0  0
  -22.4102   17.6741  -22.5106 C   0  0  0  0  0  0  0  0  0  0  0  0
  -22.8433   18.8624  -23.3353 C   0  0  0  0  0  0  0  0  0  0  0  0
  -22.6909   18.9417  -24.6934 C   0  0  0  0  0  0  0  0  0  0  0  0
  -23.0957   20.1057  -25.3667 C   0  0  0  0  0  0  0  0  0  0  0  0
  -23.6368   21.1348  -24.6260 C   0  0  0  0  0  0  0  0  0  0  0  0
  -23.7800   21.0225  -23.2369 C   0  0  0  0  0  0  0  0  0  0  0  0
  -23.3868   19.8853  -22.5685 C   0  0  0  0  0  0  0  0  0  0  0  0
  -23.5443   19.6916  -21.1282 C   0  0  0  0  0  0  0  0  0  0  0  0
  -22.3134   19.1273  -20.4942 C   0  0  0  0  0  0  0  0  0  0  0  0
  -22.6330   18.4810  -19.1880 C   0  0  0  0  0  0  0  0  0  0  0  0
  -23.3767   17.4874  -19.1637 O   0  0  0  0  0  0  0  0  0  0  0  0
  -22.1012   18.9936  -18.0402 O   0  0  0  0  0  0  0  0  0  0  0  0
  -21.0892   18.9523  -17.9324 H   0  0  0  0  0  0  0  0  0  0  0  0
  -18.4150   17.1667  -19.8401 N   0  0  0  0  0  0  0  0  0  0  0  0
  -18.1988   16.6350  -20.7215 H   0  0  0  0  0  0  0  0  0  0  0  0
  -19.1169   16.2578  -18.9637 C   0  0  0  0  0  0  0  0  0  0  0  0
  -19.3513   16.8695  -17.6228 C   0  0  0  0  0  0  0  0  0  0  0  0
  -20.4639   16.8008  -17.0433 O   0  0  0  0  0  0  0  0  0  0  0  0
  -18.3453   17.5471  -16.9479 O   0  0  0  0  0  0  0  0  0  0  0  0
  -17.7078   18.1946  -17.3879 H   0  0  0  0  0  0  0  0  0  0  0  0
  -18.4147   14.9289  -18.8463 C   0  0  0  0  0  0  0  0  0  0  0  0
  -18.8223   13.9742  -19.9436 C   0  0  0  0  0  0  0  0  0  0  0  0
  -17.9890   12.7462  -19.9435 C   0  0  0  0  0  0  0  0  0  0  0  0
  -17.4515   12.2246  -21.1136 C   0  0  0  0  0  0  0  0  0  0  0  0
  -16.6770   11.0862  -21.1480 C   0  0  0  0  0  0  0  0  0  0  0  0
  -16.4078   10.4125  -19.9727 C   0  0  0  0  0  0  0  0  0  0  0  0
  -16.9320   10.9093  -18.7815 C   0  0  0  0  0  0  0  0  0  0  0  0
  -17.7016   12.0494  -18.7842 C   0  0  0  0  0  0  0  0  0  0  0  0
  1  2  1  0  0  0
  2 19  1  0  0  0
 19 21  1  0  0  0
 21 26  1  0  0  0
 26 27  1  0  0  0
 27 28  1  0  0  0
 28 29  2  0  0  0
 29 30  1  0  0  0
 30 31  2  0  0  0
 31 32  1  0  0  0
 32 33  2  0  0  0
 21 22  1  0  0  0
 22 23  2  0  0  0
 22 24  1  0  0  0
  2  3  1  0  0  0
  3  4  2  0  0  0
  3  5  1  0  0  0
  5  6  1  0  0  0
  6  7  1  0  0  0
  7  8  2  0  0  0
  8  9  1  0  0  0
  9 10  2  0  0  0
 10 11  1  0  0  0
 11 12  2  0  0  0
 12 13  1  0  0  0
 13 14  1  0  0  0
 14 15  1  0  0  0
 15 16  2  0  0  0
 15 17  1  0  0  0
 33 28  1  0  0  0
 14  5  1  0  0  0
 12  7  1  0  0  0
 19 20  1  0  0  0
 24 25  1  0  0  0
 17 18  1  0  0  0
M  END
> <minimizedAffinity>
-6.71163

> <CNNscore>
0.1575176567

> <CNNaffinity>
5.1612515450

> <CNN_VS>
0.8129882216

> <CNNaffinity_variance>
0.1703510880

$$$$
[H]OC(=O)[C@@]1([H])N(C(=O)[C@@]([H])(N([H])[C@]([H])(C(=O)O[H])C([H])([H])C([H])([H])c2c([H])c([H])c([H])c([H])c2[H])C([H])([H])[H])C([H])([H])c2c([H])c([H])c([H])c([H])c2C1([H])[H]


 33 35  0  0  0  0  0  0  0  0999 V2000
  -18.9228   16.5167  -21.8633 C   0  0  0  0  0  0  0  0  0  0  0  0
  -17.9691   15.5543  -21.1377 C   0  0  0  0  0  0  0  0  0  0  0  0
  -16.7650   15.4574  -21.9675 C   0  0  0  0  0  0  0  0  0  0  0  0
  -15.8868   16.3731  -21.7957 O   0  0  0  0  0  0  0  0  0  0  0  0
  -16.4728   14.4679  -22.9301 N   0  0  0  0  0  0  0  0  0  0  0  0
  -15.2044   14.6014  -23.6839 C   0  0  0  0  0  0  0  0  0  0  0  0
  -15.5885   14.7062  -25.1404 C   0  0  0  0  0  0  0  0  0  0  0  0
  -15.1039   15.6663  -25.9875 C   0  0  0  0  0  0  0  0  0  0  0  0
  -15.5489   15.7003  -27.3190 C   0  0  0  0  0  0  0  0  0  0  0  0
  -16.4665   14.7555  -27.7261 C   0  0  0  0  0  0  0  0  0  0  0  0
  -16.9428   13.7853  -26.8347 C   0  0  0  0  0  0  0  0  0  0  0  0
  -16.5120   13.7436  -25.5282 C   0  0  0  0  0  0  0  0  0  0  0  0
  -16.9411   12.7353  -24.5608 C   0  0  0  0  0  0  0  0  0  0  0  0
  -17.2979   13.3343  -23.2381 C   0  0  0  0  0  0  0  0  0  0  0  0
  -17.2419   12.3100  -22.1548 C   0  0  0  0  0  0  0  0  0  0  0  0
  -18.2437   12.1118  -21.4489 O   0  0  0  0  0  0  0  0  0  0  0  0
  -16.0888   11.6067  -21.9581 O   0  0  0  0  0  0  0  0  0  0  0  0
  -15.7848   10.9850  -22.7056 H   0  0  0  0  0  0  0  0  0  0  0  0
  -17.7055   16.2022  -19.8575 N   0  0  0  0  0  0  0  0  0  0  0  0
  -17.4980   15.4267  -19.1779 H   0  0  0  0  0  0  0  0  0  0  0  0
  -18.9175   16.8441  -19.4039 C   0  0  0  0  0  0  0  0  0  0  0  0
  -18.6621   18.2551  -18.9903 C   0  0  0  0  0  0  0  0  0  0  0  0
  -19.4137   18.8613  -18.1866 O   0  0  0  0  0  0  0  0  0  0  0  0
  -17.5754   18.9689  -19.4764 O   0  0  0  0  0  0  0  0  0  0  0  0
  -17.2763   18.9540  -20.4405 H   0  0  0  0  0  0  0  0  0  0  0  0
  -19.5949   16.0637  -18.3062 C   0  0  0  0  0  0  0  0  0  0  0  0
  -18.6040   15.2983  -17.4612 C   0  0  0  0  0  0  0  0  0  0  0  0
  -18.9067   13.8457  -17.4365 C   0  0  0  0  0  0  0  0  0  0  0  0
  -19.9519   13.3272  -16.6824 C   0  0  0  0  0  0  0  0  0  0  0  0
  -20.2572   11.9849  -16.6356 C   0  0  0  0  0  0  0  0  0  0  0  0
  -19.5000   11.0907  -17.3669 C   0  0  0  0  0  0  0  0  0  0  0  0
  -18.4443   11.5783  -18.1339 C   0  0  0  0  0  0  0  0  0  0  0  0
  -18.1679   12.9255  -18.1572 C   0  0  0  0  0  0  0  0  0  0  0  0
  1  2  1  0  0  0
  2 19  1  0  0  0
 19 21  1  0  0  0
 21 26  1  0  0  0
 26 27  1  0  0  0
 27 28  1  0  0  0
 28 29  2  0  0  0
 29 30  1  0  0  0
 30 31  2  0  0  0
 31 32  1  0  0  0
 32 33  2  0  0  0
 21 22  1  0  0  0
 22 23  2  0  0  0
 22 24  1  0  0  0
  2  3  1  0  0  0
  3  4  2  0  0  0
  3  5  1  0  0  0
  5  6  1  0  0  0
  6  7  1  0  0  0
  7  8  2  0  0  0
  8  9  1  0  0  0
  9 10  2  0  0  0
 10 11  1  0  0  0
 11 12  2  0  0  0
 12 13  1  0  0  0
 13 14  1  0  0  0
 14 15  1  0  0  0
 15 16  2  0  0  0
 15 17  1  0  0  0
 33 28  1  0  0  0
 14  5  1  0  0  0
 12  7  1  0  0  0
 19 20  1  0  0  0
 24 25  1  0  0  0
 17 18  1  0  0  0
M  END
> <minimizedAffinity>
-8.16638

> <CNNscore>
0.1568403393

> <CNNaffinity>
5.7272243500

> <CNN_VS>
0.8982598186

> <CNNaffinity_variance>
0.1810764521

$$$$
[H]OC(=O)[C@@]1([H])N(C(=O)[C@@]([H])(N([H])[C@]([H])(C(=O)O[H])C([H])([H])C([H])([H])c2c([H])c([H])c([H])c([H])c2[H])C([H])([H])[H])C([H])([H])c2c([H])c([H])c([H])c([H])c2C1([H])[H]


 33 35  0  0  0  0  0  0  0  0999 V2000
  -19.6400   18.0303  -19.3926 C   0  0  0  0  0  0  0  0  0  0  0  0
  -19.8960   16.6475  -20.0127 C   0  0  0  0  0  0  0  0  0  0  0  0
  -19.5161   16.7479  -21.4246 C   0  0  0  0  0  0  0  0  0  0  0  0
  -20.4334   17.1359  -22.2290 O   0  0  0  0  0  0  0  0  0  0  0  0
  -18.2539   16.4639  -21.9880 N   0  0  0  0  0  0  0  0  0  0  0  0
  -18.1163   16.5952  -23.4573 C   0  0  0  0  0  0  0  0  0  0  0  0
  -17.7104   15.2328  -23.9662 C   0  0  0  0  0  0  0  0  0  0  0  0
  -18.3168   14.6027  -25.0194 C   0  0  0  0  0  0  0  0  0  0  0  0
  -17.8878   13.3196  -25.3960 C   0  0  0  0  0  0  0  0  0  0  0  0
  -16.8616   12.7377  -24.6828 C   0  0  0  0  0  0  0  0  0  0  0  0
  -16.2611   13.4092  -23.6098 C   0  0  0  0  0  0  0  0  0  0  0  0
  -16.6742   14.6671  -23.2339 C   0  0  0  0  0  0  0  0  0  0  0  0
  -16.0641   15.4347  -22.1498 C   0  0  0  0  0  0  0  0  0  0  0  0
  -17.0848   16.0644  -21.2569 C   0  0  0  0  0  0  0  0  0  0  0  0
  -16.4993   17.2086  -20.4992 C   0  0  0  0  0  0  0  0  0  0  0  0
  -16.1651   18.2374  -21.1081 O   0  0  0  0  0  0  0  0  0  0  0  0
  -16.3415   17.1049  -19.1475 O   0  0  0  0  0  0  0  0  0  0  0  0
  -17.1844   17.0247  -18.5812 H   0  0  0  0  0  0  0  0  0  0  0  0
  -19.0201   15.7489  -19.2687 N   0  0  0  0  0  0  0  0  0  0  0  0
  -18.6555   15.0544  -19.9694 H   0  0  0  0  0  0  0  0  0  0  0  0
  -19.8155   15.0073  -18.3179 C   0  0  0  0  0  0  0  0  0  0  0  0
  -19.3135   15.1974  -16.9254 C   0  0  0  0  0  0  0  0  0  0  0  0
  -19.4966   16.2657  -16.2902 O   0  0  0  0  0  0  0  0  0  0  0  0
  -18.6168   14.1970  -16.2618 O   0  0  0  0  0  0  0  0  0  0  0  0
  -17.8992   13.6301  -16.6897 H   0  0  0  0  0  0  0  0  0  0  0  0
  -19.9066   13.5453  -18.6745 C   0  0  0  0  0  0  0  0  0  0  0  0
  -19.3371   13.2598  -20.0441 C   0  0  0  0  0  0  0  0  0  0  0  0
  -18.2072   12.2998  -19.9820 C   0  0  0  0  0  0  0  0  0  0  0  0
  -17.7338   11.6502  -21.1151 C   0  0  0  0  0  0  0  0  0  0  0  0
  -16.6898   10.7521  -21.0911 C   0  0  0  0  0  0  0  0  0  0  0  0
  -16.0668   10.4674  -19.8917 C   0  0  0  0  0  0  0  0  0  0  0  0
  -16.5174   11.1020  -18.7364 C   0  0  0  0  0  0  0  0  0  0  0  0
  -17.5630   11.9936  -18.7974 C   0  0  0  0  0  0  0  0  0  0  0  0
  1  2  1  0  0  0
  2 19  1  0  0  0
 19 21  1  0  0  0
 21 26  1  0  0  0
 26 27  1  0  0  0
 27 28  1  0  0  0
 28 29  2  0  0  0
 29 30  1  0  0  0
 30 31  2  0  0  0
 31 32  1  0  0  0
 32 33  2  0  0  0
 21 22  1  0  0  0
 22 23  2  0  0  0
 22 24  1  0  0  0
  2  3  1  0  0  0
  3  4  2  0  0  0
  3  5  1  0  0  0
  5  6  1  0  0  0
  6  7  1  0  0  0
  7  8  2  0  0  0
  8  9  1  0  0  0
  9 10  2  0  0  0
 10 11  1  0  0  0
 11 12  2  0  0  0
 12 13  1  0  0  0
 13 14  1  0  0  0
 14 15  1  0  0  0
 15 16  2  0  0  0
 15 17  1  0  0  0
 33 28  1  0  0  0
 14  5  1  0  0  0
 12  7  1  0  0  0
 19 20  1  0  0  0
 24 25  1  0  0  0
 17 18  1  0  0  0
M  END
> <minimizedAffinity>
-8.47737

> <CNNscore>
0.1432515532

> <CNNaffinity>
5.2998881340

> <CNN_VS>
0.7592172027

> <CNNaffinity_variance>
0.7796357870

$$$$
[H]OC(=O)[C@@]1([H])N(c2nc(C#N)nc([H])c2[H])C([H])([H])[C@@]([H])(S(=O)(=O)c2c([H])c([H])c([H])c([H])c2C(F)(F)F)C1([H])[H]


 30 32  0  0  0  0  0  0  0  0999 V2000
  -18.0708   11.9858  -19.5852 N   0  0  0  0  0  0  0  0  0  0  0  0
  -17.9002   13.3369  -20.0751 C   0  0  0  0  0  0  0  0  0  0  0  0
  -18.0650   13.0902  -21.6002 C   0  0  0  0  0  0  0  0  0  0  0  0
  -17.1693   11.9352  -21.7742 C   0  0  0  0  0  0  0  0  0  0  0  0
  -17.3558   11.1295  -20.4741 C   0  0  0  0  0  0  0  0  0  0  0  0
  -19.4643   10.0627  -16.7985 C   0  0  0  0  0  0  0  0  0  0  0  0
  -20.2699   10.9591  -16.2020 N   0  0  0  0  0  0  0  0  0  0  0  0
  -20.3962   12.2245  -16.6767 C   0  0  0  0  0  0  0  0  0  0  0  0
  -19.6542   12.5317  -17.7984 C   0  0  0  0  0  0  0  0  0  0  0  0
  -18.8202   11.6340  -18.4312 C   0  0  0  0  0  0  0  0  0  0  0  0
  -18.7547   10.3968  -17.8917 N   0  0  0  0  0  0  0  0  0  0  0  0
  -19.2998    7.6547  -15.8129 N   0  0  0  0  0  0  0  0  0  0  0  0
  -19.3728    8.7407  -16.2499 C   0  0  0  0  0  0  0  0  0  0  0  0
  -16.0567   10.6798  -19.9529 C   0  0  0  0  0  0  0  0  0  0  0  0
  -15.2354   10.1353  -20.7174 O   0  0  0  0  0  0  0  0  0  0  0  0
  -15.7345   10.8533  -18.6250 O   0  0  0  0  0  0  0  0  0  0  0  0
  -15.4262   10.1003  -18.0153 H   0  0  0  0  0  0  0  0  0  0  0  0
  -17.5133   14.5881  -22.4518 S   0  0  0  0  0  0  0  0  0  0  0  0
  -18.6432   15.5575  -22.2655 O   0  0  0  0  0  0  0  0  0  0  0  0
  -16.3022   15.0004  -21.6902 O   0  0  0  0  0  0  0  0  0  0  0  0
  -17.2555   14.2673  -24.1340 C   0  0  0  0  0  0  0  0  0  0  0  0
  -17.7247   13.0838  -24.6315 C   0  0  0  0  0  0  0  0  0  0  0  0
  -17.5605   12.7984  -25.9694 C   0  0  0  0  0  0  0  0  0  0  0  0
  -16.9359   13.6763  -26.8178 C   0  0  0  0  0  0  0  0  0  0  0  0
  -16.4799   14.8531  -26.2798 C   0  0  0  0  0  0  0  0  0  0  0  0
  -16.6201   15.1936  -24.9262 C   0  0  0  0  0  0  0  0  0  0  0  0
  -16.0939   16.4757  -24.4580 C   0  0  0  0  0  0  0  0  0  0  0  0
  -15.0722   16.4060  -23.5391 F   0  0  0  0  0  0  0  0  0  0  0  0
  -17.0657   17.3855  -24.0933 F   0  0  0  0  0  0  0  0  0  0  0  0
  -15.4831   17.1026  -25.5580 F   0  0  0  0  0  0  0  0  0  0  0  0
 12 13  3  0  0  0
 13  6  1  0  0  0
  6  7  2  0  0  0
  7  8  1  0  0  0
  8  9  2  0  0  0
  9 10  1  0  0  0
 10  1  1  0  0  0
  1  2  1  0  0  0
  2  3  1  0  0  0
  3 18  1  0  0  0
 18 19  2  0  0  0
 18 20  2  0  0  0
 18 21  1  0  0  0
 21 22  2  0  0  0
 22 23  1  0  0  0
 23 24  2  0  0  0
 24 25  1  0  0  0
 25 26  2  0  0  0
 26 27  1  0  0  0
 27 28  1  0  0  0
 27 29  1  0  0  0
 27 30  1  0  0  0
  3  4  1  0  0  0
  4  5  1  0  0  0
  5 14  1  0  0  0
 14 15  2  0  0  0
 14 16  1  0  0  0
 10 11  2  0  0  0
 11  6  1  0  0  0
  5  1  1  0  0  0
 26 21  1  0  0  0
 16 17  1  0  0  0
M  END
> <minimizedAffinity>
-9.06033

> <CNNscore>
0.5335760117

> <CNNaffinity>
6.3571710587

> <CNN_VS>
3.3920340538

> <CNNaffinity_variance>
0.0454705060

$$$$
[H]OC(=O)[C@@]1([H])N(c2nc(C#N)nc([H])c2[H])C([H])([H])[C@@]([H])(S(=O)(=O)c2c([H])c([H])c([H])c([H])c2C(F)(F)F)C1([H])[H]


 30 32  0  0  0  0  0  0  0  0999 V2000
  -19.4744   13.7080  -18.3160 N   0  0  0  0  0  0  0  0  0  0  0  0
  -19.7212   14.4193  -19.5519 C   0  0  0  0  0  0  0  0  0  0  0  0
  -19.1066   15.8002  -19.1919 C   0  0  0  0  0  0  0  0  0  0  0  0
  -19.7202   16.0208  -17.8723 C   0  0  0  0  0  0  0  0  0  0  0  0
  -19.7691   14.6111  -17.2521 C   0  0  0  0  0  0  0  0  0  0  0  0
  -17.6122   10.6213  -18.9570 C   0  0  0  0  0  0  0  0  0  0  0  0
  -18.1556    9.7661  -18.0728 N   0  0  0  0  0  0  0  0  0  0  0  0
  -19.1483   10.1525  -17.2313 C   0  0  0  0  0  0  0  0  0  0  0  0
  -19.5615   11.4643  -17.3380 C   0  0  0  0  0  0  0  0  0  0  0  0
  -19.0233   12.3637  -18.2343 C   0  0  0  0  0  0  0  0  0  0  0  0
  -18.0400   11.8946  -19.0337 N   0  0  0  0  0  0  0  0  0  0  0  0
  -15.7049    9.7827  -20.5241 N   0  0  0  0  0  0  0  0  0  0  0  0
  -16.5662   10.1538  -19.8198 C   0  0  0  0  0  0  0  0  0  0  0  0
  -21.0703   14.3727  -16.6106 C   0  0  0  0  0  0  0  0  0  0  0  0
  -22.1201   14.7227  -17.1859 O   0  0  0  0  0  0  0  0  0  0  0  0
  -21.1443   13.7647  -15.3769 O   0  0  0  0  0  0  0  0  0  0  0  0
  -21.6365   14.1609  -14.5803 H   0  0  0  0  0  0  0  0  0  0  0  0
  -19.6392   16.9752  -20.4604 S   0  0  0  0  0  0  0  0  0  0  0  0
  -21.0041   16.4962  -20.8592 O   0  0  0  0  0  0  0  0  0  0  0  0
  -19.7012   18.2734  -19.7340 O   0  0  0  0  0  0  0  0  0  0  0  0
  -18.5590   16.9355  -21.8134 C   0  0  0  0  0  0  0  0  0  0  0  0
  -19.0672   16.5338  -23.0170 C   0  0  0  0  0  0  0  0  0  0  0  0
  -18.2477   16.5089  -24.1244 C   0  0  0  0  0  0  0  0  0  0  0  0
  -16.9295   16.8793  -24.0485 C   0  0  0  0  0  0  0  0  0  0  0  0
  -16.4582   17.2765  -22.8229 C   0  0  0  0  0  0  0  0  0  0  0  0
  -17.2479   17.3203  -21.6643 C   0  0  0  0  0  0  0  0  0  0  0  0
  -16.6415   17.7583  -20.4073 C   0  0  0  0  0  0  0  0  0  0  0  0
  -16.4508   16.7795  -19.4593 F   0  0  0  0  0  0  0  0  0  0  0  0
  -17.2065   18.8999  -19.8755 F   0  0  0  0  0  0  0  0  0  0  0  0
  -15.3298   18.1715  -20.6986 F   0  0  0  0  0  0  0  0  0  0  0  0
 12 13  3  0  0  0
 13  6  1  0  0  0
  6  7  2  0  0  0
  7  8  1  0  0  0
  8  9  2  0  0  0
  9 10  1  0  0  0
 10  1  1  0  0  0
  1  2  1  0  0  0
  2  3  1  0  0  0
  3 18  1  0  0  0
 18 19  2  0  0  0
 18 20  2  0  0  0
 18 21  1  0  0  0
 21 22  2  0  0  0
 22 23  1  0  0  0
 23 24  2  0  0  0
 24 25  1  0  0  0
 25 26  2  0  0  0
 26 27  1  0  0  0
 27 28  1  0  0  0
 27 29  1  0  0  0
 27 30  1  0  0  0
  3  4  1  0  0  0
  4  5  1  0  0  0
  5 14  1  0  0  0
 14 15  2  0  0  0
 14 16  1  0  0  0
 10 11  2  0  0  0
 11  6  1  0  0  0
  5  1  1  0  0  0
 26 21  1  0  0  0
 16 17  1  0  0  0
M  END
> <minimizedAffinity>
-7.41465

> <CNNscore>
0.4448628128

> <CNNaffinity>
6.2157173157

> <CNN_VS>
2.7651414871

> <CNNaffinity_variance>
0.0825735852

$$$$
[H]OC(=O)[C@@]1([H])N(c2nc(C#N)nc([H])c2[H])C([H])([H])[C@@]([H])(S(=O)(=O)c2c([H])c([H])c([H])c([H])c2C(F)(F)F)C1([H])[H]


 30 32  0  0  0  0  0  0  0  0999 V2000
  -18.1711   11.8389  -19.2596 N   0  0  0  0  0  0  0  0  0  0  0  0
  -18.0551   13.2324  -19.6326 C   0  0  0  0  0  0  0  0  0  0  0  0
  -18.2579   13.1150  -21.1685 C   0  0  0  0  0  0  0  0  0  0  0  0
  -17.3342   12.0089  -21.4681 C   0  0  0  0  0  0  0  0  0  0  0  0
  -17.4580   11.0869  -20.2397 C   0  0  0  0  0  0  0  0  0  0  0  0
  -20.3672   11.7147  -16.3325 C   0  0  0  0  0  0  0  0  0  0  0  0
  -20.2328   10.4408  -15.9233 N   0  0  0  0  0  0  0  0  0  0  0  0
  -19.4254    9.5676  -16.5778 C   0  0  0  0  0  0  0  0  0  0  0  0
  -18.7572   10.0629  -17.6784 C   0  0  0  0  0  0  0  0  0  0  0  0
  -18.8751   11.3636  -18.1214 C   0  0  0  0  0  0  0  0  0  0  0  0
  -19.6999   12.1642  -17.4109 N   0  0  0  0  0  0  0  0  0  0  0  0
  -21.9360   13.3079  -14.9919 N   0  0  0  0  0  0  0  0  0  0  0  0
  -21.2354   12.5899  -15.5995 C   0  0  0  0  0  0  0  0  0  0  0  0
  -16.1312   10.6352  -19.7956 C   0  0  0  0  0  0  0  0  0  0  0  0
  -15.4193    9.9530  -20.5595 O   0  0  0  0  0  0  0  0  0  0  0  0
  -15.6630   10.9577  -18.5410 O   0  0  0  0  0  0  0  0  0  0  0  0
  -15.3240   10.2722  -17.8710 H   0  0  0  0  0  0  0  0  0  0  0  0
  -17.7763   14.6985  -21.8991 S   0  0  0  0  0  0  0  0  0  0  0  0
  -18.9888   15.5667  -21.7338 O   0  0  0  0  0  0  0  0  0  0  0  0
  -16.6501   15.1551  -21.0389 O   0  0  0  0  0  0  0  0  0  0  0  0
  -17.3925   14.4992  -23.5761 C   0  0  0  0  0  0  0  0  0  0  0  0
  -17.6180   13.2725  -24.1352 C   0  0  0  0  0  0  0  0  0  0  0  0
  -17.3474   13.0768  -25.4720 C   0  0  0  0  0  0  0  0  0  0  0  0
  -16.8560   14.0869  -26.2587 C   0  0  0  0  0  0  0  0  0  0  0  0
  -16.6440   15.3029  -25.6599 C   0  0  0  0  0  0  0  0  0  0  0  0
  -16.9016   15.5564  -24.3045 C   0  0  0  0  0  0  0  0  0  0  0  0
  -16.6367   16.8914  -23.7686 C   0  0  0  0  0  0  0  0  0  0  0  0
  -15.6042   16.9812  -22.8634 F   0  0  0  0  0  0  0  0  0  0  0  0
  -17.7651   17.5639  -23.3447 F   0  0  0  0  0  0  0  0  0  0  0  0
  -16.1869   17.6878  -24.8361 F   0  0  0  0  0  0  0  0  0  0  0  0
 12 13  3  0  0  0
 13  6  1  0  0  0
  6  7  2  0  0  0
  7  8  1  0  0  0
  8  9  2  0  0  0
  9 10  1  0  0  0
 10  1  1  0  0  0
  1  2  1  0  0  0
  2  3  1  0  0  0
  3 18  1  0  0  0
 18 19  2  0  0  0
 18 20  2  0  0  0
 18 21  1  0  0  0
 21 22  2  0  0  0
 22 23  1  0  0  0
 23 24  2  0  0  0
 24 25  1  0  0  0
 25 26  2  0  0  0
 26 27  1  0  0  0
 27 28  1  0  0  0
 27 29  1  0  0  0
 27 30  1  0  0  0
  3  4  1  0  0  0
  4  5  1  0  0  0
  5 14  1  0  0  0
 14 15  2  0  0  0
 14 16  1  0  0  0
 10 11  2  0  0  0
 11  6  1  0  0  0
  5  1  1  0  0  0
 26 21  1  0  0  0
 16 17  1  0  0  0
M  END
> <minimizedAffinity>
-8.92779

> <CNNscore>
0.4416763783

> <CNNaffinity>
6.2749228477

> <CNN_VS>
2.7714850903

> <CNNaffinity_variance>
0.0650496334

$$$$
[H]OC(=O)[C@@]1([H])N(c2nc(C#N)nc([H])c2[H])C([H])([H])[C@@]([H])(S(=O)(=O)c2c([H])c([H])c([H])c([H])c2C(F)(F)F)C1([H])[H]


 30 32  0  0  0  0  0  0  0  0999 V2000
  -17.8060   11.7722  -19.6616 N   0  0  0  0  0  0  0  0  0  0  0  0
  -17.6489   13.1915  -19.8968 C   0  0  0  0  0  0  0  0  0  0  0  0
  -17.9236   13.2403  -21.4252 C   0  0  0  0  0  0  0  0  0  0  0  0
  -17.0605   12.1377  -21.8791 C   0  0  0  0  0  0  0  0  0  0  0  0
  -17.1684   11.0994  -20.7457 C   0  0  0  0  0  0  0  0  0  0  0  0
  -19.9967   11.3901  -16.7528 C   0  0  0  0  0  0  0  0  0  0  0  0
  -19.7748   10.1148  -16.3884 N   0  0  0  0  0  0  0  0  0  0  0  0
  -18.9063    9.3242  -17.0690 C   0  0  0  0  0  0  0  0  0  0  0  0
  -18.2711    9.9041  -18.1476 C   0  0  0  0  0  0  0  0  0  0  0  0
  -18.4784   11.2084  -18.5448 C   0  0  0  0  0  0  0  0  0  0  0  0
  -19.3593   11.9235  -17.8108 N   0  0  0  0  0  0  0  0  0  0  0  0
  -21.6894   12.8079  -15.3665 N   0  0  0  0  0  0  0  0  0  0  0  0
  -20.9263   12.1757  -15.9939 C   0  0  0  0  0  0  0  0  0  0  0  0
  -15.8432   10.5559  -20.4137 C   0  0  0  0  0  0  0  0  0  0  0  0
  -15.3980   10.6689  -19.2542 O   0  0  0  0  0  0  0  0  0  0  0  0
  -15.0845    9.9206  -21.3719 O   0  0  0  0  0  0  0  0  0  0  0  0
  -14.1261   10.1765  -21.5948 H   0  0  0  0  0  0  0  0  0  0  0  0
  -17.4094   14.8719  -22.0141 S   0  0  0  0  0  0  0  0  0  0  0  0
  -18.6780   15.5054  -22.5045 O   0  0  0  0  0  0  0  0  0  0  0  0
  -16.8962   15.5430  -20.7882 O   0  0  0  0  0  0  0  0  0  0  0  0
  -16.2662   14.7161  -23.3056 C   0  0  0  0  0  0  0  0  0  0  0  0
  -14.9526   14.9644  -23.0211 C   0  0  0  0  0  0  0  0  0  0  0  0
  -14.0069   14.8306  -24.0142 C   0  0  0  0  0  0  0  0  0  0  0  0
  -14.3525   14.4521  -25.2862 C   0  0  0  0  0  0  0  0  0  0  0  0
  -15.6809   14.2116  -25.5309 C   0  0  0  0  0  0  0  0  0  0  0  0
  -16.6840   14.3331  -24.5578 C   0  0  0  0  0  0  0  0  0  0  0  0
  -18.0711   14.0541  -24.9289 C   0  0  0  0  0  0  0  0  0  0  0  0
  -18.9499   15.1053  -24.8019 F   0  0  0  0  0  0  0  0  0  0  0  0
  -18.5736   12.8839  -24.3966 F   0  0  0  0  0  0  0  0  0  0  0  0
  -18.0896   13.7962  -26.3106 F   0  0  0  0  0  0  0  0  0  0  0  0
 12 13  3  0  0  0
 13  6  1  0  0  0
  6  7  2  0  0  0
  7  8  1  0  0  0
  8  9  2  0  0  0
  9 10  1  0  0  0
 10  1  1  0  0  0
  1  2  1  0  0  0
  2  3  1  0  0  0
  3 18  1  0  0  0
 18 19  2  0  0  0
 18 20  2  0  0  0
 18 21  1  0  0  0
 21 22  2  0  0  0
 22 23  1  0  0  0
 23 24  2  0  0  0
 24 25  1  0  0  0
 25 26  2  0  0  0
 26 27  1  0  0  0
 27 28  1  0  0  0
 27 29  1  0  0  0
 27 30  1  0  0  0
  3  4  1  0  0  0
  4  5  1  0  0  0
  5 14  1  0  0  0
 14 15  2  0  0  0
 14 16  1  0  0  0
 10 11  2  0  0  0
 11  6  1  0  0  0
  5  1  1  0  0  0
 26 21  1  0  0  0
 16 17  1  0  0  0
M  END
> <minimizedAffinity>
-8.14853

> <CNNscore>
0.3785249591

> <CNNaffinity>
6.0296273232

> <CNN_VS>
2.2823643684

> <CNNaffinity_variance>
0.1635775566

$$$$
[H]OC(=O)[C@@]1([H])N(c2nc(C#N)nc([H])c2[H])C([H])([H])[C@@]([H])(S(=O)(=O)c2c([H])c([H])c([H])c([H])c2C(F)(F)F)C1([H])[H]


 30 32  0  0  0  0  0  0  0  0999 V2000
  -17.8360   12.3642  -20.1730 N   0  0  0  0  0  0  0  0  0  0  0  0
  -17.3027   13.5737  -20.7622 C   0  0  0  0  0  0  0  0  0  0  0  0
  -17.3616   13.1861  -22.2656 C   0  0  0  0  0  0  0  0  0  0  0  0
  -16.7495   11.8486  -22.2127 C   0  0  0  0  0  0  0  0  0  0  0  0
  -17.2541   11.2687  -20.8772 C   0  0  0  0  0  0  0  0  0  0  0  0
  -19.6686   11.2747  -17.1963 C   0  0  0  0  0  0  0  0  0  0  0  0
  -20.5550   12.2708  -17.0211 N   0  0  0  0  0  0  0  0  0  0  0  0
  -20.5972   13.3376  -17.8594 C   0  0  0  0  0  0  0  0  0  0  0  0
  -19.6831   13.3372  -18.8926 C   0  0  0  0  0  0  0  0  0  0  0  0
  -18.7628   12.3307  -19.0973 C   0  0  0  0  0  0  0  0  0  0  0  0
  -18.7910   11.3071  -18.2155 N   0  0  0  0  0  0  0  0  0  0  0  0
  -19.6685    9.2673  -15.5329 N   0  0  0  0  0  0  0  0  0  0  0  0
  -19.6731   10.1738  -16.2771 C   0  0  0  0  0  0  0  0  0  0  0  0
  -16.1585   10.6084  -20.1526 C   0  0  0  0  0  0  0  0  0  0  0  0
  -15.2421   10.0490  -20.7874 O   0  0  0  0  0  0  0  0  0  0  0  0
  -16.1318   10.6001  -18.7755 O   0  0  0  0  0  0  0  0  0  0  0  0
  -16.0458    9.7547  -18.2171 H   0  0  0  0  0  0  0  0  0  0  0  0
  -16.3879   14.4089  -23.1767 S   0  0  0  0  0  0  0  0  0  0  0  0
  -16.9756   15.7281  -22.7697 O   0  0  0  0  0  0  0  0  0  0  0  0
  -15.0098   14.2309  -22.6418 O   0  0  0  0  0  0  0  0  0  0  0  0
  -16.5560   14.1663  -24.8831 C   0  0  0  0  0  0  0  0  0  0  0  0
  -17.5115   13.2850  -25.3057 C   0  0  0  0  0  0  0  0  0  0  0  0
  -17.6938   13.0789  -26.6558 C   0  0  0  0  0  0  0  0  0  0  0  0
  -16.9376   13.7394  -27.5899 C   0  0  0  0  0  0  0  0  0  0  0  0
  -15.9899   14.6158  -27.1251 C   0  0  0  0  0  0  0  0  0  0  0  0
  -15.7623   14.8627  -25.7631 C   0  0  0  0  0  0  0  0  0  0  0  0
  -14.7228   15.8172  -25.3782 C   0  0  0  0  0  0  0  0  0  0  0  0
  -13.6416   15.2905  -24.7098 F   0  0  0  0  0  0  0  0  0  0  0  0
  -15.2031   16.9632  -24.7771 F   0  0  0  0  0  0  0  0  0  0  0  0
  -14.1486   16.3092  -26.5633 F   0  0  0  0  0  0  0  0  0  0  0  0
 12 13  3  0  0  0
 13  6  1  0  0  0
  6  7  2  0  0  0
  7  8  1  0  0  0
  8  9  2  0  0  0
  9 10  1  0  0  0
 10  1  1  0  0  0
  1  2  1  0  0  0
  2  3  1  0  0  0
  3 18  1  0  0  0
 18 19  2  0  0  0
 18 20  2  0  0  0
 18 21  1  0  0  0
 21 22  2  0  0  0
 22 23  1  0  0  0
 23 24  2  0  0  0
 24 25  1  0  0  0
 25 26  2  0  0  0
 26 27  1  0  0  0
 27 28  1  0  0  0
 27 29  1  0  0  0
 27 30  1  0  0  0
  3  4  1  0  0  0
  4  5  1  0  0  0
  5 14  1  0  0  0
 14 15  2  0  0  0
 14 16  1  0  0  0
 10 11  2  0  0  0
 11  6  1  0  0  0
  5  1  1  0  0  0
 26 21  1  0  0  0
 16 17  1  0  0  0
M  END
> <minimizedAffinity>
-8.48424

> <CNNscore>
0.2752262056

> <CNNaffinity>
6.1125612259

> <CNN_VS>
1.6823370457

> <CNNaffinity_variance>
0.0673506632

$$$$
[H]OC(=O)[C@@]1([H])N(c2nc(C#N)nc([H])c2[H])C([H])([H])[C@@]([H])(S(=O)(=O)c2c([H])c([H])c([H])c([H])c2C(F)(F)F)C1([H])[H]


 30 32  0  0  0  0  0  0  0  0999 V2000
  -18.4968   14.6828  -21.0933 N   0  0  0  0  0  0  0  0  0  0  0  0
  -18.0949   14.2936  -19.7586 C   0  0  0  0  0  0  0  0  0  0  0  0
  -19.3430   13.4716  -19.3335 C   0  0  0  0  0  0  0  0  0  0  0  0
  -20.4130   14.4006  -19.7312 C   0  0  0  0  0  0  0  0  0  0  0  0
  -19.8738   15.0477  -21.0216 C   0  0  0  0  0  0  0  0  0  0  0  0
  -17.0459   13.8617  -24.3532 C   0  0  0  0  0  0  0  0  0  0  0  0
  -15.9845   14.6852  -24.4136 N   0  0  0  0  0  0  0  0  0  0  0  0
  -15.6933   15.5414  -23.4013 C   0  0  0  0  0  0  0  0  0  0  0  0
  -16.5453   15.5152  -22.3167 C   0  0  0  0  0  0  0  0  0  0  0  0
  -17.6409   14.6823  -22.2266 C   0  0  0  0  0  0  0  0  0  0  0  0
  -17.8563   13.8627  -23.2792 N   0  0  0  0  0  0  0  0  0  0  0  0
  -17.5226   12.2556  -26.3507 N   0  0  0  0  0  0  0  0  0  0  0  0
  -17.3018   12.9794  -25.4546 C   0  0  0  0  0  0  0  0  0  0  0  0
  -20.1062   16.4994  -21.0088 C   0  0  0  0  0  0  0  0  0  0  0  0
  -20.2197   17.1199  -22.0848 O   0  0  0  0  0  0  0  0  0  0  0  0
  -20.2005   17.1852  -19.8180 O   0  0  0  0  0  0  0  0  0  0  0  0
  -19.6385   18.0012  -19.5900 H   0  0  0  0  0  0  0  0  0  0  0  0
  -19.2270   13.1984  -17.5488 S   0  0  0  0  0  0  0  0  0  0  0  0
  -17.8711   13.7252  -17.1808 O   0  0  0  0  0  0  0  0  0  0  0  0
  -20.3172   14.0454  -16.9913 O   0  0  0  0  0  0  0  0  0  0  0  0
  -19.3443   11.5090  -17.1866 C   0  0  0  0  0  0  0  0  0  0  0  0
  -20.2677   11.1243  -16.2551 C   0  0  0  0  0  0  0  0  0  0  0  0
  -20.4094    9.7875  -15.9531 C   0  0  0  0  0  0  0  0  0  0  0  0
  -19.6442    8.8293  -16.5671 C   0  0  0  0  0  0  0  0  0  0  0  0
  -18.7296    9.2562  -17.4963 C   0  0  0  0  0  0  0  0  0  0  0  0
  -18.5439   10.6033  -17.8410 C   0  0  0  0  0  0  0  0  0  0  0  0
  -17.5372   10.9474  -18.8449 C   0  0  0  0  0  0  0  0  0  0  0  0
  -16.5182   11.7672  -18.4173 F   0  0  0  0  0  0  0  0  0  0  0  0
  -18.0624   11.3522  -20.0555 F   0  0  0  0  0  0  0  0  0  0  0  0
  -16.8632    9.7611  -19.1835 F   0  0  0  0  0  0  0  0  0  0  0  0
 12 13  3  0  0  0
 13  6  1  0  0  0
  6  7  2  0  0  0
  7  8  1  0  0  0
  8  9  2  0  0  0
  9 10  1  0  0  0
 10  1  1  0  0  0
  1  2  1  0  0  0
  2  3  1  0  0  0
  3 18  1  0  0  0
 18 19  2  0  0  0
 18 20  2  0  0  0
 18 21  1  0  0  0
 21 22  2  0  0  0
 22 23  1  0  0  0
 23 24  2  0  0  0
 24 25  1  0  0  0
 25 26  2  0  0  0
 26 27  1  0  0  0
 27 28  1  0  0  0
 27 29  1  0  0  0
 27 30  1  0  0  0
  3  4  1  0  0  0
  4  5  1  0  0  0
  5 14  1  0  0  0
 14 15  2  0  0  0
 14 16  1  0  0  0
 10 11  2  0  0  0
 11  6  1  0  0  0
  5  1  1  0  0  0
 26 21  1  0  0  0
 16 17  1  0  0  0
M  END
> <minimizedAffinity>
-8.12275

> <CNNscore>
0.2578125596

> <CNNaffinity>
5.9852905273

> <CNN_VS>
1.5430830717

> <CNNaffinity_variance>
0.1642357707

$$$$
[H]OC(=O)[C@@]1([H])N(c2nc(C#N)nc([H])c2[H])C([H])([H])[C@@]([H])(S(=O)(=O)c2c([H])c([H])c([H])c([H])c2C(F)(F)F)C1([H])[H]


 30 32  0  0  0  0  0  0  0  0999 V2000
  -18.0375   14.7126  -20.9449 N   0  0  0  0  0  0  0  0  0  0  0  0
  -16.8358   14.9883  -21.7026 C   0  0  0  0  0  0  0  0  0  0  0  0
  -17.0455   14.0175  -22.8975 C   0  0  0  0  0  0  0  0  0  0  0  0
  -17.4069   12.7886  -22.1725 C   0  0  0  0  0  0  0  0  0  0  0  0
  -18.2318   13.2999  -20.9757 C   0  0  0  0  0  0  0  0  0  0  0  0
  -20.8672   16.8752  -20.0950 C   0  0  0  0  0  0  0  0  0  0  0  0
  -20.3759   17.6105  -19.0818 N   0  0  0  0  0  0  0  0  0  0  0  0
  -19.1074   17.4373  -18.6307 C   0  0  0  0  0  0  0  0  0  0  0  0
  -18.3600   16.4697  -19.2696 C   0  0  0  0  0  0  0  0  0  0  0  0
  -18.8365   15.7007  -20.3105 C   0  0  0  0  0  0  0  0  0  0  0  0
  -20.1097   15.9394  -20.6954 N   0  0  0  0  0  0  0  0  0  0  0  0
  -23.3136   17.2995  -20.8898 N   0  0  0  0  0  0  0  0  0  0  0  0
  -22.2154   17.1046  -20.5271 C   0  0  0  0  0  0  0  0  0  0  0  0
  -17.8284   12.6153  -19.7387 C   0  0  0  0  0  0  0  0  0  0  0  0
  -18.4547   12.8241  -18.6805 O   0  0  0  0  0  0  0  0  0  0  0  0
  -16.7628   11.7426  -19.7344 O   0  0  0  0  0  0  0  0  0  0  0  0
  -15.9748   11.8162  -19.0962 H   0  0  0  0  0  0  0  0  0  0  0  0
  -15.4755   13.9140  -23.7907 S   0  0  0  0  0  0  0  0  0  0  0  0
  -14.5596   14.8333  -23.0376 O   0  0  0  0  0  0  0  0  0  0  0  0
  -15.0753   12.4884  -23.6353 O   0  0  0  0  0  0  0  0  0  0  0  0
  -15.6726   14.4530  -25.4247 C   0  0  0  0  0  0  0  0  0  0  0  0
  -14.8567   15.4587  -25.8618 C   0  0  0  0  0  0  0  0  0  0  0  0
  -14.9649   15.9026  -27.1618 C   0  0  0  0  0  0  0  0  0  0  0  0
  -15.8744   15.3575  -28.0315 C   0  0  0  0  0  0  0  0  0  0  0  0
  -16.6742   14.3501  -27.5543 C   0  0  0  0  0  0  0  0  0  0  0  0
  -16.6063   13.8609  -26.2413 C   0  0  0  0  0  0  0  0  0  0  0  0
  -17.5096   12.7837  -25.8370 C   0  0  0  0  0  0  0  0  0  0  0  0
  -18.7089   13.1790  -25.2905 F   0  0  0  0  0  0  0  0  0  0  0  0
  -16.9035   11.7841  -25.1032 F   0  0  0  0  0  0  0  0  0  0  0  0
  -17.9053   12.1103  -27.0058 F   0  0  0  0  0  0  0  0  0  0  0  0
 12 13  3  0  0  0
 13  6  1  0  0  0
  6  7  2  0  0  0
  7  8  1  0  0  0
  8  9  2  0  0  0
  9 10  1  0  0  0
 10  1  1  0  0  0
  1  2  1  0  0  0
  2  3  1  0  0  0
  3 18  1  0  0  0
 18 19  2  0  0  0
 18 20  2  0  0  0
 18 21  1  0  0  0
 21 22  2  0  0  0
 22 23  1  0  0  0
 23 24  2  0  0  0
 24 25  1  0  0  0
 25 26  2  0  0  0
 26 27  1  0  0  0
 27 28  1  0  0  0
 27 29  1  0  0  0
 27 30  1  0  0  0
  3  4  1  0  0  0
  4  5  1  0  0  0
  5 14  1  0  0  0
 14 15  2  0  0  0
 14 16  1  0  0  0
 10 11  2  0  0  0
 11  6  1  0  0  0
  5  1  1  0  0  0
 26 21  1  0  0  0
 16 17  1  0  0  0
M  END
> <minimizedAffinity>
-8.00939

> <CNNscore>
0.2406730950

> <CNNaffinity>
5.8901877403

> <CNN_VS>
1.4176096916

> <CNNaffinity_variance>
0.1761737317

$$$$
[H]OC(=O)[C@@]1([H])N(c2nc(C#N)nc([H])c2[H])C([H])([H])[C@@]([H])(S(=O)(=O)c2c([H])c([H])c([H])c([H])c2C(F)(F)F)C1([H])[H]


 30 32  0  0  0  0  0  0  0  0999 V2000
  -18.4672   13.7410  -20.3657 N   0  0  0  0  0  0  0  0  0  0  0  0
  -17.3813   14.3009  -21.1413 C   0  0  0  0  0  0  0  0  0  0  0  0
  -17.4411   13.3772  -22.3892 C   0  0  0  0  0  0  0  0  0  0  0  0
  -17.5126   12.0610  -21.7342 C   0  0  0  0  0  0  0  0  0  0  0  0
  -18.3710   12.3226  -20.4816 C   0  0  0  0  0  0  0  0  0  0  0  0
  -19.9914   15.9131  -17.8427 C   0  0  0  0  0  0  0  0  0  0  0  0
  -21.2701   15.9813  -18.2535 N   0  0  0  0  0  0  0  0  0  0  0  0
  -21.6933   15.3269  -19.3649 C   0  0  0  0  0  0  0  0  0  0  0  0
  -20.7398   14.5942  -20.0410 C   0  0  0  0  0  0  0  0  0  0  0  0
  -19.4221   14.5057  -19.6440 C   0  0  0  0  0  0  0  0  0  0  0  0
  -19.0875   15.1885  -18.5269 N   0  0  0  0  0  0  0  0  0  0  0  0
  -19.2766   17.2117  -15.6981 N   0  0  0  0  0  0  0  0  0  0  0  0
  -19.6046   16.6267  -16.6604 C   0  0  0  0  0  0  0  0  0  0  0  0
  -17.7828   11.6666  -19.3046 C   0  0  0  0  0  0  0  0  0  0  0  0
  -16.5775   11.3458  -19.3097 O   0  0  0  0  0  0  0  0  0  0  0  0
  -18.5499   11.4011  -18.1919 O   0  0  0  0  0  0  0  0  0  0  0  0
  -18.6295   10.4808  -17.7670 H   0  0  0  0  0  0  0  0  0  0  0  0
  -15.9238   13.6502  -23.3359 S   0  0  0  0  0  0  0  0  0  0  0  0
  -15.3791   14.9408  -22.7987 O   0  0  0  0  0  0  0  0  0  0  0  0
  -15.0643   12.4923  -22.9651 O   0  0  0  0  0  0  0  0  0  0  0  0
  -16.2819   13.7946  -25.0241 C   0  0  0  0  0  0  0  0  0  0  0  0
  -17.2399   12.9677  -25.5406 C   0  0  0  0  0  0  0  0  0  0  0  0
  -17.5716   13.0647  -26.8745 C   0  0  0  0  0  0  0  0  0  0  0  0
  -16.9621   13.9746  -27.6998 C   0  0  0  0  0  0  0  0  0  0  0  0
  -16.0065   14.7864  -27.1430 C   0  0  0  0  0  0  0  0  0  0  0  0
  -15.6305   14.7296  -25.7927 C   0  0  0  0  0  0  0  0  0  0  0  0
  -14.5969   15.6421  -25.3042 C   0  0  0  0  0  0  0  0  0  0  0  0
  -13.5072   15.0510  -24.7072 F   0  0  0  0  0  0  0  0  0  0  0  0
  -15.0833   16.7056  -24.5709 F   0  0  0  0  0  0  0  0  0  0  0  0
  -14.0341   16.2743  -26.4265 F   0  0  0  0  0  0  0  0  0  0  0  0
 12 13  3  0  0  0
 13  6  1  0  0  0
  6  7  2  0  0  0
  7  8  1  0  0  0
  8  9  2  0  0  0
  9 10  1  0  0  0
 10  1  1  0  0  0
  1  2  1  0  0  0
  2  3  1  0  0  0
  3 18  1  0  0  0
 18 19  2  0  0  0
 18 20  2  0  0  0
 18 21  1  0  0  0
 21 22  2  0  0  0
 22 23  1  0  0  0
 23 24  2  0  0  0
 24 25  1  0  0  0
 25 26  2  0  0  0
 26 27  1  0  0  0
 27 28  1  0  0  0
 27 29  1  0  0  0
 27 30  1  0  0  0
  3  4  1  0  0  0
  4  5  1  0  0  0
  5 14  1  0  0  0
 14 15  2  0  0  0
 14 16  1  0  0  0
 10 11  2  0  0  0
 11  6  1  0  0  0
  5  1  1  0  0  0
 26 21  1  0  0  0
 16 17  1  0  0  0
M  END
> <minimizedAffinity>
-8.16093

> <CNNscore>
0.2091244459

> <CNNaffinity>
6.0182137489

> <CNN_VS>
1.2585556507

> <CNNaffinity_variance>
0.1839243174

$$$$
[H]OC(=O)[C@@]1([H])N(c2nc(C#N)nc([H])c2[H])C([H])([H])[C@@]([H])(S(=O)(=O)c2c([H])c([H])c([H])c([H])c2C(F)(F)F)C1([H])[H]


 30 32  0  0  0  0  0  0  0  0999 V2000
  -17.5306   15.7751  -21.7986 N   0  0  0  0  0  0  0  0  0  0  0  0
  -17.5813   14.7699  -20.7587 C   0  0  0  0  0  0  0  0  0  0  0  0
  -19.0281   14.9964  -20.2394 C   0  0  0  0  0  0  0  0  0  0  0  0
  -19.0254   16.4612  -20.0952 C   0  0  0  0  0  0  0  0  0  0  0  0
  -18.1623   16.9429  -21.2773 C   0  0  0  0  0  0  0  0  0  0  0  0
  -16.7340   14.3480  -25.0751 C   0  0  0  0  0  0  0  0  0  0  0  0
  -15.8244   15.2144  -25.5550 N   0  0  0  0  0  0  0  0  0  0  0  0
  -15.4301   16.2976  -24.8382 C   0  0  0  0  0  0  0  0  0  0  0  0
  -16.0146   16.4536  -23.5984 C   0  0  0  0  0  0  0  0  0  0  0  0
  -16.9496   15.5823  -23.0802 C   0  0  0  0  0  0  0  0  0  0  0  0
  -17.2840   14.5313  -23.8609 N   0  0  0  0  0  0  0  0  0  0  0  0
  -17.4121   12.3064  -26.5477 N   0  0  0  0  0  0  0  0  0  0  0  0
  -17.1103   13.2220  -25.8798 C   0  0  0  0  0  0  0  0  0  0  0  0
  -17.2217   17.9852  -20.8407 C   0  0  0  0  0  0  0  0  0  0  0  0
  -16.1186   17.6631  -20.3561 O   0  0  0  0  0  0  0  0  0  0  0  0
  -17.5456   19.3185  -20.9612 O   0  0  0  0  0  0  0  0  0  0  0  0
  -17.5128   19.9798  -20.1896 H   0  0  0  0  0  0  0  0  0  0  0  0
  -19.1868   14.1001  -18.6759 S   0  0  0  0  0  0  0  0  0  0  0  0
  -18.3711   14.9020  -17.7049 O   0  0  0  0  0  0  0  0  0  0  0  0
  -20.6419   14.1794  -18.3707 O   0  0  0  0  0  0  0  0  0  0  0  0
  -18.5498   12.4971  -18.8302 C   0  0  0  0  0  0  0  0  0  0  0  0
  -17.7372   12.2395  -19.8987 C   0  0  0  0  0  0  0  0  0  0  0  0
  -17.1910   10.9832  -20.0474 C   0  0  0  0  0  0  0  0  0  0  0  0
  -17.4431    9.9812  -19.1458 C   0  0  0  0  0  0  0  0  0  0  0  0
  -18.2629   10.2803  -18.0872 C   0  0  0  0  0  0  0  0  0  0  0  0
  -18.8452   11.5409  -17.8881 C   0  0  0  0  0  0  0  0  0  0  0  0
  -19.7066   11.7498  -16.7245 C   0  0  0  0  0  0  0  0  0  0  0  0
  -21.0575   11.8066  -16.9797 F   0  0  0  0  0  0  0  0  0  0  0  0
  -19.2884   12.7643  -15.8872 F   0  0  0  0  0  0  0  0  0  0  0  0
  -19.5900   10.6105  -15.9092 F   0  0  0  0  0  0  0  0  0  0  0  0
 12 13  3  0  0  0
 13  6  1  0  0  0
  6  7  2  0  0  0
  7  8  1  0  0  0
  8  9  2  0  0  0
  9 10  1  0  0  0
 10  1  1  0  0  0
  1  2  1  0  0  0
  2  3  1  0  0  0
  3 18  1  0  0  0
 18 19  2  0  0  0
 18 20  2  0  0  0
 18 21  1  0  0  0
 21 22  2  0  0  0
 22 23  1  0  0  0
 23 24  2  0  0  0
 24 25  1  0  0  0
 25 26  2  0  0  0
 26 27  1  0  0  0
 27 28  1  0  0  0
 27 29  1  0  0  0
 27 30  1  0  0  0
  3  4  1  0  0  0
  4  5  1  0  0  0
  5 14  1  0  0  0
 14 15  2  0  0  0
 14 16  1  0  0  0
 10 11  2  0  0  0
 11  6  1  0  0  0
  5  1  1  0  0  0
 26 21  1  0  0  0
 16 17  1  0  0  0
M  END
> <minimizedAffinity>
-8.25589

> <CNNscore>
0.1938070506

> <CNNaffinity>
6.0658912659

> <CNN_VS>
1.1756124496

> <CNNaffinity_variance>
0.1722486913

$$$$
[H]c1c([H])c([H])c(C([H])([H])n2c([H])nc(-c3c([H])c([H])c(F)c([H])c3[H])c2-c2nn3c([H])c(N([H])C(=O)C(C([H])([H])[H])(C([H])([H])[H])C([H])([H])[H])nc3c([H])c2[H])c([H])c1[H]


 36 40  0  0  0  0  0  0  0  0999 V2000
  -19.4481   11.5093  -17.4003 C   0  0  0  0  0  0  0  0  0  0  0  0
  -20.0064   12.6709  -16.9112 C   0  0  0  0  0  0  0  0  0  0  0  0
  -20.7696   12.2958  -15.8430 N   0  0  0  0  0  0  0  0  0  0  0  0
  -20.7060   10.9934  -15.6611 C   0  0  0  0  0  0  0  0  0  0  0  0
  -19.8791   10.5119  -16.6378 N   0  0  0  0  0  0  0  0  0  0  0  0
  -16.7265   12.6643  -22.5232 C   0  0  0  0  0  0  0  0  0  0  0  0
  -17.7521   13.1091  -21.7205 C   0  0  0  0  0  0  0  0  0  0  0  0
  -17.8228   12.3150  -20.6096 N   0  0  0  0  0  0  0  0  0  0  0  0
  -18.6301   12.3463  -19.5711 N   0  0  0  0  0  0  0  0  0  0  0  0
  -18.5543   11.4715  -18.5546 C   0  0  0  0  0  0  0  0  0  0  0  0
  -17.5692   10.5169  -18.6510 C   0  0  0  0  0  0  0  0  0  0  0  0
  -16.7040   10.4650  -19.7402 C   0  0  0  0  0  0  0  0  0  0  0  0
  -16.8570   11.3963  -20.7261 C   0  0  0  0  0  0  0  0  0  0  0  0
  -16.1994   11.6063  -21.8746 N   0  0  0  0  0  0  0  0  0  0  0  0
  -15.8131   14.5229  -23.8592 C   0  0  0  0  0  0  0  0  0  0  0  0
  -15.7377   15.2247  -22.7938 O   0  0  0  0  0  0  0  0  0  0  0  0
  -16.3154   13.2016  -23.7577 N   0  0  0  0  0  0  0  0  0  0  0  0
  -16.3795   12.6266  -24.6142 H   0  0  0  0  0  0  0  0  0  0  0  0
  -15.4832   16.6426  -24.9420 C   0  0  0  0  0  0  0  0  0  0  0  0
  -15.3724   15.1418  -25.1109 C   0  0  0  0  0  0  0  0  0  0  0  0
  -13.9360   14.8043  -25.3743 C   0  0  0  0  0  0  0  0  0  0  0  0
  -16.2553   14.7587  -26.2782 C   0  0  0  0  0  0  0  0  0  0  0  0
  -19.9002   14.0503  -17.3436 C   0  0  0  0  0  0  0  0  0  0  0  0
  -18.8130   14.8025  -16.9675 C   0  0  0  0  0  0  0  0  0  0  0  0
  -18.6642   16.1302  -17.3628 C   0  0  0  0  0  0  0  0  0  0  0  0
  -19.6230   16.7290  -18.1551 C   0  0  0  0  0  0  0  0  0  0  0  0
  -19.4746   18.0270  -18.5397 F   0  0  0  0  0  0  0  0  0  0  0  0
  -20.7130   15.9836  -18.5353 C   0  0  0  0  0  0  0  0  0  0  0  0
  -20.8447   14.6614  -18.1317 C   0  0  0  0  0  0  0  0  0  0  0  0
  -19.5434    9.1051  -16.7874 C   0  0  0  0  0  0  0  0  0  0  0  0
  -19.8085    8.3420  -15.5555 C   0  0  0  0  0  0  0  0  0  0  0  0
  -20.7097    7.3106  -15.5012 C   0  0  0  0  0  0  0  0  0  0  0  0
  -20.9670    6.5876  -14.3672 C   0  0  0  0  0  0  0  0  0  0  0  0
  -20.2795    6.9175  -13.2151 C   0  0  0  0  0  0  0  0  0  0  0  0
  -19.3643    7.9542  -13.2413 C   0  0  0  0  0  0  0  0  0  0  0  0
  -19.1236    8.6630  -14.3870 C   0  0  0  0  0  0  0  0  0  0  0  0
 19 20  1  0  0  0
 20 21  1  0  0  0
 20 22  1  0  0  0
 20 15  1  0  0  0
 15 16  2  0  0  0
 15 17  1  0  0  0
 17  6  1  0  0  0
  6  7  2  0  0  0
  7  8  1  0  0  0
  8  9  1  0  0  0
  9 10  2  0  0  0
 10  1  1  0  0  0
  1  2  2  0  0  0
  2 23  1  0  0  0
 23 24  2  0  0  0
 24 25  1  0  0  0
 25 26  2  0  0  0
 26 27  1  0  0  0
 26 28  1  0  0  0
 28 29  2  0  0  0
  2  3  1  0  0  0
  3  4  2  0  0  0
  4  5  1  0  0  0
  5 30  1  0  0  0
 30 31  1  0  0  0
 31 32  2  0  0  0
 32 33  1  0  0  0
 33 34  2  0  0  0
 34 35  1  0  0  0
 35 36  2  0  0  0
 10 11  1  0  0  0
 11 12  2  0  0  0
 12 13  1  0  0  0
 13 14  2  0  0  0
 14  6  1  0  0  0
 13  8  1  0  0  0
  5  1  1  0  0  0
 36 31  1  0  0  0
 29 23  1  0  0  0
 17 18  1  0  0  0
M  END
> <minimizedAffinity>
-9.16441

> <CNNscore>
0.6009552479

> <CNNaffinity>
7.4716033936

> <CNN_VS>
4.4900994301

> <CNNaffinity_variance>
0.0475997925

$$$$
[H]c1c([H])c([H])c(C([H])([H])n2c([H])nc(-c3c([H])c([H])c(F)c([H])c3[H])c2-c2nn3c([H])c(N([H])C(=O)C(C([H])([H])[H])(C([H])([H])[H])C([H])([H])[H])nc3c([H])c2[H])c([H])c1[H]


 36 40  0  0  0  0  0  0  0  0999 V2000
  -18.3970   14.6385  -21.7577 C   0  0  0  0  0  0  0  0  0  0  0  0
  -18.8753   15.7824  -21.1554 C   0  0  0  0  0  0  0  0  0  0  0  0
  -19.0035   16.7035  -22.1551 N   0  0  0  0  0  0  0  0  0  0  0  0
  -18.6354   16.1897  -23.3100 C   0  0  0  0  0  0  0  0  0  0  0  0
  -18.2586   14.9011  -23.0514 N   0  0  0  0  0  0  0  0  0  0  0  0
  -18.4540   10.2229  -17.8226 C   0  0  0  0  0  0  0  0  0  0  0  0
  -19.0562   11.4284  -18.1024 C   0  0  0  0  0  0  0  0  0  0  0  0
  -18.5129   11.9407  -19.2479 N   0  0  0  0  0  0  0  0  0  0  0  0
  -18.7606   13.0550  -19.9022 N   0  0  0  0  0  0  0  0  0  0  0  0
  -18.1188   13.4034  -21.0297 C   0  0  0  0  0  0  0  0  0  0  0  0
  -17.1666   12.5198  -21.4807 C   0  0  0  0  0  0  0  0  0  0  0  0
  -16.8883   11.3352  -20.8048 C   0  0  0  0  0  0  0  0  0  0  0  0
  -17.5915   11.0654  -19.6667 C   0  0  0  0  0  0  0  0  0  0  0  0
  -17.5565   10.0348  -18.8110 N   0  0  0  0  0  0  0  0  0  0  0  0
  -19.9231    9.4695  -15.9928 C   0  0  0  0  0  0  0  0  0  0  0  0
  -20.7721   10.3614  -16.3348 O   0  0  0  0  0  0  0  0  0  0  0  0
  -18.7206    9.3684  -16.7361 N   0  0  0  0  0  0  0  0  0  0  0  0
  -18.0284    8.6496  -16.4670 H   0  0  0  0  0  0  0  0  0  0  0  0
  -19.1625    8.7773  -13.8210 C   0  0  0  0  0  0  0  0  0  0  0  0
  -20.2597    8.6153  -14.8523 C   0  0  0  0  0  0  0  0  0  0  0  0
  -21.5511    9.0628  -14.2373 C   0  0  0  0  0  0  0  0  0  0  0  0
  -20.3031    7.1509  -15.2298 C   0  0  0  0  0  0  0  0  0  0  0  0
  -19.2035   16.0829  -19.7758 C   0  0  0  0  0  0  0  0  0  0  0  0
  -20.5182   16.1069  -19.3759 C   0  0  0  0  0  0  0  0  0  0  0  0
  -20.8825   16.3850  -18.0602 C   0  0  0  0  0  0  0  0  0  0  0  0
  -19.9129   16.6470  -17.1133 C   0  0  0  0  0  0  0  0  0  0  0  0
  -20.2722   16.9187  -15.8280 F   0  0  0  0  0  0  0  0  0  0  0  0
  -18.5959   16.6250  -17.5053 C   0  0  0  0  0  0  0  0  0  0  0  0
  -18.2515   16.3459  -18.8213 C   0  0  0  0  0  0  0  0  0  0  0  0
  -17.7815   13.9814  -24.0716 C   0  0  0  0  0  0  0  0  0  0  0  0
  -16.5290   14.4480  -24.6910 C   0  0  0  0  0  0  0  0  0  0  0  0
  -15.3368   14.4862  -24.0158 C   0  0  0  0  0  0  0  0  0  0  0  0
  -14.1621   14.9131  -24.5750 C   0  0  0  0  0  0  0  0  0  0  0  0
  -14.1816   15.3278  -25.8927 C   0  0  0  0  0  0  0  0  0  0  0  0
  -15.3711   15.2999  -26.5980 C   0  0  0  0  0  0  0  0  0  0  0  0
  -16.5333   14.8691  -26.0177 C   0  0  0  0  0  0  0  0  0  0  0  0
 19 20  1  0  0  0
 20 21  1  0  0  0
 20 22  1  0  0  0
 20 15  1  0  0  0
 15 16  2  0  0  0
 15 17  1  0  0  0
 17  6  1  0  0  0
  6  7  2  0  0  0
  7  8  1  0  0  0
  8  9  1  0  0  0
  9 10  2  0  0  0
 10  1  1  0  0  0
  1  2  2  0  0  0
  2 23  1  0  0  0
 23 24  2  0  0  0
 24 25  1  0  0  0
 25 26  2  0  0  0
 26 27  1  0  0  0
 26 28  1  0  0  0
 28 29  2  0  0  0
  2  3  1  0  0  0
  3  4  2  0  0  0
  4  5  1  0  0  0
  5 30  1  0  0  0
 30 31  1  0  0  0
 31 32  2  0  0  0
 32 33  1  0  0  0
 33 34  2  0  0  0
 34 35  1  0  0  0
 35 36  2  0  0  0
 10 11  1  0  0  0
 11 12  2  0  0  0
 12 13  1  0  0  0
 13 14  2  0  0  0
 14  6  1  0  0  0
 13  8  1  0  0  0
  5  1  1  0  0  0
 36 31  1  0  0  0
 29 23  1  0  0  0
 17 18  1  0  0  0
M  END
> <minimizedAffinity>
-9.47233

> <CNNscore>
0.4148095250

> <CNNaffinity>
7.3476700783

> <CNN_VS>
3.0478835106

> <CNNaffinity_variance>
0.1041301638

$$$$
[H]c1c([H])c([H])c(C([H])([H])n2c([H])nc(-c3c([H])c([H])c(F)c([H])c3[H])c2-c2nn3c([H])c(N([H])C(=O)C(C([H])([H])[H])(C([H])([H])[H])C([H])([H])[H])nc3c([H])c2[H])c([H])c1[H]


 36 40  0  0  0  0  0  0  0  0999 V2000
  -17.0070   15.3414  -22.0353 C   0  0  0  0  0  0  0  0  0  0  0  0
  -17.6923   16.4547  -21.5982 C   0  0  0  0  0  0  0  0  0  0  0  0
  -17.2451   17.4918  -22.3654 N   0  0  0  0  0  0  0  0  0  0  0  0
  -16.3421   17.0757  -23.2283 C   0  0  0  0  0  0  0  0  0  0  0  0
  -16.2004   15.7327  -23.0143 N   0  0  0  0  0  0  0  0  0  0  0  0
  -18.1190   10.8203  -18.3872 C   0  0  0  0  0  0  0  0  0  0  0  0
  -18.0721   12.1954  -18.4203 C   0  0  0  0  0  0  0  0  0  0  0  0
  -17.7197   12.5974  -19.6789 N   0  0  0  0  0  0  0  0  0  0  0  0
  -17.5474   13.7977  -20.1894 N   0  0  0  0  0  0  0  0  0  0  0  0
  -17.1941   14.0087  -21.4682 C   0  0  0  0  0  0  0  0  0  0  0  0
  -17.0160   12.8842  -22.2393 C   0  0  0  0  0  0  0  0  0  0  0  0
  -17.1931   11.6048  -21.7203 C   0  0  0  0  0  0  0  0  0  0  0  0
  -17.5524   11.4885  -20.4089 C   0  0  0  0  0  0  0  0  0  0  0  0
  -17.7921   10.4224  -19.6333 N   0  0  0  0  0  0  0  0  0  0  0  0
  -19.6619   10.1595  -16.5825 C   0  0  0  0  0  0  0  0  0  0  0  0
  -20.4747   11.0647  -16.9739 O   0  0  0  0  0  0  0  0  0  0  0  0
  -18.4415   10.0043  -17.2863 N   0  0  0  0  0  0  0  0  0  0  0  0
  -17.7783    9.2745  -16.9772 H   0  0  0  0  0  0  0  0  0  0  0  0
  -19.4407    7.9748  -15.6066 C   0  0  0  0  0  0  0  0  0  0  0  0
  -20.0558    9.3473  -15.4298 C   0  0  0  0  0  0  0  0  0  0  0  0
  -19.5117    9.9460  -14.1680 C   0  0  0  0  0  0  0  0  0  0  0  0
  -21.5547    9.1568  -15.3519 C   0  0  0  0  0  0  0  0  0  0  0  0
  -18.6865   16.6303  -20.5581 C   0  0  0  0  0  0  0  0  0  0  0  0
  -18.3108   17.1179  -19.3292 C   0  0  0  0  0  0  0  0  0  0  0  0
  -19.2309   17.3092  -18.3005 C   0  0  0  0  0  0  0  0  0  0  0  0
  -20.5634   17.0075  -18.4976 C   0  0  0  0  0  0  0  0  0  0  0  0
  -21.4603   17.1954  -17.4900 F   0  0  0  0  0  0  0  0  0  0  0  0
  -20.9469   16.5195  -19.7236 C   0  0  0  0  0  0  0  0  0  0  0  0
  -20.0159   16.3353  -20.7374 C   0  0  0  0  0  0  0  0  0  0  0  0
  -15.2891   14.8885  -23.7699 C   0  0  0  0  0  0  0  0  0  0  0  0
  -15.6500   14.8282  -25.1969 C   0  0  0  0  0  0  0  0  0  0  0  0
  -16.6393   14.0106  -25.6780 C   0  0  0  0  0  0  0  0  0  0  0  0
  -16.9914   13.9433  -26.9995 C   0  0  0  0  0  0  0  0  0  0  0  0
  -16.3106   14.7444  -27.8960 C   0  0  0  0  0  0  0  0  0  0  0  0
  -15.3074   15.5790  -27.4379 C   0  0  0  0  0  0  0  0  0  0  0  0
  -14.9727   15.6294  -26.1118 C   0  0  0  0  0  0  0  0  0  0  0  0
 19 20  1  0  0  0
 20 21  1  0  0  0
 20 22  1  0  0  0
 20 15  1  0  0  0
 15 16  2  0  0  0
 15 17  1  0  0  0
 17  6  1  0  0  0
  6  7  2  0  0  0
  7  8  1  0  0  0
  8  9  1  0  0  0
  9 10  2  0  0  0
 10  1  1  0  0  0
  1  2  2  0  0  0
  2 23  1  0  0  0
 23 24  2  0  0  0
 24 25  1  0  0  0
 25 26  2  0  0  0
 26 27  1  0  0  0
 26 28  1  0  0  0
 28 29  2  0  0  0
  2  3  1  0  0  0
  3  4  2  0  0  0
  4  5  1  0  0  0
  5 30  1  0  0  0
 30 31  1  0  0  0
 31 32  2  0  0  0
 32 33  1  0  0  0
 33 34  2  0  0  0
 34 35  1  0  0  0
 35 36  2  0  0  0
 10 11  1  0  0  0
 11 12  2  0  0  0
 12 13  1  0  0  0
 13 14  2  0  0  0
 14  6  1  0  0  0
 13  8  1  0  0  0
  5  1  1  0  0  0
 36 31  1  0  0  0
 29 23  1  0  0  0
 17 18  1  0  0  0
M  END
> <minimizedAffinity>
-9.25796

> <CNNscore>
0.3942523301

> <CNNaffinity>
7.5317015648

> <CNN_VS>
2.9693908691

> <CNNaffinity_variance>
0.2788688540

$$$$
[H]c1c([H])c([H])c(C([H])([H])n2c([H])nc(-c3c([H])c([H])c(F)c([H])c3[H])c2-c2nn3c([H])c(N([H])C(=O)C(C([H])([H])[H])(C([H])([H])[H])C([H])([H])[H])nc3c([H])c2[H])c([H])c1[H]


 36 40  0  0  0  0  0  0  0  0999 V2000
  -18.3457   13.7914  -20.6286 C   0  0  0  0  0  0  0  0  0  0  0  0
  -18.9582   14.9468  -20.1927 C   0  0  0  0  0  0  0  0  0  0  0  0
  -18.9305   15.8057  -21.2537 N   0  0  0  0  0  0  0  0  0  0  0  0
  -18.3449   15.2442  -22.2906 C   0  0  0  0  0  0  0  0  0  0  0  0
  -17.9835   13.9878  -21.8904 N   0  0  0  0  0  0  0  0  0  0  0  0
  -19.1122    9.4587  -16.6756 C   0  0  0  0  0  0  0  0  0  0  0  0
  -19.7307   10.5771  -17.1861 C   0  0  0  0  0  0  0  0  0  0  0  0
  -18.9231   11.1358  -18.1376 N   0  0  0  0  0  0  0  0  0  0  0  0
  -19.0813   12.2019  -18.8923 N   0  0  0  0  0  0  0  0  0  0  0  0
  -18.1677   12.6102  -19.7884 C   0  0  0  0  0  0  0  0  0  0  0  0
  -17.0300   11.8438  -19.8836 C   0  0  0  0  0  0  0  0  0  0  0  0
  -16.8415   10.7120  -19.0955 C   0  0  0  0  0  0  0  0  0  0  0  0
  -17.8254   10.3742  -18.2120 C   0  0  0  0  0  0  0  0  0  0  0  0
  -17.9394    9.3680  -17.3345 N   0  0  0  0  0  0  0  0  0  0  0  0
  -19.5177    8.9260  -14.3038 C   0  0  0  0  0  0  0  0  0  0  0  0
  -18.9838   10.0421  -13.9831 O   0  0  0  0  0  0  0  0  0  0  0  0
  -19.6019    8.5935  -15.6789 N   0  0  0  0  0  0  0  0  0  0  0  0
  -20.0325    7.6932  -15.9476 H   0  0  0  0  0  0  0  0  0  0  0  0
  -20.3977    6.7413  -13.8278 C   0  0  0  0  0  0  0  0  0  0  0  0
  -20.0041    8.0710  -13.2193 C   0  0  0  0  0  0  0  0  0  0  0  0
  -18.9087    7.8262  -12.2259 C   0  0  0  0  0  0  0  0  0  0  0  0
  -21.2387    8.6395  -12.5549 C   0  0  0  0  0  0  0  0  0  0  0  0
  -19.5389   15.3094  -18.9150 C   0  0  0  0  0  0  0  0  0  0  0  0
  -18.7316   15.7773  -17.9058 C   0  0  0  0  0  0  0  0  0  0  0  0
  -19.2442   16.1435  -16.6630 C   0  0  0  0  0  0  0  0  0  0  0  0
  -20.5983   16.0424  -16.4148 C   0  0  0  0  0  0  0  0  0  0  0  0
  -21.0962   16.4010  -15.1989 F   0  0  0  0  0  0  0  0  0  0  0  0
  -21.4121   15.5754  -17.4188 C   0  0  0  0  0  0  0  0  0  0  0  0
  -20.8835   15.2149  -18.6513 C   0  0  0  0  0  0  0  0  0  0  0  0
  -17.3033   13.0331  -22.7506 C   0  0  0  0  0  0  0  0  0  0  0  0
  -16.4583   13.7019  -23.7551 C   0  0  0  0  0  0  0  0  0  0  0  0
  -15.1766   14.1110  -23.4925 C   0  0  0  0  0  0  0  0  0  0  0  0
  -14.3750   14.7307  -24.4134 C   0  0  0  0  0  0  0  0  0  0  0  0
  -14.8880   14.9553  -25.6764 C   0  0  0  0  0  0  0  0  0  0  0  0
  -16.1786   14.5530  -25.9688 C   0  0  0  0  0  0  0  0  0  0  0  0
  -16.9616   13.9351  -25.0317 C   0  0  0  0  0  0  0  0  0  0  0  0
 19 20  1  0  0  0
 20 21  1  0  0  0
 20 22  1  0  0  0
 20 15  1  0  0  0
 15 16  2  0  0  0
 15 17  1  0  0  0
 17  6  1  0  0  0
  6  7  2  0  0  0
  7  8  1  0  0  0
  8  9  1  0  0  0
  9 10  2  0  0  0
 10  1  1  0  0  0
  1  2  2  0  0  0
  2 23  1  0  0  0
 23 24  2  0  0  0
 24 25  1  0  0  0
 25 26  2  0  0  0
 26 27  1  0  0  0
 26 28  1  0  0  0
 28 29  2  0  0  0
  2  3  1  0  0  0
  3  4  2  0  0  0
  4  5  1  0  0  0
  5 30  1  0  0  0
 30 31  1  0  0  0
 31 32  2  0  0  0
 32 33  1  0  0  0
 33 34  2  0  0  0
 34 35  1  0  0  0
 35 36  2  0  0  0
 10 11  1  0  0  0
 11 12  2  0  0  0
 12 13  1  0  0  0
 13 14  2  0  0  0
 14  6  1  0  0  0
 13  8  1  0  0  0
  5  1  1  0  0  0
 36 31  1  0  0  0
 29 23  1  0  0  0
 17 18  1  0  0  0
M  END
> <minimizedAffinity>
-9.15805

> <CNNscore>
0.3050706089

> <CNNaffinity>
7.0510497093

> <CNN_VS>
2.1510679722

> <CNNaffinity_variance>
0.0644410476

$$$$
[H]c1c([H])c([H])c(C([H])([H])n2c([H])nc(-c3c([H])c([H])c(F)c([H])c3[H])c2-c2nn3c([H])c(N([H])C(=O)C(C([H])([H])[H])(C([H])([H])[H])C([H])([H])[H])nc3c([H])c2[H])c([H])c1[H]


 36 40  0  0  0  0  0  0  0  0999 V2000
  -17.6159   13.4377  -20.9941 C   0  0  0  0  0  0  0  0  0  0  0  0
  -16.9696   12.8190  -22.0427 C   0  0  0  0  0  0  0  0  0  0  0  0
  -16.5780   11.5991  -21.5707 N   0  0  0  0  0  0  0  0  0  0  0  0
  -16.9449   11.4471  -20.3155 C   0  0  0  0  0  0  0  0  0  0  0  0
  -17.5916   12.5997  -19.9649 N   0  0  0  0  0  0  0  0  0  0  0  0
  -20.1533   18.4162  -22.9337 C   0  0  0  0  0  0  0  0  0  0  0  0
  -19.7351   17.1779  -23.3648 C   0  0  0  0  0  0  0  0  0  0  0  0
  -19.2020   16.4959  -22.3063 N   0  0  0  0  0  0  0  0  0  0  0  0
  -18.6778   15.2919  -22.2257 N   0  0  0  0  0  0  0  0  0  0  0  0
  -18.1940   14.7758  -21.0837 C   0  0  0  0  0  0  0  0  0  0  0  0
  -18.2734   15.5840  -19.9740 C   0  0  0  0  0  0  0  0  0  0  0  0
  -18.8240   16.8609  -20.0360 C   0  0  0  0  0  0  0  0  0  0  0  0
  -19.2904   17.3007  -21.2409 C   0  0  0  0  0  0  0  0  0  0  0  0
  -19.8613   18.4529  -21.6179 N   0  0  0  0  0  0  0  0  0  0  0  0
  -22.0887   19.3017  -24.1763 C   0  0  0  0  0  0  0  0  0  0  0  0
  -22.7364   18.2395  -23.8838 O   0  0  0  0  0  0  0  0  0  0  0  0
  -20.7585   19.4275  -23.7035 N   0  0  0  0  0  0  0  0  0  0  0  0
  -20.2272   20.2833  -23.9348 H   0  0  0  0  0  0  0  0  0  0  0  0
  -21.7142   21.2018  -25.5988 C   0  0  0  0  0  0  0  0  0  0  0  0
  -22.7745   20.3134  -24.9825 C   0  0  0  0  0  0  0  0  0  0  0  0
  -23.5386   19.6564  -26.0919 C   0  0  0  0  0  0  0  0  0  0  0  0
  -23.6673   21.2016  -24.1441 C   0  0  0  0  0  0  0  0  0  0  0  0
  -16.6880   13.2550  -23.3961 C   0  0  0  0  0  0  0  0  0  0  0  0
  -17.5455   12.9159  -24.4154 C   0  0  0  0  0  0  0  0  0  0  0  0
  -17.3201   13.3162  -25.7308 C   0  0  0  0  0  0  0  0  0  0  0  0
  -16.2106   14.0757  -26.0436 C   0  0  0  0  0  0  0  0  0  0  0  0
  -15.9930   14.4652  -27.3304 F   0  0  0  0  0  0  0  0  0  0  0  0
  -15.3485   14.4187  -25.0300 C   0  0  0  0  0  0  0  0  0  0  0  0
  -15.5892   14.0107  -23.7246 C   0  0  0  0  0  0  0  0  0  0  0  0
  -18.1580   12.8364  -18.6468 C   0  0  0  0  0  0  0  0  0  0  0  0
  -18.6042   11.5867  -18.0070 C   0  0  0  0  0  0  0  0  0  0  0  0
  -19.7108   11.5200  -17.2009 C   0  0  0  0  0  0  0  0  0  0  0  0
  -20.1431   10.3678  -16.6006 C   0  0  0  0  0  0  0  0  0  0  0  0
  -19.4229    9.2095  -16.8206 C   0  0  0  0  0  0  0  0  0  0  0  0
  -18.3017    9.2480  -17.6297 C   0  0  0  0  0  0  0  0  0  0  0  0
  -17.8884   10.4119  -18.2193 C   0  0  0  0  0  0  0  0  0  0  0  0
 19 20  1  0  0  0
 20 21  1  0  0  0
 20 22  1  0  0  0
 20 15  1  0  0  0
 15 16  2  0  0  0
 15 17  1  0  0  0
 17  6  1  0  0  0
  6  7  2  0  0  0
  7  8  1  0  0  0
  8  9  1  0  0  0
  9 10  2  0  0  0
 10  1  1  0  0  0
  1  2  2  0  0  0
  2 23  1  0  0  0
 23 24  2  0  0  0
 24 25  1  0  0  0
 25 26  2  0  0  0
 26 27  1  0  0  0
 26 28  1  0  0  0
 28 29  2  0  0  0
  2  3  1  0  0  0
  3  4  2  0  0  0
  4  5  1  0  0  0
  5 30  1  0  0  0
 30 31  1  0  0  0
 31 32  2  0  0  0
 32 33  1  0  0  0
 33 34  2  0  0  0
 34 35  1  0  0  0
 35 36  2  0  0  0
 10 11  1  0  0  0
 11 12  2  0  0  0
 12 13  1  0  0  0
 13 14  2  0  0  0
 14  6  1  0  0  0
 13  8  1  0  0  0
  5  1  1  0  0  0
 36 31  1  0  0  0
 29 23  1  0  0  0
 17 18  1  0  0  0
M  END
> <minimizedAffinity>
-10.14156

> <CNNscore>
0.3037600517

> <CNNaffinity>
7.3272905350

> <CNN_VS>
2.2257380486

> <CNNaffinity_variance>
0.3692738414

$$$$
[H]c1c([H])c([H])c(C([H])([H])n2c([H])nc(-c3c([H])c([H])c(F)c([H])c3[H])c2-c2nn3c([H])c(N([H])C(=O)C(C([H])([H])[H])(C([H])([H])[H])C([H])([H])[H])nc3c([H])c2[H])c([H])c1[H]


 36 40  0  0  0  0  0  0  0  0999 V2000
  -17.8319   13.1408  -20.5446 C   0  0  0  0  0  0  0  0  0  0  0  0
  -17.6781   11.8694  -20.0347 C   0  0  0  0  0  0  0  0  0  0  0  0
  -16.7966   11.2395  -20.8657 N   0  0  0  0  0  0  0  0  0  0  0  0
  -16.4145   12.0451  -21.8343 C   0  0  0  0  0  0  0  0  0  0  0  0
  -17.0661   13.2288  -21.6252 N   0  0  0  0  0  0  0  0  0  0  0  0
  -20.0396   17.4418  -17.1367 C   0  0  0  0  0  0  0  0  0  0  0  0
  -18.9075   16.6804  -17.3174 C   0  0  0  0  0  0  0  0  0  0  0  0
  -19.1112   15.8229  -18.3628 N   0  0  0  0  0  0  0  0  0  0  0  0
  -18.3296   14.9129  -18.9030 N   0  0  0  0  0  0  0  0  0  0  0  0
  -18.7016   14.1480  -19.9428 C   0  0  0  0  0  0  0  0  0  0  0  0
  -19.9692   14.3648  -20.4295 C   0  0  0  0  0  0  0  0  0  0  0  0
  -20.8131   15.3221  -19.8737 C   0  0  0  0  0  0  0  0  0  0  0  0
  -20.3483   16.0523  -18.8185 C   0  0  0  0  0  0  0  0  0  0  0  0
  -20.9050   17.0238  -18.0824 N   0  0  0  0  0  0  0  0  0  0  0  0
  -20.9024   18.1664  -14.9448 C   0  0  0  0  0  0  0  0  0  0  0  0
  -21.3025   16.9717  -14.7304 O   0  0  0  0  0  0  0  0  0  0  0  0
  -20.2478   18.4444  -16.1707 N   0  0  0  0  0  0  0  0  0  0  0  0
  -19.9203   19.4077  -16.3525 H   0  0  0  0  0  0  0  0  0  0  0  0
  -20.5052   20.4585  -14.3426 C   0  0  0  0  0  0  0  0  0  0  0  0
  -21.1526   19.1625  -13.9014 C   0  0  0  0  0  0  0  0  0  0  0  0
  -22.6257   19.3992  -13.7581 C   0  0  0  0  0  0  0  0  0  0  0  0
  -20.5219   18.7765  -12.5814 C   0  0  0  0  0  0  0  0  0  0  0  0
  -18.2677   11.2117  -18.8854 C   0  0  0  0  0  0  0  0  0  0  0  0
  -17.8674    9.9415  -18.5454 C   0  0  0  0  0  0  0  0  0  0  0  0
  -18.4009    9.2710  -17.4467 C   0  0  0  0  0  0  0  0  0  0  0  0
  -19.3599    9.8794  -16.6622 C   0  0  0  0  0  0  0  0  0  0  0  0
  -19.8795    9.2213  -15.5890 F   0  0  0  0  0  0  0  0  0  0  0  0
  -19.7654   11.1494  -16.9957 C   0  0  0  0  0  0  0  0  0  0  0  0
  -19.2226   11.8024  -18.0945 C   0  0  0  0  0  0  0  0  0  0  0  0
  -16.9161   14.3932  -22.4830 C   0  0  0  0  0  0  0  0  0  0  0  0
  -16.9886   14.0379  -23.9109 C   0  0  0  0  0  0  0  0  0  0  0  0
  -17.7042   12.9638  -24.3727 C   0  0  0  0  0  0  0  0  0  0  0  0
  -17.7865   12.6198  -25.6954 C   0  0  0  0  0  0  0  0  0  0  0  0
  -17.1102   13.3995  -26.6139 C   0  0  0  0  0  0  0  0  0  0  0  0
  -16.3801   14.4894  -26.1756 C   0  0  0  0  0  0  0  0  0  0  0  0
  -16.3124   14.8140  -24.8478 C   0  0  0  0  0  0  0  0  0  0  0  0
 19 20  1  0  0  0
 20 21  1  0  0  0
 20 22  1  0  0  0
 20 15  1  0  0  0
 15 16  2  0  0  0
 15 17  1  0  0  0
 17  6  1  0  0  0
  6  7  2  0  0  0
  7  8  1  0  0  0
  8  9  1  0  0  0
  9 10  2  0  0  0
 10  1  1  0  0  0
  1  2  2  0  0  0
  2 23  1  0  0  0
 23 24  2  0  0  0
 24 25  1  0  0  0
 25 26  2  0  0  0
 26 27  1  0  0  0
 26 28  1  0  0  0
 28 29  2  0  0  0
  2  3  1  0  0  0
  3  4  2  0  0  0
  4  5  1  0  0  0
  5 30  1  0  0  0
 30 31  1  0  0  0
 31 32  2  0  0  0
 32 33  1  0  0  0
 33 34  2  0  0  0
 34 35  1  0  0  0
 35 36  2  0  0  0
 10 11  1  0  0  0
 11 12  2  0  0  0
 12 13  1  0  0  0
 13 14  2  0  0  0
 14  6  1  0  0  0
 13  8  1  0  0  0
  5  1  1  0  0  0
 36 31  1  0  0  0
 29 23  1  0  0  0
 17 18  1  0  0  0
M  END
> <minimizedAffinity>
-9.13885

> <CNNscore>
0.2876475155

> <CNNaffinity>
7.3427939415

> <CNN_VS>
2.1121363640

> <CNNaffinity_variance>
0.2865782380

$$$$
[H]c1c([H])c([H])c(C([H])([H])n2c([H])nc(-c3c([H])c([H])c(F)c([H])c3[H])c2-c2nn3c([H])c(N([H])C(=O)C(C([H])([H])[H])(C([H])([H])[H])C([H])([H])[H])nc3c([H])c2[H])c([H])c1[H]


 36 40  0  0  0  0  0  0  0  0999 V2000
  -16.4626   13.9146  -22.3397 C   0  0  0  0  0  0  0  0  0  0  0  0
  -16.8489   12.8401  -21.5675 C   0  0  0  0  0  0  0  0  0  0  0  0
  -16.0623   11.7962  -21.9626 N   0  0  0  0  0  0  0  0  0  0  0  0
  -15.2352   12.1724  -22.9152 C   0  0  0  0  0  0  0  0  0  0  0  0
  -15.4929   13.4957  -23.1434 N   0  0  0  0  0  0  0  0  0  0  0  0
  -19.7500   18.7551  -23.2047 C   0  0  0  0  0  0  0  0  0  0  0  0
  -19.5219   17.4984  -23.7172 C   0  0  0  0  0  0  0  0  0  0  0  0
  -18.5592   16.8812  -22.9675 N   0  0  0  0  0  0  0  0  0  0  0  0
  -18.0139   15.6880  -23.0682 N   0  0  0  0  0  0  0  0  0  0  0  0
  -17.0646   15.2407  -22.2297 C   0  0  0  0  0  0  0  0  0  0  0  0
  -16.6784   16.1087  -21.2357 C   0  0  0  0  0  0  0  0  0  0  0  0
  -17.2417   17.3754  -21.1101 C   0  0  0  0  0  0  0  0  0  0  0  0
  -18.2003   17.7433  -22.0091 C   0  0  0  0  0  0  0  0  0  0  0  0
  -18.9152   18.8677  -22.1519 N   0  0  0  0  0  0  0  0  0  0  0  0
  -21.9662   19.3551  -24.1003 C   0  0  0  0  0  0  0  0  0  0  0  0
  -22.3020   18.1236  -24.0383 O   0  0  0  0  0  0  0  0  0  0  0  0
  -20.6623   19.7167  -23.6787 N   0  0  0  0  0  0  0  0  0  0  0  0
  -20.3822   20.7105  -23.7249 H   0  0  0  0  0  0  0  0  0  0  0  0
  -24.1496   19.5031  -25.0930 C   0  0  0  0  0  0  0  0  0  0  0  0
  -22.9603   20.3040  -24.6056 C   0  0  0  0  0  0  0  0  0  0  0  0
  -23.4223   21.2035  -23.4993 C   0  0  0  0  0  0  0  0  0  0  0  0
  -22.4435   21.0968  -25.7859 C   0  0  0  0  0  0  0  0  0  0  0  0
  -17.8580   12.7050  -20.5358 C   0  0  0  0  0  0  0  0  0  0  0  0
  -17.6245   11.8895  -19.4543 C   0  0  0  0  0  0  0  0  0  0  0  0
  -18.5614   11.7322  -18.4351 C   0  0  0  0  0  0  0  0  0  0  0  0
  -19.7658   12.4044  -18.4911 C   0  0  0  0  0  0  0  0  0  0  0  0
  -20.6796   12.2484  -17.4933 F   0  0  0  0  0  0  0  0  0  0  0  0
  -20.0067   13.2217  -19.5692 C   0  0  0  0  0  0  0  0  0  0  0  0
  -19.0611   13.3663  -20.5759 C   0  0  0  0  0  0  0  0  0  0  0  0
  -14.7860   14.2951  -24.1310 C   0  0  0  0  0  0  0  0  0  0  0  0
  -15.5082   14.3501  -25.4138 C   0  0  0  0  0  0  0  0  0  0  0  0
  -16.5413   13.5030  -25.7204 C   0  0  0  0  0  0  0  0  0  0  0  0
  -17.2267   13.5409  -26.9052 C   0  0  0  0  0  0  0  0  0  0  0  0
  -16.8549   14.4857  -27.8421 C   0  0  0  0  0  0  0  0  0  0  0  0
  -15.8156   15.3533  -27.5592 C   0  0  0  0  0  0  0  0  0  0  0  0
  -15.1448   15.2965  -26.3676 C   0  0  0  0  0  0  0  0  0  0  0  0
 19 20  1  0  0  0
 20 21  1  0  0  0
 20 22  1  0  0  0
 20 15  1  0  0  0
 15 16  2  0  0  0
 15 17  1  0  0  0
 17  6  1  0  0  0
  6  7  2  0  0  0
  7  8  1  0  0  0
  8  9  1  0  0  0
  9 10  2  0  0  0
 10  1  1  0  0  0
  1  2  2  0  0  0
  2 23  1  0  0  0
 23 24  2  0  0  0
 24 25  1  0  0  0
 25 26  2  0  0  0
 26 27  1  0  0  0
 26 28  1  0  0  0
 28 29  2  0  0  0
  2  3  1  0  0  0
  3  4  2  0  0  0
  4  5  1  0  0  0
  5 30  1  0  0  0
 30 31  1  0  0  0
 31 32  2  0  0  0
 32 33  1  0  0  0
 33 34  2  0  0  0
 34 35  1  0  0  0
 35 36  2  0  0  0
 10 11  1  0  0  0
 11 12  2  0  0  0
 12 13  1  0  0  0
 13 14  2  0  0  0
 14  6  1  0  0  0
 13  8  1  0  0  0
  5  1  1  0  0  0
 36 31  1  0  0  0
 29 23  1  0  0  0
 17 18  1  0  0  0
M  END
> <minimizedAffinity>
-9.38274

> <CNNscore>
0.2380475551

> <CNNaffinity>
7.1318411827

> <CNN_VS>
1.6977173090

> <CNNaffinity_variance>
0.2211891711

$$$$
[H]c1c([H])c([H])c(C([H])([H])n2c([H])nc(-c3c([H])c([H])c(F)c([H])c3[H])c2-c2nn3c([H])c(N([H])C(=O)C(C([H])([H])[H])(C([H])([H])[H])C([H])([H])[H])nc3c([H])c2[H])c([H])c1[H]


 36 40  0  0  0  0  0  0  0  0999 V2000
  -17.9543   12.8662  -19.7211 C   0  0  0  0  0  0  0  0  0  0  0  0
  -17.9301   11.5167  -19.4413 C   0  0  0  0  0  0  0  0  0  0  0  0
  -17.2668   10.9327  -20.4822 N   0  0  0  0  0  0  0  0  0  0  0  0
  -16.8944   11.8383  -21.3622 C   0  0  0  0  0  0  0  0  0  0  0  0
  -17.3281   13.0414  -20.8784 N   0  0  0  0  0  0  0  0  0  0  0  0
  -21.6010   16.9008  -17.3954 C   0  0  0  0  0  0  0  0  0  0  0  0
  -21.4423   16.0987  -18.5024 C   0  0  0  0  0  0  0  0  0  0  0  0
  -20.2927   15.3715  -18.3627 N   0  0  0  0  0  0  0  0  0  0  0  0
  -19.7282   14.4818  -19.1505 N   0  0  0  0  0  0  0  0  0  0  0  0
  -18.5783   13.8567  -18.8480 C   0  0  0  0  0  0  0  0  0  0  0  0
  -18.0030   14.1978  -17.6465 C   0  0  0  0  0  0  0  0  0  0  0  0
  -18.5826   15.1361  -16.7973 C   0  0  0  0  0  0  0  0  0  0  0  0
  -19.7524   15.7199  -17.1891 C   0  0  0  0  0  0  0  0  0  0  0  0
  -20.5378   16.6376  -16.6091 N   0  0  0  0  0  0  0  0  0  0  0  0
  -22.4402   18.9942  -16.4017 C   0  0  0  0  0  0  0  0  0  0  0  0
  -21.2619   19.2379  -15.9708 O   0  0  0  0  0  0  0  0  0  0  0  0
  -22.6513   17.8024  -17.1392 N   0  0  0  0  0  0  0  0  0  0  0  0
  -23.6009   17.5973  -17.4920 H   0  0  0  0  0  0  0  0  0  0  0  0
  -23.9071   20.6116  -17.4049 C   0  0  0  0  0  0  0  0  0  0  0  0
  -23.4882   19.9705  -16.0984 C   0  0  0  0  0  0  0  0  0  0  0  0
  -24.6816   19.2794  -15.5114 C   0  0  0  0  0  0  0  0  0  0  0  0
  -22.9909   21.0797  -15.1976 C   0  0  0  0  0  0  0  0  0  0  0  0
  -18.4606   10.7507  -18.3309 C   0  0  0  0  0  0  0  0  0  0  0  0
  -17.8695    9.5613  -17.9772 C   0  0  0  0  0  0  0  0  0  0  0  0
  -18.3399    8.7930  -16.9143 C   0  0  0  0  0  0  0  0  0  0  0  0
  -19.4292    9.2181  -16.1807 C   0  0  0  0  0  0  0  0  0  0  0  0
  -19.8867    8.4648  -15.1423 F   0  0  0  0  0  0  0  0  0  0  0  0
  -20.0257   10.4063  -16.5282 C   0  0  0  0  0  0  0  0  0  0  0  0
  -19.5432   11.1589  -17.5908 C   0  0  0  0  0  0  0  0  0  0  0  0
  -17.1149   14.3078  -21.5602 C   0  0  0  0  0  0  0  0  0  0  0  0
  -16.9442   14.1290  -23.0125 C   0  0  0  0  0  0  0  0  0  0  0  0
  -17.9838   13.8137  -23.8484 C   0  0  0  0  0  0  0  0  0  0  0  0
  -17.8457   13.6470  -25.2004 C   0  0  0  0  0  0  0  0  0  0  0  0
  -16.5884   13.8057  -25.7507 C   0  0  0  0  0  0  0  0  0  0  0  0
  -15.5212   14.1238  -24.9304 C   0  0  0  0  0  0  0  0  0  0  0  0
  -15.6834   14.2855  -23.5811 C   0  0  0  0  0  0  0  0  0  0  0  0
 19 20  1  0  0  0
 20 21  1  0  0  0
 20 22  1  0  0  0
 20 15  1  0  0  0
 15 16  2  0  0  0
 15 17  1  0  0  0
 17  6  1  0  0  0
  6  7  2  0  0  0
  7  8  1  0  0  0
  8  9  1  0  0  0
  9 10  2  0  0  0
 10  1  1  0  0  0
  1  2  2  0  0  0
  2 23  1  0  0  0
 23 24  2  0  0  0
 24 25  1  0  0  0
 25 26  2  0  0  0
 26 27  1  0  0  0
 26 28  1  0  0  0
 28 29  2  0  0  0
  2  3  1  0  0  0
  3  4  2  0  0  0
  4  5  1  0  0  0
  5 30  1  0  0  0
 30 31  1  0  0  0
 31 32  2  0  0  0
 32 33  1  0  0  0
 33 34  2  0  0  0
 34 35  1  0  0  0
 35 36  2  0  0  0
 10 11  1  0  0  0
 11 12  2  0  0  0
 12 13  1  0  0  0
 13 14  2  0  0  0
 14  6  1  0  0  0
 13  8  1  0  0  0
  5  1  1  0  0  0
 36 31  1  0  0  0
 29 23  1  0  0  0
 17 18  1  0  0  0
M  END
> <minimizedAffinity>
-7.93780

> <CNNscore>
0.1925051361

> <CNNaffinity>
7.0806989670

> <CNN_VS>
1.3630709648

> <CNNaffinity_variance>
0.2541347742

$$$$
[H]c1c([H])c([H])c(C([H])([H])n2c([H])nc(-c3c([H])c([H])c(F)c([H])c3[H])c2-c2nn3c([H])c(N([H])C(=O)C(C([H])([H])[H])(C([H])([H])[H])C([H])([H])[H])nc3c([H])c2[H])c([H])c1[H]


 36 40  0  0  0  0  0  0  0  0999 V2000
  -22.5749   18.5768  -19.9139 C   0  0  0  0  0  0  0  0  0  0  0  0
  -23.4476   18.9105  -20.9274 C   0  0  0  0  0  0  0  0  0  0  0  0
  -24.4453   19.6317  -20.3368 N   0  0  0  0  0  0  0  0  0  0  0  0
  -24.2293   19.7511  -19.0436 C   0  0  0  0  0  0  0  0  0  0  0  0
  -23.0600   19.0894  -18.7896 N   0  0  0  0  0  0  0  0  0  0  0  0
  -18.6694   14.1648  -20.4303 C   0  0  0  0  0  0  0  0  0  0  0  0
  -19.9930   14.4076  -20.1419 C   0  0  0  0  0  0  0  0  0  0  0  0
  -20.2223   15.7540  -20.2093 N   0  0  0  0  0  0  0  0  0  0  0  0
  -21.3167   16.4581  -20.0154 N   0  0  0  0  0  0  0  0  0  0  0  0
  -21.3588   17.7962  -20.1253 C   0  0  0  0  0  0  0  0  0  0  0  0
  -20.1756   18.4128  -20.4580 C   0  0  0  0  0  0  0  0  0  0  0  0
  -19.0060   17.6880  -20.6679 C   0  0  0  0  0  0  0  0  0  0  0  0
  -19.0593   16.3309  -20.5338 C   0  0  0  0  0  0  0  0  0  0  0  0
  -18.1278   15.3768  -20.6663 N   0  0  0  0  0  0  0  0  0  0  0  0
  -17.8456   12.1343  -19.3023 C   0  0  0  0  0  0  0  0  0  0  0  0
  -18.2962   12.5905  -18.1968 O   0  0  0  0  0  0  0  0  0  0  0  0
  -18.0208   12.9161  -20.4714 N   0  0  0  0  0  0  0  0  0  0  0  0
  -17.6600   12.5548  -21.3701 H   0  0  0  0  0  0  0  0  0  0  0  0
  -15.7904   11.0401  -18.7081 C   0  0  0  0  0  0  0  0  0  0  0  0
  -17.1786   10.8312  -19.2762 C   0  0  0  0  0  0  0  0  0  0  0  0
  -17.9187    9.8920  -18.3725 C   0  0  0  0  0  0  0  0  0  0  0  0
  -17.0095   10.2493  -20.6625 C   0  0  0  0  0  0  0  0  0  0  0  0
  -23.4364   18.6183  -22.3471 C   0  0  0  0  0  0  0  0  0  0  0  0
  -23.9263   17.4171  -22.8012 C   0  0  0  0  0  0  0  0  0  0  0  0
  -23.9417   17.0934  -24.1563 C   0  0  0  0  0  0  0  0  0  0  0  0
  -23.4566   17.9888  -25.0882 C   0  0  0  0  0  0  0  0  0  0  0  0
  -23.4729   17.6693  -26.4121 F   0  0  0  0  0  0  0  0  0  0  0  0
  -22.9650   19.1920  -24.6421 C   0  0  0  0  0  0  0  0  0  0  0  0
  -22.9575   19.4974  -23.2874 C   0  0  0  0  0  0  0  0  0  0  0  0
  -22.4648   18.9846  -17.4672 C   0  0  0  0  0  0  0  0  0  0  0  0
  -23.2346   18.0889  -16.5866 C   0  0  0  0  0  0  0  0  0  0  0  0
  -23.9591   18.5442  -15.5157 C   0  0  0  0  0  0  0  0  0  0  0  0
  -24.6833   17.7283  -14.6884 C   0  0  0  0  0  0  0  0  0  0  0  0
  -24.6825   16.3714  -14.9488 C   0  0  0  0  0  0  0  0  0  0  0  0
  -23.9598   15.8845  -16.0229 C   0  0  0  0  0  0  0  0  0  0  0  0
  -23.2431   16.7196  -16.8364 C   0  0  0  0  0  0  0  0  0  0  0  0
 19 20  1  0  0  0
 20 21  1  0  0  0
 20 22  1  0  0  0
 20 15  1  0  0  0
 15 16  2  0  0  0
 15 17  1  0  0  0
 17  6  1  0  0  0
  6  7  2  0  0  0
  7  8  1  0  0  0
  8  9  1  0  0  0
  9 10  2  0  0  0
 10  1  1  0  0  0
  1  2  2  0  0  0
  2 23  1  0  0  0
 23 24  2  0  0  0
 24 25  1  0  0  0
 25 26  2  0  0  0
 26 27  1  0  0  0
 26 28  1  0  0  0
 28 29  2  0  0  0
  2  3  1  0  0  0
  3  4  2  0  0  0
  4  5  1  0  0  0
  5 30  1  0  0  0
 30 31  1  0  0  0
 31 32  2  0  0  0
 32 33  1  0  0  0
 33 34  2  0  0  0
 34 35  1  0  0  0
 35 36  2  0  0  0
 10 11  1  0  0  0
 11 12  2  0  0  0
 12 13  1  0  0  0
 13 14  2  0  0  0
 14  6  1  0  0  0
 13  8  1  0  0  0
  5  1  1  0  0  0
 36 31  1  0  0  0
 29 23  1  0  0  0
 17 18  1  0  0  0
M  END
> <minimizedAffinity>
-6.93139

> <CNNscore>
0.1657992005

> <CNNaffinity>
6.3680200577

> <CNN_VS>
1.0558125973

> <CNNaffinity_variance>
0.1402380764

$$$$
[H]c1nc(N([H])[H])c(OC([H])([H])C([H])([H])[H])c(N2C([H])([H])C([H])([H])N(C([H])(c3c([H])c([H])c(C(F)(F)F)c([H])c3[H])C([H])([H])N([H])[H])C([H])([H])C2([H])[H])n1


 33 35  0  0  0  0  0  0  0  0999 V2000
  -18.9067   13.4947  -19.0573 N   0  0  0  0  0  0  0  0  0  0  0  0
  -19.5979   14.7635  -19.1083 C   0  0  0  0  0  0  0  0  0  0  0  0
  -18.5090   15.7526  -19.4474 C   0  0  0  0  0  0  0  0  0  0  0  0
  -18.3019   15.7322  -20.9190 N   0  0  0  0  0  0  0  0  0  0  0  0
  -18.3481   14.3152  -21.2913 C   0  0  0  0  0  0  0  0  0  0  0  0
  -17.9350   13.3858  -20.2053 C   0  0  0  0  0  0  0  0  0  0  0  0
  -18.5678   11.1420  -18.2675 C   0  0  0  0  0  0  0  0  0  0  0  0
  -18.8746   10.1603  -17.3003 C   0  0  0  0  0  0  0  0  0  0  0  0
  -18.3906    8.8382  -17.4324 N   0  0  0  0  0  0  0  0  0  0  0  0
  -19.6239   10.4750  -16.2556 N   0  0  0  0  0  0  0  0  0  0  0  0
  -20.0772   11.7409  -16.1415 C   0  0  0  0  0  0  0  0  0  0  0  0
  -19.7913   12.6680  -17.0547 N   0  0  0  0  0  0  0  0  0  0  0  0
  -19.0147   12.4134  -18.1786 C   0  0  0  0  0  0  0  0  0  0  0  0
  -17.9860    8.3615  -16.5825 H   0  0  0  0  0  0  0  0  0  0  0  0
  -18.4226    8.3016  -18.3416 H   0  0  0  0  0  0  0  0  0  0  0  0
  -17.7716   10.6857  -19.3064 O   0  0  0  0  0  0  0  0  0  0  0  0
  -15.7547   10.3289  -20.5440 C   0  0  0  0  0  0  0  0  0  0  0  0
  -16.3549   10.7181  -19.2116 C   0  0  0  0  0  0  0  0  0  0  0  0
  -16.9669   16.2263  -21.1925 C   0  0  0  0  0  0  0  0  0  0  0  0
  -16.5706   16.0232  -22.5961 C   0  0  0  0  0  0  0  0  0  0  0  0
  -17.1488   16.8106  -23.5738 C   0  0  0  0  0  0  0  0  0  0  0  0
  -16.8995   16.5922  -24.9214 C   0  0  0  0  0  0  0  0  0  0  0  0
  -16.0645   15.5698  -25.3140 C   0  0  0  0  0  0  0  0  0  0  0  0
  -15.4684   14.7695  -24.3697 C   0  0  0  0  0  0  0  0  0  0  0  0
  -15.7442   15.0257  -23.0235 C   0  0  0  0  0  0  0  0  0  0  0  0
  -15.8463   15.2996  -26.7562 C   0  0  0  0  0  0  0  0  0  0  0  0
  -16.4665   14.0588  -27.0286 F   0  0  0  0  0  0  0  0  0  0  0  0
  -14.5223   15.1581  -27.0922 F   0  0  0  0  0  0  0  0  0  0  0  0
  -16.4998   16.2115  -27.5507 F   0  0  0  0  0  0  0  0  0  0  0  0
  -17.0263   17.7606  -21.0201 C   0  0  0  0  0  0  0  0  0  0  0  0
  -16.0350   18.2730  -20.1429 N   0  0  0  0  0  0  0  0  0  0  0  0
  -16.3920   18.4172  -19.1916 H   0  0  0  0  0  0  0  0  0  0  0  0
  -15.4717   19.0349  -20.5356 H   0  0  0  0  0  0  0  0  0  0  0  0
 17 18  1  0  0  0
 18 16  1  0  0  0
 16  7  1  0  0  0
  7  8  2  0  0  0
  8  9  1  0  0  0
  8 10  1  0  0  0
 10 11  2  0  0  0
 11 12  1  0  0  0
 12 13  2  0  0  0
 13  1  1  0  0  0
  1  2  1  0  0  0
  2  3  1  0  0  0
  3  4  1  0  0  0
  4 19  1  0  0  0
 19 30  1  0  0  0
 30 31  1  0  0  0
 19 20  1  0  0  0
 20 21  2  0  0  0
 21 22  1  0  0  0
 22 23  2  0  0  0
 23 26  1  0  0  0
 26 27  1  0  0  0
 26 28  1  0  0  0
 26 29  1  0  0  0
 23 24  1  0  0  0
 24 25  2  0  0  0
  4  5  1  0  0  0
  5  6  1  0  0  0
 13  7  1  0  0  0
  6  1  1  0  0  0
 25 20  1  0  0  0
  9 14  1  0  0  0
  9 15  1  0  0  0
 31 32  1  0  0  0
 31 33  1  0  0  0
M  END
> <minimizedAffinity>
-8.11846

> <CNNscore>
0.2202113122

> <CNNaffinity>
6.2750067711

> <CNN_VS>
1.3818274736

> <CNNaffinity_variance>
0.2320242375

$$$$
[H]c1nc(N([H])[H])c(OC([H])([H])C([H])([H])[H])c(N2C([H])([H])C([H])([H])N(C([H])(c3c([H])c([H])c(C(F)(F)F)c([H])c3[H])C([H])([H])N([H])[H])C([H])([H])C2([H])[H])n1


 33 35  0  0  0  0  0  0  0  0999 V2000
  -17.2560   16.0423  -21.7437 N   0  0  0  0  0  0  0  0  0  0  0  0
  -16.4677   16.4714  -20.6102 C   0  0  0  0  0  0  0  0  0  0  0  0
  -17.2600   17.6210  -20.0360 C   0  0  0  0  0  0  0  0  0  0  0  0
  -18.3274   17.0632  -19.1653 N   0  0  0  0  0  0  0  0  0  0  0  0
  -18.8581   15.9123  -19.9018 C   0  0  0  0  0  0  0  0  0  0  0  0
  -18.7191   16.0174  -21.3795 C   0  0  0  0  0  0  0  0  0  0  0  0
  -16.9986   14.4603  -23.6684 C   0  0  0  0  0  0  0  0  0  0  0  0
  -16.4664   14.2375  -24.9570 C   0  0  0  0  0  0  0  0  0  0  0  0
  -16.5979   12.9780  -25.5864 N   0  0  0  0  0  0  0  0  0  0  0  0
  -15.8353   15.2149  -25.5881 N   0  0  0  0  0  0  0  0  0  0  0  0
  -15.7190   16.4120  -24.9761 C   0  0  0  0  0  0  0  0  0  0  0  0
  -16.2180   16.6233  -23.7588 N   0  0  0  0  0  0  0  0  0  0  0  0
  -16.8896   15.6470  -23.0330 C   0  0  0  0  0  0  0  0  0  0  0  0
  -16.8800   12.9488  -26.6027 H   0  0  0  0  0  0  0  0  0  0  0  0
  -16.4188   12.0640  -25.0884 H   0  0  0  0  0  0  0  0  0  0  0  0
  -17.6392   13.3596  -23.1211 O   0  0  0  0  0  0  0  0  0  0  0  0
  -17.9631   12.3593  -20.9713 C   0  0  0  0  0  0  0  0  0  0  0  0
  -17.0090   12.5655  -22.1263 C   0  0  0  0  0  0  0  0  0  0  0  0
  -19.3814   18.0523  -19.0554 C   0  0  0  0  0  0  0  0  0  0  0  0
  -19.7378   18.3385  -17.6557 C   0  0  0  0  0  0  0  0  0  0  0  0
  -19.0201   17.7267  -16.6454 C   0  0  0  0  0  0  0  0  0  0  0  0
  -19.3790   17.8697  -15.3124 C   0  0  0  0  0  0  0  0  0  0  0  0
  -20.4747   18.6299  -14.9685 C   0  0  0  0  0  0  0  0  0  0  0  0
  -21.2094   19.2567  -15.9457 C   0  0  0  0  0  0  0  0  0  0  0  0
  -20.8117   19.0887  -17.2753 C   0  0  0  0  0  0  0  0  0  0  0  0
  -20.8926   18.7330  -13.5489 C   0  0  0  0  0  0  0  0  0  0  0  0
  -21.8392   17.7050  -13.3354 F   0  0  0  0  0  0  0  0  0  0  0  0
  -21.5236   19.9152  -13.2488 F   0  0  0  0  0  0  0  0  0  0  0  0
  -19.8563   18.4529  -12.6903 F   0  0  0  0  0  0  0  0  0  0  0  0
  -18.7925   19.3775  -19.5888 C   0  0  0  0  0  0  0  0  0  0  0  0
  -18.3521   20.2567  -18.5651 N   0  0  0  0  0  0  0  0  0  0  0  0
  -19.0540   20.9686  -18.3329 H   0  0  0  0  0  0  0  0  0  0  0  0
  -17.3884   20.5898  -18.6754 H   0  0  0  0  0  0  0  0  0  0  0  0
 17 18  1  0  0  0
 18 16  1  0  0  0
 16  7  1  0  0  0
  7  8  2  0  0  0
  8  9  1  0  0  0
  8 10  1  0  0  0
 10 11  2  0  0  0
 11 12  1  0  0  0
 12 13  2  0  0  0
 13  1  1  0  0  0
  1  2  1  0  0  0
  2  3  1  0  0  0
  3  4  1  0  0  0
  4 19  1  0  0  0
 19 30  1  0  0  0
 30 31  1  0  0  0
 19 20  1  0  0  0
 20 21  2  0  0  0
 21 22  1  0  0  0
 22 23  2  0  0  0
 23 26  1  0  0  0
 26 27  1  0  0  0
 26 28  1  0  0  0
 26 29  1  0  0  0
 23 24  1  0  0  0
 24 25  2  0  0  0
  4  5  1  0  0  0
  5  6  1  0  0  0
 13  7  1  0  0  0
  6  1  1  0  0  0
 25 20  1  0  0  0
  9 14  1  0  0  0
  9 15  1  0  0  0
 31 32  1  0  0  0
 31 33  1  0  0  0
M  END
> <minimizedAffinity>
-6.55243

> <CNNscore>
0.2044692189

> <CNNaffinity>
5.4221296310

> <CNN_VS>
1.1086585522

> <CNNaffinity_variance>
0.4571986794

$$$$
[H]c1nc(N([H])[H])c(OC([H])([H])C([H])([H])[H])c(N2C([H])([H])C([H])([H])N(C([H])(c3c([H])c([H])c(C(F)(F)F)c([H])c3[H])C([H])([H])N([H])[H])C([H])([H])C2([H])[H])n1


 33 35  0  0  0  0  0  0  0  0999 V2000
  -17.7345   15.6207  -21.9819 N   0  0  0  0  0  0  0  0  0  0  0  0
  -17.7641   15.8807  -20.5600 C   0  0  0  0  0  0  0  0  0  0  0  0
  -17.9362   17.3779  -20.4720 C   0  0  0  0  0  0  0  0  0  0  0  0
  -19.3809   17.6913  -20.6254 N   0  0  0  0  0  0  0  0  0  0  0  0
  -19.8490   16.8155  -21.7036 C   0  0  0  0  0  0  0  0  0  0  0  0
  -18.7939   16.4348  -22.6812 C   0  0  0  0  0  0  0  0  0  0  0  0
  -16.4512   13.5330  -22.5000 C   0  0  0  0  0  0  0  0  0  0  0  0
  -15.5739   12.8695  -23.3850 C   0  0  0  0  0  0  0  0  0  0  0  0
  -15.0772   11.5808  -23.0810 N   0  0  0  0  0  0  0  0  0  0  0  0
  -15.2079   13.4556  -24.5139 N   0  0  0  0  0  0  0  0  0  0  0  0
  -15.6911   14.6845  -24.7919 C   0  0  0  0  0  0  0  0  0  0  0  0
  -16.5168   15.3136  -23.9565 N   0  0  0  0  0  0  0  0  0  0  0  0
  -16.9430   14.7651  -22.7529 C   0  0  0  0  0  0  0  0  0  0  0  0
  -15.0689   10.8505  -23.8425 H   0  0  0  0  0  0  0  0  0  0  0  0
  -14.7061   11.3169  -22.1280 H   0  0  0  0  0  0  0  0  0  0  0  0
  -16.7601   12.8094  -21.3587 O   0  0  0  0  0  0  0  0  0  0  0  0
  -18.3777   12.1914  -19.7068 C   0  0  0  0  0  0  0  0  0  0  0  0
  -18.0471   12.2352  -21.1818 C   0  0  0  0  0  0  0  0  0  0  0  0
  -19.4983   19.0637  -21.0771 C   0  0  0  0  0  0  0  0  0  0  0  0
  -20.6128   19.2497  -22.0213 C   0  0  0  0  0  0  0  0  0  0  0  0
  -20.3299   19.6069  -23.3262 C   0  0  0  0  0  0  0  0  0  0  0  0
  -21.3392   19.9040  -24.2312 C   0  0  0  0  0  0  0  0  0  0  0  0
  -22.6582   19.8526  -23.8384 C   0  0  0  0  0  0  0  0  0  0  0  0
  -22.9774   19.4968  -22.5503 C   0  0  0  0  0  0  0  0  0  0  0  0
  -21.9305   19.2027  -21.6719 C   0  0  0  0  0  0  0  0  0  0  0  0
  -23.7329   20.2283  -24.7893 C   0  0  0  0  0  0  0  0  0  0  0  0
  -24.5520   19.0858  -24.9383 F   0  0  0  0  0  0  0  0  0  0  0  0
  -23.2688   20.5439  -26.0426 F   0  0  0  0  0  0  0  0  0  0  0  0
  -24.5575   21.1980  -24.2702 F   0  0  0  0  0  0  0  0  0  0  0  0
  -19.8913   19.8983  -19.8376 C   0  0  0  0  0  0  0  0  0  0  0  0
  -18.7813   20.4673  -19.1601 N   0  0  0  0  0  0  0  0  0  0  0  0
  -18.4823   19.9024  -18.3571 H   0  0  0  0  0  0  0  0  0  0  0  0
  -18.8518   21.4782  -19.0016 H   0  0  0  0  0  0  0  0  0  0  0  0
 17 18  1  0  0  0
 18 16  1  0  0  0
 16  7  1  0  0  0
  7  8  2  0  0  0
  8  9  1  0  0  0
  8 10  1  0  0  0
 10 11  2  0  0  0
 11 12  1  0  0  0
 12 13  2  0  0  0
 13  1  1  0  0  0
  1  2  1  0  0  0
  2  3  1  0  0  0
  3  4  1  0  0  0
  4 19  1  0  0  0
 19 30  1  0  0  0
 30 31  1  0  0  0
 19 20  1  0  0  0
 20 21  2  0  0  0
 21 22  1  0  0  0
 22 23  2  0  0  0
 23 26  1  0  0  0
 26 27  1  0  0  0
 26 28  1  0  0  0
 26 29  1  0  0  0
 23 24  1  0  0  0
 24 25  2  0  0  0
  4  5  1  0  0  0
  5  6  1  0  0  0
 13  7  1  0  0  0
  6  1  1  0  0  0
 25 20  1  0  0  0
  9 14  1  0  0  0
  9 15  1  0  0  0
 31 32  1  0  0  0
 31 33  1  0  0  0
M  END
> <minimizedAffinity>
-6.58361

> <CNNscore>
0.1657235175

> <CNNaffinity>
6.0821890831

> <CNN_VS>
1.0079617500

> <CNNaffinity_variance>
0.3067217469

$$$$
[H]c1nc(N([H])[H])c(OC([H])([H])C([H])([H])[H])c(N2C([H])([H])C([H])([H])N(C([H])(c3c([H])c([H])c(C(F)(F)F)c([H])c3[H])C([H])([H])N([H])[H])C([H])([H])C2([H])[H])n1


 33 35  0  0  0  0  0  0  0  0999 V2000
  -17.7321   15.2205  -21.6390 N   0  0  0  0  0  0  0  0  0  0  0  0
  -19.1598   15.2620  -21.8631 C   0  0  0  0  0  0  0  0  0  0  0  0
  -19.7456   15.0751  -20.4843 C   0  0  0  0  0  0  0  0  0  0  0  0
  -19.7496   16.3926  -19.7966 N   0  0  0  0  0  0  0  0  0  0  0  0
  -18.4565   16.9992  -20.1265 C   0  0  0  0  0  0  0  0  0  0  0  0
  -17.3760   16.0158  -20.4082 C   0  0  0  0  0  0  0  0  0  0  0  0
  -15.7237   15.1422  -23.1335 C   0  0  0  0  0  0  0  0  0  0  0  0
  -14.8213   14.3405  -23.8657 C   0  0  0  0  0  0  0  0  0  0  0  0
  -13.8187   14.9296  -24.6705 N   0  0  0  0  0  0  0  0  0  0  0  0
  -14.9100   13.0214  -23.8027 N   0  0  0  0  0  0  0  0  0  0  0  0
  -15.8704   12.4731  -23.0294 C   0  0  0  0  0  0  0  0  0  0  0  0
  -16.7249   13.2280  -22.3399 N   0  0  0  0  0  0  0  0  0  0  0  0
  -16.6967   14.6172  -22.3579 C   0  0  0  0  0  0  0  0  0  0  0  0
  -12.8406   14.5363  -24.6267 H   0  0  0  0  0  0  0  0  0  0  0  0
  -14.0052   15.7409  -25.3205 H   0  0  0  0  0  0  0  0  0  0  0  0
  -15.5200   16.5054  -23.2811 O   0  0  0  0  0  0  0  0  0  0  0  0
  -16.7807   16.8090  -25.2924 C   0  0  0  0  0  0  0  0  0  0  0  0
  -16.4973   17.3288  -23.9009 C   0  0  0  0  0  0  0  0  0  0  0  0
  -19.7834   16.1541  -18.3672 C   0  0  0  0  0  0  0  0  0  0  0  0
  -19.7798   14.7188  -18.0382 C   0  0  0  0  0  0  0  0  0  0  0  0
  -20.9546   14.1284  -17.6124 C   0  0  0  0  0  0  0  0  0  0  0  0
  -20.9885   12.8091  -17.1830 C   0  0  0  0  0  0  0  0  0  0  0  0
  -19.8353   12.0563  -17.1682 C   0  0  0  0  0  0  0  0  0  0  0  0
  -18.6496   12.6085  -17.5888 C   0  0  0  0  0  0  0  0  0  0  0  0
  -18.6605   13.9395  -18.0160 C   0  0  0  0  0  0  0  0  0  0  0  0
  -19.8613   10.6656  -16.6527 C   0  0  0  0  0  0  0  0  0  0  0  0
  -21.2237   10.3016  -16.5536 F   0  0  0  0  0  0  0  0  0  0  0  0
  -19.3292   10.5389  -15.3931 F   0  0  0  0  0  0  0  0  0  0  0  0
  -19.3155    9.7786  -17.5499 F   0  0  0  0  0  0  0  0  0  0  0  0
  -18.4474   16.6887  -17.8045 C   0  0  0  0  0  0  0  0  0  0  0  0
  -18.6037   17.5324  -16.6738 N   0  0  0  0  0  0  0  0  0  0  0  0
  -18.5922   18.5275  -16.9245 H   0  0  0  0  0  0  0  0  0  0  0  0
  -18.0394   17.2635  -15.8606 H   0  0  0  0  0  0  0  0  0  0  0  0
 17 18  1  0  0  0
 18 16  1  0  0  0
 16  7  1  0  0  0
  7  8  2  0  0  0
  8  9  1  0  0  0
  8 10  1  0  0  0
 10 11  2  0  0  0
 11 12  1  0  0  0
 12 13  2  0  0  0
 13  1  1  0  0  0
  1  2  1  0  0  0
  2  3  1  0  0  0
  3  4  1  0  0  0
  4 19  1  0  0  0
 19 30  1  0  0  0
 30 31  1  0  0  0
 19 20  1  0  0  0
 20 21  2  0  0  0
 21 22  1  0  0  0
 22 23  2  0  0  0
 23 26  1  0  0  0
 26 27  1  0  0  0
 26 28  1  0  0  0
 26 29  1  0  0  0
 23 24  1  0  0  0
 24 25  2  0  0  0
  4  5  1  0  0  0
  5  6  1  0  0  0
 13  7  1  0  0  0
  6  1  1  0  0  0
 25 20  1  0  0  0
  9 14  1  0  0  0
  9 15  1  0  0  0
 31 32  1  0  0  0
 31 33  1  0  0  0
M  END
> <minimizedAffinity>
-7.25954

> <CNNscore>
0.1629753560

> <CNNaffinity>
6.1703076363

> <CNN_VS>
1.0056080818

> <CNNaffinity_variance>
0.2963618636

$$$$
[H]c1nc(N([H])[H])c(OC([H])([H])C([H])([H])[H])c(N2C([H])([H])C([H])([H])N(C([H])(c3c([H])c([H])c(C(F)(F)F)c([H])c3[H])C([H])([H])N([H])[H])C([H])([H])C2([H])[H])n1


 33 35  0  0  0  0  0  0  0  0999 V2000
  -18.1768   15.7798  -20.9326 N   0  0  0  0  0  0  0  0  0  0  0  0
  -17.9543   16.5403  -19.7233 C   0  0  0  0  0  0  0  0  0  0  0  0
  -17.9007   17.9707  -20.2030 C   0  0  0  0  0  0  0  0  0  0  0  0
  -19.2940   18.4700  -20.3382 N   0  0  0  0  0  0  0  0  0  0  0  0
  -20.0373   17.3654  -20.9515 C   0  0  0  0  0  0  0  0  0  0  0  0
  -19.2059   16.4655  -21.7957 C   0  0  0  0  0  0  0  0  0  0  0  0
  -17.0981   14.2196  -22.5683 C   0  0  0  0  0  0  0  0  0  0  0  0
  -16.6977   12.8971  -22.8582 C   0  0  0  0  0  0  0  0  0  0  0  0
  -16.1403   12.5690  -24.1158 N   0  0  0  0  0  0  0  0  0  0  0  0
  -16.8437   11.9488  -21.9466 N   0  0  0  0  0  0  0  0  0  0  0  0
  -17.3754   12.2767  -20.7504 C   0  0  0  0  0  0  0  0  0  0  0  0
  -17.7566   13.5235  -20.4759 N   0  0  0  0  0  0  0  0  0  0  0  0
  -17.6381   14.5710  -21.3814 C   0  0  0  0  0  0  0  0  0  0  0  0
  -15.2844   11.9525  -24.1431 H   0  0  0  0  0  0  0  0  0  0  0  0
  -16.5459   12.9060  -25.0309 H   0  0  0  0  0  0  0  0  0  0  0  0
  -16.8862   15.1164  -23.6038 O   0  0  0  0  0  0  0  0  0  0  0  0
  -16.4625   17.3979  -24.1891 C   0  0  0  0  0  0  0  0  0  0  0  0
  -15.9408   16.1689  -23.4789 C   0  0  0  0  0  0  0  0  0  0  0  0
  -19.2859   19.5798  -21.2707 C   0  0  0  0  0  0  0  0  0  0  0  0
  -20.5040   19.6266  -22.0968 C   0  0  0  0  0  0  0  0  0  0  0  0
  -20.3971   19.4070  -23.4571 C   0  0  0  0  0  0  0  0  0  0  0  0
  -21.4892   19.5474  -24.3019 C   0  0  0  0  0  0  0  0  0  0  0  0
  -22.7142   19.9182  -23.7935 C   0  0  0  0  0  0  0  0  0  0  0  0
  -22.8592   20.1404  -22.4454 C   0  0  0  0  0  0  0  0  0  0  0  0
  -21.7345   19.9851  -21.6299 C   0  0  0  0  0  0  0  0  0  0  0  0
  -23.8659   20.1262  -24.7050 C   0  0  0  0  0  0  0  0  0  0  0  0
  -23.3214   20.4153  -25.9772 F   0  0  0  0  0  0  0  0  0  0  0  0
  -24.6493   21.2001  -24.3607 F   0  0  0  0  0  0  0  0  0  0  0  0
  -24.5943   18.9732  -24.8782 F   0  0  0  0  0  0  0  0  0  0  0  0
  -19.3415   20.8665  -20.4171 C   0  0  0  0  0  0  0  0  0  0  0  0
  -18.8996   20.6818  -19.0809 N   0  0  0  0  0  0  0  0  0  0  0  0
  -19.6782   20.5317  -18.4293 H   0  0  0  0  0  0  0  0  0  0  0  0
  -18.1753   21.3414  -18.7770 H   0  0  0  0  0  0  0  0  0  0  0  0
 17 18  1  0  0  0
 18 16  1  0  0  0
 16  7  1  0  0  0
  7  8  2  0  0  0
  8  9  1  0  0  0
  8 10  1  0  0  0
 10 11  2  0  0  0
 11 12  1  0  0  0
 12 13  2  0  0  0
 13  1  1  0  0  0
  1  2  1  0  0  0
  2  3  1  0  0  0
  3  4  1  0  0  0
  4 19  1  0  0  0
 19 30  1  0  0  0
 30 31  1  0  0  0
 19 20  1  0  0  0
 20 21  2  0  0  0
 21 22  1  0  0  0
 22 23  2  0  0  0
 23 26  1  0  0  0
 26 27  1  0  0  0
 26 28  1  0  0  0
 26 29  1  0  0  0
 23 24  1  0  0  0
 24 25  2  0  0  0
  4  5  1  0  0  0
  5  6  1  0  0  0
 13  7  1  0  0  0
  6  1  1  0  0  0
 25 20  1  0  0  0
  9 14  1  0  0  0
  9 15  1  0  0  0
 31 32  1  0  0  0
 31 33  1  0  0  0
M  END
> <minimizedAffinity>
-6.56595

> <CNNscore>
0.1396115571

> <CNNaffinity>
5.7836251259

> <CNN_VS>
0.8074609041

> <CNNaffinity_variance>
0.4222465158

$$$$
[H]c1nc(N([H])[H])c(OC([H])([H])C([H])([H])[H])c(N2C([H])([H])C([H])([H])N(C([H])(c3c([H])c([H])c(C(F)(F)F)c([H])c3[H])C([H])([H])N([H])[H])C([H])([H])C2([H])[H])n1


 33 35  0  0  0  0  0  0  0  0999 V2000
  -18.6491   14.1406  -19.0129 N   0  0  0  0  0  0  0  0  0  0  0  0
  -18.3483   13.9909  -17.6067 C   0  0  0  0  0  0  0  0  0  0  0  0
  -18.6298   15.3580  -17.0315 C   0  0  0  0  0  0  0  0  0  0  0  0
  -20.0898   15.4646  -16.7747 N   0  0  0  0  0  0  0  0  0  0  0  0
  -20.7286   14.8559  -17.9452 C   0  0  0  0  0  0  0  0  0  0  0  0
  -19.9190   14.9340  -19.1911 C   0  0  0  0  0  0  0  0  0  0  0  0
  -17.4482   14.3210  -21.2036 C   0  0  0  0  0  0  0  0  0  0  0  0
  -16.9209   13.6457  -22.3257 C   0  0  0  0  0  0  0  0  0  0  0  0
  -16.3568   14.3655  -23.4043 N   0  0  0  0  0  0  0  0  0  0  0  0
  -16.9525   12.3234  -22.3747 N   0  0  0  0  0  0  0  0  0  0  0  0
  -17.4922   11.6495  -21.3376 C   0  0  0  0  0  0  0  0  0  0  0  0
  -17.9930   12.2851  -20.2790 N   0  0  0  0  0  0  0  0  0  0  0  0
  -17.9988   13.6694  -20.1566 C   0  0  0  0  0  0  0  0  0  0  0  0
  -15.4433   14.0300  -23.8121 H   0  0  0  0  0  0  0  0  0  0  0  0
  -16.8117   15.2199  -23.8268 H   0  0  0  0  0  0  0  0  0  0  0  0
  -17.3483   15.7018  -21.2737 O   0  0  0  0  0  0  0  0  0  0  0  0
  -16.5616   17.8942  -20.7245 C   0  0  0  0  0  0  0  0  0  0  0  0
  -16.4857   16.4186  -20.4023 C   0  0  0  0  0  0  0  0  0  0  0  0
  -20.4410   16.8708  -16.7504 C   0  0  0  0  0  0  0  0  0  0  0  0
  -20.6278   17.3783  -15.3808 C   0  0  0  0  0  0  0  0  0  0  0  0
  -21.8437   17.1785  -14.7547 C   0  0  0  0  0  0  0  0  0  0  0  0
  -22.1169   17.7286  -13.5102 C   0  0  0  0  0  0  0  0  0  0  0  0
  -21.1706   18.4981  -12.8707 C   0  0  0  0  0  0  0  0  0  0  0  0
  -19.9488   18.7144  -13.4608 C   0  0  0  0  0  0  0  0  0  0  0  0
  -19.7138   18.1396  -14.7132 C   0  0  0  0  0  0  0  0  0  0  0  0
  -21.4856   19.1348  -11.5685 C   0  0  0  0  0  0  0  0  0  0  0  0
  -20.4805   18.7173  -10.6662 F   0  0  0  0  0  0  0  0  0  0  0  0
  -22.6840   18.7276  -11.0359 F   0  0  0  0  0  0  0  0  0  0  0  0
  -21.3704   20.5033  -11.6285 F   0  0  0  0  0  0  0  0  0  0  0  0
  -19.2113   17.6364  -17.2878 C   0  0  0  0  0  0  0  0  0  0  0  0
  -19.5241   18.5659  -18.3140 N   0  0  0  0  0  0  0  0  0  0  0  0
  -19.3638   18.1809  -19.2518 H   0  0  0  0  0  0  0  0  0  0  0  0
  -19.1752   19.5160  -18.1488 H   0  0  0  0  0  0  0  0  0  0  0  0
 17 18  1  0  0  0
 18 16  1  0  0  0
 16  7  1  0  0  0
  7  8  2  0  0  0
  8  9  1  0  0  0
  8 10  1  0  0  0
 10 11  2  0  0  0
 11 12  1  0  0  0
 12 13  2  0  0  0
 13  1  1  0  0  0
  1  2  1  0  0  0
  2  3  1  0  0  0
  3  4  1  0  0  0
  4 19  1  0  0  0
 19 30  1  0  0  0
 30 31  1  0  0  0
 19 20  1  0  0  0
 20 21  2  0  0  0
 21 22  1  0  0  0
 22 23  2  0  0  0
 23 26  1  0  0  0
 26 27  1  0  0  0
 26 28  1  0  0  0
 26 29  1  0  0  0
 23 24  1  0  0  0
 24 25  2  0  0  0
  4  5  1  0  0  0
  5  6  1  0  0  0
 13  7  1  0  0  0
  6  1  1  0  0  0
 25 20  1  0  0  0
  9 14  1  0  0  0
  9 15  1  0  0  0
 31 32  1  0  0  0
 31 33  1  0  0  0
M  END
> <minimizedAffinity>
-6.01739

> <CNNscore>
0.1225147098

> <CNNaffinity>
5.2859902382

> <CNN_VS>
0.6476115584

> <CNNaffinity_variance>
0.2486578673

$$$$
[H]c1nc(N([H])[H])c(OC([H])([H])C([H])([H])[H])c(N2C([H])([H])C([H])([H])N(C([H])(c3c([H])c([H])c(C(F)(F)F)c([H])c3[H])C([H])([H])N([H])[H])C([H])([H])C2([H])[H])n1


 33 35  0  0  0  0  0  0  0  0999 V2000
  -18.3901   15.3191  -21.4197 N   0  0  0  0  0  0  0  0  0  0  0  0
  -19.6434   14.7542  -20.9718 C   0  0  0  0  0  0  0  0  0  0  0  0
  -19.2805   13.3433  -20.5759 C   0  0  0  0  0  0  0  0  0  0  0  0
  -18.7265   13.3735  -19.1971 N   0  0  0  0  0  0  0  0  0  0  0  0
  -17.8499   14.5479  -19.1637 C   0  0  0  0  0  0  0  0  0  0  0  0
  -17.2762   14.9182  -20.4856 C   0  0  0  0  0  0  0  0  0  0  0  0
  -17.2608   15.9664  -23.5595 C   0  0  0  0  0  0  0  0  0  0  0  0
  -17.0034   16.9842  -24.5036 C   0  0  0  0  0  0  0  0  0  0  0  0
  -16.1359   16.7549  -25.5965 N   0  0  0  0  0  0  0  0  0  0  0  0
  -17.5776   18.1692  -24.3691 N   0  0  0  0  0  0  0  0  0  0  0  0
  -18.4045   18.3731  -23.3224 C   0  0  0  0  0  0  0  0  0  0  0  0
  -18.6463   17.4148  -22.4288 N   0  0  0  0  0  0  0  0  0  0  0  0
  -18.0792   16.1482  -22.5008 C   0  0  0  0  0  0  0  0  0  0  0  0
  -16.4308   17.0875  -26.5534 H   0  0  0  0  0  0  0  0  0  0  0  0
  -15.2012   16.2729  -25.4984 H   0  0  0  0  0  0  0  0  0  0  0  0
  -16.6035   14.7736  -23.8179 O   0  0  0  0  0  0  0  0  0  0  0  0
  -17.6040   13.3475  -25.4587 C   0  0  0  0  0  0  0  0  0  0  0  0
  -17.3250   13.5621  -23.9880 C   0  0  0  0  0  0  0  0  0  0  0  0
  -17.9049   12.1931  -19.0163 C   0  0  0  0  0  0  0  0  0  0  0  0
  -18.5528   11.1848  -18.1607 C   0  0  0  0  0  0  0  0  0  0  0  0
  -19.5758   11.5806  -17.3198 C   0  0  0  0  0  0  0  0  0  0  0  0
  -20.1487   10.7012  -16.4119 C   0  0  0  0  0  0  0  0  0  0  0  0
  -19.6983    9.4024  -16.3277 C   0  0  0  0  0  0  0  0  0  0  0  0
  -18.6859    8.9723  -17.1511 C   0  0  0  0  0  0  0  0  0  0  0  0
  -18.1389    9.8895  -18.0530 C   0  0  0  0  0  0  0  0  0  0  0  0
  -20.2702    8.4807  -15.3159 C   0  0  0  0  0  0  0  0  0  0  0  0
  -20.6480    7.3091  -16.0110 F   0  0  0  0  0  0  0  0  0  0  0  0
  -21.4069    8.9641  -14.7159 F   0  0  0  0  0  0  0  0  0  0  0  0
  -19.3244    8.0711  -14.4064 F   0  0  0  0  0  0  0  0  0  0  0  0
  -17.7978   11.5200  -20.4029 C   0  0  0  0  0  0  0  0  0  0  0  0
  -16.4674   11.1955  -20.7762 N   0  0  0  0  0  0  0  0  0  0  0  0
  -16.0470   11.9086  -21.3829 H   0  0  0  0  0  0  0  0  0  0  0  0
  -16.3313   10.2200  -21.0623 H   0  0  0  0  0  0  0  0  0  0  0  0
 17 18  1  0  0  0
 18 16  1  0  0  0
 16  7  1  0  0  0
  7  8  2  0  0  0
  8  9  1  0  0  0
  8 10  1  0  0  0
 10 11  2  0  0  0
 11 12  1  0  0  0
 12 13  2  0  0  0
 13  1  1  0  0  0
  1  2  1  0  0  0
  2  3  1  0  0  0
  3  4  1  0  0  0
  4 19  1  0  0  0
 19 30  1  0  0  0
 30 31  1  0  0  0
 19 20  1  0  0  0
 20 21  2  0  0  0
 21 22  1  0  0  0
 22 23  2  0  0  0
 23 26  1  0  0  0
 26 27  1  0  0  0
 26 28  1  0  0  0
 26 29  1  0  0  0
 23 24  1  0  0  0
 24 25  2  0  0  0
  4  5  1  0  0  0
  5  6  1  0  0  0
 13  7  1  0  0  0
  6  1  1  0  0  0
 25 20  1  0  0  0
  9 14  1  0  0  0
  9 15  1  0  0  0
 31 32  1  0  0  0
 31 33  1  0  0  0
M  END
> <minimizedAffinity>
-7.53485

> <CNNscore>
0.1174013838

> <CNNaffinity>
6.1563377380

> <CNN_VS>
0.7227625847

> <CNNaffinity_variance>
0.3883102834

$$$$
[H]c1nc(N([H])[H])c(OC([H])([H])C([H])([H])[H])c(N2C([H])([H])C([H])([H])N(C([H])(c3c([H])c([H])c(C(F)(F)F)c([H])c3[H])C([H])([H])N([H])[H])C([H])([H])C2([H])[H])n1


 33 35  0  0  0  0  0  0  0  0999 V2000
  -19.2974   14.3537  -18.1062 N   0  0  0  0  0  0  0  0  0  0  0  0
  -18.4462   15.4376  -17.6691 C   0  0  0  0  0  0  0  0  0  0  0  0
  -18.0375   16.1145  -18.9551 C   0  0  0  0  0  0  0  0  0  0  0  0
  -19.1245   17.0443  -19.3588 N   0  0  0  0  0  0  0  0  0  0  0  0
  -20.3678   16.3087  -19.1104 C   0  0  0  0  0  0  0  0  0  0  0  0
  -20.2280   14.8297  -19.1932 C   0  0  0  0  0  0  0  0  0  0  0  0
  -18.6400   11.9419  -17.9494 C   0  0  0  0  0  0  0  0  0  0  0  0
  -18.9782   10.6479  -17.4972 C   0  0  0  0  0  0  0  0  0  0  0  0
  -18.1571    9.5374  -17.8015 N   0  0  0  0  0  0  0  0  0  0  0  0
  -20.0756   10.4655  -16.7802 N   0  0  0  0  0  0  0  0  0  0  0  0
  -20.8487   11.5344  -16.4960 C   0  0  0  0  0  0  0  0  0  0  0  0
  -20.5329   12.7559  -16.9243 N   0  0  0  0  0  0  0  0  0  0  0  0
  -19.4005   13.0258  -17.6833 C   0  0  0  0  0  0  0  0  0  0  0  0
  -17.9373    8.8471  -17.0344 H   0  0  0  0  0  0  0  0  0  0  0  0
  -17.7594    9.3620  -18.7641 H   0  0  0  0  0  0  0  0  0  0  0  0
  -17.4655   11.9975  -18.6835 O   0  0  0  0  0  0  0  0  0  0  0  0
  -16.8035   11.0240  -20.7671 C   0  0  0  0  0  0  0  0  0  0  0  0
  -17.4900   12.1894  -20.0906 C   0  0  0  0  0  0  0  0  0  0  0  0
  -19.0141   17.2731  -20.7859 C   0  0  0  0  0  0  0  0  0  0  0  0
  -18.1483   16.2824  -21.4471 C   0  0  0  0  0  0  0  0  0  0  0  0
  -16.7819   16.4899  -21.4558 C   0  0  0  0  0  0  0  0  0  0  0  0
  -15.9261   15.6518  -22.1566 C   0  0  0  0  0  0  0  0  0  0  0  0
  -16.4305   14.5873  -22.8700 C   0  0  0  0  0  0  0  0  0  0  0  0
  -17.7833   14.3474  -22.8806 C   0  0  0  0  0  0  0  0  0  0  0  0
  -18.6093   15.2141  -22.1591 C   0  0  0  0  0  0  0  0  0  0  0  0
  -15.5212   13.7281  -23.6671 C   0  0  0  0  0  0  0  0  0  0  0  0
  -15.8208   13.9814  -25.0253 F   0  0  0  0  0  0  0  0  0  0  0  0
  -15.7213   12.3846  -23.4657 F   0  0  0  0  0  0  0  0  0  0  0  0
  -14.2058   14.0966  -23.5133 F   0  0  0  0  0  0  0  0  0  0  0  0
  -20.4194   17.0223  -21.3773 C   0  0  0  0  0  0  0  0  0  0  0  0
  -20.8894   18.0828  -22.1954 N   0  0  0  0  0  0  0  0  0  0  0  0
  -21.5075   18.7246  -21.6860 H   0  0  0  0  0  0  0  0  0  0  0  0
  -21.2055   17.7937  -23.1273 H   0  0  0  0  0  0  0  0  0  0  0  0
 17 18  1  0  0  0
 18 16  1  0  0  0
 16  7  1  0  0  0
  7  8  2  0  0  0
  8  9  1  0  0  0
  8 10  1  0  0  0
 10 11  2  0  0  0
 11 12  1  0  0  0
 12 13  2  0  0  0
 13  1  1  0  0  0
  1  2  1  0  0  0
  2  3  1  0  0  0
  3  4  1  0  0  0
  4 19  1  0  0  0
 19 30  1  0  0  0
 30 31  1  0  0  0
 19 20  1  0  0  0
 20 21  2  0  0  0
 21 22  1  0  0  0
 22 23  2  0  0  0
 23 26  1  0  0  0
 26 27  1  0  0  0
 26 28  1  0  0  0
 26 29  1  0  0  0
 23 24  1  0  0  0
 24 25  2  0  0  0
  4  5  1  0  0  0
  5  6  1  0  0  0
 13  7  1  0  0  0
  6  1  1  0  0  0
 25 20  1  0  0  0
  9 14  1  0  0  0
  9 15  1  0  0  0
 31 32  1  0  0  0
 31 33  1  0  0  0
M  END
> <minimizedAffinity>
-7.49939

> <CNNscore>
0.1101939306

> <CNNaffinity>
5.9322805405

> <CNN_VS>
0.6537013054

> <CNNaffinity_variance>
0.2367314994

$$$$
[H]c1nc(N([H])[H])c(OC([H])([H])C([H])([H])[H])c(N2C([H])([H])C([H])([H])N(C([H])(c3c([H])c([H])c(C(F)(F)F)c([H])c3[H])C([H])([H])N([H])[H])C([H])([H])C2([H])[H])n1


 33 35  0  0  0  0  0  0  0  0999 V2000
  -17.7884   15.3884  -20.1252 N   0  0  0  0  0  0  0  0  0  0  0  0
  -17.2308   16.6557  -19.7088 C   0  0  0  0  0  0  0  0  0  0  0  0
  -18.4217   17.4140  -19.1741 C   0  0  0  0  0  0  0  0  0  0  0  0
  -18.6579   16.9830  -17.7715 N   0  0  0  0  0  0  0  0  0  0  0  0
  -18.4763   15.5285  -17.7835 C   0  0  0  0  0  0  0  0  0  0  0  0
  -18.7690   14.8884  -19.0944 C   0  0  0  0  0  0  0  0  0  0  0  0
  -17.5390   14.8948  -22.5681 C   0  0  0  0  0  0  0  0  0  0  0  0
  -17.3763   13.9119  -23.5684 C   0  0  0  0  0  0  0  0  0  0  0  0
  -17.3729   14.2663  -24.9374 N   0  0  0  0  0  0  0  0  0  0  0  0
  -17.2253   12.6420  -23.2272 N   0  0  0  0  0  0  0  0  0  0  0  0
  -17.2287   12.3186  -21.9171 C   0  0  0  0  0  0  0  0  0  0  0  0
  -17.3851   13.2444  -20.9716 N   0  0  0  0  0  0  0  0  0  0  0  0
  -17.5520   14.5953  -21.2512 C   0  0  0  0  0  0  0  0  0  0  0  0
  -16.6401   13.8420  -25.5668 H   0  0  0  0  0  0  0  0  0  0  0  0
  -18.0758   14.9307  -25.3619 H   0  0  0  0  0  0  0  0  0  0  0  0
  -17.6810   16.1840  -23.0572 O   0  0  0  0  0  0  0  0  0  0  0  0
  -18.7684   18.3111  -22.9151 C   0  0  0  0  0  0  0  0  0  0  0  0
  -18.9507   16.8198  -23.0875 C   0  0  0  0  0  0  0  0  0  0  0  0
  -20.0418   17.2612  -17.4421 C   0  0  0  0  0  0  0  0  0  0  0  0
  -20.2245   17.5866  -16.0176 C   0  0  0  0  0  0  0  0  0  0  0  0
  -21.3851   17.1841  -15.3843 C   0  0  0  0  0  0  0  0  0  0  0  0
  -21.6634   17.5562  -14.0765 C   0  0  0  0  0  0  0  0  0  0  0  0
  -20.7785   18.3482  -13.3791 C   0  0  0  0  0  0  0  0  0  0  0  0
  -19.6122   18.7635  -13.9750 C   0  0  0  0  0  0  0  0  0  0  0  0
  -19.3697   18.3638  -15.2923 C   0  0  0  0  0  0  0  0  0  0  0  0
  -21.1050   18.7946  -12.0027 C   0  0  0  0  0  0  0  0  0  0  0  0
  -20.0301   18.3810  -11.1830 F   0  0  0  0  0  0  0  0  0  0  0  0
  -22.2363   18.2080  -11.4910 F   0  0  0  0  0  0  0  0  0  0  0  0
  -21.1278   20.1655  -11.9028 F   0  0  0  0  0  0  0  0  0  0  0  0
  -20.4156   18.5595  -18.1918 C   0  0  0  0  0  0  0  0  0  0  0  0
  -21.7698   18.6018  -18.6151 N   0  0  0  0  0  0  0  0  0  0  0  0
  -21.8820   18.3168  -19.5946 H   0  0  0  0  0  0  0  0  0  0  0  0
  -22.2799   19.4438  -18.3271 H   0  0  0  0  0  0  0  0  0  0  0  0
 17 18  1  0  0  0
 18 16  1  0  0  0
 16  7  1  0  0  0
  7  8  2  0  0  0
  8  9  1  0  0  0
  8 10  1  0  0  0
 10 11  2  0  0  0
 11 12  1  0  0  0
 12 13  2  0  0  0
 13  1  1  0  0  0
  1  2  1  0  0  0
  2  3  1  0  0  0
  3  4  1  0  0  0
  4 19  1  0  0  0
 19 30  1  0  0  0
 30 31  1  0  0  0
 19 20  1  0  0  0
 20 21  2  0  0  0
 21 22  1  0  0  0
 22 23  2  0  0  0
 23 26  1  0  0  0
 26 27  1  0  0  0
 26 28  1  0  0  0
 26 29  1  0  0  0
 23 24  1  0  0  0
 24 25  2  0  0  0
  4  5  1  0  0  0
  5  6  1  0  0  0
 13  7  1  0  0  0
  6  1  1  0  0  0
 25 20  1  0  0  0
  9 14  1  0  0  0
  9 15  1  0  0  0
 31 32  1  0  0  0
 31 33  1  0  0  0
M  END
> <minimizedAffinity>
-5.90227

> <CNNscore>
0.0937274396

> <CNNaffinity>
5.2338700294

> <CNN_VS>
0.4905572236

> <CNNaffinity_variance>
0.4067570269

$$$$
[H]OC(=O)[C@@]([H])(Oc1c(Br)c([H])c(-c2c([H])c([H])c(-c3c(C([H])([H])c4c([H])c([H])c([H])c([H])c4[H])oc4c([H])c([H])c([H])c([H])c34)c([H])c2[H])c([H])c1Br)C([H])([H])c1c([H])c([H])c([H])c([H])c1[H]


 43 48  0  0  0  0  0  0  0  0999 V2000
  -19.0708   10.5443  -17.4196 C   0  0  0  0  0  0  0  0  0  0  0  0
  -18.7780    9.2655  -16.9871 C   0  0  0  0  0  0  0  0  0  0  0  0
  -19.3738    8.8139  -15.8382 C   0  0  0  0  0  0  0  0  0  0  0  0
  -20.2518    9.5407  -15.0705 C   0  0  0  0  0  0  0  0  0  0  0  0
  -20.5232   10.8339  -15.5450 C   0  0  0  0  0  0  0  0  0  0  0  0
  -19.9449   11.3108  -16.6854 C   0  0  0  0  0  0  0  0  0  0  0  0
  -20.8625    9.0814  -13.8379 C   0  0  0  0  0  0  0  0  0  0  0  0
  -21.9458    8.3141  -13.6141 C   0  0  0  0  0  0  0  0  0  0  0  0
  -22.1326    8.1996  -12.2970 O   0  0  0  0  0  0  0  0  0  0  0  0
  -21.2185    8.8575  -11.6325 C   0  0  0  0  0  0  0  0  0  0  0  0
  -20.9821    9.0435  -10.2883 C   0  0  0  0  0  0  0  0  0  0  0  0
  -19.9201    9.8028   -9.8454 C   0  0  0  0  0  0  0  0  0  0  0  0
  -19.1008   10.3704  -10.7980 C   0  0  0  0  0  0  0  0  0  0  0  0
  -19.3308   10.1892  -12.1593 C   0  0  0  0  0  0  0  0  0  0  0  0
  -20.3847    9.4368  -12.5585 C   0  0  0  0  0  0  0  0  0  0  0  0
  -22.8572    7.6453  -14.5661 C   0  0  0  0  0  0  0  0  0  0  0  0
  -22.2662    6.3949  -15.0796 C   0  0  0  0  0  0  0  0  0  0  0  0
  -22.4207    5.8900  -16.3330 C   0  0  0  0  0  0  0  0  0  0  0  0
  -21.8131    4.6864  -16.7252 C   0  0  0  0  0  0  0  0  0  0  0  0
  -21.0358    3.9720  -15.8474 C   0  0  0  0  0  0  0  0  0  0  0  0
  -20.8658    4.4648  -14.5730 C   0  0  0  0  0  0  0  0  0  0  0  0
  -21.4681    5.6509  -14.1990 C   0  0  0  0  0  0  0  0  0  0  0  0
  -17.3890   12.2700  -20.9770 C   0  0  0  0  0  0  0  0  0  0  0  0
  -16.8474   11.1140  -20.3989 C   0  0  0  0  0  0  0  0  0  0  0  0
  -15.3490   10.3063  -21.2453 Br  0  0  0  0  0  0  0  0  0  0  0  0
  -17.3895   10.5631  -19.2545 C   0  0  0  0  0  0  0  0  0  0  0  0
  -18.4814   11.1132  -18.6261 C   0  0  0  0  0  0  0  0  0  0  0  0
  -19.0268   12.2574  -19.1886 C   0  0  0  0  0  0  0  0  0  0  0  0
  -18.4714   12.8143  -20.3487 C   0  0  0  0  0  0  0  0  0  0  0  0
  -19.2820   14.4583  -20.9483 Br  0  0  0  0  0  0  0  0  0  0  0  0
  -16.8520   12.8250  -22.1079 O   0  0  0  0  0  0  0  0  0  0  0  0
  -17.2328   14.0465  -22.7257 C   0  0  0  0  0  0  0  0  0  0  0  0
  -16.7651   12.8721  -24.7975 O   0  0  0  0  0  0  0  0  0  0  0  0
  -17.4358   13.7282  -24.1562 C   0  0  0  0  0  0  0  0  0  0  0  0
  -18.4163   14.3764  -24.8979 O   0  0  0  0  0  0  0  0  0  0  0  0
  -18.4235   15.3232  -25.1748 H   0  0  0  0  0  0  0  0  0  0  0  0
  -16.1792   15.1311  -22.5741 C   0  0  0  0  0  0  0  0  0  0  0  0
  -16.7072   16.4208  -22.0916 C   0  0  0  0  0  0  0  0  0  0  0  0
  -16.3062   16.8877  -20.8251 C   0  0  0  0  0  0  0  0  0  0  0  0
  -16.7754   18.1112  -20.3886 C   0  0  0  0  0  0  0  0  0  0  0  0
  -17.6255   18.8893  -21.1559 C   0  0  0  0  0  0  0  0  0  0  0  0
  -17.9912   18.3886  -22.3923 C   0  0  0  0  0  0  0  0  0  0  0  0
  -17.5474   17.1780  -22.8642 C   0  0  0  0  0  0  0  0  0  0  0  0
 33 34  2  0  0  0
 34 35  1  0  0  0
 34 32  1  0  0  0
 32 37  1  0  0  0
 37 38  1  0  0  0
 38 39  2  0  0  0
 39 40  1  0  0  0
 40 41  2  0  0  0
 41 42  1  0  0  0
 42 43  2  0  0  0
 32 31  1  0  0  0
 31 23  1  0  0  0
 23 24  2  0  0  0
 24 25  1  0  0  0
 24 26  1  0  0  0
 26 27  2  0  0  0
 27  1  1  0  0  0
  1  2  2  0  0  0
  2  3  1  0  0  0
  3  4  2  0  0  0
  4  7  1  0  0  0
  7  8  2  0  0  0
  8 16  1  0  0  0
 16 17  1  0  0  0
 17 18  2  0  0  0
 18 19  1  0  0  0
 19 20  2  0  0  0
 20 21  1  0  0  0
 21 22  2  0  0  0
  8  9  1  0  0  0
  9 10  1  0  0  0
 10 11  2  0  0  0
 11 12  1  0  0  0
 12 13  2  0  0  0
 13 14  1  0  0  0
 14 15  2  0  0  0
  4  5  1  0  0  0
  5  6  2  0  0  0
 27 28  1  0  0  0
 28 29  2  0  0  0
 29 30  1  0  0  0
 43 38  1  0  0  0
 29 23  1  0  0  0
  6  1  1  0  0  0
 15  7  1  0  0  0
 22 17  1  0  0  0
 15 10  1  0  0  0
 35 36  1  0  0  0
M  END
> <minimizedAffinity>
-9.50703

> <CNNscore>
0.3324886560

> <CNNaffinity>
6.8189024925

> <CNN_VS>
2.2672076225

> <CNNaffinity_variance>
0.4605938792

$$$$
[H]OC(=O)[C@@]([H])(Oc1c(Br)c([H])c(-c2c([H])c([H])c(-c3c(C([H])([H])c4c([H])c([H])c([H])c([H])c4[H])oc4c([H])c([H])c([H])c([H])c34)c([H])c2[H])c([H])c1Br)C([H])([H])c1c([H])c([H])c([H])c([H])c1[H]


 43 48  0  0  0  0  0  0  0  0999 V2000
  -18.8895   10.8324  -17.9616 C   0  0  0  0  0  0  0  0  0  0  0  0
  -19.8646   11.2891  -17.0963 C   0  0  0  0  0  0  0  0  0  0  0  0
  -20.2177   10.4959  -16.0356 C   0  0  0  0  0  0  0  0  0  0  0  0
  -19.6724    9.2653  -15.7590 C   0  0  0  0  0  0  0  0  0  0  0  0
  -18.6849    8.8387  -16.6613 C   0  0  0  0  0  0  0  0  0  0  0  0
  -18.3129    9.6065  -17.7263 C   0  0  0  0  0  0  0  0  0  0  0  0
  -20.0619    8.4070  -14.6568 C   0  0  0  0  0  0  0  0  0  0  0  0
  -19.7976    8.4771  -13.3386 C   0  0  0  0  0  0  0  0  0  0  0  0
  -20.3490    7.4252  -12.7283 O   0  0  0  0  0  0  0  0  0  0  0  0
  -20.9713    6.6568  -13.5842 C   0  0  0  0  0  0  0  0  0  0  0  0
  -21.6799    5.4829  -13.4541 C   0  0  0  0  0  0  0  0  0  0  0  0
  -22.2495    4.8643  -14.5465 C   0  0  0  0  0  0  0  0  0  0  0  0
  -22.0846    5.4642  -15.7769 C   0  0  0  0  0  0  0  0  0  0  0  0
  -21.3699    6.6506  -15.9198 C   0  0  0  0  0  0  0  0  0  0  0  0
  -20.8232    7.2306  -14.8239 C   0  0  0  0  0  0  0  0  0  0  0  0
  -19.0465    9.4888  -12.5663 C   0  0  0  0  0  0  0  0  0  0  0  0
  -19.9604   10.4349  -11.8985 C   0  0  0  0  0  0  0  0  0  0  0  0
  -20.9926   11.1010  -12.4823 C   0  0  0  0  0  0  0  0  0  0  0  0
  -21.8078   11.9838  -11.7560 C   0  0  0  0  0  0  0  0  0  0  0  0
  -21.5874   12.2065  -10.4192 C   0  0  0  0  0  0  0  0  0  0  0  0
  -20.5476   11.5425   -9.8077 C   0  0  0  0  0  0  0  0  0  0  0  0
  -19.7528   10.6755  -10.5328 C   0  0  0  0  0  0  0  0  0  0  0  0
  -17.6570   13.1499  -21.3633 C   0  0  0  0  0  0  0  0  0  0  0  0
  -17.0466   11.9275  -21.0516 C   0  0  0  0  0  0  0  0  0  0  0  0
  -15.6606   11.3013  -22.1922 Br  0  0  0  0  0  0  0  0  0  0  0  0
  -17.4441   11.1862  -19.9564 C   0  0  0  0  0  0  0  0  0  0  0  0
  -18.4526   11.6027  -19.1202 C   0  0  0  0  0  0  0  0  0  0  0  0
  -19.0648   12.8108  -19.4181 C   0  0  0  0  0  0  0  0  0  0  0  0
  -18.6560   13.5608  -20.5292 C   0  0  0  0  0  0  0  0  0  0  0  0
  -19.5370   15.2622  -20.7497 Br  0  0  0  0  0  0  0  0  0  0  0  0
  -17.2628   13.8930  -22.4439 O   0  0  0  0  0  0  0  0  0  0  0  0
  -16.1825   14.8140  -22.5013 C   0  0  0  0  0  0  0  0  0  0  0  0
  -17.8191   16.2655  -23.5525 O   0  0  0  0  0  0  0  0  0  0  0  0
  -16.7855   16.1214  -22.8419 C   0  0  0  0  0  0  0  0  0  0  0  0
  -16.2274   17.3060  -22.3765 O   0  0  0  0  0  0  0  0  0  0  0  0
  -15.3673   17.7054  -22.6489 H   0  0  0  0  0  0  0  0  0  0  0  0
  -15.1418   14.4298  -23.5399 C   0  0  0  0  0  0  0  0  0  0  0  0
  -15.6241   14.5026  -24.9317 C   0  0  0  0  0  0  0  0  0  0  0  0
  -15.0672   15.4667  -25.7938 C   0  0  0  0  0  0  0  0  0  0  0  0
  -15.4961   15.5119  -27.1059 C   0  0  0  0  0  0  0  0  0  0  0  0
  -16.4539   14.6412  -27.5971 C   0  0  0  0  0  0  0  0  0  0  0  0
  -16.9712   13.7121  -26.7126 C   0  0  0  0  0  0  0  0  0  0  0  0
  -16.5724   13.6329  -25.4012 C   0  0  0  0  0  0  0  0  0  0  0  0
 33 34  2  0  0  0
 34 35  1  0  0  0
 34 32  1  0  0  0
 32 37  1  0  0  0
 37 38  1  0  0  0
 38 39  2  0  0  0
 39 40  1  0  0  0
 40 41  2  0  0  0
 41 42  1  0  0  0
 42 43  2  0  0  0
 32 31  1  0  0  0
 31 23  1  0  0  0
 23 24  2  0  0  0
 24 25  1  0  0  0
 24 26  1  0  0  0
 26 27  2  0  0  0
 27  1  1  0  0  0
  1  2  2  0  0  0
  2  3  1  0  0  0
  3  4  2  0  0  0
  4  7  1  0  0  0
  7  8  2  0  0  0
  8 16  1  0  0  0
 16 17  1  0  0  0
 17 18  2  0  0  0
 18 19  1  0  0  0
 19 20  2  0  0  0
 20 21  1  0  0  0
 21 22  2  0  0  0
  8  9  1  0  0  0
  9 10  1  0  0  0
 10 11  2  0  0  0
 11 12  1  0  0  0
 12 13  2  0  0  0
 13 14  1  0  0  0
 14 15  2  0  0  0
  4  5  1  0  0  0
  5  6  2  0  0  0
 27 28  1  0  0  0
 28 29  2  0  0  0
 29 30  1  0  0  0
 43 38  1  0  0  0
 29 23  1  0  0  0
  6  1  1  0  0  0
 15  7  1  0  0  0
 22 17  1  0  0  0
 15 10  1  0  0  0
 35 36  1  0  0  0
M  END
> <minimizedAffinity>
-10.09501

> <CNNscore>
0.2901436388

> <CNNaffinity>
7.1304750443

> <CNN_VS>
2.0688619614

> <CNNaffinity_variance>
0.1204451099

$$$$
[H]OC(=O)[C@@]([H])(Oc1c(Br)c([H])c(-c2c([H])c([H])c(-c3c(C([H])([H])c4c([H])c([H])c([H])c([H])c4[H])oc4c([H])c([H])c([H])c([H])c34)c([H])c2[H])c([H])c1Br)C([H])([H])c1c([H])c([H])c([H])c([H])c1[H]


 43 48  0  0  0  0  0  0  0  0999 V2000
  -19.4368   11.4174  -17.5565 C   0  0  0  0  0  0  0  0  0  0  0  0
  -20.1906   12.0899  -16.6143 C   0  0  0  0  0  0  0  0  0  0  0  0
  -20.6152   11.4016  -15.5076 C   0  0  0  0  0  0  0  0  0  0  0  0
  -20.3478   10.0774  -15.2555 C   0  0  0  0  0  0  0  0  0  0  0  0
  -19.5785    9.4314  -16.2363 C   0  0  0  0  0  0  0  0  0  0  0  0
  -19.1420   10.0906  -17.3485 C   0  0  0  0  0  0  0  0  0  0  0  0
  -20.8188    9.3344  -14.1025 C   0  0  0  0  0  0  0  0  0  0  0  0
  -21.8040    8.4263  -13.9715 C   0  0  0  0  0  0  0  0  0  0  0  0
  -21.8811    8.0503  -12.6926 O   0  0  0  0  0  0  0  0  0  0  0  0
  -20.9876    8.6687  -11.9650 C   0  0  0  0  0  0  0  0  0  0  0  0
  -20.6714    8.6269  -10.6250 C   0  0  0  0  0  0  0  0  0  0  0  0
  -19.6573    9.4014  -10.1031 C   0  0  0  0  0  0  0  0  0  0  0  0
  -18.9689   10.2208  -10.9723 C   0  0  0  0  0  0  0  0  0  0  0  0
  -19.2805   10.2711  -12.3285 C   0  0  0  0  0  0  0  0  0  0  0  0
  -20.2840    9.4962  -12.8067 C   0  0  0  0  0  0  0  0  0  0  0  0
  -22.7149    7.8509  -14.9830 C   0  0  0  0  0  0  0  0  0  0  0  0
  -22.2899    6.4923  -15.3704 C   0  0  0  0  0  0  0  0  0  0  0  0
  -21.8755    5.5099  -14.5261 C   0  0  0  0  0  0  0  0  0  0  0  0
  -21.4904    4.2443  -14.9969 C   0  0  0  0  0  0  0  0  0  0  0  0
  -21.5190    3.9541  -16.3385 C   0  0  0  0  0  0  0  0  0  0  0  0
  -21.9354    4.9341  -17.2115 C   0  0  0  0  0  0  0  0  0  0  0  0
  -22.3128    6.1754  -16.7362 C   0  0  0  0  0  0  0  0  0  0  0  0
  -17.9386   13.2698  -21.1321 C   0  0  0  0  0  0  0  0  0  0  0  0
  -18.9552   13.8637  -20.3721 C   0  0  0  0  0  0  0  0  0  0  0  0
  -19.6488   15.5354  -20.9537 Br  0  0  0  0  0  0  0  0  0  0  0  0
  -19.4355   13.2646  -19.2244 C   0  0  0  0  0  0  0  0  0  0  0  0
  -18.9458   12.0638  -18.7680 C   0  0  0  0  0  0  0  0  0  0  0  0
  -17.9393   11.4660  -19.5112 C   0  0  0  0  0  0  0  0  0  0  0  0
  -17.4569   12.0767  -20.6769 C   0  0  0  0  0  0  0  0  0  0  0  0
  -16.1288   11.0720  -21.6497 Br  0  0  0  0  0  0  0  0  0  0  0  0
  -17.4625   13.8554  -22.2749 O   0  0  0  0  0  0  0  0  0  0  0  0
  -16.2457   14.5732  -22.4260 C   0  0  0  0  0  0  0  0  0  0  0  0
  -17.7174   16.2163  -23.4381 O   0  0  0  0  0  0  0  0  0  0  0  0
  -16.6320   15.9343  -22.8581 C   0  0  0  0  0  0  0  0  0  0  0  0
  -15.7901   17.0177  -22.6364 O   0  0  0  0  0  0  0  0  0  0  0  0
  -14.9233   17.1960  -23.0724 H   0  0  0  0  0  0  0  0  0  0  0  0
  -15.3180   13.9411  -23.4504 C   0  0  0  0  0  0  0  0  0  0  0  0
  -15.6448   14.2783  -24.8483 C   0  0  0  0  0  0  0  0  0  0  0  0
  -14.8566   15.2336  -25.5185 C   0  0  0  0  0  0  0  0  0  0  0  0
  -15.1433   15.5241  -26.8380 C   0  0  0  0  0  0  0  0  0  0  0  0
  -16.1789   14.9069  -27.5189 C   0  0  0  0  0  0  0  0  0  0  0  0
  -16.9245   13.9760  -26.8186 C   0  0  0  0  0  0  0  0  0  0  0  0
  -16.6730   13.6576  -25.5070 C   0  0  0  0  0  0  0  0  0  0  0  0
 33 34  2  0  0  0
 34 35  1  0  0  0
 34 32  1  0  0  0
 32 37  1  0  0  0
 37 38  1  0  0  0
 38 39  2  0  0  0
 39 40  1  0  0  0
 40 41  2  0  0  0
 41 42  1  0  0  0
 42 43  2  0  0  0
 32 31  1  0  0  0
 31 23  1  0  0  0
 23 24  2  0  0  0
 24 25  1  0  0  0
 24 26  1  0  0  0
 26 27  2  0  0  0
 27  1  1  0  0  0
  1  2  2  0  0  0
  2  3  1  0  0  0
  3  4  2  0  0  0
  4  7  1  0  0  0
  7  8  2  0  0  0
  8 16  1  0  0  0
 16 17  1  0  0  0
 17 18  2  0  0  0
 18 19  1  0  0  0
 19 20  2  0  0  0
 20 21  1  0  0  0
 21 22  2  0  0  0
  8  9  1  0  0  0
  9 10  1  0  0  0
 10 11  2  0  0  0
 11 12  1  0  0  0
 12 13  2  0  0  0
 13 14  1  0  0  0
 14 15  2  0  0  0
  4  5  1  0  0  0
  5  6  2  0  0  0
 27 28  1  0  0  0
 28 29  2  0  0  0
 29 30  1  0  0  0
 43 38  1  0  0  0
 29 23  1  0  0  0
  6  1  1  0  0  0
 15  7  1  0  0  0
 22 17  1  0  0  0
 15 10  1  0  0  0
 35 36  1  0  0  0
M  END
> <minimizedAffinity>
-9.62077

> <CNNscore>
0.2844033539

> <CNNaffinity>
7.1521921158

> <CNN_VS>
2.0341074467

> <CNNaffinity_variance>
0.1199511290

$$$$
[H]OC(=O)[C@@]([H])(Oc1c(Br)c([H])c(-c2c([H])c([H])c(-c3c(C([H])([H])c4c([H])c([H])c([H])c([H])c4[H])oc4c([H])c([H])c([H])c([H])c34)c([H])c2[H])c([H])c1Br)C([H])([H])c1c([H])c([H])c([H])c([H])c1[H]


 43 48  0  0  0  0  0  0  0  0999 V2000
  -18.7918   10.9025  -18.1582 C   0  0  0  0  0  0  0  0  0  0  0  0
  -18.1864    9.6915  -17.8844 C   0  0  0  0  0  0  0  0  0  0  0  0
  -18.6403    8.9631  -16.8155 C   0  0  0  0  0  0  0  0  0  0  0  0
  -19.6639    9.3454  -15.9821 C   0  0  0  0  0  0  0  0  0  0  0  0
  -20.2526   10.5809  -16.2954 C   0  0  0  0  0  0  0  0  0  0  0  0
  -19.8218   11.3281  -17.3529 C   0  0  0  0  0  0  0  0  0  0  0  0
  -20.1295    8.5953  -14.8316 C   0  0  0  0  0  0  0  0  0  0  0  0
  -19.9734    8.8045  -13.5109 C   0  0  0  0  0  0  0  0  0  0  0  0
  -20.5579    7.8082  -12.8410 O   0  0  0  0  0  0  0  0  0  0  0  0
  -21.0986    6.9436  -13.6596 C   0  0  0  0  0  0  0  0  0  0  0  0
  -21.7995    5.7738  -13.4657 C   0  0  0  0  0  0  0  0  0  0  0  0
  -22.2706    5.0353  -14.5302 C   0  0  0  0  0  0  0  0  0  0  0  0
  -22.0151    5.5106  -15.7990 C   0  0  0  0  0  0  0  0  0  0  0  0
  -21.3073    6.6917  -16.0064 C   0  0  0  0  0  0  0  0  0  0  0  0
  -20.8587    7.3917  -14.9363 C   0  0  0  0  0  0  0  0  0  0  0  0
  -19.3009    9.9055  -12.7900 C   0  0  0  0  0  0  0  0  0  0  0  0
  -20.2839   10.8288  -12.1922 C   0  0  0  0  0  0  0  0  0  0  0  0
  -21.2194   11.5508  -12.8657 C   0  0  0  0  0  0  0  0  0  0  0  0
  -22.1133   12.4054  -12.2008 C   0  0  0  0  0  0  0  0  0  0  0  0
  -22.0718   12.5424  -10.8353 C   0  0  0  0  0  0  0  0  0  0  0  0
  -21.1325   11.8206  -10.1332 C   0  0  0  0  0  0  0  0  0  0  0  0
  -20.2588   10.9822  -10.7987 C   0  0  0  0  0  0  0  0  0  0  0  0
  -17.5068   13.3494  -21.4480 C   0  0  0  0  0  0  0  0  0  0  0  0
  -18.5185   13.7712  -20.5748 C   0  0  0  0  0  0  0  0  0  0  0  0
  -19.3030   15.4775  -20.8696 Br  0  0  0  0  0  0  0  0  0  0  0  0
  -18.9302   12.9812  -19.5196 C   0  0  0  0  0  0  0  0  0  0  0  0
  -18.3739   11.7493  -19.2694 C   0  0  0  0  0  0  0  0  0  0  0  0
  -17.3714   11.3206  -20.1263 C   0  0  0  0  0  0  0  0  0  0  0  0
  -16.9588   12.1248  -21.1976 C   0  0  0  0  0  0  0  0  0  0  0  0
  -15.6268   11.3449  -22.3538 Br  0  0  0  0  0  0  0  0  0  0  0  0
  -17.0987   14.1250  -22.5003 O   0  0  0  0  0  0  0  0  0  0  0  0
  -15.9391   14.9438  -22.5610 C   0  0  0  0  0  0  0  0  0  0  0  0
  -15.8867   17.3654  -22.4093 O   0  0  0  0  0  0  0  0  0  0  0  0
  -16.4261   16.3111  -22.8471 C   0  0  0  0  0  0  0  0  0  0  0  0
  -17.5438   16.5163  -23.6473 O   0  0  0  0  0  0  0  0  0  0  0  0
  -18.4806   16.2991  -23.4270 H   0  0  0  0  0  0  0  0  0  0  0  0
  -14.9648   14.4977  -23.6387 C   0  0  0  0  0  0  0  0  0  0  0  0
  -15.5116   14.5566  -25.0070 C   0  0  0  0  0  0  0  0  0  0  0  0
  -14.9790   15.4955  -25.9113 C   0  0  0  0  0  0  0  0  0  0  0  0
  -15.4693   15.5271  -27.2022 C   0  0  0  0  0  0  0  0  0  0  0  0
  -16.4652   14.6667  -27.6321 C   0  0  0  0  0  0  0  0  0  0  0  0
  -16.9564   13.7625  -26.7079 C   0  0  0  0  0  0  0  0  0  0  0  0
  -16.4970   13.6974  -25.4157 C   0  0  0  0  0  0  0  0  0  0  0  0
 33 34  2  0  0  0
 34 35  1  0  0  0
 34 32  1  0  0  0
 32 37  1  0  0  0
 37 38  1  0  0  0
 38 39  2  0  0  0
 39 40  1  0  0  0
 40 41  2  0  0  0
 41 42  1  0  0  0
 42 43  2  0  0  0
 32 31  1  0  0  0
 31 23  1  0  0  0
 23 24  2  0  0  0
 24 25  1  0  0  0
 24 26  1  0  0  0
 26 27  2  0  0  0
 27  1  1  0  0  0
  1  2  2  0  0  0
  2  3  1  0  0  0
  3  4  2  0  0  0
  4  7  1  0  0  0
  7  8  2  0  0  0
  8 16  1  0  0  0
 16 17  1  0  0  0
 17 18  2  0  0  0
 18 19  1  0  0  0
 19 20  2  0  0  0
 20 21  1  0  0  0
 21 22  2  0  0  0
  8  9  1  0  0  0
  9 10  1  0  0  0
 10 11  2  0  0  0
 11 12  1  0  0  0
 12 13  2  0  0  0
 13 14  1  0  0  0
 14 15  2  0  0  0
  4  5  1  0  0  0
  5  6  2  0  0  0
 27 28  1  0  0  0
 28 29  2  0  0  0
 29 30  1  0  0  0
 43 38  1  0  0  0
 29 23  1  0  0  0
  6  1  1  0  0  0
 15  7  1  0  0  0
 22 17  1  0  0  0
 15 10  1  0  0  0
 35 36  1  0  0  0
M  END
> <minimizedAffinity>
-10.19805

> <CNNscore>
0.2452048957

> <CNNaffinity>
7.0170273781

> <CNN_VS>
1.7206094265

> <CNNaffinity_variance>
0.1757658422

$$$$
[H]OC(=O)[C@@]([H])(Oc1c(Br)c([H])c(-c2c([H])c([H])c(-c3c(C([H])([H])c4c([H])c([H])c([H])c([H])c4[H])oc4c([H])c([H])c([H])c([H])c34)c([H])c2[H])c([H])c1Br)C([H])([H])c1c([H])c([H])c([H])c([H])c1[H]


 43 48  0  0  0  0  0  0  0  0999 V2000
  -18.8774   10.6325  -17.6903 C   0  0  0  0  0  0  0  0  0  0  0  0
  -19.8514   11.1067  -16.8333 C   0  0  0  0  0  0  0  0  0  0  0  0
  -20.2271   10.3205  -15.7751 C   0  0  0  0  0  0  0  0  0  0  0  0
  -19.7055    9.0807  -15.4934 C   0  0  0  0  0  0  0  0  0  0  0  0
  -18.7183    8.6364  -16.3874 C   0  0  0  0  0  0  0  0  0  0  0  0
  -18.3242    9.3969  -17.4497 C   0  0  0  0  0  0  0  0  0  0  0  0
  -20.1191    8.2301  -14.3940 C   0  0  0  0  0  0  0  0  0  0  0  0
  -19.8396    8.2788  -13.0780 C   0  0  0  0  0  0  0  0  0  0  0  0
  -20.4273    7.2452  -12.4704 O   0  0  0  0  0  0  0  0  0  0  0  0
  -21.0884    6.5096  -13.3259 C   0  0  0  0  0  0  0  0  0  0  0  0
  -21.8428    5.3642  -13.1978 C   0  0  0  0  0  0  0  0  0  0  0  0
  -22.4473    4.7780  -14.2893 C   0  0  0  0  0  0  0  0  0  0  0  0
  -22.2699    5.3806  -15.5166 C   0  0  0  0  0  0  0  0  0  0  0  0
  -21.5091    6.5383  -15.6575 C   0  0  0  0  0  0  0  0  0  0  0  0
  -20.9289    7.0869  -14.5626 C   0  0  0  0  0  0  0  0  0  0  0  0
  -19.0408    9.2531  -12.3054 C   0  0  0  0  0  0  0  0  0  0  0  0
  -19.9052   10.2678  -11.6734 C   0  0  0  0  0  0  0  0  0  0  0  0
  -20.8758   10.9927  -12.2918 C   0  0  0  0  0  0  0  0  0  0  0  0
  -21.6474   11.9385  -11.5979 C   0  0  0  0  0  0  0  0  0  0  0  0
  -21.4451   12.1658  -10.2591 C   0  0  0  0  0  0  0  0  0  0  0  0
  -20.4674   11.4431   -9.6128 C   0  0  0  0  0  0  0  0  0  0  0  0
  -19.7151   10.5143  -10.3062 C   0  0  0  0  0  0  0  0  0  0  0  0
  -17.4661   12.8303  -21.1019 C   0  0  0  0  0  0  0  0  0  0  0  0
  -18.5537   13.2804  -20.3414 C   0  0  0  0  0  0  0  0  0  0  0  0
  -19.3857   14.9134  -20.8462 Br  0  0  0  0  0  0  0  0  0  0  0  0
  -19.0057   12.5704  -19.2465 C   0  0  0  0  0  0  0  0  0  0  0  0
  -18.4176   11.3943  -18.8456 C   0  0  0  0  0  0  0  0  0  0  0  0
  -17.3401   10.9384  -19.5900 C   0  0  0  0  0  0  0  0  0  0  0  0
  -16.8866   11.6611  -20.7020 C   0  0  0  0  0  0  0  0  0  0  0  0
  -15.4449   10.8446  -21.6888 Br  0  0  0  0  0  0  0  0  0  0  0  0
  -17.0173   13.5261  -22.1927 O   0  0  0  0  0  0  0  0  0  0  0  0
  -17.7801   13.9386  -23.3181 C   0  0  0  0  0  0  0  0  0  0  0  0
  -18.3026   12.6649  -25.3168 O   0  0  0  0  0  0  0  0  0  0  0  0
  -17.5063   12.9426  -24.3773 C   0  0  0  0  0  0  0  0  0  0  0  0
  -16.3100   12.2354  -24.3978 O   0  0  0  0  0  0  0  0  0  0  0  0
  -16.0189   11.5410  -23.7603 H   0  0  0  0  0  0  0  0  0  0  0  0
  -17.4066   15.3312  -23.7984 C   0  0  0  0  0  0  0  0  0  0  0  0
  -16.2149   15.3698  -24.6662 C   0  0  0  0  0  0  0  0  0  0  0  0
  -16.3840   15.6216  -26.0413 C   0  0  0  0  0  0  0  0  0  0  0  0
  -15.2643   15.6903  -26.8471 C   0  0  0  0  0  0  0  0  0  0  0  0
  -13.9854   15.5192  -26.3453 C   0  0  0  0  0  0  0  0  0  0  0  0
  -13.8701   15.2743  -24.9889 C   0  0  0  0  0  0  0  0  0  0  0  0
  -14.9565   15.1987  -24.1528 C   0  0  0  0  0  0  0  0  0  0  0  0
 33 34  2  0  0  0
 34 35  1  0  0  0
 34 32  1  0  0  0
 32 37  1  0  0  0
 37 38  1  0  0  0
 38 39  2  0  0  0
 39 40  1  0  0  0
 40 41  2  0  0  0
 41 42  1  0  0  0
 42 43  2  0  0  0
 32 31  1  0  0  0
 31 23  1  0  0  0
 23 24  2  0  0  0
 24 25  1  0  0  0
 24 26  1  0  0  0
 26 27  2  0  0  0
 27  1  1  0  0  0
  1  2  2  0  0  0
  2  3  1  0  0  0
  3  4  2  0  0  0
  4  7  1  0  0  0
  7  8  2  0  0  0
  8 16  1  0  0  0
 16 17  1  0  0  0
 17 18  2  0  0  0
 18 19  1  0  0  0
 19 20  2  0  0  0
 20 21  1  0  0  0
 21 22  2  0  0  0
  8  9  1  0  0  0
  9 10  1  0  0  0
 10 11  2  0  0  0
 11 12  1  0  0  0
 12 13  2  0  0  0
 13 14  1  0  0  0
 14 15  2  0  0  0
  4  5  1  0  0  0
  5  6  2  0  0  0
 27 28  1  0  0  0
 28 29  2  0  0  0
 29 30  1  0  0  0
 43 38  1  0  0  0
 29 23  1  0  0  0
  6  1  1  0  0  0
 15  7  1  0  0  0
 22 17  1  0  0  0
 15 10  1  0  0  0
 35 36  1  0  0  0
M  END
> <minimizedAffinity>
-9.70357

> <CNNscore>
0.2413284928

> <CNNaffinity>
6.8168916702

> <CNN_VS>
1.6451102495

> <CNNaffinity_variance>
0.2316118926

$$$$
[H]OC(=O)[C@@]([H])(Oc1c(Br)c([H])c(-c2c([H])c([H])c(-c3c(C([H])([H])c4c([H])c([H])c([H])c([H])c4[H])oc4c([H])c([H])c([H])c([H])c34)c([H])c2[H])c([H])c1Br)C([H])([H])c1c([H])c([H])c([H])c([H])c1[H]


 43 48  0  0  0  0  0  0  0  0999 V2000
  -18.9777   10.4754  -17.6139 C   0  0  0  0  0  0  0  0  0  0  0  0
  -18.4336    9.2505  -17.2796 C   0  0  0  0  0  0  0  0  0  0  0  0
  -18.9531    8.5787  -16.2036 C   0  0  0  0  0  0  0  0  0  0  0  0
  -19.9866    9.0315  -15.4190 C   0  0  0  0  0  0  0  0  0  0  0  0
  -20.5116   10.2787  -15.7930 C   0  0  0  0  0  0  0  0  0  0  0  0
  -20.0148   10.9706  -16.8591 C   0  0  0  0  0  0  0  0  0  0  0  0
  -20.5214    8.3411  -14.2612 C   0  0  0  0  0  0  0  0  0  0  0  0
  -20.5032    8.6544  -12.9520 C   0  0  0  0  0  0  0  0  0  0  0  0
  -21.0978    7.6773  -12.2631 O   0  0  0  0  0  0  0  0  0  0  0  0
  -21.5131    6.7257  -13.0581 C   0  0  0  0  0  0  0  0  0  0  0  0
  -22.1690    5.5344  -12.8388 C   0  0  0  0  0  0  0  0  0  0  0  0
  -22.4979    4.6945  -13.8813 C   0  0  0  0  0  0  0  0  0  0  0  0
  -22.1466    5.0904  -15.1544 C   0  0  0  0  0  0  0  0  0  0  0  0
  -21.4831    6.2923  -15.3873 C   0  0  0  0  0  0  0  0  0  0  0  0
  -21.1752    7.0930  -14.3383 C   0  0  0  0  0  0  0  0  0  0  0  0
  -19.9596    9.8419  -12.2603 C   0  0  0  0  0  0  0  0  0  0  0  0
  -18.8939    9.4644  -11.3127 C   0  0  0  0  0  0  0  0  0  0  0  0
  -18.1919    8.2995  -11.3172 C   0  0  0  0  0  0  0  0  0  0  0  0
  -17.1922    8.0351  -10.3672 C   0  0  0  0  0  0  0  0  0  0  0  0
  -16.8879    8.9526   -9.3922 C   0  0  0  0  0  0  0  0  0  0  0  0
  -17.5863   10.1391   -9.3689 C   0  0  0  0  0  0  0  0  0  0  0  0
  -18.5672   10.3882  -10.3097 C   0  0  0  0  0  0  0  0  0  0  0  0
  -17.4772   12.7568  -20.9313 C   0  0  0  0  0  0  0  0  0  0  0  0
  -18.5829   13.1896  -20.1871 C   0  0  0  0  0  0  0  0  0  0  0  0
  -19.3994   14.8368  -20.6707 Br  0  0  0  0  0  0  0  0  0  0  0  0
  -19.0636   12.4528  -19.1226 C   0  0  0  0  0  0  0  0  0  0  0  0
  -18.4876   11.2655  -18.7374 C   0  0  0  0  0  0  0  0  0  0  0  0
  -17.3923   10.8265  -19.4658 C   0  0  0  0  0  0  0  0  0  0  0  0
  -16.9098   11.5765  -20.5470 C   0  0  0  0  0  0  0  0  0  0  0  0
  -15.4448   10.7823  -21.5178 Br  0  0  0  0  0  0  0  0  0  0  0  0
  -16.9998   13.4793  -21.9922 O   0  0  0  0  0  0  0  0  0  0  0  0
  -17.7039   13.8294  -23.1756 C   0  0  0  0  0  0  0  0  0  0  0  0
  -16.0965   12.3468  -24.2282 O   0  0  0  0  0  0  0  0  0  0  0  0
  -17.2382   12.8857  -24.2154 C   0  0  0  0  0  0  0  0  0  0  0  0
  -18.0659   12.5248  -25.2719 O   0  0  0  0  0  0  0  0  0  0  0  0
  -18.3623   13.0984  -26.0178 H   0  0  0  0  0  0  0  0  0  0  0  0
  -17.4398   15.2614  -23.6105 C   0  0  0  0  0  0  0  0  0  0  0  0
  -16.3520   15.4006  -24.5964 C   0  0  0  0  0  0  0  0  0  0  0  0
  -15.0182   15.3459  -24.1482 C   0  0  0  0  0  0  0  0  0  0  0  0
  -14.0004   15.4433  -25.0769 C   0  0  0  0  0  0  0  0  0  0  0  0
  -14.2514   15.5930  -26.4302 C   0  0  0  0  0  0  0  0  0  0  0  0
  -15.5770   15.6413  -26.8219 C   0  0  0  0  0  0  0  0  0  0  0  0
  -16.6183   15.5478  -25.9319 C   0  0  0  0  0  0  0  0  0  0  0  0
 33 34  2  0  0  0
 34 35  1  0  0  0
 34 32  1  0  0  0
 32 37  1  0  0  0
 37 38  1  0  0  0
 38 39  2  0  0  0
 39 40  1  0  0  0
 40 41  2  0  0  0
 41 42  1  0  0  0
 42 43  2  0  0  0
 32 31  1  0  0  0
 31 23  1  0  0  0
 23 24  2  0  0  0
 24 25  1  0  0  0
 24 26  1  0  0  0
 26 27  2  0  0  0
 27  1  1  0  0  0
  1  2  2  0  0  0
  2  3  1  0  0  0
  3  4  2  0  0  0
  4  7  1  0  0  0
  7  8  2  0  0  0
  8 16  1  0  0  0
 16 17  1  0  0  0
 17 18  2  0  0  0
 18 19  1  0  0  0
 19 20  2  0  0  0
 20 21  1  0  0  0
 21 22  2  0  0  0
  8  9  1  0  0  0
  9 10  1  0  0  0
 10 11  2  0  0  0
 11 12  1  0  0  0
 12 13  2  0  0  0
 13 14  1  0  0  0
 14 15  2  0  0  0
  4  5  1  0  0  0
  5  6  2  0  0  0
 27 28  1  0  0  0
 28 29  2  0  0  0
 29 30  1  0  0  0
 43 38  1  0  0  0
 29 23  1  0  0  0
  6  1  1  0  0  0
 15  7  1  0  0  0
 22 17  1  0  0  0
 15 10  1  0  0  0
 35 36  1  0  0  0
M  END
> <minimizedAffinity>
-10.41572

> <CNNscore>
0.2241641432

> <CNNaffinity>
6.8236160278

> <CNN_VS>
1.5296100378

> <CNNaffinity_variance>
0.2101413906

$$$$
[H]OC(=O)[C@@]([H])(Oc1c(Br)c([H])c(-c2c([H])c([H])c(-c3c(C([H])([H])c4c([H])c([H])c([H])c([H])c4[H])oc4c([H])c([H])c([H])c([H])c34)c([H])c2[H])c([H])c1Br)C([H])([H])c1c([H])c([H])c([H])c([H])c1[H]


 43 48  0  0  0  0  0  0  0  0999 V2000
  -19.4509   11.6584  -17.8778 C   0  0  0  0  0  0  0  0  0  0  0  0
  -20.2559   12.3382  -16.9846 C   0  0  0  0  0  0  0  0  0  0  0  0
  -20.7328   11.6616  -15.8919 C   0  0  0  0  0  0  0  0  0  0  0  0
  -20.4710   10.3426  -15.6088 C   0  0  0  0  0  0  0  0  0  0  0  0
  -19.6487    9.6889  -16.5402 C   0  0  0  0  0  0  0  0  0  0  0  0
  -19.1595   10.3363  -17.6373 C   0  0  0  0  0  0  0  0  0  0  0  0
  -20.9963    9.6117  -14.4717 C   0  0  0  0  0  0  0  0  0  0  0  0
  -20.3764    8.9598  -13.4701 C   0  0  0  0  0  0  0  0  0  0  0  0
  -21.2968    8.4063  -12.6766 O   0  0  0  0  0  0  0  0  0  0  0  0
  -22.5050    8.6628  -13.1063 C   0  0  0  0  0  0  0  0  0  0  0  0
  -23.7592    8.3250  -12.6479 C   0  0  0  0  0  0  0  0  0  0  0  0
  -24.8982    8.7365  -13.3064 C   0  0  0  0  0  0  0  0  0  0  0  0
  -24.7370    9.5006  -14.4428 C   0  0  0  0  0  0  0  0  0  0  0  0
  -23.4739    9.8474  -14.9152 C   0  0  0  0  0  0  0  0  0  0  0  0
  -22.3761    9.4248  -14.2425 C   0  0  0  0  0  0  0  0  0  0  0  0
  -18.9363    8.8078  -13.1749 C   0  0  0  0  0  0  0  0  0  0  0  0
  -18.6660    8.9895  -11.7361 C   0  0  0  0  0  0  0  0  0  0  0  0
  -18.9330   10.1043  -11.0040 C   0  0  0  0  0  0  0  0  0  0  0  0
  -18.6363   10.1774   -9.6336 C   0  0  0  0  0  0  0  0  0  0  0  0
  -18.0603    9.1157   -8.9808 C   0  0  0  0  0  0  0  0  0  0  0  0
  -17.7813    7.9768   -9.7026 C   0  0  0  0  0  0  0  0  0  0  0  0
  -18.0788    7.9164  -11.0506 C   0  0  0  0  0  0  0  0  0  0  0  0
  -17.7834   13.4724  -21.3977 C   0  0  0  0  0  0  0  0  0  0  0  0
  -18.8145   14.0889  -20.6763 C   0  0  0  0  0  0  0  0  0  0  0  0
  -19.4508   15.7738  -21.2848 Br  0  0  0  0  0  0  0  0  0  0  0  0
  -19.3492   13.5021  -19.5464 C   0  0  0  0  0  0  0  0  0  0  0  0
  -18.9022   12.2922  -19.0710 C   0  0  0  0  0  0  0  0  0  0  0  0
  -17.8818   11.6719  -19.7761 C   0  0  0  0  0  0  0  0  0  0  0  0
  -17.3441   12.2702  -20.9239 C   0  0  0  0  0  0  0  0  0  0  0  0
  -16.0027   11.2360  -21.8460 Br  0  0  0  0  0  0  0  0  0  0  0  0
  -17.2534   14.0458  -22.5228 O   0  0  0  0  0  0  0  0  0  0  0  0
  -16.0408   14.7800  -22.6193 C   0  0  0  0  0  0  0  0  0  0  0  0
  -17.4029   16.4485  -23.7378 O   0  0  0  0  0  0  0  0  0  0  0  0
  -16.4331   16.1594  -22.9829 C   0  0  0  0  0  0  0  0  0  0  0  0
  -15.7305   17.2528  -22.4905 O   0  0  0  0  0  0  0  0  0  0  0  0
  -14.8107   17.5226  -22.7240 H   0  0  0  0  0  0  0  0  0  0  0  0
  -15.0950   14.2110  -23.6639 C   0  0  0  0  0  0  0  0  0  0  0  0
  -15.5229   14.4453  -25.0556 C   0  0  0  0  0  0  0  0  0  0  0  0
  -14.8294   15.3965  -25.8283 C   0  0  0  0  0  0  0  0  0  0  0  0
  -15.2101   15.5910  -27.1417 C   0  0  0  0  0  0  0  0  0  0  0  0
  -16.2496   14.8817  -27.7190 C   0  0  0  0  0  0  0  0  0  0  0  0
  -16.9002   13.9587  -26.9203 C   0  0  0  0  0  0  0  0  0  0  0  0
  -16.5535   13.7342  -25.6110 C   0  0  0  0  0  0  0  0  0  0  0  0
 33 34  2  0  0  0
 34 35  1  0  0  0
 34 32  1  0  0  0
 32 37  1  0  0  0
 37 38  1  0  0  0
 38 39  2  0  0  0
 39 40  1  0  0  0
 40 41  2  0  0  0
 41 42  1  0  0  0
 42 43  2  0  0  0
 32 31  1  0  0  0
 31 23  1  0  0  0
 23 24  2  0  0  0
 24 25  1  0  0  0
 24 26  1  0  0  0
 26 27  2  0  0  0
 27  1  1  0  0  0
  1  2  2  0  0  0
  2  3  1  0  0  0
  3  4  2  0  0  0
  4  7  1  0  0  0
  7  8  2  0  0  0
  8 16  1  0  0  0
 16 17  1  0  0  0
 17 18  2  0  0  0
 18 19  1  0  0  0
 19 20  2  0  0  0
 20 21  1  0  0  0
 21 22  2  0  0  0
  8  9  1  0  0  0
  9 10  1  0  0  0
 10 11  2  0  0  0
 11 12  1  0  0  0
 12 13  2  0  0  0
 13 14  1  0  0  0
 14 15  2  0  0  0
  4  5  1  0  0  0
  5  6  2  0  0  0
 27 28  1  0  0  0
 28 29  2  0  0  0
 29 30  1  0  0  0
 43 38  1  0  0  0
 29 23  1  0  0  0
  6  1  1  0  0  0
 15  7  1  0  0  0
 22 17  1  0  0  0
 15 10  1  0  0  0
 35 36  1  0  0  0
M  END
> <minimizedAffinity>
-9.67778

> <CNNscore>
0.1767516434

> <CNNaffinity>
6.8329019547

> <CNN_VS>
1.2077265978

> <CNNaffinity_variance>
0.1265064776

$$$$
[H]OC(=O)[C@@]([H])(Oc1c(Br)c([H])c(-c2c([H])c([H])c(-c3c(C([H])([H])c4c([H])c([H])c([H])c([H])c4[H])oc4c([H])c([H])c([H])c([H])c34)c([H])c2[H])c([H])c1Br)C([H])([H])c1c([H])c([H])c([H])c([H])c1[H]


 43 48  0  0  0  0  0  0  0  0999 V2000
  -19.7530   11.2090  -16.3160 C   0  0  0  0  0  0  0  0  0  0  0  0
  -20.3920   11.7685  -15.2267 C   0  0  0  0  0  0  0  0  0  0  0  0
  -20.4951   11.0255  -14.0794 C   0  0  0  0  0  0  0  0  0  0  0  0
  -20.0071    9.7505  -13.9226 C   0  0  0  0  0  0  0  0  0  0  0  0
  -19.3642    9.2193  -15.0521 C   0  0  0  0  0  0  0  0  0  0  0  0
  -19.2466    9.9352  -16.2079 C   0  0  0  0  0  0  0  0  0  0  0  0
  -20.1389    8.9468  -12.7227 C   0  0  0  0  0  0  0  0  0  0  0  0
  -20.8664    7.8433  -12.4668 C   0  0  0  0  0  0  0  0  0  0  0  0
  -20.6843    7.4886  -11.1924 O   0  0  0  0  0  0  0  0  0  0  0  0
  -19.8646    8.3087  -10.5877 C   0  0  0  0  0  0  0  0  0  0  0  0
  -19.3704    8.3696   -9.3034 C   0  0  0  0  0  0  0  0  0  0  0  0
  -18.4972    9.3641   -8.9175 C   0  0  0  0  0  0  0  0  0  0  0  0
  -18.1349   10.2977   -9.8652 C   0  0  0  0  0  0  0  0  0  0  0  0
  -18.6288   10.2458  -11.1661 C   0  0  0  0  0  0  0  0  0  0  0  0
  -19.4858    9.2541  -11.5101 C   0  0  0  0  0  0  0  0  0  0  0  0
  -21.7507    7.0547  -13.3501 C   0  0  0  0  0  0  0  0  0  0  0  0
  -22.8286    7.8925  -13.9093 C   0  0  0  0  0  0  0  0  0  0  0  0
  -23.8152    8.5074  -13.2032 C   0  0  0  0  0  0  0  0  0  0  0  0
  -24.7987    9.2871  -13.8326 C   0  0  0  0  0  0  0  0  0  0  0  0
  -24.7975    9.4559  -15.1952 C   0  0  0  0  0  0  0  0  0  0  0  0
  -23.8076    8.8424  -15.9298 C   0  0  0  0  0  0  0  0  0  0  0  0
  -22.8446    8.0782  -15.2990 C   0  0  0  0  0  0  0  0  0  0  0  0
  -19.3588   13.3479  -20.0216 C   0  0  0  0  0  0  0  0  0  0  0  0
  -18.5932   12.2055  -19.7520 C   0  0  0  0  0  0  0  0  0  0  0  0
  -17.3787   11.6054  -21.0857 Br  0  0  0  0  0  0  0  0  0  0  0  0
  -18.7212   11.5216  -18.5592 C   0  0  0  0  0  0  0  0  0  0  0  0
  -19.6002   11.9200  -17.5801 C   0  0  0  0  0  0  0  0  0  0  0  0
  -20.3639   13.0490  -17.8350 C   0  0  0  0  0  0  0  0  0  0  0  0
  -20.2285   13.7413  -19.0461 C   0  0  0  0  0  0  0  0  0  0  0  0
  -21.2873   15.3453  -19.2063 Br  0  0  0  0  0  0  0  0  0  0  0  0
  -19.2318   14.0345  -21.1997 O   0  0  0  0  0  0  0  0  0  0  0  0
  -18.0572   14.6507  -21.7089 C   0  0  0  0  0  0  0  0  0  0  0  0
  -18.7974   16.9090  -21.2166 O   0  0  0  0  0  0  0  0  0  0  0  0
  -17.9728   15.9689  -21.0426 C   0  0  0  0  0  0  0  0  0  0  0  0
  -16.9441   16.2523  -20.1520 O   0  0  0  0  0  0  0  0  0  0  0  0
  -15.9886   16.3723  -20.3661 H   0  0  0  0  0  0  0  0  0  0  0  0
  -18.0973   14.8272  -23.2178 C   0  0  0  0  0  0  0  0  0  0  0  0
  -16.7676   14.8983  -23.8516 C   0  0  0  0  0  0  0  0  0  0  0  0
  -15.7368   14.0736  -23.3615 C   0  0  0  0  0  0  0  0  0  0  0  0
  -14.5012   14.1171  -23.9773 C   0  0  0  0  0  0  0  0  0  0  0  0
  -14.2466   14.9445  -25.0578 C   0  0  0  0  0  0  0  0  0  0  0  0
  -15.2902   15.7356  -25.5030 C   0  0  0  0  0  0  0  0  0  0  0  0
  -16.5332   15.7226  -24.9201 C   0  0  0  0  0  0  0  0  0  0  0  0
 33 34  2  0  0  0
 34 35  1  0  0  0
 34 32  1  0  0  0
 32 37  1  0  0  0
 37 38  1  0  0  0
 38 39  2  0  0  0
 39 40  1  0  0  0
 40 41  2  0  0  0
 41 42  1  0  0  0
 42 43  2  0  0  0
 32 31  1  0  0  0
 31 23  1  0  0  0
 23 24  2  0  0  0
 24 25  1  0  0  0
 24 26  1  0  0  0
 26 27  2  0  0  0
 27  1  1  0  0  0
  1  2  2  0  0  0
  2  3  1  0  0  0
  3  4  2  0  0  0
  4  7  1  0  0  0
  7  8  2  0  0  0
  8 16  1  0  0  0
 16 17  1  0  0  0
 17 18  2  0  0  0
 18 19  1  0  0  0
 19 20  2  0  0  0
 20 21  1  0  0  0
 21 22  2  0  0  0
  8  9  1  0  0  0
  9 10  1  0  0  0
 10 11  2  0  0  0
 11 12  1  0  0  0
 12 13  2  0  0  0
 13 14  1  0  0  0
 14 15  2  0  0  0
  4  5  1  0  0  0
  5  6  2  0  0  0
 27 28  1  0  0  0
 28 29  2  0  0  0
 29 30  1  0  0  0
 43 38  1  0  0  0
 29 23  1  0  0  0
  6  1  1  0  0  0
 15  7  1  0  0  0
 22 17  1  0  0  0
 15 10  1  0  0  0
 35 36  1  0  0  0
M  END
> <minimizedAffinity>
-8.63800

> <CNNscore>
0.1440844834

> <CNNaffinity>
6.6039934158

> <CNN_VS>
0.9515329599

> <CNNaffinity_variance>
0.1904136837

$$$$
[H]OC(=O)[C@@]([H])(Oc1c(Br)c([H])c(-c2c([H])c([H])c(-c3c(C([H])([H])c4c([H])c([H])c([H])c([H])c4[H])oc4c([H])c([H])c([H])c([H])c34)c([H])c2[H])c([H])c1Br)C([H])([H])c1c([H])c([H])c([H])c([H])c1[H]


 43 48  0  0  0  0  0  0  0  0999 V2000
  -19.3625   11.3076  -17.3240 C   0  0  0  0  0  0  0  0  0  0  0  0
  -20.0620   12.0044  -16.3580 C   0  0  0  0  0  0  0  0  0  0  0  0
  -20.6372   11.2982  -15.3335 C   0  0  0  0  0  0  0  0  0  0  0  0
  -20.5734    9.9333  -15.1874 C   0  0  0  0  0  0  0  0  0  0  0  0
  -19.8529    9.2634  -16.1890 C   0  0  0  0  0  0  0  0  0  0  0  0
  -19.2698    9.9396  -17.2210 C   0  0  0  0  0  0  0  0  0  0  0  0
  -21.2046    9.1762  -14.1236 C   0  0  0  0  0  0  0  0  0  0  0  0
  -20.6901    8.3486  -13.1948 C   0  0  0  0  0  0  0  0  0  0  0  0
  -21.6850    7.8558  -12.4530 O   0  0  0  0  0  0  0  0  0  0  0  0
  -22.8418    8.3210  -12.8473 C   0  0  0  0  0  0  0  0  0  0  0  0
  -24.1343    8.1204  -12.4155 C   0  0  0  0  0  0  0  0  0  0  0  0
  -25.1992    8.7510  -13.0229 C   0  0  0  0  0  0  0  0  0  0  0  0
  -24.9237    9.5920  -14.0802 C   0  0  0  0  0  0  0  0  0  0  0  0
  -23.6209    9.8016  -14.5250 C   0  0  0  0  0  0  0  0  0  0  0  0
  -22.5986    9.1645  -13.9044 C   0  0  0  0  0  0  0  0  0  0  0  0
  -19.2880    7.9667  -12.9256 C   0  0  0  0  0  0  0  0  0  0  0  0
  -18.7599    8.6776  -11.7458 C   0  0  0  0  0  0  0  0  0  0  0  0
  -17.8474    8.1950  -10.8602 C   0  0  0  0  0  0  0  0  0  0  0  0
  -17.4070    8.9548   -9.7646 C   0  0  0  0  0  0  0  0  0  0  0  0
  -17.8884   10.2224   -9.5484 C   0  0  0  0  0  0  0  0  0  0  0  0
  -18.8132   10.7310  -10.4328 C   0  0  0  0  0  0  0  0  0  0  0  0
  -19.2381    9.9741  -11.5078 C   0  0  0  0  0  0  0  0  0  0  0  0
  -17.5211   13.3205  -20.6435 C   0  0  0  0  0  0  0  0  0  0  0  0
  -17.1739   12.0066  -20.3015 C   0  0  0  0  0  0  0  0  0  0  0  0
  -15.8713   11.1185  -21.3637 Br  0  0  0  0  0  0  0  0  0  0  0  0
  -17.7665   11.3634  -19.2328 C   0  0  0  0  0  0  0  0  0  0  0  0
  -18.7222   11.9712  -18.4537 C   0  0  0  0  0  0  0  0  0  0  0  0
  -19.0748   13.2716  -18.7821 C   0  0  0  0  0  0  0  0  0  0  0  0
  -18.4685   13.9211  -19.8661 C   0  0  0  0  0  0  0  0  0  0  0  0
  -18.9946   15.7576  -20.1309 Br  0  0  0  0  0  0  0  0  0  0  0  0
  -16.9323   13.9663  -21.6978 O   0  0  0  0  0  0  0  0  0  0  0  0
  -16.8064   13.4906  -23.0307 C   0  0  0  0  0  0  0  0  0  0  0  0
  -14.8353   14.9011  -23.1542 O   0  0  0  0  0  0  0  0  0  0  0  0
  -15.4277   13.8259  -23.4495 C   0  0  0  0  0  0  0  0  0  0  0  0
  -14.6807   12.9395  -24.2162 O   0  0  0  0  0  0  0  0  0  0  0  0
  -14.8366   12.6908  -25.1581 H   0  0  0  0  0  0  0  0  0  0  0  0
  -17.8115   14.1279  -23.9758 C   0  0  0  0  0  0  0  0  0  0  0  0
  -17.2930   14.3654  -25.3358 C   0  0  0  0  0  0  0  0  0  0  0  0
  -17.3906   13.3339  -26.2895 C   0  0  0  0  0  0  0  0  0  0  0  0
  -16.9348   13.5691  -27.5719 C   0  0  0  0  0  0  0  0  0  0  0  0
  -16.3863   14.7840  -27.9464 C   0  0  0  0  0  0  0  0  0  0  0  0
  -16.3118   15.7658  -26.9751 C   0  0  0  0  0  0  0  0  0  0  0  0
  -16.7536   15.5738  -25.6894 C   0  0  0  0  0  0  0  0  0  0  0  0
 33 34  2  0  0  0
 34 35  1  0  0  0
 34 32  1  0  0  0
 32 37  1  0  0  0
 37 38  1  0  0  0
 38 39  2  0  0  0
 39 40  1  0  0  0
 40 41  2  0  0  0
 41 42  1  0  0  0
 42 43  2  0  0  0
 32 31  1  0  0  0
 31 23  1  0  0  0
 23 24  2  0  0  0
 24 25  1  0  0  0
 24 26  1  0  0  0
 26 27  2  0  0  0
 27  1  1  0  0  0
  1  2  2  0  0  0
  2  3  1  0  0  0
  3  4  2  0  0  0
  4  7  1  0  0  0
  7  8  2  0  0  0
  8 16  1  0  0  0
 16 17  1  0  0  0
 17 18  2  0  0  0
 18 19  1  0  0  0
 19 20  2  0  0  0
 20 21  1  0  0  0
 21 22  2  0  0  0
  8  9  1  0  0  0
  9 10  1  0  0  0
 10 11  2  0  0  0
 11 12  1  0  0  0
 12 13  2  0  0  0
 13 14  1  0  0  0
 14 15  2  0  0  0
  4  5  1  0  0  0
  5  6  2  0  0  0
 27 28  1  0  0  0
 28 29  2  0  0  0
 29 30  1  0  0  0
 43 38  1  0  0  0
 29 23  1  0  0  0
  6  1  1  0  0  0
 15  7  1  0  0  0
 22 17  1  0  0  0
 15 10  1  0  0  0
 35 36  1  0  0  0
M  END
> <minimizedAffinity>
-9.61982

> <CNNscore>
0.1325786859

> <CNNaffinity>
6.7064867020

> <CNN_VS>
0.8891372085

> <CNNaffinity_variance>
0.1850647628

$$$$
[H]c1c(F)c(C(=O)N([H])S(=O)(=O)C2([H])C([H])([H])C2([H])[H])c([H])c(C2([H])C([H])([H])C2([H])[H])c1OC([H])([H])C1([H])C([H])([H])C([H])([H])C([H])(C(F)(F)F)C([H])([H])C1([H])[H]


 32 35  0  0  0  0  0  0  0  0999 V2000
  -17.0678   12.1600  -21.3371 C   0  0  0  0  0  0  0  0  0  0  0  0
  -18.0153   12.5753  -20.3947 C   0  0  0  0  0  0  0  0  0  0  0  0
  -18.2915   11.8909  -19.2548 C   0  0  0  0  0  0  0  0  0  0  0  0
  -17.6108   10.6801  -18.9525 C   0  0  0  0  0  0  0  0  0  0  0  0
  -16.6792   10.2864  -19.8930 C   0  0  0  0  0  0  0  0  0  0  0  0
  -16.4147   11.0071  -21.0552 C   0  0  0  0  0  0  0  0  0  0  0  0
  -15.4997   10.5236  -21.9006 F   0  0  0  0  0  0  0  0  0  0  0  0
  -16.6910   14.2621  -22.2899 O   0  0  0  0  0  0  0  0  0  0  0  0
  -16.8796   13.0060  -22.4955 C   0  0  0  0  0  0  0  0  0  0  0  0
  -16.8754   12.6194  -23.8371 N   0  0  0  0  0  0  0  0  0  0  0  0
  -17.0010   11.6473  -24.1305 H   0  0  0  0  0  0  0  0  0  0  0  0
  -16.6383   13.7715  -25.0957 S   0  0  0  0  0  0  0  0  0  0  0  0
  -17.6778   14.8629  -25.0072 O   0  0  0  0  0  0  0  0  0  0  0  0
  -16.7620   13.1428  -26.4503 O   0  0  0  0  0  0  0  0  0  0  0  0
  -15.0155   14.5335  -24.9368 C   0  0  0  0  0  0  0  0  0  0  0  0
  -14.4868   15.3495  -26.0711 C   0  0  0  0  0  0  0  0  0  0  0  0
  -15.0860   16.0500  -24.9161 C   0  0  0  0  0  0  0  0  0  0  0  0
  -19.3226   12.3435  -18.2659 C   0  0  0  0  0  0  0  0  0  0  0  0
  -18.9888   13.2346  -17.1499 C   0  0  0  0  0  0  0  0  0  0  0  0
  -19.6329   13.8430  -18.3394 C   0  0  0  0  0  0  0  0  0  0  0  0
  -17.9172   10.0583  -17.8246 O   0  0  0  0  0  0  0  0  0  0  0  0
  -18.6180    9.0910  -17.2918 C   0  0  0  0  0  0  0  0  0  0  0  0
  -19.3120    9.1658  -15.9873 C   0  0  0  0  0  0  0  0  0  0  0  0
  -20.5995    9.9677  -16.0106 C   0  0  0  0  0  0  0  0  0  0  0  0
  -20.7334   10.5840  -14.6465 C   0  0  0  0  0  0  0  0  0  0  0  0
  -20.7100    9.5727  -13.5702 C   0  0  0  0  0  0  0  0  0  0  0  0
  -20.1643    8.2305  -13.8328 C   0  0  0  0  0  0  0  0  0  0  0  0
  -19.5362    7.9700  -15.1714 C   0  0  0  0  0  0  0  0  0  0  0  0
  -20.0947   10.1623  -12.2755 C   0  0  0  0  0  0  0  0  0  0  0  0
  -19.5310    9.2013  -11.4952 F   0  0  0  0  0  0  0  0  0  0  0  0
  -19.0921   11.0601  -12.6162 F   0  0  0  0  0  0  0  0  0  0  0  0
  -21.0404   10.8793  -11.5876 F   0  0  0  0  0  0  0  0  0  0  0  0
  8  9  2  0  0  0
  9 10  1  0  0  0
 10 12  1  0  0  0
 12 13  2  0  0  0
 12 14  2  0  0  0
 12 15  1  0  0  0
 15 16  1  0  0  0
 16 17  1  0  0  0
  9  1  1  0  0  0
  1  2  2  0  0  0
  2  3  1  0  0  0
  3 18  1  0  0  0
 18 19  1  0  0  0
 19 20  1  0  0  0
  3  4  2  0  0  0
  4 21  1  0  0  0
 21 22  1  0  0  0
 22 23  1  0  0  0
 23 24  1  0  0  0
 24 25  1  0  0  0
 25 26  1  0  0  0
 26 29  1  0  0  0
 29 30  1  0  0  0
 29 31  1  0  0  0
 29 32  1  0  0  0
 26 27  1  0  0  0
 27 28  1  0  0  0
  4  5  1  0  0  0
  5  6  2  0  0  0
  6  7  1  0  0  0
 17 15  1  0  0  0
  6  1  1  0  0  0
 20 18  1  0  0  0
 28 23  1  0  0  0
 10 11  1  0  0  0
M  END
> <minimizedAffinity>
-8.32991

> <CNNscore>
0.4416997135

> <CNNaffinity>
6.8888931274

> <CNN_VS>
3.0428221226

> <CNNaffinity_variance>
0.0655978248

$$$$
[H]c1c(F)c(C(=O)N([H])S(=O)(=O)C2([H])C([H])([H])C2([H])[H])c([H])c(C2([H])C([H])([H])C2([H])[H])c1OC([H])([H])C1([H])C([H])([H])C([H])([H])C([H])(C(F)(F)F)C([H])([H])C1([H])[H]


 32 35  0  0  0  0  0  0  0  0999 V2000
  -17.0843   12.2080  -21.1756 C   0  0  0  0  0  0  0  0  0  0  0  0
  -18.0148   12.6026  -20.2078 C   0  0  0  0  0  0  0  0  0  0  0  0
  -18.3066   11.8693  -19.1027 C   0  0  0  0  0  0  0  0  0  0  0  0
  -17.6611   10.6249  -18.8664 C   0  0  0  0  0  0  0  0  0  0  0  0
  -16.7458   10.2524  -19.8311 C   0  0  0  0  0  0  0  0  0  0  0  0
  -16.4648   11.0233  -20.9566 C   0  0  0  0  0  0  0  0  0  0  0  0
  -15.5682   10.5566  -21.8308 F   0  0  0  0  0  0  0  0  0  0  0  0
  -17.6653   14.1166  -22.3955 O   0  0  0  0  0  0  0  0  0  0  0  0
  -16.8757   13.1060  -22.2905 C   0  0  0  0  0  0  0  0  0  0  0  0
  -15.9019   13.0108  -23.2864 N   0  0  0  0  0  0  0  0  0  0  0  0
  -15.2064   12.2606  -23.3066 H   0  0  0  0  0  0  0  0  0  0  0  0
  -15.8023   14.1775  -24.5499 S   0  0  0  0  0  0  0  0  0  0  0  0
  -14.3910   14.2522  -25.0815 O   0  0  0  0  0  0  0  0  0  0  0  0
  -16.1731   15.5469  -24.0676 O   0  0  0  0  0  0  0  0  0  0  0  0
  -16.8854   13.7091  -25.9089 C   0  0  0  0  0  0  0  0  0  0  0  0
  -17.6272   12.4148  -25.8277 C   0  0  0  0  0  0  0  0  0  0  0  0
  -18.3461   13.6630  -25.4975 C   0  0  0  0  0  0  0  0  0  0  0  0
  -19.3194   12.3012  -18.0860 C   0  0  0  0  0  0  0  0  0  0  0  0
  -18.9909   13.2524  -17.0191 C   0  0  0  0  0  0  0  0  0  0  0  0
  -19.7189   13.7768  -18.2002 C   0  0  0  0  0  0  0  0  0  0  0  0
  -17.9811    9.9558  -17.7698 O   0  0  0  0  0  0  0  0  0  0  0  0
  -18.8378    9.1248  -17.2346 C   0  0  0  0  0  0  0  0  0  0  0  0
  -19.4909    9.3101  -15.9201 C   0  0  0  0  0  0  0  0  0  0  0  0
  -20.8682    9.9419  -15.9912 C   0  0  0  0  0  0  0  0  0  0  0  0
  -21.0313   10.7339  -14.7245 C   0  0  0  0  0  0  0  0  0  0  0  0
  -20.8456    9.9037  -13.5170 C   0  0  0  0  0  0  0  0  0  0  0  0
  -20.1463    8.6113  -13.6125 C   0  0  0  0  0  0  0  0  0  0  0  0
  -19.5367    8.2309  -14.9307 C   0  0  0  0  0  0  0  0  0  0  0  0
  -20.2647   10.7476  -12.3538 C   0  0  0  0  0  0  0  0  0  0  0  0
  -21.0279   11.8414  -12.0866 F   0  0  0  0  0  0  0  0  0  0  0  0
  -20.2327    9.9733  -11.2019 F   0  0  0  0  0  0  0  0  0  0  0  0
  -18.9655   11.0938  -12.6251 F   0  0  0  0  0  0  0  0  0  0  0  0
  8  9  2  0  0  0
  9 10  1  0  0  0
 10 12  1  0  0  0
 12 13  2  0  0  0
 12 14  2  0  0  0
 12 15  1  0  0  0
 15 16  1  0  0  0
 16 17  1  0  0  0
  9  1  1  0  0  0
  1  2  2  0  0  0
  2  3  1  0  0  0
  3 18  1  0  0  0
 18 19  1  0  0  0
 19 20  1  0  0  0
  3  4  2  0  0  0
  4 21  1  0  0  0
 21 22  1  0  0  0
 22 23  1  0  0  0
 23 24  1  0  0  0
 24 25  1  0  0  0
 25 26  1  0  0  0
 26 29  1  0  0  0
 29 30  1  0  0  0
 29 31  1  0  0  0
 29 32  1  0  0  0
 26 27  1  0  0  0
 27 28  1  0  0  0
  4  5  1  0  0  0
  5  6  2  0  0  0
  6  7  1  0  0  0
 17 15  1  0  0  0
  6  1  1  0  0  0
 20 18  1  0  0  0
 28 23  1  0  0  0
 10 11  1  0  0  0
M  END
> <minimizedAffinity>
-8.38115

> <CNNscore>
0.3062507212

> <CNNaffinity>
6.8109560013

> <CNN_VS>
2.0858602524

> <CNNaffinity_variance>
0.2374002039

$$$$
[H]c1c(F)c(C(=O)N([H])S(=O)(=O)C2([H])C([H])([H])C2([H])[H])c([H])c(C2([H])C([H])([H])C2([H])[H])c1OC([H])([H])C1([H])C([H])([H])C([H])([H])C([H])(C(F)(F)F)C([H])([H])C1([H])[H]


 32 35  0  0  0  0  0  0  0  0999 V2000
  -16.6434   11.8337  -21.5393 C   0  0  0  0  0  0  0  0  0  0  0  0
  -17.6021   12.5611  -20.8250 C   0  0  0  0  0  0  0  0  0  0  0  0
  -18.1257   12.1535  -19.6402 C   0  0  0  0  0  0  0  0  0  0  0  0
  -17.7134   10.9288  -19.0477 C   0  0  0  0  0  0  0  0  0  0  0  0
  -16.7666   10.2253  -19.7660 C   0  0  0  0  0  0  0  0  0  0  0  0
  -16.2454   10.6657  -20.9802 C   0  0  0  0  0  0  0  0  0  0  0  0
  -15.3418    9.8953  -21.5933 F   0  0  0  0  0  0  0  0  0  0  0  0
  -15.1988   11.8190  -23.3781 O   0  0  0  0  0  0  0  0  0  0  0  0
  -16.1746   12.4084  -22.7813 C   0  0  0  0  0  0  0  0  0  0  0  0
  -16.6616   13.5464  -23.4272 N   0  0  0  0  0  0  0  0  0  0  0  0
  -17.4438   14.0951  -23.0610 H   0  0  0  0  0  0  0  0  0  0  0  0
  -15.9746   14.0926  -24.9095 S   0  0  0  0  0  0  0  0  0  0  0  0
  -16.5143   13.2836  -26.0645 O   0  0  0  0  0  0  0  0  0  0  0  0
  -14.4836   13.9434  -24.9153 O   0  0  0  0  0  0  0  0  0  0  0  0
  -16.4035   15.8180  -25.1894 C   0  0  0  0  0  0  0  0  0  0  0  0
  -17.4729   16.4410  -24.3526 C   0  0  0  0  0  0  0  0  0  0  0  0
  -16.0609   16.7010  -24.0028 C   0  0  0  0  0  0  0  0  0  0  0  0
  -19.1646   12.9389  -18.8988 C   0  0  0  0  0  0  0  0  0  0  0  0
  -19.3738   14.3703  -19.1399 C   0  0  0  0  0  0  0  0  0  0  0  0
  -20.3191   13.4251  -19.7825 C   0  0  0  0  0  0  0  0  0  0  0  0
  -18.2538   10.5845  -17.8893 O   0  0  0  0  0  0  0  0  0  0  0  0
  -18.7352    9.5927  -17.1854 C   0  0  0  0  0  0  0  0  0  0  0  0
  -19.9907    9.6385  -16.4040 C   0  0  0  0  0  0  0  0  0  0  0  0
  -19.8905    9.0144  -15.0250 C   0  0  0  0  0  0  0  0  0  0  0  0
  -21.2499    8.4505  -14.7210 C   0  0  0  0  0  0  0  0  0  0  0  0
  -22.3128    9.4723  -14.8093 C   0  0  0  0  0  0  0  0  0  0  0  0
  -22.0711   10.7243  -15.5459 C   0  0  0  0  0  0  0  0  0  0  0  0
  -20.7748   10.8705  -16.2892 C   0  0  0  0  0  0  0  0  0  0  0  0
  -23.6533    8.8339  -15.2544 C   0  0  0  0  0  0  0  0  0  0  0  0
  -23.4614    7.7171  -16.0068 F   0  0  0  0  0  0  0  0  0  0  0  0
  -24.3732    8.4566  -14.1289 F   0  0  0  0  0  0  0  0  0  0  0  0
  -24.4210    9.7599  -15.9137 F   0  0  0  0  0  0  0  0  0  0  0  0
  8  9  2  0  0  0
  9 10  1  0  0  0
 10 12  1  0  0  0
 12 13  2  0  0  0
 12 14  2  0  0  0
 12 15  1  0  0  0
 15 16  1  0  0  0
 16 17  1  0  0  0
  9  1  1  0  0  0
  1  2  2  0  0  0
  2  3  1  0  0  0
  3 18  1  0  0  0
 18 19  1  0  0  0
 19 20  1  0  0  0
  3  4  2  0  0  0
  4 21  1  0  0  0
 21 22  1  0  0  0
 22 23  1  0  0  0
 23 24  1  0  0  0
 24 25  1  0  0  0
 25 26  1  0  0  0
 26 29  1  0  0  0
 29 30  1  0  0  0
 29 31  1  0  0  0
 29 32  1  0  0  0
 26 27  1  0  0  0
 27 28  1  0  0  0
  4  5  1  0  0  0
  5  6  2  0  0  0
  6  7  1  0  0  0
 17 15  1  0  0  0
  6  1  1  0  0  0
 20 18  1  0  0  0
 28 23  1  0  0  0
 10 11  1  0  0  0
M  END
> <minimizedAffinity>
-8.70281

> <CNNscore>
0.2704697847

> <CNNaffinity>
6.4907255173

> <CNN_VS>
1.7555451393

> <CNNaffinity_variance>
0.1023907810

$$$$
[H]c1c(F)c(C(=O)N([H])S(=O)(=O)C2([H])C([H])([H])C2([H])[H])c([H])c(C2([H])C([H])([H])C2([H])[H])c1OC([H])([H])C1([H])C([H])([H])C([H])([H])C([H])(C(F)(F)F)C([H])([H])C1([H])[H]


 32 35  0  0  0  0  0  0  0  0999 V2000
  -17.2419   12.9578  -21.8191 C   0  0  0  0  0  0  0  0  0  0  0  0
  -18.1322   13.3561  -20.8156 C   0  0  0  0  0  0  0  0  0  0  0  0
  -18.3565   12.6416  -19.6828 C   0  0  0  0  0  0  0  0  0  0  0  0
  -17.6767   11.4145  -19.4525 C   0  0  0  0  0  0  0  0  0  0  0  0
  -16.8018   11.0379  -20.4525 C   0  0  0  0  0  0  0  0  0  0  0  0
  -16.5900   11.7895  -21.6060 C   0  0  0  0  0  0  0  0  0  0  0  0
  -15.7278   11.3205  -22.5128 F   0  0  0  0  0  0  0  0  0  0  0  0
  -17.8676   13.6173  -23.9736 O   0  0  0  0  0  0  0  0  0  0  0  0
  -17.1044   13.8353  -22.9609 C   0  0  0  0  0  0  0  0  0  0  0  0
  -16.2287   14.9136  -23.1021 N   0  0  0  0  0  0  0  0  0  0  0  0
  -15.5809   15.1973  -22.3627 H   0  0  0  0  0  0  0  0  0  0  0  0
  -16.1985   15.8542  -24.5450 S   0  0  0  0  0  0  0  0  0  0  0  0
  -15.2553   17.0226  -24.3870 O   0  0  0  0  0  0  0  0  0  0  0  0
  -17.5515   16.4106  -24.8699 O   0  0  0  0  0  0  0  0  0  0  0  0
  -15.6181   14.8520  -25.9227 C   0  0  0  0  0  0  0  0  0  0  0  0
  -16.5925   14.4428  -26.9787 C   0  0  0  0  0  0  0  0  0  0  0  0
  -15.6972   15.5869  -27.2488 C   0  0  0  0  0  0  0  0  0  0  0  0
  -19.3273   13.0768  -18.6274 C   0  0  0  0  0  0  0  0  0  0  0  0
  -18.8875   13.7323  -17.3914 C   0  0  0  0  0  0  0  0  0  0  0  0
  -19.4261   14.5984  -18.4684 C   0  0  0  0  0  0  0  0  0  0  0  0
  -17.9309   10.7633  -18.3282 O   0  0  0  0  0  0  0  0  0  0  0  0
  -18.2193    9.5987  -17.8075 C   0  0  0  0  0  0  0  0  0  0  0  0
  -19.3248    9.3449  -16.8576 C   0  0  0  0  0  0  0  0  0  0  0  0
  -18.9407    8.4849  -15.6685 C   0  0  0  0  0  0  0  0  0  0  0  0
  -20.1758    7.7160  -15.2916 C   0  0  0  0  0  0  0  0  0  0  0  0
  -21.3228    8.6025  -15.0084 C   0  0  0  0  0  0  0  0  0  0  0  0
  -21.3175    9.9919  -15.4961 C   0  0  0  0  0  0  0  0  0  0  0  0
  -20.1821   10.4303  -16.3753 C   0  0  0  0  0  0  0  0  0  0  0  0
  -22.6586    7.9066  -15.3742 C   0  0  0  0  0  0  0  0  0  0  0  0
  -22.4588    6.7267  -16.0206 F   0  0  0  0  0  0  0  0  0  0  0  0
  -23.3599    7.6272  -14.2090 F   0  0  0  0  0  0  0  0  0  0  0  0
  -23.4476    8.7557  -16.1077 F   0  0  0  0  0  0  0  0  0  0  0  0
  8  9  2  0  0  0
  9 10  1  0  0  0
 10 12  1  0  0  0
 12 13  2  0  0  0
 12 14  2  0  0  0
 12 15  1  0  0  0
 15 16  1  0  0  0
 16 17  1  0  0  0
  9  1  1  0  0  0
  1  2  2  0  0  0
  2  3  1  0  0  0
  3 18  1  0  0  0
 18 19  1  0  0  0
 19 20  1  0  0  0
  3  4  2  0  0  0
  4 21  1  0  0  0
 21 22  1  0  0  0
 22 23  1  0  0  0
 23 24  1  0  0  0
 24 25  1  0  0  0
 25 26  1  0  0  0
 26 29  1  0  0  0
 29 30  1  0  0  0
 29 31  1  0  0  0
 29 32  1  0  0  0
 26 27  1  0  0  0
 27 28  1  0  0  0
  4  5  1  0  0  0
  5  6  2  0  0  0
  6  7  1  0  0  0
 17 15  1  0  0  0
  6  1  1  0  0  0
 20 18  1  0  0  0
 28 23  1  0  0  0
 10 11  1  0  0  0
M  END
> <minimizedAffinity>
-8.28716

> <CNNscore>
0.2331807911

> <CNNaffinity>
6.7066202164

> <CNN_VS>
1.5638550520

> <CNNaffinity_variance>
0.0580300167

$$$$
[H]c1c(F)c(C(=O)N([H])S(=O)(=O)C2([H])C([H])([H])C2([H])[H])c([H])c(C2([H])C([H])([H])C2([H])[H])c1OC([H])([H])C1([H])C([H])([H])C([H])([H])C([H])(C(F)(F)F)C([H])([H])C1([H])[H]


 32 35  0  0  0  0  0  0  0  0999 V2000
  -19.0604   11.4603  -18.0524 C   0  0  0  0  0  0  0  0  0  0  0  0
  -19.4617   12.5518  -18.8308 C   0  0  0  0  0  0  0  0  0  0  0  0
  -18.7981   12.9683  -19.9400 C   0  0  0  0  0  0  0  0  0  0  0  0
  -17.6256   12.2952  -20.3796 C   0  0  0  0  0  0  0  0  0  0  0  0
  -17.2454   11.2205  -19.6000 C   0  0  0  0  0  0  0  0  0  0  0  0
  -17.9440   10.8137  -18.4658 C   0  0  0  0  0  0  0  0  0  0  0  0
  -17.4759    9.7661  -17.7808 F   0  0  0  0  0  0  0  0  0  0  0  0
  -20.5032   12.0997  -16.3267 O   0  0  0  0  0  0  0  0  0  0  0  0
  -19.8811   11.1341  -16.9066 C   0  0  0  0  0  0  0  0  0  0  0  0
  -20.0874    9.8742  -16.3414 N   0  0  0  0  0  0  0  0  0  0  0  0
  -19.6597    9.0247  -16.7188 H   0  0  0  0  0  0  0  0  0  0  0  0
  -21.1026    9.6703  -14.9648 S   0  0  0  0  0  0  0  0  0  0  0  0
  -21.3528    8.2027  -14.7132 O   0  0  0  0  0  0  0  0  0  0  0  0
  -22.4360   10.3258  -15.1600 O   0  0  0  0  0  0  0  0  0  0  0  0
  -20.3069   10.3581  -13.5042 C   0  0  0  0  0  0  0  0  0  0  0  0
  -20.9100   11.5591  -12.8516 C   0  0  0  0  0  0  0  0  0  0  0  0
  -21.1673   10.2297  -12.2598 C   0  0  0  0  0  0  0  0  0  0  0  0
  -19.2344   14.1506  -20.7509 C   0  0  0  0  0  0  0  0  0  0  0  0
  -20.2281   15.1081  -20.2541 C   0  0  0  0  0  0  0  0  0  0  0  0
  -18.7999   15.4978  -20.1622 C   0  0  0  0  0  0  0  0  0  0  0  0
  -17.0231   12.7420  -21.4704 O   0  0  0  0  0  0  0  0  0  0  0  0
  -16.7002   12.4609  -22.7063 C   0  0  0  0  0  0  0  0  0  0  0  0
  -16.4052   13.4625  -23.7545 C   0  0  0  0  0  0  0  0  0  0  0  0
  -17.3869   14.6177  -23.8077 C   0  0  0  0  0  0  0  0  0  0  0  0
  -17.4514   15.0463  -25.2466 C   0  0  0  0  0  0  0  0  0  0  0  0
  -16.1227   15.4009  -25.7856 C   0  0  0  0  0  0  0  0  0  0  0  0
  -14.9035   14.9338  -25.1048 C   0  0  0  0  0  0  0  0  0  0  0  0
  -15.0562   14.0039  -23.9359 C   0  0  0  0  0  0  0  0  0  0  0  0
  -16.0454   15.0941  -27.3030 C   0  0  0  0  0  0  0  0  0  0  0  0
  -14.7639   14.9159  -27.7227 F   0  0  0  0  0  0  0  0  0  0  0  0
  -16.7345   13.9177  -27.5649 F   0  0  0  0  0  0  0  0  0  0  0  0
  -16.6767   16.0808  -28.0167 F   0  0  0  0  0  0  0  0  0  0  0  0
  8  9  2  0  0  0
  9 10  1  0  0  0
 10 12  1  0  0  0
 12 13  2  0  0  0
 12 14  2  0  0  0
 12 15  1  0  0  0
 15 16  1  0  0  0
 16 17  1  0  0  0
  9  1  1  0  0  0
  1  2  2  0  0  0
  2  3  1  0  0  0
  3 18  1  0  0  0
 18 19  1  0  0  0
 19 20  1  0  0  0
  3  4  2  0  0  0
  4 21  1  0  0  0
 21 22  1  0  0  0
 22 23  1  0  0  0
 23 24  1  0  0  0
 24 25  1  0  0  0
 25 26  1  0  0  0
 26 29  1  0  0  0
 29 30  1  0  0  0
 29 31  1  0  0  0
 29 32  1  0  0  0
 26 27  1  0  0  0
 27 28  1  0  0  0
  4  5  1  0  0  0
  5  6  2  0  0  0
  6  7  1  0  0  0
 17 15  1  0  0  0
  6  1  1  0  0  0
 20 18  1  0  0  0
 28 23  1  0  0  0
 10 11  1  0  0  0
M  END
> <minimizedAffinity>
-8.47837

> <CNNscore>
0.2125807703

> <CNNaffinity>
6.5976295471

> <CNN_VS>
1.4025291204

> <CNNaffinity_variance>
0.1127257347

$$$$
[H]c1c(F)c(C(=O)N([H])S(=O)(=O)C2([H])C([H])([H])C2([H])[H])c([H])c(C2([H])C([H])([H])C2([H])[H])c1OC([H])([H])C1([H])C([H])([H])C([H])([H])C([H])(C(F)(F)F)C([H])([H])C1([H])[H]


 32 35  0  0  0  0  0  0  0  0999 V2000
  -18.5857   11.7114  -18.7212 C   0  0  0  0  0  0  0  0  0  0  0  0
  -18.8494   12.8654  -19.4676 C   0  0  0  0  0  0  0  0  0  0  0  0
  -18.3032   13.1136  -20.6859 C   0  0  0  0  0  0  0  0  0  0  0  0
  -17.4080   12.1843  -21.2826 C   0  0  0  0  0  0  0  0  0  0  0  0
  -17.1605   11.0516  -20.5323 C   0  0  0  0  0  0  0  0  0  0  0  0
  -17.7339   10.8210  -19.2840 C   0  0  0  0  0  0  0  0  0  0  0  0
  -17.4118    9.6939  -18.6424 F   0  0  0  0  0  0  0  0  0  0  0  0
  -19.3924   12.6552  -16.7395 O   0  0  0  0  0  0  0  0  0  0  0  0
  -19.2556   11.5878  -17.4450 C   0  0  0  0  0  0  0  0  0  0  0  0
  -19.7849   10.4294  -16.8728 N   0  0  0  0  0  0  0  0  0  0  0  0
  -19.7517    9.5198  -17.3401 H   0  0  0  0  0  0  0  0  0  0  0  0
  -20.5513   10.4671  -15.3305 S   0  0  0  0  0  0  0  0  0  0  0  0
  -21.8405   11.2494  -15.4071 O   0  0  0  0  0  0  0  0  0  0  0  0
  -19.6865   11.1272  -14.3001 O   0  0  0  0  0  0  0  0  0  0  0  0
  -20.9457    8.7941  -14.7966 C   0  0  0  0  0  0  0  0  0  0  0  0
  -20.6030    7.6501  -15.6944 C   0  0  0  0  0  0  0  0  0  0  0  0
  -19.7044    7.9524  -14.5609 C   0  0  0  0  0  0  0  0  0  0  0  0
  -18.5849   14.3641  -21.4623 C   0  0  0  0  0  0  0  0  0  0  0  0
  -19.3598   15.4721  -20.8941 C   0  0  0  0  0  0  0  0  0  0  0  0
  -17.8828   15.6081  -20.9059 C   0  0  0  0  0  0  0  0  0  0  0  0
  -16.9103   12.4763  -22.4741 O   0  0  0  0  0  0  0  0  0  0  0  0
  -15.8310   12.8192  -23.1285 C   0  0  0  0  0  0  0  0  0  0  0  0
  -15.7947   13.7577  -24.2716 C   0  0  0  0  0  0  0  0  0  0  0  0
  -16.9060   14.7903  -24.2667 C   0  0  0  0  0  0  0  0  0  0  0  0
  -17.2056   15.0898  -25.7085 C   0  0  0  0  0  0  0  0  0  0  0  0
  -16.0091   15.5423  -26.4469 C   0  0  0  0  0  0  0  0  0  0  0  0
  -14.6654   15.2688  -25.9100 C   0  0  0  0  0  0  0  0  0  0  0  0
  -14.5546   14.4269  -24.6719 C   0  0  0  0  0  0  0  0  0  0  0  0
  -16.0912   15.1224  -27.9368 C   0  0  0  0  0  0  0  0  0  0  0  0
  -16.6798   16.0787  -28.7044 F   0  0  0  0  0  0  0  0  0  0  0  0
  -14.8065   14.9305  -28.4268 F   0  0  0  0  0  0  0  0  0  0  0  0
  -16.7349   13.9167  -28.0524 F   0  0  0  0  0  0  0  0  0  0  0  0
  8  9  2  0  0  0
  9 10  1  0  0  0
 10 12  1  0  0  0
 12 13  2  0  0  0
 12 14  2  0  0  0
 12 15  1  0  0  0
 15 16  1  0  0  0
 16 17  1  0  0  0
  9  1  1  0  0  0
  1  2  2  0  0  0
  2  3  1  0  0  0
  3 18  1  0  0  0
 18 19  1  0  0  0
 19 20  1  0  0  0
  3  4  2  0  0  0
  4 21  1  0  0  0
 21 22  1  0  0  0
 22 23  1  0  0  0
 23 24  1  0  0  0
 24 25  1  0  0  0
 25 26  1  0  0  0
 26 29  1  0  0  0
 29 30  1  0  0  0
 29 31  1  0  0  0
 29 32  1  0  0  0
 26 27  1  0  0  0
 27 28  1  0  0  0
  4  5  1  0  0  0
  5  6  2  0  0  0
  6  7  1  0  0  0
 17 15  1  0  0  0
  6  1  1  0  0  0
 20 18  1  0  0  0
 28 23  1  0  0  0
 10 11  1  0  0  0
M  END
> <minimizedAffinity>
-9.16201

> <CNNscore>
0.2095128149

> <CNNaffinity>
6.5708985329

> <CNN_VS>
1.3766874075

> <CNNaffinity_variance>
0.1706698239

$$$$
[H]c1c(F)c(C(=O)N([H])S(=O)(=O)C2([H])C([H])([H])C2([H])[H])c([H])c(C2([H])C([H])([H])C2([H])[H])c1OC([H])([H])C1([H])C([H])([H])C([H])([H])C([H])(C(F)(F)F)C([H])([H])C1([H])[H]


 32 35  0  0  0  0  0  0  0  0999 V2000
  -19.5834   11.9343  -17.4905 C   0  0  0  0  0  0  0  0  0  0  0  0
  -18.4390   11.5210  -18.1817 C   0  0  0  0  0  0  0  0  0  0  0  0
  -17.9637   12.1458  -19.2899 C   0  0  0  0  0  0  0  0  0  0  0  0
  -18.6259   13.2866  -19.8198 C   0  0  0  0  0  0  0  0  0  0  0  0
  -19.7523   13.6803  -19.1244 C   0  0  0  0  0  0  0  0  0  0  0  0
  -20.2193   13.0214  -17.9896 C   0  0  0  0  0  0  0  0  0  0  0  0
  -21.3279   13.4847  -17.4048 F   0  0  0  0  0  0  0  0  0  0  0  0
  -20.0248   11.7982  -15.1981 O   0  0  0  0  0  0  0  0  0  0  0  0
  -19.9543   11.1706  -16.3192 C   0  0  0  0  0  0  0  0  0  0  0  0
  -20.2535    9.8084  -16.2538 N   0  0  0  0  0  0  0  0  0  0  0  0
  -20.2461    9.2028  -17.0785 H   0  0  0  0  0  0  0  0  0  0  0  0
  -20.6750    9.0591  -14.7610 S   0  0  0  0  0  0  0  0  0  0  0  0
  -21.1512    7.6467  -15.0019 O   0  0  0  0  0  0  0  0  0  0  0  0
  -21.7819    9.7937  -14.0676 O   0  0  0  0  0  0  0  0  0  0  0  0
  -19.2378    8.9858  -13.6801 C   0  0  0  0  0  0  0  0  0  0  0  0
  -19.2648    9.7405  -12.3910 C   0  0  0  0  0  0  0  0  0  0  0  0
  -19.5357    8.2880  -12.3650 C   0  0  0  0  0  0  0  0  0  0  0  0
  -16.7455   11.6773  -20.0263 C   0  0  0  0  0  0  0  0  0  0  0  0
  -16.0704   10.4198  -19.6886 C   0  0  0  0  0  0  0  0  0  0  0  0
  -16.9770   10.4135  -20.8625 C   0  0  0  0  0  0  0  0  0  0  0  0
  -18.1145   13.8582  -20.8990 O   0  0  0  0  0  0  0  0  0  0  0  0
  -18.3937   14.4284  -22.0425 C   0  0  0  0  0  0  0  0  0  0  0  0
  -17.5188   14.4094  -23.2354 C   0  0  0  0  0  0  0  0  0  0  0  0
  -16.5700   13.2272  -23.2946 C   0  0  0  0  0  0  0  0  0  0  0  0
  -15.3400   13.7130  -24.0084 C   0  0  0  0  0  0  0  0  0  0  0  0
  -15.6483   14.2650  -25.3432 C   0  0  0  0  0  0  0  0  0  0  0  0
  -17.0238   14.6772  -25.6698 C   0  0  0  0  0  0  0  0  0  0  0  0
  -18.0559   14.6287  -24.5805 C   0  0  0  0  0  0  0  0  0  0  0  0
  -14.6450   15.3849  -25.7200 C   0  0  0  0  0  0  0  0  0  0  0  0
  -13.3623   15.0403  -25.4267 F   0  0  0  0  0  0  0  0  0  0  0  0
  -14.7103   15.6127  -27.0879 F   0  0  0  0  0  0  0  0  0  0  0  0
  -15.0019   16.5620  -25.1130 F   0  0  0  0  0  0  0  0  0  0  0  0
  8  9  2  0  0  0
  9 10  1  0  0  0
 10 12  1  0  0  0
 12 13  2  0  0  0
 12 14  2  0  0  0
 12 15  1  0  0  0
 15 16  1  0  0  0
 16 17  1  0  0  0
  9  1  1  0  0  0
  1  2  2  0  0  0
  2  3  1  0  0  0
  3 18  1  0  0  0
 18 19  1  0  0  0
 19 20  1  0  0  0
  3  4  2  0  0  0
  4 21  1  0  0  0
 21 22  1  0  0  0
 22 23  1  0  0  0
 23 24  1  0  0  0
 24 25  1  0  0  0
 25 26  1  0  0  0
 26 29  1  0  0  0
 29 30  1  0  0  0
 29 31  1  0  0  0
 29 32  1  0  0  0
 26 27  1  0  0  0
 27 28  1  0  0  0
  4  5  1  0  0  0
  5  6  2  0  0  0
  6  7  1  0  0  0
 17 15  1  0  0  0
  6  1  1  0  0  0
 20 18  1  0  0  0
 28 23  1  0  0  0
 10 11  1  0  0  0
M  END
> <minimizedAffinity>
-8.73706

> <CNNscore>
0.1901755631

> <CNNaffinity>
6.4606351852

> <CNN_VS>
1.2286549807

> <CNNaffinity_variance>
0.0590541363

$$$$
[H]c1c(F)c(C(=O)N([H])S(=O)(=O)C2([H])C([H])([H])C2([H])[H])c([H])c(C2([H])C([H])([H])C2([H])[H])c1OC([H])([H])C1([H])C([H])([H])C([H])([H])C([H])(C(F)(F)F)C([H])([H])C1([H])[H]


 32 35  0  0  0  0  0  0  0  0999 V2000
  -18.8467   11.7808  -18.4783 C   0  0  0  0  0  0  0  0  0  0  0  0
  -19.2359   12.8915  -19.2354 C   0  0  0  0  0  0  0  0  0  0  0  0
  -18.5828   13.3066  -20.3513 C   0  0  0  0  0  0  0  0  0  0  0  0
  -17.4350   12.6117  -20.8209 C   0  0  0  0  0  0  0  0  0  0  0  0
  -17.0664   11.5183  -20.0621 C   0  0  0  0  0  0  0  0  0  0  0  0
  -17.7539   11.1134  -18.9204 C   0  0  0  0  0  0  0  0  0  0  0  0
  -17.2986   10.0461  -18.2575 F   0  0  0  0  0  0  0  0  0  0  0  0
  -19.7521   10.2195  -16.9913 O   0  0  0  0  0  0  0  0  0  0  0  0
  -19.6540   11.4592  -17.3217 C   0  0  0  0  0  0  0  0  0  0  0  0
  -20.3531   12.3467  -16.5013 N   0  0  0  0  0  0  0  0  0  0  0  0
  -20.3435   13.3588  -16.6509 H   0  0  0  0  0  0  0  0  0  0  0  0
  -21.2733   11.7828  -15.1587 S   0  0  0  0  0  0  0  0  0  0  0  0
  -20.3637   11.1609  -14.1265 O   0  0  0  0  0  0  0  0  0  0  0  0
  -22.2662   10.7382  -15.5694 O   0  0  0  0  0  0  0  0  0  0  0  0
  -22.1386   13.1572  -14.3830 C   0  0  0  0  0  0  0  0  0  0  0  0
  -23.5742   12.9863  -14.0062 C   0  0  0  0  0  0  0  0  0  0  0  0
  -22.5467   12.8530  -12.9526 C   0  0  0  0  0  0  0  0  0  0  0  0
  -19.0054   14.5094  -21.1390 C   0  0  0  0  0  0  0  0  0  0  0  0
  -19.9067   15.5238  -20.5827 C   0  0  0  0  0  0  0  0  0  0  0  0
  -18.4557   15.8313  -20.5908 C   0  0  0  0  0  0  0  0  0  0  0  0
  -16.8418   13.0583  -21.9170 O   0  0  0  0  0  0  0  0  0  0  0  0
  -16.3447   12.7202  -23.0786 C   0  0  0  0  0  0  0  0  0  0  0  0
  -16.1322   13.6470  -24.2121 C   0  0  0  0  0  0  0  0  0  0  0  0
  -17.0701   14.8391  -24.2278 C   0  0  0  0  0  0  0  0  0  0  0  0
  -17.2798   15.1878  -25.6744 C   0  0  0  0  0  0  0  0  0  0  0  0
  -16.0077   15.4529  -26.3768 C   0  0  0  0  0  0  0  0  0  0  0  0
  -14.7379   14.9723  -25.8067 C   0  0  0  0  0  0  0  0  0  0  0  0
  -14.7929   14.1178  -24.5734 C   0  0  0  0  0  0  0  0  0  0  0  0
  -16.1127   15.0575  -27.8719 C   0  0  0  0  0  0  0  0  0  0  0  0
  -16.8042   13.8993  -28.0458 F   0  0  0  0  0  0  0  0  0  0  0  0
  -16.7932   16.0536  -28.5591 F   0  0  0  0  0  0  0  0  0  0  0  0
  -14.8617   14.9862  -28.4300 F   0  0  0  0  0  0  0  0  0  0  0  0
  8  9  2  0  0  0
  9 10  1  0  0  0
 10 12  1  0  0  0
 12 13  2  0  0  0
 12 14  2  0  0  0
 12 15  1  0  0  0
 15 16  1  0  0  0
 16 17  1  0  0  0
  9  1  1  0  0  0
  1  2  2  0  0  0
  2  3  1  0  0  0
  3 18  1  0  0  0
 18 19  1  0  0  0
 19 20  1  0  0  0
  3  4  2  0  0  0
  4 21  1  0  0  0
 21 22  1  0  0  0
 22 23  1  0  0  0
 23 24  1  0  0  0
 24 25  1  0  0  0
 25 26  1  0  0  0
 26 29  1  0  0  0
 29 30  1  0  0  0
 29 31  1  0  0  0
 29 32  1  0  0  0
 26 27  1  0  0  0
 27 28  1  0  0  0
  4  5  1  0  0  0
  5  6  2  0  0  0
  6  7  1  0  0  0
 17 15  1  0  0  0
  6  1  1  0  0  0
 20 18  1  0  0  0
 28 23  1  0  0  0
 10 11  1  0  0  0
M  END
> <minimizedAffinity>
-8.76491

> <CNNscore>
0.1839113981

> <CNNaffinity>
6.4711761475

> <CNN_VS>
1.1901230812

> <CNNaffinity_variance>
0.2199070156

$$$$
[H]c1c(F)c(C(=O)N([H])S(=O)(=O)C2([H])C([H])([H])C2([H])[H])c([H])c(C2([H])C([H])([H])C2([H])[H])c1OC([H])([H])C1([H])C([H])([H])C([H])([H])C([H])(C(F)(F)F)C([H])([H])C1([H])[H]


 32 35  0  0  0  0  0  0  0  0999 V2000
  -18.4964   11.0606  -18.4262 C   0  0  0  0  0  0  0  0  0  0  0  0
  -19.3799   12.1319  -18.5997 C   0  0  0  0  0  0  0  0  0  0  0  0
  -19.2101   13.1022  -19.5344 C   0  0  0  0  0  0  0  0  0  0  0  0
  -18.0910   13.0777  -20.4108 C   0  0  0  0  0  0  0  0  0  0  0  0
  -17.2308   12.0133  -20.2255 C   0  0  0  0  0  0  0  0  0  0  0  0
  -17.4279   11.0305  -19.2583 C   0  0  0  0  0  0  0  0  0  0  0  0
  -16.5223   10.0525  -19.1618 F   0  0  0  0  0  0  0  0  0  0  0  0
  -17.9425    9.2049  -17.1154 O   0  0  0  0  0  0  0  0  0  0  0  0
  -18.8229   10.1011  -17.3939 C   0  0  0  0  0  0  0  0  0  0  0  0
  -19.9992   10.0269  -16.6455 N   0  0  0  0  0  0  0  0  0  0  0  0
  -20.7693   10.6901  -16.7629 H   0  0  0  0  0  0  0  0  0  0  0  0
  -20.2197    8.8058  -15.4506 S   0  0  0  0  0  0  0  0  0  0  0  0
  -19.1677    8.9319  -14.3748 O   0  0  0  0  0  0  0  0  0  0  0  0
  -20.0998    7.4317  -16.0364 O   0  0  0  0  0  0  0  0  0  0  0  0
  -21.8339    8.9859  -14.6751 C   0  0  0  0  0  0  0  0  0  0  0  0
  -22.8847    9.7863  -15.3729 C   0  0  0  0  0  0  0  0  0  0  0  0
  -22.9382    8.3128  -15.4705 C   0  0  0  0  0  0  0  0  0  0  0  0
  -20.1590   14.2513  -19.6932 C   0  0  0  0  0  0  0  0  0  0  0  0
  -21.2177   14.5241  -18.7157 C   0  0  0  0  0  0  0  0  0  0  0  0
  -19.9859   15.3464  -18.6346 C   0  0  0  0  0  0  0  0  0  0  0  0
  -17.9796   14.0467  -21.3059 O   0  0  0  0  0  0  0  0  0  0  0  0
  -17.3134   15.1204  -21.6437 C   0  0  0  0  0  0  0  0  0  0  0  0
  -16.9259   15.4779  -23.0261 C   0  0  0  0  0  0  0  0  0  0  0  0
  -17.9059   15.0162  -24.0880 C   0  0  0  0  0  0  0  0  0  0  0  0
  -17.0894   14.7385  -25.3187 C   0  0  0  0  0  0  0  0  0  0  0  0
  -16.2988   15.9118  -25.7429 C   0  0  0  0  0  0  0  0  0  0  0  0
  -16.0350   17.0047  -24.7919 C   0  0  0  0  0  0  0  0  0  0  0  0
  -16.4874   16.8324  -23.3707 C   0  0  0  0  0  0  0  0  0  0  0  0
  -14.9841   15.4680  -26.4339 C   0  0  0  0  0  0  0  0  0  0  0  0
  -15.1789   15.1442  -27.7405 F   0  0  0  0  0  0  0  0  0  0  0  0
  -14.0749   16.5165  -26.3979 F   0  0  0  0  0  0  0  0  0  0  0  0
  -14.4114   14.4337  -25.7384 F   0  0  0  0  0  0  0  0  0  0  0  0
  8  9  2  0  0  0
  9 10  1  0  0  0
 10 12  1  0  0  0
 12 13  2  0  0  0
 12 14  2  0  0  0
 12 15  1  0  0  0
 15 16  1  0  0  0
 16 17  1  0  0  0
  9  1  1  0  0  0
  1  2  2  0  0  0
  2  3  1  0  0  0
  3 18  1  0  0  0
 18 19  1  0  0  0
 19 20  1  0  0  0
  3  4  2  0  0  0
  4 21  1  0  0  0
 21 22  1  0  0  0
 22 23  1  0  0  0
 23 24  1  0  0  0
 24 25  1  0  0  0
 25 26  1  0  0  0
 26 29  1  0  0  0
 29 30  1  0  0  0
 29 31  1  0  0  0
 29 32  1  0  0  0
 26 27  1  0  0  0
 27 28  1  0  0  0
  4  5  1  0  0  0
  5  6  2  0  0  0
  6  7  1  0  0  0
 17 15  1  0  0  0
  6  1  1  0  0  0
 20 18  1  0  0  0
 28 23  1  0  0  0
 10 11  1  0  0  0
M  END
> <minimizedAffinity>
-8.55505

> <CNNscore>
0.1802658588

> <CNNaffinity>
6.4645948410

> <CNN_VS>
1.1653457880

> <CNNaffinity_variance>
0.0846633911

$$$$
[H]OC(=O)C1=C([H])[C@@]([H])(O[C@@]([H])(C([H])([H])C([H])([H])[H])C([H])([H])C([H])([H])C([H])([H])C([H])([H])C([H])([H])C([H])([H])C([H])([H])[H])[C@]([H])(N([H])C(=O)C([H])([H])[H])[C@@]([H])(N([H])[H])C1([H])[H]


 29 29  0  0  0  0  0  0  0  0999 V2000
  -19.3287   11.2728  -17.6135 C   0  0  0  0  0  0  0  0  0  0  0  0
  -19.7518   11.2086  -16.1586 C   0  0  0  0  0  0  0  0  0  0  0  0
  -20.1953   10.0398  -15.6948 C   0  0  0  0  0  0  0  0  0  0  0  0
  -20.1787    8.9429  -16.7352 C   0  0  0  0  0  0  0  0  0  0  0  0
  -18.7395    8.8625  -17.1749 C   0  0  0  0  0  0  0  0  0  0  0  0
  -17.9114    8.3904  -16.0694 N   0  0  0  0  0  0  0  0  0  0  0  0
  -18.2690   10.1958  -17.6872 C   0  0  0  0  0  0  0  0  0  0  0  0
  -18.4974    8.0142  -15.2921 H   0  0  0  0  0  0  0  0  0  0  0  0
  -17.2872    7.6050  -16.4251 H   0  0  0  0  0  0  0  0  0  0  0  0
  -17.7632    9.9496  -19.0180 N   0  0  0  0  0  0  0  0  0  0  0  0
  -16.5137   10.4299  -19.4643 C   0  0  0  0  0  0  0  0  0  0  0  0
  -15.9874   10.1823  -20.8270 C   0  0  0  0  0  0  0  0  0  0  0  0
  -15.8092   11.1009  -18.6713 O   0  0  0  0  0  0  0  0  0  0  0  0
  -18.3540    9.3925  -19.6687 H   0  0  0  0  0  0  0  0  0  0  0  0
  -20.6414    9.7702  -14.3618 C   0  0  0  0  0  0  0  0  0  0  0  0
  -19.9277    9.1943  -13.4932 O   0  0  0  0  0  0  0  0  0  0  0  0
  -21.9322   10.1623  -13.9976 O   0  0  0  0  0  0  0  0  0  0  0  0
  -22.0372   10.5199  -13.0434 H   0  0  0  0  0  0  0  0  0  0  0  0
  -18.8755   12.5223  -17.8651 O   0  0  0  0  0  0  0  0  0  0  0  0
  -19.6665   13.3603  -18.6576 C   0  0  0  0  0  0  0  0  0  0  0  0
  -19.7615   14.7666  -18.2163 C   0  0  0  0  0  0  0  0  0  0  0  0
  -18.5039   15.1866  -17.4528 C   0  0  0  0  0  0  0  0  0  0  0  0
  -19.4200   13.2030  -20.0935 C   0  0  0  0  0  0  0  0  0  0  0  0
  -18.1112   13.3077  -20.7394 C   0  0  0  0  0  0  0  0  0  0  0  0
  -17.9577   14.3181  -21.7941 C   0  0  0  0  0  0  0  0  0  0  0  0
  -16.7050   13.9653  -22.6705 C   0  0  0  0  0  0  0  0  0  0  0  0
  -17.2178   12.9380  -23.6594 C   0  0  0  0  0  0  0  0  0  0  0  0
  -17.3737   12.7515  -26.0807 C   0  0  0  0  0  0  0  0  0  0  0  0
  -17.7793   13.5735  -24.8962 C   0  0  0  0  0  0  0  0  0  0  0  0
 28 29  1  0  0  0
 29 27  1  0  0  0
 27 26  1  0  0  0
 26 25  1  0  0  0
 25 24  1  0  0  0
 24 23  1  0  0  0
 23 20  1  0  0  0
 20 21  1  0  0  0
 21 22  1  0  0  0
 20 19  1  0  0  0
 19  1  1  0  0  0
  1  2  1  0  0  0
  2  3  2  0  0  0
  3 15  1  0  0  0
 15 16  2  0  0  0
 15 17  1  0  0  0
  3  4  1  0  0  0
  4  5  1  0  0  0
  5  6  1  0  0  0
  5  7  1  0  0  0
  7 10  1  0  0  0
 10 11  1  0  0  0
 11 12  1  0  0  0
 11 13  2  0  0  0
  7  1  1  0  0  0
 17 18  1  0  0  0
  6  8  1  0  0  0
  6  9  1  0  0  0
 10 14  1  0  0  0
M  END
> <minimizedAffinity>
-6.41698

> <CNNscore>
0.4382119775

> <CNNaffinity>
5.7930250168

> <CNN_VS>
2.5385730267

> <CNNaffinity_variance>
0.0643171594

$$$$
[H]OC(=O)C1=C([H])[C@@]([H])(O[C@@]([H])(C([H])([H])C([H])([H])[H])C([H])([H])C([H])([H])C([H])([H])C([H])([H])C([H])([H])C([H])([H])C([H])([H])[H])[C@]([H])(N([H])C(=O)C([H])([H])[H])[C@@]([H])(N([H])[H])C1([H])[H]


 29 29  0  0  0  0  0  0  0  0999 V2000
  -17.5972   14.8095  -22.4040 C   0  0  0  0  0  0  0  0  0  0  0  0
  -17.2788   13.9825  -21.1733 C   0  0  0  0  0  0  0  0  0  0  0  0
  -17.3149   12.6551  -21.2943 C   0  0  0  0  0  0  0  0  0  0  0  0
  -17.6611   12.1951  -22.6922 C   0  0  0  0  0  0  0  0  0  0  0  0
  -16.5973   12.8093  -23.5652 C   0  0  0  0  0  0  0  0  0  0  0  0
  -15.2994   12.2200  -23.2502 N   0  0  0  0  0  0  0  0  0  0  0  0
  -16.5793   14.3042  -23.4023 C   0  0  0  0  0  0  0  0  0  0  0  0
  -15.4051   11.3699  -22.6541 H   0  0  0  0  0  0  0  0  0  0  0  0
  -14.8287   11.9314  -24.1602 H   0  0  0  0  0  0  0  0  0  0  0  0
  -16.7313   14.8467  -24.7327 N   0  0  0  0  0  0  0  0  0  0  0  0
  -15.6516   14.9913  -25.6297 C   0  0  0  0  0  0  0  0  0  0  0  0
  -15.7984   15.5466  -26.9955 C   0  0  0  0  0  0  0  0  0  0  0  0
  -14.5078   14.6330  -25.2569 O   0  0  0  0  0  0  0  0  0  0  0  0
  -17.6829   15.1412  -25.0333 H   0  0  0  0  0  0  0  0  0  0  0  0
  -17.0500   11.7015  -20.2603 C   0  0  0  0  0  0  0  0  0  0  0  0
  -16.2739   10.7157  -20.4064 O   0  0  0  0  0  0  0  0  0  0  0  0
  -17.6799   11.8651  -19.0238 O   0  0  0  0  0  0  0  0  0  0  0  0
  -17.1155   11.6318  -18.2014 H   0  0  0  0  0  0  0  0  0  0  0  0
  -17.4626   16.1157  -22.0794 O   0  0  0  0  0  0  0  0  0  0  0  0
  -18.0022   16.5493  -20.8641 C   0  0  0  0  0  0  0  0  0  0  0  0
  -17.0335   17.0570  -19.8714 C   0  0  0  0  0  0  0  0  0  0  0  0
  -15.9400   17.8857  -20.5483 C   0  0  0  0  0  0  0  0  0  0  0  0
  -19.1877   17.3953  -21.0248 C   0  0  0  0  0  0  0  0  0  0  0  0
  -20.2737   17.1513  -21.9747 C   0  0  0  0  0  0  0  0  0  0  0  0
  -20.2186   17.8600  -23.2597 C   0  0  0  0  0  0  0  0  0  0  0  0
  -21.3278   18.9693  -23.2870 C   0  0  0  0  0  0  0  0  0  0  0  0
  -22.5819   18.2336  -23.7143 C   0  0  0  0  0  0  0  0  0  0  0  0
  -23.4332   17.2360  -25.7641 C   0  0  0  0  0  0  0  0  0  0  0  0
  -22.9393   18.5072  -25.1447 C   0  0  0  0  0  0  0  0  0  0  0  0
 28 29  1  0  0  0
 29 27  1  0  0  0
 27 26  1  0  0  0
 26 25  1  0  0  0
 25 24  1  0  0  0
 24 23  1  0  0  0
 23 20  1  0  0  0
 20 21  1  0  0  0
 21 22  1  0  0  0
 20 19  1  0  0  0
 19  1  1  0  0  0
  1  2  1  0  0  0
  2  3  2  0  0  0
  3 15  1  0  0  0
 15 16  2  0  0  0
 15 17  1  0  0  0
  3  4  1  0  0  0
  4  5  1  0  0  0
  5  6  1  0  0  0
  5  7  1  0  0  0
  7 10  1  0  0  0
 10 11  1  0  0  0
 11 12  1  0  0  0
 11 13  2  0  0  0
  7  1  1  0  0  0
 17 18  1  0  0  0
  6  8  1  0  0  0
  6  9  1  0  0  0
 10 14  1  0  0  0
M  END
> <minimizedAffinity>
-6.12632

> <CNNscore>
0.4056370258

> <CNNaffinity>
6.3085951805

> <CNN_VS>
2.5589997768

> <CNNaffinity_variance>
0.1576462239

$$$$
[H]OC(=O)C1=C([H])[C@@]([H])(O[C@@]([H])(C([H])([H])C([H])([H])[H])C([H])([H])C([H])([H])C([H])([H])C([H])([H])C([H])([H])C([H])([H])C([H])([H])[H])[C@]([H])(N([H])C(=O)C([H])([H])[H])[C@@]([H])(N([H])[H])C1([H])[H]


 29 29  0  0  0  0  0  0  0  0999 V2000
  -17.9879   15.6939  -20.5381 C   0  0  0  0  0  0  0  0  0  0  0  0
  -17.5862   16.1172  -21.9379 C   0  0  0  0  0  0  0  0  0  0  0  0
  -18.1332   17.2301  -22.4279 C   0  0  0  0  0  0  0  0  0  0  0  0
  -19.0760   17.9057  -21.4582 C   0  0  0  0  0  0  0  0  0  0  0  0
  -18.2299   18.1845  -20.2426 C   0  0  0  0  0  0  0  0  0  0  0  0
  -17.2047   19.1705  -20.5705 N   0  0  0  0  0  0  0  0  0  0  0  0
  -17.6245   16.9118  -19.7179 C   0  0  0  0  0  0  0  0  0  0  0  0
  -17.3966   19.6234  -21.4910 H   0  0  0  0  0  0  0  0  0  0  0  0
  -17.2095   19.9262  -19.8209 H   0  0  0  0  0  0  0  0  0  0  0  0
  -18.0173   16.8326  -18.3297 N   0  0  0  0  0  0  0  0  0  0  0  0
  -19.3613   16.7040  -17.9194 C   0  0  0  0  0  0  0  0  0  0  0  0
  -19.7729   16.6222  -16.4984 C   0  0  0  0  0  0  0  0  0  0  0  0
  -20.2564   16.6560  -18.7979 O   0  0  0  0  0  0  0  0  0  0  0  0
  -17.2686   16.8733  -17.6082 H   0  0  0  0  0  0  0  0  0  0  0  0
  -17.8904   17.7971  -23.7196 C   0  0  0  0  0  0  0  0  0  0  0  0
  -17.3299   17.1678  -24.6605 O   0  0  0  0  0  0  0  0  0  0  0  0
  -18.2923   19.1141  -23.9569 O   0  0  0  0  0  0  0  0  0  0  0  0
  -18.6684   19.3044  -24.8905 H   0  0  0  0  0  0  0  0  0  0  0  0
  -17.2933   14.5774  -20.2206 O   0  0  0  0  0  0  0  0  0  0  0  0
  -18.0157   13.4213  -19.9082 C   0  0  0  0  0  0  0  0  0  0  0  0
  -19.4787   13.5035  -20.0937 C   0  0  0  0  0  0  0  0  0  0  0  0
  -20.2141   13.1894  -18.7895 C   0  0  0  0  0  0  0  0  0  0  0  0
  -17.4156   12.1986  -20.4486 C   0  0  0  0  0  0  0  0  0  0  0  0
  -17.4270   11.8071  -21.8584 C   0  0  0  0  0  0  0  0  0  0  0  0
  -16.4952   12.4986  -22.7587 C   0  0  0  0  0  0  0  0  0  0  0  0
  -17.2747   13.0000  -24.0247 C   0  0  0  0  0  0  0  0  0  0  0  0
  -16.2499   13.8020  -24.8014 C   0  0  0  0  0  0  0  0  0  0  0  0
  -14.0878   14.9186  -24.8020 C   0  0  0  0  0  0  0  0  0  0  0  0
  -14.9787   13.9949  -24.0297 C   0  0  0  0  0  0  0  0  0  0  0  0
 28 29  1  0  0  0
 29 27  1  0  0  0
 27 26  1  0  0  0
 26 25  1  0  0  0
 25 24  1  0  0  0
 24 23  1  0  0  0
 23 20  1  0  0  0
 20 21  1  0  0  0
 21 22  1  0  0  0
 20 19  1  0  0  0
 19  1  1  0  0  0
  1  2  1  0  0  0
  2  3  2  0  0  0
  3 15  1  0  0  0
 15 16  2  0  0  0
 15 17  1  0  0  0
  3  4  1  0  0  0
  4  5  1  0  0  0
  5  6  1  0  0  0
  5  7  1  0  0  0
  7 10  1  0  0  0
 10 11  1  0  0  0
 11 12  1  0  0  0
 11 13  2  0  0  0
  7  1  1  0  0  0
 17 18  1  0  0  0
  6  8  1  0  0  0
  6  9  1  0  0  0
 10 14  1  0  0  0
M  END
> <minimizedAffinity>
-6.19382

> <CNNscore>
0.3617437780

> <CNNaffinity>
5.9062461853

> <CNN_VS>
2.1365478039

> <CNNaffinity_variance>
0.2927463651

$$$$
[H]OC(=O)C1=C([H])[C@@]([H])(O[C@@]([H])(C([H])([H])C([H])([H])[H])C([H])([H])C([H])([H])C([H])([H])C([H])([H])C([H])([H])C([H])([H])C([H])([H])[H])[C@]([H])(N([H])C(=O)C([H])([H])[H])[C@@]([H])(N([H])[H])C1([H])[H]


 29 29  0  0  0  0  0  0  0  0999 V2000
  -17.7594   13.5905  -21.1851 C   0  0  0  0  0  0  0  0  0  0  0  0
  -17.3757   12.1233  -21.1861 C   0  0  0  0  0  0  0  0  0  0  0  0
  -17.0204   11.5765  -20.0230 C   0  0  0  0  0  0  0  0  0  0  0  0
  -17.0839   12.5474  -18.8660 C   0  0  0  0  0  0  0  0  0  0  0  0
  -18.5145   13.0209  -18.8496 C   0  0  0  0  0  0  0  0  0  0  0  0
  -19.3975   11.9117  -18.5019 N   0  0  0  0  0  0  0  0  0  0  0  0
  -18.8849   13.6270  -20.1752 C   0  0  0  0  0  0  0  0  0  0  0  0
  -18.8557   11.0968  -18.1390 H   0  0  0  0  0  0  0  0  0  0  0  0
  -20.0630   12.2355  -17.7369 H   0  0  0  0  0  0  0  0  0  0  0  0
  -19.3743   14.9536  -19.8780 N   0  0  0  0  0  0  0  0  0  0  0  0
  -20.7273   15.2230  -19.5814 C   0  0  0  0  0  0  0  0  0  0  0  0
  -21.2376   16.5800  -19.2757 C   0  0  0  0  0  0  0  0  0  0  0  0
  -21.5431   14.2692  -19.5747 O   0  0  0  0  0  0  0  0  0  0  0  0
  -18.6910   15.7383  -19.8859 H   0  0  0  0  0  0  0  0  0  0  0  0
  -16.6242   10.2176  -19.8103 C   0  0  0  0  0  0  0  0  0  0  0  0
  -15.7670    9.6240  -20.5232 O   0  0  0  0  0  0  0  0  0  0  0  0
  -17.2132    9.5069  -18.7614 O   0  0  0  0  0  0  0  0  0  0  0  0
  -16.5951    8.8669  -18.2537 H   0  0  0  0  0  0  0  0  0  0  0  0
  -18.1241   13.9308  -22.4424 O   0  0  0  0  0  0  0  0  0  0  0  0
  -17.3411   13.4625  -23.5026 C   0  0  0  0  0  0  0  0  0  0  0  0
  -17.8818   13.6950  -24.8572 C   0  0  0  0  0  0  0  0  0  0  0  0
  -17.8376   12.4133  -25.6914 C   0  0  0  0  0  0  0  0  0  0  0  0
  -15.9203   13.7932  -23.3646 C   0  0  0  0  0  0  0  0  0  0  0  0
  -14.9682   13.8946  -24.4710 C   0  0  0  0  0  0  0  0  0  0  0  0
  -14.1755   15.1270  -24.5689 C   0  0  0  0  0  0  0  0  0  0  0  0
  -15.1036   16.3039  -25.0331 C   0  0  0  0  0  0  0  0  0  0  0  0
  -15.9199   15.7124  -26.1646 C   0  0  0  0  0  0  0  0  0  0  0  0
  -16.0282   15.6932  -28.5956 C   0  0  0  0  0  0  0  0  0  0  0  0
  -15.1137   15.5477  -27.4183 C   0  0  0  0  0  0  0  0  0  0  0  0
 28 29  1  0  0  0
 29 27  1  0  0  0
 27 26  1  0  0  0
 26 25  1  0  0  0
 25 24  1  0  0  0
 24 23  1  0  0  0
 23 20  1  0  0  0
 20 21  1  0  0  0
 21 22  1  0  0  0
 20 19  1  0  0  0
 19  1  1  0  0  0
  1  2  1  0  0  0
  2  3  2  0  0  0
  3 15  1  0  0  0
 15 16  2  0  0  0
 15 17  1  0  0  0
  3  4  1  0  0  0
  4  5  1  0  0  0
  5  6  1  0  0  0
  5  7  1  0  0  0
  7 10  1  0  0  0
 10 11  1  0  0  0
 11 12  1  0  0  0
 11 13  2  0  0  0
  7  1  1  0  0  0
 17 18  1  0  0  0
  6  8  1  0  0  0
  6  9  1  0  0  0
 10 14  1  0  0  0
M  END
> <minimizedAffinity>
-7.10545

> <CNNscore>
0.3586930633

> <CNNaffinity>
6.0157303810

> <CNN_VS>
2.1578006744

> <CNNaffinity_variance>
0.0619436987

$$$$
[H]OC(=O)C1=C([H])[C@@]([H])(O[C@@]([H])(C([H])([H])C([H])([H])[H])C([H])([H])C([H])([H])C([H])([H])C([H])([H])C([H])([H])C([H])([H])C([H])([H])[H])[C@]([H])(N([H])C(=O)C([H])([H])[H])[C@@]([H])(N([H])[H])C1([H])[H]


 29 29  0  0  0  0  0  0  0  0999 V2000
  -18.2485   12.9056  -19.6001 C   0  0  0  0  0  0  0  0  0  0  0  0
  -17.5865   12.0369  -20.6523 C   0  0  0  0  0  0  0  0  0  0  0  0
  -16.5965   11.2353  -20.2585 C   0  0  0  0  0  0  0  0  0  0  0  0
  -16.3131   11.3252  -18.7762 C   0  0  0  0  0  0  0  0  0  0  0  0
  -17.6211   10.9652  -18.1201 C   0  0  0  0  0  0  0  0  0  0  0  0
  -17.9411    9.5671  -18.3913 N   0  0  0  0  0  0  0  0  0  0  0  0
  -18.7164   11.8833  -18.5882 C   0  0  0  0  0  0  0  0  0  0  0  0
  -17.1199    9.0623  -18.7915 H   0  0  0  0  0  0  0  0  0  0  0  0
  -18.2061    9.0962  -17.4743 H   0  0  0  0  0  0  0  0  0  0  0  0
  -19.2914   12.4520  -17.3909 N   0  0  0  0  0  0  0  0  0  0  0  0
  -20.1669   11.7368  -16.5464 C   0  0  0  0  0  0  0  0  0  0  0  0
  -20.7610   12.3121  -15.3171 C   0  0  0  0  0  0  0  0  0  0  0  0
  -20.4600   10.5540  -16.8471 O   0  0  0  0  0  0  0  0  0  0  0  0
  -19.0430   13.4332  -17.1494 H   0  0  0  0  0  0  0  0  0  0  0  0
  -15.8454   10.3437  -21.0891 C   0  0  0  0  0  0  0  0  0  0  0  0
  -15.9150    9.0858  -20.9993 O   0  0  0  0  0  0  0  0  0  0  0  0
  -14.9898   10.8882  -22.0503 O   0  0  0  0  0  0  0  0  0  0  0  0
  -14.9441   10.3865  -22.9422 H   0  0  0  0  0  0  0  0  0  0  0  0
  -19.2445   13.6013  -20.1948 O   0  0  0  0  0  0  0  0  0  0  0  0
  -19.1575   14.9972  -20.2010 C   0  0  0  0  0  0  0  0  0  0  0  0
  -18.2762   15.5943  -19.1771 C   0  0  0  0  0  0  0  0  0  0  0  0
  -19.0869   16.0837  -17.9755 C   0  0  0  0  0  0  0  0  0  0  0  0
  -18.9789   15.5613  -21.5415 C   0  0  0  0  0  0  0  0  0  0  0  0
  -18.0987   15.0145  -22.5746 C   0  0  0  0  0  0  0  0  0  0  0  0
  -16.6522   15.0681  -22.3268 C   0  0  0  0  0  0  0  0  0  0  0  0
  -15.8886   14.9610  -23.6933 C   0  0  0  0  0  0  0  0  0  0  0  0
  -16.1919   13.5591  -24.1823 C   0  0  0  0  0  0  0  0  0  0  0  0
  -17.8272   12.5760  -25.6927 C   0  0  0  0  0  0  0  0  0  0  0  0
  -16.6921   13.5484  -25.5960 C   0  0  0  0  0  0  0  0  0  0  0  0
 28 29  1  0  0  0
 29 27  1  0  0  0
 27 26  1  0  0  0
 26 25  1  0  0  0
 25 24  1  0  0  0
 24 23  1  0  0  0
 23 20  1  0  0  0
 20 21  1  0  0  0
 21 22  1  0  0  0
 20 19  1  0  0  0
 19  1  1  0  0  0
  1  2  1  0  0  0
  2  3  2  0  0  0
  3 15  1  0  0  0
 15 16  2  0  0  0
 15 17  1  0  0  0
  3  4  1  0  0  0
  4  5  1  0  0  0
  5  6  1  0  0  0
  5  7  1  0  0  0
  7 10  1  0  0  0
 10 11  1  0  0  0
 11 12  1  0  0  0
 11 13  2  0  0  0
  7  1  1  0  0  0
 17 18  1  0  0  0
  6  8  1  0  0  0
  6  9  1  0  0  0
 10 14  1  0  0  0
M  END
> <minimizedAffinity>
-6.18336

> <CNNscore>
0.3445048034

> <CNNaffinity>
6.0729460716

> <CNN_VS>
2.0921590328

> <CNNaffinity_variance>
0.1337794811

$$$$
[H]OC(=O)C1=C([H])[C@@]([H])(O[C@@]([H])(C([H])([H])C([H])([H])[H])C([H])([H])C([H])([H])C([H])([H])C([H])([H])C([H])([H])C([H])([H])C([H])([H])[H])[C@]([H])(N([H])C(=O)C([H])([H])[H])[C@@]([H])(N([H])[H])C1([H])[H]


 29 29  0  0  0  0  0  0  0  0999 V2000
  -17.9923   13.5340  -20.4499 C   0  0  0  0  0  0  0  0  0  0  0  0
  -17.3423   12.3073  -21.0604 C   0  0  0  0  0  0  0  0  0  0  0  0
  -16.6984   11.4763  -20.2402 C   0  0  0  0  0  0  0  0  0  0  0  0
  -16.7493   11.9115  -18.7933 C   0  0  0  0  0  0  0  0  0  0  0  0
  -18.2201   11.9871  -18.4741 C   0  0  0  0  0  0  0  0  0  0  0  0
  -18.8044   10.6501  -18.5199 N   0  0  0  0  0  0  0  0  0  0  0  0
  -18.9173   12.9272  -19.4184 C   0  0  0  0  0  0  0  0  0  0  0  0
  -18.0641    9.9152  -18.5533 H   0  0  0  0  0  0  0  0  0  0  0  0
  -19.3805   10.5018  -17.6372 H   0  0  0  0  0  0  0  0  0  0  0  0
  -19.5928   13.8939  -18.5835 N   0  0  0  0  0  0  0  0  0  0  0  0
  -20.8848   14.3840  -18.8695 C   0  0  0  0  0  0  0  0  0  0  0  0
  -21.5846   15.3752  -18.0191 C   0  0  0  0  0  0  0  0  0  0  0  0
  -21.4748   13.9624  -19.8939 O   0  0  0  0  0  0  0  0  0  0  0  0
  -19.0960   14.2380  -17.7364 H   0  0  0  0  0  0  0  0  0  0  0  0
  -16.0209   10.2718  -20.6133 C   0  0  0  0  0  0  0  0  0  0  0  0
  -16.3099    9.1369  -20.1402 O   0  0  0  0  0  0  0  0  0  0  0  0
  -14.9860   10.3504  -21.5488 O   0  0  0  0  0  0  0  0  0  0  0  0
  -14.9275    9.5749  -22.2155 H   0  0  0  0  0  0  0  0  0  0  0  0
  -18.6220   14.2116  -21.4369 O   0  0  0  0  0  0  0  0  0  0  0  0
  -18.1798   15.5057  -21.7304 C   0  0  0  0  0  0  0  0  0  0  0  0
  -16.7691   15.7963  -21.4038 C   0  0  0  0  0  0  0  0  0  0  0  0
  -16.5412   17.3016  -21.2530 C   0  0  0  0  0  0  0  0  0  0  0  0
  -18.5914   15.9723  -23.0571 C   0  0  0  0  0  0  0  0  0  0  0  0
  -17.9186   15.6387  -24.3129 C   0  0  0  0  0  0  0  0  0  0  0  0
  -17.9280   14.2308  -24.7307 C   0  0  0  0  0  0  0  0  0  0  0  0
  -16.5109   13.8452  -25.2827 C   0  0  0  0  0  0  0  0  0  0  0  0
  -15.7267   13.4415  -24.0503 C   0  0  0  0  0  0  0  0  0  0  0  0
  -14.1136   14.8812  -25.1669 C   0  0  0  0  0  0  0  0  0  0  0  0
  -14.5121   14.2971  -23.8466 C   0  0  0  0  0  0  0  0  0  0  0  0
 28 29  1  0  0  0
 29 27  1  0  0  0
 27 26  1  0  0  0
 26 25  1  0  0  0
 25 24  1  0  0  0
 24 23  1  0  0  0
 23 20  1  0  0  0
 20 21  1  0  0  0
 21 22  1  0  0  0
 20 19  1  0  0  0
 19  1  1  0  0  0
  1  2  1  0  0  0
  2  3  2  0  0  0
  3 15  1  0  0  0
 15 16  2  0  0  0
 15 17  1  0  0  0
  3  4  1  0  0  0
  4  5  1  0  0  0
  5  6  1  0  0  0
  5  7  1  0  0  0
  7 10  1  0  0  0
 10 11  1  0  0  0
 11 12  1  0  0  0
 11 13  2  0  0  0
  7  1  1  0  0  0
 17 18  1  0  0  0
  6  8  1  0  0  0
  6  9  1  0  0  0
 10 14  1  0  0  0
M  END
> <minimizedAffinity>
-6.65103

> <CNNscore>
0.3161811531

> <CNNaffinity>
5.7704534531

> <CNN_VS>
1.8245086670

> <CNNaffinity_variance>
0.1724968851

$$$$
[H]OC(=O)C1=C([H])[C@@]([H])(O[C@@]([H])(C([H])([H])C([H])([H])[H])C([H])([H])C([H])([H])C([H])([H])C([H])([H])C([H])([H])C([H])([H])C([H])([H])[H])[C@]([H])(N([H])C(=O)C([H])([H])[H])[C@@]([H])(N([H])[H])C1([H])[H]


 29 29  0  0  0  0  0  0  0  0999 V2000
  -18.7909   14.4332  -20.6207 C   0  0  0  0  0  0  0  0  0  0  0  0
  -17.6051   15.2692  -21.0622 C   0  0  0  0  0  0  0  0  0  0  0  0
  -17.6000   16.5598  -20.7275 C   0  0  0  0  0  0  0  0  0  0  0  0
  -18.8121   16.9697  -19.9223 C   0  0  0  0  0  0  0  0  0  0  0  0
  -18.7788   16.0755  -18.7098 C   0  0  0  0  0  0  0  0  0  0  0  0
  -17.6149   16.3984  -17.8901 N   0  0  0  0  0  0  0  0  0  0  0  0
  -18.7807   14.6289  -19.1208 C   0  0  0  0  0  0  0  0  0  0  0  0
  -17.1773   17.2964  -18.1924 H   0  0  0  0  0  0  0  0  0  0  0  0
  -17.9317   16.5067  -16.8797 H   0  0  0  0  0  0  0  0  0  0  0  0
  -19.9007   14.0266  -18.4350 N   0  0  0  0  0  0  0  0  0  0  0  0
  -19.8053   13.4942  -17.1316 C   0  0  0  0  0  0  0  0  0  0  0  0
  -20.9485   12.8748  -16.4211 C   0  0  0  0  0  0  0  0  0  0  0  0
  -18.6993   13.5455  -16.5404 O   0  0  0  0  0  0  0  0  0  0  0  0
  -20.8137   13.9882  -18.9327 H   0  0  0  0  0  0  0  0  0  0  0  0
  -16.5825   17.5148  -21.0462 C   0  0  0  0  0  0  0  0  0  0  0  0
  -15.8900   17.4664  -22.1015 O   0  0  0  0  0  0  0  0  0  0  0  0
  -16.3390   18.5562  -20.1469 O   0  0  0  0  0  0  0  0  0  0  0  0
  -16.1222   19.4656  -20.5656 H   0  0  0  0  0  0  0  0  0  0  0  0
  -18.5791   13.1584  -21.0205 O   0  0  0  0  0  0  0  0  0  0  0  0
  -17.2881   12.6359  -20.8916 C   0  0  0  0  0  0  0  0  0  0  0  0
  -17.1124   11.5946  -19.8590 C   0  0  0  0  0  0  0  0  0  0  0  0
  -16.6106   10.2888  -20.4784 C   0  0  0  0  0  0  0  0  0  0  0  0
  -16.6632   12.3106  -22.1765 C   0  0  0  0  0  0  0  0  0  0  0  0
  -17.2192   12.6377  -23.4898 C   0  0  0  0  0  0  0  0  0  0  0  0
  -16.5798   13.7249  -24.2420 C   0  0  0  0  0  0  0  0  0  0  0  0
  -15.1474   13.9862  -23.6574 C   0  0  0  0  0  0  0  0  0  0  0  0
  -14.3575   14.5284  -24.8315 C   0  0  0  0  0  0  0  0  0  0  0  0
  -15.0040   15.6510  -26.8915 C   0  0  0  0  0  0  0  0  0  0  0  0
  -14.9699   15.7740  -25.3992 C   0  0  0  0  0  0  0  0  0  0  0  0
 28 29  1  0  0  0
 29 27  1  0  0  0
 27 26  1  0  0  0
 26 25  1  0  0  0
 25 24  1  0  0  0
 24 23  1  0  0  0
 23 20  1  0  0  0
 20 21  1  0  0  0
 21 22  1  0  0  0
 20 19  1  0  0  0
 19  1  1  0  0  0
  1  2  1  0  0  0
  2  3  2  0  0  0
  3 15  1  0  0  0
 15 16  2  0  0  0
 15 17  1  0  0  0
  3  4  1  0  0  0
  4  5  1  0  0  0
  5  6  1  0  0  0
  5  7  1  0  0  0
  7 10  1  0  0  0
 10 11  1  0  0  0
 11 12  1  0  0  0
 11 13  2  0  0  0
  7  1  1  0  0  0
 17 18  1  0  0  0
  6  8  1  0  0  0
  6  9  1  0  0  0
 10 14  1  0  0  0
M  END
> <minimizedAffinity>
-6.62326

> <CNNscore>
0.3028025925

> <CNNaffinity>
5.9811425209

> <CNN_VS>
1.8111054897

> <CNNaffinity_variance>
0.1010633484

$$$$
[H]OC(=O)C1=C([H])[C@@]([H])(O[C@@]([H])(C([H])([H])C([H])([H])[H])C([H])([H])C([H])([H])C([H])([H])C([H])([H])C([H])([H])C([H])([H])C([H])([H])[H])[C@]([H])(N([H])C(=O)C([H])([H])[H])[C@@]([H])(N([H])[H])C1([H])[H]


 29 29  0  0  0  0  0  0  0  0999 V2000
  -18.9225   15.3029  -19.1768 C   0  0  0  0  0  0  0  0  0  0  0  0
  -19.6644   14.0066  -18.9138 C   0  0  0  0  0  0  0  0  0  0  0  0
  -19.5659   13.4743  -17.6952 C   0  0  0  0  0  0  0  0  0  0  0  0
  -18.7167   14.2980  -16.7539 C   0  0  0  0  0  0  0  0  0  0  0  0
  -19.3874   15.6472  -16.7244 C   0  0  0  0  0  0  0  0  0  0  0  0
  -20.7002   15.5321  -16.0964 N   0  0  0  0  0  0  0  0  0  0  0  0
  -19.4873   16.2173  -18.1124 C   0  0  0  0  0  0  0  0  0  0  0  0
  -20.8116   14.6101  -15.6201 H   0  0  0  0  0  0  0  0  0  0  0  0
  -20.7933   16.2982  -15.3634 H   0  0  0  0  0  0  0  0  0  0  0  0
  -18.8584   17.5166  -18.0500 N   0  0  0  0  0  0  0  0  0  0  0  0
  -19.4654   18.6872  -18.5525 C   0  0  0  0  0  0  0  0  0  0  0  0
  -18.8278   20.0232  -18.4928 C   0  0  0  0  0  0  0  0  0  0  0  0
  -20.6022   18.5975  -19.0770 O   0  0  0  0  0  0  0  0  0  0  0  0
  -17.9159   17.5816  -17.6136 H   0  0  0  0  0  0  0  0  0  0  0  0
  -20.1829   12.2634  -17.2460 C   0  0  0  0  0  0  0  0  0  0  0  0
  -19.6826   11.1185  -17.4308 O   0  0  0  0  0  0  0  0  0  0  0  0
  -21.4016   12.3470  -16.5675 O   0  0  0  0  0  0  0  0  0  0  0  0
  -21.5268   11.6887  -15.7927 H   0  0  0  0  0  0  0  0  0  0  0  0
  -19.1880   15.6896  -20.4455 O   0  0  0  0  0  0  0  0  0  0  0  0
  -18.1130   15.8199  -21.3308 C   0  0  0  0  0  0  0  0  0  0  0  0
  -16.8085   16.1459  -20.7197 C   0  0  0  0  0  0  0  0  0  0  0  0
  -16.4955   17.6368  -20.8609 C   0  0  0  0  0  0  0  0  0  0  0  0
  -18.0511   14.7495  -22.3295 C   0  0  0  0  0  0  0  0  0  0  0  0
  -16.8671   13.9426  -22.6263 C   0  0  0  0  0  0  0  0  0  0  0  0
  -17.0507   12.4898  -22.7379 C   0  0  0  0  0  0  0  0  0  0  0  0
  -17.4016   11.9024  -21.3260 C   0  0  0  0  0  0  0  0  0  0  0  0
  -16.4655   10.7210  -21.1693 C   0  0  0  0  0  0  0  0  0  0  0  0
  -16.6920   11.5379  -18.8883 C   0  0  0  0  0  0  0  0  0  0  0  0
  -16.1860   10.4070  -19.7299 C   0  0  0  0  0  0  0  0  0  0  0  0
 28 29  1  0  0  0
 29 27  1  0  0  0
 27 26  1  0  0  0
 26 25  1  0  0  0
 25 24  1  0  0  0
 24 23  1  0  0  0
 23 20  1  0  0  0
 20 21  1  0  0  0
 21 22  1  0  0  0
 20 19  1  0  0  0
 19  1  1  0  0  0
  1  2  1  0  0  0
  2  3  2  0  0  0
  3 15  1  0  0  0
 15 16  2  0  0  0
 15 17  1  0  0  0
  3  4  1  0  0  0
  4  5  1  0  0  0
  5  6  1  0  0  0
  5  7  1  0  0  0
  7 10  1  0  0  0
 10 11  1  0  0  0
 11 12  1  0  0  0
 11 13  2  0  0  0
  7  1  1  0  0  0
 17 18  1  0  0  0
  6  8  1  0  0  0
  6  9  1  0  0  0
 10 14  1  0  0  0
M  END
> <minimizedAffinity>
-5.86691

> <CNNscore>
0.3023894131

> <CNNaffinity>
5.4493279457

> <CNN_VS>
1.6478190422

> <CNNaffinity_variance>
0.1886309534

$$$$
[H]OC(=O)C1=C([H])[C@@]([H])(O[C@@]([H])(C([H])([H])C([H])([H])[H])C([H])([H])C([H])([H])C([H])([H])C([H])([H])C([H])([H])C([H])([H])C([H])([H])[H])[C@]([H])(N([H])C(=O)C([H])([H])[H])[C@@]([H])(N([H])[H])C1([H])[H]


 29 29  0  0  0  0  0  0  0  0999 V2000
  -18.0962   14.8233  -20.6403 C   0  0  0  0  0  0  0  0  0  0  0  0
  -18.5623   14.5045  -19.2328 C   0  0  0  0  0  0  0  0  0  0  0  0
  -18.5315   15.4887  -18.3337 C   0  0  0  0  0  0  0  0  0  0  0  0
  -18.0373   16.7989  -18.9036 C   0  0  0  0  0  0  0  0  0  0  0  0
  -18.9878   17.1006  -20.0335 C   0  0  0  0  0  0  0  0  0  0  0  0
  -20.3209   17.3635  -19.5001 N   0  0  0  0  0  0  0  0  0  0  0  0
  -19.0028   15.9710  -21.0262 C   0  0  0  0  0  0  0  0  0  0  0  0
  -20.2947   17.4942  -18.4650 H   0  0  0  0  0  0  0  0  0  0  0  0
  -20.6906   18.2599  -19.9391 H   0  0  0  0  0  0  0  0  0  0  0  0
  -18.6950   16.5676  -22.3056 N   0  0  0  0  0  0  0  0  0  0  0  0
  -17.3829   16.9099  -22.6961 C   0  0  0  0  0  0  0  0  0  0  0  0
  -17.0583   17.5220  -24.0057 C   0  0  0  0  0  0  0  0  0  0  0  0
  -16.4403   16.6866  -21.8979 O   0  0  0  0  0  0  0  0  0  0  0  0
  -19.4826   16.7493  -22.9609 H   0  0  0  0  0  0  0  0  0  0  0  0
  -18.9242   15.3957  -16.9604 C   0  0  0  0  0  0  0  0  0  0  0  0
  -19.6765   16.2377  -16.3943 O   0  0  0  0  0  0  0  0  0  0  0  0
  -18.4537   14.3200  -16.2029 O   0  0  0  0  0  0  0  0  0  0  0  0
  -19.1165   13.9253  -15.5289 H   0  0  0  0  0  0  0  0  0  0  0  0
  -18.2480   13.7115  -21.3956 O   0  0  0  0  0  0  0  0  0  0  0  0
  -17.1406   12.8732  -21.5600 C   0  0  0  0  0  0  0  0  0  0  0  0
  -17.4038   11.4245  -21.4440 C   0  0  0  0  0  0  0  0  0  0  0  0
  -17.1842   10.9418  -20.0090 C   0  0  0  0  0  0  0  0  0  0  0  0
  -16.3040   13.2356  -22.7072 C   0  0  0  0  0  0  0  0  0  0  0  0
  -16.6171   12.9373  -24.1051 C   0  0  0  0  0  0  0  0  0  0  0  0
  -17.7072   13.6975  -24.7299 C   0  0  0  0  0  0  0  0  0  0  0  0
  -17.1936   14.3335  -26.0690 C   0  0  0  0  0  0  0  0  0  0  0  0
  -15.7283   14.6198  -25.8091 C   0  0  0  0  0  0  0  0  0  0  0  0
  -15.9114   15.4566  -28.0869 C   0  0  0  0  0  0  0  0  0  0  0  0
  -15.1562   15.5890  -26.8002 C   0  0  0  0  0  0  0  0  0  0  0  0
 28 29  1  0  0  0
 29 27  1  0  0  0
 27 26  1  0  0  0
 26 25  1  0  0  0
 25 24  1  0  0  0
 24 23  1  0  0  0
 23 20  1  0  0  0
 20 21  1  0  0  0
 21 22  1  0  0  0
 20 19  1  0  0  0
 19  1  1  0  0  0
  1  2  1  0  0  0
  2  3  2  0  0  0
  3 15  1  0  0  0
 15 16  2  0  0  0
 15 17  1  0  0  0
  3  4  1  0  0  0
  4  5  1  0  0  0
  5  6  1  0  0  0
  5  7  1  0  0  0
  7 10  1  0  0  0
 10 11  1  0  0  0
 11 12  1  0  0  0
 11 13  2  0  0  0
  7  1  1  0  0  0
 17 18  1  0  0  0
  6  8  1  0  0  0
  6  9  1  0  0  0
 10 14  1  0  0  0
M  END
> <minimizedAffinity>
-6.45775

> <CNNscore>
0.2855956256

> <CNNaffinity>
5.8138184547

> <CNN_VS>
1.6604011059

> <CNNaffinity_variance>
0.1853981912

$$$$
[H]c1c([H])c(-c2c([H])c([H])c(C([H])(C(=O)N([H])C([H])([H])C([H])([H])C([H])([H])C([H])([H])C([H])([H])C([H])([H])N([H])c3c4c(nc5c([H])c([H])c([H])c([H])c35)C([H])([H])C([H])([H])C([H])([H])C4([H])[H])C([H])([H])[H])c([H])c2F)c([H])c([H])c1OC([H])([H])C([H])([H])C([H])([H])C([H])([H])C([H])([H])C([H])([H])O[N+](=O)[O-]


 52 56  0  0  0  0  0  0  0  0999 V2000
  -17.3959   12.9469  -24.5265 C   0  0  0  0  0  0  0  0  0  0  0  0
  -16.5707   13.5199  -23.3782 C   0  0  0  0  0  0  0  0  0  0  0  0
  -17.0578   12.8917  -22.1349 C   0  0  0  0  0  0  0  0  0  0  0  0
  -18.1140   13.4602  -21.4627 C   0  0  0  0  0  0  0  0  0  0  0  0
  -18.6018   12.9161  -20.2736 C   0  0  0  0  0  0  0  0  0  0  0  0
  -18.0180   11.7968  -19.7685 C   0  0  0  0  0  0  0  0  0  0  0  0
  -16.9618   11.2129  -20.4241 C   0  0  0  0  0  0  0  0  0  0  0  0
  -16.3651   10.1015  -19.9314 F   0  0  0  0  0  0  0  0  0  0  0  0
  -16.4782   11.7659  -21.6176 C   0  0  0  0  0  0  0  0  0  0  0  0
  -18.5079   11.2059  -18.5369 C   0  0  0  0  0  0  0  0  0  0  0  0
  -19.3045   11.9054  -17.6584 C   0  0  0  0  0  0  0  0  0  0  0  0
  -19.7683   11.3095  -16.4812 C   0  0  0  0  0  0  0  0  0  0  0  0
  -19.4630   10.0154  -16.1355 C   0  0  0  0  0  0  0  0  0  0  0  0
  -18.6473    9.3127  -17.0458 C   0  0  0  0  0  0  0  0  0  0  0  0
  -18.2027    9.9090  -18.1916 C   0  0  0  0  0  0  0  0  0  0  0  0
  -19.8713    9.3603  -15.0017 O   0  0  0  0  0  0  0  0  0  0  0  0
  -19.1230    9.1155  -13.8535 C   0  0  0  0  0  0  0  0  0  0  0  0
  -19.5650    7.8435  -13.2035 C   0  0  0  0  0  0  0  0  0  0  0  0
  -19.4083    7.9299  -11.7139 C   0  0  0  0  0  0  0  0  0  0  0  0
  -19.1226    9.3310  -11.2950 C   0  0  0  0  0  0  0  0  0  0  0  0
  -18.8994    9.4764   -9.8114 C   0  0  0  0  0  0  0  0  0  0  0  0
  -17.5742   10.1361   -9.5623 C   0  0  0  0  0  0  0  0  0  0  0  0
  -16.5386    9.1684   -9.8089 O   0  0  0  0  0  0  0  0  0  0  0  0
  -16.4075    8.1718   -8.8723 N   0  0  0  0  0  0  0  0  0  0  0  0
  -16.4859    6.9645   -9.1662 O   0  0  0  0  0  0  0  0  0  0  0  0
  -16.1819    8.5863   -7.5729 O   0  0  0  0  0  0  0  0  0  0  0  0
  -16.5393   14.9809  -23.3782 C   0  0  0  0  0  0  0  0  0  0  0  0
  -15.7307   15.6076  -22.6063 O   0  0  0  0  0  0  0  0  0  0  0  0
  -17.3548   15.8031  -24.1891 N   0  0  0  0  0  0  0  0  0  0  0  0
  -18.0272   15.3386  -24.8333 H   0  0  0  0  0  0  0  0  0  0  0  0
  -17.3090   17.2399  -24.1806 C   0  0  0  0  0  0  0  0  0  0  0  0
  -18.4778   17.8503  -23.4453 C   0  0  0  0  0  0  0  0  0  0  0  0
  -18.0210   18.3721  -22.0974 C   0  0  0  0  0  0  0  0  0  0  0  0
  -18.6231   19.7697  -21.9394 C   0  0  0  0  0  0  0  0  0  0  0  0
  -19.6233   20.0479  -22.9954 C   0  0  0  0  0  0  0  0  0  0  0  0
  -20.9351   20.5207  -22.5315 C   0  0  0  0  0  0  0  0  0  0  0  0
  -21.7555   21.2285  -23.4193 N   0  0  0  0  0  0  0  0  0  0  0  0
  -22.5062   21.8645  -22.9533 H   0  0  0  0  0  0  0  0  0  0  0  0
  -21.8082   21.2844  -24.8133 C   0  0  0  0  0  0  0  0  0  0  0  0
  -21.2009   22.3313  -25.4778 C   0  0  0  0  0  0  0  0  0  0  0  0
  -21.2129   22.3598  -26.8527 C   0  0  0  0  0  0  0  0  0  0  0  0
  -21.8244   21.3511  -27.5368 N   0  0  0  0  0  0  0  0  0  0  0  0
  -22.4245   20.3166  -26.9298 C   0  0  0  0  0  0  0  0  0  0  0  0
  -23.0311   19.3099  -27.6420 C   0  0  0  0  0  0  0  0  0  0  0  0
  -23.6351   18.2602  -27.0099 C   0  0  0  0  0  0  0  0  0  0  0  0
  -23.6227   18.2328  -25.6309 C   0  0  0  0  0  0  0  0  0  0  0  0
  -23.0271   19.2205  -24.9014 C   0  0  0  0  0  0  0  0  0  0  0  0
  -22.4171   20.2813  -25.5512 C   0  0  0  0  0  0  0  0  0  0  0  0
  -20.5791   23.4771  -27.5608 C   0  0  0  0  0  0  0  0  0  0  0  0
  -19.4313   24.1193  -26.8628 C   0  0  0  0  0  0  0  0  0  0  0  0
  -19.1712   23.6116  -25.4720 C   0  0  0  0  0  0  0  0  0  0  0  0
  -20.5153   23.4339  -24.7609 C   0  0  0  0  0  0  0  0  0  0  0  0
  1  2  1  0  0  0
  2 27  1  0  0  0
 27 28  2  0  0  0
 27 29  1  0  0  0
 29 31  1  0  0  0
 31 32  1  0  0  0
 32 33  1  0  0  0
 33 34  1  0  0  0
 34 35  1  0  0  0
 35 36  1  0  0  0
 36 37  1  0  0  0
 37 39  1  0  0  0
 39 40  2  0  0  0
 40 41  1  0  0  0
 41 42  2  0  0  0
 42 43  1  0  0  0
 43 44  2  0  0  0
 44 45  1  0  0  0
 45 46  2  0  0  0
 46 47  1  0  0  0
 47 48  2  0  0  0
 41 49  1  0  0  0
 49 50  1  0  0  0
 50 51  1  0  0  0
 51 52  1  0  0  0
  2  3  1  0  0  0
  3  4  2  0  0  0
  4  5  1  0  0  0
  5  6  2  0  0  0
  6 10  1  0  0  0
 10 11  2  0  0  0
 11 12  1  0  0  0
 12 13  2  0  0  0
 13 16  1  0  0  0
 16 17  1  0  0  0
 17 18  1  0  0  0
 18 19  1  0  0  0
 19 20  1  0  0  0
 20 21  1  0  0  0
 21 22  1  0  0  0
 22 23  1  0  0  0
 23 24  1  0  0  0
 24 25  2  0  0  0
 24 26  1  0  0  0
 13 14  1  0  0  0
 14 15  2  0  0  0
  6  7  1  0  0  0
  7  8  1  0  0  0
  7  9  2  0  0  0
 48 39  1  0  0  0
  9  3  1  0  0  0
 52 40  1  0  0  0
 15 10  1  0  0  0
 48 43  1  0  0  0
 29 30  1  0  0  0
 37 38  1  0  0  0
M  CHG 1  24   1
M  CHG 1  26  -1
M  END
> <minimizedAffinity>
-8.73578

> <CNNscore>
0.3591791093

> <CNNaffinity>
6.8672952652

> <CNN_VS>
2.4665889740

> <CNNaffinity_variance>
0.1829031408

$$$$
[H]c1c([H])c(-c2c([H])c([H])c(C([H])(C(=O)N([H])C([H])([H])C([H])([H])C([H])([H])C([H])([H])C([H])([H])C([H])([H])N([H])c3c4c(nc5c([H])c([H])c([H])c([H])c35)C([H])([H])C([H])([H])C([H])([H])C4([H])[H])C([H])([H])[H])c([H])c2F)c([H])c([H])c1OC([H])([H])C([H])([H])C([H])([H])C([H])([H])C([H])([H])C([H])([H])O[N+](=O)[O-]


 52 56  0  0  0  0  0  0  0  0999 V2000
  -17.0610   13.3328  -24.2522 C   0  0  0  0  0  0  0  0  0  0  0  0
  -17.0291   14.3317  -23.0995 C   0  0  0  0  0  0  0  0  0  0  0  0
  -17.4552   13.6100  -21.8848 C   0  0  0  0  0  0  0  0  0  0  0  0
  -17.2648   12.2504  -21.8082 C   0  0  0  0  0  0  0  0  0  0  0  0
  -17.6654   11.5180  -20.6897 C   0  0  0  0  0  0  0  0  0  0  0  0
  -18.2580   12.1653  -19.6512 C   0  0  0  0  0  0  0  0  0  0  0  0
  -18.4576   13.5230  -19.7072 C   0  0  0  0  0  0  0  0  0  0  0  0
  -19.0520   14.1821  -18.6843 F   0  0  0  0  0  0  0  0  0  0  0  0
  -18.0524   14.2508  -20.8343 C   0  0  0  0  0  0  0  0  0  0  0  0
  -18.6796   11.4302  -18.4731 C   0  0  0  0  0  0  0  0  0  0  0  0
  -19.6087   11.9354  -17.5916 C   0  0  0  0  0  0  0  0  0  0  0  0
  -20.0021   11.2030  -16.4669 C   0  0  0  0  0  0  0  0  0  0  0  0
  -19.4949    9.9593  -16.1778 C   0  0  0  0  0  0  0  0  0  0  0  0
  -18.5453    9.4561  -17.0904 C   0  0  0  0  0  0  0  0  0  0  0  0
  -18.1720   10.1838  -18.1845 C   0  0  0  0  0  0  0  0  0  0  0  0
  -19.8223    9.1803  -15.0974 O   0  0  0  0  0  0  0  0  0  0  0  0
  -19.7123    9.5168  -13.7510 C   0  0  0  0  0  0  0  0  0  0  0  0
  -19.0026    8.4367  -12.9991 C   0  0  0  0  0  0  0  0  0  0  0  0
  -19.5992    8.2649  -11.6333 C   0  0  0  0  0  0  0  0  0  0  0  0
  -20.4988    7.0776  -11.5973 C   0  0  0  0  0  0  0  0  0  0  0  0
  -20.2007    6.0704  -12.6784 C   0  0  0  0  0  0  0  0  0  0  0  0
  -21.4751    5.6764  -13.3670 C   0  0  0  0  0  0  0  0  0  0  0  0
  -21.9346    6.8015  -14.1368 O   0  0  0  0  0  0  0  0  0  0  0  0
  -22.0601    6.5971  -15.4897 N   0  0  0  0  0  0  0  0  0  0  0  0
  -23.1580    6.6511  -16.0744 O   0  0  0  0  0  0  0  0  0  0  0  0
  -20.8896    6.3252  -16.1732 O   0  0  0  0  0  0  0  0  0  0  0  0
  -17.7632   15.5603  -23.3951 C   0  0  0  0  0  0  0  0  0  0  0  0
  -18.6861   15.5609  -24.2842 O   0  0  0  0  0  0  0  0  0  0  0  0
  -17.5392   16.8036  -22.7607 N   0  0  0  0  0  0  0  0  0  0  0  0
  -16.7994   16.8518  -22.0306 H   0  0  0  0  0  0  0  0  0  0  0  0
  -18.2731   18.0030  -23.0599 C   0  0  0  0  0  0  0  0  0  0  0  0
  -19.1288   18.4598  -21.9030 C   0  0  0  0  0  0  0  0  0  0  0  0
  -18.8252   19.9094  -21.5802 C   0  0  0  0  0  0  0  0  0  0  0  0
  -19.0788   20.7078  -22.8603 C   0  0  0  0  0  0  0  0  0  0  0  0
  -20.0418   21.8084  -22.6267 C   0  0  0  0  0  0  0  0  0  0  0  0
  -21.0072   22.0593  -23.7060 C   0  0  0  0  0  0  0  0  0  0  0  0
  -22.2758   21.4698  -23.6340 N   0  0  0  0  0  0  0  0  0  0  0  0
  -23.0989   22.1574  -23.4474 H   0  0  0  0  0  0  0  0  0  0  0  0
  -22.7093   20.1482  -23.7546 C   0  0  0  0  0  0  0  0  0  0  0  0
  -22.9634   19.4068  -22.6178 C   0  0  0  0  0  0  0  0  0  0  0  0
  -23.4356   18.1208  -22.7385 C   0  0  0  0  0  0  0  0  0  0  0  0
  -23.6461   17.6000  -23.9810 N   0  0  0  0  0  0  0  0  0  0  0  0
  -23.4129   18.2866  -25.1094 C   0  0  0  0  0  0  0  0  0  0  0  0
  -23.6367   17.7403  -26.3504 C   0  0  0  0  0  0  0  0  0  0  0  0
  -23.3982   18.4533  -27.4911 C   0  0  0  0  0  0  0  0  0  0  0  0
  -22.9244   19.7429  -27.3689 C   0  0  0  0  0  0  0  0  0  0  0  0
  -22.6941   20.3074  -26.1478 C   0  0  0  0  0  0  0  0  0  0  0  0
  -22.9388   19.5766  -24.9964 C   0  0  0  0  0  0  0  0  0  0  0  0
  -23.6947   17.3269  -21.5327 C   0  0  0  0  0  0  0  0  0  0  0  0
  -24.0829   18.0983  -20.3197 C   0  0  0  0  0  0  0  0  0  0  0  0
  -24.0259   19.5925  -20.4742 C   0  0  0  0  0  0  0  0  0  0  0  0
  -22.7584   19.9519  -21.2539 C   0  0  0  0  0  0  0  0  0  0  0  0
  1  2  1  0  0  0
  2 27  1  0  0  0
 27 28  2  0  0  0
 27 29  1  0  0  0
 29 31  1  0  0  0
 31 32  1  0  0  0
 32 33  1  0  0  0
 33 34  1  0  0  0
 34 35  1  0  0  0
 35 36  1  0  0  0
 36 37  1  0  0  0
 37 39  1  0  0  0
 39 40  2  0  0  0
 40 41  1  0  0  0
 41 42  2  0  0  0
 42 43  1  0  0  0
 43 44  2  0  0  0
 44 45  1  0  0  0
 45 46  2  0  0  0
 46 47  1  0  0  0
 47 48  2  0  0  0
 41 49  1  0  0  0
 49 50  1  0  0  0
 50 51  1  0  0  0
 51 52  1  0  0  0
  2  3  1  0  0  0
  3  4  2  0  0  0
  4  5  1  0  0  0
  5  6  2  0  0  0
  6 10  1  0  0  0
 10 11  2  0  0  0
 11 12  1  0  0  0
 12 13  2  0  0  0
 13 16  1  0  0  0
 16 17  1  0  0  0
 17 18  1  0  0  0
 18 19  1  0  0  0
 19 20  1  0  0  0
 20 21  1  0  0  0
 21 22  1  0  0  0
 22 23  1  0  0  0
 23 24  1  0  0  0
 24 25  2  0  0  0
 24 26  1  0  0  0
 13 14  1  0  0  0
 14 15  2  0  0  0
  6  7  1  0  0  0
  7  8  1  0  0  0
  7  9  2  0  0  0
 48 39  1  0  0  0
  9  3  1  0  0  0
 52 40  1  0  0  0
 15 10  1  0  0  0
 48 43  1  0  0  0
 29 30  1  0  0  0
 37 38  1  0  0  0
M  CHG 1  24   1
M  CHG 1  26  -1
M  END
> <minimizedAffinity>
-7.98633

> <CNNscore>
0.3033461571

> <CNNaffinity>
6.9969124794

> <CNN_VS>
2.1224865913

> <CNNaffinity_variance>
0.6631402969

$$$$
[H]c1c([H])c(-c2c([H])c([H])c(C([H])(C(=O)N([H])C([H])([H])C([H])([H])C([H])([H])C([H])([H])C([H])([H])C([H])([H])N([H])c3c4c(nc5c([H])c([H])c([H])c([H])c35)C([H])([H])C([H])([H])C([H])([H])C4([H])[H])C([H])([H])[H])c([H])c2F)c([H])c([H])c1OC([H])([H])C([H])([H])C([H])([H])C([H])([H])C([H])([H])C([H])([H])O[N+](=O)[O-]


 52 56  0  0  0  0  0  0  0  0999 V2000
  -17.3148   13.1277  -25.0551 C   0  0  0  0  0  0  0  0  0  0  0  0
  -16.3762   13.5884  -23.9440 C   0  0  0  0  0  0  0  0  0  0  0  0
  -16.8554   12.9802  -22.6878 C   0  0  0  0  0  0  0  0  0  0  0  0
  -17.8382   13.6146  -21.9650 C   0  0  0  0  0  0  0  0  0  0  0  0
  -18.3143   13.0910  -20.7620 C   0  0  0  0  0  0  0  0  0  0  0  0
  -17.7933   11.9255  -20.2943 C   0  0  0  0  0  0  0  0  0  0  0  0
  -16.8109   11.2756  -21.0005 C   0  0  0  0  0  0  0  0  0  0  0  0
  -16.2768   10.1172  -20.5456 F   0  0  0  0  0  0  0  0  0  0  0  0
  -16.3385   11.8084  -22.2077 C   0  0  0  0  0  0  0  0  0  0  0  0
  -18.2731   11.3549  -19.0493 C   0  0  0  0  0  0  0  0  0  0  0  0
  -17.9601   10.0697  -18.6672 C   0  0  0  0  0  0  0  0  0  0  0  0
  -18.4307    9.5464  -17.4586 C   0  0  0  0  0  0  0  0  0  0  0  0
  -19.2195   10.2681  -16.5957 C   0  0  0  0  0  0  0  0  0  0  0  0
  -19.5303   11.5822  -17.0011 C   0  0  0  0  0  0  0  0  0  0  0  0
  -19.0624   12.0786  -18.1846 C   0  0  0  0  0  0  0  0  0  0  0  0
  -19.7250    9.8293  -15.3985 O   0  0  0  0  0  0  0  0  0  0  0  0
  -20.9720   10.1203  -14.8523 C   0  0  0  0  0  0  0  0  0  0  0  0
  -20.9954    9.7837  -13.3956 C   0  0  0  0  0  0  0  0  0  0  0  0
  -19.6009    9.5964  -12.8748 C   0  0  0  0  0  0  0  0  0  0  0  0
  -19.4279   10.2949  -11.5701 C   0  0  0  0  0  0  0  0  0  0  0  0
  -18.7305    9.4544  -10.5313 C   0  0  0  0  0  0  0  0  0  0  0  0
  -17.9643   10.3424   -9.5943 C   0  0  0  0  0  0  0  0  0  0  0  0
  -16.6407    9.7992   -9.4440 O   0  0  0  0  0  0  0  0  0  0  0  0
  -16.5528    8.5947   -8.7889 N   0  0  0  0  0  0  0  0  0  0  0  0
  -16.8952    8.4544   -7.6001 O   0  0  0  0  0  0  0  0  0  0  0  0
  -16.0586    7.5365   -9.5286 O   0  0  0  0  0  0  0  0  0  0  0  0
  -16.2001   15.0390  -23.9173 C   0  0  0  0  0  0  0  0  0  0  0  0
  -15.1065   15.5470  -23.4835 O   0  0  0  0  0  0  0  0  0  0  0  0
  -17.1687   15.9748  -24.3469 N   0  0  0  0  0  0  0  0  0  0  0  0
  -18.0732   15.6088  -24.7084 H   0  0  0  0  0  0  0  0  0  0  0  0
  -16.9786   17.3995  -24.3184 C   0  0  0  0  0  0  0  0  0  0  0  0
  -18.0814   18.1141  -23.5750 C   0  0  0  0  0  0  0  0  0  0  0  0
  -19.2679   17.1871  -23.4003 C   0  0  0  0  0  0  0  0  0  0  0  0
  -19.4393   16.9702  -21.8957 C   0  0  0  0  0  0  0  0  0  0  0  0
  -20.4558   17.8875  -21.3316 C   0  0  0  0  0  0  0  0  0  0  0  0
  -21.8276   17.7129  -21.8289 C   0  0  0  0  0  0  0  0  0  0  0  0
  -22.5116   18.8231  -22.3408 N   0  0  0  0  0  0  0  0  0  0  0  0
  -23.4047   19.1142  -21.7906 H   0  0  0  0  0  0  0  0  0  0  0  0
  -22.2758   19.6509  -23.4401 C   0  0  0  0  0  0  0  0  0  0  0  0
  -21.5890   20.8361  -23.2670 C   0  0  0  0  0  0  0  0  0  0  0  0
  -21.3162   21.6273  -24.3583 C   0  0  0  0  0  0  0  0  0  0  0  0
  -21.7285   21.2259  -25.5946 N   0  0  0  0  0  0  0  0  0  0  0  0
  -22.3968   20.0823  -25.8055 C   0  0  0  0  0  0  0  0  0  0  0  0
  -22.7985   19.6978  -27.0623 C   0  0  0  0  0  0  0  0  0  0  0  0
  -23.4752   18.5281  -27.2623 C   0  0  0  0  0  0  0  0  0  0  0  0
  -23.7484   17.7355  -26.1669 C   0  0  0  0  0  0  0  0  0  0  0  0
  -23.3602   18.0956  -24.9091 C   0  0  0  0  0  0  0  0  0  0  0  0
  -22.6745   19.2839  -24.7159 C   0  0  0  0  0  0  0  0  0  0  0  0
  -20.5976   22.8928  -24.1756 C   0  0  0  0  0  0  0  0  0  0  0  0
  -19.6485   22.9396  -23.0293 C   0  0  0  0  0  0  0  0  0  0  0  0
  -19.6615   21.7233  -22.1460 C   0  0  0  0  0  0  0  0  0  0  0  0
  -21.1152   21.2907  -21.9372 C   0  0  0  0  0  0  0  0  0  0  0  0
  1  2  1  0  0  0
  2 27  1  0  0  0
 27 28  2  0  0  0
 27 29  1  0  0  0
 29 31  1  0  0  0
 31 32  1  0  0  0
 32 33  1  0  0  0
 33 34  1  0  0  0
 34 35  1  0  0  0
 35 36  1  0  0  0
 36 37  1  0  0  0
 37 39  1  0  0  0
 39 40  2  0  0  0
 40 41  1  0  0  0
 41 42  2  0  0  0
 42 43  1  0  0  0
 43 44  2  0  0  0
 44 45  1  0  0  0
 45 46  2  0  0  0
 46 47  1  0  0  0
 47 48  2  0  0  0
 41 49  1  0  0  0
 49 50  1  0  0  0
 50 51  1  0  0  0
 51 52  1  0  0  0
  2  3  1  0  0  0
  3  4  2  0  0  0
  4  5  1  0  0  0
  5  6  2  0  0  0
  6 10  1  0  0  0
 10 11  2  0  0  0
 11 12  1  0  0  0
 12 13  2  0  0  0
 13 16  1  0  0  0
 16 17  1  0  0  0
 17 18  1  0  0  0
 18 19  1  0  0  0
 19 20  1  0  0  0
 20 21  1  0  0  0
 21 22  1  0  0  0
 22 23  1  0  0  0
 23 24  1  0  0  0
 24 25  2  0  0  0
 24 26  1  0  0  0
 13 14  1  0  0  0
 14 15  2  0  0  0
  6  7  1  0  0  0
  7  8  1  0  0  0
  7  9  2  0  0  0
 48 39  1  0  0  0
  9  3  1  0  0  0
 52 40  1  0  0  0
 15 10  1  0  0  0
 48 43  1  0  0  0
 29 30  1  0  0  0
 37 38  1  0  0  0
M  CHG 1  24   1
M  CHG 1  26  -1
M  END
> <minimizedAffinity>
-8.60289

> <CNNscore>
0.2702711821

> <CNNaffinity>
7.1099991798

> <CNN_VS>
1.9216278791

> <CNNaffinity_variance>
0.4221081138

$$$$
[H]c1c([H])c(-c2c([H])c([H])c(C([H])(C(=O)N([H])C([H])([H])C([H])([H])C([H])([H])C([H])([H])C([H])([H])C([H])([H])N([H])c3c4c(nc5c([H])c([H])c([H])c([H])c35)C([H])([H])C([H])([H])C([H])([H])C4([H])[H])C([H])([H])[H])c([H])c2F)c([H])c([H])c1OC([H])([H])C([H])([H])C([H])([H])C([H])([H])C([H])([H])C([H])([H])O[N+](=O)[O-]


 52 56  0  0  0  0  0  0  0  0999 V2000
  -17.3894   12.7442  -24.4160 C   0  0  0  0  0  0  0  0  0  0  0  0
  -16.3491   12.9936  -23.3282 C   0  0  0  0  0  0  0  0  0  0  0  0
  -16.9103   12.4828  -22.0625 C   0  0  0  0  0  0  0  0  0  0  0  0
  -16.3300   11.3909  -21.4613 C   0  0  0  0  0  0  0  0  0  0  0  0
  -16.8321   10.8577  -20.2731 C   0  0  0  0  0  0  0  0  0  0  0  0
  -17.9213   11.4325  -19.6971 C   0  0  0  0  0  0  0  0  0  0  0  0
  -18.5163   12.5239  -20.2811 C   0  0  0  0  0  0  0  0  0  0  0  0
  -19.6054   13.1045  -19.7237 F   0  0  0  0  0  0  0  0  0  0  0  0
  -18.0056   13.0530  -21.4742 C   0  0  0  0  0  0  0  0  0  0  0  0
  -18.4616   10.9029  -18.4587 C   0  0  0  0  0  0  0  0  0  0  0  0
  -19.3003   11.6409  -17.6540 C   0  0  0  0  0  0  0  0  0  0  0  0
  -19.8121   11.1037  -16.4684 C   0  0  0  0  0  0  0  0  0  0  0  0
  -19.5146    9.8320  -16.0419 C   0  0  0  0  0  0  0  0  0  0  0  0
  -18.6553    9.0894  -16.8773 C   0  0  0  0  0  0  0  0  0  0  0  0
  -18.1641    9.6285  -18.0324 C   0  0  0  0  0  0  0  0  0  0  0  0
  -19.9686    9.2339  -14.8941 O   0  0  0  0  0  0  0  0  0  0  0  0
  -19.2025    8.6940  -13.8647 C   0  0  0  0  0  0  0  0  0  0  0  0
  -20.0124    8.5861  -12.6124 C   0  0  0  0  0  0  0  0  0  0  0  0
  -20.7198    9.8783  -12.3284 C   0  0  0  0  0  0  0  0  0  0  0  0
  -19.8445   10.7971  -11.5477 C   0  0  0  0  0  0  0  0  0  0  0  0
  -19.3805   10.2106  -10.2390 C   0  0  0  0  0  0  0  0  0  0  0  0
  -20.1854   10.7900   -9.1121 C   0  0  0  0  0  0  0  0  0  0  0  0
  -20.6399   12.0953   -9.5112 O   0  0  0  0  0  0  0  0  0  0  0  0
  -20.9182   12.9754   -8.4935 N   0  0  0  0  0  0  0  0  0  0  0  0
  -20.9880   12.6189   -7.3026 O   0  0  0  0  0  0  0  0  0  0  0  0
  -21.1187   14.2912   -8.8671 O   0  0  0  0  0  0  0  0  0  0  0  0
  -15.8814   14.3779  -23.2994 C   0  0  0  0  0  0  0  0  0  0  0  0
  -14.6338   14.6389  -23.4323 O   0  0  0  0  0  0  0  0  0  0  0  0
  -16.7168   15.5059  -23.1324 N   0  0  0  0  0  0  0  0  0  0  0  0
  -17.7386   15.3434  -23.0213 H   0  0  0  0  0  0  0  0  0  0  0  0
  -16.2416   16.8625  -23.1106 C   0  0  0  0  0  0  0  0  0  0  0  0
  -16.2536   17.4561  -21.7225 C   0  0  0  0  0  0  0  0  0  0  0  0
  -17.5086   17.0247  -20.9900 C   0  0  0  0  0  0  0  0  0  0  0  0
  -18.3567   18.2824  -20.7912 C   0  0  0  0  0  0  0  0  0  0  0  0
  -19.4191   18.3834  -21.8179 C   0  0  0  0  0  0  0  0  0  0  0  0
  -19.4952   19.6597  -22.5425 C   0  0  0  0  0  0  0  0  0  0  0  0
  -20.7466   20.1308  -22.9599 N   0  0  0  0  0  0  0  0  0  0  0  0
  -21.4682   20.3044  -22.1635 H   0  0  0  0  0  0  0  0  0  0  0  0
  -21.2692   20.4290  -24.2197 C   0  0  0  0  0  0  0  0  0  0  0  0
  -20.9154   21.6088  -24.8436 C   0  0  0  0  0  0  0  0  0  0  0  0
  -21.3935   21.8789  -26.1045 C   0  0  0  0  0  0  0  0  0  0  0  0
  -22.2091   20.9745  -26.7180 N   0  0  0  0  0  0  0  0  0  0  0  0
  -22.5756   19.8174  -26.1473 C   0  0  0  0  0  0  0  0  0  0  0  0
  -23.3960   18.9202  -26.7880 C   0  0  0  0  0  0  0  0  0  0  0  0
  -23.7578   17.7436  -26.1956 C   0  0  0  0  0  0  0  0  0  0  0  0
  -23.2779   17.4739  -24.9309 C   0  0  0  0  0  0  0  0  0  0  0  0
  -22.4620   18.3488  -24.2741 C   0  0  0  0  0  0  0  0  0  0  0  0
  -22.1005   19.5398  -24.8827 C   0  0  0  0  0  0  0  0  0  0  0  0
  -21.0290   23.1370  -26.7646 C   0  0  0  0  0  0  0  0  0  0  0  0
  -19.7073   23.7085  -26.3859 C   0  0  0  0  0  0  0  0  0  0  0  0
  -18.9943   22.9784  -25.2821 C   0  0  0  0  0  0  0  0  0  0  0  0
  -20.0183   22.6037  -24.2074 C   0  0  0  0  0  0  0  0  0  0  0  0
  1  2  1  0  0  0
  2 27  1  0  0  0
 27 28  2  0  0  0
 27 29  1  0  0  0
 29 31  1  0  0  0
 31 32  1  0  0  0
 32 33  1  0  0  0
 33 34  1  0  0  0
 34 35  1  0  0  0
 35 36  1  0  0  0
 36 37  1  0  0  0
 37 39  1  0  0  0
 39 40  2  0  0  0
 40 41  1  0  0  0
 41 42  2  0  0  0
 42 43  1  0  0  0
 43 44  2  0  0  0
 44 45  1  0  0  0
 45 46  2  0  0  0
 46 47  1  0  0  0
 47 48  2  0  0  0
 41 49  1  0  0  0
 49 50  1  0  0  0
 50 51  1  0  0  0
 51 52  1  0  0  0
  2  3  1  0  0  0
  3  4  2  0  0  0
  4  5  1  0  0  0
  5  6  2  0  0  0
  6 10  1  0  0  0
 10 11  2  0  0  0
 11 12  1  0  0  0
 12 13  2  0  0  0
 13 16  1  0  0  0
 16 17  1  0  0  0
 17 18  1  0  0  0
 18 19  1  0  0  0
 19 20  1  0  0  0
 20 21  1  0  0  0
 21 22  1  0  0  0
 22 23  1  0  0  0
 23 24  1  0  0  0
 24 25  2  0  0  0
 24 26  1  0  0  0
 13 14  1  0  0  0
 14 15  2  0  0  0
  6  7  1  0  0  0
  7  8  1  0  0  0
  7  9  2  0  0  0
 48 39  1  0  0  0
  9  3  1  0  0  0
 52 40  1  0  0  0
 15 10  1  0  0  0
 48 43  1  0  0  0
 29 30  1  0  0  0
 37 38  1  0  0  0
M  CHG 1  24   1
M  CHG 1  26  -1
M  END
> <minimizedAffinity>
-8.29875

> <CNNscore>
0.2466450781

> <CNNaffinity>
6.9425034523

> <CNN_VS>
1.7123342752

> <CNNaffinity_variance>
0.2293368876

$$$$
[H]c1c([H])c(-c2c([H])c([H])c(C([H])(C(=O)N([H])C([H])([H])C([H])([H])C([H])([H])C([H])([H])C([H])([H])C([H])([H])N([H])c3c4c(nc5c([H])c([H])c([H])c([H])c35)C([H])([H])C([H])([H])C([H])([H])C4([H])[H])C([H])([H])[H])c([H])c2F)c([H])c([H])c1OC([H])([H])C([H])([H])C([H])([H])C([H])([H])C([H])([H])C([H])([H])O[N+](=O)[O-]


 52 56  0  0  0  0  0  0  0  0999 V2000
  -17.3707   12.5787  -24.8312 C   0  0  0  0  0  0  0  0  0  0  0  0
  -16.3619   12.9706  -23.7558 C   0  0  0  0  0  0  0  0  0  0  0  0
  -16.9376   12.5801  -22.4544 C   0  0  0  0  0  0  0  0  0  0  0  0
  -16.4001   11.5132  -21.7736 C   0  0  0  0  0  0  0  0  0  0  0  0
  -16.9182   11.0921  -20.5479 C   0  0  0  0  0  0  0  0  0  0  0  0
  -17.9799   11.7533  -20.0149 C   0  0  0  0  0  0  0  0  0  0  0  0
  -18.5319   12.8217  -20.6784 C   0  0  0  0  0  0  0  0  0  0  0  0
  -19.5935   13.4873  -20.1644 F   0  0  0  0  0  0  0  0  0  0  0  0
  -18.0056   13.2379  -21.9088 C   0  0  0  0  0  0  0  0  0  0  0  0
  -18.5356   11.3412  -18.7393 C   0  0  0  0  0  0  0  0  0  0  0  0
  -19.3952   12.1446  -18.0241 C   0  0  0  0  0  0  0  0  0  0  0  0
  -19.9216   11.7200  -16.7999 C   0  0  0  0  0  0  0  0  0  0  0  0
  -19.6185   10.4998  -16.2461 C   0  0  0  0  0  0  0  0  0  0  0  0
  -18.7379    9.6890  -16.9910 C   0  0  0  0  0  0  0  0  0  0  0  0
  -18.2327   10.1182  -18.1854 C   0  0  0  0  0  0  0  0  0  0  0  0
  -20.0859   10.0116  -15.0526 O   0  0  0  0  0  0  0  0  0  0  0  0
  -19.3358    9.4795  -14.0074 C   0  0  0  0  0  0  0  0  0  0  0  0
  -20.1813    9.3244  -12.7840 C   0  0  0  0  0  0  0  0  0  0  0  0
  -19.3223    9.1138  -11.5721 C   0  0  0  0  0  0  0  0  0  0  0  0
  -19.0739   10.4054  -10.8721 C   0  0  0  0  0  0  0  0  0  0  0  0
  -17.9684   10.3273   -9.8504 C   0  0  0  0  0  0  0  0  0  0  0  0
  -18.0416    9.0143   -9.1264 C   0  0  0  0  0  0  0  0  0  0  0  0
  -16.8372    8.2796   -9.4081 O   0  0  0  0  0  0  0  0  0  0  0  0
  -16.9665    6.9139   -9.4848 N   0  0  0  0  0  0  0  0  0  0  0  0
  -18.0036    6.3635   -9.8991 O   0  0  0  0  0  0  0  0  0  0  0  0
  -15.8720    6.1768   -9.0727 O   0  0  0  0  0  0  0  0  0  0  0  0
  -15.9313   14.3629  -23.8645 C   0  0  0  0  0  0  0  0  0  0  0  0
  -15.0473   14.8281  -23.0616 O   0  0  0  0  0  0  0  0  0  0  0  0
  -16.4214   15.2844  -24.8179 N   0  0  0  0  0  0  0  0  0  0  0  0
  -17.1407   14.9516  -25.4923 H   0  0  0  0  0  0  0  0  0  0  0  0
  -15.9842   16.6504  -24.9148 C   0  0  0  0  0  0  0  0  0  0  0  0
  -16.9686   17.6165  -24.3007 C   0  0  0  0  0  0  0  0  0  0  0  0
  -18.2594   16.8939  -23.9700 C   0  0  0  0  0  0  0  0  0  0  0  0
  -18.4688   17.0351  -22.4611 C   0  0  0  0  0  0  0  0  0  0  0  0
  -19.3147   18.2080  -22.1421 C   0  0  0  0  0  0  0  0  0  0  0  0
  -18.6187   19.3656  -21.5631 C   0  0  0  0  0  0  0  0  0  0  0  0
  -18.1189   19.2751  -20.2576 N   0  0  0  0  0  0  0  0  0  0  0  0
  -17.0341   19.3062  -20.1712 H   0  0  0  0  0  0  0  0  0  0  0  0
  -18.7439   19.1490  -19.0156 C   0  0  0  0  0  0  0  0  0  0  0  0
  -19.3899   20.2370  -18.4631 C   0  0  0  0  0  0  0  0  0  0  0  0
  -20.0454   20.0982  -17.2620 C   0  0  0  0  0  0  0  0  0  0  0  0
  -20.0468   18.8860  -16.6375 N   0  0  0  0  0  0  0  0  0  0  0  0
  -19.4326   17.8051  -17.1406 C   0  0  0  0  0  0  0  0  0  0  0  0
  -19.4516   16.5929  -16.4935 C   0  0  0  0  0  0  0  0  0  0  0  0
  -18.8246   15.4993  -17.0202 C   0  0  0  0  0  0  0  0  0  0  0  0
  -18.1673   15.6397  -18.2247 C   0  0  0  0  0  0  0  0  0  0  0  0
  -18.1341   16.8328  -18.8863 C   0  0  0  0  0  0  0  0  0  0  0  0
  -18.7727   17.9366  -18.3444 C   0  0  0  0  0  0  0  0  0  0  0  0
  -20.7222   21.2555  -16.6669 C   0  0  0  0  0  0  0  0  0  0  0  0
  -21.2398   22.2685  -17.6276 C   0  0  0  0  0  0  0  0  0  0  0  0
  -20.8778   22.0208  -19.0655 C   0  0  0  0  0  0  0  0  0  0  0  0
  -19.4181   21.5630  -19.1266 C   0  0  0  0  0  0  0  0  0  0  0  0
  1  2  1  0  0  0
  2 27  1  0  0  0
 27 28  2  0  0  0
 27 29  1  0  0  0
 29 31  1  0  0  0
 31 32  1  0  0  0
 32 33  1  0  0  0
 33 34  1  0  0  0
 34 35  1  0  0  0
 35 36  1  0  0  0
 36 37  1  0  0  0
 37 39  1  0  0  0
 39 40  2  0  0  0
 40 41  1  0  0  0
 41 42  2  0  0  0
 42 43  1  0  0  0
 43 44  2  0  0  0
 44 45  1  0  0  0
 45 46  2  0  0  0
 46 47  1  0  0  0
 47 48  2  0  0  0
 41 49  1  0  0  0
 49 50  1  0  0  0
 50 51  1  0  0  0
 51 52  1  0  0  0
  2  3  1  0  0  0
  3  4  2  0  0  0
  4  5  1  0  0  0
  5  6  2  0  0  0
  6 10  1  0  0  0
 10 11  2  0  0  0
 11 12  1  0  0  0
 12 13  2  0  0  0
 13 16  1  0  0  0
 16 17  1  0  0  0
 17 18  1  0  0  0
 18 19  1  0  0  0
 19 20  1  0  0  0
 20 21  1  0  0  0
 21 22  1  0  0  0
 22 23  1  0  0  0
 23 24  1  0  0  0
 24 25  2  0  0  0
 24 26  1  0  0  0
 13 14  1  0  0  0
 14 15  2  0  0  0
  6  7  1  0  0  0
  7  8  1  0  0  0
  7  9  2  0  0  0
 48 39  1  0  0  0
  9  3  1  0  0  0
 52 40  1  0  0  0
 15 10  1  0  0  0
 48 43  1  0  0  0
 29 30  1  0  0  0
 37 38  1  0  0  0
M  CHG 1  24   1
M  CHG 1  26  -1
M  END
> <minimizedAffinity>
-7.85833

> <CNNscore>
0.2370817661

> <CNNaffinity>
7.4414701462

> <CNN_VS>
1.7642369270

> <CNNaffinity_variance>
0.8914424777

$$$$
[H]c1c([H])c(-c2c([H])c([H])c(C([H])(C(=O)N([H])C([H])([H])C([H])([H])C([H])([H])C([H])([H])C([H])([H])C([H])([H])N([H])c3c4c(nc5c([H])c([H])c([H])c([H])c35)C([H])([H])C([H])([H])C([H])([H])C4([H])[H])C([H])([H])[H])c([H])c2F)c([H])c([H])c1OC([H])([H])C([H])([H])C([H])([H])C([H])([H])C([H])([H])C([H])([H])O[N+](=O)[O-]


 52 56  0  0  0  0  0  0  0  0999 V2000
  -17.3041   12.9701  -24.4764 C   0  0  0  0  0  0  0  0  0  0  0  0
  -16.3029   13.2360  -23.3563 C   0  0  0  0  0  0  0  0  0  0  0  0
  -16.8465   12.6208  -22.1300 C   0  0  0  0  0  0  0  0  0  0  0  0
  -17.9529   13.1764  -21.5318 C   0  0  0  0  0  0  0  0  0  0  0  0
  -18.4960   12.6441  -20.3615 C   0  0  0  0  0  0  0  0  0  0  0  0
  -17.9166   11.5497  -19.8001 C   0  0  0  0  0  0  0  0  0  0  0  0
  -16.8108   10.9791  -20.3814 C   0  0  0  0  0  0  0  0  0  0  0  0
  -16.2179    9.8926  -19.8318 F   0  0  0  0  0  0  0  0  0  0  0  0
  -16.2718   11.5200  -21.5566 C   0  0  0  0  0  0  0  0  0  0  0  0
  -18.4632   10.9714  -18.5865 C   0  0  0  0  0  0  0  0  0  0  0  0
  -18.1613    9.6881  -18.1896 C   0  0  0  0  0  0  0  0  0  0  0  0
  -18.6970    9.1574  -17.0117 C   0  0  0  0  0  0  0  0  0  0  0  0
  -19.5415    9.8697  -16.1949 C   0  0  0  0  0  0  0  0  0  0  0  0
  -19.8399   11.1820  -16.6149 C   0  0  0  0  0  0  0  0  0  0  0  0
  -19.3082   11.6858  -17.7680 C   0  0  0  0  0  0  0  0  0  0  0  0
  -20.1120    9.4232  -15.0302 O   0  0  0  0  0  0  0  0  0  0  0  0
  -19.9208    8.1881  -14.4170 C   0  0  0  0  0  0  0  0  0  0  0  0
  -20.4319    8.2179  -13.0122 C   0  0  0  0  0  0  0  0  0  0  0  0
  -20.2648    9.5857  -12.4187 C   0  0  0  0  0  0  0  0  0  0  0  0
  -18.9799    9.6815  -11.6704 C   0  0  0  0  0  0  0  0  0  0  0  0
  -19.0860   10.4923  -10.4042 C   0  0  0  0  0  0  0  0  0  0  0  0
  -17.9270   10.1769   -9.5038 C   0  0  0  0  0  0  0  0  0  0  0  0
  -17.1692    9.1121  -10.1053 O   0  0  0  0  0  0  0  0  0  0  0  0
  -16.4927    8.2880   -9.2389 N   0  0  0  0  0  0  0  0  0  0  0  0
  -16.1973    7.1134   -9.5276 O   0  0  0  0  0  0  0  0  0  0  0  0
  -16.1545    8.8389   -8.0169 O   0  0  0  0  0  0  0  0  0  0  0  0
  -15.9375   14.6468  -23.2474 C   0  0  0  0  0  0  0  0  0  0  0  0
  -14.8841   15.0860  -23.8304 O   0  0  0  0  0  0  0  0  0  0  0  0
  -16.6733   15.6151  -22.5267 N   0  0  0  0  0  0  0  0  0  0  0  0
  -17.5376   15.3052  -22.0370 H   0  0  0  0  0  0  0  0  0  0  0  0
  -16.3028   17.0009  -22.4326 C   0  0  0  0  0  0  0  0  0  0  0  0
  -17.4344   17.8685  -21.9366 C   0  0  0  0  0  0  0  0  0  0  0  0
  -18.3700   18.1977  -23.0828 C   0  0  0  0  0  0  0  0  0  0  0  0
  -18.8533   19.6318  -22.8587 C   0  0  0  0  0  0  0  0  0  0  0  0
  -18.4310   20.1417  -21.5341 C   0  0  0  0  0  0  0  0  0  0  0  0
  -19.4611   20.8441  -20.7560 C   0  0  0  0  0  0  0  0  0  0  0  0
  -20.3525   20.0957  -19.9766 N   0  0  0  0  0  0  0  0  0  0  0  0
  -20.6913   20.5798  -19.0623 H   0  0  0  0  0  0  0  0  0  0  0  0
  -20.9069   18.8245  -20.1373 C   0  0  0  0  0  0  0  0  0  0  0  0
  -21.9704   18.6478  -20.9999 C   0  0  0  0  0  0  0  0  0  0  0  0
  -22.4846   17.3869  -21.1929 C   0  0  0  0  0  0  0  0  0  0  0  0
  -21.9332   16.3314  -20.5287 N   0  0  0  0  0  0  0  0  0  0  0  0
  -20.8998   16.4601  -19.6835 C   0  0  0  0  0  0  0  0  0  0  0  0
  -20.3592   15.3797  -19.0285 C   0  0  0  0  0  0  0  0  0  0  0  0
  -19.3039   15.5257  -18.1733 C   0  0  0  0  0  0  0  0  0  0  0  0
  -18.7891   16.7907  -17.9804 C   0  0  0  0  0  0  0  0  0  0  0  0
  -19.3087   17.8792  -18.6190 C   0  0  0  0  0  0  0  0  0  0  0  0
  -20.3791   17.7215  -19.4844 C   0  0  0  0  0  0  0  0  0  0  0  0
  -23.6222   17.1983  -22.0993 C   0  0  0  0  0  0  0  0  0  0  0  0
  -23.7230   18.1690  -23.2238 C   0  0  0  0  0  0  0  0  0  0  0  0
  -22.7145   19.2833  -23.1911 C   0  0  0  0  0  0  0  0  0  0  0  0
  -22.5804   19.7742  -21.7472 C   0  0  0  0  0  0  0  0  0  0  0  0
  1  2  1  0  0  0
  2 27  1  0  0  0
 27 28  2  0  0  0
 27 29  1  0  0  0
 29 31  1  0  0  0
 31 32  1  0  0  0
 32 33  1  0  0  0
 33 34  1  0  0  0
 34 35  1  0  0  0
 35 36  1  0  0  0
 36 37  1  0  0  0
 37 39  1  0  0  0
 39 40  2  0  0  0
 40 41  1  0  0  0
 41 42  2  0  0  0
 42 43  1  0  0  0
 43 44  2  0  0  0
 44 45  1  0  0  0
 45 46  2  0  0  0
 46 47  1  0  0  0
 47 48  2  0  0  0
 41 49  1  0  0  0
 49 50  1  0  0  0
 50 51  1  0  0  0
 51 52  1  0  0  0
  2  3  1  0  0  0
  3  4  2  0  0  0
  4  5  1  0  0  0
  5  6  2  0  0  0
  6 10  1  0  0  0
 10 11  2  0  0  0
 11 12  1  0  0  0
 12 13  2  0  0  0
 13 16  1  0  0  0
 16 17  1  0  0  0
 17 18  1  0  0  0
 18 19  1  0  0  0
 19 20  1  0  0  0
 20 21  1  0  0  0
 21 22  1  0  0  0
 22 23  1  0  0  0
 23 24  1  0  0  0
 24 25  2  0  0  0
 24 26  1  0  0  0
 13 14  1  0  0  0
 14 15  2  0  0  0
  6  7  1  0  0  0
  7  8  1  0  0  0
  7  9  2  0  0  0
 48 39  1  0  0  0
  9  3  1  0  0  0
 52 40  1  0  0  0
 15 10  1  0  0  0
 48 43  1  0  0  0
 29 30  1  0  0  0
 37 38  1  0  0  0
M  CHG 1  24   1
M  CHG 1  26  -1
M  END
> <minimizedAffinity>
-8.15001

> <CNNscore>
0.2275061160

> <CNNaffinity>
7.2887496948

> <CNN_VS>
1.6582351923

> <CNNaffinity_variance>
1.1863038540

$$$$
[H]c1c([H])c(-c2c([H])c([H])c(C([H])(C(=O)N([H])C([H])([H])C([H])([H])C([H])([H])C([H])([H])C([H])([H])C([H])([H])N([H])c3c4c(nc5c([H])c([H])c([H])c([H])c35)C([H])([H])C([H])([H])C([H])([H])C4([H])[H])C([H])([H])[H])c([H])c2F)c([H])c([H])c1OC([H])([H])C([H])([H])C([H])([H])C([H])([H])C([H])([H])C([H])([H])O[N+](=O)[O-]


 52 56  0  0  0  0  0  0  0  0999 V2000
  -17.5975   13.1047  -24.9583 C   0  0  0  0  0  0  0  0  0  0  0  0
  -16.5490   13.4314  -23.8992 C   0  0  0  0  0  0  0  0  0  0  0  0
  -17.0493   12.9072  -22.6137 C   0  0  0  0  0  0  0  0  0  0  0  0
  -16.4212   11.8288  -22.0364 C   0  0  0  0  0  0  0  0  0  0  0  0
  -16.8650   11.2836  -20.8307 C   0  0  0  0  0  0  0  0  0  0  0  0
  -17.9444   11.8328  -20.2126 C   0  0  0  0  0  0  0  0  0  0  0  0
  -18.5863   12.9104  -20.7720 C   0  0  0  0  0  0  0  0  0  0  0  0
  -19.6665   13.4653  -20.1726 F   0  0  0  0  0  0  0  0  0  0  0  0
  -18.1342   13.4516  -21.9831 C   0  0  0  0  0  0  0  0  0  0  0  0
  -18.4244   11.2903  -18.9551 C   0  0  0  0  0  0  0  0  0  0  0  0
  -18.0979   10.0199  -18.5365 C   0  0  0  0  0  0  0  0  0  0  0  0
  -18.5691    9.5240  -17.3166 C   0  0  0  0  0  0  0  0  0  0  0  0
  -19.3716   10.2591  -16.4781 C   0  0  0  0  0  0  0  0  0  0  0  0
  -19.6960   11.5578  -16.9208 C   0  0  0  0  0  0  0  0  0  0  0  0
  -19.2274   12.0275  -18.1148 C   0  0  0  0  0  0  0  0  0  0  0  0
  -19.8786    9.8469  -15.2720 O   0  0  0  0  0  0  0  0  0  0  0  0
  -20.1502    8.5409  -14.8736 C   0  0  0  0  0  0  0  0  0  0  0  0
  -21.5991    8.2264  -15.0676 C   0  0  0  0  0  0  0  0  0  0  0  0
  -21.8610    6.7703  -14.8187 C   0  0  0  0  0  0  0  0  0  0  0  0
  -22.4336    6.1234  -16.0326 C   0  0  0  0  0  0  0  0  0  0  0  0
  -21.9645    4.7046  -16.2301 C   0  0  0  0  0  0  0  0  0  0  0  0
  -21.0975    4.2939  -15.0755 C   0  0  0  0  0  0  0  0  0  0  0  0
  -19.7673    4.0650  -15.5733 O   0  0  0  0  0  0  0  0  0  0  0  0
  -18.8892    3.4709  -14.6995 N   0  0  0  0  0  0  0  0  0  0  0  0
  -19.2463    3.0260  -13.5929 O   0  0  0  0  0  0  0  0  0  0  0  0
  -17.5744    3.3933  -15.1196 O   0  0  0  0  0  0  0  0  0  0  0  0
  -16.1639   14.8411  -23.9004 C   0  0  0  0  0  0  0  0  0  0  0  0
  -15.0187   15.1962  -23.4479 O   0  0  0  0  0  0  0  0  0  0  0  0
  -16.9748   15.8961  -24.3776 N   0  0  0  0  0  0  0  0  0  0  0  0
  -17.9141   15.6560  -24.7557 H   0  0  0  0  0  0  0  0  0  0  0  0
  -16.5797   17.2783  -24.3760 C   0  0  0  0  0  0  0  0  0  0  0  0
  -17.6977   18.1977  -23.9469 C   0  0  0  0  0  0  0  0  0  0  0  0
  -18.5117   17.5399  -22.8504 C   0  0  0  0  0  0  0  0  0  0  0  0
  -19.2457   18.6619  -22.1136 C   0  0  0  0  0  0  0  0  0  0  0  0
  -19.6896   19.7204  -23.0492 C   0  0  0  0  0  0  0  0  0  0  0  0
  -20.6559   20.6895  -22.5138 C   0  0  0  0  0  0  0  0  0  0  0  0
  -21.5845   21.2752  -23.3837 N   0  0  0  0  0  0  0  0  0  0  0  0
  -22.3937   21.8214  -22.9021 H   0  0  0  0  0  0  0  0  0  0  0  0
  -21.6861   21.3004  -24.7760 C   0  0  0  0  0  0  0  0  0  0  0  0
  -21.0690   22.3103  -25.4872 C   0  0  0  0  0  0  0  0  0  0  0  0
  -21.1302   22.3071  -26.8611 C   0  0  0  0  0  0  0  0  0  0  0  0
  -21.7996   21.3042  -27.4980 N   0  0  0  0  0  0  0  0  0  0  0  0
  -22.4112   20.3052  -26.8447 C   0  0  0  0  0  0  0  0  0  0  0  0
  -23.0765   19.3035  -27.5100 C   0  0  0  0  0  0  0  0  0  0  0  0
  -23.6917   18.2900  -26.8312 C   0  0  0  0  0  0  0  0  0  0  0  0
  -23.6298   18.2943  -25.4532 C   0  0  0  0  0  0  0  0  0  0  0  0
  -22.9754   19.2779  -24.7699 C   0  0  0  0  0  0  0  0  0  0  0  0
  -22.3546   20.3018  -25.4668 C   0  0  0  0  0  0  0  0  0  0  0  0
  -20.4859   23.3853  -27.6185 C   0  0  0  0  0  0  0  0  0  0  0  0
  -19.2927   24.0041  -26.9779 C   0  0  0  0  0  0  0  0  0  0  0  0
  -18.9990   23.5203  -25.5853 C   0  0  0  0  0  0  0  0  0  0  0  0
  -20.3214   23.4052  -24.8225 C   0  0  0  0  0  0  0  0  0  0  0  0
  1  2  1  0  0  0
  2 27  1  0  0  0
 27 28  2  0  0  0
 27 29  1  0  0  0
 29 31  1  0  0  0
 31 32  1  0  0  0
 32 33  1  0  0  0
 33 34  1  0  0  0
 34 35  1  0  0  0
 35 36  1  0  0  0
 36 37  1  0  0  0
 37 39  1  0  0  0
 39 40  2  0  0  0
 40 41  1  0  0  0
 41 42  2  0  0  0
 42 43  1  0  0  0
 43 44  2  0  0  0
 44 45  1  0  0  0
 45 46  2  0  0  0
 46 47  1  0  0  0
 47 48  2  0  0  0
 41 49  1  0  0  0
 49 50  1  0  0  0
 50 51  1  0  0  0
 51 52  1  0  0  0
  2  3  1  0  0  0
  3  4  2  0  0  0
  4  5  1  0  0  0
  5  6  2  0  0  0
  6 10  1  0  0  0
 10 11  2  0  0  0
 11 12  1  0  0  0
 12 13  2  0  0  0
 13 16  1  0  0  0
 16 17  1  0  0  0
 17 18  1  0  0  0
 18 19  1  0  0  0
 19 20  1  0  0  0
 20 21  1  0  0  0
 21 22  1  0  0  0
 22 23  1  0  0  0
 23 24  1  0  0  0
 24 25  2  0  0  0
 24 26  1  0  0  0
 13 14  1  0  0  0
 14 15  2  0  0  0
  6  7  1  0  0  0
  7  8  1  0  0  0
  7  9  2  0  0  0
 48 39  1  0  0  0
  9  3  1  0  0  0
 52 40  1  0  0  0
 15 10  1  0  0  0
 48 43  1  0  0  0
 29 30  1  0  0  0
 37 38  1  0  0  0
M  CHG 1  24   1
M  CHG 1  26  -1
M  END
> <minimizedAffinity>
-8.25941

> <CNNscore>
0.2087678462

> <CNNaffinity>
6.7916054726

> <CNN_VS>
1.4178688526

> <CNNaffinity_variance>
0.4769302011

$$$$
[H]c1c([H])c(-c2c([H])c([H])c(C([H])(C(=O)N([H])C([H])([H])C([H])([H])C([H])([H])C([H])([H])C([H])([H])C([H])([H])N([H])c3c4c(nc5c([H])c([H])c([H])c([H])c35)C([H])([H])C([H])([H])C([H])([H])C4([H])[H])C([H])([H])[H])c([H])c2F)c([H])c([H])c1OC([H])([H])C([H])([H])C([H])([H])C([H])([H])C([H])([H])C([H])([H])O[N+](=O)[O-]


 52 56  0  0  0  0  0  0  0  0999 V2000
  -17.3384   12.6897  -24.9384 C   0  0  0  0  0  0  0  0  0  0  0  0
  -16.3251   13.0724  -23.8640 C   0  0  0  0  0  0  0  0  0  0  0  0
  -16.8745   12.6287  -22.5682 C   0  0  0  0  0  0  0  0  0  0  0  0
  -16.2632   11.5967  -21.8960 C   0  0  0  0  0  0  0  0  0  0  0  0
  -16.7526   11.1273  -20.6760 C   0  0  0  0  0  0  0  0  0  0  0  0
  -17.8605   11.7051  -20.1401 C   0  0  0  0  0  0  0  0  0  0  0  0
  -18.4865   12.7374  -20.7951 C   0  0  0  0  0  0  0  0  0  0  0  0
  -19.5946   13.3197  -20.2782 F   0  0  0  0  0  0  0  0  0  0  0  0
  -17.9884   13.2025  -22.0197 C   0  0  0  0  0  0  0  0  0  0  0  0
  -18.3884   11.2415  -18.8703 C   0  0  0  0  0  0  0  0  0  0  0  0
  -19.1958   12.0318  -18.0835 C   0  0  0  0  0  0  0  0  0  0  0  0
  -19.6964   11.5578  -16.8667 C   0  0  0  0  0  0  0  0  0  0  0  0
  -19.4179   10.2995  -16.3906 C   0  0  0  0  0  0  0  0  0  0  0  0
  -18.5906    9.5027  -17.2082 C   0  0  0  0  0  0  0  0  0  0  0  0
  -18.1100    9.9805  -18.3943 C   0  0  0  0  0  0  0  0  0  0  0  0
  -19.8627    9.7616  -15.2098 O   0  0  0  0  0  0  0  0  0  0  0  0
  -19.3013    8.7031  -14.5009 C   0  0  0  0  0  0  0  0  0  0  0  0
  -19.4947    8.8981  -13.0312 C   0  0  0  0  0  0  0  0  0  0  0  0
  -20.2229    7.7296  -12.4351 C   0  0  0  0  0  0  0  0  0  0  0  0
  -21.0257    7.0243  -13.4735 C   0  0  0  0  0  0  0  0  0  0  0  0
  -20.8841    5.5246  -13.4203 C   0  0  0  0  0  0  0  0  0  0  0  0
  -19.4294    5.1555  -13.3847 C   0  0  0  0  0  0  0  0  0  0  0  0
  -19.0975    4.5208  -14.6323 O   0  0  0  0  0  0  0  0  0  0  0  0
  -18.2309    3.4573  -14.5574 N   0  0  0  0  0  0  0  0  0  0  0  0
  -18.2700    2.6280  -13.6296 O   0  0  0  0  0  0  0  0  0  0  0  0
  -17.3037    3.3572  -15.5779 O   0  0  0  0  0  0  0  0  0  0  0  0
  -15.9287   14.4773  -23.9349 C   0  0  0  0  0  0  0  0  0  0  0  0
  -14.9608   14.9104  -23.2154 O   0  0  0  0  0  0  0  0  0  0  0  0
  -16.5419   15.4452  -24.7629 N   0  0  0  0  0  0  0  0  0  0  0  0
  -17.3327   15.1398  -25.3664 H   0  0  0  0  0  0  0  0  0  0  0  0
  -16.1372   16.8233  -24.8247 C   0  0  0  0  0  0  0  0  0  0  0  0
  -17.1147   17.7434  -24.1337 C   0  0  0  0  0  0  0  0  0  0  0  0
  -18.3957   16.9940  -23.8253 C   0  0  0  0  0  0  0  0  0  0  0  0
  -18.6383   17.1371  -22.3216 C   0  0  0  0  0  0  0  0  0  0  0  0
  -19.4339   18.3485  -22.0172 C   0  0  0  0  0  0  0  0  0  0  0  0
  -18.7025   19.4591  -21.3917 C   0  0  0  0  0  0  0  0  0  0  0  0
  -18.1965   19.2955  -20.0958 N   0  0  0  0  0  0  0  0  0  0  0  0
  -17.1108   19.2721  -20.0192 H   0  0  0  0  0  0  0  0  0  0  0  0
  -18.8164   19.1518  -18.8531 C   0  0  0  0  0  0  0  0  0  0  0  0
  -19.4303   20.2406  -18.2666 C   0  0  0  0  0  0  0  0  0  0  0  0
  -20.0812   20.0862  -17.0650 C   0  0  0  0  0  0  0  0  0  0  0  0
  -20.1099   18.8578  -16.4735 N   0  0  0  0  0  0  0  0  0  0  0  0
  -19.5274   17.7755  -17.0102 C   0  0  0  0  0  0  0  0  0  0  0  0
  -19.5736   16.5470  -16.3959 C   0  0  0  0  0  0  0  0  0  0  0  0
  -18.9787   15.4524  -16.9566 C   0  0  0  0  0  0  0  0  0  0  0  0
  -18.3260   15.6085  -18.1616 C   0  0  0  0  0  0  0  0  0  0  0  0
  -18.2662   16.8180  -18.7910 C   0  0  0  0  0  0  0  0  0  0  0  0
  -18.8723   17.9226  -18.2147 C   0  0  0  0  0  0  0  0  0  0  0  0
  -20.7236   21.2438  -16.4338 C   0  0  0  0  0  0  0  0  0  0  0  0
  -21.2211   22.2956  -17.3629 C   0  0  0  0  0  0  0  0  0  0  0  0
  -20.8752   22.0780  -18.8096 C   0  0  0  0  0  0  0  0  0  0  0  0
  -19.4284   21.5845  -18.8937 C   0  0  0  0  0  0  0  0  0  0  0  0
  1  2  1  0  0  0
  2 27  1  0  0  0
 27 28  2  0  0  0
 27 29  1  0  0  0
 29 31  1  0  0  0
 31 32  1  0  0  0
 32 33  1  0  0  0
 33 34  1  0  0  0
 34 35  1  0  0  0
 35 36  1  0  0  0
 36 37  1  0  0  0
 37 39  1  0  0  0
 39 40  2  0  0  0
 40 41  1  0  0  0
 41 42  2  0  0  0
 42 43  1  0  0  0
 43 44  2  0  0  0
 44 45  1  0  0  0
 45 46  2  0  0  0
 46 47  1  0  0  0
 47 48  2  0  0  0
 41 49  1  0  0  0
 49 50  1  0  0  0
 50 51  1  0  0  0
 51 52  1  0  0  0
  2  3  1  0  0  0
  3  4  2  0  0  0
  4  5  1  0  0  0
  5  6  2  0  0  0
  6 10  1  0  0  0
 10 11  2  0  0  0
 11 12  1  0  0  0
 12 13  2  0  0  0
 13 16  1  0  0  0
 16 17  1  0  0  0
 17 18  1  0  0  0
 18 19  1  0  0  0
 19 20  1  0  0  0
 20 21  1  0  0  0
 21 22  1  0  0  0
 22 23  1  0  0  0
 23 24  1  0  0  0
 24 25  2  0  0  0
 24 26  1  0  0  0
 13 14  1  0  0  0
 14 15  2  0  0  0
  6  7  1  0  0  0
  7  8  1  0  0  0
  7  9  2  0  0  0
 48 39  1  0  0  0
  9  3  1  0  0  0
 52 40  1  0  0  0
 15 10  1  0  0  0
 48 43  1  0  0  0
 29 30  1  0  0  0
 37 38  1  0  0  0
M  CHG 1  24   1
M  CHG 1  26  -1
M  END
> <minimizedAffinity>
-7.63534

> <CNNscore>
0.1810016930

> <CNNaffinity>
7.4292387962

> <CNN_VS>
1.3447047472

> <CNNaffinity_variance>
0.8156422377

$$$$
[H]c1c([H])c(-c2c([H])c([H])c(C([H])(C(=O)N([H])C([H])([H])C([H])([H])C([H])([H])C([H])([H])C([H])([H])C([H])([H])N([H])c3c4c(nc5c([H])c([H])c([H])c([H])c35)C([H])([H])C([H])([H])C([H])([H])C4([H])[H])C([H])([H])[H])c([H])c2F)c([H])c([H])c1OC([H])([H])C([H])([H])C([H])([H])C([H])([H])C([H])([H])C([H])([H])O[N+](=O)[O-]


 52 56  0  0  0  0  0  0  0  0999 V2000
  -17.3098   12.7253  -23.2591 C   0  0  0  0  0  0  0  0  0  0  0  0
  -16.8482   13.4564  -22.0020 C   0  0  0  0  0  0  0  0  0  0  0  0
  -17.3817   12.7129  -20.8442 C   0  0  0  0  0  0  0  0  0  0  0  0
  -17.1446   11.3622  -20.7445 C   0  0  0  0  0  0  0  0  0  0  0  0
  -17.6412   10.6095  -19.6792 C   0  0  0  0  0  0  0  0  0  0  0  0
  -18.3770   11.2275  -18.7173 C   0  0  0  0  0  0  0  0  0  0  0  0
  -18.6256   12.5758  -18.7977 C   0  0  0  0  0  0  0  0  0  0  0  0
  -19.3618   13.2056  -17.8515 F   0  0  0  0  0  0  0  0  0  0  0  0
  -18.1232   13.3242  -19.8709 C   0  0  0  0  0  0  0  0  0  0  0  0
  -18.9011   10.4710  -17.5953 C   0  0  0  0  0  0  0  0  0  0  0  0
  -18.3589    9.2652  -17.2113 C   0  0  0  0  0  0  0  0  0  0  0  0
  -18.8796    8.5596  -16.1218 C   0  0  0  0  0  0  0  0  0  0  0  0
  -19.9438    9.0169  -15.3829 C   0  0  0  0  0  0  0  0  0  0  0  0
  -20.4870   10.2531  -15.7885 C   0  0  0  0  0  0  0  0  0  0  0  0
  -19.9666   10.9301  -16.8547 C   0  0  0  0  0  0  0  0  0  0  0  0
  -20.5160    8.3863  -14.3076 O   0  0  0  0  0  0  0  0  0  0  0  0
  -21.6347    8.7958  -13.5871 C   0  0  0  0  0  0  0  0  0  0  0  0
  -21.2267    9.3496  -12.2595 C   0  0  0  0  0  0  0  0  0  0  0  0
  -20.0528    8.5936  -11.7106 C   0  0  0  0  0  0  0  0  0  0  0  0
  -18.9082    9.5125  -11.4542 C   0  0  0  0  0  0  0  0  0  0  0  0
  -19.1549   10.4696  -10.3162 C   0  0  0  0  0  0  0  0  0  0  0  0
  -18.5552    9.9197   -9.0546 C   0  0  0  0  0  0  0  0  0  0  0  0
  -17.1231    9.9565   -9.1862 O   0  0  0  0  0  0  0  0  0  0  0  0
  -16.4477    8.8417   -8.7520 N   0  0  0  0  0  0  0  0  0  0  0  0
  -15.9821    8.7489   -7.6010 O   0  0  0  0  0  0  0  0  0  0  0  0
  -16.3115    7.8184   -9.6714 O   0  0  0  0  0  0  0  0  0  0  0  0
  -17.1564   14.8846  -22.0329 C   0  0  0  0  0  0  0  0  0  0  0  0
  -16.2755   15.7414  -21.6693 O   0  0  0  0  0  0  0  0  0  0  0  0
  -18.3922   15.4320  -22.4470 N   0  0  0  0  0  0  0  0  0  0  0  0
  -19.1386   14.7745  -22.7522 H   0  0  0  0  0  0  0  0  0  0  0  0
  -18.6786   16.8405  -22.4758 C   0  0  0  0  0  0  0  0  0  0  0  0
  -19.7031   17.2424  -21.4423 C   0  0  0  0  0  0  0  0  0  0  0  0
  -19.8917   18.7463  -21.4635 C   0  0  0  0  0  0  0  0  0  0  0  0
  -21.3116   19.0191  -20.9636 C   0  0  0  0  0  0  0  0  0  0  0  0
  -21.4496   20.4063  -20.4640 C   0  0  0  0  0  0  0  0  0  0  0  0
  -20.8033   21.4494  -21.2728 C   0  0  0  0  0  0  0  0  0  0  0  0
  -21.2244   21.6432  -22.5946 N   0  0  0  0  0  0  0  0  0  0  0  0
  -20.4358   21.8907  -23.3030 H   0  0  0  0  0  0  0  0  0  0  0  0
  -22.4799   21.5833  -23.2023 C   0  0  0  0  0  0  0  0  0  0  0  0
  -22.7667   20.5535  -24.0763 C   0  0  0  0  0  0  0  0  0  0  0  0
  -24.0195   20.4694  -24.6373 C   0  0  0  0  0  0  0  0  0  0  0  0
  -24.9586   21.4056  -24.3189 N   0  0  0  0  0  0  0  0  0  0  0  0
  -24.7208   22.4201  -23.4745 C   0  0  0  0  0  0  0  0  0  0  0  0
  -25.6856   23.3492  -23.1668 C   0  0  0  0  0  0  0  0  0  0  0  0
  -25.4300   24.3752  -22.3017 C   0  0  0  0  0  0  0  0  0  0  0  0
  -24.1730   24.4586  -21.7398 C   0  0  0  0  0  0  0  0  0  0  0  0
  -23.1983   23.5485  -22.0297 C   0  0  0  0  0  0  0  0  0  0  0  0
  -23.4667   22.5114  -22.9084 C   0  0  0  0  0  0  0  0  0  0  0  0
  -24.3230   19.3836  -25.5754 C   0  0  0  0  0  0  0  0  0  0  0  0
  -23.5692   18.1166  -25.3662 C   0  0  0  0  0  0  0  0  0  0  0  0
  -22.5097   18.1783  -24.3016 C   0  0  0  0  0  0  0  0  0  0  0  0
  -21.7706   19.5129  -24.4291 C   0  0  0  0  0  0  0  0  0  0  0  0
  1  2  1  0  0  0
  2 27  1  0  0  0
 27 28  2  0  0  0
 27 29  1  0  0  0
 29 31  1  0  0  0
 31 32  1  0  0  0
 32 33  1  0  0  0
 33 34  1  0  0  0
 34 35  1  0  0  0
 35 36  1  0  0  0
 36 37  1  0  0  0
 37 39  1  0  0  0
 39 40  2  0  0  0
 40 41  1  0  0  0
 41 42  2  0  0  0
 42 43  1  0  0  0
 43 44  2  0  0  0
 44 45  1  0  0  0
 45 46  2  0  0  0
 46 47  1  0  0  0
 47 48  2  0  0  0
 41 49  1  0  0  0
 49 50  1  0  0  0
 50 51  1  0  0  0
 51 52  1  0  0  0
  2  3  1  0  0  0
  3  4  2  0  0  0
  4  5  1  0  0  0
  5  6  2  0  0  0
  6 10  1  0  0  0
 10 11  2  0  0  0
 11 12  1  0  0  0
 12 13  2  0  0  0
 13 16  1  0  0  0
 16 17  1  0  0  0
 17 18  1  0  0  0
 18 19  1  0  0  0
 19 20  1  0  0  0
 20 21  1  0  0  0
 21 22  1  0  0  0
 22 23  1  0  0  0
 23 24  1  0  0  0
 24 25  2  0  0  0
 24 26  1  0  0  0
 13 14  1  0  0  0
 14 15  2  0  0  0
  6  7  1  0  0  0
  7  8  1  0  0  0
  7  9  2  0  0  0
 48 39  1  0  0  0
  9  3  1  0  0  0
 52 40  1  0  0  0
 15 10  1  0  0  0
 48 43  1  0  0  0
 29 30  1  0  0  0
 37 38  1  0  0  0
M  CHG 1  24   1
M  CHG 1  26  -1
M  END
> <minimizedAffinity>
-7.70493

> <CNNscore>
0.1789246500

> <CNNaffinity>
6.6082901955

> <CNN_VS>
1.1823860407

> <CNNaffinity_variance>
0.1189945117

$$$$
[H]OC(=O)[C@@]([H])(N([H])[H])C([H])([H])OP(=O)(O[H])O[C@]1([H])C([H])([H])C([H])([H])C([H])([H])O[C@]1([H])C([H])([H])OC(=O)C([H])([H])C([H])([H])c1c([H])c([H])c([H])c([H])c1OC([H])([H])c1c([H])c([H])c([H])c(Oc2c([H])c([H])c(C([H])([H])[H])c([H])c2[H])c1[H]


 49 52  0  0  0  0  0  0  0  0999 V2000
  -21.2589   15.0584  -19.0218 C   0  0  0  0  0  0  0  0  0  0  0  0
  -21.3942   14.0734  -19.7660 O   0  0  0  0  0  0  0  0  0  0  0  0
  -21.1541   16.3261  -19.6422 O   0  0  0  0  0  0  0  0  0  0  0  0
  -20.2624   17.2974  -19.3135 C   0  0  0  0  0  0  0  0  0  0  0  0
  -18.8017   17.0745  -19.5651 C   0  0  0  0  0  0  0  0  0  0  0  0
  -18.4913   15.7887  -19.9210 O   0  0  0  0  0  0  0  0  0  0  0  0
  -17.4608   15.6325  -20.8140 C   0  0  0  0  0  0  0  0  0  0  0  0
  -16.3396   16.6149  -20.6925 C   0  0  0  0  0  0  0  0  0  0  0  0
  -16.7702   18.0236  -20.4853 C   0  0  0  0  0  0  0  0  0  0  0  0
  -18.2837   18.0913  -20.5905 C   0  0  0  0  0  0  0  0  0  0  0  0
  -18.7401   17.8900  -21.8589 O   0  0  0  0  0  0  0  0  0  0  0  0
  -19.4049   19.2167  -22.6196 P   0  0  0  0  0  0  0  0  0  0  0  0
  -19.1029   19.3192  -24.0779 O   0  0  0  0  0  0  0  0  0  0  0  0
  -21.1123   19.2210  -22.4821 O   0  0  0  0  0  0  0  0  0  0  0  0
  -21.3659   19.6852  -21.6697 H   0  0  0  0  0  0  0  0  0  0  0  0
  -18.8708   20.6012  -21.7800 O   0  0  0  0  0  0  0  0  0  0  0  0
  -19.9289   21.4102  -21.3746 C   0  0  0  0  0  0  0  0  0  0  0  0
  -19.7369   22.7403  -22.0866 C   0  0  0  0  0  0  0  0  0  0  0  0
  -19.3050   22.4718  -23.4292 N   0  0  0  0  0  0  0  0  0  0  0  0
  -20.0727   22.2501  -24.0667 H   0  0  0  0  0  0  0  0  0  0  0  0
  -18.5843   23.1127  -23.7856 H   0  0  0  0  0  0  0  0  0  0  0  0
  -18.8801   23.6785  -21.3558 C   0  0  0  0  0  0  0  0  0  0  0  0
  -19.2234   24.8667  -21.1740 O   0  0  0  0  0  0  0  0  0  0  0  0
  -17.6640   23.2609  -20.8503 O   0  0  0  0  0  0  0  0  0  0  0  0
  -17.5123   22.6113  -20.1154 H   0  0  0  0  0  0  0  0  0  0  0  0
  -21.1948   14.9855  -17.5659 C   0  0  0  0  0  0  0  0  0  0  0  0
  -20.1368   14.1929  -16.9176 C   0  0  0  0  0  0  0  0  0  0  0  0
  -19.7133   11.7118  -17.1678 C   0  0  0  0  0  0  0  0  0  0  0  0
  -19.9861   10.4427  -16.7349 C   0  0  0  0  0  0  0  0  0  0  0  0
  -20.9712   10.1640  -15.7786 C   0  0  0  0  0  0  0  0  0  0  0  0
  -21.6795   11.2252  -15.2687 C   0  0  0  0  0  0  0  0  0  0  0  0
  -21.4243   12.5049  -15.6826 C   0  0  0  0  0  0  0  0  0  0  0  0
  -20.4473   12.7665  -16.6262 C   0  0  0  0  0  0  0  0  0  0  0  0
  -18.7680   11.9529  -18.1030 O   0  0  0  0  0  0  0  0  0  0  0  0
  -18.8087   12.1875  -19.4501 C   0  0  0  0  0  0  0  0  0  0  0  0
  -16.1266   11.5933  -22.0613 C   0  0  0  0  0  0  0  0  0  0  0  0
  -15.4529   10.4770  -21.5589 C   0  0  0  0  0  0  0  0  0  0  0  0
  -15.9209    9.9652  -20.3735 C   0  0  0  0  0  0  0  0  0  0  0  0
  -16.9925   10.5147  -19.7101 C   0  0  0  0  0  0  0  0  0  0  0  0
  -17.6436   11.6232  -20.2288 C   0  0  0  0  0  0  0  0  0  0  0  0
  -17.1970   12.1485  -21.4049 C   0  0  0  0  0  0  0  0  0  0  0  0
  -15.6473   12.0961  -23.2595 O   0  0  0  0  0  0  0  0  0  0  0  0
  -16.3786   17.3435  -25.0953 C   0  0  0  0  0  0  0  0  0  0  0  0
  -16.1925   15.9593  -24.6173 C   0  0  0  0  0  0  0  0  0  0  0  0
  -17.2187   15.0344  -24.7565 C   0  0  0  0  0  0  0  0  0  0  0  0
  -17.0091   13.7384  -24.2919 C   0  0  0  0  0  0  0  0  0  0  0  0
  -15.8279   13.3620  -23.7072 C   0  0  0  0  0  0  0  0  0  0  0  0
  -14.8130   14.3103  -23.5796 C   0  0  0  0  0  0  0  0  0  0  0  0
  -14.9836   15.5983  -24.0270 C   0  0  0  0  0  0  0  0  0  0  0  0
 43 44  1  0  0  0
 44 45  2  0  0  0
 45 46  1  0  0  0
 46 47  2  0  0  0
 47 42  1  0  0  0
 42 36  1  0  0  0
 36 37  2  0  0  0
 37 38  1  0  0  0
 38 39  2  0  0  0
 39 40  1  0  0  0
 40 35  1  0  0  0
 35 34  1  0  0  0
 34 28  1  0  0  0
 28 29  2  0  0  0
 29 30  1  0  0  0
 30 31  2  0  0  0
 31 32  1  0  0  0
 32 33  2  0  0  0
 33 27  1  0  0  0
 27 26  1  0  0  0
 26  1  1  0  0  0
  1  2  2  0  0  0
  1  3  1  0  0  0
  3  4  1  0  0  0
  4  5  1  0  0  0
  5  6  1  0  0  0
  6  7  1  0  0  0
  7  8  1  0  0  0
  8  9  1  0  0  0
  9 10  1  0  0  0
 10 11  1  0  0  0
 11 12  1  0  0  0
 12 13  2  0  0  0
 12 14  1  0  0  0
 12 16  1  0  0  0
 16 17  1  0  0  0
 17 18  1  0  0  0
 18 19  1  0  0  0
 18 22  1  0  0  0
 22 23  2  0  0  0
 22 24  1  0  0  0
 40 41  2  0  0  0
 47 48  1  0  0  0
 48 49  2  0  0  0
 49 44  1  0  0  0
 41 36  1  0  0  0
 33 28  1  0  0  0
 10  5  1  0  0  0
 14 15  1  0  0  0
 19 20  1  0  0  0
 19 21  1  0  0  0
 24 25  1  0  0  0
M  END
> <minimizedAffinity>
-8.83442

> <CNNscore>
0.3759352565

> <CNNaffinity>
6.7959494591

> <CNN_VS>
2.5548369884

> <CNNaffinity_variance>
0.4288844466

$$$$
[H]OC(=O)[C@@]([H])(N([H])[H])C([H])([H])OP(=O)(O[H])O[C@]1([H])C([H])([H])C([H])([H])C([H])([H])O[C@]1([H])C([H])([H])OC(=O)C([H])([H])C([H])([H])c1c([H])c([H])c([H])c([H])c1OC([H])([H])c1c([H])c([H])c([H])c(Oc2c([H])c([H])c(C([H])([H])[H])c([H])c2[H])c1[H]


 49 52  0  0  0  0  0  0  0  0999 V2000
  -19.8611   14.8286  -19.9100 C   0  0  0  0  0  0  0  0  0  0  0  0
  -20.8198   14.1012  -20.2169 O   0  0  0  0  0  0  0  0  0  0  0  0
  -20.0111   16.2190  -20.1270 O   0  0  0  0  0  0  0  0  0  0  0  0
  -21.1622   16.9249  -19.9733 C   0  0  0  0  0  0  0  0  0  0  0  0
  -21.9737   17.2857  -21.1806 C   0  0  0  0  0  0  0  0  0  0  0  0
  -23.0387   18.1028  -20.9077 O   0  0  0  0  0  0  0  0  0  0  0  0
  -23.3690   19.0210  -21.8729 C   0  0  0  0  0  0  0  0  0  0  0  0
  -23.1719   18.5777  -23.2877 C   0  0  0  0  0  0  0  0  0  0  0  0
  -21.8990   17.8493  -23.5368 C   0  0  0  0  0  0  0  0  0  0  0  0
  -21.0657   17.8756  -22.2674 C   0  0  0  0  0  0  0  0  0  0  0  0
  -20.5753   19.1136  -21.9765 O   0  0  0  0  0  0  0  0  0  0  0  0
  -18.9662   19.3684  -22.3325 P   0  0  0  0  0  0  0  0  0  0  0  0
  -18.0742   18.2002  -22.0713 O   0  0  0  0  0  0  0  0  0  0  0  0
  -18.7518   19.7758  -23.9823 O   0  0  0  0  0  0  0  0  0  0  0  0
  -18.8234   20.7371  -24.0856 H   0  0  0  0  0  0  0  0  0  0  0  0
  -18.4638   20.7379  -21.4498 O   0  0  0  0  0  0  0  0  0  0  0  0
  -19.3581   21.0651  -20.4341 C   0  0  0  0  0  0  0  0  0  0  0  0
  -19.9319   22.4246  -20.8022 C   0  0  0  0  0  0  0  0  0  0  0  0
  -21.1020   22.2143  -21.6070 N   0  0  0  0  0  0  0  0  0  0  0  0
  -21.9422   22.0165  -21.0594 H   0  0  0  0  0  0  0  0  0  0  0  0
  -21.2099   22.8724  -22.3896 H   0  0  0  0  0  0  0  0  0  0  0  0
  -18.9489   23.3347  -21.3969 C   0  0  0  0  0  0  0  0  0  0  0  0
  -19.2444   24.0698  -22.3639 O   0  0  0  0  0  0  0  0  0  0  0  0
  -17.6637   23.3959  -20.8934 O   0  0  0  0  0  0  0  0  0  0  0  0
  -17.3845   23.7382  -20.0046 H   0  0  0  0  0  0  0  0  0  0  0  0
  -18.6039   14.3397  -19.3538 C   0  0  0  0  0  0  0  0  0  0  0  0
  -18.5258   13.9733  -17.9299 C   0  0  0  0  0  0  0  0  0  0  0  0
  -18.8109   11.4727  -17.6773 C   0  0  0  0  0  0  0  0  0  0  0  0
  -19.5209   10.4393  -17.1291 C   0  0  0  0  0  0  0  0  0  0  0  0
  -20.7059   10.6334  -16.4074 C   0  0  0  0  0  0  0  0  0  0  0  0
  -21.1538   11.9235  -16.2570 C   0  0  0  0  0  0  0  0  0  0  0  0
  -20.4607   12.9755  -16.7929 C   0  0  0  0  0  0  0  0  0  0  0  0
  -19.2908   12.7702  -17.5017 C   0  0  0  0  0  0  0  0  0  0  0  0
  -17.6782   11.2579  -18.3823 O   0  0  0  0  0  0  0  0  0  0  0  0
  -17.3289   10.3707  -19.3632 C   0  0  0  0  0  0  0  0  0  0  0  0
  -16.9500   12.5057  -22.4718 C   0  0  0  0  0  0  0  0  0  0  0  0
  -15.7139   12.0938  -22.9766 C   0  0  0  0  0  0  0  0  0  0  0  0
  -15.0584   11.1197  -22.2640 C   0  0  0  0  0  0  0  0  0  0  0  0
  -15.5818   10.5743  -21.1156 C   0  0  0  0  0  0  0  0  0  0  0  0
  -16.8099   11.0008  -20.6344 C   0  0  0  0  0  0  0  0  0  0  0  0
  -17.4794   11.9667  -21.3255 C   0  0  0  0  0  0  0  0  0  0  0  0
  -17.6021   13.4849  -23.2028 O   0  0  0  0  0  0  0  0  0  0  0  0
  -15.9620   15.4683  -28.1843 C   0  0  0  0  0  0  0  0  0  0  0  0
  -16.3940   14.9380  -26.8761 C   0  0  0  0  0  0  0  0  0  0  0  0
  -17.0477   13.7151  -26.8059 C   0  0  0  0  0  0  0  0  0  0  0  0
  -17.4433   13.2469  -25.5555 C   0  0  0  0  0  0  0  0  0  0  0  0
  -17.2054   13.9585  -24.4084 C   0  0  0  0  0  0  0  0  0  0  0  0
  -16.5467   15.1842  -24.5065 C   0  0  0  0  0  0  0  0  0  0  0  0
  -16.1410   15.6775  -25.7232 C   0  0  0  0  0  0  0  0  0  0  0  0
 43 44  1  0  0  0
 44 45  2  0  0  0
 45 46  1  0  0  0
 46 47  2  0  0  0
 47 42  1  0  0  0
 42 36  1  0  0  0
 36 37  2  0  0  0
 37 38  1  0  0  0
 38 39  2  0  0  0
 39 40  1  0  0  0
 40 35  1  0  0  0
 35 34  1  0  0  0
 34 28  1  0  0  0
 28 29  2  0  0  0
 29 30  1  0  0  0
 30 31  2  0  0  0
 31 32  1  0  0  0
 32 33  2  0  0  0
 33 27  1  0  0  0
 27 26  1  0  0  0
 26  1  1  0  0  0
  1  2  2  0  0  0
  1  3  1  0  0  0
  3  4  1  0  0  0
  4  5  1  0  0  0
  5  6  1  0  0  0
  6  7  1  0  0  0
  7  8  1  0  0  0
  8  9  1  0  0  0
  9 10  1  0  0  0
 10 11  1  0  0  0
 11 12  1  0  0  0
 12 13  2  0  0  0
 12 14  1  0  0  0
 12 16  1  0  0  0
 16 17  1  0  0  0
 17 18  1  0  0  0
 18 19  1  0  0  0
 18 22  1  0  0  0
 22 23  2  0  0  0
 22 24  1  0  0  0
 40 41  2  0  0  0
 47 48  1  0  0  0
 48 49  2  0  0  0
 49 44  1  0  0  0
 41 36  1  0  0  0
 33 28  1  0  0  0
 10  5  1  0  0  0
 14 15  1  0  0  0
 19 20  1  0  0  0
 19 21  1  0  0  0
 24 25  1  0  0  0
M  END
> <minimizedAffinity>
-8.64977

> <CNNscore>
0.2959058285

> <CNNaffinity>
6.5069694519

> <CNN_VS>
1.9254502058

> <CNNaffinity_variance>
0.5167638063

$$$$
[H]OC(=O)[C@@]([H])(N([H])[H])C([H])([H])OP(=O)(O[H])O[C@]1([H])C([H])([H])C([H])([H])C([H])([H])O[C@]1([H])C([H])([H])OC(=O)C([H])([H])C([H])([H])c1c([H])c([H])c([H])c([H])c1OC([H])([H])c1c([H])c([H])c([H])c(Oc2c([H])c([H])c(C([H])([H])[H])c([H])c2[H])c1[H]


 49 52  0  0  0  0  0  0  0  0999 V2000
  -21.7099   17.3859  -19.1001 C   0  0  0  0  0  0  0  0  0  0  0  0
  -20.9456   17.9095  -18.2728 O   0  0  0  0  0  0  0  0  0  0  0  0
  -22.8086   18.1600  -19.5433 O   0  0  0  0  0  0  0  0  0  0  0  0
  -22.7859   19.0539  -20.5667 C   0  0  0  0  0  0  0  0  0  0  0  0
  -22.8378   18.5590  -21.9805 C   0  0  0  0  0  0  0  0  0  0  0  0
  -23.9443   18.9751  -22.6724 O   0  0  0  0  0  0  0  0  0  0  0  0
  -23.7728   19.2189  -24.0121 C   0  0  0  0  0  0  0  0  0  0  0  0
  -22.8017   18.3261  -24.7171 C   0  0  0  0  0  0  0  0  0  0  0  0
  -21.5421   18.0682  -23.9692 C   0  0  0  0  0  0  0  0  0  0  0  0
  -21.5383   18.9200  -22.7119 C   0  0  0  0  0  0  0  0  0  0  0  0
  -21.3912   20.2504  -22.9689 O   0  0  0  0  0  0  0  0  0  0  0  0
  -19.9685   20.7019  -23.7125 P   0  0  0  0  0  0  0  0  0  0  0  0
  -18.9319   19.6300  -23.7847 O   0  0  0  0  0  0  0  0  0  0  0  0
  -20.2443   21.2114  -25.3244 O   0  0  0  0  0  0  0  0  0  0  0  0
  -20.4323   22.1624  -25.3308 H   0  0  0  0  0  0  0  0  0  0  0  0
  -19.3807   22.0741  -22.8888 O   0  0  0  0  0  0  0  0  0  0  0  0
  -20.2886   22.5496  -21.9462 C   0  0  0  0  0  0  0  0  0  0  0  0
  -19.5149   22.6709  -20.6425 C   0  0  0  0  0  0  0  0  0  0  0  0
  -18.1656   23.0485  -20.9554 N   0  0  0  0  0  0  0  0  0  0  0  0
  -18.0494   24.0524  -21.1089 H   0  0  0  0  0  0  0  0  0  0  0  0
  -17.4461   22.5861  -20.3847 H   0  0  0  0  0  0  0  0  0  0  0  0
  -19.6244   21.4885  -19.7833 C   0  0  0  0  0  0  0  0  0  0  0  0
  -20.6507   21.2711  -19.1035 O   0  0  0  0  0  0  0  0  0  0  0  0
  -18.5827   20.5839  -19.7088 O   0  0  0  0  0  0  0  0  0  0  0  0
  -18.2596   19.9821  -20.4288 H   0  0  0  0  0  0  0  0  0  0  0  0
  -21.5478   16.0356  -19.6286 C   0  0  0  0  0  0  0  0  0  0  0  0
  -20.5149   15.7644  -20.6423 C   0  0  0  0  0  0  0  0  0  0  0  0
  -18.3314   15.7272  -19.3661 C   0  0  0  0  0  0  0  0  0  0  0  0
  -17.0395   16.1682  -19.2718 C   0  0  0  0  0  0  0  0  0  0  0  0
  -16.5077   17.1432  -20.1258 C   0  0  0  0  0  0  0  0  0  0  0  0
  -17.3367   17.6631  -21.0902 C   0  0  0  0  0  0  0  0  0  0  0  0
  -18.6324   17.2370  -21.2079 C   0  0  0  0  0  0  0  0  0  0  0  0
  -19.1445   16.2722  -20.3593 C   0  0  0  0  0  0  0  0  0  0  0  0
  -18.8252   14.7963  -18.5201 O   0  0  0  0  0  0  0  0  0  0  0  0
  -18.3415   13.6158  -18.0263 C   0  0  0  0  0  0  0  0  0  0  0  0
  -17.2799   12.0212  -21.2967 C   0  0  0  0  0  0  0  0  0  0  0  0
  -16.9251   10.7277  -20.9051 C   0  0  0  0  0  0  0  0  0  0  0  0
  -17.0572   10.4376  -19.5691 C   0  0  0  0  0  0  0  0  0  0  0  0
  -17.5120   11.3629  -18.6596 C   0  0  0  0  0  0  0  0  0  0  0  0
  -17.8566   12.6404  -19.0731 C   0  0  0  0  0  0  0  0  0  0  0  0
  -17.7343   12.9513  -20.3949 C   0  0  0  0  0  0  0  0  0  0  0  0
  -17.1464   12.2987  -22.6471 O   0  0  0  0  0  0  0  0  0  0  0  0
  -16.4626   17.4113  -24.8456 C   0  0  0  0  0  0  0  0  0  0  0  0
  -16.6498   16.0641  -24.2717 C   0  0  0  0  0  0  0  0  0  0  0  0
  -17.8995   15.4606  -24.3138 C   0  0  0  0  0  0  0  0  0  0  0  0
  -18.0401   14.1904  -23.7605 C   0  0  0  0  0  0  0  0  0  0  0  0
  -16.9857   13.5329  -23.1821 C   0  0  0  0  0  0  0  0  0  0  0  0
  -15.7407   14.1613  -23.1529 C   0  0  0  0  0  0  0  0  0  0  0  0
  -15.5642   15.4139  -23.6896 C   0  0  0  0  0  0  0  0  0  0  0  0
 43 44  1  0  0  0
 44 45  2  0  0  0
 45 46  1  0  0  0
 46 47  2  0  0  0
 47 42  1  0  0  0
 42 36  1  0  0  0
 36 37  2  0  0  0
 37 38  1  0  0  0
 38 39  2  0  0  0
 39 40  1  0  0  0
 40 35  1  0  0  0
 35 34  1  0  0  0
 34 28  1  0  0  0
 28 29  2  0  0  0
 29 30  1  0  0  0
 30 31  2  0  0  0
 31 32  1  0  0  0
 32 33  2  0  0  0
 33 27  1  0  0  0
 27 26  1  0  0  0
 26  1  1  0  0  0
  1  2  2  0  0  0
  1  3  1  0  0  0
  3  4  1  0  0  0
  4  5  1  0  0  0
  5  6  1  0  0  0
  6  7  1  0  0  0
  7  8  1  0  0  0
  8  9  1  0  0  0
  9 10  1  0  0  0
 10 11  1  0  0  0
 11 12  1  0  0  0
 12 13  2  0  0  0
 12 14  1  0  0  0
 12 16  1  0  0  0
 16 17  1  0  0  0
 17 18  1  0  0  0
 18 19  1  0  0  0
 18 22  1  0  0  0
 22 23  2  0  0  0
 22 24  1  0  0  0
 40 41  2  0  0  0
 47 48  1  0  0  0
 48 49  2  0  0  0
 49 44  1  0  0  0
 41 36  1  0  0  0
 33 28  1  0  0  0
 10  5  1  0  0  0
 14 15  1  0  0  0
 19 20  1  0  0  0
 19 21  1  0  0  0
 24 25  1  0  0  0
M  END
> <minimizedAffinity>
-7.78764

> <CNNscore>
0.2864357233

> <CNNaffinity>
6.3733911514

> <CNN_VS>
1.8255668879

> <CNNaffinity_variance>
0.8713854551

$$$$
[H]OC(=O)[C@@]([H])(N([H])[H])C([H])([H])OP(=O)(O[H])O[C@]1([H])C([H])([H])C([H])([H])C([H])([H])O[C@]1([H])C([H])([H])OC(=O)C([H])([H])C([H])([H])c1c([H])c([H])c([H])c([H])c1OC([H])([H])c1c([H])c([H])c([H])c(Oc2c([H])c([H])c(C([H])([H])[H])c([H])c2[H])c1[H]


 49 52  0  0  0  0  0  0  0  0999 V2000
  -19.5864   17.9389  -18.0486 C   0  0  0  0  0  0  0  0  0  0  0  0
  -20.7907   17.6907  -18.2231 O   0  0  0  0  0  0  0  0  0  0  0  0
  -19.1289   19.2205  -18.4372 O   0  0  0  0  0  0  0  0  0  0  0  0
  -19.6974   20.0102  -19.3860 C   0  0  0  0  0  0  0  0  0  0  0  0
  -19.6982   19.5618  -20.8162 C   0  0  0  0  0  0  0  0  0  0  0  0
  -20.9090   19.0879  -21.2470 O   0  0  0  0  0  0  0  0  0  0  0  0
  -21.2317   19.3346  -22.5580 C   0  0  0  0  0  0  0  0  0  0  0  0
  -20.0897   19.3170  -23.5238 C   0  0  0  0  0  0  0  0  0  0  0  0
  -18.8646   20.0130  -23.0469 C   0  0  0  0  0  0  0  0  0  0  0  0
  -19.1706   20.6841  -21.7194 C   0  0  0  0  0  0  0  0  0  0  0  0
  -20.0134   21.7483  -21.8410 O   0  0  0  0  0  0  0  0  0  0  0  0
  -19.3449   23.2503  -21.5618 P   0  0  0  0  0  0  0  0  0  0  0  0
  -20.1133   24.1117  -20.6152 O   0  0  0  0  0  0  0  0  0  0  0  0
  -17.7651   23.1165  -20.9136 O   0  0  0  0  0  0  0  0  0  0  0  0
  -17.1243   23.0773  -21.6400 H   0  0  0  0  0  0  0  0  0  0  0  0
  -19.1595   24.0107  -23.0765 O   0  0  0  0  0  0  0  0  0  0  0  0
  -20.0404   23.5055  -24.0291 C   0  0  0  0  0  0  0  0  0  0  0  0
  -19.1739   22.9018  -25.1235 C   0  0  0  0  0  0  0  0  0  0  0  0
  -17.9959   23.7110  -25.2600 N   0  0  0  0  0  0  0  0  0  0  0  0
  -17.2699   23.4913  -24.5747 H   0  0  0  0  0  0  0  0  0  0  0  0
  -17.6828   23.8549  -26.2287 H   0  0  0  0  0  0  0  0  0  0  0  0
  -19.8927   22.6697  -26.3796 C   0  0  0  0  0  0  0  0  0  0  0  0
  -20.9895   23.2222  -26.6133 O   0  0  0  0  0  0  0  0  0  0  0  0
  -19.3643   21.8260  -27.3377 O   0  0  0  0  0  0  0  0  0  0  0  0
  -18.5456   21.9730  -27.8791 H   0  0  0  0  0  0  0  0  0  0  0  0
  -18.6273   16.9970  -17.4812 C   0  0  0  0  0  0  0  0  0  0  0  0
  -18.1843   15.8365  -18.2718 C   0  0  0  0  0  0  0  0  0  0  0  0
  -18.8475   15.6773  -20.7075 C   0  0  0  0  0  0  0  0  0  0  0  0
  -18.5995   16.0510  -22.0003 C   0  0  0  0  0  0  0  0  0  0  0  0
  -17.4735   16.7981  -22.3701 C   0  0  0  0  0  0  0  0  0  0  0  0
  -16.5964   17.1589  -21.3760 C   0  0  0  0  0  0  0  0  0  0  0  0
  -16.8226   16.8004  -20.0743 C   0  0  0  0  0  0  0  0  0  0  0  0
  -17.9396   16.0643  -19.7224 C   0  0  0  0  0  0  0  0  0  0  0  0
  -19.9335   14.9434  -20.3787 O   0  0  0  0  0  0  0  0  0  0  0  0
  -20.1145   13.6443  -19.9902 C   0  0  0  0  0  0  0  0  0  0  0  0
  -17.0301   11.9101  -21.3483 C   0  0  0  0  0  0  0  0  0  0  0  0
  -16.6606   11.0725  -20.2927 C   0  0  0  0  0  0  0  0  0  0  0  0
  -17.4551   11.1161  -19.1733 C   0  0  0  0  0  0  0  0  0  0  0  0
  -18.5552   11.9362  -19.0867 C   0  0  0  0  0  0  0  0  0  0  0  0
  -18.9004   12.7590  -20.1477 C   0  0  0  0  0  0  0  0  0  0  0  0
  -18.1266   12.7324  -21.2698 C   0  0  0  0  0  0  0  0  0  0  0  0
  -16.2232   11.8525  -22.4726 O   0  0  0  0  0  0  0  0  0  0  0  0
  -15.9961   15.7336  -26.5130 C   0  0  0  0  0  0  0  0  0  0  0  0
  -16.0502   14.7164  -25.4445 C   0  0  0  0  0  0  0  0  0  0  0  0
  -15.0110   14.6174  -24.5290 C   0  0  0  0  0  0  0  0  0  0  0  0
  -15.0942   13.6446  -23.5361 C   0  0  0  0  0  0  0  0  0  0  0  0
  -16.1649   12.7937  -23.4453 C   0  0  0  0  0  0  0  0  0  0  0  0
  -17.1956   12.9142  -24.3774 C   0  0  0  0  0  0  0  0  0  0  0  0
  -17.1482   13.8627  -25.3706 C   0  0  0  0  0  0  0  0  0  0  0  0
 43 44  1  0  0  0
 44 45  2  0  0  0
 45 46  1  0  0  0
 46 47  2  0  0  0
 47 42  1  0  0  0
 42 36  1  0  0  0
 36 37  2  0  0  0
 37 38  1  0  0  0
 38 39  2  0  0  0
 39 40  1  0  0  0
 40 35  1  0  0  0
 35 34  1  0  0  0
 34 28  1  0  0  0
 28 29  2  0  0  0
 29 30  1  0  0  0
 30 31  2  0  0  0
 31 32  1  0  0  0
 32 33  2  0  0  0
 33 27  1  0  0  0
 27 26  1  0  0  0
 26  1  1  0  0  0
  1  2  2  0  0  0
  1  3  1  0  0  0
  3  4  1  0  0  0
  4  5  1  0  0  0
  5  6  1  0  0  0
  6  7  1  0  0  0
  7  8  1  0  0  0
  8  9  1  0  0  0
  9 10  1  0  0  0
 10 11  1  0  0  0
 11 12  1  0  0  0
 12 13  2  0  0  0
 12 14  1  0  0  0
 12 16  1  0  0  0
 16 17  1  0  0  0
 17 18  1  0  0  0
 18 19  1  0  0  0
 18 22  1  0  0  0
 22 23  2  0  0  0
 22 24  1  0  0  0
 40 41  2  0  0  0
 47 48  1  0  0  0
 48 49  2  0  0  0
 49 44  1  0  0  0
 41 36  1  0  0  0
 33 28  1  0  0  0
 10  5  1  0  0  0
 14 15  1  0  0  0
 19 20  1  0  0  0
 19 21  1  0  0  0
 24 25  1  0  0  0
M  END
> <minimizedAffinity>
-8.73069

> <CNNscore>
0.2639491558

> <CNNaffinity>
6.6644768715

> <CNN_VS>
1.7590830326

> <CNNaffinity_variance>
0.3498660922

$$$$
[H]OC(=O)[C@@]([H])(N([H])[H])C([H])([H])OP(=O)(O[H])O[C@]1([H])C([H])([H])C([H])([H])C([H])([H])O[C@]1([H])C([H])([H])OC(=O)C([H])([H])C([H])([H])c1c([H])c([H])c([H])c([H])c1OC([H])([H])c1c([H])c([H])c([H])c(Oc2c([H])c([H])c(C([H])([H])[H])c([H])c2[H])c1[H]


 49 52  0  0  0  0  0  0  0  0999 V2000
  -21.2748   14.9639  -19.0451 C   0  0  0  0  0  0  0  0  0  0  0  0
  -21.8386   15.4307  -18.0417 O   0  0  0  0  0  0  0  0  0  0  0  0
  -21.4271   15.6743  -20.2596 O   0  0  0  0  0  0  0  0  0  0  0  0
  -21.6265   17.0137  -20.3739 C   0  0  0  0  0  0  0  0  0  0  0  0
  -22.3750   17.5505  -21.5564 C   0  0  0  0  0  0  0  0  0  0  0  0
  -23.3349   18.4722  -21.2319 O   0  0  0  0  0  0  0  0  0  0  0  0
  -23.5402   19.4858  -22.1343 C   0  0  0  0  0  0  0  0  0  0  0  0
  -23.3838   19.1162  -23.5751 C   0  0  0  0  0  0  0  0  0  0  0  0
  -22.2070   18.2552  -23.8693 C   0  0  0  0  0  0  0  0  0  0  0  0
  -21.3902   18.0951  -22.5991 C   0  0  0  0  0  0  0  0  0  0  0  0
  -20.7552   19.2415  -22.2247 O   0  0  0  0  0  0  0  0  0  0  0  0
  -19.1671   19.3936  -22.7101 P   0  0  0  0  0  0  0  0  0  0  0  0
  -18.9757   20.0844  -24.0195 O   0  0  0  0  0  0  0  0  0  0  0  0
  -18.2488   20.2753  -21.5641 O   0  0  0  0  0  0  0  0  0  0  0  0
  -17.8844   19.6624  -20.9074 H   0  0  0  0  0  0  0  0  0  0  0  0
  -18.4936   17.8274  -22.7346 O   0  0  0  0  0  0  0  0  0  0  0  0
  -17.2876   17.7635  -22.0418 C   0  0  0  0  0  0  0  0  0  0  0  0
  -17.4781   16.7073  -20.9642 C   0  0  0  0  0  0  0  0  0  0  0  0
  -18.5155   15.8121  -21.3925 N   0  0  0  0  0  0  0  0  0  0  0  0
  -18.1877   15.0871  -22.0343 H   0  0  0  0  0  0  0  0  0  0  0  0
  -19.1566   15.5089  -20.6480 H   0  0  0  0  0  0  0  0  0  0  0  0
  -17.6816   17.2662  -19.6246 C   0  0  0  0  0  0  0  0  0  0  0  0
  -18.0699   16.5530  -18.6742 O   0  0  0  0  0  0  0  0  0  0  0  0
  -17.4455   18.6067  -19.3869 O   0  0  0  0  0  0  0  0  0  0  0  0
  -16.5695   19.0729  -19.4054 H   0  0  0  0  0  0  0  0  0  0  0  0
  -20.4820   13.7390  -19.0467 C   0  0  0  0  0  0  0  0  0  0  0  0
  -19.7145   13.3612  -17.8483 C   0  0  0  0  0  0  0  0  0  0  0  0
  -19.0602   10.9377  -17.5380 C   0  0  0  0  0  0  0  0  0  0  0  0
  -19.2812    9.7544  -16.8873 C   0  0  0  0  0  0  0  0  0  0  0  0
  -20.3549    9.5627  -16.0079 C   0  0  0  0  0  0  0  0  0  0  0  0
  -21.2075   10.6210  -15.8065 C   0  0  0  0  0  0  0  0  0  0  0  0
  -21.0072   11.8165  -16.4428 C   0  0  0  0  0  0  0  0  0  0  0  0
  -19.9418   11.9932  -17.3072 C   0  0  0  0  0  0  0  0  0  0  0  0
  -18.0256   11.0927  -18.3934 O   0  0  0  0  0  0  0  0  0  0  0  0
  -17.3594   10.2446  -19.2350 C   0  0  0  0  0  0  0  0  0  0  0  0
  -16.9125   12.4476  -22.2866 C   0  0  0  0  0  0  0  0  0  0  0  0
  -15.6957   12.0023  -22.8096 C   0  0  0  0  0  0  0  0  0  0  0  0
  -15.0752   10.9844  -22.1275 C   0  0  0  0  0  0  0  0  0  0  0  0
  -15.6139   10.4284  -20.9914 C   0  0  0  0  0  0  0  0  0  0  0  0
  -16.8223   10.8887  -20.4917 C   0  0  0  0  0  0  0  0  0  0  0  0
  -17.4570   11.8984  -21.1523 C   0  0  0  0  0  0  0  0  0  0  0  0
  -17.5296   13.4710  -22.9869 O   0  0  0  0  0  0  0  0  0  0  0  0
  -15.9759   15.3677  -28.0296 C   0  0  0  0  0  0  0  0  0  0  0  0
  -16.3860   14.8603  -26.7053 C   0  0  0  0  0  0  0  0  0  0  0  0
  -17.1300   13.6918  -26.6111 C   0  0  0  0  0  0  0  0  0  0  0  0
  -17.5016   13.2441  -25.3459 C   0  0  0  0  0  0  0  0  0  0  0  0
  -17.1543   13.9236  -24.2074 C   0  0  0  0  0  0  0  0  0  0  0  0
  -16.4064   15.0948  -24.3297 C   0  0  0  0  0  0  0  0  0  0  0  0
  -16.0212   15.5665  -25.5615 C   0  0  0  0  0  0  0  0  0  0  0  0
 43 44  1  0  0  0
 44 45  2  0  0  0
 45 46  1  0  0  0
 46 47  2  0  0  0
 47 42  1  0  0  0
 42 36  1  0  0  0
 36 37  2  0  0  0
 37 38  1  0  0  0
 38 39  2  0  0  0
 39 40  1  0  0  0
 40 35  1  0  0  0
 35 34  1  0  0  0
 34 28  1  0  0  0
 28 29  2  0  0  0
 29 30  1  0  0  0
 30 31  2  0  0  0
 31 32  1  0  0  0
 32 33  2  0  0  0
 33 27  1  0  0  0
 27 26  1  0  0  0
 26  1  1  0  0  0
  1  2  2  0  0  0
  1  3  1  0  0  0
  3  4  1  0  0  0
  4  5  1  0  0  0
  5  6  1  0  0  0
  6  7  1  0  0  0
  7  8  1  0  0  0
  8  9  1  0  0  0
  9 10  1  0  0  0
 10 11  1  0  0  0
 11 12  1  0  0  0
 12 13  2  0  0  0
 12 14  1  0  0  0
 12 16  1  0  0  0
 16 17  1  0  0  0
 17 18  1  0  0  0
 18 19  1  0  0  0
 18 22  1  0  0  0
 22 23  2  0  0  0
 22 24  1  0  0  0
 40 41  2  0  0  0
 47 48  1  0  0  0
 48 49  2  0  0  0
 49 44  1  0  0  0
 41 36  1  0  0  0
 33 28  1  0  0  0
 10  5  1  0  0  0
 14 15  1  0  0  0
 19 20  1  0  0  0
 19 21  1  0  0  0
 24 25  1  0  0  0
M  END
> <minimizedAffinity>
-8.65667

> <CNNscore>
0.2631258368

> <CNNaffinity>
6.5955367088

> <CNN_VS>
1.7354561090

> <CNNaffinity_variance>
0.7689208388

$$$$
[H]OC(=O)[C@@]([H])(N([H])[H])C([H])([H])OP(=O)(O[H])O[C@]1([H])C([H])([H])C([H])([H])C([H])([H])O[C@]1([H])C([H])([H])OC(=O)C([H])([H])C([H])([H])c1c([H])c([H])c([H])c([H])c1OC([H])([H])c1c([H])c([H])c([H])c(Oc2c([H])c([H])c(C([H])([H])[H])c([H])c2[H])c1[H]


 49 52  0  0  0  0  0  0  0  0999 V2000
  -20.4027   14.5379  -20.0084 C   0  0  0  0  0  0  0  0  0  0  0  0
  -21.5715   14.1510  -19.8447 O   0  0  0  0  0  0  0  0  0  0  0  0
  -20.2216   15.8396  -20.5333 O   0  0  0  0  0  0  0  0  0  0  0  0
  -21.1032   16.8679  -20.4223 C   0  0  0  0  0  0  0  0  0  0  0  0
  -20.7025   18.1070  -19.6803 C   0  0  0  0  0  0  0  0  0  0  0  0
  -19.5144   17.9901  -19.0087 O   0  0  0  0  0  0  0  0  0  0  0  0
  -18.7385   19.1199  -18.9361 C   0  0  0  0  0  0  0  0  0  0  0  0
  -19.4810   20.4135  -18.8243 C   0  0  0  0  0  0  0  0  0  0  0  0
  -20.6606   20.5300  -19.7229 C   0  0  0  0  0  0  0  0  0  0  0  0
  -20.7053   19.3123  -20.6294 C   0  0  0  0  0  0  0  0  0  0  0  0
  -19.7049   19.2989  -21.5549 O   0  0  0  0  0  0  0  0  0  0  0  0
  -20.0775   19.9399  -23.0486 P   0  0  0  0  0  0  0  0  0  0  0  0
  -20.7652   21.2642  -23.0080 O   0  0  0  0  0  0  0  0  0  0  0  0
  -18.6696   20.1597  -23.9992 O   0  0  0  0  0  0  0  0  0  0  0  0
  -18.4943   19.3496  -24.5021 H   0  0  0  0  0  0  0  0  0  0  0  0
  -21.0167   18.7819  -23.8757 O   0  0  0  0  0  0  0  0  0  0  0  0
  -22.3664   19.1227  -23.9026 C   0  0  0  0  0  0  0  0  0  0  0  0
  -22.6671   19.5327  -25.3360 C   0  0  0  0  0  0  0  0  0  0  0  0
  -22.5793   20.9632  -25.4209 N   0  0  0  0  0  0  0  0  0  0  0  0
  -21.6227   21.3061  -25.5316 H   0  0  0  0  0  0  0  0  0  0  0  0
  -23.2951   21.4038  -26.0130 H   0  0  0  0  0  0  0  0  0  0  0  0
  -23.9195   18.9755  -25.8550 C   0  0  0  0  0  0  0  0  0  0  0  0
  -23.9219   18.0176  -26.6582 O   0  0  0  0  0  0  0  0  0  0  0  0
  -25.1329   19.5061  -25.4611 O   0  0  0  0  0  0  0  0  0  0  0  0
  -25.5373   19.4683  -24.5555 H   0  0  0  0  0  0  0  0  0  0  0  0
  -19.2219   13.7371  -19.7027 C   0  0  0  0  0  0  0  0  0  0  0  0
  -18.8679   13.4588  -18.3008 C   0  0  0  0  0  0  0  0  0  0  0  0
  -18.7196   10.9851  -17.7942 C   0  0  0  0  0  0  0  0  0  0  0  0
  -19.2185    9.9141  -17.1039 C   0  0  0  0  0  0  0  0  0  0  0  0
  -20.3806    9.9898  -16.3250 C   0  0  0  0  0  0  0  0  0  0  0  0
  -21.0286   11.2000  -16.2671 C   0  0  0  0  0  0  0  0  0  0  0  0
  -20.5488   12.2878  -16.9459 C   0  0  0  0  0  0  0  0  0  0  0  0
  -19.3990   12.1999  -17.7099 C   0  0  0  0  0  0  0  0  0  0  0  0
  -17.6048   10.8824  -18.5511 O   0  0  0  0  0  0  0  0  0  0  0  0
  -17.2524   10.0961  -19.6135 C   0  0  0  0  0  0  0  0  0  0  0  0
  -16.8110   12.4822  -22.5250 C   0  0  0  0  0  0  0  0  0  0  0  0
  -15.5320   12.1647  -22.9893 C   0  0  0  0  0  0  0  0  0  0  0  0
  -14.8698   11.1667  -22.3169 C   0  0  0  0  0  0  0  0  0  0  0  0
  -15.4267   10.5111  -21.2444 C   0  0  0  0  0  0  0  0  0  0  0  0
  -16.6973   10.8455  -20.8021 C   0  0  0  0  0  0  0  0  0  0  0  0
  -17.3741   11.8329  -21.4545 C   0  0  0  0  0  0  0  0  0  0  0  0
  -17.4691   13.4868  -23.2151 O   0  0  0  0  0  0  0  0  0  0  0  0
  -15.9647   15.5308  -28.2150 C   0  0  0  0  0  0  0  0  0  0  0  0
  -16.3614   14.9846  -26.9021 C   0  0  0  0  0  0  0  0  0  0  0  0
  -17.0505   13.7813  -26.8319 C   0  0  0  0  0  0  0  0  0  0  0  0
  -17.4111   13.2974  -25.5768 C   0  0  0  0  0  0  0  0  0  0  0  0
  -17.1054   13.9750  -24.4253 C   0  0  0  0  0  0  0  0  0  0  0  0
  -16.4125   15.1816  -24.5236 C   0  0  0  0  0  0  0  0  0  0  0  0
  -16.0397   15.6896  -25.7447 C   0  0  0  0  0  0  0  0  0  0  0  0
 43 44  1  0  0  0
 44 45  2  0  0  0
 45 46  1  0  0  0
 46 47  2  0  0  0
 47 42  1  0  0  0
 42 36  1  0  0  0
 36 37  2  0  0  0
 37 38  1  0  0  0
 38 39  2  0  0  0
 39 40  1  0  0  0
 40 35  1  0  0  0
 35 34  1  0  0  0
 34 28  1  0  0  0
 28 29  2  0  0  0
 29 30  1  0  0  0
 30 31  2  0  0  0
 31 32  1  0  0  0
 32 33  2  0  0  0
 33 27  1  0  0  0
 27 26  1  0  0  0
 26  1  1  0  0  0
  1  2  2  0  0  0
  1  3  1  0  0  0
  3  4  1  0  0  0
  4  5  1  0  0  0
  5  6  1  0  0  0
  6  7  1  0  0  0
  7  8  1  0  0  0
  8  9  1  0  0  0
  9 10  1  0  0  0
 10 11  1  0  0  0
 11 12  1  0  0  0
 12 13  2  0  0  0
 12 14  1  0  0  0
 12 16  1  0  0  0
 16 17  1  0  0  0
 17 18  1  0  0  0
 18 19  1  0  0  0
 18 22  1  0  0  0
 22 23  2  0  0  0
 22 24  1  0  0  0
 40 41  2  0  0  0
 47 48  1  0  0  0
 48 49  2  0  0  0
 49 44  1  0  0  0
 41 36  1  0  0  0
 33 28  1  0  0  0
 10  5  1  0  0  0
 14 15  1  0  0  0
 19 20  1  0  0  0
 19 21  1  0  0  0
 24 25  1  0  0  0
M  END
> <minimizedAffinity>
-8.96601

> <CNNscore>
0.2369201928

> <CNNaffinity>
6.4905366898

> <CNN_VS>
1.5377391577

> <CNNaffinity_variance>
0.4216535687

$$$$
[H]OC(=O)[C@@]([H])(N([H])[H])C([H])([H])OP(=O)(O[H])O[C@]1([H])C([H])([H])C([H])([H])C([H])([H])O[C@]1([H])C([H])([H])OC(=O)C([H])([H])C([H])([H])c1c([H])c([H])c([H])c([H])c1OC([H])([H])c1c([H])c([H])c([H])c(Oc2c([H])c([H])c(C([H])([H])[H])c([H])c2[H])c1[H]


 49 52  0  0  0  0  0  0  0  0999 V2000
  -23.6789   17.6462  -21.9612 C   0  0  0  0  0  0  0  0  0  0  0  0
  -24.2601   16.8682  -22.7355 O   0  0  0  0  0  0  0  0  0  0  0  0
  -23.5183   18.9846  -22.3920 O   0  0  0  0  0  0  0  0  0  0  0  0
  -23.1842   20.0369  -21.5995 C   0  0  0  0  0  0  0  0  0  0  0  0
  -23.2247   21.4260  -22.1609 C   0  0  0  0  0  0  0  0  0  0  0  0
  -23.1621   22.4095  -21.2095 O   0  0  0  0  0  0  0  0  0  0  0  0
  -22.4968   23.5580  -21.5591 C   0  0  0  0  0  0  0  0  0  0  0  0
  -22.6263   23.9755  -22.9894 C   0  0  0  0  0  0  0  0  0  0  0  0
  -22.5026   22.8657  -23.9721 C   0  0  0  0  0  0  0  0  0  0  0  0
  -22.1351   21.5940  -23.2278 C   0  0  0  0  0  0  0  0  0  0  0  0
  -20.8651   21.6130  -22.7333 O   0  0  0  0  0  0  0  0  0  0  0  0
  -19.7869   20.5536  -23.4375 P   0  0  0  0  0  0  0  0  0  0  0  0
  -20.4109   19.3588  -24.0789 O   0  0  0  0  0  0  0  0  0  0  0  0
  -18.8643   21.3254  -24.6571 O   0  0  0  0  0  0  0  0  0  0  0  0
  -18.0696   21.7125  -24.2592 H   0  0  0  0  0  0  0  0  0  0  0  0
  -18.6694   20.0951  -22.2341 O   0  0  0  0  0  0  0  0  0  0  0  0
  -19.1820   19.1158  -21.3874 C   0  0  0  0  0  0  0  0  0  0  0  0
  -18.0417   18.1422  -21.1333 C   0  0  0  0  0  0  0  0  0  0  0  0
  -16.9224   18.8850  -20.6268 N   0  0  0  0  0  0  0  0  0  0  0  0
  -16.9777   19.0701  -19.6231 H   0  0  0  0  0  0  0  0  0  0  0  0
  -16.0077   18.5838  -20.9872 H   0  0  0  0  0  0  0  0  0  0  0  0
  -17.7276   17.2930  -22.2859 C   0  0  0  0  0  0  0  0  0  0  0  0
  -17.5288   16.0657  -22.1550 O   0  0  0  0  0  0  0  0  0  0  0  0
  -17.6444   17.8410  -23.5516 O   0  0  0  0  0  0  0  0  0  0  0  0
  -18.3859   18.2262  -24.0872 H   0  0  0  0  0  0  0  0  0  0  0  0
  -23.1527   17.2645  -20.6550 C   0  0  0  0  0  0  0  0  0  0  0  0
  -21.9426   16.4301  -20.5676 C   0  0  0  0  0  0  0  0  0  0  0  0
  -19.9217   15.8791  -19.1499 C   0  0  0  0  0  0  0  0  0  0  0  0
  -19.0858   16.2529  -18.1330 C   0  0  0  0  0  0  0  0  0  0  0  0
  -19.3198   17.3812  -17.3362 C   0  0  0  0  0  0  0  0  0  0  0  0
  -20.4411   18.1278  -17.6062 C   0  0  0  0  0  0  0  0  0  0  0  0
  -21.2920   17.7774  -18.6198 C   0  0  0  0  0  0  0  0  0  0  0  0
  -21.0483   16.6618  -19.4004 C   0  0  0  0  0  0  0  0  0  0  0  0
  -19.6819   14.7772  -19.8946 O   0  0  0  0  0  0  0  0  0  0  0  0
  -19.8717   13.4380  -19.6899 C   0  0  0  0  0  0  0  0  0  0  0  0
  -16.8881   11.8019  -21.3593 C   0  0  0  0  0  0  0  0  0  0  0  0
  -16.4338   10.9192  -20.3761 C   0  0  0  0  0  0  0  0  0  0  0  0
  -17.1410   10.9017  -19.1988 C   0  0  0  0  0  0  0  0  0  0  0  0
  -18.2368   11.7053  -18.9900 C   0  0  0  0  0  0  0  0  0  0  0  0
  -18.6672   12.5738  -19.9811 C   0  0  0  0  0  0  0  0  0  0  0  0
  -17.9810   12.6083  -21.1586 C   0  0  0  0  0  0  0  0  0  0  0  0
  -16.1688   11.8059  -22.5429 O   0  0  0  0  0  0  0  0  0  0  0  0
  -16.2067   15.9148  -26.3579 C   0  0  0  0  0  0  0  0  0  0  0  0
  -16.1912   14.8377  -25.3486 C   0  0  0  0  0  0  0  0  0  0  0  0
  -15.1337   14.7418  -24.4540 C   0  0  0  0  0  0  0  0  0  0  0  0
  -15.1508   13.7116  -23.5171 C   0  0  0  0  0  0  0  0  0  0  0  0
  -16.1747   12.8021  -23.4610 C   0  0  0  0  0  0  0  0  0  0  0  0
  -17.2251   12.9209  -24.3710 C   0  0  0  0  0  0  0  0  0  0  0  0
  -17.2425   13.9249  -25.3090 C   0  0  0  0  0  0  0  0  0  0  0  0
 43 44  1  0  0  0
 44 45  2  0  0  0
 45 46  1  0  0  0
 46 47  2  0  0  0
 47 42  1  0  0  0
 42 36  1  0  0  0
 36 37  2  0  0  0
 37 38  1  0  0  0
 38 39  2  0  0  0
 39 40  1  0  0  0
 40 35  1  0  0  0
 35 34  1  0  0  0
 34 28  1  0  0  0
 28 29  2  0  0  0
 29 30  1  0  0  0
 30 31  2  0  0  0
 31 32  1  0  0  0
 32 33  2  0  0  0
 33 27  1  0  0  0
 27 26  1  0  0  0
 26  1  1  0  0  0
  1  2  2  0  0  0
  1  3  1  0  0  0
  3  4  1  0  0  0
  4  5  1  0  0  0
  5  6  1  0  0  0
  6  7  1  0  0  0
  7  8  1  0  0  0
  8  9  1  0  0  0
  9 10  1  0  0  0
 10 11  1  0  0  0
 11 12  1  0  0  0
 12 13  2  0  0  0
 12 14  1  0  0  0
 12 16  1  0  0  0
 16 17  1  0  0  0
 17 18  1  0  0  0
 18 19  1  0  0  0
 18 22  1  0  0  0
 22 23  2  0  0  0
 22 24  1  0  0  0
 40 41  2  0  0  0
 47 48  1  0  0  0
 48 49  2  0  0  0
 49 44  1  0  0  0
 41 36  1  0  0  0
 33 28  1  0  0  0
 10  5  1  0  0  0
 14 15  1  0  0  0
 19 20  1  0  0  0
 19 21  1  0  0  0
 24 25  1  0  0  0
M  END
> <minimizedAffinity>
-7.95089

> <CNNscore>
0.2298778594

> <CNNaffinity>
6.2464342117

> <CNN_VS>
1.4359169006

> <CNNaffinity_variance>
0.8306785822

$$$$
[H]OC(=O)[C@@]([H])(N([H])[H])C([H])([H])OP(=O)(O[H])O[C@]1([H])C([H])([H])C([H])([H])C([H])([H])O[C@]1([H])C([H])([H])OC(=O)C([H])([H])C([H])([H])c1c([H])c([H])c([H])c([H])c1OC([H])([H])c1c([H])c([H])c([H])c(Oc2c([H])c([H])c(C([H])([H])[H])c([H])c2[H])c1[H]


 49 52  0  0  0  0  0  0  0  0999 V2000
  -20.8513   14.6906  -18.1163 C   0  0  0  0  0  0  0  0  0  0  0  0
  -21.4863   14.2752  -19.0995 O   0  0  0  0  0  0  0  0  0  0  0  0
  -20.9502   16.0711  -17.8208 O   0  0  0  0  0  0  0  0  0  0  0  0
  -19.9611   16.8415  -17.2964 C   0  0  0  0  0  0  0  0  0  0  0  0
  -18.9731   17.4987  -18.2120 C   0  0  0  0  0  0  0  0  0  0  0  0
  -18.0534   16.6351  -18.7455 O   0  0  0  0  0  0  0  0  0  0  0  0
  -17.6303   16.9040  -20.0232 C   0  0  0  0  0  0  0  0  0  0  0  0
  -17.5202   18.3521  -20.3812 C   0  0  0  0  0  0  0  0  0  0  0  0
  -18.6555   19.1930  -19.9158 C   0  0  0  0  0  0  0  0  0  0  0  0
  -19.7103   18.2907  -19.2997 C   0  0  0  0  0  0  0  0  0  0  0  0
  -20.3527   17.5158  -20.2186 O   0  0  0  0  0  0  0  0  0  0  0  0
  -21.8758   18.0226  -20.6704 P   0  0  0  0  0  0  0  0  0  0  0  0
  -22.9464   16.9919  -20.5292 O   0  0  0  0  0  0  0  0  0  0  0  0
  -22.3827   19.3705  -19.7430 O   0  0  0  0  0  0  0  0  0  0  0  0
  -22.0914   20.1858  -20.1793 H   0  0  0  0  0  0  0  0  0  0  0  0
  -21.7665   18.5826  -22.2771 O   0  0  0  0  0  0  0  0  0  0  0  0
  -22.7768   18.0652  -23.0835 C   0  0  0  0  0  0  0  0  0  0  0  0
  -22.4911   18.5694  -24.4895 C   0  0  0  0  0  0  0  0  0  0  0  0
  -22.0937   19.9461  -24.4000 N   0  0  0  0  0  0  0  0  0  0  0  0
  -21.1070   20.0700  -24.1633 H   0  0  0  0  0  0  0  0  0  0  0  0
  -22.4656   20.5505  -25.1440 H   0  0  0  0  0  0  0  0  0  0  0  0
  -23.5823   18.3191  -25.4356 C   0  0  0  0  0  0  0  0  0  0  0  0
  -23.5402   17.3621  -26.2388 O   0  0  0  0  0  0  0  0  0  0  0  0
  -24.6886   19.1465  -25.4562 O   0  0  0  0  0  0  0  0  0  0  0  0
  -25.3773   19.2432  -24.7482 H   0  0  0  0  0  0  0  0  0  0  0  0
  -20.0148   13.8517  -17.2645 C   0  0  0  0  0  0  0  0  0  0  0  0
  -19.1055   12.8662  -17.8726 C   0  0  0  0  0  0  0  0  0  0  0  0
  -18.4222   10.4308  -17.8806 C   0  0  0  0  0  0  0  0  0  0  0  0
  -18.5892    9.1812  -17.3488 C   0  0  0  0  0  0  0  0  0  0  0  0
  -19.5917    8.8824  -16.4168 C   0  0  0  0  0  0  0  0  0  0  0  0
  -20.4295    9.9027  -16.0364 C   0  0  0  0  0  0  0  0  0  0  0  0
  -20.2820   11.1627  -16.5511 C   0  0  0  0  0  0  0  0  0  0  0  0
  -19.2866   11.4447  -17.4692 C   0  0  0  0  0  0  0  0  0  0  0  0
  -17.4566   10.6900  -18.7899 O   0  0  0  0  0  0  0  0  0  0  0  0
  -17.3142   10.4150  -20.1224 C   0  0  0  0  0  0  0  0  0  0  0  0
  -16.2973   12.9444  -22.7555 C   0  0  0  0  0  0  0  0  0  0  0  0
  -17.2780   13.9313  -22.6261 C   0  0  0  0  0  0  0  0  0  0  0  0
  -18.2357   13.7167  -21.6653 C   0  0  0  0  0  0  0  0  0  0  0  0
  -18.2378   12.5951  -20.8702 C   0  0  0  0  0  0  0  0  0  0  0  0
  -17.2542   11.6296  -21.0189 C   0  0  0  0  0  0  0  0  0  0  0  0
  -16.2925   11.8212  -21.9660 C   0  0  0  0  0  0  0  0  0  0  0  0
  -15.3353   13.1759  -23.7246 O   0  0  0  0  0  0  0  0  0  0  0  0
  -16.1993   15.8478  -28.5779 C   0  0  0  0  0  0  0  0  0  0  0  0
  -15.9674   15.1512  -27.2971 C   0  0  0  0  0  0  0  0  0  0  0  0
  -14.9184   15.5424  -26.4758 C   0  0  0  0  0  0  0  0  0  0  0  0
  -14.7277   14.8612  -25.2763 C   0  0  0  0  0  0  0  0  0  0  0  0
  -15.5416   13.8264  -24.8949 C   0  0  0  0  0  0  0  0  0  0  0  0
  -16.5882   13.4534  -25.7381 C   0  0  0  0  0  0  0  0  0  0  0  0
  -16.8074   14.1029  -26.9291 C   0  0  0  0  0  0  0  0  0  0  0  0
 43 44  1  0  0  0
 44 45  2  0  0  0
 45 46  1  0  0  0
 46 47  2  0  0  0
 47 42  1  0  0  0
 42 36  1  0  0  0
 36 37  2  0  0  0
 37 38  1  0  0  0
 38 39  2  0  0  0
 39 40  1  0  0  0
 40 35  1  0  0  0
 35 34  1  0  0  0
 34 28  1  0  0  0
 28 29  2  0  0  0
 29 30  1  0  0  0
 30 31  2  0  0  0
 31 32  1  0  0  0
 32 33  2  0  0  0
 33 27  1  0  0  0
 27 26  1  0  0  0
 26  1  1  0  0  0
  1  2  2  0  0  0
  1  3  1  0  0  0
  3  4  1  0  0  0
  4  5  1  0  0  0
  5  6  1  0  0  0
  6  7  1  0  0  0
  7  8  1  0  0  0
  8  9  1  0  0  0
  9 10  1  0  0  0
 10 11  1  0  0  0
 11 12  1  0  0  0
 12 13  2  0  0  0
 12 14  1  0  0  0
 12 16  1  0  0  0
 16 17  1  0  0  0
 17 18  1  0  0  0
 18 19  1  0  0  0
 18 22  1  0  0  0
 22 23  2  0  0  0
 22 24  1  0  0  0
 40 41  2  0  0  0
 47 48  1  0  0  0
 48 49  2  0  0  0
 49 44  1  0  0  0
 41 36  1  0  0  0
 33 28  1  0  0  0
 10  5  1  0  0  0
 14 15  1  0  0  0
 19 20  1  0  0  0
 19 21  1  0  0  0
 24 25  1  0  0  0
M  END
> <minimizedAffinity>
-9.01382

> <CNNscore>
0.2221467793

> <CNNaffinity>
6.8004417419

> <CNN_VS>
1.5106961727

> <CNNaffinity_variance>
0.1389316916

$$$$
[H]OC(=O)[C@@]([H])(N([H])[H])C([H])([H])OP(=O)(O[H])O[C@]1([H])C([H])([H])C([H])([H])C([H])([H])O[C@]1([H])C([H])([H])OC(=O)C([H])([H])C([H])([H])c1c([H])c([H])c([H])c([H])c1OC([H])([H])c1c([H])c([H])c([H])c(Oc2c([H])c([H])c(C([H])([H])[H])c([H])c2[H])c1[H]


 49 52  0  0  0  0  0  0  0  0999 V2000
  -19.2075   14.8556  -16.9145 C   0  0  0  0  0  0  0  0  0  0  0  0
  -18.1145   14.4429  -16.4934 O   0  0  0  0  0  0  0  0  0  0  0  0
  -19.3535   16.2551  -17.0661 O   0  0  0  0  0  0  0  0  0  0  0  0
  -19.3374   16.9298  -18.2456 C   0  0  0  0  0  0  0  0  0  0  0  0
  -18.0905   16.9330  -19.0774 C   0  0  0  0  0  0  0  0  0  0  0  0
  -17.8145   15.7272  -19.6656 O   0  0  0  0  0  0  0  0  0  0  0  0
  -17.2258   15.7710  -20.9047 C   0  0  0  0  0  0  0  0  0  0  0  0
  -16.2655   16.8953  -21.1298 C   0  0  0  0  0  0  0  0  0  0  0  0
  -16.7243   18.2138  -20.6161 C   0  0  0  0  0  0  0  0  0  0  0  0
  -18.1475   18.0699  -20.1059 C   0  0  0  0  0  0  0  0  0  0  0  0
  -19.0554   17.8774  -21.1040 O   0  0  0  0  0  0  0  0  0  0  0  0
  -20.0850   19.1515  -21.4161 P   0  0  0  0  0  0  0  0  0  0  0  0
  -19.6144   20.4753  -20.9114 O   0  0  0  0  0  0  0  0  0  0  0  0
  -20.3431   19.3441  -23.0985 O   0  0  0  0  0  0  0  0  0  0  0  0
  -21.0972   18.7989  -23.3702 H   0  0  0  0  0  0  0  0  0  0  0  0
  -21.6053   18.7457  -20.7594 O   0  0  0  0  0  0  0  0  0  0  0  0
  -22.6453   19.4339  -21.3785 C   0  0  0  0  0  0  0  0  0  0  0  0
  -23.7756   18.4292  -21.5401 C   0  0  0  0  0  0  0  0  0  0  0  0
  -23.7748   17.5654  -20.3935 N   0  0  0  0  0  0  0  0  0  0  0  0
  -24.2549   17.9637  -19.5837 H   0  0  0  0  0  0  0  0  0  0  0  0
  -23.9677   16.5767  -20.5996 H   0  0  0  0  0  0  0  0  0  0  0  0
  -23.7538   17.7234  -22.8245 C   0  0  0  0  0  0  0  0  0  0  0  0
  -23.0088   18.0934  -23.7577 O   0  0  0  0  0  0  0  0  0  0  0  0
  -24.5664   16.6247  -23.0283 O   0  0  0  0  0  0  0  0  0  0  0  0
  -24.4983   15.7392  -22.5853 H   0  0  0  0  0  0  0  0  0  0  0  0
  -20.3367   13.9947  -17.2502 C   0  0  0  0  0  0  0  0  0  0  0  0
  -20.1315   12.8204  -18.1143 C   0  0  0  0  0  0  0  0  0  0  0  0
  -18.9824   10.6177  -17.6394 C   0  0  0  0  0  0  0  0  0  0  0  0
  -18.9241    9.4853  -16.8734 C   0  0  0  0  0  0  0  0  0  0  0  0
  -19.8897    9.1740  -15.9072 C   0  0  0  0  0  0  0  0  0  0  0  0
  -20.9286   10.0574  -15.7399 C   0  0  0  0  0  0  0  0  0  0  0  0
  -21.0087   11.1991  -16.4912 C   0  0  0  0  0  0  0  0  0  0  0  0
  -20.0474   11.4956  -17.4406 C   0  0  0  0  0  0  0  0  0  0  0  0
  -18.0462   10.8879  -18.5758 O   0  0  0  0  0  0  0  0  0  0  0  0
  -17.2676   10.1086  -19.3868 C   0  0  0  0  0  0  0  0  0  0  0  0
  -16.9310   12.3358  -22.4349 C   0  0  0  0  0  0  0  0  0  0  0  0
  -15.6566   12.0142  -22.9092 C   0  0  0  0  0  0  0  0  0  0  0  0
  -14.9626   11.0666  -22.1975 C   0  0  0  0  0  0  0  0  0  0  0  0
  -15.4847   10.4625  -21.0783 C   0  0  0  0  0  0  0  0  0  0  0  0
  -16.7514   10.7997  -20.6270 C   0  0  0  0  0  0  0  0  0  0  0  0
  -17.4595   11.7378  -21.3179 C   0  0  0  0  0  0  0  0  0  0  0  0
  -17.6215   13.2892  -23.1648 O   0  0  0  0  0  0  0  0  0  0  0  0
  -15.9512   15.4506  -28.0615 C   0  0  0  0  0  0  0  0  0  0  0  0
  -16.3902   14.8894  -26.7686 C   0  0  0  0  0  0  0  0  0  0  0  0
  -16.0823   15.5495  -25.5866 C   0  0  0  0  0  0  0  0  0  0  0  0
  -16.5101   14.9899  -24.3853 C   0  0  0  0  0  0  0  0  0  0  0  0
  -17.2180   13.8169  -24.3455 C   0  0  0  0  0  0  0  0  0  0  0  0
  -17.5144   13.1738  -25.5473 C   0  0  0  0  0  0  0  0  0  0  0  0
  -17.1092   13.6966  -26.7518 C   0  0  0  0  0  0  0  0  0  0  0  0
 43 44  1  0  0  0
 44 45  2  0  0  0
 45 46  1  0  0  0
 46 47  2  0  0  0
 47 42  1  0  0  0
 42 36  1  0  0  0
 36 37  2  0  0  0
 37 38  1  0  0  0
 38 39  2  0  0  0
 39 40  1  0  0  0
 40 35  1  0  0  0
 35 34  1  0  0  0
 34 28  1  0  0  0
 28 29  2  0  0  0
 29 30  1  0  0  0
 30 31  2  0  0  0
 31 32  1  0  0  0
 32 33  2  0  0  0
 33 27  1  0  0  0
 27 26  1  0  0  0
 26  1  1  0  0  0
  1  2  2  0  0  0
  1  3  1  0  0  0
  3  4  1  0  0  0
  4  5  1  0  0  0
  5  6  1  0  0  0
  6  7  1  0  0  0
  7  8  1  0  0  0
  8  9  1  0  0  0
  9 10  1  0  0  0
 10 11  1  0  0  0
 11 12  1  0  0  0
 12 13  2  0  0  0
 12 14  1  0  0  0
 12 16  1  0  0  0
 16 17  1  0  0  0
 17 18  1  0  0  0
 18 19  1  0  0  0
 18 22  1  0  0  0
 22 23  2  0  0  0
 22 24  1  0  0  0
 40 41  2  0  0  0
 47 48  1  0  0  0
 48 49  2  0  0  0
 49 44  1  0  0  0
 41 36  1  0  0  0
 33 28  1  0  0  0
 10  5  1  0  0  0
 14 15  1  0  0  0
 19 20  1  0  0  0
 19 21  1  0  0  0
 24 25  1  0  0  0
M  END
> <minimizedAffinity>
-8.87156

> <CNNscore>
0.2128484696

> <CNNaffinity>
6.7326407433

> <CNN_VS>
1.4330322742

> <CNNaffinity_variance>
0.2700027823

$$$$
[H]C([H])([H])C1([H])OC([H])(C([H])([H])[N+](C([H])([H])[H])(C([H])([H])[H])C([H])([H])[H])C([H])([H])OC1([H])[H].[I-]


 12 12  0  0  0  0  0  0  0  0999 V2000
  -16.0412   17.8529  -20.4863 C   0  0  0  0  0  0  0  0  0  0  0  0
  -16.7193   16.9536  -21.5255 C   0  0  0  0  0  0  0  0  0  0  0  0
  -18.0395   17.6277  -21.8575 C   0  0  0  0  0  0  0  0  0  0  0  0
  -17.8047   18.3487  -23.0525 O   0  0  0  0  0  0  0  0  0  0  0  0
  -17.6963   17.3611  -24.0517 C   0  0  0  0  0  0  0  0  0  0  0  0
  -16.5158   16.4373  -23.7740 C   0  0  0  0  0  0  0  0  0  0  0  0
  -15.8864   16.8328  -22.6072 O   0  0  0  0  0  0  0  0  0  0  0  0
  -15.5831   16.5358  -24.9371 C   0  0  0  0  0  0  0  0  0  0  0  0
  -15.2917   15.3218  -25.5997 N   0  0  0  0  0  0  0  0  0  0  0  0
  -13.9114   14.9136  -25.2920 C   0  0  0  0  0  0  0  0  0  0  0  0
  -15.3613   15.5418  -27.0529 C   0  0  0  0  0  0  0  0  0  0  0  0
  -16.1386   14.2186  -25.2987 C   0  0  0  0  0  0  0  0  0  0  0  0
  1  2  1  0  0  0
  2  3  1  0  0  0
  3  4  1  0  0  0
  4  5  1  0  0  0
  5  6  1  0  0  0
  6  8  1  0  0  0
  8  9  1  0  0  0
  9 10  1  0  0  0
  9 11  1  0  0  0
  9 12  1  0  0  0
  6  7  1  0  0  0
  7  2  1  0  0  0
M  CHG 1   9   1
M  END
> <minimizedAffinity>
-4.17760

> <CNNscore>
0.5488823652

> <CNNaffinity>
3.8479664326

> <CNN_VS>
2.1120808125

> <CNNaffinity_variance>
0.3636949956

$$$$
[H]C([H])([H])C1([H])OC([H])(C([H])([H])[N+](C([H])([H])[H])(C([H])([H])[H])C([H])([H])[H])C([H])([H])OC1([H])[H].[I-]


 12 12  0  0  0  0  0  0  0  0999 V2000
  -14.8914   13.9029  -24.4003 C   0  0  0  0  0  0  0  0  0  0  0  0
  -14.9138   15.3928  -24.0424 C   0  0  0  0  0  0  0  0  0  0  0  0
  -15.1228   16.1303  -25.3539 C   0  0  0  0  0  0  0  0  0  0  0  0
  -16.5081   16.4143  -25.4102 O   0  0  0  0  0  0  0  0  0  0  0  0
  -16.7065   17.4237  -24.4472 C   0  0  0  0  0  0  0  0  0  0  0  0
  -16.3458   16.9211  -23.0539 C   0  0  0  0  0  0  0  0  0  0  0  0
  -15.9178   15.6080  -23.1347 O   0  0  0  0  0  0  0  0  0  0  0  0
  -17.5713   17.0263  -22.2056 C   0  0  0  0  0  0  0  0  0  0  0  0
  -17.4304   17.7584  -21.0048 N   0  0  0  0  0  0  0  0  0  0  0  0
  -18.1913   17.0953  -19.9334 C   0  0  0  0  0  0  0  0  0  0  0  0
  -18.0198   19.0941  -21.1875 C   0  0  0  0  0  0  0  0  0  0  0  0
  -16.1018   17.9444  -20.5304 C   0  0  0  0  0  0  0  0  0  0  0  0
  1  2  1  0  0  0
  2  3  1  0  0  0
  3  4  1  0  0  0
  4  5  1  0  0  0
  5  6  1  0  0  0
  6  8  1  0  0  0
  8  9  1  0  0  0
  9 10  1  0  0  0
  9 11  1  0  0  0
  9 12  1  0  0  0
  6  7  1  0  0  0
  7  2  1  0  0  0
M  CHG 1   9   1
M  END
> <minimizedAffinity>
-4.05868

> <CNNscore>
0.4035106599

> <CNNaffinity>
3.5702362061

> <CNN_VS>
1.4406284094

> <CNNaffinity_variance>
0.3691413999

$$$$
[H]C([H])([H])C1([H])OC([H])(C([H])([H])[N+](C([H])([H])[H])(C([H])([H])[H])C([H])([H])[H])C([H])([H])OC1([H])[H].[I-]


 12 12  0  0  0  0  0  0  0  0999 V2000
  -17.6711   11.8514  -18.9486 C   0  0  0  0  0  0  0  0  0  0  0  0
  -18.6438   13.0252  -18.7920 C   0  0  0  0  0  0  0  0  0  0  0  0
  -18.9523   13.1117  -17.3071 C   0  0  0  0  0  0  0  0  0  0  0  0
  -18.0987   14.1216  -16.8029 O   0  0  0  0  0  0  0  0  0  0  0  0
  -18.6319   15.3254  -17.3051 C   0  0  0  0  0  0  0  0  0  0  0  0
  -18.5937   15.3403  -18.8290 C   0  0  0  0  0  0  0  0  0  0  0  0
  -18.0468   14.1550  -19.2873 O   0  0  0  0  0  0  0  0  0  0  0  0
  -17.7568   16.5052  -19.2475 C   0  0  0  0  0  0  0  0  0  0  0  0
  -18.2353   17.2439  -20.3534 N   0  0  0  0  0  0  0  0  0  0  0  0
  -17.4436   16.9078  -21.5479 C   0  0  0  0  0  0  0  0  0  0  0  0
  -18.0336   18.6781  -20.0935 C   0  0  0  0  0  0  0  0  0  0  0  0
  -19.6066   17.0641  -20.6877 C   0  0  0  0  0  0  0  0  0  0  0  0
  1  2  1  0  0  0
  2  3  1  0  0  0
  3  4  1  0  0  0
  4  5  1  0  0  0
  5  6  1  0  0  0
  6  8  1  0  0  0
  8  9  1  0  0  0
  9 10  1  0  0  0
  9 11  1  0  0  0
  9 12  1  0  0  0
  6  7  1  0  0  0
  7  2  1  0  0  0
M  CHG 1   9   1
M  END
> <minimizedAffinity>
-3.67163

> <CNNscore>
0.3345948458

> <CNNaffinity>
3.4662327766

> <CNN_VS>
1.1597836018

> <CNNaffinity_variance>
0.1392958015

$$$$
[H]C([H])([H])C1([H])OC([H])(C([H])([H])[N+](C([H])([H])[H])(C([H])([H])[H])C([H])([H])[H])C([H])([H])OC1([H])[H].[I-]


 12 12  0  0  0  0  0  0  0  0999 V2000
  -15.7235   10.0859  -21.1306 C   0  0  0  0  0  0  0  0  0  0  0  0
  -17.0725   10.6182  -20.6353 C   0  0  0  0  0  0  0  0  0  0  0  0
  -17.2077   10.1332  -19.2022 C   0  0  0  0  0  0  0  0  0  0  0  0
  -16.8031   11.2232  -18.3954 O   0  0  0  0  0  0  0  0  0  0  0  0
  -17.8485   12.1612  -18.5095 C   0  0  0  0  0  0  0  0  0  0  0  0
  -18.0037   12.6260  -19.9531 C   0  0  0  0  0  0  0  0  0  0  0  0
  -17.0692   11.9843  -20.7462 O   0  0  0  0  0  0  0  0  0  0  0  0
  -17.7900   14.1046  -19.9759 C   0  0  0  0  0  0  0  0  0  0  0  0
  -18.8293   14.8700  -20.5521 N   0  0  0  0  0  0  0  0  0  0  0  0
  -20.1085   14.1597  -20.3924 C   0  0  0  0  0  0  0  0  0  0  0  0
  -18.5849   14.9962  -21.9975 C   0  0  0  0  0  0  0  0  0  0  0  0
  -19.0057   16.1848  -20.0373 C   0  0  0  0  0  0  0  0  0  0  0  0
  1  2  1  0  0  0
  2  3  1  0  0  0
  3  4  1  0  0  0
  4  5  1  0  0  0
  5  6  1  0  0  0
  6  8  1  0  0  0
  8  9  1  0  0  0
  9 10  1  0  0  0
  9 11  1  0  0  0
  9 12  1  0  0  0
  6  7  1  0  0  0
  7  2  1  0  0  0
M  CHG 1   9   1
M  END
> <minimizedAffinity>
-3.93423

> <CNNscore>
0.3210109770

> <CNNaffinity>
3.5648071766

> <CNN_VS>
1.1443421841

> <CNNaffinity_variance>
0.2208699286

$$$$
[H]C([H])([H])C1([H])OC([H])(C([H])([H])[N+](C([H])([H])[H])(C([H])([H])[H])C([H])([H])[H])C([H])([H])OC1([H])[H].[I-]


 12 12  0  0  0  0  0  0  0  0999 V2000
  -16.4266   16.7140  -20.4605 C   0  0  0  0  0  0  0  0  0  0  0  0
  -17.9104   16.4523  -20.1807 C   0  0  0  0  0  0  0  0  0  0  0  0
  -18.1617   15.0122  -20.5938 C   0  0  0  0  0  0  0  0  0  0  0  0
  -18.0958   14.2596  -19.3970 O   0  0  0  0  0  0  0  0  0  0  0  0
  -19.2719   14.5954  -18.6972 C   0  0  0  0  0  0  0  0  0  0  0  0
  -19.2971   16.0825  -18.3629 C   0  0  0  0  0  0  0  0  0  0  0  0
  -18.1507   16.6836  -18.8513 O   0  0  0  0  0  0  0  0  0  0  0  0
  -19.3676   16.2091  -16.8758 C   0  0  0  0  0  0  0  0  0  0  0  0
  -20.1306   17.2924  -16.3836 N   0  0  0  0  0  0  0  0  0  0  0  0
  -19.2298   18.3123  -15.8225 C   0  0  0  0  0  0  0  0  0  0  0  0
  -20.9808   16.8162  -15.2812 C   0  0  0  0  0  0  0  0  0  0  0  0
  -20.9800   17.9443  -17.3207 C   0  0  0  0  0  0  0  0  0  0  0  0
  1  2  1  0  0  0
  2  3  1  0  0  0
  3  4  1  0  0  0
  4  5  1  0  0  0
  5  6  1  0  0  0
  6  8  1  0  0  0
  8  9  1  0  0  0
  9 10  1  0  0  0
  9 11  1  0  0  0
  9 12  1  0  0  0
  6  7  1  0  0  0
  7  2  1  0  0  0
M  CHG 1   9   1
M  END
> <minimizedAffinity>
-3.02956

> <CNNscore>
0.3112796843

> <CNNaffinity>
3.1023252010

> <CNN_VS>
0.9656907916

> <CNNaffinity_variance>
0.3242686391

$$$$
[H]C([H])([H])C1([H])OC([H])(C([H])([H])[N+](C([H])([H])[H])(C([H])([H])[H])C([H])([H])[H])C([H])([H])OC1([H])[H].[I-]


 12 12  0  0  0  0  0  0  0  0999 V2000
  -16.4739   12.3178  -22.4438 C   0  0  0  0  0  0  0  0  0  0  0  0
  -17.5886   11.9691  -21.4517 C   0  0  0  0  0  0  0  0  0  0  0  0
  -17.0696   10.7926  -20.6429 C   0  0  0  0  0  0  0  0  0  0  0  0
  -16.5668   11.3518  -19.4439 O   0  0  0  0  0  0  0  0  0  0  0  0
  -17.7123   11.7466  -18.7245 C   0  0  0  0  0  0  0  0  0  0  0  0
  -18.4949   12.8063  -19.4917 C   0  0  0  0  0  0  0  0  0  0  0  0
  -17.8540   13.0757  -20.6878 O   0  0  0  0  0  0  0  0  0  0  0  0
  -18.5539   14.0301  -18.6365 C   0  0  0  0  0  0  0  0  0  0  0  0
  -19.7601   14.7649  -18.6922 N   0  0  0  0  0  0  0  0  0  0  0  0
  -19.5560   15.9833  -19.4925 C   0  0  0  0  0  0  0  0  0  0  0  0
  -20.1188   15.1985  -17.3327 C   0  0  0  0  0  0  0  0  0  0  0  0
  -20.8890   14.0864  -19.2307 C   0  0  0  0  0  0  0  0  0  0  0  0
  1  2  1  0  0  0
  2  3  1  0  0  0
  3  4  1  0  0  0
  4  5  1  0  0  0
  5  6  1  0  0  0
  6  8  1  0  0  0
  8  9  1  0  0  0
  9 10  1  0  0  0
  9 11  1  0  0  0
  9 12  1  0  0  0
  6  7  1  0  0  0
  7  2  1  0  0  0
M  CHG 1   9   1
M  END
> <minimizedAffinity>
-3.68190

> <CNNscore>
0.2890381515

> <CNNaffinity>
3.4461555481

> <CNN_VS>
0.9960704446

> <CNNaffinity_variance>
0.1242149472

$$$$
[H]C([H])([H])C1([H])OC([H])(C([H])([H])[N+](C([H])([H])[H])(C([H])([H])[H])C([H])([H])[H])C([H])([H])OC1([H])[H].[I-]


 12 12  0  0  0  0  0  0  0  0999 V2000
  -19.2181   14.1054  -20.5676 C   0  0  0  0  0  0  0  0  0  0  0  0
  -17.7474   14.0127  -20.9880 C   0  0  0  0  0  0  0  0  0  0  0  0
  -17.3672   12.5491  -20.8434 C   0  0  0  0  0  0  0  0  0  0  0  0
  -17.4783   12.0004  -22.1432 O   0  0  0  0  0  0  0  0  0  0  0  0
  -16.3877   12.5395  -22.8543 C   0  0  0  0  0  0  0  0  0  0  0  0
  -16.4898   14.0585  -22.9323 C   0  0  0  0  0  0  0  0  0  0  0  0
  -17.6311   14.4776  -22.2721 O   0  0  0  0  0  0  0  0  0  0  0  0
  -16.5479   14.4327  -24.3777 C   0  0  0  0  0  0  0  0  0  0  0  0
  -15.5151   15.2807  -24.8382 N   0  0  0  0  0  0  0  0  0  0  0  0
  -15.7226   16.6386  -24.3095 C   0  0  0  0  0  0  0  0  0  0  0  0
  -15.5913   15.3738  -26.3046 C   0  0  0  0  0  0  0  0  0  0  0  0
  -14.1860   14.8943  -24.5081 C   0  0  0  0  0  0  0  0  0  0  0  0
  1  2  1  0  0  0
  2  3  1  0  0  0
  3  4  1  0  0  0
  4  5  1  0  0  0
  5  6  1  0  0  0
  6  8  1  0  0  0
  8  9  1  0  0  0
  9 10  1  0  0  0
  9 11  1  0  0  0
  9 12  1  0  0  0
  6  7  1  0  0  0
  7  2  1  0  0  0
M  CHG 1   9   1
M  END
> <minimizedAffinity>
-4.31147

> <CNNscore>
0.2664493918

> <CNNaffinity>
3.9315528870

> <CNN_VS>
1.0475598574

> <CNNaffinity_variance>
0.2036293447

$$$$
[H]C([H])([H])C1([H])OC([H])(C([H])([H])[N+](C([H])([H])[H])(C([H])([H])[H])C([H])([H])[H])C([H])([H])OC1([H])[H].[I-]


 12 12  0  0  0  0  0  0  0  0999 V2000
  -17.6430   12.6511  -25.9412 C   0  0  0  0  0  0  0  0  0  0  0  0
  -17.0821   13.6544  -24.9277 C   0  0  0  0  0  0  0  0  0  0  0  0
  -15.9473   14.3709  -25.6392 C   0  0  0  0  0  0  0  0  0  0  0  0
  -16.5026   15.5859  -26.1064 O   0  0  0  0  0  0  0  0  0  0  0  0
  -16.6877   16.3648  -24.9468 C   0  0  0  0  0  0  0  0  0  0  0  0
  -17.6670   15.6908  -23.9925 C   0  0  0  0  0  0  0  0  0  0  0  0
  -18.0936   14.4941  -24.5402 O   0  0  0  0  0  0  0  0  0  0  0  0
  -18.8186   16.6225  -23.7965 C   0  0  0  0  0  0  0  0  0  0  0  0
  -19.0621   17.0320  -22.4657 N   0  0  0  0  0  0  0  0  0  0  0  0
  -20.3758   17.6912  -22.3876 C   0  0  0  0  0  0  0  0  0  0  0  0
  -18.0549   18.0336  -22.0820 C   0  0  0  0  0  0  0  0  0  0  0  0
  -19.0396   16.0099  -21.4760 C   0  0  0  0  0  0  0  0  0  0  0  0
  1  2  1  0  0  0
  2  3  1  0  0  0
  3  4  1  0  0  0
  4  5  1  0  0  0
  5  6  1  0  0  0
  6  8  1  0  0  0
  8  9  1  0  0  0
  9 10  1  0  0  0
  9 11  1  0  0  0
  9 12  1  0  0  0
  6  7  1  0  0  0
  7  2  1  0  0  0
M  CHG 1   9   1
M  END
> <minimizedAffinity>
-3.93956

> <CNNscore>
0.2564385831

> <CNNaffinity>
3.4562675953

> <CNN_VS>
0.8863203526

> <CNNaffinity_variance>
0.1792525053

$$$$
[H]C([H])([H])C1([H])OC([H])(C([H])([H])[N+](C([H])([H])[H])(C([H])([H])[H])C([H])([H])[H])C([H])([H])OC1([H])[H].[I-]


 12 12  0  0  0  0  0  0  0  0999 V2000
  -16.7736   10.8270  -20.7191 C   0  0  0  0  0  0  0  0  0  0  0  0
  -17.4002   11.8710  -21.6497 C   0  0  0  0  0  0  0  0  0  0  0  0
  -18.2391   12.7699  -20.7577 C   0  0  0  0  0  0  0  0  0  0  0  0
  -17.4315   13.9025  -20.4972 O   0  0  0  0  0  0  0  0  0  0  0  0
  -17.4013   14.6092  -21.7159 C   0  0  0  0  0  0  0  0  0  0  0  0
  -16.7602   13.7681  -22.8138 C   0  0  0  0  0  0  0  0  0  0  0  0
  -16.3930   12.5386  -22.2965 O   0  0  0  0  0  0  0  0  0  0  0  0
  -15.5628   14.5116  -23.3099 C   0  0  0  0  0  0  0  0  0  0  0  0
  -15.5682   14.8450  -24.6834 N   0  0  0  0  0  0  0  0  0  0  0  0
  -14.1919   14.8049  -25.2037 C   0  0  0  0  0  0  0  0  0  0  0  0
  -16.0460   16.2281  -24.8376 C   0  0  0  0  0  0  0  0  0  0  0  0
  -16.3668   14.0257  -25.5294 C   0  0  0  0  0  0  0  0  0  0  0  0
  1  2  1  0  0  0
  2  3  1  0  0  0
  3  4  1  0  0  0
  4  5  1  0  0  0
  5  6  1  0  0  0
  6  8  1  0  0  0
  8  9  1  0  0  0
  9 10  1  0  0  0
  9 11  1  0  0  0
  9 12  1  0  0  0
  6  7  1  0  0  0
  7  2  1  0  0  0
M  CHG 1   9   1
M  END
> <minimizedAffinity>
-4.43997

> <CNNscore>
0.2524834275

> <CNNaffinity>
3.8507571220

> <CNN_VS>
0.9722523689

> <CNNaffinity_variance>
0.2221360207

$$$$
[H]Sc1nnc(N([H])C(=O)N([H])N=C([H])c2c([H])c([H])c([H])c(OC([H])([H])[H])c2[H])s1


 23 24  0  0  0  0  0  0  0  0999 V2000
  -15.9869   10.6451  -21.2195 N   0  0  0  0  0  0  0  0  0  0  0  0
  -16.8755   10.8716  -20.1451 C   0  0  0  0  0  0  0  0  0  0  0  0
  -17.3379   12.0229  -19.9497 O   0  0  0  0  0  0  0  0  0  0  0  0
  -17.2622    9.8321  -19.2769 N   0  0  0  0  0  0  0  0  0  0  0  0
  -15.6132    9.6782  -21.3646 H   0  0  0  0  0  0  0  0  0  0  0  0
  -16.8958    8.8774  -19.4167 H   0  0  0  0  0  0  0  0  0  0  0  0
  -18.1618   10.0614  -18.1893 C   0  0  0  0  0  0  0  0  0  0  0  0
  -18.8592   11.1510  -17.8804 N   0  0  0  0  0  0  0  0  0  0  0  0
  -19.6099   11.1575  -16.8644 N   0  0  0  0  0  0  0  0  0  0  0  0
  -19.7019   10.0739  -16.1042 C   0  0  0  0  0  0  0  0  0  0  0  0
  -20.7119    9.9209  -14.6425 S   0  0  0  0  0  0  0  0  0  0  0  0
  -18.6450    9.0108  -16.9171 S   0  0  0  0  0  0  0  0  0  0  0  0
  -22.0012   10.4876  -14.8386 H   0  0  0  0  0  0  0  0  0  0  0  0
  -16.3381   12.2105  -22.9464 C   0  0  0  0  0  0  0  0  0  0  0  0
  -15.5685   11.6157  -22.1044 N   0  0  0  0  0  0  0  0  0  0  0  0
  -15.9841   14.4791  -25.9059 C   0  0  0  0  0  0  0  0  0  0  0  0
  -14.8389   15.1594  -25.5501 C   0  0  0  0  0  0  0  0  0  0  0  0
  -14.2071   14.8679  -24.3593 C   0  0  0  0  0  0  0  0  0  0  0  0
  -14.6910   13.9040  -23.5008 C   0  0  0  0  0  0  0  0  0  0  0  0
  -15.8278   13.2281  -23.8532 C   0  0  0  0  0  0  0  0  0  0  0  0
  -16.4553   13.5209  -25.0406 C   0  0  0  0  0  0  0  0  0  0  0  0
  -16.0254   15.4924  -28.1114 C   0  0  0  0  0  0  0  0  0  0  0  0
  -16.6383   14.7462  -27.0872 O   0  0  0  0  0  0  0  0  0  0  0  0
 22 23  1  0  0  0
 23 16  1  0  0  0
 16 17  2  0  0  0
 17 18  1  0  0  0
 18 19  2  0  0  0
 19 20  1  0  0  0
 20 14  1  0  0  0
 14 15  2  0  0  0
 15  1  1  0  0  0
  1  2  1  0  0  0
  2  3  2  0  0  0
  2  4  1  0  0  0
  4  7  1  0  0  0
  7  8  2  0  0  0
  8  9  1  0  0  0
  9 10  2  0  0  0
 10 11  1  0  0  0
 10 12  1  0  0  0
 20 21  2  0  0  0
 21 16  1  0  0  0
 12  7  1  0  0  0
  1  5  1  0  0  0
  4  6  1  0  0  0
 11 13  1  0  0  0
M  END
> <minimizedAffinity>
-7.09902

> <CNNscore>
0.8611495495

> <CNNaffinity>
5.7356233597

> <CNN_VS>
4.9392294884

> <CNNaffinity_variance>
0.0522557721

$$$$
[H]Sc1nnc(N([H])C(=O)N([H])N=C([H])c2c([H])c([H])c([H])c(OC([H])([H])[H])c2[H])s1


 23 24  0  0  0  0  0  0  0  0999 V2000
  -16.1760   10.3760  -20.4643 N   0  0  0  0  0  0  0  0  0  0  0  0
  -16.4005   11.2852  -21.5218 C   0  0  0  0  0  0  0  0  0  0  0  0
  -17.5253   11.8294  -21.6488 O   0  0  0  0  0  0  0  0  0  0  0  0
  -15.3882   11.6023  -22.4484 N   0  0  0  0  0  0  0  0  0  0  0  0
  -15.2315    9.9336  -20.3765 H   0  0  0  0  0  0  0  0  0  0  0  0
  -14.4555   11.1682  -22.3653 H   0  0  0  0  0  0  0  0  0  0  0  0
  -15.6155   12.5227  -23.5189 C   0  0  0  0  0  0  0  0  0  0  0  0
  -16.4313   12.4231  -24.5646 N   0  0  0  0  0  0  0  0  0  0  0  0
  -16.4912   13.3560  -25.4143 N   0  0  0  0  0  0  0  0  0  0  0  0
  -15.7377   14.4375  -25.2621 C   0  0  0  0  0  0  0  0  0  0  0  0
  -15.7049   15.8368  -26.3670 S   0  0  0  0  0  0  0  0  0  0  0  0
  -14.9140   14.0639  -23.8164 S   0  0  0  0  0  0  0  0  0  0  0  0
  -17.0153   16.2110  -26.7726 H   0  0  0  0  0  0  0  0  0  0  0  0
  -17.5970   10.8226  -18.6374 C   0  0  0  0  0  0  0  0  0  0  0  0
  -17.1209   10.0222  -19.5251 N   0  0  0  0  0  0  0  0  0  0  0  0
  -19.5298    8.6744  -16.2541 C   0  0  0  0  0  0  0  0  0  0  0  0
  -20.4965    9.5720  -15.8532 C   0  0  0  0  0  0  0  0  0  0  0  0
  -20.5004   10.8532  -16.3640 C   0  0  0  0  0  0  0  0  0  0  0  0
  -19.5549   11.2710  -17.2759 C   0  0  0  0  0  0  0  0  0  0  0  0
  -18.5949   10.3806  -17.6745 C   0  0  0  0  0  0  0  0  0  0  0  0
  -18.5936    9.1045  -17.1637 C   0  0  0  0  0  0  0  0  0  0  0  0
  -20.5951    6.8418  -15.0712 C   0  0  0  0  0  0  0  0  0  0  0  0
  -19.4982    7.3888  -15.7634 O   0  0  0  0  0  0  0  0  0  0  0  0
 22 23  1  0  0  0
 23 16  1  0  0  0
 16 17  2  0  0  0
 17 18  1  0  0  0
 18 19  2  0  0  0
 19 20  1  0  0  0
 20 14  1  0  0  0
 14 15  2  0  0  0
 15  1  1  0  0  0
  1  2  1  0  0  0
  2  3  2  0  0  0
  2  4  1  0  0  0
  4  7  1  0  0  0
  7  8  2  0  0  0
  8  9  1  0  0  0
  9 10  2  0  0  0
 10 11  1  0  0  0
 10 12  1  0  0  0
 20 21  2  0  0  0
 21 16  1  0  0  0
 12  7  1  0  0  0
  1  5  1  0  0  0
  4  6  1  0  0  0
 11 13  1  0  0  0
M  END
> <minimizedAffinity>
-7.01629

> <CNNscore>
0.7356377840

> <CNNaffinity>
5.6818289757

> <CNN_VS>
4.1797680855

> <CNNaffinity_variance>
0.1002772227

$$$$
[H]Sc1nnc(N([H])C(=O)N([H])N=C([H])c2c([H])c([H])c([H])c(OC([H])([H])[H])c2[H])s1


 23 24  0  0  0  0  0  0  0  0999 V2000
  -16.6305   11.0847  -20.3744 N   0  0  0  0  0  0  0  0  0  0  0  0
  -16.7596   11.8725  -21.5398 C   0  0  0  0  0  0  0  0  0  0  0  0
  -17.7992   12.5538  -21.7205 O   0  0  0  0  0  0  0  0  0  0  0  0
  -15.7452   11.9163  -22.5158 N   0  0  0  0  0  0  0  0  0  0  0  0
  -15.7562   10.5245  -20.2432 H   0  0  0  0  0  0  0  0  0  0  0  0
  -14.8815   11.3653  -22.3901 H   0  0  0  0  0  0  0  0  0  0  0  0
  -15.8759   12.7138  -23.6954 C   0  0  0  0  0  0  0  0  0  0  0  0
  -16.6787   12.5530  -24.7437 N   0  0  0  0  0  0  0  0  0  0  0  0
  -16.6455   13.3764  -25.7011 N   0  0  0  0  0  0  0  0  0  0  0  0
  -15.8071   14.4040  -25.6598 C   0  0  0  0  0  0  0  0  0  0  0  0
  -15.6380   15.6500  -26.9242 S   0  0  0  0  0  0  0  0  0  0  0  0
  -15.0430   14.1452  -24.1573 S   0  0  0  0  0  0  0  0  0  0  0  0
  -16.9053   16.0763  -27.4082 H   0  0  0  0  0  0  0  0  0  0  0  0
  -17.7019   10.0010  -18.5760 C   0  0  0  0  0  0  0  0  0  0  0  0
  -17.5832   10.9968  -19.3820 N   0  0  0  0  0  0  0  0  0  0  0  0
  -20.5030   11.0558  -16.3240 C   0  0  0  0  0  0  0  0  0  0  0  0
  -20.6773    9.8955  -15.5998 C   0  0  0  0  0  0  0  0  0  0  0  0
  -19.8835    8.7975  -15.8574 C   0  0  0  0  0  0  0  0  0  0  0  0
  -18.9070    8.8233  -16.8300 C   0  0  0  0  0  0  0  0  0  0  0  0
  -18.7331    9.9746  -17.5494 C   0  0  0  0  0  0  0  0  0  0  0  0
  -19.5258   11.0672  -17.2904 C   0  0  0  0  0  0  0  0  0  0  0  0
  -21.7346   12.4867  -14.7982 C   0  0  0  0  0  0  0  0  0  0  0  0
  -21.2786   12.1688  -16.0914 O   0  0  0  0  0  0  0  0  0  0  0  0
 22 23  1  0  0  0
 23 16  1  0  0  0
 16 17  2  0  0  0
 17 18  1  0  0  0
 18 19  2  0  0  0
 19 20  1  0  0  0
 20 14  1  0  0  0
 14 15  2  0  0  0
 15  1  1  0  0  0
  1  2  1  0  0  0
  2  3  2  0  0  0
  2  4  1  0  0  0
  4  7  1  0  0  0
  7  8  2  0  0  0
  8  9  1  0  0  0
  9 10  2  0  0  0
 10 11  1  0  0  0
 10 12  1  0  0  0
 20 21  2  0  0  0
 21 16  1  0  0  0
 12  7  1  0  0  0
  1  5  1  0  0  0
  4  6  1  0  0  0
 11 13  1  0  0  0
M  END
> <minimizedAffinity>
-6.75109

> <CNNscore>
0.6677989364

> <CNNaffinity>
5.5415339470

> <CNN_VS>
3.7006304264

> <CNNaffinity_variance>
0.0947191864

$$$$
[H]Sc1nnc(N([H])C(=O)N([H])N=C([H])c2c([H])c([H])c([H])c(OC([H])([H])[H])c2[H])s1


 23 24  0  0  0  0  0  0  0  0999 V2000
  -20.6438   15.3914  -18.3628 N   0  0  0  0  0  0  0  0  0  0  0  0
  -21.3339   15.8217  -19.5177 C   0  0  0  0  0  0  0  0  0  0  0  0
  -21.5368   15.0162  -20.4598 O   0  0  0  0  0  0  0  0  0  0  0  0
  -21.8060   17.1425  -19.6449 N   0  0  0  0  0  0  0  0  0  0  0  0
  -20.4853   16.0786  -17.5893 H   0  0  0  0  0  0  0  0  0  0  0  0
  -21.6516   17.8231  -18.8844 H   0  0  0  0  0  0  0  0  0  0  0  0
  -22.5046   17.5780  -20.8140 C   0  0  0  0  0  0  0  0  0  0  0  0
  -23.7806   17.4126  -21.1509 N   0  0  0  0  0  0  0  0  0  0  0  0
  -24.2147   17.8780  -22.2422 N   0  0  0  0  0  0  0  0  0  0  0  0
  -23.3945   18.5333  -23.0536 C   0  0  0  0  0  0  0  0  0  0  0  0
  -23.8482   19.2487  -24.6228 S   0  0  0  0  0  0  0  0  0  0  0  0
  -21.9344   18.4596  -22.1755 S   0  0  0  0  0  0  0  0  0  0  0  0
  -25.0973   19.9239  -24.5457 H   0  0  0  0  0  0  0  0  0  0  0  0
  -19.1810   13.6060  -18.8408 C   0  0  0  0  0  0  0  0  0  0  0  0
  -20.1562   14.1158  -18.1744 N   0  0  0  0  0  0  0  0  0  0  0  0
  -17.1999   10.4331  -19.0372 C   0  0  0  0  0  0  0  0  0  0  0  0
  -17.8610    9.6795  -18.0907 C   0  0  0  0  0  0  0  0  0  0  0  0
  -18.9338   10.2162  -17.4100 C   0  0  0  0  0  0  0  0  0  0  0  0
  -19.3727   11.5008  -17.6493 C   0  0  0  0  0  0  0  0  0  0  0  0
  -18.7170   12.2497  -18.5888 C   0  0  0  0  0  0  0  0  0  0  0  0
  -17.6481   11.7121  -19.2654 C   0  0  0  0  0  0  0  0  0  0  0  0
  -15.8429   10.3441  -21.0480 C   0  0  0  0  0  0  0  0  0  0  0  0
  -16.1260    9.9269  -19.7337 O   0  0  0  0  0  0  0  0  0  0  0  0
 22 23  1  0  0  0
 23 16  1  0  0  0
 16 17  2  0  0  0
 17 18  1  0  0  0
 18 19  2  0  0  0
 19 20  1  0  0  0
 20 14  1  0  0  0
 14 15  2  0  0  0
 15  1  1  0  0  0
  1  2  1  0  0  0
  2  3  2  0  0  0
  2  4  1  0  0  0
  4  7  1  0  0  0
  7  8  2  0  0  0
  8  9  1  0  0  0
  9 10  2  0  0  0
 10 11  1  0  0  0
 10 12  1  0  0  0
 20 21  2  0  0  0
 21 16  1  0  0  0
 12  7  1  0  0  0
  1  5  1  0  0  0
  4  6  1  0  0  0
 11 13  1  0  0  0
M  END
> <minimizedAffinity>
-5.99396

> <CNNscore>
0.6050525904

> <CNNaffinity>
5.1971864700

> <CNN_VS>
3.1445710659

> <CNNaffinity_variance>
0.1229290515

$$$$
[H]Sc1nnc(N([H])C(=O)N([H])N=C([H])c2c([H])c([H])c([H])c(OC([H])([H])[H])c2[H])s1


 23 24  0  0  0  0  0  0  0  0999 V2000
  -17.1250   10.7073  -20.3979 N   0  0  0  0  0  0  0  0  0  0  0  0
  -17.6126   10.6780  -19.0725 C   0  0  0  0  0  0  0  0  0  0  0  0
  -17.5927   11.7237  -18.3770 O   0  0  0  0  0  0  0  0  0  0  0  0
  -18.1260    9.4971  -18.5021 N   0  0  0  0  0  0  0  0  0  0  0  0
  -17.1507    9.8249  -20.9603 H   0  0  0  0  0  0  0  0  0  0  0  0
  -18.1531    8.6249  -19.0534 H   0  0  0  0  0  0  0  0  0  0  0  0
  -18.6197    9.4675  -17.1604 C   0  0  0  0  0  0  0  0  0  0  0  0
  -18.1942    8.7638  -16.1151 N   0  0  0  0  0  0  0  0  0  0  0  0
  -18.7701    8.8770  -14.9965 N   0  0  0  0  0  0  0  0  0  0  0  0
  -19.8022    9.7005  -14.8653 C   0  0  0  0  0  0  0  0  0  0  0  0
  -20.7204    9.9737  -13.3612 S   0  0  0  0  0  0  0  0  0  0  0  0
  -19.9256   10.3280  -16.4462 S   0  0  0  0  0  0  0  0  0  0  0  0
  -19.8565   10.0950  -12.2383 H   0  0  0  0  0  0  0  0  0  0  0  0
  -17.0562   12.3167  -22.1187 C   0  0  0  0  0  0  0  0  0  0  0  0
  -16.6102   11.8268  -21.0159 N   0  0  0  0  0  0  0  0  0  0  0  0
  -16.0757   15.8817  -22.7189 C   0  0  0  0  0  0  0  0  0  0  0  0
  -15.3293   15.7340  -23.8687 C   0  0  0  0  0  0  0  0  0  0  0  0
  -15.1603   14.4828  -24.4237 C   0  0  0  0  0  0  0  0  0  0  0  0
  -15.7221   13.3586  -23.8574 C   0  0  0  0  0  0  0  0  0  0  0  0
  -16.4633   13.5042  -22.7160 C   0  0  0  0  0  0  0  0  0  0  0  0
  -16.6299   14.7525  -22.1652 C   0  0  0  0  0  0  0  0  0  0  0  0
  -16.6348   17.2429  -20.7883 C   0  0  0  0  0  0  0  0  0  0  0  0
  -16.2633   17.1164  -22.1402 O   0  0  0  0  0  0  0  0  0  0  0  0
 22 23  1  0  0  0
 23 16  1  0  0  0
 16 17  2  0  0  0
 17 18  1  0  0  0
 18 19  2  0  0  0
 19 20  1  0  0  0
 20 14  1  0  0  0
 14 15  2  0  0  0
 15  1  1  0  0  0
  1  2  1  0  0  0
  2  3  2  0  0  0
  2  4  1  0  0  0
  4  7  1  0  0  0
  7  8  2  0  0  0
  8  9  1  0  0  0
  9 10  2  0  0  0
 10 11  1  0  0  0
 10 12  1  0  0  0
 20 21  2  0  0  0
 21 16  1  0  0  0
 12  7  1  0  0  0
  1  5  1  0  0  0
  4  6  1  0  0  0
 11 13  1  0  0  0
M  END
> <minimizedAffinity>
-6.43429

> <CNNscore>
0.5539197326

> <CNNaffinity>
5.3848633766

> <CNN_VS>
2.9827821255

> <CNNaffinity_variance>
0.0738772899

$$$$
[H]Sc1nnc(N([H])C(=O)N([H])N=C([H])c2c([H])c([H])c([H])c(OC([H])([H])[H])c2[H])s1


 23 24  0  0  0  0  0  0  0  0999 V2000
  -16.9338   11.4517  -21.1273 N   0  0  0  0  0  0  0  0  0  0  0  0
  -16.8241   12.3601  -22.2035 C   0  0  0  0  0  0  0  0  0  0  0  0
  -17.6963   13.2502  -22.3602 O   0  0  0  0  0  0  0  0  0  0  0  0
  -15.7531   12.2958  -23.1159 N   0  0  0  0  0  0  0  0  0  0  0  0
  -16.1962   10.7177  -21.0147 H   0  0  0  0  0  0  0  0  0  0  0  0
  -15.0238   11.5733  -23.0083 H   0  0  0  0  0  0  0  0  0  0  0  0
  -15.6420   13.2153  -24.2052 C   0  0  0  0  0  0  0  0  0  0  0  0
  -14.6869   14.1011  -24.4739 N   0  0  0  0  0  0  0  0  0  0  0  0
  -14.7705   14.8336  -25.4997 N   0  0  0  0  0  0  0  0  0  0  0  0
  -15.8144   14.7181  -26.3105 C   0  0  0  0  0  0  0  0  0  0  0  0
  -16.0809   15.6730  -27.7928 S   0  0  0  0  0  0  0  0  0  0  0  0
  -16.7013   13.4871  -25.5319 S   0  0  0  0  0  0  0  0  0  0  0  0
  -14.8863   15.7978  -28.5538 H   0  0  0  0  0  0  0  0  0  0  0  0
  -17.7796   11.5623  -18.9299 C   0  0  0  0  0  0  0  0  0  0  0  0
  -17.9541   11.4591  -20.2003 N   0  0  0  0  0  0  0  0  0  0  0  0
  -20.2911   10.4431  -16.3863 C   0  0  0  0  0  0  0  0  0  0  0  0
  -21.0411   11.5940  -16.2683 C   0  0  0  0  0  0  0  0  0  0  0  0
  -20.7163   12.7069  -17.0155 C   0  0  0  0  0  0  0  0  0  0  0  0
  -19.6501   12.7053  -17.8893 C   0  0  0  0  0  0  0  0  0  0  0  0
  -18.9050   11.5632  -18.0071 C   0  0  0  0  0  0  0  0  0  0  0  0
  -19.2312   10.4558  -17.2611 C   0  0  0  0  0  0  0  0  0  0  0  0
  -19.9141    9.0212  -14.4553 C   0  0  0  0  0  0  0  0  0  0  0  0
  -20.5891    9.3157  -15.6549 O   0  0  0  0  0  0  0  0  0  0  0  0
 22 23  1  0  0  0
 23 16  1  0  0  0
 16 17  2  0  0  0
 17 18  1  0  0  0
 18 19  2  0  0  0
 19 20  1  0  0  0
 20 14  1  0  0  0
 14 15  2  0  0  0
 15  1  1  0  0  0
  1  2  1  0  0  0
  2  3  2  0  0  0
  2  4  1  0  0  0
  4  7  1  0  0  0
  7  8  2  0  0  0
  8  9  1  0  0  0
  9 10  2  0  0  0
 10 11  1  0  0  0
 10 12  1  0  0  0
 20 21  2  0  0  0
 21 16  1  0  0  0
 12  7  1  0  0  0
  1  5  1  0  0  0
  4  6  1  0  0  0
 11 13  1  0  0  0
M  END
> <minimizedAffinity>
-6.45360

> <CNNscore>
0.5226396322

> <CNNaffinity>
5.4526462555

> <CNN_VS>
2.8497691154

> <CNNaffinity_variance>
0.0691376477

$$$$
[H]Sc1nnc(N([H])C(=O)N([H])N=C([H])c2c([H])c([H])c([H])c(OC([H])([H])[H])c2[H])s1


 23 24  0  0  0  0  0  0  0  0999 V2000
  -17.3184   10.7456  -20.0087 N   0  0  0  0  0  0  0  0  0  0  0  0
  -17.8400   10.6816  -18.6976 C   0  0  0  0  0  0  0  0  0  0  0  0
  -17.9708   11.7347  -18.0258 O   0  0  0  0  0  0  0  0  0  0  0  0
  -18.2217    9.4572  -18.1152 N   0  0  0  0  0  0  0  0  0  0  0  0
  -17.2177    9.8563  -20.5513 H   0  0  0  0  0  0  0  0  0  0  0  0
  -18.1238    8.5781  -18.6471 H   0  0  0  0  0  0  0  0  0  0  0  0
  -18.7496    9.3925  -16.7880 C   0  0  0  0  0  0  0  0  0  0  0  0
  -18.2663    8.7786  -15.7116 N   0  0  0  0  0  0  0  0  0  0  0  0
  -18.8879    8.8387  -14.6135 N   0  0  0  0  0  0  0  0  0  0  0  0
  -20.0260    9.5163  -14.5351 C   0  0  0  0  0  0  0  0  0  0  0  0
  -21.0207    9.6971  -13.0661 S   0  0  0  0  0  0  0  0  0  0  0  0
  -20.1827   10.0831  -16.1358 S   0  0  0  0  0  0  0  0  0  0  0  0
  -20.2180    9.9620  -11.9228 H   0  0  0  0  0  0  0  0  0  0  0  0
  -16.9752   12.0980  -21.9086 C   0  0  0  0  0  0  0  0  0  0  0  0
  -16.9264   11.9083  -20.6371 N   0  0  0  0  0  0  0  0  0  0  0  0
  -15.3844   14.5669  -24.2334 C   0  0  0  0  0  0  0  0  0  0  0  0
  -15.7420   15.7448  -23.6123 C   0  0  0  0  0  0  0  0  0  0  0  0
  -16.4905   15.7127  -22.4543 C   0  0  0  0  0  0  0  0  0  0  0  0
  -16.8985   14.5233  -21.8897 C   0  0  0  0  0  0  0  0  0  0  0  0
  -16.5440   13.3534  -22.5054 C   0  0  0  0  0  0  0  0  0  0  0  0
  -15.7981   13.3886  -23.6594 C   0  0  0  0  0  0  0  0  0  0  0  0
  -14.4515   15.7387  -26.1436 C   0  0  0  0  0  0  0  0  0  0  0  0
  -14.6381   14.5646  -25.3899 O   0  0  0  0  0  0  0  0  0  0  0  0
 22 23  1  0  0  0
 23 16  1  0  0  0
 16 17  2  0  0  0
 17 18  1  0  0  0
 18 19  2  0  0  0
 19 20  1  0  0  0
 20 14  1  0  0  0
 14 15  2  0  0  0
 15  1  1  0  0  0
  1  2  1  0  0  0
  2  3  2  0  0  0
  2  4  1  0  0  0
  4  7  1  0  0  0
  7  8  2  0  0  0
  8  9  1  0  0  0
  9 10  2  0  0  0
 10 11  1  0  0  0
 10 12  1  0  0  0
 20 21  2  0  0  0
 21 16  1  0  0  0
 12  7  1  0  0  0
  1  5  1  0  0  0
  4  6  1  0  0  0
 11 13  1  0  0  0
M  END
> <minimizedAffinity>
-6.50267

> <CNNscore>
0.5171185732

> <CNNaffinity>
5.2886700630

> <CNN_VS>
2.7348694801

> <CNNaffinity_variance>
0.0944364443

$$$$
[H]Sc1nnc(N([H])C(=O)N([H])N=C([H])c2c([H])c([H])c([H])c(OC([H])([H])[H])c2[H])s1


 23 24  0  0  0  0  0  0  0  0999 V2000
  -16.8725   11.7589  -21.2852 N   0  0  0  0  0  0  0  0  0  0  0  0
  -16.7899   12.6303  -22.3938 C   0  0  0  0  0  0  0  0  0  0  0  0
  -17.6622   13.5196  -22.5550 O   0  0  0  0  0  0  0  0  0  0  0  0
  -15.7462   12.5297  -23.3342 N   0  0  0  0  0  0  0  0  0  0  0  0
  -16.1353   11.0249  -21.1695 H   0  0  0  0  0  0  0  0  0  0  0  0
  -15.0174   11.8072  -23.2236 H   0  0  0  0  0  0  0  0  0  0  0  0
  -15.6626   13.4119  -24.4564 C   0  0  0  0  0  0  0  0  0  0  0  0
  -14.7618   14.3507  -24.7323 N   0  0  0  0  0  0  0  0  0  0  0  0
  -14.8616   15.0354  -25.7892 N   0  0  0  0  0  0  0  0  0  0  0  0
  -15.8682   14.8164  -26.6255 C   0  0  0  0  0  0  0  0  0  0  0  0
  -16.1507   15.6922  -28.1529 S   0  0  0  0  0  0  0  0  0  0  0  0
  -16.6940   13.5578  -25.8241 S   0  0  0  0  0  0  0  0  0  0  0  0
  -14.9431   15.8702  -28.8824 H   0  0  0  0  0  0  0  0  0  0  0  0
  -17.7170   11.4192  -19.1109 C   0  0  0  0  0  0  0  0  0  0  0  0
  -17.8653   11.8028  -20.3299 N   0  0  0  0  0  0  0  0  0  0  0  0
  -20.5843   12.7250  -17.0850 C   0  0  0  0  0  0  0  0  0  0  0  0
  -20.8754   11.6062  -16.3338 C   0  0  0  0  0  0  0  0  0  0  0  0
  -20.1362   10.4538  -16.5004 C   0  0  0  0  0  0  0  0  0  0  0  0
  -19.1005   10.3837  -17.4073 C   0  0  0  0  0  0  0  0  0  0  0  0
  -18.8107   11.4939  -18.1536 C   0  0  0  0  0  0  0  0  0  0  0  0
  -19.5492   12.6410  -17.9853 C   0  0  0  0  0  0  0  0  0  0  0  0
  -21.4732   14.7820  -18.0186 C   0  0  0  0  0  0  0  0  0  0  0  0
  -21.3028   13.8904  -16.9427 O   0  0  0  0  0  0  0  0  0  0  0  0
 22 23  1  0  0  0
 23 16  1  0  0  0
 16 17  2  0  0  0
 17 18  1  0  0  0
 18 19  2  0  0  0
 19 20  1  0  0  0
 20 14  1  0  0  0
 14 15  2  0  0  0
 15  1  1  0  0  0
  1  2  1  0  0  0
  2  3  2  0  0  0
  2  4  1  0  0  0
  4  7  1  0  0  0
  7  8  2  0  0  0
  8  9  1  0  0  0
  9 10  2  0  0  0
 10 11  1  0  0  0
 10 12  1  0  0  0
 20 21  2  0  0  0
 21 16  1  0  0  0
 12  7  1  0  0  0
  1  5  1  0  0  0
  4  6  1  0  0  0
 11 13  1  0  0  0
M  END
> <minimizedAffinity>
-6.68415

> <CNNscore>
0.4140698612

> <CNNaffinity>
5.5119881630

> <CNN_VS>
2.2823481560

> <CNNaffinity_variance>
0.0839134678

$$$$
[H]Sc1nnc(N([H])C(=O)N([H])N=C([H])c2c([H])c([H])c([H])c(OC([H])([H])[H])c2[H])s1


 23 24  0  0  0  0  0  0  0  0999 V2000
  -17.5354   10.9970  -19.3861 N   0  0  0  0  0  0  0  0  0  0  0  0
  -17.2309   11.8403  -20.4776 C   0  0  0  0  0  0  0  0  0  0  0  0
  -17.6274   13.0321  -20.4751 O   0  0  0  0  0  0  0  0  0  0  0  0
  -16.4873   11.3783  -21.5809 N   0  0  0  0  0  0  0  0  0  0  0  0
  -17.1954   10.0074  -19.4081 H   0  0  0  0  0  0  0  0  0  0  0  0
  -16.1503   10.4030  -21.6064 H   0  0  0  0  0  0  0  0  0  0  0  0
  -16.1791   12.2320  -22.6858 C   0  0  0  0  0  0  0  0  0  0  0  0
  -14.9959   12.6003  -23.1692 N   0  0  0  0  0  0  0  0  0  0  0  0
  -14.9301   13.3724  -24.1669 N   0  0  0  0  0  0  0  0  0  0  0  0
  -16.0449   13.8165  -24.7331 C   0  0  0  0  0  0  0  0  0  0  0  0
  -16.1237   14.9073  -26.1416 S   0  0  0  0  0  0  0  0  0  0  0  0
  -17.2289   13.0688  -23.7598 S   0  0  0  0  0  0  0  0  0  0  0  0
  -15.1858   14.5337  -27.1429 H   0  0  0  0  0  0  0  0  0  0  0  0
  -19.1257   10.6457  -17.6821 C   0  0  0  0  0  0  0  0  0  0  0  0
  -18.2572   11.3848  -18.2775 N   0  0  0  0  0  0  0  0  0  0  0  0
  -21.3055   12.7234  -15.4544 C   0  0  0  0  0  0  0  0  0  0  0  0
  -21.2178   11.9949  -14.2872 C   0  0  0  0  0  0  0  0  0  0  0  0
  -20.4544   10.8469  -14.2480 C   0  0  0  0  0  0  0  0  0  0  0  0
  -19.7662   10.3979  -15.3548 C   0  0  0  0  0  0  0  0  0  0  0  0
  -19.8527   11.1204  -16.5140 C   0  0  0  0  0  0  0  0  0  0  0  0
  -20.6143   12.2641  -16.5500 C   0  0  0  0  0  0  0  0  0  0  0  0
  -21.8744   14.8058  -16.5647 C   0  0  0  0  0  0  0  0  0  0  0  0
  -22.0586   13.8733  -15.5265 O   0  0  0  0  0  0  0  0  0  0  0  0
 22 23  1  0  0  0
 23 16  1  0  0  0
 16 17  2  0  0  0
 17 18  1  0  0  0
 18 19  2  0  0  0
 19 20  1  0  0  0
 20 14  1  0  0  0
 14 15  2  0  0  0
 15  1  1  0  0  0
  1  2  1  0  0  0
  2  3  2  0  0  0
  2  4  1  0  0  0
  4  7  1  0  0  0
  7  8  2  0  0  0
  8  9  1  0  0  0
  9 10  2  0  0  0
 10 11  1  0  0  0
 10 12  1  0  0  0
 20 21  2  0  0  0
 21 16  1  0  0  0
 12  7  1  0  0  0
  1  5  1  0  0  0
  4  6  1  0  0  0
 11 13  1  0  0  0
M  END
> <minimizedAffinity>
-5.84300

> <CNNscore>
0.3760091066

> <CNNaffinity>
5.2200002670

> <CNN_VS>
1.9627676010

> <CNNaffinity_variance>
0.1309565604

$$$$
[H]c1c([H])c(-c2c([H])c(SC([H])([H])[H])n([H])c2-c2c([H])c([H])c(S(=O)(=O)C([H])([H])[H])c([H])c2[H])c([H])c([H])c1F


 25 27  0  0  0  0  0  0  0  0999 V2000
  -16.6877   10.7818  -20.0980 C   0  0  0  0  0  0  0  0  0  0  0  0
  -17.2773   12.0395  -19.9011 C   0  0  0  0  0  0  0  0  0  0  0  0
  -18.1773   11.9387  -18.8694 C   0  0  0  0  0  0  0  0  0  0  0  0
  -18.1387   10.6384  -18.4416 C   0  0  0  0  0  0  0  0  0  0  0  0
  -17.2394    9.9608  -19.1907 N   0  0  0  0  0  0  0  0  0  0  0  0
  -16.9894    8.9578  -19.1038 H   0  0  0  0  0  0  0  0  0  0  0  0
  -19.0079   13.0027  -18.3348 C   0  0  0  0  0  0  0  0  0  0  0  0
  -18.5733   13.7668  -17.2711 C   0  0  0  0  0  0  0  0  0  0  0  0
  -19.3181   14.7673  -16.7403 C   0  0  0  0  0  0  0  0  0  0  0  0
  -20.5552   15.0534  -17.2604 C   0  0  0  0  0  0  0  0  0  0  0  0
  -21.2560   16.0535  -16.7001 F   0  0  0  0  0  0  0  0  0  0  0  0
  -21.0196   14.3021  -18.3307 C   0  0  0  0  0  0  0  0  0  0  0  0
  -20.2553   13.2921  -18.8584 C   0  0  0  0  0  0  0  0  0  0  0  0
  -18.9462   10.1038  -17.3626 C   0  0  0  0  0  0  0  0  0  0  0  0
  -18.5576    8.9168  -16.7324 C   0  0  0  0  0  0  0  0  0  0  0  0
  -19.3722    8.4725  -15.7133 C   0  0  0  0  0  0  0  0  0  0  0  0
  -20.5108    9.1187  -15.3004 C   0  0  0  0  0  0  0  0  0  0  0  0
  -20.8853   10.2888  -15.9290 C   0  0  0  0  0  0  0  0  0  0  0  0
  -20.1015   10.7546  -16.9399 C   0  0  0  0  0  0  0  0  0  0  0  0
  -21.5155    8.5295  -14.0029 S   0  0  0  0  0  0  0  0  0  0  0  0
  -20.9876    6.8779  -13.5888 C   0  0  0  0  0  0  0  0  0  0  0  0
  -22.9473    8.4519  -14.4917 O   0  0  0  0  0  0  0  0  0  0  0  0
  -21.4980    9.4503  -12.8357 O   0  0  0  0  0  0  0  0  0  0  0  0
  -15.2276   11.5472  -22.5875 C   0  0  0  0  0  0  0  0  0  0  0  0
  -15.4595   10.3114  -21.2919 S   0  0  0  0  0  0  0  0  0  0  0  0
 24 25  1  0  0  0
 25  1  1  0  0  0
  1  2  2  0  0  0
  2  3  1  0  0  0
  3  7  1  0  0  0
  7  8  2  0  0  0
  8  9  1  0  0  0
  9 10  2  0  0  0
 10 11  1  0  0  0
 10 12  1  0  0  0
 12 13  2  0  0  0
  3  4  2  0  0  0
  4 14  1  0  0  0
 14 15  2  0  0  0
 15 16  1  0  0  0
 16 17  2  0  0  0
 17 20  1  0  0  0
 20 21  1  0  0  0
 20 22  2  0  0  0
 20 23  2  0  0  0
 17 18  1  0  0  0
 18 19  2  0  0  0
  4  5  1  0  0  0
  5  1  1  0  0  0
 13  7  1  0  0  0
 19 14  1  0  0  0
  5  6  1  0  0  0
M  END
> <minimizedAffinity>
-6.78498

> <CNNscore>
0.8121084571

> <CNNaffinity>
6.1232962608

> <CNN_VS>
4.9727807045

> <CNNaffinity_variance>
0.0937580839

$$$$
[H]c1c([H])c(-c2c([H])c(SC([H])([H])[H])n([H])c2-c2c([H])c([H])c(S(=O)(=O)C([H])([H])[H])c([H])c2[H])c([H])c([H])c1F


 25 27  0  0  0  0  0  0  0  0999 V2000
  -16.7867   12.1710  -21.7808 C   0  0  0  0  0  0  0  0  0  0  0  0
  -16.2260   12.3525  -23.0540 C   0  0  0  0  0  0  0  0  0  0  0  0
  -16.4929   13.6347  -23.4655 C   0  0  0  0  0  0  0  0  0  0  0  0
  -17.2064   14.2287  -22.4588 C   0  0  0  0  0  0  0  0  0  0  0  0
  -17.3721   13.3348  -21.4575 N   0  0  0  0  0  0  0  0  0  0  0  0
  -17.8706   13.4919  -20.5615 H   0  0  0  0  0  0  0  0  0  0  0  0
  -16.0960   14.2435  -24.7223 C   0  0  0  0  0  0  0  0  0  0  0  0
  -16.8754   14.0972  -25.8515 C   0  0  0  0  0  0  0  0  0  0  0  0
  -16.5402   14.6465  -27.0445 C   0  0  0  0  0  0  0  0  0  0  0  0
  -15.3874   15.3813  -27.1631 C   0  0  0  0  0  0  0  0  0  0  0  0
  -15.0975   15.9051  -28.3659 F   0  0  0  0  0  0  0  0  0  0  0  0
  -14.5828   15.5462  -26.0447 C   0  0  0  0  0  0  0  0  0  0  0  0
  -14.9340   14.9846  -24.8430 C   0  0  0  0  0  0  0  0  0  0  0  0
  -17.6953   15.5933  -22.4922 C   0  0  0  0  0  0  0  0  0  0  0  0
  -17.0475   16.5772  -21.7377 C   0  0  0  0  0  0  0  0  0  0  0  0
  -17.5665   17.8511  -21.8229 C   0  0  0  0  0  0  0  0  0  0  0  0
  -18.6544   18.1897  -22.5885 C   0  0  0  0  0  0  0  0  0  0  0  0
  -19.2863   17.2113  -23.3289 C   0  0  0  0  0  0  0  0  0  0  0  0
  -18.7979   15.9422  -23.2665 C   0  0  0  0  0  0  0  0  0  0  0  0
  -19.2811   19.8145  -22.6762 S   0  0  0  0  0  0  0  0  0  0  0  0
  -21.0214   19.7671  -22.2927 C   0  0  0  0  0  0  0  0  0  0  0  0
  -19.1309   20.3190  -24.0967 O   0  0  0  0  0  0  0  0  0  0  0  0
  -18.5217   20.7421  -21.7968 O   0  0  0  0  0  0  0  0  0  0  0  0
  -16.3917   11.0800  -19.0297 C   0  0  0  0  0  0  0  0  0  0  0  0
  -16.7625   10.7182  -20.7592 S   0  0  0  0  0  0  0  0  0  0  0  0
 24 25  1  0  0  0
 25  1  1  0  0  0
  1  2  2  0  0  0
  2  3  1  0  0  0
  3  7  1  0  0  0
  7  8  2  0  0  0
  8  9  1  0  0  0
  9 10  2  0  0  0
 10 11  1  0  0  0
 10 12  1  0  0  0
 12 13  2  0  0  0
  3  4  2  0  0  0
  4 14  1  0  0  0
 14 15  2  0  0  0
 15 16  1  0  0  0
 16 17  2  0  0  0
 17 20  1  0  0  0
 20 21  1  0  0  0
 20 22  2  0  0  0
 20 23  2  0  0  0
 17 18  1  0  0  0
 18 19  2  0  0  0
  4  5  1  0  0  0
  5  1  1  0  0  0
 13  7  1  0  0  0
 19 14  1  0  0  0
  5  6  1  0  0  0
M  END
> <minimizedAffinity>
-8.13041

> <CNNscore>
0.5941484571

> <CNNaffinity>
6.4641542435

> <CNN_VS>
3.8406672478

> <CNNaffinity_variance>
0.1491033733

$$$$
[H]c1c([H])c(-c2c([H])c(SC([H])([H])[H])n([H])c2-c2c([H])c([H])c(S(=O)(=O)C([H])([H])[H])c([H])c2[H])c([H])c([H])c1F


 25 27  0  0  0  0  0  0  0  0999 V2000
  -16.6342   10.9071  -20.2685 C   0  0  0  0  0  0  0  0  0  0  0  0
  -17.1866   10.0116  -19.3404 C   0  0  0  0  0  0  0  0  0  0  0  0
  -18.0876   10.6957  -18.5626 C   0  0  0  0  0  0  0  0  0  0  0  0
  -18.0861   11.9905  -19.0084 C   0  0  0  0  0  0  0  0  0  0  0  0
  -17.2084   12.0970  -20.0317 N   0  0  0  0  0  0  0  0  0  0  0  0
  -16.9879   12.9536  -20.5738 H   0  0  0  0  0  0  0  0  0  0  0  0
  -18.8870   10.1530  -17.4790 C   0  0  0  0  0  0  0  0  0  0  0  0
  -20.0197   10.8099  -17.0438 C   0  0  0  0  0  0  0  0  0  0  0  0
  -20.7923   10.3395  -16.0342 C   0  0  0  0  0  0  0  0  0  0  0  0
  -20.4593    9.1676  -15.4028 C   0  0  0  0  0  0  0  0  0  0  0  0
  -21.2554    8.7423  -14.4075 F   0  0  0  0  0  0  0  0  0  0  0  0
  -19.3255    8.4841  -15.8184 C   0  0  0  0  0  0  0  0  0  0  0  0
  -18.5523    8.9717  -16.8417 C   0  0  0  0  0  0  0  0  0  0  0  0
  -18.9002   13.0528  -18.4506 C   0  0  0  0  0  0  0  0  0  0  0  0
  -18.4295   13.7781  -17.3508 C   0  0  0  0  0  0  0  0  0  0  0  0
  -19.2563   14.7745  -16.8785 C   0  0  0  0  0  0  0  0  0  0  0  0
  -20.4810   15.0793  -17.4186 C   0  0  0  0  0  0  0  0  0  0  0  0
  -20.9360   14.3574  -18.5032 C   0  0  0  0  0  0  0  0  0  0  0  0
  -20.1426   13.3660  -18.9939 C   0  0  0  0  0  0  0  0  0  0  0  0
  -21.4991   16.3512  -16.7974 S   0  0  0  0  0  0  0  0  0  0  0  0
  -23.0667   15.6404  -16.3334 C   0  0  0  0  0  0  0  0  0  0  0  0
  -21.7523   17.3564  -17.9021 O   0  0  0  0  0  0  0  0  0  0  0  0
  -20.8432   17.0808  -15.6801 O   0  0  0  0  0  0  0  0  0  0  0  0
  -15.3732   11.8624  -22.8008 C   0  0  0  0  0  0  0  0  0  0  0  0
  -15.4165   10.5888  -21.5218 S   0  0  0  0  0  0  0  0  0  0  0  0
 24 25  1  0  0  0
 25  1  1  0  0  0
  1  2  2  0  0  0
  2  3  1  0  0  0
  3  7  1  0  0  0
  7  8  2  0  0  0
  8  9  1  0  0  0
  9 10  2  0  0  0
 10 11  1  0  0  0
 10 12  1  0  0  0
 12 13  2  0  0  0
  3  4  2  0  0  0
  4 14  1  0  0  0
 14 15  2  0  0  0
 15 16  1  0  0  0
 16 17  2  0  0  0
 17 20  1  0  0  0
 20 21  1  0  0  0
 20 22  2  0  0  0
 20 23  2  0  0  0
 17 18  1  0  0  0
 18 19  2  0  0  0
  4  5  1  0  0  0
  5  1  1  0  0  0
 13  7  1  0  0  0
 19 14  1  0  0  0
  5  6  1  0  0  0
M  END
> <minimizedAffinity>
-6.76120

> <CNNscore>
0.5887213349

> <CNNaffinity>
5.8628740311

> <CNN_VS>
3.4515991211

> <CNNaffinity_variance>
0.1709499508

$$$$
[H]c1c([H])c(-c2c([H])c(SC([H])([H])[H])n([H])c2-c2c([H])c([H])c(S(=O)(=O)C([H])([H])[H])c([H])c2[H])c([H])c([H])c1F


 25 27  0  0  0  0  0  0  0  0999 V2000
  -16.8320   11.5327  -21.0528 C   0  0  0  0  0  0  0  0  0  0  0  0
  -16.2853   11.8169  -22.3132 C   0  0  0  0  0  0  0  0  0  0  0  0
  -16.5359   13.1344  -22.6064 C   0  0  0  0  0  0  0  0  0  0  0  0
  -17.2259   13.6484  -21.5410 C   0  0  0  0  0  0  0  0  0  0  0  0
  -17.3934   12.6725  -20.6199 N   0  0  0  0  0  0  0  0  0  0  0  0
  -17.8773   12.7578  -19.7063 H   0  0  0  0  0  0  0  0  0  0  0  0
  -16.1454   13.8453  -23.8105 C   0  0  0  0  0  0  0  0  0  0  0  0
  -14.8634   14.3354  -23.9531 C   0  0  0  0  0  0  0  0  0  0  0  0
  -14.4587   15.0066  -25.0590 C   0  0  0  0  0  0  0  0  0  0  0  0
  -15.3361   15.2215  -26.0919 C   0  0  0  0  0  0  0  0  0  0  0  0
  -14.8886   15.8923  -27.1667 F   0  0  0  0  0  0  0  0  0  0  0  0
  -16.6326   14.7404  -25.9777 C   0  0  0  0  0  0  0  0  0  0  0  0
  -17.0291   14.0625  -24.8526 C   0  0  0  0  0  0  0  0  0  0  0  0
  -17.6921   15.0181  -21.4472 C   0  0  0  0  0  0  0  0  0  0  0  0
  -16.7786   16.0406  -21.1693 C   0  0  0  0  0  0  0  0  0  0  0  0
  -17.2945   17.3167  -21.0995 C   0  0  0  0  0  0  0  0  0  0  0  0
  -18.6200   17.6225  -21.2837 C   0  0  0  0  0  0  0  0  0  0  0  0
  -19.5128   16.6062  -21.5571 C   0  0  0  0  0  0  0  0  0  0  0  0
  -19.0347   15.3339  -21.6328 C   0  0  0  0  0  0  0  0  0  0  0  0
  -19.2370   19.2508  -21.1929 S   0  0  0  0  0  0  0  0  0  0  0  0
  -20.8864   19.2654  -21.8689 C   0  0  0  0  0  0  0  0  0  0  0  0
  -18.3727   20.1484  -22.0544 O   0  0  0  0  0  0  0  0  0  0  0  0
  -19.1775   19.7820  -19.8055 O   0  0  0  0  0  0  0  0  0  0  0  0
  -17.6129   10.1109  -18.5460 C   0  0  0  0  0  0  0  0  0  0  0  0
  -16.8188    9.9953  -20.1633 S   0  0  0  0  0  0  0  0  0  0  0  0
 24 25  1  0  0  0
 25  1  1  0  0  0
  1  2  2  0  0  0
  2  3  1  0  0  0
  3  7  1  0  0  0
  7  8  2  0  0  0
  8  9  1  0  0  0
  9 10  2  0  0  0
 10 11  1  0  0  0
 10 12  1  0  0  0
 12 13  2  0  0  0
  3  4  2  0  0  0
  4 14  1  0  0  0
 14 15  2  0  0  0
 15 16  1  0  0  0
 16 17  2  0  0  0
 17 20  1  0  0  0
 20 21  1  0  0  0
 20 22  2  0  0  0
 20 23  2  0  0  0
 17 18  1  0  0  0
 18 19  2  0  0  0
  4  5  1  0  0  0
  5  1  1  0  0  0
 13  7  1  0  0  0
 19 14  1  0  0  0
  5  6  1  0  0  0
M  END
> <minimizedAffinity>
-7.83204

> <CNNscore>
0.4804044962

> <CNNaffinity>
6.4046430588

> <CNN_VS>
3.0768194199

> <CNNaffinity_variance>
0.0463578664

$$$$
[H]c1c([H])c(-c2c([H])c(SC([H])([H])[H])n([H])c2-c2c([H])c([H])c(S(=O)(=O)C([H])([H])[H])c([H])c2[H])c([H])c([H])c1F


 25 27  0  0  0  0  0  0  0  0999 V2000
  -20.1437   17.4175  -22.3112 C   0  0  0  0  0  0  0  0  0  0  0  0
  -19.1175   17.3286  -23.2637 C   0  0  0  0  0  0  0  0  0  0  0  0
  -18.3455   16.2329  -22.9671 C   0  0  0  0  0  0  0  0  0  0  0  0
  -18.8915   15.6601  -21.8495 C   0  0  0  0  0  0  0  0  0  0  0  0
  -19.9689   16.3849  -21.4717 N   0  0  0  0  0  0  0  0  0  0  0  0
  -20.5888   16.1990  -20.6609 H   0  0  0  0  0  0  0  0  0  0  0  0
  -17.1782   15.7703  -23.6958 C   0  0  0  0  0  0  0  0  0  0  0  0
  -17.3173   15.1016  -24.8947 C   0  0  0  0  0  0  0  0  0  0  0  0
  -16.2545   14.6508  -25.6052 C   0  0  0  0  0  0  0  0  0  0  0  0
  -14.9801   14.8533  -25.1385 C   0  0  0  0  0  0  0  0  0  0  0  0
  -13.9593   14.3877  -25.8777 F   0  0  0  0  0  0  0  0  0  0  0  0
  -14.8082   15.5230  -23.9354 C   0  0  0  0  0  0  0  0  0  0  0  0
  -15.8928   15.9739  -23.2263 C   0  0  0  0  0  0  0  0  0  0  0  0
  -18.3734   14.4732  -21.1975 C   0  0  0  0  0  0  0  0  0  0  0  0
  -18.2472   14.4503  -19.8044 C   0  0  0  0  0  0  0  0  0  0  0  0
  -17.7514   13.2871  -19.2562 C   0  0  0  0  0  0  0  0  0  0  0  0
  -17.3869   12.1848  -19.9887 C   0  0  0  0  0  0  0  0  0  0  0  0
  -17.5152   12.2180  -21.3625 C   0  0  0  0  0  0  0  0  0  0  0  0
  -18.0022   13.3529  -21.9352 C   0  0  0  0  0  0  0  0  0  0  0  0
  -16.7674   10.7269  -19.2601 S   0  0  0  0  0  0  0  0  0  0  0  0
  -18.0448   10.0248  -18.2338 C   0  0  0  0  0  0  0  0  0  0  0  0
  -15.5980   11.0871  -18.3670 O   0  0  0  0  0  0  0  0  0  0  0  0
  -16.2623    9.7751  -20.2845 O   0  0  0  0  0  0  0  0  0  0  0  0
  -21.8443   19.3867  -23.7760 C   0  0  0  0  0  0  0  0  0  0  0  0
  -21.4361   18.6298  -22.1885 S   0  0  0  0  0  0  0  0  0  0  0  0
 24 25  1  0  0  0
 25  1  1  0  0  0
  1  2  2  0  0  0
  2  3  1  0  0  0
  3  7  1  0  0  0
  7  8  2  0  0  0
  8  9  1  0  0  0
  9 10  2  0  0  0
 10 11  1  0  0  0
 10 12  1  0  0  0
 12 13  2  0  0  0
  3  4  2  0  0  0
  4 14  1  0  0  0
 14 15  2  0  0  0
 15 16  1  0  0  0
 16 17  2  0  0  0
 17 20  1  0  0  0
 20 21  1  0  0  0
 20 22  2  0  0  0
 20 23  2  0  0  0
 17 18  1  0  0  0
 18 19  2  0  0  0
  4  5  1  0  0  0
  5  1  1  0  0  0
 13  7  1  0  0  0
 19 14  1  0  0  0
  5  6  1  0  0  0
M  END
> <minimizedAffinity>
-7.74586

> <CNNscore>
0.3964149058

> <CNNaffinity>
6.2106599808

> <CNN_VS>
2.4619982243

> <CNNaffinity_variance>
0.0814074948

$$$$
[H]c1c([H])c(-c2c([H])c(SC([H])([H])[H])n([H])c2-c2c([H])c([H])c(S(=O)(=O)C([H])([H])[H])c([H])c2[H])c([H])c([H])c1F


 25 27  0  0  0  0  0  0  0  0999 V2000
  -15.5624   15.0554  -25.2295 C   0  0  0  0  0  0  0  0  0  0  0  0
  -15.5364   13.7669  -24.6752 C   0  0  0  0  0  0  0  0  0  0  0  0
  -16.1417   13.8132  -23.4439 C   0  0  0  0  0  0  0  0  0  0  0  0
  -16.5321   15.1111  -23.2480 C   0  0  0  0  0  0  0  0  0  0  0  0
  -16.1759   15.8402  -24.3299 N   0  0  0  0  0  0  0  0  0  0  0  0
  -16.3372   16.8546  -24.4752 H   0  0  0  0  0  0  0  0  0  0  0  0
  -16.3320   12.7033  -22.5277 C   0  0  0  0  0  0  0  0  0  0  0  0
  -15.3609   11.7331  -22.3874 C   0  0  0  0  0  0  0  0  0  0  0  0
  -15.4997   10.6796  -21.5457 C   0  0  0  0  0  0  0  0  0  0  0  0
  -16.6388   10.5475  -20.7921 C   0  0  0  0  0  0  0  0  0  0  0  0
  -16.7304    9.4863  -19.9731 F   0  0  0  0  0  0  0  0  0  0  0  0
  -17.6334   11.5076  -20.9114 C   0  0  0  0  0  0  0  0  0  0  0  0
  -17.4799   12.5691  -21.7673 C   0  0  0  0  0  0  0  0  0  0  0  0
  -17.2102   15.5953  -22.0614 C   0  0  0  0  0  0  0  0  0  0  0  0
  -16.4575   16.0222  -20.9621 C   0  0  0  0  0  0  0  0  0  0  0  0
  -17.1712   16.4726  -19.8725 C   0  0  0  0  0  0  0  0  0  0  0  0
  -18.5420   16.5207  -19.8163 C   0  0  0  0  0  0  0  0  0  0  0  0
  -19.2749   16.0970  -20.9062 C   0  0  0  0  0  0  0  0  0  0  0  0
  -18.5996   15.6462  -21.9988 C   0  0  0  0  0  0  0  0  0  0  0  0
  -19.4120   17.1019  -18.4215 S   0  0  0  0  0  0  0  0  0  0  0  0
  -18.9916   16.0730  -17.0278 C   0  0  0  0  0  0  0  0  0  0  0  0
  -20.8979   16.9547  -18.6775 O   0  0  0  0  0  0  0  0  0  0  0  0
  -19.1486   18.5442  -18.1740 O   0  0  0  0  0  0  0  0  0  0  0  0
  -16.1288   15.4543  -28.1339 C   0  0  0  0  0  0  0  0  0  0  0  0
  -14.9249   15.5979  -26.7961 S   0  0  0  0  0  0  0  0  0  0  0  0
 24 25  1  0  0  0
 25  1  1  0  0  0
  1  2  2  0  0  0
  2  3  1  0  0  0
  3  7  1  0  0  0
  7  8  2  0  0  0
  8  9  1  0  0  0
  9 10  2  0  0  0
 10 11  1  0  0  0
 10 12  1  0  0  0
 12 13  2  0  0  0
  3  4  2  0  0  0
  4 14  1  0  0  0
 14 15  2  0  0  0
 15 16  1  0  0  0
 16 17  2  0  0  0
 17 20  1  0  0  0
 20 21  1  0  0  0
 20 22  2  0  0  0
 20 23  2  0  0  0
 17 18  1  0  0  0
 18 19  2  0  0  0
  4  5  1  0  0  0
  5  1  1  0  0  0
 13  7  1  0  0  0
 19 14  1  0  0  0
  5  6  1  0  0  0
M  END
> <minimizedAffinity>
-7.84596

> <CNNscore>
0.2996352315

> <CNNaffinity>
6.2746334076

> <CNN_VS>
1.8801012039

> <CNNaffinity_variance>
0.1579394341

$$$$
[H]c1c([H])c(-c2c([H])c(SC([H])([H])[H])n([H])c2-c2c([H])c([H])c(S(=O)(=O)C([H])([H])[H])c([H])c2[H])c([H])c([H])c1F


 25 27  0  0  0  0  0  0  0  0999 V2000
  -17.1460   13.0568  -21.8862 C   0  0  0  0  0  0  0  0  0  0  0  0
  -17.6862   14.1697  -21.2246 C   0  0  0  0  0  0  0  0  0  0  0  0
  -18.2254   13.7463  -20.0351 C   0  0  0  0  0  0  0  0  0  0  0  0
  -18.0179   12.3943  -19.9704 C   0  0  0  0  0  0  0  0  0  0  0  0
  -17.3692   11.9999  -21.0896 N   0  0  0  0  0  0  0  0  0  0  0  0
  -17.0736   11.0345  -21.3280 H   0  0  0  0  0  0  0  0  0  0  0  0
  -18.8860   14.5705  -19.0392 C   0  0  0  0  0  0  0  0  0  0  0  0
  -20.2165   14.9093  -19.1774 C   0  0  0  0  0  0  0  0  0  0  0  0
  -20.8703   15.6783  -18.2726 C   0  0  0  0  0  0  0  0  0  0  0  0
  -20.2090   16.1518  -17.1675 C   0  0  0  0  0  0  0  0  0  0  0  0
  -20.8993   16.9104  -16.2997 F   0  0  0  0  0  0  0  0  0  0  0  0
  -18.8700   15.8277  -17.0010 C   0  0  0  0  0  0  0  0  0  0  0  0
  -18.2203   15.0483  -17.9246 C   0  0  0  0  0  0  0  0  0  0  0  0
  -18.4411   11.5495  -18.8706 C   0  0  0  0  0  0  0  0  0  0  0  0
  -19.5113   11.9510  -18.0641 C   0  0  0  0  0  0  0  0  0  0  0  0
  -19.8587   11.0950  -17.0413 C   0  0  0  0  0  0  0  0  0  0  0  0
  -19.2246    9.9049  -16.7845 C   0  0  0  0  0  0  0  0  0  0  0  0
  -18.1697    9.5183  -17.5860 C   0  0  0  0  0  0  0  0  0  0  0  0
  -17.8018   10.3421  -18.6054 C   0  0  0  0  0  0  0  0  0  0  0  0
  -19.6949    8.8436  -15.4834 S   0  0  0  0  0  0  0  0  0  0  0  0
  -21.4257    9.1028  -15.1443 C   0  0  0  0  0  0  0  0  0  0  0  0
  -18.9153    9.2208  -14.2405 O   0  0  0  0  0  0  0  0  0  0  0  0
  -19.3736    7.4249  -15.7911 O   0  0  0  0  0  0  0  0  0  0  0  0
  -15.0745   14.2845  -23.6519 C   0  0  0  0  0  0  0  0  0  0  0  0
  -16.3262   12.9974  -23.4609 S   0  0  0  0  0  0  0  0  0  0  0  0
 24 25  1  0  0  0
 25  1  1  0  0  0
  1  2  2  0  0  0
  2  3  1  0  0  0
  3  7  1  0  0  0
  7  8  2  0  0  0
  8  9  1  0  0  0
  9 10  2  0  0  0
 10 11  1  0  0  0
 10 12  1  0  0  0
 12 13  2  0  0  0
  3  4  2  0  0  0
  4 14  1  0  0  0
 14 15  2  0  0  0
 15 16  1  0  0  0
 16 17  2  0  0  0
 17 20  1  0  0  0
 20 21  1  0  0  0
 20 22  2  0  0  0
 20 23  2  0  0  0
 17 18  1  0  0  0
 18 19  2  0  0  0
  4  5  1  0  0  0
  5  1  1  0  0  0
 13  7  1  0  0  0
 19 14  1  0  0  0
  5  6  1  0  0  0
M  END
> <minimizedAffinity>
-7.47495

> <CNNscore>
0.2987970412

> <CNNaffinity>
5.8604860306

> <CNN_VS>
1.7510958910

> <CNNaffinity_variance>
0.1186233163

$$$$
[H]c1c([H])c(-c2c([H])c(SC([H])([H])[H])n([H])c2-c2c([H])c([H])c(S(=O)(=O)C([H])([H])[H])c([H])c2[H])c([H])c([H])c1F


 25 27  0  0  0  0  0  0  0  0999 V2000
  -17.0844   13.3992  -22.0567 C   0  0  0  0  0  0  0  0  0  0  0  0
  -17.6498   14.4732  -21.3531 C   0  0  0  0  0  0  0  0  0  0  0  0
  -18.1823   13.9916  -20.1830 C   0  0  0  0  0  0  0  0  0  0  0  0
  -17.9459   12.6427  -20.1712 C   0  0  0  0  0  0  0  0  0  0  0  0
  -17.2865   12.3070  -21.3031 N   0  0  0  0  0  0  0  0  0  0  0  0
  -16.9696   11.3584  -21.5787 H   0  0  0  0  0  0  0  0  0  0  0  0
  -18.8627   14.7612  -19.1572 C   0  0  0  0  0  0  0  0  0  0  0  0
  -18.1881   15.1793  -18.0284 C   0  0  0  0  0  0  0  0  0  0  0  0
  -18.7860   15.8969  -17.0461 C   0  0  0  0  0  0  0  0  0  0  0  0
  -20.1117   16.2350  -17.1517 C   0  0  0  0  0  0  0  0  0  0  0  0
  -20.6599   16.9464  -16.1524 F   0  0  0  0  0  0  0  0  0  0  0  0
  -20.8168   15.8289  -18.2757 C   0  0  0  0  0  0  0  0  0  0  0  0
  -20.1992   15.1027  -19.2626 C   0  0  0  0  0  0  0  0  0  0  0  0
  -18.3532   11.7462  -19.1069 C   0  0  0  0  0  0  0  0  0  0  0  0
  -17.6648   10.5433  -18.9165 C   0  0  0  0  0  0  0  0  0  0  0  0
  -18.1063    9.7451  -17.8834 C   0  0  0  0  0  0  0  0  0  0  0  0
  -19.1562   10.0640  -17.0585 C   0  0  0  0  0  0  0  0  0  0  0  0
  -19.8288   11.2530  -17.2552 C   0  0  0  0  0  0  0  0  0  0  0  0
  -19.4170   12.0643  -18.2678 C   0  0  0  0  0  0  0  0  0  0  0  0
  -19.6847    9.0311  -15.7569 S   0  0  0  0  0  0  0  0  0  0  0  0
  -21.3943    9.3964  -15.4081 C   0  0  0  0  0  0  0  0  0  0  0  0
  -18.8767    9.3566  -14.5175 O   0  0  0  0  0  0  0  0  0  0  0  0
  -19.4535    7.5959  -16.0689 O   0  0  0  0  0  0  0  0  0  0  0  0
  -17.3364   12.9315  -24.9949 C   0  0  0  0  0  0  0  0  0  0  0  0
  -16.2602   13.4198  -23.6300 S   0  0  0  0  0  0  0  0  0  0  0  0
 24 25  1  0  0  0
 25  1  1  0  0  0
  1  2  2  0  0  0
  2  3  1  0  0  0
  3  7  1  0  0  0
  7  8  2  0  0  0
  8  9  1  0  0  0
  9 10  2  0  0  0
 10 11  1  0  0  0
 10 12  1  0  0  0
 12 13  2  0  0  0
  3  4  2  0  0  0
  4 14  1  0  0  0
 14 15  2  0  0  0
 15 16  1  0  0  0
 16 17  2  0  0  0
 17 20  1  0  0  0
 20 21  1  0  0  0
 20 22  2  0  0  0
 20 23  2  0  0  0
 17 18  1  0  0  0
 18 19  2  0  0  0
  4  5  1  0  0  0
  5  1  1  0  0  0
 13  7  1  0  0  0
 19 14  1  0  0  0
  5  6  1  0  0  0
M  END
> <minimizedAffinity>
-7.48958

> <CNNscore>
0.2524618804

> <CNNaffinity>
5.8493227959

> <CNN_VS>
1.4767310619

> <CNNaffinity_variance>
0.1157141551

$$$$
[H]c1c([H])c(-c2c([H])c(SC([H])([H])[H])n([H])c2-c2c([H])c([H])c(S(=O)(=O)C([H])([H])[H])c([H])c2[H])c([H])c([H])c1F


 25 27  0  0  0  0  0  0  0  0999 V2000
  -17.9033   11.4763  -19.1050 C   0  0  0  0  0  0  0  0  0  0  0  0
  -18.5052   12.6858  -18.7268 C   0  0  0  0  0  0  0  0  0  0  0  0
  -18.3360   13.5905  -19.7455 C   0  0  0  0  0  0  0  0  0  0  0  0
  -17.6407   12.9436  -20.7322 C   0  0  0  0  0  0  0  0  0  0  0  0
  -17.3908   11.6771  -20.3292 N   0  0  0  0  0  0  0  0  0  0  0  0
  -16.8829   10.9454  -20.8610 H   0  0  0  0  0  0  0  0  0  0  0  0
  -18.8032   14.9647  -19.7728 C   0  0  0  0  0  0  0  0  0  0  0  0
  -19.9679   15.2983  -20.4331 C   0  0  0  0  0  0  0  0  0  0  0  0
  -20.4378   16.5687  -20.4851 C   0  0  0  0  0  0  0  0  0  0  0  0
  -19.7496   17.5819  -19.8664 C   0  0  0  0  0  0  0  0  0  0  0  0
  -20.2547   18.8243  -19.9464 F   0  0  0  0  0  0  0  0  0  0  0  0
  -18.5745   17.2774  -19.1941 C   0  0  0  0  0  0  0  0  0  0  0  0
  -18.1102   15.9870  -19.1494 C   0  0  0  0  0  0  0  0  0  0  0  0
  -17.2466   13.5466  -21.9905 C   0  0  0  0  0  0  0  0  0  0  0  0
  -16.4984   14.7286  -21.9851 C   0  0  0  0  0  0  0  0  0  0  0  0
  -16.1576   15.2402  -23.2187 C   0  0  0  0  0  0  0  0  0  0  0  0
  -16.5065   14.6633  -24.4145 C   0  0  0  0  0  0  0  0  0  0  0  0
  -17.2450   13.4975  -24.4086 C   0  0  0  0  0  0  0  0  0  0  0  0
  -17.5976   12.9663  -23.2058 C   0  0  0  0  0  0  0  0  0  0  0  0
  -16.0532   15.3365  -25.9578 S   0  0  0  0  0  0  0  0  0  0  0  0
  -14.2777   15.4888  -26.0049 C   0  0  0  0  0  0  0  0  0  0  0  0
  -16.6431   16.7269  -26.0754 O   0  0  0  0  0  0  0  0  0  0  0  0
  -16.5932   14.5322  -27.0856 O   0  0  0  0  0  0  0  0  0  0  0  0
  -19.1770    9.7390  -17.0374 C   0  0  0  0  0  0  0  0  0  0  0  0
  -17.8044    9.9572  -18.1898 S   0  0  0  0  0  0  0  0  0  0  0  0
 24 25  1  0  0  0
 25  1  1  0  0  0
  1  2  2  0  0  0
  2  3  1  0  0  0
  3  7  1  0  0  0
  7  8  2  0  0  0
  8  9  1  0  0  0
  9 10  2  0  0  0
 10 11  1  0  0  0
 10 12  1  0  0  0
 12 13  2  0  0  0
  3  4  2  0  0  0
  4 14  1  0  0  0
 14 15  2  0  0  0
 15 16  1  0  0  0
 16 17  2  0  0  0
 17 20  1  0  0  0
 20 21  1  0  0  0
 20 22  2  0  0  0
 20 23  2  0  0  0
 17 18  1  0  0  0
 18 19  2  0  0  0
  4  5  1  0  0  0
  5  1  1  0  0  0
 13  7  1  0  0  0
 19 14  1  0  0  0
  5  6  1  0  0  0
M  END
> <minimizedAffinity>
-7.24854

> <CNNscore>
0.2437220961

> <CNNaffinity>
6.1734838486

> <CNN_VS>
1.5046144724

> <CNNaffinity_variance>
0.1117413044

$$$$
[H]OC([H])([H])C([H])([H])N([H])C(=O)[C@@]1([H])O[C@@]([H])(n2c([H])nc3c(N([H])C([H])([H])c4c([H])c([H])c([H])c([H])c4C([H])([H])[H])nc([H])nc32)[C@]([H])(O[H])[C@]1([H])O[H]


 36 39  0  0  0  0  0  0  0  0999 V2000
  -16.7749   12.1678  -21.5366 C   0  0  0  0  0  0  0  0  0  0  0  0
  -16.7219   11.0273  -20.8138 N   0  0  0  0  0  0  0  0  0  0  0  0
  -17.3156   10.9095  -19.6182 C   0  0  0  0  0  0  0  0  0  0  0  0
  -17.9847   11.9593  -19.1228 N   0  0  0  0  0  0  0  0  0  0  0  0
  -18.0725   13.1118  -19.7892 C   0  0  0  0  0  0  0  0  0  0  0  0
  -17.4710   13.2366  -21.0045 C   0  0  0  0  0  0  0  0  0  0  0  0
  -17.7083   14.4814  -21.4584 N   0  0  0  0  0  0  0  0  0  0  0  0
  -18.4475   15.1480  -20.5558 C   0  0  0  0  0  0  0  0  0  0  0  0
  -18.6673   14.3043  -19.5361 N   0  0  0  0  0  0  0  0  0  0  0  0
  -19.4155   14.6222  -18.3642 C   0  0  0  0  0  0  0  0  0  0  0  0
  -20.4634   15.5081  -18.6024 O   0  0  0  0  0  0  0  0  0  0  0  0
  -20.8321   15.9047  -17.3026 C   0  0  0  0  0  0  0  0  0  0  0  0
  -19.4744   16.3397  -16.7626 C   0  0  0  0  0  0  0  0  0  0  0  0
  -19.4652   16.4967  -15.4015 O   0  0  0  0  0  0  0  0  0  0  0  0
  -18.6196   15.1665  -17.2268 C   0  0  0  0  0  0  0  0  0  0  0  0
  -18.5672   14.2689  -16.1473 O   0  0  0  0  0  0  0  0  0  0  0  0
  -18.7121   17.1065  -15.1556 H   0  0  0  0  0  0  0  0  0  0  0  0
  -17.6252   14.0195  -15.9445 H   0  0  0  0  0  0  0  0  0  0  0  0
  -21.8219   16.9692  -17.2995 C   0  0  0  0  0  0  0  0  0  0  0  0
  -22.7499   16.9787  -18.1377 O   0  0  0  0  0  0  0  0  0  0  0  0
  -21.7558   18.0149  -16.3491 N   0  0  0  0  0  0  0  0  0  0  0  0
  -20.9936   18.0273  -15.6434 H   0  0  0  0  0  0  0  0  0  0  0  0
  -22.7337   19.0923  -16.3241 C   0  0  0  0  0  0  0  0  0  0  0  0
  -23.8291   18.7715  -15.3628 C   0  0  0  0  0  0  0  0  0  0  0  0
  -24.8136   18.0278  -16.0162 O   0  0  0  0  0  0  0  0  0  0  0  0
  -25.3043   17.4255  -15.3808 H   0  0  0  0  0  0  0  0  0  0  0  0
  -16.1229   12.2751  -22.7932 N   0  0  0  0  0  0  0  0  0  0  0  0
  -15.0906   12.0859  -22.8182 H   0  0  0  0  0  0  0  0  0  0  0  0
  -16.8019   12.6237  -24.0017 C   0  0  0  0  0  0  0  0  0  0  0  0
  -17.4944   12.9443  -26.7360 C   0  0  0  0  0  0  0  0  0  0  0  0
  -16.5360   13.8722  -26.1216 C   0  0  0  0  0  0  0  0  0  0  0  0
  -15.9819   14.8687  -26.8657 C   0  0  0  0  0  0  0  0  0  0  0  0
  -15.0789   15.7561  -26.3172 C   0  0  0  0  0  0  0  0  0  0  0  0
  -14.7165   15.6495  -24.9921 C   0  0  0  0  0  0  0  0  0  0  0  0
  -15.2989   14.6240  -24.2625 C   0  0  0  0  0  0  0  0  0  0  0  0
  -16.2006   13.7232  -24.7730 C   0  0  0  0  0  0  0  0  0  0  0  0
 30 31  1  0  0  0
 31 32  2  0  0  0
 32 33  1  0  0  0
 33 34  2  0  0  0
 34 35  1  0  0  0
 35 36  2  0  0  0
 36 29  1  0  0  0
 29 27  1  0  0  0
 27  1  1  0  0  0
  1  2  2  0  0  0
  2  3  1  0  0  0
  3  4  2  0  0  0
  4  5  1  0  0  0
  5  6  2  0  0  0
  6  7  1  0  0  0
  7  8  2  0  0  0
  8  9  1  0  0  0
  9 10  1  0  0  0
 10 11  1  0  0  0
 11 12  1  0  0  0
 12 19  1  0  0  0
 19 20  2  0  0  0
 19 21  1  0  0  0
 21 23  1  0  0  0
 23 24  1  0  0  0
 24 25  1  0  0  0
 12 13  1  0  0  0
 13 14  1  0  0  0
 13 15  1  0  0  0
 15 16  1  0  0  0
 36 31  1  0  0  0
  6  1  1  0  0  0
 15 10  1  0  0  0
  9  5  1  0  0  0
 27 28  1  0  0  0
 21 22  1  0  0  0
 25 26  1  0  0  0
 14 17  1  0  0  0
 16 18  1  0  0  0
M  END
> <minimizedAffinity>
-7.62816

> <CNNscore>
0.8773723841

> <CNNaffinity>
6.5954742432

> <CNN_VS>
5.7866868973

> <CNNaffinity_variance>
0.4398099482

$$$$
[H]OC([H])([H])C([H])([H])N([H])C(=O)[C@@]1([H])O[C@@]([H])(n2c([H])nc3c(N([H])C([H])([H])c4c([H])c([H])c([H])c([H])c4C([H])([H])[H])nc([H])nc32)[C@]([H])(O[H])[C@]1([H])O[H]


 36 39  0  0  0  0  0  0  0  0999 V2000
  -16.6229   11.9678  -22.1729 C   0  0  0  0  0  0  0  0  0  0  0  0
  -15.7868   10.9500  -21.8712 N   0  0  0  0  0  0  0  0  0  0  0  0
  -15.7615   10.3801  -20.6586 C   0  0  0  0  0  0  0  0  0  0  0  0
  -16.5942   10.8357  -19.7131 N   0  0  0  0  0  0  0  0  0  0  0  0
  -17.4427   11.8376  -19.9504 C   0  0  0  0  0  0  0  0  0  0  0  0
  -17.4723   12.4200  -21.1810 C   0  0  0  0  0  0  0  0  0  0  0  0
  -18.4035   13.3918  -21.1571 N   0  0  0  0  0  0  0  0  0  0  0  0
  -18.9644   13.4372  -19.9369 C   0  0  0  0  0  0  0  0  0  0  0  0
  -18.3720   12.4833  -19.2027 N   0  0  0  0  0  0  0  0  0  0  0  0
  -18.6793   12.1979  -17.8394 C   0  0  0  0  0  0  0  0  0  0  0  0
  -19.2848   10.9568  -17.6588 O   0  0  0  0  0  0  0  0  0  0  0  0
  -19.7652   11.0384  -16.3378 C   0  0  0  0  0  0  0  0  0  0  0  0
  -20.5445   12.3462  -16.4191 C   0  0  0  0  0  0  0  0  0  0  0  0
  -20.8808   12.8461  -15.1885 O   0  0  0  0  0  0  0  0  0  0  0  0
  -19.5262   13.2131  -17.1498 C   0  0  0  0  0  0  0  0  0  0  0  0
  -18.8125   13.9018  -16.1548 O   0  0  0  0  0  0  0  0  0  0  0  0
  -21.6626   13.4597  -15.2960 H   0  0  0  0  0  0  0  0  0  0  0  0
  -18.7964   14.8782  -16.3476 H   0  0  0  0  0  0  0  0  0  0  0  0
  -20.5882    9.8988  -15.9677 C   0  0  0  0  0  0  0  0  0  0  0  0
  -21.8100   10.0416  -15.7426 O   0  0  0  0  0  0  0  0  0  0  0  0
  -20.0244    8.6063  -15.8550 N   0  0  0  0  0  0  0  0  0  0  0  0
  -19.0116    8.4642  -16.0374 H   0  0  0  0  0  0  0  0  0  0  0  0
  -20.8257    7.4489  -15.4863 C   0  0  0  0  0  0  0  0  0  0  0  0
  -20.2346    6.7712  -14.2955 C   0  0  0  0  0  0  0  0  0  0  0  0
  -19.3329    5.7938  -14.7208 O   0  0  0  0  0  0  0  0  0  0  0  0
  -18.6104    5.6373  -14.0420 H   0  0  0  0  0  0  0  0  0  0  0  0
  -16.6194   12.5679  -23.4596 N   0  0  0  0  0  0  0  0  0  0  0  0
  -17.3348   12.2315  -24.1502 H   0  0  0  0  0  0  0  0  0  0  0  0
  -15.6990   13.5914  -23.8450 C   0  0  0  0  0  0  0  0  0  0  0  0
  -13.7048   15.3028  -24.9187 C   0  0  0  0  0  0  0  0  0  0  0  0
  -14.8613   14.9354  -25.7462 C   0  0  0  0  0  0  0  0  0  0  0  0
  -14.9734   15.4230  -27.0126 C   0  0  0  0  0  0  0  0  0  0  0  0
  -16.0476   15.0961  -27.8144 C   0  0  0  0  0  0  0  0  0  0  0  0
  -17.0379   14.2615  -27.3440 C   0  0  0  0  0  0  0  0  0  0  0  0
  -16.8935   13.7826  -26.0505 C   0  0  0  0  0  0  0  0  0  0  0  0
  -15.8398   14.0850  -25.2240 C   0  0  0  0  0  0  0  0  0  0  0  0
 30 31  1  0  0  0
 31 32  2  0  0  0
 32 33  1  0  0  0
 33 34  2  0  0  0
 34 35  1  0  0  0
 35 36  2  0  0  0
 36 29  1  0  0  0
 29 27  1  0  0  0
 27  1  1  0  0  0
  1  2  2  0  0  0
  2  3  1  0  0  0
  3  4  2  0  0  0
  4  5  1  0  0  0
  5  6  2  0  0  0
  6  7  1  0  0  0
  7  8  2  0  0  0
  8  9  1  0  0  0
  9 10  1  0  0  0
 10 11  1  0  0  0
 11 12  1  0  0  0
 12 19  1  0  0  0
 19 20  2  0  0  0
 19 21  1  0  0  0
 21 23  1  0  0  0
 23 24  1  0  0  0
 24 25  1  0  0  0
 12 13  1  0  0  0
 13 14  1  0  0  0
 13 15  1  0  0  0
 15 16  1  0  0  0
 36 31  1  0  0  0
  6  1  1  0  0  0
 15 10  1  0  0  0
  9  5  1  0  0  0
 27 28  1  0  0  0
 21 22  1  0  0  0
 25 26  1  0  0  0
 14 17  1  0  0  0
 16 18  1  0  0  0
M  END
> <minimizedAffinity>
-8.71920

> <CNNscore>
0.8341321945

> <CNNaffinity>
6.4375267029

> <CNN_VS>
5.3697481155

> <CNNaffinity_variance>
0.1201606169

$$$$
[H]OC([H])([H])C([H])([H])N([H])C(=O)[C@@]1([H])O[C@@]([H])(n2c([H])nc3c(N([H])C([H])([H])c4c([H])c([H])c([H])c([H])c4C([H])([H])[H])nc([H])nc32)[C@]([H])(O[H])[C@]1([H])O[H]


 36 39  0  0  0  0  0  0  0  0999 V2000
  -17.0986   12.0457  -21.3297 C   0  0  0  0  0  0  0  0  0  0  0  0
  -16.2318   11.0263  -21.1408 N   0  0  0  0  0  0  0  0  0  0  0  0
  -16.2418   10.2747  -20.0314 C   0  0  0  0  0  0  0  0  0  0  0  0
  -17.1427   10.5437  -19.0768 N   0  0  0  0  0  0  0  0  0  0  0  0
  -18.0243   11.5367  -19.2054 C   0  0  0  0  0  0  0  0  0  0  0  0
  -18.0183   12.3034  -20.3309 C   0  0  0  0  0  0  0  0  0  0  0  0
  -18.9944   13.2226  -20.2112 N   0  0  0  0  0  0  0  0  0  0  0  0
  -19.6187   13.0542  -19.0334 C   0  0  0  0  0  0  0  0  0  0  0  0
  -19.0203   12.0207  -18.4221 N   0  0  0  0  0  0  0  0  0  0  0  0
  -19.3833   11.5132  -17.1395 C   0  0  0  0  0  0  0  0  0  0  0  0
  -19.3669   10.1223  -17.0720 O   0  0  0  0  0  0  0  0  0  0  0  0
  -20.0434    9.8651  -15.8642 C   0  0  0  0  0  0  0  0  0  0  0  0
  -21.3131   10.6772  -16.0930 C   0  0  0  0  0  0  0  0  0  0  0  0
  -22.0424   10.8641  -14.9481 O   0  0  0  0  0  0  0  0  0  0  0  0
  -20.7052   11.9704  -16.6229 C   0  0  0  0  0  0  0  0  0  0  0  0
  -20.5681   12.8218  -15.5139 O   0  0  0  0  0  0  0  0  0  0  0  0
  -22.9891   11.0618  -15.2014 H   0  0  0  0  0  0  0  0  0  0  0  0
  -20.9733   13.7111  -15.7027 H   0  0  0  0  0  0  0  0  0  0  0  0
  -20.2949    8.4493  -15.6514 C   0  0  0  0  0  0  0  0  0  0  0  0
  -19.4242    7.5978  -15.9356 O   0  0  0  0  0  0  0  0  0  0  0  0
  -21.5283    8.0063  -15.1190 N   0  0  0  0  0  0  0  0  0  0  0  0
  -22.2661    8.6960  -14.8756 H   0  0  0  0  0  0  0  0  0  0  0  0
  -21.8056    6.5953  -14.8961 C   0  0  0  0  0  0  0  0  0  0  0  0
  -22.3607    5.9772  -16.1356 C   0  0  0  0  0  0  0  0  0  0  0  0
  -21.3296    5.3577  -16.8444 O   0  0  0  0  0  0  0  0  0  0  0  0
  -21.6680    4.5868  -17.3906 H   0  0  0  0  0  0  0  0  0  0  0  0
  -17.0574   12.8399  -22.5058 N   0  0  0  0  0  0  0  0  0  0  0  0
  -17.7537   13.6216  -22.5840 H   0  0  0  0  0  0  0  0  0  0  0  0
  -16.1248   12.6221  -23.5668 C   0  0  0  0  0  0  0  0  0  0  0  0
  -17.6178   12.4819  -25.9772 C   0  0  0  0  0  0  0  0  0  0  0  0
  -16.7420   13.6364  -25.7379 C   0  0  0  0  0  0  0  0  0  0  0  0
  -16.6453   14.6217  -26.6726 C   0  0  0  0  0  0  0  0  0  0  0  0
  -15.8316   15.7186  -26.4767 C   0  0  0  0  0  0  0  0  0  0  0  0
  -15.0933   15.8391  -25.3196 C   0  0  0  0  0  0  0  0  0  0  0  0
  -15.2144   14.8185  -24.3885 C   0  0  0  0  0  0  0  0  0  0  0  0
  -16.0133   13.7133  -24.5477 C   0  0  0  0  0  0  0  0  0  0  0  0
 30 31  1  0  0  0
 31 32  2  0  0  0
 32 33  1  0  0  0
 33 34  2  0  0  0
 34 35  1  0  0  0
 35 36  2  0  0  0
 36 29  1  0  0  0
 29 27  1  0  0  0
 27  1  1  0  0  0
  1  2  2  0  0  0
  2  3  1  0  0  0
  3  4  2  0  0  0
  4  5  1  0  0  0
  5  6  2  0  0  0
  6  7  1  0  0  0
  7  8  2  0  0  0
  8  9  1  0  0  0
  9 10  1  0  0  0
 10 11  1  0  0  0
 11 12  1  0  0  0
 12 19  1  0  0  0
 19 20  2  0  0  0
 19 21  1  0  0  0
 21 23  1  0  0  0
 23 24  1  0  0  0
 24 25  1  0  0  0
 12 13  1  0  0  0
 13 14  1  0  0  0
 13 15  1  0  0  0
 15 16  1  0  0  0
 36 31  1  0  0  0
  6  1  1  0  0  0
 15 10  1  0  0  0
  9  5  1  0  0  0
 27 28  1  0  0  0
 21 22  1  0  0  0
 25 26  1  0  0  0
 14 17  1  0  0  0
 16 18  1  0  0  0
M  END
> <minimizedAffinity>
-8.93764

> <CNNscore>
0.8306478858

> <CNNaffinity>
6.3717713356

> <CNN_VS>
5.2926983833

> <CNNaffinity_variance>
0.1832329929

$$$$
[H]OC([H])([H])C([H])([H])N([H])C(=O)[C@@]1([H])O[C@@]([H])(n2c([H])nc3c(N([H])C([H])([H])c4c([H])c([H])c([H])c([H])c4C([H])([H])[H])nc([H])nc32)[C@]([H])(O[H])[C@]1([H])O[H]


 36 39  0  0  0  0  0  0  0  0999 V2000
  -17.6078   10.3735  -18.6374 C   0  0  0  0  0  0  0  0  0  0  0  0
  -17.0525    9.8138  -19.7349 N   0  0  0  0  0  0  0  0  0  0  0  0
  -16.8062   10.5159  -20.8494 C   0  0  0  0  0  0  0  0  0  0  0  0
  -17.1217   11.8178  -20.8760 N   0  0  0  0  0  0  0  0  0  0  0  0
  -17.6720   12.4268  -19.8241 C   0  0  0  0  0  0  0  0  0  0  0  0
  -17.9243   11.7178  -18.6892 C   0  0  0  0  0  0  0  0  0  0  0  0
  -18.4737   12.5560  -17.7906 N   0  0  0  0  0  0  0  0  0  0  0  0
  -18.5748   13.7813  -18.3326 C   0  0  0  0  0  0  0  0  0  0  0  0
  -18.0824   13.6959  -19.5776 N   0  0  0  0  0  0  0  0  0  0  0  0
  -18.0062   14.7824  -20.4985 C   0  0  0  0  0  0  0  0  0  0  0  0
  -17.0520   14.5944  -21.4954 O   0  0  0  0  0  0  0  0  0  0  0  0
  -16.9413   15.8790  -22.0612 C   0  0  0  0  0  0  0  0  0  0  0  0
  -16.6870   16.7020  -20.8034 C   0  0  0  0  0  0  0  0  0  0  0  0
  -16.8370   18.0489  -21.0057 O   0  0  0  0  0  0  0  0  0  0  0  0
  -17.7578   16.1201  -19.8884 C   0  0  0  0  0  0  0  0  0  0  0  0
  -18.8743   16.9647  -20.0057 O   0  0  0  0  0  0  0  0  0  0  0  0
  -16.3250   18.5368  -20.2991 H   0  0  0  0  0  0  0  0  0  0  0  0
  -19.1966   17.2461  -19.1070 H   0  0  0  0  0  0  0  0  0  0  0  0
  -15.8689   15.9723  -23.0380 C   0  0  0  0  0  0  0  0  0  0  0  0
  -15.5053   17.0839  -23.4807 O   0  0  0  0  0  0  0  0  0  0  0  0
  -15.2152   14.8088  -23.5071 N   0  0  0  0  0  0  0  0  0  0  0  0
  -15.5007   13.8748  -23.1531 H   0  0  0  0  0  0  0  0  0  0  0  0
  -14.1390   14.8742  -24.4844 C   0  0  0  0  0  0  0  0  0  0  0  0
  -14.6858   15.2115  -25.8312 C   0  0  0  0  0  0  0  0  0  0  0  0
  -14.2999   16.5086  -26.1746 O   0  0  0  0  0  0  0  0  0  0  0  0
  -14.2324   16.6227  -27.1695 H   0  0  0  0  0  0  0  0  0  0  0  0
  -17.8760    9.6054  -17.4739 N   0  0  0  0  0  0  0  0  0  0  0  0
  -17.0570    9.3350  -16.8756 H   0  0  0  0  0  0  0  0  0  0  0  0
  -19.1904    9.1935  -17.0920 C   0  0  0  0  0  0  0  0  0  0  0  0
  -21.1893   11.0498  -16.3065 C   0  0  0  0  0  0  0  0  0  0  0  0
  -20.4903   10.2658  -15.2799 C   0  0  0  0  0  0  0  0  0  0  0  0
  -20.7973   10.4403  -13.9650 C   0  0  0  0  0  0  0  0  0  0  0  0
  -20.1586    9.7187  -12.9776 C   0  0  0  0  0  0  0  0  0  0  0  0
  -19.1875    8.7983  -13.3066 C   0  0  0  0  0  0  0  0  0  0  0  0
  -18.8987    8.6450  -14.6543 C   0  0  0  0  0  0  0  0  0  0  0  0
  -19.5127    9.3437  -15.6641 C   0  0  0  0  0  0  0  0  0  0  0  0
 30 31  1  0  0  0
 31 32  2  0  0  0
 32 33  1  0  0  0
 33 34  2  0  0  0
 34 35  1  0  0  0
 35 36  2  0  0  0
 36 29  1  0  0  0
 29 27  1  0  0  0
 27  1  1  0  0  0
  1  2  2  0  0  0
  2  3  1  0  0  0
  3  4  2  0  0  0
  4  5  1  0  0  0
  5  6  2  0  0  0
  6  7  1  0  0  0
  7  8  2  0  0  0
  8  9  1  0  0  0
  9 10  1  0  0  0
 10 11  1  0  0  0
 11 12  1  0  0  0
 12 19  1  0  0  0
 19 20  2  0  0  0
 19 21  1  0  0  0
 21 23  1  0  0  0
 23 24  1  0  0  0
 24 25  1  0  0  0
 12 13  1  0  0  0
 13 14  1  0  0  0
 13 15  1  0  0  0
 15 16  1  0  0  0
 36 31  1  0  0  0
  6  1  1  0  0  0
 15 10  1  0  0  0
  9  5  1  0  0  0
 27 28  1  0  0  0
 21 22  1  0  0  0
 25 26  1  0  0  0
 14 17  1  0  0  0
 16 18  1  0  0  0
M  END
> <minimizedAffinity>
-8.15208

> <CNNscore>
0.8288825154

> <CNNaffinity>
6.5735549927

> <CNN_VS>
5.4487047195

> <CNNaffinity_variance>
0.0714494139

$$$$
[H]OC([H])([H])C([H])([H])N([H])C(=O)[C@@]1([H])O[C@@]([H])(n2c([H])nc3c(N([H])C([H])([H])c4c([H])c([H])c([H])c([H])c4C([H])([H])[H])nc([H])nc32)[C@]([H])(O[H])[C@]1([H])O[H]


 36 39  0  0  0  0  0  0  0  0999 V2000
  -17.0591   12.2834  -21.7978 C   0  0  0  0  0  0  0  0  0  0  0  0
  -16.4514   11.1368  -21.4208 N   0  0  0  0  0  0  0  0  0  0  0  0
  -16.5482   10.6515  -20.1754 C   0  0  0  0  0  0  0  0  0  0  0  0
  -17.2727   11.3271  -19.2733 N   0  0  0  0  0  0  0  0  0  0  0  0
  -17.8959   12.4648  -19.5853 C   0  0  0  0  0  0  0  0  0  0  0  0
  -17.8007   12.9620  -20.8495 C   0  0  0  0  0  0  0  0  0  0  0  0
  -18.5120   14.1037  -20.9002 N   0  0  0  0  0  0  0  0  0  0  0  0
  -19.0558   14.3402  -19.6945 C   0  0  0  0  0  0  0  0  0  0  0  0
  -18.6751   13.3334  -18.8937 N   0  0  0  0  0  0  0  0  0  0  0  0
  -19.0393   13.2037  -17.5208 C   0  0  0  0  0  0  0  0  0  0  0  0
  -19.4776   11.9252  -17.1850 O   0  0  0  0  0  0  0  0  0  0  0  0
  -20.0609   12.1229  -15.9188 C   0  0  0  0  0  0  0  0  0  0  0  0
  -21.0067   13.2749  -16.2391 C   0  0  0  0  0  0  0  0  0  0  0  0
  -21.4992   13.8904  -15.1184 O   0  0  0  0  0  0  0  0  0  0  0  0
  -20.0679   14.1699  -17.0393 C   0  0  0  0  0  0  0  0  0  0  0  0
  -19.5326   15.0925  -16.1250 O   0  0  0  0  0  0  0  0  0  0  0  0
  -22.3488   14.3590  -15.3589 H   0  0  0  0  0  0  0  0  0  0  0  0
  -19.6384   16.0226  -16.4633 H   0  0  0  0  0  0  0  0  0  0  0  0
  -20.7421   10.9384  -15.4228 C   0  0  0  0  0  0  0  0  0  0  0  0
  -20.1449   10.1201  -14.6896 O   0  0  0  0  0  0  0  0  0  0  0  0
  -22.0931   10.6876  -15.7589 N   0  0  0  0  0  0  0  0  0  0  0  0
  -22.6090   11.3538  -16.3666 H   0  0  0  0  0  0  0  0  0  0  0  0
  -22.7983    9.5099  -15.2758 C   0  0  0  0  0  0  0  0  0  0  0  0
  -24.2600    9.6370  -15.5477 C   0  0  0  0  0  0  0  0  0  0  0  0
  -24.7265    8.4551  -16.1264 O   0  0  0  0  0  0  0  0  0  0  0  0
  -25.6962    8.3001  -15.9193 H   0  0  0  0  0  0  0  0  0  0  0  0
  -16.9275   12.7875  -23.1185 N   0  0  0  0  0  0  0  0  0  0  0  0
  -17.8103   13.0336  -23.6305 H   0  0  0  0  0  0  0  0  0  0  0  0
  -15.6665   12.9698  -23.7663 C   0  0  0  0  0  0  0  0  0  0  0  0
  -17.5619   12.6178  -25.8501 C   0  0  0  0  0  0  0  0  0  0  0  0
  -16.5948   13.7200  -25.9339 C   0  0  0  0  0  0  0  0  0  0  0  0
  -16.6074   14.5553  -27.0091 C   0  0  0  0  0  0  0  0  0  0  0  0
  -15.7121   15.5996  -27.1165 C   0  0  0  0  0  0  0  0  0  0  0  0
  -14.7780   15.8193  -26.1277 C   0  0  0  0  0  0  0  0  0  0  0  0
  -14.7920   14.9506  -25.0467 C   0  0  0  0  0  0  0  0  0  0  0  0
  -15.6668   13.9020  -24.9048 C   0  0  0  0  0  0  0  0  0  0  0  0
 30 31  1  0  0  0
 31 32  2  0  0  0
 32 33  1  0  0  0
 33 34  2  0  0  0
 34 35  1  0  0  0
 35 36  2  0  0  0
 36 29  1  0  0  0
 29 27  1  0  0  0
 27  1  1  0  0  0
  1  2  2  0  0  0
  2  3  1  0  0  0
  3  4  2  0  0  0
  4  5  1  0  0  0
  5  6  2  0  0  0
  6  7  1  0  0  0
  7  8  2  0  0  0
  8  9  1  0  0  0
  9 10  1  0  0  0
 10 11  1  0  0  0
 11 12  1  0  0  0
 12 19  1  0  0  0
 19 20  2  0  0  0
 19 21  1  0  0  0
 21 23  1  0  0  0
 23 24  1  0  0  0
 24 25  1  0  0  0
 12 13  1  0  0  0
 13 14  1  0  0  0
 13 15  1  0  0  0
 15 16  1  0  0  0
 36 31  1  0  0  0
  6  1  1  0  0  0
 15 10  1  0  0  0
  9  5  1  0  0  0
 27 28  1  0  0  0
 21 22  1  0  0  0
 25 26  1  0  0  0
 14 17  1  0  0  0
 16 18  1  0  0  0
M  END
> <minimizedAffinity>
-8.94226

> <CNNscore>
0.8263849616

> <CNNaffinity>
6.3861184120

> <CNN_VS>
5.2773923874

> <CNNaffinity_variance>
0.1252952516

$$$$
[H]OC([H])([H])C([H])([H])N([H])C(=O)[C@@]1([H])O[C@@]([H])(n2c([H])nc3c(N([H])C([H])([H])c4c([H])c([H])c([H])c([H])c4C([H])([H])[H])nc([H])nc32)[C@]([H])(O[H])[C@]1([H])O[H]


 36 39  0  0  0  0  0  0  0  0999 V2000
  -17.0806   11.8003  -21.5088 C   0  0  0  0  0  0  0  0  0  0  0  0
  -16.1433   10.8702  -21.2216 N   0  0  0  0  0  0  0  0  0  0  0  0
  -16.1025   10.2359  -20.0418 C   0  0  0  0  0  0  0  0  0  0  0  0
  -17.0231   10.5348  -19.1153 N   0  0  0  0  0  0  0  0  0  0  0  0
  -17.9735   11.4439  -19.3399 C   0  0  0  0  0  0  0  0  0  0  0  0
  -18.0193   12.0911  -20.5371 C   0  0  0  0  0  0  0  0  0  0  0  0
  -19.0594   12.9452  -20.5067 N   0  0  0  0  0  0  0  0  0  0  0  0
  -19.6733   12.8525  -19.3152 C   0  0  0  0  0  0  0  0  0  0  0  0
  -19.0040   11.9318  -18.6052 N   0  0  0  0  0  0  0  0  0  0  0  0
  -19.3333   11.5320  -17.2762 C   0  0  0  0  0  0  0  0  0  0  0  0
  -19.3823   10.1498  -17.1124 O   0  0  0  0  0  0  0  0  0  0  0  0
  -20.0154   10.0107  -15.8624 C   0  0  0  0  0  0  0  0  0  0  0  0
  -21.2527   10.8707  -16.0943 C   0  0  0  0  0  0  0  0  0  0  0  0
  -21.9194   11.1725  -14.9360 O   0  0  0  0  0  0  0  0  0  0  0  0
  -20.6064   12.0915  -16.7382 C   0  0  0  0  0  0  0  0  0  0  0  0
  -20.3776   13.0077  -15.6981 O   0  0  0  0  0  0  0  0  0  0  0  0
  -22.8657   11.4017  -15.1628 H   0  0  0  0  0  0  0  0  0  0  0  0
  -20.7467   13.9021  -15.9316 H   0  0  0  0  0  0  0  0  0  0  0  0
  -20.3265    8.6277  -15.5409 C   0  0  0  0  0  0  0  0  0  0  0  0
  -19.9306    7.6978  -16.2775 O   0  0  0  0  0  0  0  0  0  0  0  0
  -21.0824    8.3056  -14.3893 N   0  0  0  0  0  0  0  0  0  0  0  0
  -21.4216    9.0619  -13.7630 H   0  0  0  0  0  0  0  0  0  0  0  0
  -21.4074    6.9298  -14.0446 C   0  0  0  0  0  0  0  0  0  0  0  0
  -20.4031    6.3885  -13.0829 C   0  0  0  0  0  0  0  0  0  0  0  0
  -19.2535    6.0111  -13.7795 O   0  0  0  0  0  0  0  0  0  0  0  0
  -18.4342    6.0765  -13.2035 H   0  0  0  0  0  0  0  0  0  0  0  0
  -17.0933   12.4723  -22.7593 N   0  0  0  0  0  0  0  0  0  0  0  0
  -18.0020   12.4967  -23.2842 H   0  0  0  0  0  0  0  0  0  0  0  0
  -15.9411   13.1044  -23.3215 C   0  0  0  0  0  0  0  0  0  0  0  0
  -16.7732   13.7898  -25.9477 C   0  0  0  0  0  0  0  0  0  0  0  0
  -16.5059   14.8570  -24.9747 C   0  0  0  0  0  0  0  0  0  0  0  0
  -16.6490   16.1610  -25.3393 C   0  0  0  0  0  0  0  0  0  0  0  0
  -16.4056   17.1857  -24.4481 C   0  0  0  0  0  0  0  0  0  0  0  0
  -16.0086   16.9063  -23.1587 C   0  0  0  0  0  0  0  0  0  0  0  0
  -15.8722   15.5685  -22.8197 C   0  0  0  0  0  0  0  0  0  0  0  0
  -16.1057   14.5226  -23.6779 C   0  0  0  0  0  0  0  0  0  0  0  0
 30 31  1  0  0  0
 31 32  2  0  0  0
 32 33  1  0  0  0
 33 34  2  0  0  0
 34 35  1  0  0  0
 35 36  2  0  0  0
 36 29  1  0  0  0
 29 27  1  0  0  0
 27  1  1  0  0  0
  1  2  2  0  0  0
  2  3  1  0  0  0
  3  4  2  0  0  0
  4  5  1  0  0  0
  5  6  2  0  0  0
  6  7  1  0  0  0
  7  8  2  0  0  0
  8  9  1  0  0  0
  9 10  1  0  0  0
 10 11  1  0  0  0
 11 12  1  0  0  0
 12 19  1  0  0  0
 19 20  2  0  0  0
 19 21  1  0  0  0
 21 23  1  0  0  0
 23 24  1  0  0  0
 24 25  1  0  0  0
 12 13  1  0  0  0
 13 14  1  0  0  0
 13 15  1  0  0  0
 15 16  1  0  0  0
 36 31  1  0  0  0
  6  1  1  0  0  0
 15 10  1  0  0  0
  9  5  1  0  0  0
 27 28  1  0  0  0
 21 22  1  0  0  0
 25 26  1  0  0  0
 14 17  1  0  0  0
 16 18  1  0  0  0
M  END
> <minimizedAffinity>
-8.13666

> <CNNscore>
0.7966256142

> <CNNaffinity>
6.2645325661

> <CNN_VS>
4.9904870987

> <CNNaffinity_variance>
0.1856960654

$$$$
[H]OC([H])([H])C([H])([H])N([H])C(=O)[C@@]1([H])O[C@@]([H])(n2c([H])nc3c(N([H])C([H])([H])c4c([H])c([H])c([H])c([H])c4C([H])([H])[H])nc([H])nc32)[C@]([H])(O[H])[C@]1([H])O[H]


 36 39  0  0  0  0  0  0  0  0999 V2000
  -17.5483   12.2731  -20.4827 C   0  0  0  0  0  0  0  0  0  0  0  0
  -16.6725   11.2531  -20.3458 N   0  0  0  0  0  0  0  0  0  0  0  0
  -16.7160   10.4070  -19.3075 C   0  0  0  0  0  0  0  0  0  0  0  0
  -17.6606   10.5789  -18.3731 N   0  0  0  0  0  0  0  0  0  0  0  0
  -18.5534   11.5672  -18.4529 C   0  0  0  0  0  0  0  0  0  0  0  0
  -18.5135   12.4296  -19.5060 C   0  0  0  0  0  0  0  0  0  0  0  0
  -19.5097   13.3212  -19.3493 N   0  0  0  0  0  0  0  0  0  0  0  0
  -20.1798   13.0417  -18.2188 C   0  0  0  0  0  0  0  0  0  0  0  0
  -19.5897   11.9669  -17.6744 N   0  0  0  0  0  0  0  0  0  0  0  0
  -19.9972   11.3440  -16.4577 C   0  0  0  0  0  0  0  0  0  0  0  0
  -20.2906    9.9903  -16.6026 O   0  0  0  0  0  0  0  0  0  0  0  0
  -20.9506    9.6879  -15.3961 C   0  0  0  0  0  0  0  0  0  0  0  0
  -22.0146   10.7797  -15.3948 C   0  0  0  0  0  0  0  0  0  0  0  0
  -22.6291   10.9265  -14.1789 O   0  0  0  0  0  0  0  0  0  0  0  0
  -21.1571   11.9819  -15.7714 C   0  0  0  0  0  0  0  0  0  0  0  0
  -20.7807   12.5887  -14.5615 O   0  0  0  0  0  0  0  0  0  0  0  0
  -23.5179   11.3616  -14.3209 H   0  0  0  0  0  0  0  0  0  0  0  0
  -20.9841   13.5629  -14.5800 H   0  0  0  0  0  0  0  0  0  0  0  0
  -21.5036    8.3437  -15.3797 C   0  0  0  0  0  0  0  0  0  0  0  0
  -22.7323    8.1620  -15.2344 O   0  0  0  0  0  0  0  0  0  0  0  0
  -20.6640    7.2148  -15.5278 N   0  0  0  0  0  0  0  0  0  0  0  0
  -19.6402    7.3420  -15.6498 H   0  0  0  0  0  0  0  0  0  0  0  0
  -21.1918    5.8588  -15.5150 C   0  0  0  0  0  0  0  0  0  0  0  0
  -20.3633    4.9918  -14.6270 C   0  0  0  0  0  0  0  0  0  0  0  0
  -19.0455    5.4532  -14.6301 O   0  0  0  0  0  0  0  0  0  0  0  0
  -18.5759    5.2355  -13.7703 H   0  0  0  0  0  0  0  0  0  0  0  0
  -17.4717   13.1678  -21.5824 N   0  0  0  0  0  0  0  0  0  0  0  0
  -17.7566   14.1640  -21.4138 H   0  0  0  0  0  0  0  0  0  0  0  0
  -17.0312   12.7746  -22.8841 C   0  0  0  0  0  0  0  0  0  0  0  0
  -17.7478   12.5908  -25.6247 C   0  0  0  0  0  0  0  0  0  0  0  0
  -17.0273   13.7777  -25.1461 C   0  0  0  0  0  0  0  0  0  0  0  0
  -16.7013   14.7723  -26.0170 C   0  0  0  0  0  0  0  0  0  0  0  0
  -16.0251   15.8995  -25.5978 C   0  0  0  0  0  0  0  0  0  0  0  0
  -15.6626   16.0417  -24.2761 C   0  0  0  0  0  0  0  0  0  0  0  0
  -16.0094   15.0110  -23.4156 C   0  0  0  0  0  0  0  0  0  0  0  0
  -16.6819   13.8758  -23.7953 C   0  0  0  0  0  0  0  0  0  0  0  0
 30 31  1  0  0  0
 31 32  2  0  0  0
 32 33  1  0  0  0
 33 34  2  0  0  0
 34 35  1  0  0  0
 35 36  2  0  0  0
 36 29  1  0  0  0
 29 27  1  0  0  0
 27  1  1  0  0  0
  1  2  2  0  0  0
  2  3  1  0  0  0
  3  4  2  0  0  0
  4  5  1  0  0  0
  5  6  2  0  0  0
  6  7  1  0  0  0
  7  8  2  0  0  0
  8  9  1  0  0  0
  9 10  1  0  0  0
 10 11  1  0  0  0
 11 12  1  0  0  0
 12 19  1  0  0  0
 19 20  2  0  0  0
 19 21  1  0  0  0
 21 23  1  0  0  0
 23 24  1  0  0  0
 24 25  1  0  0  0
 12 13  1  0  0  0
 13 14  1  0  0  0
 13 15  1  0  0  0
 15 16  1  0  0  0
 36 31  1  0  0  0
  6  1  1  0  0  0
 15 10  1  0  0  0
  9  5  1  0  0  0
 27 28  1  0  0  0
 21 22  1  0  0  0
 25 26  1  0  0  0
 14 17  1  0  0  0
 16 18  1  0  0  0
M  END
> <minimizedAffinity>
-7.98629

> <CNNscore>
0.7768703103

> <CNNaffinity>
6.2472105026

> <CNN_VS>
4.8532724380

> <CNNaffinity_variance>
0.1879985183

$$$$
[H]OC([H])([H])C([H])([H])N([H])C(=O)[C@@]1([H])O[C@@]([H])(n2c([H])nc3c(N([H])C([H])([H])c4c([H])c([H])c([H])c([H])c4C([H])([H])[H])nc([H])nc32)[C@]([H])(O[H])[C@]1([H])O[H]


 36 39  0  0  0  0  0  0  0  0999 V2000
  -16.6475   11.9041  -21.5640 C   0  0  0  0  0  0  0  0  0  0  0  0
  -16.1098   10.7671  -21.0699 N   0  0  0  0  0  0  0  0  0  0  0  0
  -16.5712   10.1824  -19.9559 C   0  0  0  0  0  0  0  0  0  0  0  0
  -17.6014   10.7452  -19.3099 N   0  0  0  0  0  0  0  0  0  0  0  0
  -18.1743   11.8675  -19.7485 C   0  0  0  0  0  0  0  0  0  0  0  0
  -17.7092   12.4654  -20.8801 C   0  0  0  0  0  0  0  0  0  0  0  0
  -18.4509   13.5667  -21.1017 N   0  0  0  0  0  0  0  0  0  0  0  0
  -19.3763   13.6789  -20.1339 C   0  0  0  0  0  0  0  0  0  0  0  0
  -19.2019   12.6358  -19.3085 N   0  0  0  0  0  0  0  0  0  0  0  0
  -19.9846   12.3805  -18.1438 C   0  0  0  0  0  0  0  0  0  0  0  0
  -20.6922   13.4949  -17.6998 O   0  0  0  0  0  0  0  0  0  0  0  0
  -21.1105   13.1014  -16.4142 C   0  0  0  0  0  0  0  0  0  0  0  0
  -19.7746   12.6674  -15.8217 C   0  0  0  0  0  0  0  0  0  0  0  0
  -19.9114   11.9452  -14.6654 O   0  0  0  0  0  0  0  0  0  0  0  0
  -19.2337   11.8339  -16.9773 C   0  0  0  0  0  0  0  0  0  0  0  0
  -19.5909   10.5035  -16.7013 O   0  0  0  0  0  0  0  0  0  0  0  0
  -19.0578   12.0054  -14.1485 H   0  0  0  0  0  0  0  0  0  0  0  0
  -18.7972    9.9067  -16.7678 H   0  0  0  0  0  0  0  0  0  0  0  0
  -21.7459   14.1799  -15.6754 C   0  0  0  0  0  0  0  0  0  0  0  0
  -22.8076   13.9812  -15.0451 O   0  0  0  0  0  0  0  0  0  0  0  0
  -21.1769   15.4749  -15.6542 N   0  0  0  0  0  0  0  0  0  0  0  0
  -20.2953   15.6627  -16.1706 H   0  0  0  0  0  0  0  0  0  0  0  0
  -21.7924   16.5718  -14.9225 C   0  0  0  0  0  0  0  0  0  0  0  0
  -20.7602   17.5792  -14.5398 C   0  0  0  0  0  0  0  0  0  0  0  0
  -19.5031   17.1305  -14.9492 O   0  0  0  0  0  0  0  0  0  0  0  0
  -18.8806   17.8953  -15.1360 H   0  0  0  0  0  0  0  0  0  0  0  0
  -16.1302   12.5153  -22.7363 N   0  0  0  0  0  0  0  0  0  0  0  0
  -15.1416   12.8666  -22.7005 H   0  0  0  0  0  0  0  0  0  0  0  0
  -16.8862   12.6687  -23.9396 C   0  0  0  0  0  0  0  0  0  0  0  0
  -17.4574   12.5583  -26.7181 C   0  0  0  0  0  0  0  0  0  0  0  0
  -16.7585   13.7289  -26.1718 C   0  0  0  0  0  0  0  0  0  0  0  0
  -16.3828   14.7435  -26.9985 C   0  0  0  0  0  0  0  0  0  0  0  0
  -15.7252   15.8560  -26.5155 C   0  0  0  0  0  0  0  0  0  0  0  0
  -15.4327   15.9627  -25.1733 C   0  0  0  0  0  0  0  0  0  0  0  0
  -15.8288   14.9124  -24.3589 C   0  0  0  0  0  0  0  0  0  0  0  0
  -16.4847   13.7908  -24.8027 C   0  0  0  0  0  0  0  0  0  0  0  0
 30 31  1  0  0  0
 31 32  2  0  0  0
 32 33  1  0  0  0
 33 34  2  0  0  0
 34 35  1  0  0  0
 35 36  2  0  0  0
 36 29  1  0  0  0
 29 27  1  0  0  0
 27  1  1  0  0  0
  1  2  2  0  0  0
  2  3  1  0  0  0
  3  4  2  0  0  0
  4  5  1  0  0  0
  5  6  2  0  0  0
  6  7  1  0  0  0
  7  8  2  0  0  0
  8  9  1  0  0  0
  9 10  1  0  0  0
 10 11  1  0  0  0
 11 12  1  0  0  0
 12 19  1  0  0  0
 19 20  2  0  0  0
 19 21  1  0  0  0
 21 23  1  0  0  0
 23 24  1  0  0  0
 24 25  1  0  0  0
 12 13  1  0  0  0
 13 14  1  0  0  0
 13 15  1  0  0  0
 15 16  1  0  0  0
 36 31  1  0  0  0
  6  1  1  0  0  0
 15 10  1  0  0  0
  9  5  1  0  0  0
 27 28  1  0  0  0
 21 22  1  0  0  0
 25 26  1  0  0  0
 14 17  1  0  0  0
 16 18  1  0  0  0
M  END
> <minimizedAffinity>
-8.08201

> <CNNscore>
0.7764416933

> <CNNaffinity>
6.4677681923

> <CNN_VS>
5.0218448639

> <CNNaffinity_variance>
0.2642427385

$$$$
[H]OC([H])([H])C([H])([H])N([H])C(=O)[C@@]1([H])O[C@@]([H])(n2c([H])nc3c(N([H])C([H])([H])c4c([H])c([H])c([H])c([H])c4C([H])([H])[H])nc([H])nc32)[C@]([H])(O[H])[C@]1([H])O[H]


 36 39  0  0  0  0  0  0  0  0999 V2000
  -16.7020   11.9852  -22.1667 C   0  0  0  0  0  0  0  0  0  0  0  0
  -15.8758   10.9642  -21.8490 N   0  0  0  0  0  0  0  0  0  0  0  0
  -15.8671   10.4026  -20.6323 C   0  0  0  0  0  0  0  0  0  0  0  0
  -16.7069   10.8702  -19.6988 N   0  0  0  0  0  0  0  0  0  0  0  0
  -17.5462   11.8759  -19.9522 C   0  0  0  0  0  0  0  0  0  0  0  0
  -17.5589   12.4499  -21.1870 C   0  0  0  0  0  0  0  0  0  0  0  0
  -18.4839   13.4279  -21.1797 N   0  0  0  0  0  0  0  0  0  0  0  0
  -19.0573   13.4855  -19.9660 C   0  0  0  0  0  0  0  0  0  0  0  0
  -18.4791   12.5329  -19.2188 N   0  0  0  0  0  0  0  0  0  0  0  0
  -18.8027   12.2591  -17.8570 C   0  0  0  0  0  0  0  0  0  0  0  0
  -19.5628   11.1038  -17.6924 O   0  0  0  0  0  0  0  0  0  0  0  0
  -20.0107   11.2173  -16.3624 C   0  0  0  0  0  0  0  0  0  0  0  0
  -20.6132   12.6171  -16.4037 C   0  0  0  0  0  0  0  0  0  0  0  0
  -20.8646   13.1285  -15.1576 O   0  0  0  0  0  0  0  0  0  0  0  0
  -19.5001   13.3601  -17.1327 C   0  0  0  0  0  0  0  0  0  0  0  0
  -18.6892   13.9270  -16.1353 O   0  0  0  0  0  0  0  0  0  0  0  0
  -21.5608   13.8411  -15.2395 H   0  0  0  0  0  0  0  0  0  0  0  0
  -18.5481   14.8970  -16.3080 H   0  0  0  0  0  0  0  0  0  0  0  0
  -20.9706   10.1867  -16.0027 C   0  0  0  0  0  0  0  0  0  0  0  0
  -20.5907    9.0219  -15.7517 O   0  0  0  0  0  0  0  0  0  0  0  0
  -22.3525   10.4799  -15.9293 N   0  0  0  0  0  0  0  0  0  0  0  0
  -22.6907   11.4407  -16.1336 H   0  0  0  0  0  0  0  0  0  0  0  0
  -23.3341    9.4669  -15.5716 C   0  0  0  0  0  0  0  0  0  0  0  0
  -24.5451   10.1087  -14.9815 C   0  0  0  0  0  0  0  0  0  0  0  0
  -25.5448   10.1891  -15.9530 O   0  0  0  0  0  0  0  0  0  0  0  0
  -26.4606   10.1739  -15.5427 H   0  0  0  0  0  0  0  0  0  0  0  0
  -16.6809   12.5763  -23.4573 N   0  0  0  0  0  0  0  0  0  0  0  0
  -16.7101   11.9299  -24.2839 H   0  0  0  0  0  0  0  0  0  0  0  0
  -16.6222   13.9882  -23.6724 C   0  0  0  0  0  0  0  0  0  0  0  0
  -13.9820   14.9447  -24.0880 C   0  0  0  0  0  0  0  0  0  0  0  0
  -14.9148   14.8879  -25.2210 C   0  0  0  0  0  0  0  0  0  0  0  0
  -14.5123   15.3010  -26.4544 C   0  0  0  0  0  0  0  0  0  0  0  0
  -15.3651   15.2597  -27.5382 C   0  0  0  0  0  0  0  0  0  0  0  0
  -16.6539   14.7951  -27.3917 C   0  0  0  0  0  0  0  0  0  0  0  0
  -17.0320   14.3823  -26.1228 C   0  0  0  0  0  0  0  0  0  0  0  0
  -16.2123   14.4081  -25.0217 C   0  0  0  0  0  0  0  0  0  0  0  0
 30 31  1  0  0  0
 31 32  2  0  0  0
 32 33  1  0  0  0
 33 34  2  0  0  0
 34 35  1  0  0  0
 35 36  2  0  0  0
 36 29  1  0  0  0
 29 27  1  0  0  0
 27  1  1  0  0  0
  1  2  2  0  0  0
  2  3  1  0  0  0
  3  4  2  0  0  0
  4  5  1  0  0  0
  5  6  2  0  0  0
  6  7  1  0  0  0
  7  8  2  0  0  0
  8  9  1  0  0  0
  9 10  1  0  0  0
 10 11  1  0  0  0
 11 12  1  0  0  0
 12 19  1  0  0  0
 19 20  2  0  0  0
 19 21  1  0  0  0
 21 23  1  0  0  0
 23 24  1  0  0  0
 24 25  1  0  0  0
 12 13  1  0  0  0
 13 14  1  0  0  0
 13 15  1  0  0  0
 15 16  1  0  0  0
 36 31  1  0  0  0
  6  1  1  0  0  0
 15 10  1  0  0  0
  9  5  1  0  0  0
 27 28  1  0  0  0
 21 22  1  0  0  0
 25 26  1  0  0  0
 14 17  1  0  0  0
 16 18  1  0  0  0
M  END
> <minimizedAffinity>
-8.89780

> <CNNscore>
0.7385910749

> <CNNaffinity>
6.2071166039

> <CNN_VS>
4.5845208168

> <CNNaffinity_variance>
0.1141926870

$$$$
[H]c1c([H])c([H])c(S(=O)(=O)c2c([H])c([H])c3c(c2[H])c2c(n3[H])C([H])([H])C([H])([H])C([H])(N([H])[H])C2([H])[H])c([H])c1[H]


 26 29  0  0  0  0  0  0  0  0999 V2000
  -20.9374   12.0066  -14.6115 N   0  0  0  0  0  0  0  0  0  0  0  0
  -19.8560   11.4966  -15.4508 C   0  0  0  0  0  0  0  0  0  0  0  0
  -19.7103   10.0402  -15.1979 C   0  0  0  0  0  0  0  0  0  0  0  0
  -19.3199    9.2177  -16.3832 C   0  0  0  0  0  0  0  0  0  0  0  0
  -18.7467    9.9893  -17.4992 C   0  0  0  0  0  0  0  0  0  0  0  0
  -17.8346    9.6604  -18.4143 N   0  0  0  0  0  0  0  0  0  0  0  0
  -17.6198   10.6827  -19.2391 C   0  0  0  0  0  0  0  0  0  0  0  0
  -16.7829   10.8643  -20.3465 C   0  0  0  0  0  0  0  0  0  0  0  0
  -16.8259   12.0897  -20.9735 C   0  0  0  0  0  0  0  0  0  0  0  0
  -17.6351   13.1129  -20.5667 C   0  0  0  0  0  0  0  0  0  0  0  0
  -18.4568   12.9279  -19.4757 C   0  0  0  0  0  0  0  0  0  0  0  0
  -18.4274   11.7113  -18.8372 C   0  0  0  0  0  0  0  0  0  0  0  0
  -19.1354   11.2765  -17.7447 C   0  0  0  0  0  0  0  0  0  0  0  0
  -20.1532   11.8793  -16.8548 C   0  0  0  0  0  0  0  0  0  0  0  0
  -21.3384   12.8529  -15.0399 H   0  0  0  0  0  0  0  0  0  0  0  0
  -20.6320   12.1121  -13.6284 H   0  0  0  0  0  0  0  0  0  0  0  0
  -17.3302    8.7402  -18.5114 H   0  0  0  0  0  0  0  0  0  0  0  0
  -17.6474   14.6484  -21.4025 S   0  0  0  0  0  0  0  0  0  0  0  0
  -16.7899   15.6065  -20.6476 O   0  0  0  0  0  0  0  0  0  0  0  0
  -19.0561   15.1638  -21.4356 O   0  0  0  0  0  0  0  0  0  0  0  0
  -17.0438   14.3697  -23.0207 C   0  0  0  0  0  0  0  0  0  0  0  0
  -17.9196   14.0264  -24.0206 C   0  0  0  0  0  0  0  0  0  0  0  0
  -17.5322   13.7879  -25.3261 C   0  0  0  0  0  0  0  0  0  0  0  0
  -16.1845   13.9086  -25.6112 C   0  0  0  0  0  0  0  0  0  0  0  0
  -15.2771   14.2540  -24.6215 C   0  0  0  0  0  0  0  0  0  0  0  0
  -15.7137   14.4806  -23.3393 C   0  0  0  0  0  0  0  0  0  0  0  0
  1  2  1  0  0  0
  2  3  1  0  0  0
  3  4  1  0  0  0
  4  5  1  0  0  0
  5  6  1  0  0  0
  6  7  1  0  0  0
  7  8  2  0  0  0
  8  9  1  0  0  0
  9 10  2  0  0  0
 10 18  1  0  0  0
 18 19  2  0  0  0
 18 20  2  0  0  0
 18 21  1  0  0  0
 21 22  2  0  0  0
 22 23  1  0  0  0
 23 24  2  0  0  0
 24 25  1  0  0  0
 25 26  2  0  0  0
 10 11  1  0  0  0
 11 12  2  0  0  0
 12 13  1  0  0  0
 13 14  1  0  0  0
 14  2  1  0  0  0
 13  5  2  0  0  0
 12  7  1  0  0  0
 26 21  1  0  0  0
  1 15  1  0  0  0
  1 16  1  0  0  0
  6 17  1  0  0  0
M  END
> <minimizedAffinity>
-8.87268

> <CNNscore>
0.5960041285

> <CNNaffinity>
6.1827840805

> <CNN_VS>
3.6849648952

> <CNNaffinity_variance>
0.1151346937

$$$$
[H]c1c([H])c([H])c(S(=O)(=O)c2c([H])c([H])c3c(c2[H])c2c(n3[H])C([H])([H])C([H])([H])C([H])(N([H])[H])C2([H])[H])c([H])c1[H]


 26 29  0  0  0  0  0  0  0  0999 V2000
  -19.9666   12.3946  -16.8396 N   0  0  0  0  0  0  0  0  0  0  0  0
  -18.8163   12.0100  -17.6538 C   0  0  0  0  0  0  0  0  0  0  0  0
  -18.5071   10.5819  -17.3875 C   0  0  0  0  0  0  0  0  0  0  0  0
  -17.9995    9.8046  -18.5589 C   0  0  0  0  0  0  0  0  0  0  0  0
  -17.4976   10.6323  -19.6691 C   0  0  0  0  0  0  0  0  0  0  0  0
  -16.5351   10.4075  -20.5637 N   0  0  0  0  0  0  0  0  0  0  0  0
  -16.4242   11.4437  -21.3916 C   0  0  0  0  0  0  0  0  0  0  0  0
  -15.5919   11.7163  -22.4837 C   0  0  0  0  0  0  0  0  0  0  0  0
  -15.7647   12.9252  -23.1203 C   0  0  0  0  0  0  0  0  0  0  0  0
  -16.6956   13.8489  -22.7369 C   0  0  0  0  0  0  0  0  0  0  0  0
  -17.5121   13.5748  -21.6609 C   0  0  0  0  0  0  0  0  0  0  0  0
  -17.3541   12.3731  -21.0131 C   0  0  0  0  0  0  0  0  0  0  0  0
  -18.0286   11.8641  -19.9315 C   0  0  0  0  0  0  0  0  0  0  0  0
  -19.1275   12.3485  -19.0661 C   0  0  0  0  0  0  0  0  0  0  0  0
  -20.4547   13.1862  -17.2819 H   0  0  0  0  0  0  0  0  0  0  0  0
  -19.6955   12.5398  -15.8514 H   0  0  0  0  0  0  0  0  0  0  0  0
  -15.9250    9.5519  -20.6443 H   0  0  0  0  0  0  0  0  0  0  0  0
  -16.8697   15.3684  -23.5840 S   0  0  0  0  0  0  0  0  0  0  0  0
  -15.8223   16.3087  -23.0922 O   0  0  0  0  0  0  0  0  0  0  0  0
  -18.2258   15.9334  -23.2790 O   0  0  0  0  0  0  0  0  0  0  0  0
  -16.6982   15.0386  -25.2935 C   0  0  0  0  0  0  0  0  0  0  0  0
  -17.2520   13.8993  -25.8225 C   0  0  0  0  0  0  0  0  0  0  0  0
  -17.1662   13.5587  -27.1596 C   0  0  0  0  0  0  0  0  0  0  0  0
  -16.4800   14.4305  -27.9850 C   0  0  0  0  0  0  0  0  0  0  0  0
  -15.9105   15.5886  -27.4784 C   0  0  0  0  0  0  0  0  0  0  0  0
  -16.0244   15.8812  -26.1415 C   0  0  0  0  0  0  0  0  0  0  0  0
  1  2  1  0  0  0
  2  3  1  0  0  0
  3  4  1  0  0  0
  4  5  1  0  0  0
  5  6  1  0  0  0
  6  7  1  0  0  0
  7  8  2  0  0  0
  8  9  1  0  0  0
  9 10  2  0  0  0
 10 18  1  0  0  0
 18 19  2  0  0  0
 18 20  2  0  0  0
 18 21  1  0  0  0
 21 22  2  0  0  0
 22 23  1  0  0  0
 23 24  2  0  0  0
 24 25  1  0  0  0
 25 26  2  0  0  0
 10 11  1  0  0  0
 11 12  2  0  0  0
 12 13  1  0  0  0
 13 14  1  0  0  0
 14  2  1  0  0  0
 13  5  2  0  0  0
 12  7  1  0  0  0
 26 21  1  0  0  0
  1 15  1  0  0  0
  1 16  1  0  0  0
  6 17  1  0  0  0
M  END
> <minimizedAffinity>
-8.50792

> <CNNscore>
0.5905722976

> <CNNaffinity>
6.5189194679

> <CNN_VS>
3.8498933315

> <CNNaffinity_variance>
0.3381632268

$$$$
[H]c1c([H])c([H])c(S(=O)(=O)c2c([H])c([H])c3c(c2[H])c2c(n3[H])C([H])([H])C([H])([H])C([H])(N([H])[H])C2([H])[H])c([H])c1[H]


 26 29  0  0  0  0  0  0  0  0999 V2000
  -20.9834   12.2376  -14.6923 N   0  0  0  0  0  0  0  0  0  0  0  0
  -19.9017   11.7017  -15.5149 C   0  0  0  0  0  0  0  0  0  0  0  0
  -19.7805   10.2464  -15.2438 C   0  0  0  0  0  0  0  0  0  0  0  0
  -19.3911    9.4042  -16.4156 C   0  0  0  0  0  0  0  0  0  0  0  0
  -18.7954   10.1541  -17.5347 C   0  0  0  0  0  0  0  0  0  0  0  0
  -17.8796    9.8008  -18.4368 N   0  0  0  0  0  0  0  0  0  0  0  0
  -17.6413   10.8101  -19.2711 C   0  0  0  0  0  0  0  0  0  0  0  0
  -16.7910   10.9662  -20.3722 C   0  0  0  0  0  0  0  0  0  0  0  0
  -16.8094   12.1846  -21.0138 C   0  0  0  0  0  0  0  0  0  0  0  0
  -17.6069   13.2245  -20.6268 C   0  0  0  0  0  0  0  0  0  0  0  0
  -18.4419   13.0647  -19.5420 C   0  0  0  0  0  0  0  0  0  0  0  0
  -18.4371   11.8553  -18.8892 C   0  0  0  0  0  0  0  0  0  0  0  0
  -19.1622   11.4439  -17.7988 C   0  0  0  0  0  0  0  0  0  0  0  0
  -20.1794   12.0724  -16.9261 C   0  0  0  0  0  0  0  0  0  0  0  0
  -21.3674   13.0848  -15.1344 H   0  0  0  0  0  0  0  0  0  0  0  0
  -20.6860   12.3500  -13.7074 H   0  0  0  0  0  0  0  0  0  0  0  0
  -17.3882    8.8721  -18.5183 H   0  0  0  0  0  0  0  0  0  0  0  0
  -17.5878   14.7502  -21.4804 S   0  0  0  0  0  0  0  0  0  0  0  0
  -16.6620   15.6792  -20.7712 O   0  0  0  0  0  0  0  0  0  0  0  0
  -18.9740   15.3242  -21.4651 O   0  0  0  0  0  0  0  0  0  0  0  0
  -17.0605   14.4289  -23.1173 C   0  0  0  0  0  0  0  0  0  0  0  0
  -15.7277   14.5269  -23.4312 C   0  0  0  0  0  0  0  0  0  0  0  0
  -15.2221   14.2914  -24.6961 C   0  0  0  0  0  0  0  0  0  0  0  0
  -16.1302   13.9401  -25.6780 C   0  0  0  0  0  0  0  0  0  0  0  0
  -17.4822   13.8334  -25.3898 C   0  0  0  0  0  0  0  0  0  0  0  0
  -17.9336   14.0781  -24.1161 C   0  0  0  0  0  0  0  0  0  0  0  0
  1  2  1  0  0  0
  2  3  1  0  0  0
  3  4  1  0  0  0
  4  5  1  0  0  0
  5  6  1  0  0  0
  6  7  1  0  0  0
  7  8  2  0  0  0
  8  9  1  0  0  0
  9 10  2  0  0  0
 10 18  1  0  0  0
 18 19  2  0  0  0
 18 20  2  0  0  0
 18 21  1  0  0  0
 21 22  2  0  0  0
 22 23  1  0  0  0
 23 24  2  0  0  0
 24 25  1  0  0  0
 25 26  2  0  0  0
 10 11  1  0  0  0
 11 12  2  0  0  0
 12 13  1  0  0  0
 13 14  1  0  0  0
 14  2  1  0  0  0
 13  5  2  0  0  0
 12  7  1  0  0  0
 26 21  1  0  0  0
  1 15  1  0  0  0
  1 16  1  0  0  0
  6 17  1  0  0  0
M  END
> <minimizedAffinity>
-8.82337

> <CNNscore>
0.5339794159

> <CNNaffinity>
6.1251440048

> <CNN_VS>
3.2707009315

> <CNNaffinity_variance>
0.1310151815

$$$$
[H]c1c([H])c([H])c(S(=O)(=O)c2c([H])c([H])c3c(c2[H])c2c(n3[H])C([H])([H])C([H])([H])C([H])(N([H])[H])C2([H])[H])c([H])c1[H]


 26 29  0  0  0  0  0  0  0  0999 V2000
  -20.9706   13.9682  -15.9257 N   0  0  0  0  0  0  0  0  0  0  0  0
  -19.9049   13.2430  -16.6129 C   0  0  0  0  0  0  0  0  0  0  0  0
  -19.8462   11.8630  -16.0669 C   0  0  0  0  0  0  0  0  0  0  0  0
  -19.4818   10.7975  -17.0498 C   0  0  0  0  0  0  0  0  0  0  0  0
  -18.8460   11.2955  -18.2816 C   0  0  0  0  0  0  0  0  0  0  0  0
  -17.9378   10.7407  -19.0845 N   0  0  0  0  0  0  0  0  0  0  0  0
  -17.6508   11.5615  -20.0922 C   0  0  0  0  0  0  0  0  0  0  0  0
  -16.7853   11.4707  -21.1887 C   0  0  0  0  0  0  0  0  0  0  0  0
  -16.7478   12.5436  -22.0513 C   0  0  0  0  0  0  0  0  0  0  0  0
  -17.5050   13.6685  -21.8832 C   0  0  0  0  0  0  0  0  0  0  0  0
  -18.3552   13.7520  -20.8017 C   0  0  0  0  0  0  0  0  0  0  0  0
  -18.4061   12.6906  -19.9300 C   0  0  0  0  0  0  0  0  0  0  0  0
  -19.1569   12.5242  -18.7931 C   0  0  0  0  0  0  0  0  0  0  0  0
  -20.1548   13.3472  -18.0733 C   0  0  0  0  0  0  0  0  0  0  0  0
  -21.3154   14.7294  -16.5276 H   0  0  0  0  0  0  0  0  0  0  0  0
  -20.6774   14.2554  -14.9756 H   0  0  0  0  0  0  0  0  0  0  0  0
  -17.4845    9.7952  -18.9791 H   0  0  0  0  0  0  0  0  0  0  0  0
  -17.4155   15.0006  -23.0120 S   0  0  0  0  0  0  0  0  0  0  0  0
  -16.2461   15.8517  -22.6500 O   0  0  0  0  0  0  0  0  0  0  0  0
  -18.6731   15.8108  -22.8964 O   0  0  0  0  0  0  0  0  0  0  0  0
  -17.2540   14.3196  -24.6154 C   0  0  0  0  0  0  0  0  0  0  0  0
  -16.6286   15.0444  -25.5994 C   0  0  0  0  0  0  0  0  0  0  0  0
  -16.4564   14.5863  -26.8923 C   0  0  0  0  0  0  0  0  0  0  0  0
  -16.9504   13.3275  -27.1815 C   0  0  0  0  0  0  0  0  0  0  0  0
  -17.5864   12.5729  -26.2077 C   0  0  0  0  0  0  0  0  0  0  0  0
  -17.7320   13.0743  -24.9376 C   0  0  0  0  0  0  0  0  0  0  0  0
  1  2  1  0  0  0
  2  3  1  0  0  0
  3  4  1  0  0  0
  4  5  1  0  0  0
  5  6  1  0  0  0
  6  7  1  0  0  0
  7  8  2  0  0  0
  8  9  1  0  0  0
  9 10  2  0  0  0
 10 18  1  0  0  0
 18 19  2  0  0  0
 18 20  2  0  0  0
 18 21  1  0  0  0
 21 22  2  0  0  0
 22 23  1  0  0  0
 23 24  2  0  0  0
 24 25  1  0  0  0
 25 26  2  0  0  0
 10 11  1  0  0  0
 11 12  2  0  0  0
 12 13  1  0  0  0
 13 14  1  0  0  0
 14  2  1  0  0  0
 13  5  2  0  0  0
 12  7  1  0  0  0
 26 21  1  0  0  0
  1 15  1  0  0  0
  1 16  1  0  0  0
  6 17  1  0  0  0
M  END
> <minimizedAffinity>
-8.79895

> <CNNscore>
0.5109642744

> <CNNaffinity>
6.2053918839

> <CNN_VS>
3.1707334518

> <CNNaffinity_variance>
0.2417741120

$$$$
[H]c1c([H])c([H])c(S(=O)(=O)c2c([H])c([H])c3c(c2[H])c2c(n3[H])C([H])([H])C([H])([H])C([H])(N([H])[H])C2([H])[H])c([H])c1[H]


 26 29  0  0  0  0  0  0  0  0999 V2000
  -14.7177   16.1869  -26.6662 N   0  0  0  0  0  0  0  0  0  0  0  0
  -15.6302   15.7016  -25.6338 C   0  0  0  0  0  0  0  0  0  0  0  0
  -14.9571   14.6090  -24.8859 C   0  0  0  0  0  0  0  0  0  0  0  0
  -15.2805   14.5330  -23.4287 C   0  0  0  0  0  0  0  0  0  0  0  0
  -16.4978   15.2629  -23.0351 C   0  0  0  0  0  0  0  0  0  0  0  0
  -17.3873   15.0268  -22.0706 N   0  0  0  0  0  0  0  0  0  0  0  0
  -18.3373   15.9590  -22.0814 C   0  0  0  0  0  0  0  0  0  0  0  0
  -19.4789   16.1766  -21.3011 C   0  0  0  0  0  0  0  0  0  0  0  0
  -20.2514   17.2745  -21.6085 C   0  0  0  0  0  0  0  0  0  0  0  0
  -19.9545   18.1408  -22.6227 C   0  0  0  0  0  0  0  0  0  0  0  0
  -18.8292   17.9212  -23.3874 C   0  0  0  0  0  0  0  0  0  0  0  0
  -18.0459   16.8303  -23.0952 C   0  0  0  0  0  0  0  0  0  0  0  0
  -16.8909   16.3937  -23.6944 C   0  0  0  0  0  0  0  0  0  0  0  0
  -16.0572   16.8693  -24.8214 C   0  0  0  0  0  0  0  0  0  0  0  0
  -14.9506   17.1615  -26.9038 H   0  0  0  0  0  0  0  0  0  0  0  0
  -14.6775   15.5346  -27.4687 H   0  0  0  0  0  0  0  0  0  0  0  0
  -17.3823   14.2331  -21.3772 H   0  0  0  0  0  0  0  0  0  0  0  0
  -20.9733   19.5192  -22.9672 S   0  0  0  0  0  0  0  0  0  0  0  0
  -20.1024   20.6759  -23.3228 O   0  0  0  0  0  0  0  0  0  0  0  0
  -21.7607   19.8521  -21.7341 O   0  0  0  0  0  0  0  0  0  0  0  0
  -22.0328   19.0720  -24.2856 C   0  0  0  0  0  0  0  0  0  0  0  0
  -22.4764   17.7769  -24.3887 C   0  0  0  0  0  0  0  0  0  0  0  0
  -23.3142   17.3350  -25.3957 C   0  0  0  0  0  0  0  0  0  0  0  0
  -23.7107   18.2688  -26.3353 C   0  0  0  0  0  0  0  0  0  0  0  0
  -23.2785   19.5838  -26.2562 C   0  0  0  0  0  0  0  0  0  0  0  0
  -22.4461   19.9721  -25.2353 C   0  0  0  0  0  0  0  0  0  0  0  0
  1  2  1  0  0  0
  2  3  1  0  0  0
  3  4  1  0  0  0
  4  5  1  0  0  0
  5  6  1  0  0  0
  6  7  1  0  0  0
  7  8  2  0  0  0
  8  9  1  0  0  0
  9 10  2  0  0  0
 10 18  1  0  0  0
 18 19  2  0  0  0
 18 20  2  0  0  0
 18 21  1  0  0  0
 21 22  2  0  0  0
 22 23  1  0  0  0
 23 24  2  0  0  0
 24 25  1  0  0  0
 25 26  2  0  0  0
 10 11  1  0  0  0
 11 12  2  0  0  0
 12 13  1  0  0  0
 13 14  1  0  0  0
 14  2  1  0  0  0
 13  5  2  0  0  0
 12  7  1  0  0  0
 26 21  1  0  0  0
  1 15  1  0  0  0
  1 16  1  0  0  0
  6 17  1  0  0  0
M  END
> <minimizedAffinity>
-7.90418

> <CNNscore>
0.4661570787

> <CNNaffinity>
6.0494990349

> <CNN_VS>
2.8200168610

> <CNNaffinity_variance>
0.0897669122

$$$$
[H]c1c([H])c([H])c(S(=O)(=O)c2c([H])c([H])c3c(c2[H])c2c(n3[H])C([H])([H])C([H])([H])C([H])(N([H])[H])C2([H])[H])c([H])c1[H]


 26 29  0  0  0  0  0  0  0  0999 V2000
  -21.0072   12.9612  -15.3741 N   0  0  0  0  0  0  0  0  0  0  0  0
  -19.9121   12.2020  -15.9726 C   0  0  0  0  0  0  0  0  0  0  0  0
  -19.8992   10.8426  -15.3742 C   0  0  0  0  0  0  0  0  0  0  0  0
  -19.4911    9.7385  -16.2952 C   0  0  0  0  0  0  0  0  0  0  0  0
  -18.7813   10.1850  -17.5061 C   0  0  0  0  0  0  0  0  0  0  0  0
  -17.8350    9.5931  -18.2351 N   0  0  0  0  0  0  0  0  0  0  0  0
  -17.4827   10.3735  -19.2541 C   0  0  0  0  0  0  0  0  0  0  0  0
  -16.5574   10.2347  -20.2955 C   0  0  0  0  0  0  0  0  0  0  0  0
  -16.4597   11.2746  -21.1932 C   0  0  0  0  0  0  0  0  0  0  0  0
  -17.2132   12.4114  -21.1096 C   0  0  0  0  0  0  0  0  0  0  0  0
  -18.1223   12.5422  -20.0821 C   0  0  0  0  0  0  0  0  0  0  0  0
  -18.2338   11.5143  -19.1765 C   0  0  0  0  0  0  0  0  0  0  0  0
  -19.0496   11.3966  -18.0790 C   0  0  0  0  0  0  0  0  0  0  0  0
  -20.0777   12.2542  -17.4477 C   0  0  0  0  0  0  0  0  0  0  0  0
  -21.3092   13.7025  -16.0221 H   0  0  0  0  0  0  0  0  0  0  0  0
  -20.7652   13.2809  -14.4200 H   0  0  0  0  0  0  0  0  0  0  0  0
  -17.3985    8.6482  -18.0697 H   0  0  0  0  0  0  0  0  0  0  0  0
  -17.0456   13.7000  -22.2793 S   0  0  0  0  0  0  0  0  0  0  0  0
  -18.1372   13.5714  -23.2867 O   0  0  0  0  0  0  0  0  0  0  0  0
  -15.7188   13.5545  -22.9645 O   0  0  0  0  0  0  0  0  0  0  0  0
  -17.1384   15.2144  -21.4083 C   0  0  0  0  0  0  0  0  0  0  0  0
  -18.2087   15.4571  -20.5834 C   0  0  0  0  0  0  0  0  0  0  0  0
  -18.3642   16.6235  -19.8580 C   0  0  0  0  0  0  0  0  0  0  0  0
  -17.3737   17.5794  -19.9895 C   0  0  0  0  0  0  0  0  0  0  0  0
  -16.2815   17.3617  -20.8152 C   0  0  0  0  0  0  0  0  0  0  0  0
  -16.1742   16.1849  -21.5149 C   0  0  0  0  0  0  0  0  0  0  0  0
  1  2  1  0  0  0
  2  3  1  0  0  0
  3  4  1  0  0  0
  4  5  1  0  0  0
  5  6  1  0  0  0
  6  7  1  0  0  0
  7  8  2  0  0  0
  8  9  1  0  0  0
  9 10  2  0  0  0
 10 18  1  0  0  0
 18 19  2  0  0  0
 18 20  2  0  0  0
 18 21  1  0  0  0
 21 22  2  0  0  0
 22 23  1  0  0  0
 23 24  2  0  0  0
 24 25  1  0  0  0
 25 26  2  0  0  0
 10 11  1  0  0  0
 11 12  2  0  0  0
 12 13  1  0  0  0
 13 14  1  0  0  0
 14  2  1  0  0  0
 13  5  2  0  0  0
 12  7  1  0  0  0
 26 21  1  0  0  0
  1 15  1  0  0  0
  1 16  1  0  0  0
  6 17  1  0  0  0
M  END
> <minimizedAffinity>
-8.36714

> <CNNscore>
0.4530826807

> <CNNaffinity>
6.0710592270

> <CNN_VS>
2.7506918907

> <CNNaffinity_variance>
0.1195392609

$$$$
[H]c1c([H])c([H])c(S(=O)(=O)c2c([H])c([H])c3c(c2[H])c2c(n3[H])C([H])([H])C([H])([H])C([H])(N([H])[H])C2([H])[H])c([H])c1[H]


 26 29  0  0  0  0  0  0  0  0999 V2000
  -21.1498    9.9302  -13.9437 N   0  0  0  0  0  0  0  0  0  0  0  0
  -20.0064    9.9955  -14.8505 C   0  0  0  0  0  0  0  0  0  0  0  0
  -19.3925    8.6454  -14.9324 C   0  0  0  0  0  0  0  0  0  0  0  0
  -18.8214    8.2785  -16.2640 C   0  0  0  0  0  0  0  0  0  0  0  0
  -18.5806    9.4220  -17.1606 C   0  0  0  0  0  0  0  0  0  0  0  0
  -17.6589    9.6164  -18.1040 N   0  0  0  0  0  0  0  0  0  0  0  0
  -17.8224   10.8105  -18.6688 C   0  0  0  0  0  0  0  0  0  0  0  0
  -17.1440   11.4937  -19.6851 C   0  0  0  0  0  0  0  0  0  0  0  0
  -17.6061   12.7477  -20.0174 C   0  0  0  0  0  0  0  0  0  0  0  0
  -18.6769   13.3386  -19.4081 C   0  0  0  0  0  0  0  0  0  0  0  0
  -19.3408   12.6610  -18.4084 C   0  0  0  0  0  0  0  0  0  0  0  0
  -18.8937   11.4080  -18.0631 C   0  0  0  0  0  0  0  0  0  0  0  0
  -19.3704   10.5366  -17.1159 C   0  0  0  0  0  0  0  0  0  0  0  0
  -20.4805   10.5659  -16.1372 C   0  0  0  0  0  0  0  0  0  0  0  0
  -21.8203   10.6760  -14.1777 H   0  0  0  0  0  0  0  0  0  0  0  0
  -20.8443    9.9058  -12.9552 H   0  0  0  0  0  0  0  0  0  0  0  0
  -16.8937    8.9531  -18.3959 H   0  0  0  0  0  0  0  0  0  0  0  0
  -19.2192   14.9346  -19.8724 S   0  0  0  0  0  0  0  0  0  0  0  0
  -19.1441   15.8268  -18.6802 O   0  0  0  0  0  0  0  0  0  0  0  0
  -20.6442   14.8407  -20.3324 O   0  0  0  0  0  0  0  0  0  0  0  0
  -18.1783   15.4867  -21.1656 C   0  0  0  0  0  0  0  0  0  0  0  0
  -18.5359   15.2518  -22.4701 C   0  0  0  0  0  0  0  0  0  0  0  0
  -17.7759   15.6513  -23.5536 C   0  0  0  0  0  0  0  0  0  0  0  0
  -16.5977   16.3211  -23.2792 C   0  0  0  0  0  0  0  0  0  0  0  0
  -16.2114   16.5723  -21.9716 C   0  0  0  0  0  0  0  0  0  0  0  0
  -17.0027   16.1541  -20.9300 C   0  0  0  0  0  0  0  0  0  0  0  0
  1  2  1  0  0  0
  2  3  1  0  0  0
  3  4  1  0  0  0
  4  5  1  0  0  0
  5  6  1  0  0  0
  6  7  1  0  0  0
  7  8  2  0  0  0
  8  9  1  0  0  0
  9 10  2  0  0  0
 10 18  1  0  0  0
 18 19  2  0  0  0
 18 20  2  0  0  0
 18 21  1  0  0  0
 21 22  2  0  0  0
 22 23  1  0  0  0
 23 24  2  0  0  0
 24 25  1  0  0  0
 25 26  2  0  0  0
 10 11  1  0  0  0
 11 12  2  0  0  0
 12 13  1  0  0  0
 13 14  1  0  0  0
 14  2  1  0  0  0
 13  5  2  0  0  0
 12  7  1  0  0  0
 26 21  1  0  0  0
  1 15  1  0  0  0
  1 16  1  0  0  0
  6 17  1  0  0  0
M  END
> <minimizedAffinity>
-8.06115

> <CNNscore>
0.3974383771

> <CNNaffinity>
5.7424435616

> <CNN_VS>
2.2822673321

> <CNNaffinity_variance>
0.0641504005

$$$$
[H]c1c([H])c([H])c(S(=O)(=O)c2c([H])c([H])c3c(c2[H])c2c(n3[H])C([H])([H])C([H])([H])C([H])(N([H])[H])C2([H])[H])c([H])c1[H]


 26 29  0  0  0  0  0  0  0  0999 V2000
  -20.7823   13.8496  -17.4309 N   0  0  0  0  0  0  0  0  0  0  0  0
  -19.5859   13.0617  -17.7169 C   0  0  0  0  0  0  0  0  0  0  0  0
  -19.5645   11.8898  -16.8044 C   0  0  0  0  0  0  0  0  0  0  0  0
  -18.9939   10.6351  -17.3825 C   0  0  0  0  0  0  0  0  0  0  0  0
  -18.1783   10.8367  -18.5923 C   0  0  0  0  0  0  0  0  0  0  0  0
  -17.1242   10.1674  -19.0596 N   0  0  0  0  0  0  0  0  0  0  0  0
  -16.7035   10.7085  -20.2005 C   0  0  0  0  0  0  0  0  0  0  0  0
  -15.6605   10.4016  -21.0823 C   0  0  0  0  0  0  0  0  0  0  0  0
  -15.5205   11.2020  -22.1943 C   0  0  0  0  0  0  0  0  0  0  0  0
  -16.3411   12.2605  -22.4651 C   0  0  0  0  0  0  0  0  0  0  0  0
  -17.3661   12.5576  -21.5931 C   0  0  0  0  0  0  0  0  0  0  0  0
  -17.5213   11.7697  -20.4778 C   0  0  0  0  0  0  0  0  0  0  0  0
  -18.4477   11.8506  -19.4682 C   0  0  0  0  0  0  0  0  0  0  0  0
  -19.5868   12.7471  -19.1684 C   0  0  0  0  0  0  0  0  0  0  0  0
  -21.0503   14.3879  -18.2670 H   0  0  0  0  0  0  0  0  0  0  0  0
  -20.6676   14.4061  -16.5659 H   0  0  0  0  0  0  0  0  0  0  0  0
  -16.6570    9.3281  -18.6261 H   0  0  0  0  0  0  0  0  0  0  0  0
  -16.1152   13.2424  -23.8939 S   0  0  0  0  0  0  0  0  0  0  0  0
  -16.8036   12.5801  -25.0386 O   0  0  0  0  0  0  0  0  0  0  0  0
  -14.6460   13.3335  -24.1844 O   0  0  0  0  0  0  0  0  0  0  0  0
  -16.7863   14.8223  -23.5561 C   0  0  0  0  0  0  0  0  0  0  0  0
  -18.0213   15.1546  -24.0551 C   0  0  0  0  0  0  0  0  0  0  0  0
  -18.6281   16.3778  -23.8390 C   0  0  0  0  0  0  0  0  0  0  0  0
  -17.9309   17.2964  -23.0760 C   0  0  0  0  0  0  0  0  0  0  0  0
  -16.6819   16.9884  -22.5591 C   0  0  0  0  0  0  0  0  0  0  0  0
  -16.1227   15.7581  -22.8031 C   0  0  0  0  0  0  0  0  0  0  0  0
  1  2  1  0  0  0
  2  3  1  0  0  0
  3  4  1  0  0  0
  4  5  1  0  0  0
  5  6  1  0  0  0
  6  7  1  0  0  0
  7  8  2  0  0  0
  8  9  1  0  0  0
  9 10  2  0  0  0
 10 18  1  0  0  0
 18 19  2  0  0  0
 18 20  2  0  0  0
 18 21  1  0  0  0
 21 22  2  0  0  0
 22 23  1  0  0  0
 23 24  2  0  0  0
 24 25  1  0  0  0
 25 26  2  0  0  0
 10 11  1  0  0  0
 11 12  2  0  0  0
 12 13  1  0  0  0
 13 14  1  0  0  0
 14  2  1  0  0  0
 13  5  2  0  0  0
 12  7  1  0  0  0
 26 21  1  0  0  0
  1 15  1  0  0  0
  1 16  1  0  0  0
  6 17  1  0  0  0
M  END
> <minimizedAffinity>
-9.15806

> <CNNscore>
0.3926149905

> <CNNaffinity>
6.1309561729

> <CNN_VS>
2.4071052074

> <CNNaffinity_variance>
0.1664933115

$$$$
[H]c1c([H])c([H])c(S(=O)(=O)c2c([H])c([H])c3c(c2[H])c2c(n3[H])C([H])([H])C([H])([H])C([H])(N([H])[H])C2([H])[H])c([H])c1[H]


 26 29  0  0  0  0  0  0  0  0999 V2000
  -16.6321   17.8528  -25.0328 N   0  0  0  0  0  0  0  0  0  0  0  0
  -16.7611   16.4208  -24.7746 C   0  0  0  0  0  0  0  0  0  0  0  0
  -15.8862   15.6899  -25.7267 C   0  0  0  0  0  0  0  0  0  0  0  0
  -15.2517   14.4466  -25.1923 C   0  0  0  0  0  0  0  0  0  0  0  0
  -15.8882   13.9109  -23.9767 C   0  0  0  0  0  0  0  0  0  0  0  0
  -16.0156   12.6601  -23.5333 N   0  0  0  0  0  0  0  0  0  0  0  0
  -16.6706   12.6464  -22.3747 C   0  0  0  0  0  0  0  0  0  0  0  0
  -17.0623   11.6222  -21.5044 C   0  0  0  0  0  0  0  0  0  0  0  0
  -17.7439   11.9903  -20.3658 C   0  0  0  0  0  0  0  0  0  0  0  0
  -18.0465   13.2869  -20.0584 C   0  0  0  0  0  0  0  0  0  0  0  0
  -17.6582   14.2908  -20.9192 C   0  0  0  0  0  0  0  0  0  0  0  0
  -16.9768   13.9423  -22.0608 C   0  0  0  0  0  0  0  0  0  0  0  0
  -16.4857   14.7369  -23.0664 C   0  0  0  0  0  0  0  0  0  0  0  0
  -16.4773   16.1926  -23.3347 C   0  0  0  0  0  0  0  0  0  0  0  0
  -16.8611   18.3806  -24.1786 H   0  0  0  0  0  0  0  0  0  0  0  0
  -17.1601   18.1312  -25.8782 H   0  0  0  0  0  0  0  0  0  0  0  0
  -15.6664   11.7797  -23.9955 H   0  0  0  0  0  0  0  0  0  0  0  0
  -18.9150   13.6948  -18.5969 S   0  0  0  0  0  0  0  0  0  0  0  0
  -17.9259   13.9186  -17.5039 O   0  0  0  0  0  0  0  0  0  0  0  0
  -19.8050   12.5433  -18.2321 O   0  0  0  0  0  0  0  0  0  0  0  0
  -19.8549   15.1325  -18.9292 C   0  0  0  0  0  0  0  0  0  0  0  0
  -20.9949   15.0362  -19.6880 C   0  0  0  0  0  0  0  0  0  0  0  0
  -21.7976   16.1175  -20.0002 C   0  0  0  0  0  0  0  0  0  0  0  0
  -21.4073   17.3497  -19.5087 C   0  0  0  0  0  0  0  0  0  0  0  0
  -20.2608   17.4769  -18.7397 C   0  0  0  0  0  0  0  0  0  0  0  0
  -19.4974   16.3707  -18.4579 C   0  0  0  0  0  0  0  0  0  0  0  0
  1  2  1  0  0  0
  2  3  1  0  0  0
  3  4  1  0  0  0
  4  5  1  0  0  0
  5  6  1  0  0  0
  6  7  1  0  0  0
  7  8  2  0  0  0
  8  9  1  0  0  0
  9 10  2  0  0  0
 10 18  1  0  0  0
 18 19  2  0  0  0
 18 20  2  0  0  0
 18 21  1  0  0  0
 21 22  2  0  0  0
 22 23  1  0  0  0
 23 24  2  0  0  0
 24 25  1  0  0  0
 25 26  2  0  0  0
 10 11  1  0  0  0
 11 12  2  0  0  0
 12 13  1  0  0  0
 13 14  1  0  0  0
 14  2  1  0  0  0
 13  5  2  0  0  0
 12  7  1  0  0  0
 26 21  1  0  0  0
  1 15  1  0  0  0
  1 16  1  0  0  0
  6 17  1  0  0  0
M  END
> <minimizedAffinity>
-8.33483

> <CNNscore>
0.3888086677

> <CNNaffinity>
6.3620858192

> <CNN_VS>
2.4736340046

> <CNNaffinity_variance>
0.1963837594

$$$$
[H]c1c([H])c(OC([H])([H])[H])c2c(c1[H])[C@]([H])(C([H])([H])N(C([H])([H])[H])C([H])([H])C([H])([H])c1c([H])c([H])c3c(c1[H])C([H])([H])N(S(=O)(=O)C([H])([H])[H])C3([H])[H])C([H])([H])C([H])([H])C2([H])[H]


 30 33  0  0  0  0  0  0  0  0999 V2000
  -17.0206   11.6056  -20.8193 N   0  0  0  0  0  0  0  0  0  0  0  0
  -15.9111   10.8618  -21.2255 C   0  0  0  0  0  0  0  0  0  0  0  0
  -17.6528   12.5062  -21.6564 C   0  0  0  0  0  0  0  0  0  0  0  0
  -16.1677   14.3980  -25.9313 C   0  0  0  0  0  0  0  0  0  0  0  0
  -17.0141   13.5251  -26.6025 C   0  0  0  0  0  0  0  0  0  0  0  0
  -17.7849   12.6422  -25.8429 C   0  0  0  0  0  0  0  0  0  0  0  0
  -17.7342   12.6089  -24.4581 C   0  0  0  0  0  0  0  0  0  0  0  0
  -16.8899   13.4793  -23.7910 C   0  0  0  0  0  0  0  0  0  0  0  0
  -16.1445   14.3357  -24.5569 C   0  0  0  0  0  0  0  0  0  0  0  0
  -15.2712   15.2725  -23.7559 C   0  0  0  0  0  0  0  0  0  0  0  0
  -16.1891   15.9119  -22.7226 C   0  0  0  0  0  0  0  0  0  0  0  0
  -16.7545   14.8724  -21.7827 C   0  0  0  0  0  0  0  0  0  0  0  0
  -16.7407   13.4927  -22.3222 C   0  0  0  0  0  0  0  0  0  0  0  0
  -15.4639   15.5508  -27.9930 C   0  0  0  0  0  0  0  0  0  0  0  0
  -15.3523   15.3229  -26.6032 O   0  0  0  0  0  0  0  0  0  0  0  0
  -17.4223   11.5378  -19.4634 C   0  0  0  0  0  0  0  0  0  0  0  0
  -17.3889   10.2001  -18.8031 C   0  0  0  0  0  0  0  0  0  0  0  0
  -18.4913   10.0781  -17.7808 C   0  0  0  0  0  0  0  0  0  0  0  0
  -19.4307   11.0541  -17.5518 C   0  0  0  0  0  0  0  0  0  0  0  0
  -20.4174   10.9288  -16.6038 C   0  0  0  0  0  0  0  0  0  0  0  0
  -20.5108    9.7835  -15.8172 C   0  0  0  0  0  0  0  0  0  0  0  0
  -19.5840    8.8099  -16.0365 C   0  0  0  0  0  0  0  0  0  0  0  0
  -18.5784    8.9395  -17.0047 C   0  0  0  0  0  0  0  0  0  0  0  0
  -19.8368    7.6775  -15.1059 C   0  0  0  0  0  0  0  0  0  0  0  0
  -21.0797    8.0043  -14.4838 N   0  0  0  0  0  0  0  0  0  0  0  0
  -21.4310    9.3587  -14.7483 C   0  0  0  0  0  0  0  0  0  0  0  0
  -22.3726    6.9986  -15.0309 S   0  0  0  0  0  0  0  0  0  0  0  0
  -21.8061    5.7753  -16.1784 C   0  0  0  0  0  0  0  0  0  0  0  0
  -22.9822    6.3552  -13.8187 O   0  0  0  0  0  0  0  0  0  0  0  0
  -23.4565    7.8647  -15.6321 O   0  0  0  0  0  0  0  0  0  0  0  0
 14 15  1  0  0  0
 15  4  1  0  0  0
  4  5  2  0  0  0
  5  6  1  0  0  0
  6  7  2  0  0  0
  7  8  1  0  0  0
  8  9  2  0  0  0
  9 10  1  0  0  0
 10 11  1  0  0  0
 11 12  1  0  0  0
 12 13  1  0  0  0
 13  3  1  0  0  0
  3  1  1  0  0  0
  1  2  1  0  0  0
  1 16  1  0  0  0
 16 17  1  0  0  0
 17 18  1  0  0  0
 18 19  2  0  0  0
 19 20  1  0  0  0
 20 21  2  0  0  0
 21 22  1  0  0  0
 22 23  2  0  0  0
 22 24  1  0  0  0
 24 25  1  0  0  0
 25 27  1  0  0  0
 27 28  1  0  0  0
 27 29  2  0  0  0
 27 30  2  0  0  0
 25 26  1  0  0  0
  9  4  1  0  0  0
 23 18  1  0  0  0
 13  8  1  0  0  0
 26 21  1  0  0  0
M  END
> <minimizedAffinity>
-9.10457

> <CNNscore>
0.4032717645

> <CNNaffinity>
6.5189514160

> <CNN_VS>
2.6289091110

> <CNNaffinity_variance>
0.0161530040

$$$$
[H]c1c([H])c(OC([H])([H])[H])c2c(c1[H])[C@]([H])(C([H])([H])N(C([H])([H])[H])C([H])([H])C([H])([H])c1c([H])c([H])c3c(c1[H])C([H])([H])N(S(=O)(=O)C([H])([H])[H])C3([H])[H])C([H])([H])C([H])([H])C2([H])[H]


 30 33  0  0  0  0  0  0  0  0999 V2000
  -16.6641   11.4065  -21.0447 N   0  0  0  0  0  0  0  0  0  0  0  0
  -15.6077   10.6904  -21.6108 C   0  0  0  0  0  0  0  0  0  0  0  0
  -17.4265   12.2992  -21.7748 C   0  0  0  0  0  0  0  0  0  0  0  0
  -16.2780   14.4465  -26.0326 C   0  0  0  0  0  0  0  0  0  0  0  0
  -17.0405   13.5010  -26.7060 C   0  0  0  0  0  0  0  0  0  0  0  0
  -17.6876   12.5197  -25.9517 C   0  0  0  0  0  0  0  0  0  0  0  0
  -17.5956   12.4592  -24.5699 C   0  0  0  0  0  0  0  0  0  0  0  0
  -16.8350   13.4020  -23.9007 C   0  0  0  0  0  0  0  0  0  0  0  0
  -16.2103   14.3542  -24.6614 C   0  0  0  0  0  0  0  0  0  0  0  0
  -15.4246   15.3631  -23.8573 C   0  0  0  0  0  0  0  0  0  0  0  0
  -16.3790   15.8713  -22.7850 C   0  0  0  0  0  0  0  0  0  0  0  0
  -16.7998   14.7531  -21.8597 C   0  0  0  0  0  0  0  0  0  0  0  0
  -16.6480   13.3968  -22.4361 C   0  0  0  0  0  0  0  0  0  0  0  0
  -15.6066   15.5968  -28.1065 C   0  0  0  0  0  0  0  0  0  0  0  0
  -15.5888   15.4723  -26.6994 O   0  0  0  0  0  0  0  0  0  0  0  0
  -16.8691   11.3196  -19.6465 C   0  0  0  0  0  0  0  0  0  0  0  0
  -18.1332   11.8943  -19.1005 C   0  0  0  0  0  0  0  0  0  0  0  0
  -18.7243   10.9892  -18.0485 C   0  0  0  0  0  0  0  0  0  0  0  0
  -18.3137    9.6952  -17.8373 C   0  0  0  0  0  0  0  0  0  0  0  0
  -18.8773    8.8825  -16.8835 C   0  0  0  0  0  0  0  0  0  0  0  0
  -19.9107    9.3439  -16.0720 C   0  0  0  0  0  0  0  0  0  0  0  0
  -20.3251   10.6255  -16.2736 C   0  0  0  0  0  0  0  0  0  0  0  0
  -19.7484   11.4533  -17.2470 C   0  0  0  0  0  0  0  0  0  0  0  0
  -21.4309   10.9349  -15.3282 C   0  0  0  0  0  0  0  0  0  0  0  0
  -21.4776    9.8030  -14.4592 N   0  0  0  0  0  0  0  0  0  0  0  0
  -20.6985    8.7342  -14.9869 C   0  0  0  0  0  0  0  0  0  0  0  0
  -20.8884   10.1651  -12.8768 S   0  0  0  0  0  0  0  0  0  0  0  0
  -21.4429   11.7522  -12.3221 C   0  0  0  0  0  0  0  0  0  0  0  0
  -21.3714    9.0780  -11.9603 O   0  0  0  0  0  0  0  0  0  0  0  0
  -19.3791   10.0718  -12.8743 O   0  0  0  0  0  0  0  0  0  0  0  0
 14 15  1  0  0  0
 15  4  1  0  0  0
  4  5  2  0  0  0
  5  6  1  0  0  0
  6  7  2  0  0  0
  7  8  1  0  0  0
  8  9  2  0  0  0
  9 10  1  0  0  0
 10 11  1  0  0  0
 11 12  1  0  0  0
 12 13  1  0  0  0
 13  3  1  0  0  0
  3  1  1  0  0  0
  1  2  1  0  0  0
  1 16  1  0  0  0
 16 17  1  0  0  0
 17 18  1  0  0  0
 18 19  2  0  0  0
 19 20  1  0  0  0
 20 21  2  0  0  0
 21 22  1  0  0  0
 22 23  2  0  0  0
 22 24  1  0  0  0
 24 25  1  0  0  0
 25 27  1  0  0  0
 27 28  1  0  0  0
 27 29  2  0  0  0
 27 30  2  0  0  0
 25 26  1  0  0  0
  9  4  1  0  0  0
 23 18  1  0  0  0
 13  8  1  0  0  0
 26 21  1  0  0  0
M  END
> <minimizedAffinity>
-8.82315

> <CNNscore>
0.3110845089

> <CNNaffinity>
6.4245071411

> <CNN_VS>
1.9985646009

> <CNNaffinity_variance>
0.0266723670

$$$$
[H]c1c([H])c(OC([H])([H])[H])c2c(c1[H])[C@]([H])(C([H])([H])N(C([H])([H])[H])C([H])([H])C([H])([H])c1c([H])c([H])c3c(c1[H])C([H])([H])N(S(=O)(=O)C([H])([H])[H])C3([H])[H])C([H])([H])C([H])([H])C2([H])[H]


 30 33  0  0  0  0  0  0  0  0999 V2000
  -17.4533   13.9013  -24.1591 N   0  0  0  0  0  0  0  0  0  0  0  0
  -17.4846   12.8197  -25.0414 C   0  0  0  0  0  0  0  0  0  0  0  0
  -16.7540   13.8623  -22.9671 C   0  0  0  0  0  0  0  0  0  0  0  0
  -17.7671   10.8943  -19.1957 C   0  0  0  0  0  0  0  0  0  0  0  0
  -16.8307    9.9849  -19.6702 C   0  0  0  0  0  0  0  0  0  0  0  0
  -16.1364   10.3053  -20.8389 C   0  0  0  0  0  0  0  0  0  0  0  0
  -16.3478   11.4868  -21.5323 C   0  0  0  0  0  0  0  0  0  0  0  0
  -17.2816   12.3916  -21.0582 C   0  0  0  0  0  0  0  0  0  0  0  0
  -17.9495   12.0557  -19.9107 C   0  0  0  0  0  0  0  0  0  0  0  0
  -18.9290   13.1056  -19.4416 C   0  0  0  0  0  0  0  0  0  0  0  0
  -18.1512   14.4145  -19.4146 C   0  0  0  0  0  0  0  0  0  0  0  0
  -17.6787   14.7932  -20.7991 C   0  0  0  0  0  0  0  0  0  0  0  0
  -17.6017   13.6575  -21.7473 C   0  0  0  0  0  0  0  0  0  0  0  0
  -18.6027    9.3882  -17.4327 C   0  0  0  0  0  0  0  0  0  0  0  0
  -18.5168   10.6652  -18.0307 O   0  0  0  0  0  0  0  0  0  0  0  0
  -18.2787   15.0196  -24.4287 C   0  0  0  0  0  0  0  0  0  0  0  0
  -17.6597   16.3728  -24.3184 C   0  0  0  0  0  0  0  0  0  0  0  0
  -18.5085   17.2839  -23.4672 C   0  0  0  0  0  0  0  0  0  0  0  0
  -18.3022   18.6379  -23.3591 C   0  0  0  0  0  0  0  0  0  0  0  0
  -19.0781   19.4473  -22.5648 C   0  0  0  0  0  0  0  0  0  0  0  0
  -20.1295   18.9201  -21.8191 C   0  0  0  0  0  0  0  0  0  0  0  0
  -20.3422   17.5786  -21.9194 C   0  0  0  0  0  0  0  0  0  0  0  0
  -19.5496   16.7547  -22.7308 C   0  0  0  0  0  0  0  0  0  0  0  0
  -21.4914   17.2011  -21.0539 C   0  0  0  0  0  0  0  0  0  0  0  0
  -22.0234   18.4499  -20.6113 N   0  0  0  0  0  0  0  0  0  0  0  0
  -21.1183   19.5104  -20.9007 C   0  0  0  0  0  0  0  0  0  0  0  0
  -23.5375   18.8194  -21.3551 S   0  0  0  0  0  0  0  0  0  0  0  0
  -24.4904   19.9412  -20.3716 C   0  0  0  0  0  0  0  0  0  0  0  0
  -23.2408   19.4081  -22.7044 O   0  0  0  0  0  0  0  0  0  0  0  0
  -24.2896   17.5341  -21.6180 O   0  0  0  0  0  0  0  0  0  0  0  0
 14 15  1  0  0  0
 15  4  1  0  0  0
  4  5  2  0  0  0
  5  6  1  0  0  0
  6  7  2  0  0  0
  7  8  1  0  0  0
  8  9  2  0  0  0
  9 10  1  0  0  0
 10 11  1  0  0  0
 11 12  1  0  0  0
 12 13  1  0  0  0
 13  3  1  0  0  0
  3  1  1  0  0  0
  1  2  1  0  0  0
  1 16  1  0  0  0
 16 17  1  0  0  0
 17 18  1  0  0  0
 18 19  2  0  0  0
 19 20  1  0  0  0
 20 21  2  0  0  0
 21 22  1  0  0  0
 22 23  2  0  0  0
 22 24  1  0  0  0
 24 25  1  0  0  0
 25 27  1  0  0  0
 27 28  1  0  0  0
 27 29  2  0  0  0
 27 30  2  0  0  0
 25 26  1  0  0  0
  9  4  1  0  0  0
 23 18  1  0  0  0
 13  8  1  0  0  0
 26 21  1  0  0  0
M  END
> <minimizedAffinity>
-8.27450

> <CNNscore>
0.2726196051

> <CNNaffinity>
6.3326826096

> <CNN_VS>
1.7264134884

> <CNNaffinity_variance>
0.1586682051

$$$$
[H]c1c([H])c(OC([H])([H])[H])c2c(c1[H])[C@]([H])(C([H])([H])N(C([H])([H])[H])C([H])([H])C([H])([H])c1c([H])c([H])c3c(c1[H])C([H])([H])N(S(=O)(=O)C([H])([H])[H])C3([H])[H])C([H])([H])C([H])([H])C2([H])[H]


 30 33  0  0  0  0  0  0  0  0999 V2000
  -17.6648   18.4413  -21.4125 N   0  0  0  0  0  0  0  0  0  0  0  0
  -18.4247   18.8225  -22.5200 C   0  0  0  0  0  0  0  0  0  0  0  0
  -16.6606   17.4946  -21.4960 C   0  0  0  0  0  0  0  0  0  0  0  0
  -16.1887   13.9126  -24.8134 C   0  0  0  0  0  0  0  0  0  0  0  0
  -15.2842   14.6958  -25.5187 C   0  0  0  0  0  0  0  0  0  0  0  0
  -14.9778   15.9618  -25.0148 C   0  0  0  0  0  0  0  0  0  0  0  0
  -15.5393   16.4564  -23.8479 C   0  0  0  0  0  0  0  0  0  0  0  0
  -16.4407   15.6747  -23.1467 C   0  0  0  0  0  0  0  0  0  0  0  0
  -16.7250   14.4372  -23.6600 C   0  0  0  0  0  0  0  0  0  0  0  0
  -17.6932   13.6341  -22.8236 C   0  0  0  0  0  0  0  0  0  0  0  0
  -17.1416   13.6687  -21.4046 C   0  0  0  0  0  0  0  0  0  0  0  0
  -17.1121   15.0813  -20.8686 C   0  0  0  0  0  0  0  0  0  0  0  0
  -17.1171   16.1294  -21.9156 C   0  0  0  0  0  0  0  0  0  0  0  0
  -17.5482   12.4202  -26.2275 C   0  0  0  0  0  0  0  0  0  0  0  0
  -16.5625   12.6270  -25.2368 O   0  0  0  0  0  0  0  0  0  0  0  0
  -18.0293   18.9373  -20.1375 C   0  0  0  0  0  0  0  0  0  0  0  0
  -19.4828   18.9657  -19.8012 C   0  0  0  0  0  0  0  0  0  0  0  0
  -19.9491   17.6144  -19.3198 C   0  0  0  0  0  0  0  0  0  0  0  0
  -21.1797   17.0813  -19.6179 C   0  0  0  0  0  0  0  0  0  0  0  0
  -21.5906   15.8545  -19.1553 C   0  0  0  0  0  0  0  0  0  0  0  0
  -20.7608   15.0813  -18.3473 C   0  0  0  0  0  0  0  0  0  0  0  0
  -19.5385   15.6010  -18.0458 C   0  0  0  0  0  0  0  0  0  0  0  0
  -19.1210   16.8528  -18.5194 C   0  0  0  0  0  0  0  0  0  0  0  0
  -18.8033   14.6450  -17.1753 C   0  0  0  0  0  0  0  0  0  0  0  0
  -19.6226   13.4757  -17.1667 N   0  0  0  0  0  0  0  0  0  0  0  0
  -20.9068   13.7603  -17.7123 C   0  0  0  0  0  0  0  0  0  0  0  0
  -18.9292   12.1811  -18.0752 S   0  0  0  0  0  0  0  0  0  0  0  0
  -19.2969   10.6074  -17.3525 C   0  0  0  0  0  0  0  0  0  0  0  0
  -19.4761   12.2712  -19.4708 O   0  0  0  0  0  0  0  0  0  0  0  0
  -17.4382   12.4017  -18.1973 O   0  0  0  0  0  0  0  0  0  0  0  0
 14 15  1  0  0  0
 15  4  1  0  0  0
  4  5  2  0  0  0
  5  6  1  0  0  0
  6  7  2  0  0  0
  7  8  1  0  0  0
  8  9  2  0  0  0
  9 10  1  0  0  0
 10 11  1  0  0  0
 11 12  1  0  0  0
 12 13  1  0  0  0
 13  3  1  0  0  0
  3  1  1  0  0  0
  1  2  1  0  0  0
  1 16  1  0  0  0
 16 17  1  0  0  0
 17 18  1  0  0  0
 18 19  2  0  0  0
 19 20  1  0  0  0
 20 21  2  0  0  0
 21 22  1  0  0  0
 22 23  2  0  0  0
 22 24  1  0  0  0
 24 25  1  0  0  0
 25 27  1  0  0  0
 27 28  1  0  0  0
 27 29  2  0  0  0
 27 30  2  0  0  0
 25 26  1  0  0  0
  9  4  1  0  0  0
 23 18  1  0  0  0
 13  8  1  0  0  0
 26 21  1  0  0  0
M  END
> <minimizedAffinity>
-7.44185

> <CNNscore>
0.2593554556

> <CNNaffinity>
6.6742582321

> <CNN_VS>
1.7310053110

> <CNNaffinity_variance>
0.1154985428

$$$$
[H]c1c([H])c(OC([H])([H])[H])c2c(c1[H])[C@]([H])(C([H])([H])N(C([H])([H])[H])C([H])([H])C([H])([H])c1c([H])c([H])c3c(c1[H])C([H])([H])N(S(=O)(=O)C([H])([H])[H])C3([H])[H])C([H])([H])C([H])([H])C2([H])[H]


 30 33  0  0  0  0  0  0  0  0999 V2000
  -16.8484   11.5632  -20.7085 N   0  0  0  0  0  0  0  0  0  0  0  0
  -15.9384   10.7825  -21.4238 C   0  0  0  0  0  0  0  0  0  0  0  0
  -17.5347   12.6147  -21.2872 C   0  0  0  0  0  0  0  0  0  0  0  0
  -18.1343   17.1359  -19.4823 C   0  0  0  0  0  0  0  0  0  0  0  0
  -17.0898   17.5844  -20.2804 C   0  0  0  0  0  0  0  0  0  0  0  0
  -16.4512   16.6591  -21.1090 C   0  0  0  0  0  0  0  0  0  0  0  0
  -16.8209   15.3241  -21.1609 C   0  0  0  0  0  0  0  0  0  0  0  0
  -17.8616   14.8790  -20.3645 C   0  0  0  0  0  0  0  0  0  0  0  0
  -18.4727   15.8045  -19.5610 C   0  0  0  0  0  0  0  0  0  0  0  0
  -19.6162   15.2488  -18.7454 C   0  0  0  0  0  0  0  0  0  0  0  0
  -20.5111   14.5140  -19.7344 C   0  0  0  0  0  0  0  0  0  0  0  0
  -19.7784   13.3564  -20.3721 C   0  0  0  0  0  0  0  0  0  0  0  0
  -18.3021   13.4704  -20.3243 C   0  0  0  0  0  0  0  0  0  0  0  0
  -18.8709   19.3869  -18.8001 C   0  0  0  0  0  0  0  0  0  0  0  0
  -18.8392   17.9867  -18.6156 O   0  0  0  0  0  0  0  0  0  0  0  0
  -16.9652   11.3593  -19.3123 C   0  0  0  0  0  0  0  0  0  0  0  0
  -17.3582    9.9970  -18.8474 C   0  0  0  0  0  0  0  0  0  0  0  0
  -18.4510   10.0777  -17.8108 C   0  0  0  0  0  0  0  0  0  0  0  0
  -19.2219   11.1953  -17.6005 C   0  0  0  0  0  0  0  0  0  0  0  0
  -20.2021   11.2525  -16.6393 C   0  0  0  0  0  0  0  0  0  0  0  0
  -20.4627   10.1578  -15.8190 C   0  0  0  0  0  0  0  0  0  0  0  0
  -19.7036    9.0449  -16.0194 C   0  0  0  0  0  0  0  0  0  0  0  0
  -18.7044    8.9884  -17.0012 C   0  0  0  0  0  0  0  0  0  0  0  0
  -20.1175    7.9919  -15.0539 C   0  0  0  0  0  0  0  0  0  0  0  0
  -21.2844    8.5270  -14.4289 N   0  0  0  0  0  0  0  0  0  0  0  0
  -21.4224    9.9121  -14.7289 C   0  0  0  0  0  0  0  0  0  0  0  0
  -22.7270    7.7229  -14.9334 S   0  0  0  0  0  0  0  0  0  0  0  0
  -23.8496    8.8365  -15.7294 C   0  0  0  0  0  0  0  0  0  0  0  0
  -22.3201    6.6161  -15.8631 O   0  0  0  0  0  0  0  0  0  0  0  0
  -23.3653    7.0500  -13.7390 O   0  0  0  0  0  0  0  0  0  0  0  0
 14 15  1  0  0  0
 15  4  1  0  0  0
  4  5  2  0  0  0
  5  6  1  0  0  0
  6  7  2  0  0  0
  7  8  1  0  0  0
  8  9  2  0  0  0
  9 10  1  0  0  0
 10 11  1  0  0  0
 11 12  1  0  0  0
 12 13  1  0  0  0
 13  3  1  0  0  0
  3  1  1  0  0  0
  1  2  1  0  0  0
  1 16  1  0  0  0
 16 17  1  0  0  0
 17 18  1  0  0  0
 18 19  2  0  0  0
 19 20  1  0  0  0
 20 21  2  0  0  0
 21 22  1  0  0  0
 22 23  2  0  0  0
 22 24  1  0  0  0
 24 25  1  0  0  0
 25 27  1  0  0  0
 27 28  1  0  0  0
 27 29  2  0  0  0
 27 30  2  0  0  0
 25 26  1  0  0  0
  9  4  1  0  0  0
 23 18  1  0  0  0
 13  8  1  0  0  0
 26 21  1  0  0  0
M  END
> <minimizedAffinity>
-8.02980

> <CNNscore>
0.2418958098

> <CNNaffinity>
5.8777165413

> <CNN_VS>
1.4217950106

> <CNNaffinity_variance>
0.3572678864

$$$$
[H]c1c([H])c(OC([H])([H])[H])c2c(c1[H])[C@]([H])(C([H])([H])N(C([H])([H])[H])C([H])([H])C([H])([H])c1c([H])c([H])c3c(c1[H])C([H])([H])N(S(=O)(=O)C([H])([H])[H])C3([H])[H])C([H])([H])C([H])([H])C2([H])[H]


 30 33  0  0  0  0  0  0  0  0999 V2000
  -16.0704   12.9227  -23.6998 N   0  0  0  0  0  0  0  0  0  0  0  0
  -14.8155   13.4375  -24.0308 C   0  0  0  0  0  0  0  0  0  0  0  0
  -16.3031   12.2478  -22.5158 C   0  0  0  0  0  0  0  0  0  0  0  0
  -18.9332   11.7455  -18.4061 C   0  0  0  0  0  0  0  0  0  0  0  0
  -18.2922   10.5397  -18.1528 C   0  0  0  0  0  0  0  0  0  0  0  0
  -17.3300   10.1020  -19.0656 C   0  0  0  0  0  0  0  0  0  0  0  0
  -16.9972   10.8225  -20.2020 C   0  0  0  0  0  0  0  0  0  0  0  0
  -17.6372   12.0236  -20.4531 C   0  0  0  0  0  0  0  0  0  0  0  0
  -18.5764   12.4324  -19.5438 C   0  0  0  0  0  0  0  0  0  0  0  0
  -19.2084   13.7646  -19.8718 C   0  0  0  0  0  0  0  0  0  0  0  0
  -18.0505   14.7204  -20.1262 C   0  0  0  0  0  0  0  0  0  0  0  0
  -17.2340   14.2778  -21.3182 C   0  0  0  0  0  0  0  0  0  0  0  0
  -17.3767   12.8419  -21.6540 C   0  0  0  0  0  0  0  0  0  0  0  0
  -20.4577   11.5234  -16.4823 C   0  0  0  0  0  0  0  0  0  0  0  0
  -19.9146   12.2713  -17.5506 O   0  0  0  0  0  0  0  0  0  0  0  0
  -17.1001   12.9711  -24.6703 C   0  0  0  0  0  0  0  0  0  0  0  0
  -17.0597   14.0872  -25.6598 C   0  0  0  0  0  0  0  0  0  0  0  0
  -17.3399   15.4093  -24.9897 C   0  0  0  0  0  0  0  0  0  0  0  0
  -16.5147   16.5035  -25.0864 C   0  0  0  0  0  0  0  0  0  0  0  0
  -16.7812   17.6940  -24.4543 C   0  0  0  0  0  0  0  0  0  0  0  0
  -17.9229   17.8473  -23.6719 C   0  0  0  0  0  0  0  0  0  0  0  0
  -18.7475   16.7682  -23.5696 C   0  0  0  0  0  0  0  0  0  0  0  0
  -18.4740   15.5545  -24.2158 C   0  0  0  0  0  0  0  0  0  0  0  0
  -19.8996   17.1159  -22.6954 C   0  0  0  0  0  0  0  0  0  0  0  0
  -19.7595   18.5189  -22.4705 N   0  0  0  0  0  0  0  0  0  0  0  0
  -18.4749   18.9673  -22.8904 C   0  0  0  0  0  0  0  0  0  0  0  0
  -20.9512   19.4414  -23.3137 S   0  0  0  0  0  0  0  0  0  0  0  0
  -21.9058   20.4402  -22.2068 C   0  0  0  0  0  0  0  0  0  0  0  0
  -20.2292   20.2935  -24.3175 O   0  0  0  0  0  0  0  0  0  0  0  0
  -21.8286   18.5066  -24.1155 O   0  0  0  0  0  0  0  0  0  0  0  0
 14 15  1  0  0  0
 15  4  1  0  0  0
  4  5  2  0  0  0
  5  6  1  0  0  0
  6  7  2  0  0  0
  7  8  1  0  0  0
  8  9  2  0  0  0
  9 10  1  0  0  0
 10 11  1  0  0  0
 11 12  1  0  0  0
 12 13  1  0  0  0
 13  3  1  0  0  0
  3  1  1  0  0  0
  1  2  1  0  0  0
  1 16  1  0  0  0
 16 17  1  0  0  0
 17 18  1  0  0  0
 18 19  2  0  0  0
 19 20  1  0  0  0
 20 21  2  0  0  0
 21 22  1  0  0  0
 22 23  2  0  0  0
 22 24  1  0  0  0
 24 25  1  0  0  0
 25 27  1  0  0  0
 27 28  1  0  0  0
 27 29  2  0  0  0
 27 30  2  0  0  0
 25 26  1  0  0  0
  9  4  1  0  0  0
 23 18  1  0  0  0
 13  8  1  0  0  0
 26 21  1  0  0  0
M  END
> <minimizedAffinity>
-8.97543

> <CNNscore>
0.2383433431

> <CNNaffinity>
6.5471429825

> <CNN_VS>
1.5604679585

> <CNNaffinity_variance>
0.1326007098

$$$$
[H]c1c([H])c(OC([H])([H])[H])c2c(c1[H])[C@]([H])(C([H])([H])N(C([H])([H])[H])C([H])([H])C([H])([H])c1c([H])c([H])c3c(c1[H])C([H])([H])N(S(=O)(=O)C([H])([H])[H])C3([H])[H])C([H])([H])C([H])([H])C2([H])[H]


 30 33  0  0  0  0  0  0  0  0999 V2000
  -19.4734   16.3837  -18.1631 N   0  0  0  0  0  0  0  0  0  0  0  0
  -18.5597   16.2663  -17.1140 C   0  0  0  0  0  0  0  0  0  0  0  0
  -20.1377   15.2916  -18.6899 C   0  0  0  0  0  0  0  0  0  0  0  0
  -19.3897   10.6537  -17.2794 C   0  0  0  0  0  0  0  0  0  0  0  0
  -20.4360   10.7689  -16.3734 C   0  0  0  0  0  0  0  0  0  0  0  0
  -21.1152   11.9874  -16.3047 C   0  0  0  0  0  0  0  0  0  0  0  0
  -20.7840   13.0723  -17.1013 C   0  0  0  0  0  0  0  0  0  0  0  0
  -19.7407   12.9558  -18.0032 C   0  0  0  0  0  0  0  0  0  0  0  0
  -19.0901   11.7517  -18.0529 C   0  0  0  0  0  0  0  0  0  0  0  0
  -17.9847   11.6939  -19.0808 C   0  0  0  0  0  0  0  0  0  0  0  0
  -18.6044   12.1835  -20.3828 C   0  0  0  0  0  0  0  0  0  0  0  0
  -19.0614   13.6186  -20.2597 C   0  0  0  0  0  0  0  0  0  0  0  0
  -19.2917   14.0663  -18.8664 C   0  0  0  0  0  0  0  0  0  0  0  0
  -18.5320    8.5240  -16.3830 C   0  0  0  0  0  0  0  0  0  0  0  0
  -18.6450    9.4721  -17.4242 O   0  0  0  0  0  0  0  0  0  0  0  0
  -19.6170   17.6405  -18.7991 C   0  0  0  0  0  0  0  0  0  0  0  0
  -19.9649   17.6404  -20.2501 C   0  0  0  0  0  0  0  0  0  0  0  0
  -18.7583   17.3071  -21.0917 C   0  0  0  0  0  0  0  0  0  0  0  0
  -17.4702   17.6317  -20.7408 C   0  0  0  0  0  0  0  0  0  0  0  0
  -16.3864   17.3324  -21.5305 C   0  0  0  0  0  0  0  0  0  0  0  0
  -16.5491   16.6733  -22.7464 C   0  0  0  0  0  0  0  0  0  0  0  0
  -17.8223   16.3472  -23.1035 C   0  0  0  0  0  0  0  0  0  0  0  0
  -18.9267   16.6530  -22.2959 C   0  0  0  0  0  0  0  0  0  0  0  0
  -17.7983   15.6622  -24.4235 C   0  0  0  0  0  0  0  0  0  0  0  0
  -16.4101   15.4602  -24.6897 N   0  0  0  0  0  0  0  0  0  0  0  0
  -15.6118   16.2212  -23.7890 C   0  0  0  0  0  0  0  0  0  0  0  0
  -15.9482   13.8024  -24.5456 S   0  0  0  0  0  0  0  0  0  0  0  0
  -16.4478   13.1192  -22.9907 C   0  0  0  0  0  0  0  0  0  0  0  0
  -16.5836   13.0606  -25.6862 O   0  0  0  0  0  0  0  0  0  0  0  0
  -14.4549   13.6823  -24.7512 O   0  0  0  0  0  0  0  0  0  0  0  0
 14 15  1  0  0  0
 15  4  1  0  0  0
  4  5  2  0  0  0
  5  6  1  0  0  0
  6  7  2  0  0  0
  7  8  1  0  0  0
  8  9  2  0  0  0
  9 10  1  0  0  0
 10 11  1  0  0  0
 11 12  1  0  0  0
 12 13  1  0  0  0
 13  3  1  0  0  0
  3  1  1  0  0  0
  1  2  1  0  0  0
  1 16  1  0  0  0
 16 17  1  0  0  0
 17 18  1  0  0  0
 18 19  2  0  0  0
 19 20  1  0  0  0
 20 21  2  0  0  0
 21 22  1  0  0  0
 22 23  2  0  0  0
 22 24  1  0  0  0
 24 25  1  0  0  0
 25 27  1  0  0  0
 27 28  1  0  0  0
 27 29  2  0  0  0
 27 30  2  0  0  0
 25 26  1  0  0  0
  9  4  1  0  0  0
 23 18  1  0  0  0
 13  8  1  0  0  0
 26 21  1  0  0  0
M  END
> <minimizedAffinity>
-8.07297

> <CNNscore>
0.2186500281

> <CNNaffinity>
6.5096254349

> <CNN_VS>
1.4233298302

> <CNNaffinity_variance>
0.0401355997

$$$$
[H]c1c([H])c(OC([H])([H])[H])c2c(c1[H])[C@]([H])(C([H])([H])N(C([H])([H])[H])C([H])([H])C([H])([H])c1c([H])c([H])c3c(c1[H])C([H])([H])N(S(=O)(=O)C([H])([H])[H])C3([H])[H])C([H])([H])C([H])([H])C2([H])[H]


 30 33  0  0  0  0  0  0  0  0999 V2000
  -20.9277   15.9057  -18.4895 N   0  0  0  0  0  0  0  0  0  0  0  0
  -22.1888   16.5022  -18.5436 C   0  0  0  0  0  0  0  0  0  0  0  0
  -20.7498   14.5409  -18.6212 C   0  0  0  0  0  0  0  0  0  0  0  0
  -17.3125   11.0719  -19.0791 C   0  0  0  0  0  0  0  0  0  0  0  0
  -17.9402   10.3302  -18.0866 C   0  0  0  0  0  0  0  0  0  0  0  0
  -19.0986   10.8535  -17.5079 C   0  0  0  0  0  0  0  0  0  0  0  0
  -19.6365   12.0735  -17.8870 C   0  0  0  0  0  0  0  0  0  0  0  0
  -19.0095   12.8113  -18.8759 C   0  0  0  0  0  0  0  0  0  0  0  0
  -17.8757   12.2777  -19.4286 C   0  0  0  0  0  0  0  0  0  0  0  0
  -17.2670   13.1271  -20.5194 C   0  0  0  0  0  0  0  0  0  0  0  0
  -18.4049   13.4440  -21.4805 C   0  0  0  0  0  0  0  0  0  0  0  0
  -19.4827   14.2531  -20.7968 C   0  0  0  0  0  0  0  0  0  0  0  0
  -19.4864   14.1361  -19.3199 C   0  0  0  0  0  0  0  0  0  0  0  0
  -16.1789    9.7449  -20.8194 C   0  0  0  0  0  0  0  0  0  0  0  0
  -16.1436   10.6335  -19.7218 O   0  0  0  0  0  0  0  0  0  0  0  0
  -19.8125   16.7084  -18.1483 C   0  0  0  0  0  0  0  0  0  0  0  0
  -19.4929   17.8573  -19.0452 C   0  0  0  0  0  0  0  0  0  0  0  0
  -18.4449   17.4716  -20.0592 C   0  0  0  0  0  0  0  0  0  0  0  0
  -17.1812   17.0475  -19.7266 C   0  0  0  0  0  0  0  0  0  0  0  0
  -16.2362   16.7161  -20.6674 C   0  0  0  0  0  0  0  0  0  0  0  0
  -16.5236   16.7972  -22.0276 C   0  0  0  0  0  0  0  0  0  0  0  0
  -17.7738   17.2168  -22.3678 C   0  0  0  0  0  0  0  0  0  0  0  0
  -18.7367   17.5539  -21.4063 C   0  0  0  0  0  0  0  0  0  0  0  0
  -17.8914   17.2471  -23.8503 C   0  0  0  0  0  0  0  0  0  0  0  0
  -16.6860   16.6363  -24.3112 N   0  0  0  0  0  0  0  0  0  0  0  0
  -15.7470   16.5164  -23.2474 C   0  0  0  0  0  0  0  0  0  0  0  0
  -16.9567   15.0619  -24.9672 S   0  0  0  0  0  0  0  0  0  0  0  0
  -16.4536   14.9665  -26.6618 C   0  0  0  0  0  0  0  0  0  0  0  0
  -16.1861   14.0875  -24.1234 O   0  0  0  0  0  0  0  0  0  0  0  0
  -18.4143   14.6965  -24.7988 O   0  0  0  0  0  0  0  0  0  0  0  0
 14 15  1  0  0  0
 15  4  1  0  0  0
  4  5  2  0  0  0
  5  6  1  0  0  0
  6  7  2  0  0  0
  7  8  1  0  0  0
  8  9  2  0  0  0
  9 10  1  0  0  0
 10 11  1  0  0  0
 11 12  1  0  0  0
 12 13  1  0  0  0
 13  3  1  0  0  0
  3  1  1  0  0  0
  1  2  1  0  0  0
  1 16  1  0  0  0
 16 17  1  0  0  0
 17 18  1  0  0  0
 18 19  2  0  0  0
 19 20  1  0  0  0
 20 21  2  0  0  0
 21 22  1  0  0  0
 22 23  2  0  0  0
 22 24  1  0  0  0
 24 25  1  0  0  0
 25 27  1  0  0  0
 27 28  1  0  0  0
 27 29  2  0  0  0
 27 30  2  0  0  0
 25 26  1  0  0  0
  9  4  1  0  0  0
 23 18  1  0  0  0
 13  8  1  0  0  0
 26 21  1  0  0  0
M  END
> <minimizedAffinity>
-7.71571

> <CNNscore>
0.2153472602

> <CNNaffinity>
6.6862192154

> <CNN_VS>
1.4398590326

> <CNNaffinity_variance>
0.1385226995

$$$$
[H]c1c([H])c(OC([H])([H])[H])c2c(c1[H])[C@]([H])(C([H])([H])N(C([H])([H])[H])C([H])([H])C([H])([H])c1c([H])c([H])c3c(c1[H])C([H])([H])N(S(=O)(=O)C([H])([H])[H])C3([H])[H])C([H])([H])C([H])([H])C2([H])[H]


 30 33  0  0  0  0  0  0  0  0999 V2000
  -16.6797   11.1048  -20.5217 N   0  0  0  0  0  0  0  0  0  0  0  0
  -15.6970   10.3638  -21.1808 C   0  0  0  0  0  0  0  0  0  0  0  0
  -16.7149   11.2253  -19.1449 C   0  0  0  0  0  0  0  0  0  0  0  0
  -20.6515   10.3602  -16.3495 C   0  0  0  0  0  0  0  0  0  0  0  0
  -20.2072    9.0611  -16.1398 C   0  0  0  0  0  0  0  0  0  0  0  0
  -19.0093    8.6705  -16.7424 C   0  0  0  0  0  0  0  0  0  0  0  0
  -18.2579    9.5261  -17.5328 C   0  0  0  0  0  0  0  0  0  0  0  0
  -18.7024   10.8201  -17.7410 C   0  0  0  0  0  0  0  0  0  0  0  0
  -19.8791   11.1802  -17.1397 C   0  0  0  0  0  0  0  0  0  0  0  0
  -20.2818   12.6144  -17.3899 C   0  0  0  0  0  0  0  0  0  0  0  0
  -19.0594   13.4538  -17.0437 C   0  0  0  0  0  0  0  0  0  0  0  0
  -17.8990   13.1227  -17.9533 C   0  0  0  0  0  0  0  0  0  0  0  0
  -17.9904   11.7908  -18.5957 C   0  0  0  0  0  0  0  0  0  0  0  0
  -22.9219    9.9985  -15.4610 C   0  0  0  0  0  0  0  0  0  0  0  0
  -21.8424   10.8489  -15.7886 O   0  0  0  0  0  0  0  0  0  0  0  0
  -17.7534   11.6315  -21.2796 C   0  0  0  0  0  0  0  0  0  0  0  0
  -17.4826   12.8466  -22.1022 C   0  0  0  0  0  0  0  0  0  0  0  0
  -17.9161   14.0950  -21.3751 C   0  0  0  0  0  0  0  0  0  0  0  0
  -17.0576   15.1056  -21.0158 C   0  0  0  0  0  0  0  0  0  0  0  0
  -17.4714   16.2276  -20.3393 C   0  0  0  0  0  0  0  0  0  0  0  0
  -18.8066   16.3935  -19.9805 C   0  0  0  0  0  0  0  0  0  0  0  0
  -19.6660   15.3970  -20.3320 C   0  0  0  0  0  0  0  0  0  0  0  0
  -19.2418   14.2532  -21.0228 C   0  0  0  0  0  0  0  0  0  0  0  0
  -21.0338   15.7443  -19.8621 C   0  0  0  0  0  0  0  0  0  0  0  0
  -20.9137   17.0870  -19.3918 N   0  0  0  0  0  0  0  0  0  0  0  0
  -19.5432   17.4554  -19.2737 C   0  0  0  0  0  0  0  0  0  0  0  0
  -21.6852   18.2217  -20.4403 S   0  0  0  0  0  0  0  0  0  0  0  0
  -23.3359   18.5807  -19.9108 C   0  0  0  0  0  0  0  0  0  0  0  0
  -20.8431   19.4650  -20.4508 O   0  0  0  0  0  0  0  0  0  0  0  0
  -21.6591   17.6891  -21.8554 O   0  0  0  0  0  0  0  0  0  0  0  0
 14 15  1  0  0  0
 15  4  1  0  0  0
  4  5  2  0  0  0
  5  6  1  0  0  0
  6  7  2  0  0  0
  7  8  1  0  0  0
  8  9  2  0  0  0
  9 10  1  0  0  0
 10 11  1  0  0  0
 11 12  1  0  0  0
 12 13  1  0  0  0
 13  3  1  0  0  0
  3  1  1  0  0  0
  1  2  1  0  0  0
  1 16  1  0  0  0
 16 17  1  0  0  0
 17 18  1  0  0  0
 18 19  2  0  0  0
 19 20  1  0  0  0
 20 21  2  0  0  0
 21 22  1  0  0  0
 22 23  2  0  0  0
 22 24  1  0  0  0
 24 25  1  0  0  0
 25 27  1  0  0  0
 27 28  1  0  0  0
 27 29  2  0  0  0
 27 30  2  0  0  0
 25 26  1  0  0  0
  9  4  1  0  0  0
 23 18  1  0  0  0
 13  8  1  0  0  0
 26 21  1  0  0  0
M  END
> <minimizedAffinity>
-7.84121

> <CNNscore>
0.2117026448

> <CNNaffinity>
6.0208144188

> <CNN_VS>
1.2746223211

> <CNNaffinity_variance>
0.3011187911

$$$$
[H]N=C(c1c([H])c([H])c(C([H])([H])N([H])C(=O)C2([H])N3C(=O)[C@](O[H])(C([H])([H])c4c([H])c([H])c([H])c([H])c4[H])C([H])([H])C([H])([H])[C@]3([H])C([H])([H])C2([H])[H])c([H])c1[H])N([H])[H]


 36 39  0  0  0  0  0  0  0  0999 V2000
  -21.1620   17.0261  -17.6895 C   0  0  0  0  0  0  0  0  0  0  0  0
  -19.6753   17.1652  -17.4396 C   0  0  0  0  0  0  0  0  0  0  0  0
  -19.1315   17.0344  -18.8541 C   0  0  0  0  0  0  0  0  0  0  0  0
  -20.0778   17.9349  -19.6148 C   0  0  0  0  0  0  0  0  0  0  0  0
  -20.1856   17.5473  -21.0657 C   0  0  0  0  0  0  0  0  0  0  0  0
  -21.2747   18.2945  -21.7623 C   0  0  0  0  0  0  0  0  0  0  0  0
  -22.1961   19.0499  -20.8460 C   0  0  0  0  0  0  0  0  0  0  0  0
  -21.6186   20.2622  -20.4324 O   0  0  0  0  0  0  0  0  0  0  0  0
  -22.5057   18.1842  -19.6779 C   0  0  0  0  0  0  0  0  0  0  0  0
  -23.6506   17.8642  -19.3081 O   0  0  0  0  0  0  0  0  0  0  0  0
  -21.3683   17.7019  -18.9479 N   0  0  0  0  0  0  0  0  0  0  0  0
  -21.0854   20.5742  -21.2230 H   0  0  0  0  0  0  0  0  0  0  0  0
  -20.6112   14.6880  -17.0325 N   0  0  0  0  0  0  0  0  0  0  0  0
  -21.4242   15.5476  -17.8149 C   0  0  0  0  0  0  0  0  0  0  0  0
  -22.3017   15.0919  -18.5599 O   0  0  0  0  0  0  0  0  0  0  0  0
  -19.8551   15.0635  -16.3912 H   0  0  0  0  0  0  0  0  0  0  0  0
  -20.7404   13.2412  -17.0400 C   0  0  0  0  0  0  0  0  0  0  0  0
  -17.7110   11.5094  -19.4983 C   0  0  0  0  0  0  0  0  0  0  0  0
  -18.2831   12.7119  -19.8066 C   0  0  0  0  0  0  0  0  0  0  0  0
  -19.2705   13.3122  -19.0329 C   0  0  0  0  0  0  0  0  0  0  0  0
  -19.6911   12.6654  -17.9053 C   0  0  0  0  0  0  0  0  0  0  0  0
  -19.1348   11.4570  -17.5709 C   0  0  0  0  0  0  0  0  0  0  0  0
  -18.1491   10.8591  -18.3442 C   0  0  0  0  0  0  0  0  0  0  0  0
  -15.9578    9.8954  -19.9845 N   0  0  0  0  0  0  0  0  0  0  0  0
  -16.6787   10.8972  -20.3218 C   0  0  0  0  0  0  0  0  0  0  0  0
  -16.4134   11.4301  -21.6316 N   0  0  0  0  0  0  0  0  0  0  0  0
  -16.0900    9.4588  -19.0597 H   0  0  0  0  0  0  0  0  0  0  0  0
  -17.1417   11.4002  -22.3758 H   0  0  0  0  0  0  0  0  0  0  0  0
  -15.4764   11.8470  -21.8201 H   0  0  0  0  0  0  0  0  0  0  0  0
  -23.4523   19.4185  -21.5996 C   0  0  0  0  0  0  0  0  0  0  0  0
  -23.4161   19.0410  -23.0107 C   0  0  0  0  0  0  0  0  0  0  0  0
  -23.1468   19.9328  -24.0301 C   0  0  0  0  0  0  0  0  0  0  0  0
  -23.1242   19.5371  -25.3581 C   0  0  0  0  0  0  0  0  0  0  0  0
  -23.3741   18.2251  -25.6955 C   0  0  0  0  0  0  0  0  0  0  0  0
  -23.6423   17.3285  -24.7035 C   0  0  0  0  0  0  0  0  0  0  0  0
  -23.6632   17.7335  -23.3711 C   0  0  0  0  0  0  0  0  0  0  0  0
 24 25  2  0  0  0
 25 26  1  0  0  0
 25 18  1  0  0  0
 18 19  2  0  0  0
 19 20  1  0  0  0
 20 21  2  0  0  0
 21 17  1  0  0  0
 17 13  1  0  0  0
 13 14  1  0  0  0
 14 15  2  0  0  0
 14  1  1  0  0  0
  1  2  1  0  0  0
  2  3  1  0  0  0
  3  4  1  0  0  0
  4  5  1  0  0  0
  5  6  1  0  0  0
  6  7  1  0  0  0
  7  8  1  0  0  0
  7 30  1  0  0  0
 30 31  1  0  0  0
 31 32  2  0  0  0
 32 33  1  0  0  0
 33 34  2  0  0  0
 34 35  1  0  0  0
 35 36  2  0  0  0
  7  9  1  0  0  0
  9 10  2  0  0  0
  9 11  1  0  0  0
 21 22  1  0  0  0
 22 23  2  0  0  0
 23 18  1  0  0  0
 11  1  1  0  0  0
 11  4  1  0  0  0
 36 31  1  0  0  0
 24 27  1  0  0  0
 26 28  1  0  0  0
 26 29  1  0  0  0
 13 16  1  0  0  0
  8 12  1  0  0  0
M  END
> <minimizedAffinity>
-7.52068

> <CNNscore>
0.6697113514

> <CNNaffinity>
6.1308021545

> <CNN_VS>
4.1058678627

> <CNNaffinity_variance>
0.0746315718

$$$$
[H]N=C(c1c([H])c([H])c(C([H])([H])N([H])C(=O)C2([H])N3C(=O)[C@](O[H])(C([H])([H])c4c([H])c([H])c([H])c([H])c4[H])C([H])([H])C([H])([H])[C@]3([H])C([H])([H])C2([H])[H])c([H])c1[H])N([H])[H]


 36 39  0  0  0  0  0  0  0  0999 V2000
  -19.3520   17.5994  -19.6540 C   0  0  0  0  0  0  0  0  0  0  0  0
  -18.2483   18.6276  -19.5248 C   0  0  0  0  0  0  0  0  0  0  0  0
  -18.0022   18.9718  -20.9858 C   0  0  0  0  0  0  0  0  0  0  0  0
  -19.4182   19.1242  -21.4922 C   0  0  0  0  0  0  0  0  0  0  0  0
  -19.5227   18.8612  -22.9709 C   0  0  0  0  0  0  0  0  0  0  0  0
  -20.9434   18.8005  -23.4269 C   0  0  0  0  0  0  0  0  0  0  0  0
  -21.9519   18.7360  -22.3143 C   0  0  0  0  0  0  0  0  0  0  0  0
  -22.1766   20.0070  -21.7588 O   0  0  0  0  0  0  0  0  0  0  0  0
  -21.4511   17.7882  -21.2845 C   0  0  0  0  0  0  0  0  0  0  0  0
  -22.0702   16.7916  -20.8680 O   0  0  0  0  0  0  0  0  0  0  0  0
  -20.1497   18.0815  -20.7559 N   0  0  0  0  0  0  0  0  0  0  0  0
  -22.0985   20.6414  -22.5322 H   0  0  0  0  0  0  0  0  0  0  0  0
  -19.2123   15.5678  -21.0873 N   0  0  0  0  0  0  0  0  0  0  0  0
  -18.6702   16.3014  -20.0010 C   0  0  0  0  0  0  0  0  0  0  0  0
  -17.6854   15.8838  -19.3777 O   0  0  0  0  0  0  0  0  0  0  0  0
  -20.0558   15.9120  -21.6295 H   0  0  0  0  0  0  0  0  0  0  0  0
  -18.6688   14.3011  -21.5459 C   0  0  0  0  0  0  0  0  0  0  0  0
  -15.7759   15.1078  -24.5791 C   0  0  0  0  0  0  0  0  0  0  0  0
  -15.5682   14.1482  -23.6280 C   0  0  0  0  0  0  0  0  0  0  0  0
  -16.4842   13.8522  -22.6245 C   0  0  0  0  0  0  0  0  0  0  0  0
  -17.6534   14.5581  -22.5872 C   0  0  0  0  0  0  0  0  0  0  0  0
  -17.8893   15.5271  -23.5289 C   0  0  0  0  0  0  0  0  0  0  0  0
  -16.9739   15.8215  -24.5302 C   0  0  0  0  0  0  0  0  0  0  0  0
  -13.5407   15.2216  -25.5309 N   0  0  0  0  0  0  0  0  0  0  0  0
  -14.8040   15.4032  -25.6215 C   0  0  0  0  0  0  0  0  0  0  0  0
  -15.2571   15.9453  -26.8748 N   0  0  0  0  0  0  0  0  0  0  0  0
  -13.1407   14.8359  -24.6623 H   0  0  0  0  0  0  0  0  0  0  0  0
  -15.8824   15.3929  -27.4985 H   0  0  0  0  0  0  0  0  0  0  0  0
  -14.9463   16.9031  -27.1456 H   0  0  0  0  0  0  0  0  0  0  0  0
  -23.2793   18.2817  -22.8740 C   0  0  0  0  0  0  0  0  0  0  0  0
  -23.3667   18.3943  -24.3282 C   0  0  0  0  0  0  0  0  0  0  0  0
  -23.3760   19.6017  -24.9985 C   0  0  0  0  0  0  0  0  0  0  0  0
  -23.4630   19.6680  -26.3801 C   0  0  0  0  0  0  0  0  0  0  0  0
  -23.5438   18.5130  -27.1265 C   0  0  0  0  0  0  0  0  0  0  0  0
  -23.5362   17.3103  -26.4836 C   0  0  0  0  0  0  0  0  0  0  0  0
  -23.4484   17.2515  -25.0949 C   0  0  0  0  0  0  0  0  0  0  0  0
 24 25  2  0  0  0
 25 26  1  0  0  0
 25 18  1  0  0  0
 18 19  2  0  0  0
 19 20  1  0  0  0
 20 21  2  0  0  0
 21 17  1  0  0  0
 17 13  1  0  0  0
 13 14  1  0  0  0
 14 15  2  0  0  0
 14  1  1  0  0  0
  1  2  1  0  0  0
  2  3  1  0  0  0
  3  4  1  0  0  0
  4  5  1  0  0  0
  5  6  1  0  0  0
  6  7  1  0  0  0
  7  8  1  0  0  0
  7 30  1  0  0  0
 30 31  1  0  0  0
 31 32  2  0  0  0
 32 33  1  0  0  0
 33 34  2  0  0  0
 34 35  1  0  0  0
 35 36  2  0  0  0
  7  9  1  0  0  0
  9 10  2  0  0  0
  9 11  1  0  0  0
 21 22  1  0  0  0
 22 23  2  0  0  0
 23 18  1  0  0  0
 11  1  1  0  0  0
 11  4  1  0  0  0
 36 31  1  0  0  0
 24 27  1  0  0  0
 26 28  1  0  0  0
 26 29  1  0  0  0
 13 16  1  0  0  0
  8 12  1  0  0  0
M  END
> <minimizedAffinity>
-8.51283

> <CNNscore>
0.4306463599

> <CNNaffinity>
6.1743736267

> <CNN_VS>
2.6589715481

> <CNNaffinity_variance>
0.1027350575

$$$$
[H]N=C(c1c([H])c([H])c(C([H])([H])N([H])C(=O)C2([H])N3C(=O)[C@](O[H])(C([H])([H])c4c([H])c([H])c([H])c([H])c4[H])C([H])([H])C([H])([H])[C@]3([H])C([H])([H])C2([H])[H])c([H])c1[H])N([H])[H]


 36 39  0  0  0  0  0  0  0  0999 V2000
  -21.6172   16.4315  -16.7487 C   0  0  0  0  0  0  0  0  0  0  0  0
  -20.9187   17.6634  -16.2134 C   0  0  0  0  0  0  0  0  0  0  0  0
  -19.4919   17.1524  -16.0831 C   0  0  0  0  0  0  0  0  0  0  0  0
  -19.3186   16.4321  -17.4007 C   0  0  0  0  0  0  0  0  0  0  0  0
  -18.2839   15.3416  -17.3186 C   0  0  0  0  0  0  0  0  0  0  0  0
  -18.2674   14.4956  -18.5490 C   0  0  0  0  0  0  0  0  0  0  0  0
  -19.4328   14.7167  -19.4721 C   0  0  0  0  0  0  0  0  0  0  0  0
  -19.2494   15.8701  -20.2535 O   0  0  0  0  0  0  0  0  0  0  0  0
  -20.6662   14.8241  -18.6494 C   0  0  0  0  0  0  0  0  0  0  0  0
  -21.6810   14.1161  -18.7858 O   0  0  0  0  0  0  0  0  0  0  0  0
  -20.6432   15.8348  -17.6309 N   0  0  0  0  0  0  0  0  0  0  0  0
  -18.2623   15.9053  -20.4296 H   0  0  0  0  0  0  0  0  0  0  0  0
  -21.8155   14.1519  -15.7660 N   0  0  0  0  0  0  0  0  0  0  0  0
  -21.8810   15.5529  -15.5535 C   0  0  0  0  0  0  0  0  0  0  0  0
  -22.1434   16.0168  -14.4360 O   0  0  0  0  0  0  0  0  0  0  0  0
  -21.5933   13.7401  -16.7173 H   0  0  0  0  0  0  0  0  0  0  0  0
  -22.0428   13.1735  -14.7166 C   0  0  0  0  0  0  0  0  0  0  0  0
  -19.7253    9.6665  -15.4584 C   0  0  0  0  0  0  0  0  0  0  0  0
  -20.3790   10.3196  -16.4657 C   0  0  0  0  0  0  0  0  0  0  0  0
  -21.1421   11.4652  -16.2684 C   0  0  0  0  0  0  0  0  0  0  0  0
  -21.2440   11.9640  -15.0005 C   0  0  0  0  0  0  0  0  0  0  0  0
  -20.5988   11.3297  -13.9697 C   0  0  0  0  0  0  0  0  0  0  0  0
  -19.8372   10.1861  -14.1683 C   0  0  0  0  0  0  0  0  0  0  0  0
  -17.8729    8.4037  -16.4013 N   0  0  0  0  0  0  0  0  0  0  0  0
  -18.9315    8.4678  -15.6854 C   0  0  0  0  0  0  0  0  0  0  0  0
  -19.3334    7.2296  -15.0729 N   0  0  0  0  0  0  0  0  0  0  0  0
  -17.5225    9.2511  -16.8727 H   0  0  0  0  0  0  0  0  0  0  0  0
  -19.3434    7.1273  -14.0363 H   0  0  0  0  0  0  0  0  0  0  0  0
  -19.6145    6.4365  -15.6888 H   0  0  0  0  0  0  0  0  0  0  0  0
  -19.5231   13.5623  -20.4420 C   0  0  0  0  0  0  0  0  0  0  0  0
  -18.5286   12.5195  -20.1995 C   0  0  0  0  0  0  0  0  0  0  0  0
  -18.4463   11.8065  -19.0197 C   0  0  0  0  0  0  0  0  0  0  0  0
  -17.4862   10.8260  -18.8259 C   0  0  0  0  0  0  0  0  0  0  0  0
  -16.5789   10.5368  -19.8213 C   0  0  0  0  0  0  0  0  0  0  0  0
  -16.6433   11.2298  -20.9941 C   0  0  0  0  0  0  0  0  0  0  0  0
  -17.6109   12.2138  -21.1817 C   0  0  0  0  0  0  0  0  0  0  0  0
 24 25  2  0  0  0
 25 26  1  0  0  0
 25 18  1  0  0  0
 18 19  2  0  0  0
 19 20  1  0  0  0
 20 21  2  0  0  0
 21 17  1  0  0  0
 17 13  1  0  0  0
 13 14  1  0  0  0
 14 15  2  0  0  0
 14  1  1  0  0  0
  1  2  1  0  0  0
  2  3  1  0  0  0
  3  4  1  0  0  0
  4  5  1  0  0  0
  5  6  1  0  0  0
  6  7  1  0  0  0
  7  8  1  0  0  0
  7 30  1  0  0  0
 30 31  1  0  0  0
 31 32  2  0  0  0
 32 33  1  0  0  0
 33 34  2  0  0  0
 34 35  1  0  0  0
 35 36  2  0  0  0
  7  9  1  0  0  0
  9 10  2  0  0  0
  9 11  1  0  0  0
 21 22  1  0  0  0
 22 23  2  0  0  0
 23 18  1  0  0  0
 11  1  1  0  0  0
 11  4  1  0  0  0
 36 31  1  0  0  0
 24 27  1  0  0  0
 26 28  1  0  0  0
 26 29  1  0  0  0
 13 16  1  0  0  0
  8 12  1  0  0  0
M  END
> <minimizedAffinity>
-8.94696

> <CNNscore>
0.4057931304

> <CNNaffinity>
5.6084032059

> <CNN_VS>
2.2758514881

> <CNNaffinity_variance>
0.5211219192

$$$$
[H]N=C(c1c([H])c([H])c(C([H])([H])N([H])C(=O)C2([H])N3C(=O)[C@](O[H])(C([H])([H])c4c([H])c([H])c([H])c([H])c4[H])C([H])([H])C([H])([H])[C@]3([H])C([H])([H])C2([H])[H])c([H])c1[H])N([H])[H]


 36 39  0  0  0  0  0  0  0  0999 V2000
  -18.2089   16.5165  -20.4311 C   0  0  0  0  0  0  0  0  0  0  0  0
  -16.7656   16.9596  -20.5441 C   0  0  0  0  0  0  0  0  0  0  0  0
  -16.7345   17.4798  -21.9731 C   0  0  0  0  0  0  0  0  0  0  0  0
  -18.0074   18.2939  -22.0149 C   0  0  0  0  0  0  0  0  0  0  0  0
  -18.5547   18.4188  -23.4120 C   0  0  0  0  0  0  0  0  0  0  0  0
  -19.9150   19.0344  -23.4243 C   0  0  0  0  0  0  0  0  0  0  0  0
  -20.5607   19.1447  -22.0715 C   0  0  0  0  0  0  0  0  0  0  0  0
  -20.0600   20.2472  -21.3587 O   0  0  0  0  0  0  0  0  0  0  0  0
  -20.3144   17.8788  -21.3320 C   0  0  0  0  0  0  0  0  0  0  0  0
  -21.1991   17.1519  -20.8434 O   0  0  0  0  0  0  0  0  0  0  0  0
  -18.9365   17.5027  -21.1933 N   0  0  0  0  0  0  0  0  0  0  0  0
  -19.8868   20.9460  -22.0574 H   0  0  0  0  0  0  0  0  0  0  0  0
  -17.4568   14.1447  -20.5342 N   0  0  0  0  0  0  0  0  0  0  0  0
  -18.2784   15.1612  -21.0857 C   0  0  0  0  0  0  0  0  0  0  0  0
  -19.0110   14.9320  -22.0570 O   0  0  0  0  0  0  0  0  0  0  0  0
  -16.8235   14.3263  -19.7036 H   0  0  0  0  0  0  0  0  0  0  0  0
  -17.4114   12.7873  -21.0495 C   0  0  0  0  0  0  0  0  0  0  0  0
  -18.3925   10.1076  -17.8753 C   0  0  0  0  0  0  0  0  0  0  0  0
  -17.4496    9.7923  -18.8133 C   0  0  0  0  0  0  0  0  0  0  0  0
  -17.0985   10.6361  -19.8615 C   0  0  0  0  0  0  0  0  0  0  0  0
  -17.7297   11.8439  -19.9586 C   0  0  0  0  0  0  0  0  0  0  0  0
  -18.6802   12.1874  -19.0314 C   0  0  0  0  0  0  0  0  0  0  0  0
  -19.0296   11.3440  -17.9855 C   0  0  0  0  0  0  0  0  0  0  0  0
  -17.9800    8.3191  -16.2795 N   0  0  0  0  0  0  0  0  0  0  0  0
  -18.7464    9.2100  -16.7855 C   0  0  0  0  0  0  0  0  0  0  0  0
  -20.0567    9.2970  -16.1977 N   0  0  0  0  0  0  0  0  0  0  0  0
  -17.0249    8.1970  -16.6486 H   0  0  0  0  0  0  0  0  0  0  0  0
  -20.3591   10.1589  -15.6968 H   0  0  0  0  0  0  0  0  0  0  0  0
  -20.6974    8.4788  -16.2838 H   0  0  0  0  0  0  0  0  0  0  0  0
  -22.0400   19.3946  -22.2469 C   0  0  0  0  0  0  0  0  0  0  0  0
  -22.5260   19.0909  -23.5911 C   0  0  0  0  0  0  0  0  0  0  0  0
  -22.8467   17.8160  -24.0140 C   0  0  0  0  0  0  0  0  0  0  0  0
  -23.3022   17.5671  -25.2990 C   0  0  0  0  0  0  0  0  0  0  0  0
  -23.4470   18.6021  -26.1965 C   0  0  0  0  0  0  0  0  0  0  0  0
  -23.1355   19.8687  -25.7985 C   0  0  0  0  0  0  0  0  0  0  0  0
  -22.6784   20.1112  -24.5055 C   0  0  0  0  0  0  0  0  0  0  0  0
 24 25  2  0  0  0
 25 26  1  0  0  0
 25 18  1  0  0  0
 18 19  2  0  0  0
 19 20  1  0  0  0
 20 21  2  0  0  0
 21 17  1  0  0  0
 17 13  1  0  0  0
 13 14  1  0  0  0
 14 15  2  0  0  0
 14  1  1  0  0  0
  1  2  1  0  0  0
  2  3  1  0  0  0
  3  4  1  0  0  0
  4  5  1  0  0  0
  5  6  1  0  0  0
  6  7  1  0  0  0
  7  8  1  0  0  0
  7 30  1  0  0  0
 30 31  1  0  0  0
 31 32  2  0  0  0
 32 33  1  0  0  0
 33 34  2  0  0  0
 34 35  1  0  0  0
 35 36  2  0  0  0
  7  9  1  0  0  0
  9 10  2  0  0  0
  9 11  1  0  0  0
 21 22  1  0  0  0
 22 23  2  0  0  0
 23 18  1  0  0  0
 11  1  1  0  0  0
 11  4  1  0  0  0
 36 31  1  0  0  0
 24 27  1  0  0  0
 26 28  1  0  0  0
 26 29  1  0  0  0
 13 16  1  0  0  0
  8 12  1  0  0  0
M  END
> <minimizedAffinity>
-9.07800

> <CNNscore>
0.3335159123

> <CNNaffinity>
5.7969827652

> <CNN_VS>
1.9333859682

> <CNNaffinity_variance>
0.3296687007

$$$$
[H]N=C(c1c([H])c([H])c(C([H])([H])N([H])C(=O)C2([H])N3C(=O)[C@](O[H])(C([H])([H])c4c([H])c([H])c([H])c([H])c4[H])C([H])([H])C([H])([H])[C@]3([H])C([H])([H])C2([H])[H])c([H])c1[H])N([H])[H]


 36 39  0  0  0  0  0  0  0  0999 V2000
  -17.3523   16.6761  -23.9779 C   0  0  0  0  0  0  0  0  0  0  0  0
  -16.3726   17.0437  -25.0721 C   0  0  0  0  0  0  0  0  0  0  0  0
  -15.1890   16.1602  -24.7083 C   0  0  0  0  0  0  0  0  0  0  0  0
  -15.8815   14.8469  -24.4245 C   0  0  0  0  0  0  0  0  0  0  0  0
  -15.0906   13.9816  -23.4799 C   0  0  0  0  0  0  0  0  0  0  0  0
  -15.8690   12.7878  -23.0340 C   0  0  0  0  0  0  0  0  0  0  0  0
  -17.3307   12.8326  -23.3810 C   0  0  0  0  0  0  0  0  0  0  0  0
  -17.5443   12.4795  -24.7242 O   0  0  0  0  0  0  0  0  0  0  0  0
  -17.8339   14.2043  -23.1068 C   0  0  0  0  0  0  0  0  0  0  0  0
  -18.7910   14.4791  -22.3597 O   0  0  0  0  0  0  0  0  0  0  0  0
  -17.1341   15.2639  -23.7752 N   0  0  0  0  0  0  0  0  0  0  0  0
  -16.8489   11.7831  -24.9191 H   0  0  0  0  0  0  0  0  0  0  0  0
  -17.9455   18.2495  -22.1410 N   0  0  0  0  0  0  0  0  0  0  0  0
  -16.9381   17.4713  -22.7670 C   0  0  0  0  0  0  0  0  0  0  0  0
  -15.7800   17.4561  -22.3295 O   0  0  0  0  0  0  0  0  0  0  0  0
  -18.9409   18.2736  -22.5049 H   0  0  0  0  0  0  0  0  0  0  0  0
  -17.7068   19.0684  -20.9652 C   0  0  0  0  0  0  0  0  0  0  0  0
  -19.1351   17.0518  -17.4849 C   0  0  0  0  0  0  0  0  0  0  0  0
  -18.3944   16.4049  -18.4343 C   0  0  0  0  0  0  0  0  0  0  0  0
  -17.9082   17.0239  -19.5807 C   0  0  0  0  0  0  0  0  0  0  0  0
  -18.1858   18.3485  -19.7678 C   0  0  0  0  0  0  0  0  0  0  0  0
  -18.9269   19.0235  -18.8317 C   0  0  0  0  0  0  0  0  0  0  0  0
  -19.4116   18.4042  -17.6877 C   0  0  0  0  0  0  0  0  0  0  0  0
  -20.0414   15.1736  -16.2334 N   0  0  0  0  0  0  0  0  0  0  0  0
  -19.6357   16.3856  -16.2915 C   0  0  0  0  0  0  0  0  0  0  0  0
  -19.6963   17.1125  -15.0513 N   0  0  0  0  0  0  0  0  0  0  0  0
  -20.0281   14.5888  -17.0826 H   0  0  0  0  0  0  0  0  0  0  0  0
  -18.8265   17.4588  -14.5944 H   0  0  0  0  0  0  0  0  0  0  0  0
  -20.6295   17.2854  -14.6195 H   0  0  0  0  0  0  0  0  0  0  0  0
  -18.0684   11.8059  -22.5544 C   0  0  0  0  0  0  0  0  0  0  0  0
  -17.4876   11.5993  -21.2296 C   0  0  0  0  0  0  0  0  0  0  0  0
  -17.8579   12.3258  -20.1150 C   0  0  0  0  0  0  0  0  0  0  0  0
  -17.2815   12.1026  -18.8747 C   0  0  0  0  0  0  0  0  0  0  0  0
  -16.3114   11.1364  -18.7241 C   0  0  0  0  0  0  0  0  0  0  0  0
  -15.9315   10.4079  -19.8126 C   0  0  0  0  0  0  0  0  0  0  0  0
  -16.5152   10.6378  -21.0560 C   0  0  0  0  0  0  0  0  0  0  0  0
 24 25  2  0  0  0
 25 26  1  0  0  0
 25 18  1  0  0  0
 18 19  2  0  0  0
 19 20  1  0  0  0
 20 21  2  0  0  0
 21 17  1  0  0  0
 17 13  1  0  0  0
 13 14  1  0  0  0
 14 15  2  0  0  0
 14  1  1  0  0  0
  1  2  1  0  0  0
  2  3  1  0  0  0
  3  4  1  0  0  0
  4  5  1  0  0  0
  5  6  1  0  0  0
  6  7  1  0  0  0
  7  8  1  0  0  0
  7 30  1  0  0  0
 30 31  1  0  0  0
 31 32  2  0  0  0
 32 33  1  0  0  0
 33 34  2  0  0  0
 34 35  1  0  0  0
 35 36  2  0  0  0
  7  9  1  0  0  0
  9 10  2  0  0  0
  9 11  1  0  0  0
 21 22  1  0  0  0
 22 23  2  0  0  0
 23 18  1  0  0  0
 11  1  1  0  0  0
 11  4  1  0  0  0
 36 31  1  0  0  0
 24 27  1  0  0  0
 26 28  1  0  0  0
 26 29  1  0  0  0
 13 16  1  0  0  0
  8 12  1  0  0  0
M  END
> <minimizedAffinity>
-8.47602

> <CNNscore>
0.2788619697

> <CNNaffinity>
6.3459501266

> <CNN_VS>
1.7696441412

> <CNNaffinity_variance>
0.1663120240

$$$$
[H]N=C(c1c([H])c([H])c(C([H])([H])N([H])C(=O)C2([H])N3C(=O)[C@](O[H])(C([H])([H])c4c([H])c([H])c([H])c([H])c4[H])C([H])([H])C([H])([H])[C@]3([H])C([H])([H])C2([H])[H])c([H])c1[H])N([H])[H]


 36 39  0  0  0  0  0  0  0  0999 V2000
  -20.1042   17.5773  -18.8587 C   0  0  0  0  0  0  0  0  0  0  0  0
  -18.7860   18.3214  -18.8339 C   0  0  0  0  0  0  0  0  0  0  0  0
  -18.3499   18.1841  -20.2847 C   0  0  0  0  0  0  0  0  0  0  0  0
  -19.6365   18.5097  -21.0082 C   0  0  0  0  0  0  0  0  0  0  0  0
  -19.6932   17.8804  -22.3747 C   0  0  0  0  0  0  0  0  0  0  0  0
  -21.0429   18.0221  -22.9976 C   0  0  0  0  0  0  0  0  0  0  0  0
  -22.1151   18.4984  -22.0582 C   0  0  0  0  0  0  0  0  0  0  0  0
  -22.0462   19.8896  -21.8732 O   0  0  0  0  0  0  0  0  0  0  0  0
  -21.9546   17.7829  -20.7651 C   0  0  0  0  0  0  0  0  0  0  0  0
  -22.8390   17.1082  -20.2062 O   0  0  0  0  0  0  0  0  0  0  0  0
  -20.6652   17.9057  -20.1472 N   0  0  0  0  0  0  0  0  0  0  0  0
  -21.7492   20.2511  -22.7607 H   0  0  0  0  0  0  0  0  0  0  0  0
  -20.3211   15.2654  -19.7584 N   0  0  0  0  0  0  0  0  0  0  0  0
  -19.7554   16.1141  -18.7725 C   0  0  0  0  0  0  0  0  0  0  0  0
  -19.0138   15.6613  -17.8907 O   0  0  0  0  0  0  0  0  0  0  0  0
  -20.9588   15.6384  -20.5187 H   0  0  0  0  0  0  0  0  0  0  0  0
  -20.0805   13.8339  -19.8132 C   0  0  0  0  0  0  0  0  0  0  0  0
  -16.8474   12.9822  -22.4666 C   0  0  0  0  0  0  0  0  0  0  0  0
  -17.5161   14.1735  -22.5115 C   0  0  0  0  0  0  0  0  0  0  0  0
  -18.5724   14.4922  -21.6651 C   0  0  0  0  0  0  0  0  0  0  0  0
  -18.9624   13.5654  -20.7401 C   0  0  0  0  0  0  0  0  0  0  0  0
  -18.3095   12.3611  -20.6718 C   0  0  0  0  0  0  0  0  0  0  0  0
  -17.2551   12.0443  -21.5174 C   0  0  0  0  0  0  0  0  0  0  0  0
  -15.4694   13.2866  -24.4475 N   0  0  0  0  0  0  0  0  0  0  0  0
  -15.7440   12.6672  -23.3621 C   0  0  0  0  0  0  0  0  0  0  0  0
  -14.8628   11.5768  -23.0388 N   0  0  0  0  0  0  0  0  0  0  0  0
  -16.0565   14.0801  -24.7457 H   0  0  0  0  0  0  0  0  0  0  0  0
  -14.2691   11.6081  -22.1834 H   0  0  0  0  0  0  0  0  0  0  0  0
  -14.8311   10.7543  -23.6790 H   0  0  0  0  0  0  0  0  0  0  0  0
  -23.4685   18.2225  -22.6697 C   0  0  0  0  0  0  0  0  0  0  0  0
  -23.4887   18.3597  -24.1242 C   0  0  0  0  0  0  0  0  0  0  0  0
  -23.5104   19.5786  -24.7731 C   0  0  0  0  0  0  0  0  0  0  0  0
  -23.5321   19.6682  -26.1559 C   0  0  0  0  0  0  0  0  0  0  0  0
  -23.5326   18.5256  -26.9253 C   0  0  0  0  0  0  0  0  0  0  0  0
  -23.5114   17.3119  -26.3038 C   0  0  0  0  0  0  0  0  0  0  0  0
  -23.4896   17.2297  -24.9137 C   0  0  0  0  0  0  0  0  0  0  0  0
 24 25  2  0  0  0
 25 26  1  0  0  0
 25 18  1  0  0  0
 18 19  2  0  0  0
 19 20  1  0  0  0
 20 21  2  0  0  0
 21 17  1  0  0  0
 17 13  1  0  0  0
 13 14  1  0  0  0
 14 15  2  0  0  0
 14  1  1  0  0  0
  1  2  1  0  0  0
  2  3  1  0  0  0
  3  4  1  0  0  0
  4  5  1  0  0  0
  5  6  1  0  0  0
  6  7  1  0  0  0
  7  8  1  0  0  0
  7 30  1  0  0  0
 30 31  1  0  0  0
 31 32  2  0  0  0
 32 33  1  0  0  0
 33 34  2  0  0  0
 34 35  1  0  0  0
 35 36  2  0  0  0
  7  9  1  0  0  0
  9 10  2  0  0  0
  9 11  1  0  0  0
 21 22  1  0  0  0
 22 23  2  0  0  0
 23 18  1  0  0  0
 11  1  1  0  0  0
 11  4  1  0  0  0
 36 31  1  0  0  0
 24 27  1  0  0  0
 26 28  1  0  0  0
 26 29  1  0  0  0
 13 16  1  0  0  0
  8 12  1  0  0  0
M  END
> <minimizedAffinity>
-8.75398

> <CNNscore>
0.2373638600

> <CNNaffinity>
5.9382348061

> <CNN_VS>
1.4095222950

> <CNNaffinity_variance>
0.0582143441

$$$$
[H]N=C(c1c([H])c([H])c(C([H])([H])N([H])C(=O)C2([H])N3C(=O)[C@](O[H])(C([H])([H])c4c([H])c([H])c([H])c([H])c4[H])C([H])([H])C([H])([H])[C@]3([H])C([H])([H])C2([H])[H])c([H])c1[H])N([H])[H]


 36 39  0  0  0  0  0  0  0  0999 V2000
  -19.7606   15.6863  -18.7832 C   0  0  0  0  0  0  0  0  0  0  0  0
  -18.3892   16.1502  -18.3403 C   0  0  0  0  0  0  0  0  0  0  0  0
  -18.0018   17.0544  -19.5004 C   0  0  0  0  0  0  0  0  0  0  0  0
  -19.2778   17.8409  -19.6960 C   0  0  0  0  0  0  0  0  0  0  0  0
  -19.4170   18.3541  -21.1045 C   0  0  0  0  0  0  0  0  0  0  0  0
  -20.7673   18.9414  -21.3524 C   0  0  0  0  0  0  0  0  0  0  0  0
  -21.7759   18.6604  -20.2740 C   0  0  0  0  0  0  0  0  0  0  0  0
  -21.5963   19.5180  -19.1755 O   0  0  0  0  0  0  0  0  0  0  0  0
  -21.6377   17.2380  -19.8646 C   0  0  0  0  0  0  0  0  0  0  0  0
  -22.5566   16.3982  -19.8745 O   0  0  0  0  0  0  0  0  0  0  0  0
  -20.3274   16.8447  -19.4311 N   0  0  0  0  0  0  0  0  0  0  0  0
  -21.2952   20.3871  -19.5762 H   0  0  0  0  0  0  0  0  0  0  0  0
  -18.1734   14.1900  -19.9846 N   0  0  0  0  0  0  0  0  0  0  0  0
  -19.5224   14.5719  -19.7689 C   0  0  0  0  0  0  0  0  0  0  0  0
  -20.4481   14.0090  -20.3679 O   0  0  0  0  0  0  0  0  0  0  0  0
  -17.3702   14.6636  -19.4801 H   0  0  0  0  0  0  0  0  0  0  0  0
  -17.7792   13.1335  -20.9003 C   0  0  0  0  0  0  0  0  0  0  0  0
  -15.3781   14.8703  -23.9724 C   0  0  0  0  0  0  0  0  0  0  0  0
  -15.6325   13.5279  -23.9349 C   0  0  0  0  0  0  0  0  0  0  0  0
  -16.4103   12.9219  -22.9543 C   0  0  0  0  0  0  0  0  0  0  0  0
  -16.9482   13.7102  -21.9766 C   0  0  0  0  0  0  0  0  0  0  0  0
  -16.7099   15.0609  -21.9888 C   0  0  0  0  0  0  0  0  0  0  0  0
  -15.9333   15.6644  -22.9685 C   0  0  0  0  0  0  0  0  0  0  0  0
  -13.5121   14.9701  -25.5291 N   0  0  0  0  0  0  0  0  0  0  0  0
  -14.5605   15.4857  -25.0076 C   0  0  0  0  0  0  0  0  0  0  0  0
  -14.9249   16.7811  -25.5167 N   0  0  0  0  0  0  0  0  0  0  0  0
  -13.1882   14.0429  -25.2153 H   0  0  0  0  0  0  0  0  0  0  0  0
  -15.8226   16.9190  -26.0270 H   0  0  0  0  0  0  0  0  0  0  0  0
  -14.2713   17.5790  -25.3640 H   0  0  0  0  0  0  0  0  0  0  0  0
  -23.1615   18.9427  -20.8051 C   0  0  0  0  0  0  0  0  0  0  0  0
  -23.2309   18.9693  -22.2644 C   0  0  0  0  0  0  0  0  0  0  0  0
  -23.0995   20.1235  -23.0113 C   0  0  0  0  0  0  0  0  0  0  0  0
  -23.1741   20.1089  -24.3950 C   0  0  0  0  0  0  0  0  0  0  0  0
  -23.3847   18.9245  -25.0662 C   0  0  0  0  0  0  0  0  0  0  0  0
  -23.5172   17.7734  -24.3469 C   0  0  0  0  0  0  0  0  0  0  0  0
  -23.4410   17.7957  -22.9565 C   0  0  0  0  0  0  0  0  0  0  0  0
 24 25  2  0  0  0
 25 26  1  0  0  0
 25 18  1  0  0  0
 18 19  2  0  0  0
 19 20  1  0  0  0
 20 21  2  0  0  0
 21 17  1  0  0  0
 17 13  1  0  0  0
 13 14  1  0  0  0
 14 15  2  0  0  0
 14  1  1  0  0  0
  1  2  1  0  0  0
  2  3  1  0  0  0
  3  4  1  0  0  0
  4  5  1  0  0  0
  5  6  1  0  0  0
  6  7  1  0  0  0
  7  8  1  0  0  0
  7 30  1  0  0  0
 30 31  1  0  0  0
 31 32  2  0  0  0
 32 33  1  0  0  0
 33 34  2  0  0  0
 34 35  1  0  0  0
 35 36  2  0  0  0
  7  9  1  0  0  0
  9 10  2  0  0  0
  9 11  1  0  0  0
 21 22  1  0  0  0
 22 23  2  0  0  0
 23 18  1  0  0  0
 11  1  1  0  0  0
 11  4  1  0  0  0
 36 31  1  0  0  0
 24 27  1  0  0  0
 26 28  1  0  0  0
 26 29  1  0  0  0
 13 16  1  0  0  0
  8 12  1  0  0  0
M  END
> <minimizedAffinity>
-7.71084

> <CNNscore>
0.2219010293

> <CNNaffinity>
5.9943542480

> <CNN_VS>
1.3301533461

> <CNNaffinity_variance>
0.0749873593

$$$$
[H]N=C(c1c([H])c([H])c(C([H])([H])N([H])C(=O)C2([H])N3C(=O)[C@](O[H])(C([H])([H])c4c([H])c([H])c([H])c([H])c4[H])C([H])([H])C([H])([H])[C@]3([H])C([H])([H])C2([H])[H])c([H])c1[H])N([H])[H]


 36 39  0  0  0  0  0  0  0  0999 V2000
  -19.3213   12.9550  -20.4292 C   0  0  0  0  0  0  0  0  0  0  0  0
  -20.3520   13.9320  -19.9044 C   0  0  0  0  0  0  0  0  0  0  0  0
  -19.4688   15.1162  -19.5422 C   0  0  0  0  0  0  0  0  0  0  0  0
  -18.5809   15.2020  -20.7625 C   0  0  0  0  0  0  0  0  0  0  0  0
  -17.2549   15.8451  -20.4546 C   0  0  0  0  0  0  0  0  0  0  0  0
  -16.3032   15.7353  -21.6001 C   0  0  0  0  0  0  0  0  0  0  0  0
  -16.7431   14.7949  -22.6869 C   0  0  0  0  0  0  0  0  0  0  0  0
  -17.6950   15.3987  -23.5258 O   0  0  0  0  0  0  0  0  0  0  0  0
  -17.2978   13.5717  -22.0496 C   0  0  0  0  0  0  0  0  0  0  0  0
  -16.9028   12.4109  -22.2650 O   0  0  0  0  0  0  0  0  0  0  0  0
  -18.3699   13.7910  -21.1213 N   0  0  0  0  0  0  0  0  0  0  0  0
  -17.4223   16.3632  -23.5691 H   0  0  0  0  0  0  0  0  0  0  0  0
  -19.5920   11.7118  -18.2885 N   0  0  0  0  0  0  0  0  0  0  0  0
  -18.7019   12.3142  -19.2143 C   0  0  0  0  0  0  0  0  0  0  0  0
  -17.4792   12.3066  -19.0208 O   0  0  0  0  0  0  0  0  0  0  0  0
  -20.6412   11.7115  -18.4400 H   0  0  0  0  0  0  0  0  0  0  0  0
  -19.1522   11.0524  -17.0712 C   0  0  0  0  0  0  0  0  0  0  0  0
  -21.6952   12.3191  -13.8856 C   0  0  0  0  0  0  0  0  0  0  0  0
  -20.7697   11.3281  -13.7126 C   0  0  0  0  0  0  0  0  0  0  0  0
  -19.9209   10.8869  -14.7219 C   0  0  0  0  0  0  0  0  0  0  0  0
  -20.0175   11.4750  -15.9514 C   0  0  0  0  0  0  0  0  0  0  0  0
  -20.9371   12.4722  -16.1543 C   0  0  0  0  0  0  0  0  0  0  0  0
  -21.7838   12.9117  -15.1456 C   0  0  0  0  0  0  0  0  0  0  0  0
  -22.8423   13.9862  -12.5366 N   0  0  0  0  0  0  0  0  0  0  0  0
  -22.5753   12.7666  -12.8161 C   0  0  0  0  0  0  0  0  0  0  0  0
  -23.2204   11.7903  -11.9790 N   0  0  0  0  0  0  0  0  0  0  0  0
  -22.4171   14.7431  -13.0930 H   0  0  0  0  0  0  0  0  0  0  0  0
  -23.9099   11.1192  -12.3785 H   0  0  0  0  0  0  0  0  0  0  0  0
  -22.9833   11.7688  -10.9639 H   0  0  0  0  0  0  0  0  0  0  0  0
  -15.5595   14.4633  -23.5649 C   0  0  0  0  0  0  0  0  0  0  0  0
  -15.8539   14.5457  -24.9937 C   0  0  0  0  0  0  0  0  0  0  0  0
  -16.6834   13.6591  -25.6518 C   0  0  0  0  0  0  0  0  0  0  0  0
  -16.9363   13.7681  -27.0100 C   0  0  0  0  0  0  0  0  0  0  0  0
  -16.3566   14.7789  -27.7448 C   0  0  0  0  0  0  0  0  0  0  0  0
  -15.5341   15.6649  -27.1136 C   0  0  0  0  0  0  0  0  0  0  0  0
  -15.2847   15.5490  -25.7483 C   0  0  0  0  0  0  0  0  0  0  0  0
 24 25  2  0  0  0
 25 26  1  0  0  0
 25 18  1  0  0  0
 18 19  2  0  0  0
 19 20  1  0  0  0
 20 21  2  0  0  0
 21 17  1  0  0  0
 17 13  1  0  0  0
 13 14  1  0  0  0
 14 15  2  0  0  0
 14  1  1  0  0  0
  1  2  1  0  0  0
  2  3  1  0  0  0
  3  4  1  0  0  0
  4  5  1  0  0  0
  5  6  1  0  0  0
  6  7  1  0  0  0
  7  8  1  0  0  0
  7 30  1  0  0  0
 30 31  1  0  0  0
 31 32  2  0  0  0
 32 33  1  0  0  0
 33 34  2  0  0  0
 34 35  1  0  0  0
 35 36  2  0  0  0
  7  9  1  0  0  0
  9 10  2  0  0  0
  9 11  1  0  0  0
 21 22  1  0  0  0
 22 23  2  0  0  0
 23 18  1  0  0  0
 11  1  1  0  0  0
 11  4  1  0  0  0
 36 31  1  0  0  0
 24 27  1  0  0  0
 26 28  1  0  0  0
 26 29  1  0  0  0
 13 16  1  0  0  0
  8 12  1  0  0  0
M  END
> <minimizedAffinity>
-8.35788

> <CNNscore>
0.2193695754

> <CNNaffinity>
5.9943566322

> <CNN_VS>
1.3149794340

> <CNNaffinity_variance>
0.2457908392

$$$$
[H]N=C(c1c([H])c([H])c(C([H])([H])N([H])C(=O)C2([H])N3C(=O)[C@](O[H])(C([H])([H])c4c([H])c([H])c([H])c([H])c4[H])C([H])([H])C([H])([H])[C@]3([H])C([H])([H])C2([H])[H])c([H])c1[H])N([H])[H]


 36 39  0  0  0  0  0  0  0  0999 V2000
  -17.1247   12.2942  -18.9077 C   0  0  0  0  0  0  0  0  0  0  0  0
  -16.5703   10.8854  -18.8999 C   0  0  0  0  0  0  0  0  0  0  0  0
  -17.1719   10.3314  -20.1824 C   0  0  0  0  0  0  0  0  0  0  0  0
  -16.9156   11.4715  -21.1411 C   0  0  0  0  0  0  0  0  0  0  0  0
  -17.9006   11.4870  -22.2797 C   0  0  0  0  0  0  0  0  0  0  0  0
  -17.7825   12.7280  -23.1017 C   0  0  0  0  0  0  0  0  0  0  0  0
  -16.9294   13.8024  -22.4877 C   0  0  0  0  0  0  0  0  0  0  0  0
  -15.5629   13.5366  -22.6790 O   0  0  0  0  0  0  0  0  0  0  0  0
  -17.2555   13.8872  -21.0398 C   0  0  0  0  0  0  0  0  0  0  0  0
  -17.6282   14.9180  -20.4496 O   0  0  0  0  0  0  0  0  0  0  0  0
  -17.1166   12.6637  -20.3028 N   0  0  0  0  0  0  0  0  0  0  0  0
  -15.5115   13.0985  -23.5801 H   0  0  0  0  0  0  0  0  0  0  0  0
  -19.3405   13.3491  -18.4845 N   0  0  0  0  0  0  0  0  0  0  0  0
  -18.5319   12.1883  -18.3797 C   0  0  0  0  0  0  0  0  0  0  0  0
  -18.9735   11.1467  -17.8769 O   0  0  0  0  0  0  0  0  0  0  0  0
  -18.9759   14.2483  -18.9114 H   0  0  0  0  0  0  0  0  0  0  0  0
  -20.7170   13.4076  -18.0242 C   0  0  0  0  0  0  0  0  0  0  0  0
  -22.4720   17.0316  -19.4407 C   0  0  0  0  0  0  0  0  0  0  0  0
  -22.5648   16.6553  -18.1299 C   0  0  0  0  0  0  0  0  0  0  0  0
  -22.0066   15.4852  -17.6267 C   0  0  0  0  0  0  0  0  0  0  0  0
  -21.3299   14.6688  -18.4882 C   0  0  0  0  0  0  0  0  0  0  0  0
  -21.2206   15.0209  -19.8093 C   0  0  0  0  0  0  0  0  0  0  0  0
  -21.7783   16.1893  -20.3102 C   0  0  0  0  0  0  0  0  0  0  0  0
  -22.6320   18.9352  -20.9460 N   0  0  0  0  0  0  0  0  0  0  0  0
  -23.0640   18.2606  -19.9483 C   0  0  0  0  0  0  0  0  0  0  0  0
  -24.2338   18.7976  -19.3055 N   0  0  0  0  0  0  0  0  0  0  0  0
  -21.7970   18.6129  -21.4579 H   0  0  0  0  0  0  0  0  0  0  0  0
  -25.1308   18.2678  -19.3042 H   0  0  0  0  0  0  0  0  0  0  0  0
  -24.1647   19.7285  -18.8408 H   0  0  0  0  0  0  0  0  0  0  0  0
  -17.2040   15.1133  -23.1861 C   0  0  0  0  0  0  0  0  0  0  0  0
  -16.5165   15.2444  -24.4687 C   0  0  0  0  0  0  0  0  0  0  0  0
  -15.3191   15.9145  -24.6249 C   0  0  0  0  0  0  0  0  0  0  0  0
  -14.6984   16.0201  -25.8595 C   0  0  0  0  0  0  0  0  0  0  0  0
  -15.2712   15.4503  -26.9752 C   0  0  0  0  0  0  0  0  0  0  0  0
  -16.4538   14.7841  -26.8422 C   0  0  0  0  0  0  0  0  0  0  0  0
  -17.0717   14.6821  -25.5982 C   0  0  0  0  0  0  0  0  0  0  0  0
 24 25  2  0  0  0
 25 26  1  0  0  0
 25 18  1  0  0  0
 18 19  2  0  0  0
 19 20  1  0  0  0
 20 21  2  0  0  0
 21 17  1  0  0  0
 17 13  1  0  0  0
 13 14  1  0  0  0
 14 15  2  0  0  0
 14  1  1  0  0  0
  1  2  1  0  0  0
  2  3  1  0  0  0
  3  4  1  0  0  0
  4  5  1  0  0  0
  5  6  1  0  0  0
  6  7  1  0  0  0
  7  8  1  0  0  0
  7 30  1  0  0  0
 30 31  1  0  0  0
 31 32  2  0  0  0
 32 33  1  0  0  0
 33 34  2  0  0  0
 34 35  1  0  0  0
 35 36  2  0  0  0
  7  9  1  0  0  0
  9 10  2  0  0  0
  9 11  1  0  0  0
 21 22  1  0  0  0
 22 23  2  0  0  0
 23 18  1  0  0  0
 11  1  1  0  0  0
 11  4  1  0  0  0
 36 31  1  0  0  0
 24 27  1  0  0  0
 26 28  1  0  0  0
 26 29  1  0  0  0
 13 16  1  0  0  0
  8 12  1  0  0  0
M  END
> <minimizedAffinity>
-7.42501

> <CNNscore>
0.2190978825

> <CNNaffinity>
6.2698550224

> <CNN_VS>
1.3737119436

> <CNNaffinity_variance>
0.2172960937

$$$$
[H]c1c(OC([H])([H])[H])c(C([H])([H])N(C([H])([H])[H])C([H])([H])[H])c([H])c(OC([H])([H])[H])c1-c1c([H])n(C([H])([H])[H])c(=O)c2c([H])c([H])c([H])c([H])c12


 26 28  0  0  0  0  0  0  0  0999 V2000
  -17.2247   13.6700  -24.4298 C   0  0  0  0  0  0  0  0  0  0  0  0
  -17.6604   13.0886  -23.2141 C   0  0  0  0  0  0  0  0  0  0  0  0
  -17.6198   13.8233  -21.9387 C   0  0  0  0  0  0  0  0  0  0  0  0
  -17.1432   15.0444  -21.9482 C   0  0  0  0  0  0  0  0  0  0  0  0
  -16.6385   15.6534  -23.1256 C   0  0  0  0  0  0  0  0  0  0  0  0
  -16.7015   14.9744  -24.2385 C   0  0  0  0  0  0  0  0  0  0  0  0
  -18.4770   13.1462  -20.9637 C   0  0  0  0  0  0  0  0  0  0  0  0
  -19.5597   13.8988  -20.3649 C   0  0  0  0  0  0  0  0  0  0  0  0
  -20.0743   13.5761  -19.1276 N   0  0  0  0  0  0  0  0  0  0  0  0
  -21.0816   14.2794  -18.4458 C   0  0  0  0  0  0  0  0  0  0  0  0
  -19.4332   12.5434  -18.6588 C   0  0  0  0  0  0  0  0  0  0  0  0
  -20.0211   12.2724  -17.3860 O   0  0  0  0  0  0  0  0  0  0  0  0
  -18.5117   11.7308  -18.9064 C   0  0  0  0  0  0  0  0  0  0  0  0
  -18.0368   10.6669  -18.1147 C   0  0  0  0  0  0  0  0  0  0  0  0
  -16.9351    9.9839  -18.8830 C   0  0  0  0  0  0  0  0  0  0  0  0
  -16.5192   10.2593  -19.9370 C   0  0  0  0  0  0  0  0  0  0  0  0
  -16.9685   11.3475  -20.7789 C   0  0  0  0  0  0  0  0  0  0  0  0
  -17.9392   12.0472  -20.2467 C   0  0  0  0  0  0  0  0  0  0  0  0
  -17.3278   12.7012  -26.7947 C   0  0  0  0  0  0  0  0  0  0  0  0
  -17.2621   13.2267  -25.6419 O   0  0  0  0  0  0  0  0  0  0  0  0
  -17.1234   15.8643  -20.7883 O   0  0  0  0  0  0  0  0  0  0  0  0
  -16.4026   17.0662  -21.0774 C   0  0  0  0  0  0  0  0  0  0  0  0
  -16.3036   15.5728  -25.5521 C   0  0  0  0  0  0  0  0  0  0  0  0
  -15.0710   15.4723  -26.1258 N   0  0  0  0  0  0  0  0  0  0  0  0
  -15.1757   15.5821  -27.5654 C   0  0  0  0  0  0  0  0  0  0  0  0
  -13.8573   15.0621  -25.6871 C   0  0  0  0  0  0  0  0  0  0  0  0
 19 20  1  0  0  0
 20  1  1  0  0  0
  1  2  2  0  0  0
  2  3  1  0  0  0
  3  7  1  0  0  0
  7  8  2  0  0  0
  8  9  1  0  0  0
  9 10  1  0  0  0
  9 11  1  0  0  0
 11 12  2  0  0  0
 11 13  1  0  0  0
 13 14  2  0  0  0
 14 15  1  0  0  0
 15 16  2  0  0  0
 16 17  1  0  0  0
 17 18  2  0  0  0
  3  4  2  0  0  0
  4 21  1  0  0  0
 21 22  1  0  0  0
  4  5  1  0  0  0
  5  6  2  0  0  0
  6 23  1  0  0  0
 23 24  1  0  0  0
 24 25  1  0  0  0
 24 26  1  0  0  0
  6  1  1  0  0  0
 18  7  1  0  0  0
 18 13  1  0  0  0
M  END
> <minimizedAffinity>
-8.25417

> <CNNscore>
0.6350525618

> <CNNaffinity>
6.5224967003

> <CNN_VS>
4.1421284676

> <CNNaffinity_variance>
0.1337202787

$$$$
[H]c1c(OC([H])([H])[H])c(C([H])([H])N(C([H])([H])[H])C([H])([H])[H])c([H])c(OC([H])([H])[H])c1-c1c([H])n(C([H])([H])[H])c(=O)c2c([H])c([H])c([H])c([H])c12


 26 28  0  0  0  0  0  0  0  0999 V2000
  -20.1294   10.7209  -17.0209 C   0  0  0  0  0  0  0  0  0  0  0  0
  -19.7593   11.8659  -17.7676 C   0  0  0  0  0  0  0  0  0  0  0  0
  -18.4914   11.9354  -18.5131 C   0  0  0  0  0  0  0  0  0  0  0  0
  -17.6864   10.9026  -18.4536 C   0  0  0  0  0  0  0  0  0  0  0  0
  -17.9801    9.7550  -17.6734 C   0  0  0  0  0  0  0  0  0  0  0  0
  -19.1184    9.7262  -17.0354 C   0  0  0  0  0  0  0  0  0  0  0  0
  -18.5603   13.0309  -19.4823 C   0  0  0  0  0  0  0  0  0  0  0  0
  -18.2386   12.7432  -20.8646 C   0  0  0  0  0  0  0  0  0  0  0  0
  -17.7742   13.7170  -21.7224 N   0  0  0  0  0  0  0  0  0  0  0  0
  -17.3850   13.5202  -23.0581 C   0  0  0  0  0  0  0  0  0  0  0  0
  -17.6948   14.8462  -21.0778 C   0  0  0  0  0  0  0  0  0  0  0  0
  -17.2117   15.7969  -22.0274 O   0  0  0  0  0  0  0  0  0  0  0  0
  -17.8749   15.3844  -19.9602 C   0  0  0  0  0  0  0  0  0  0  0  0
  -17.6608   16.7240  -19.5811 C   0  0  0  0  0  0  0  0  0  0  0  0
  -18.0566   16.8562  -18.1331 C   0  0  0  0  0  0  0  0  0  0  0  0
  -18.4625   16.0257  -17.4223 C   0  0  0  0  0  0  0  0  0  0  0  0
  -18.6872   14.6376  -17.7654 C   0  0  0  0  0  0  0  0  0  0  0  0
  -18.3887   14.3568  -19.0092 C   0  0  0  0  0  0  0  0  0  0  0  0
  -22.2498   10.2196  -15.6811 C   0  0  0  0  0  0  0  0  0  0  0  0
  -21.2171   10.4402  -16.3842 O   0  0  0  0  0  0  0  0  0  0  0  0
  -16.4731   10.8381  -19.1895 O   0  0  0  0  0  0  0  0  0  0  0  0
  -16.5983    9.8446  -20.2118 C   0  0  0  0  0  0  0  0  0  0  0  0
  -19.5706    8.5140  -16.2818 C   0  0  0  0  0  0  0  0  0  0  0  0
  -19.3728    8.2903  -14.9517 N   0  0  0  0  0  0  0  0  0  0  0  0
  -19.8784    6.9859  -14.5801 C   0  0  0  0  0  0  0  0  0  0  0  0
  -19.0496    9.0805  -13.9005 C   0  0  0  0  0  0  0  0  0  0  0  0
 19 20  1  0  0  0
 20  1  1  0  0  0
  1  2  2  0  0  0
  2  3  1  0  0  0
  3  7  1  0  0  0
  7  8  2  0  0  0
  8  9  1  0  0  0
  9 10  1  0  0  0
  9 11  1  0  0  0
 11 12  2  0  0  0
 11 13  1  0  0  0
 13 14  2  0  0  0
 14 15  1  0  0  0
 15 16  2  0  0  0
 16 17  1  0  0  0
 17 18  2  0  0  0
  3  4  2  0  0  0
  4 21  1  0  0  0
 21 22  1  0  0  0
  4  5  1  0  0  0
  5  6  2  0  0  0
  6 23  1  0  0  0
 23 24  1  0  0  0
 24 25  1  0  0  0
 24 26  1  0  0  0
  6  1  1  0  0  0
 18  7  1  0  0  0
 18 13  1  0  0  0
M  END
> <minimizedAffinity>
-7.21598

> <CNNscore>
0.5520368814

> <CNNaffinity>
5.9650168419

> <CNN_VS>
3.2929093838

> <CNNaffinity_variance>
0.0800428092

$$$$
[H]c1c(OC([H])([H])[H])c(C([H])([H])N(C([H])([H])[H])C([H])([H])[H])c([H])c(OC([H])([H])[H])c1-c1c([H])n(C([H])([H])[H])c(=O)c2c([H])c([H])c([H])c([H])c12


 26 28  0  0  0  0  0  0  0  0999 V2000
  -17.2090   13.6599  -23.9202 C   0  0  0  0  0  0  0  0  0  0  0  0
  -17.3255   13.2770  -22.5616 C   0  0  0  0  0  0  0  0  0  0  0  0
  -17.0113   14.2023  -21.4602 C   0  0  0  0  0  0  0  0  0  0  0  0
  -16.5934   15.4057  -21.7691 C   0  0  0  0  0  0  0  0  0  0  0  0
  -16.4020   15.8216  -23.1117 C   0  0  0  0  0  0  0  0  0  0  0  0
  -16.7015   14.9769  -24.0604 C   0  0  0  0  0  0  0  0  0  0  0  0
  -17.5903   13.6882  -20.2174 C   0  0  0  0  0  0  0  0  0  0  0  0
  -17.1427   12.3978  -19.7360 C   0  0  0  0  0  0  0  0  0  0  0  0
  -17.9328   11.6069  -18.9298 N   0  0  0  0  0  0  0  0  0  0  0  0
  -17.6067   10.3226  -18.4626 C   0  0  0  0  0  0  0  0  0  0  0  0
  -19.0640   12.2168  -18.7163 C   0  0  0  0  0  0  0  0  0  0  0  0
  -19.8197   11.3412  -17.8788 O   0  0  0  0  0  0  0  0  0  0  0  0
  -19.7141   13.2563  -18.9764 C   0  0  0  0  0  0  0  0  0  0  0  0
  -21.0116   13.6130  -18.5602 C   0  0  0  0  0  0  0  0  0  0  0  0
  -21.3134   14.9759  -19.1277 C   0  0  0  0  0  0  0  0  0  0  0  0
  -20.6287   15.6411  -19.7974 C   0  0  0  0  0  0  0  0  0  0  0  0
  -19.2965   15.3108  -20.2568 C   0  0  0  0  0  0  0  0  0  0  0  0
  -18.8807   14.1405  -19.8412 C   0  0  0  0  0  0  0  0  0  0  0  0
  -17.8817   12.3602  -26.0179 C   0  0  0  0  0  0  0  0  0  0  0  0
  -17.5155   13.0323  -25.0062 O   0  0  0  0  0  0  0  0  0  0  0  0
  -16.3296   16.3970  -20.7865 O   0  0  0  0  0  0  0  0  0  0  0  0
  -16.5537   17.6908  -21.3555 C   0  0  0  0  0  0  0  0  0  0  0  0
  -16.6456   15.3613  -25.5065 C   0  0  0  0  0  0  0  0  0  0  0  0
  -15.5131   15.4345  -26.2619 N   0  0  0  0  0  0  0  0  0  0  0  0
  -15.8367   15.3090  -27.6672 C   0  0  0  0  0  0  0  0  0  0  0  0
  -14.1896   15.3519  -25.9875 C   0  0  0  0  0  0  0  0  0  0  0  0
 19 20  1  0  0  0
 20  1  1  0  0  0
  1  2  2  0  0  0
  2  3  1  0  0  0
  3  7  1  0  0  0
  7  8  2  0  0  0
  8  9  1  0  0  0
  9 10  1  0  0  0
  9 11  1  0  0  0
 11 12  2  0  0  0
 11 13  1  0  0  0
 13 14  2  0  0  0
 14 15  1  0  0  0
 15 16  2  0  0  0
 16 17  1  0  0  0
 17 18  2  0  0  0
  3  4  2  0  0  0
  4 21  1  0  0  0
 21 22  1  0  0  0
  4  5  1  0  0  0
  5  6  2  0  0  0
  6 23  1  0  0  0
 23 24  1  0  0  0
 24 25  1  0  0  0
 24 26  1  0  0  0
  6  1  1  0  0  0
 18  7  1  0  0  0
 18 13  1  0  0  0
M  END
> <minimizedAffinity>
-7.62962

> <CNNscore>
0.4660641253

> <CNNaffinity>
6.2339696884

> <CNN_VS>
2.9054296017

> <CNNaffinity_variance>
0.1092538461

$$$$
[H]c1c(OC([H])([H])[H])c(C([H])([H])N(C([H])([H])[H])C([H])([H])[H])c([H])c(OC([H])([H])[H])c1-c1c([H])n(C([H])([H])[H])c(=O)c2c([H])c([H])c([H])c([H])c12


 26 28  0  0  0  0  0  0  0  0999 V2000
  -18.6262   14.0276  -21.1987 C   0  0  0  0  0  0  0  0  0  0  0  0
  -19.0182   13.2832  -20.0595 C   0  0  0  0  0  0  0  0  0  0  0  0
  -18.3947   11.9940  -19.7170 C   0  0  0  0  0  0  0  0  0  0  0  0
  -17.4646   11.5300  -20.5157 C   0  0  0  0  0  0  0  0  0  0  0  0
  -17.0759   12.2050  -21.7011 C   0  0  0  0  0  0  0  0  0  0  0  0
  -17.6437   13.3502  -21.9651 C   0  0  0  0  0  0  0  0  0  0  0  0
  -18.7002   11.6648  -18.3233 C   0  0  0  0  0  0  0  0  0  0  0  0
  -18.5551   10.2882  -17.8974 C   0  0  0  0  0  0  0  0  0  0  0  0
  -19.2694    9.7748  -16.8363 N   0  0  0  0  0  0  0  0  0  0  0  0
  -19.2361    8.4433  -16.3887 C   0  0  0  0  0  0  0  0  0  0  0  0
  -20.0322   10.7107  -16.3471 C   0  0  0  0  0  0  0  0  0  0  0  0
  -20.7326   10.1053  -15.2598 O   0  0  0  0  0  0  0  0  0  0  0  0
  -20.3710   11.9096  -16.4833 C   0  0  0  0  0  0  0  0  0  0  0  0
  -21.3013   12.6546  -15.7326 C   0  0  0  0  0  0  0  0  0  0  0  0
  -21.3185   14.0549  -16.2889 C   0  0  0  0  0  0  0  0  0  0  0  0
  -20.6970   14.4800  -17.1793 C   0  0  0  0  0  0  0  0  0  0  0  0
  -19.7403   13.7500  -17.9834 C   0  0  0  0  0  0  0  0  0  0  0  0
  -19.6063   12.4989  -17.6201 C   0  0  0  0  0  0  0  0  0  0  0  0
  -19.3671   16.3671  -21.9200 C   0  0  0  0  0  0  0  0  0  0  0  0
  -18.9855   15.1974  -21.6107 O   0  0  0  0  0  0  0  0  0  0  0  0
  -16.7517   10.3324  -20.2414 O   0  0  0  0  0  0  0  0  0  0  0  0
  -15.6217   10.2500  -21.1155 C   0  0  0  0  0  0  0  0  0  0  0  0
  -17.2184   14.1930  -23.1273 C   0  0  0  0  0  0  0  0  0  0  0  0
  -17.0111   13.7422  -24.3971 N   0  0  0  0  0  0  0  0  0  0  0  0
  -15.6416   13.9827  -24.7991 C   0  0  0  0  0  0  0  0  0  0  0  0
  -17.8283   13.3638  -25.4085 C   0  0  0  0  0  0  0  0  0  0  0  0
 19 20  1  0  0  0
 20  1  1  0  0  0
  1  2  2  0  0  0
  2  3  1  0  0  0
  3  7  1  0  0  0
  7  8  2  0  0  0
  8  9  1  0  0  0
  9 10  1  0  0  0
  9 11  1  0  0  0
 11 12  2  0  0  0
 11 13  1  0  0  0
 13 14  2  0  0  0
 14 15  1  0  0  0
 15 16  2  0  0  0
 16 17  1  0  0  0
 17 18  2  0  0  0
  3  4  2  0  0  0
  4 21  1  0  0  0
 21 22  1  0  0  0
  4  5  1  0  0  0
  5  6  2  0  0  0
  6 23  1  0  0  0
 23 24  1  0  0  0
 24 25  1  0  0  0
 24 26  1  0  0  0
  6  1  1  0  0  0
 18  7  1  0  0  0
 18 13  1  0  0  0
M  END
> <minimizedAffinity>
-7.65109

> <CNNscore>
0.4230724275

> <CNNaffinity>
6.1008329391

> <CNN_VS>
2.5810942650

> <CNNaffinity_variance>
0.0679761469

$$$$
[H]c1c(OC([H])([H])[H])c(C([H])([H])N(C([H])([H])[H])C([H])([H])[H])c([H])c(OC([H])([H])[H])c1-c1c([H])n(C([H])([H])[H])c(=O)c2c([H])c([H])c([H])c([H])c12


 26 28  0  0  0  0  0  0  0  0999 V2000
  -19.6407   13.0576  -18.0696 C   0  0  0  0  0  0  0  0  0  0  0  0
  -19.0765   13.7531  -19.1668 C   0  0  0  0  0  0  0  0  0  0  0  0
  -17.9924   13.1789  -19.9810 C   0  0  0  0  0  0  0  0  0  0  0  0
  -17.5367   11.9952  -19.6502 C   0  0  0  0  0  0  0  0  0  0  0  0
  -18.0241   11.2809  -18.5259 C   0  0  0  0  0  0  0  0  0  0  0  0
  -18.9927   11.8178  -17.8352 C   0  0  0  0  0  0  0  0  0  0  0  0
  -17.8930   13.9162  -21.2422 C   0  0  0  0  0  0  0  0  0  0  0  0
  -17.8828   13.1608  -22.4777 C   0  0  0  0  0  0  0  0  0  0  0  0
  -17.2966   13.6494  -23.6255 N   0  0  0  0  0  0  0  0  0  0  0  0
  -17.1894   12.9679  -24.8495 C   0  0  0  0  0  0  0  0  0  0  0  0
  -16.8000   14.8281  -23.3785 C   0  0  0  0  0  0  0  0  0  0  0  0
  -16.2168   15.2638  -24.6069 O   0  0  0  0  0  0  0  0  0  0  0  0
  -16.6453   15.6895  -22.4812 C   0  0  0  0  0  0  0  0  0  0  0  0
  -16.0018   16.9401  -22.5600 C   0  0  0  0  0  0  0  0  0  0  0  0
  -16.1165   17.5971  -21.2088 C   0  0  0  0  0  0  0  0  0  0  0  0
  -16.6289   17.1776  -20.2490 C   0  0  0  0  0  0  0  0  0  0  0  0
  -17.2907   15.8969  -20.1200 C   0  0  0  0  0  0  0  0  0  0  0  0
  -17.2793   15.1945  -21.2253 C   0  0  0  0  0  0  0  0  0  0  0  0
  -21.5753   13.7307  -16.5378 C   0  0  0  0  0  0  0  0  0  0  0  0
  -20.6376   13.3507  -17.3032 O   0  0  0  0  0  0  0  0  0  0  0  0
  -16.5422   11.3216  -20.4087 O   0  0  0  0  0  0  0  0  0  0  0  0
  -16.7450    9.9095  -20.2965 C   0  0  0  0  0  0  0  0  0  0  0  0
  -19.6530   11.0916  -16.7045 C   0  0  0  0  0  0  0  0  0  0  0  0
  -19.4651    9.7782  -16.3912 N   0  0  0  0  0  0  0  0  0  0  0  0
  -20.0758    9.4730  -15.1149 C   0  0  0  0  0  0  0  0  0  0  0  0
  -18.6574    8.8014  -16.8679 C   0  0  0  0  0  0  0  0  0  0  0  0
 19 20  1  0  0  0
 20  1  1  0  0  0
  1  2  2  0  0  0
  2  3  1  0  0  0
  3  7  1  0  0  0
  7  8  2  0  0  0
  8  9  1  0  0  0
  9 10  1  0  0  0
  9 11  1  0  0  0
 11 12  2  0  0  0
 11 13  1  0  0  0
 13 14  2  0  0  0
 14 15  1  0  0  0
 15 16  2  0  0  0
 16 17  1  0  0  0
 17 18  2  0  0  0
  3  4  2  0  0  0
  4 21  1  0  0  0
 21 22  1  0  0  0
  4  5  1  0  0  0
  5  6  2  0  0  0
  6 23  1  0  0  0
 23 24  1  0  0  0
 24 25  1  0  0  0
 24 26  1  0  0  0
  6  1  1  0  0  0
 18  7  1  0  0  0
 18 13  1  0  0  0
M  END
> <minimizedAffinity>
-7.49252

> <CNNscore>
0.4230460227

> <CNNaffinity>
6.1133279800

> <CNN_VS>
2.5862190723

> <CNNaffinity_variance>
0.0966644287

$$$$
[H]c1c(OC([H])([H])[H])c(C([H])([H])N(C([H])([H])[H])C([H])([H])[H])c([H])c(OC([H])([H])[H])c1-c1c([H])n(C([H])([H])[H])c(=O)c2c([H])c([H])c([H])c([H])c12


 26 28  0  0  0  0  0  0  0  0999 V2000
  -19.4960   11.1300  -17.2337 C   0  0  0  0  0  0  0  0  0  0  0  0
  -19.0220   11.6235  -18.4737 C   0  0  0  0  0  0  0  0  0  0  0  0
  -19.0168   13.0612  -18.7911 C   0  0  0  0  0  0  0  0  0  0  0  0
  -19.4884   13.8905  -17.8921 C   0  0  0  0  0  0  0  0  0  0  0  0
  -20.0299   13.4457  -16.6589 C   0  0  0  0  0  0  0  0  0  0  0  0
  -20.0071   12.1649  -16.4093 C   0  0  0  0  0  0  0  0  0  0  0  0
  -18.1301   13.3009  -19.9314 C   0  0  0  0  0  0  0  0  0  0  0  0
  -18.5361   14.2772  -20.9210 C   0  0  0  0  0  0  0  0  0  0  0  0
  -18.0933   14.2203  -22.2250 N   0  0  0  0  0  0  0  0  0  0  0  0
  -18.4759   15.0866  -23.2630 C   0  0  0  0  0  0  0  0  0  0  0  0
  -17.3042   13.1925  -22.3597 C   0  0  0  0  0  0  0  0  0  0  0  0
  -16.8896   13.2037  -23.7261 O   0  0  0  0  0  0  0  0  0  0  0  0
  -16.7981   12.2226  -21.7481 C   0  0  0  0  0  0  0  0  0  0  0  0
  -15.9347   11.2235  -22.2385 C   0  0  0  0  0  0  0  0  0  0  0  0
  -15.5983   10.3083  -21.0896 C   0  0  0  0  0  0  0  0  0  0  0  0
  -15.9693   10.3770  -19.9862 C   0  0  0  0  0  0  0  0  0  0  0  0
  -16.8628   11.3773  -19.4424 C   0  0  0  0  0  0  0  0  0  0  0  0
  -17.2507   12.2613  -20.3275 C   0  0  0  0  0  0  0  0  0  0  0  0
  -19.5031    8.7268  -16.3579 C   0  0  0  0  0  0  0  0  0  0  0  0
  -19.5010    9.9354  -16.7437 O   0  0  0  0  0  0  0  0  0  0  0  0
  -19.4659   15.2999  -18.0685 O   0  0  0  0  0  0  0  0  0  0  0  0
  -18.3933   15.8505  -17.2977 C   0  0  0  0  0  0  0  0  0  0  0  0
  -20.4465   11.6096  -15.0900 C   0  0  0  0  0  0  0  0  0  0  0  0
  -21.6887   11.7513  -14.5466 N   0  0  0  0  0  0  0  0  0  0  0  0
  -22.5742   10.7175  -15.0388 C   0  0  0  0  0  0  0  0  0  0  0  0
  -22.3157   12.7453  -13.8738 C   0  0  0  0  0  0  0  0  0  0  0  0
 19 20  1  0  0  0
 20  1  1  0  0  0
  1  2  2  0  0  0
  2  3  1  0  0  0
  3  7  1  0  0  0
  7  8  2  0  0  0
  8  9  1  0  0  0
  9 10  1  0  0  0
  9 11  1  0  0  0
 11 12  2  0  0  0
 11 13  1  0  0  0
 13 14  2  0  0  0
 14 15  1  0  0  0
 15 16  2  0  0  0
 16 17  1  0  0  0
 17 18  2  0  0  0
  3  4  2  0  0  0
  4 21  1  0  0  0
 21 22  1  0  0  0
  4  5  1  0  0  0
  5  6  2  0  0  0
  6 23  1  0  0  0
 23 24  1  0  0  0
 24 25  1  0  0  0
 24 26  1  0  0  0
  6  1  1  0  0  0
 18  7  1  0  0  0
 18 13  1  0  0  0
M  END
> <minimizedAffinity>
-7.37493

> <CNNscore>
0.3980780840

> <CNNaffinity>
5.7739992142

> <CNN_VS>
2.2985024452

> <CNNaffinity_variance>
0.3968891501

$$$$
[H]c1c(OC([H])([H])[H])c(C([H])([H])N(C([H])([H])[H])C([H])([H])[H])c([H])c(OC([H])([H])[H])c1-c1c([H])n(C([H])([H])[H])c(=O)c2c([H])c([H])c([H])c([H])c12


 26 28  0  0  0  0  0  0  0  0999 V2000
  -21.4715   15.3426  -16.9487 C   0  0  0  0  0  0  0  0  0  0  0  0
  -20.9613   14.5529  -18.0078 C   0  0  0  0  0  0  0  0  0  0  0  0
  -19.6078   14.7558  -18.5509 C   0  0  0  0  0  0  0  0  0  0  0  0
  -18.8773   15.7155  -18.0374 C   0  0  0  0  0  0  0  0  0  0  0  0
  -19.3604   16.5741  -17.0169 C   0  0  0  0  0  0  0  0  0  0  0  0
  -20.5610   16.3560  -16.5539 C   0  0  0  0  0  0  0  0  0  0  0  0
  -19.2175   13.5777  -19.3281 C   0  0  0  0  0  0  0  0  0  0  0  0
  -18.8407   12.3779  -18.6099 C   0  0  0  0  0  0  0  0  0  0  0  0
  -17.9985   11.4348  -19.1584 N   0  0  0  0  0  0  0  0  0  0  0  0
  -17.5353   10.2729  -18.5182 C   0  0  0  0  0  0  0  0  0  0  0  0
  -17.6481   11.8228  -20.3516 C   0  0  0  0  0  0  0  0  0  0  0  0
  -16.7846   10.8003  -20.8494 O   0  0  0  0  0  0  0  0  0  0  0  0
  -17.7822   12.7420  -21.1931 C   0  0  0  0  0  0  0  0  0  0  0  0
  -17.2081   12.8561  -22.4743 C   0  0  0  0  0  0  0  0  0  0  0  0
  -17.7108   14.1382  -23.0861 C   0  0  0  0  0  0  0  0  0  0  0  0
  -18.4359   14.9208  -22.6154 C   0  0  0  0  0  0  0  0  0  0  0  0
  -19.0394   14.8497  -21.3018 C   0  0  0  0  0  0  0  0  0  0  0  0
  -18.6987   13.7766  -20.6328 C   0  0  0  0  0  0  0  0  0  0  0  0
  -23.7153   15.2104  -15.7280 C   0  0  0  0  0  0  0  0  0  0  0  0
  -22.5790   15.2622  -16.2898 O   0  0  0  0  0  0  0  0  0  0  0  0
  -17.5355   15.9511  -18.4397 O   0  0  0  0  0  0  0  0  0  0  0  0
  -17.4991   17.0937  -19.3005 C   0  0  0  0  0  0  0  0  0  0  0  0
  -21.1147   17.1313  -15.3989 C   0  0  0  0  0  0  0  0  0  0  0  0
  -21.6162   18.3973  -15.4640 N   0  0  0  0  0  0  0  0  0  0  0  0
  -20.5943   19.3617  -15.1161 C   0  0  0  0  0  0  0  0  0  0  0  0
  -22.8658   18.9140  -15.5356 C   0  0  0  0  0  0  0  0  0  0  0  0
 19 20  1  0  0  0
 20  1  1  0  0  0
  1  2  2  0  0  0
  2  3  1  0  0  0
  3  7  1  0  0  0
  7  8  2  0  0  0
  8  9  1  0  0  0
  9 10  1  0  0  0
  9 11  1  0  0  0
 11 12  2  0  0  0
 11 13  1  0  0  0
 13 14  2  0  0  0
 14 15  1  0  0  0
 15 16  2  0  0  0
 16 17  1  0  0  0
 17 18  2  0  0  0
  3  4  2  0  0  0
  4 21  1  0  0  0
 21 22  1  0  0  0
  4  5  1  0  0  0
  5  6  2  0  0  0
  6 23  1  0  0  0
 23 24  1  0  0  0
 24 25  1  0  0  0
 24 26  1  0  0  0
  6  1  1  0  0  0
 18  7  1  0  0  0
 18 13  1  0  0  0
M  END
> <minimizedAffinity>
-6.15142

> <CNNscore>
0.3922022283

> <CNNaffinity>
5.7779407501

> <CNN_VS>
2.2661211491

> <CNNaffinity_variance>
0.1096121445

$$$$
[H]c1c(OC([H])([H])[H])c(C([H])([H])N(C([H])([H])[H])C([H])([H])[H])c([H])c(OC([H])([H])[H])c1-c1c([H])n(C([H])([H])[H])c(=O)c2c([H])c([H])c([H])c([H])c12


 26 28  0  0  0  0  0  0  0  0999 V2000
  -19.0206   11.7720  -18.1913 C   0  0  0  0  0  0  0  0  0  0  0  0
  -18.3159   12.5176  -19.1676 C   0  0  0  0  0  0  0  0  0  0  0  0
  -18.7099   13.8868  -19.5388 C   0  0  0  0  0  0  0  0  0  0  0  0
  -19.7603   14.4047  -18.9499 C   0  0  0  0  0  0  0  0  0  0  0  0
  -20.5373   13.6811  -18.0094 C   0  0  0  0  0  0  0  0  0  0  0  0
  -20.1501   12.4742  -17.6982 C   0  0  0  0  0  0  0  0  0  0  0  0
  -17.6025   14.5334  -20.2455 C   0  0  0  0  0  0  0  0  0  0  0  0
  -17.2487   15.8869  -19.8712 C   0  0  0  0  0  0  0  0  0  0  0  0
  -16.6272   16.7472  -20.7505 N   0  0  0  0  0  0  0  0  0  0  0  0
  -16.2981   18.0892  -20.4956 C   0  0  0  0  0  0  0  0  0  0  0  0
  -16.4455   16.1341  -21.8855 C   0  0  0  0  0  0  0  0  0  0  0  0
  -15.8006   17.0833  -22.7353 O   0  0  0  0  0  0  0  0  0  0  0  0
  -16.6316   15.0507  -22.4876 C   0  0  0  0  0  0  0  0  0  0  0  0
  -16.2974   14.7087  -23.8125 C   0  0  0  0  0  0  0  0  0  0  0  0
  -16.7133   13.2770  -24.0321 C   0  0  0  0  0  0  0  0  0  0  0  0
  -17.2258   12.5552  -23.2731 C   0  0  0  0  0  0  0  0  0  0  0  0
  -17.5960   12.8666  -21.9090 C   0  0  0  0  0  0  0  0  0  0  0  0
  -17.2950   14.0919  -21.5576 C   0  0  0  0  0  0  0  0  0  0  0  0
  -18.5466    9.4357  -17.2642 C   0  0  0  0  0  0  0  0  0  0  0  0
  -18.7819   10.6124  -17.6759 O   0  0  0  0  0  0  0  0  0  0  0  0
  -20.1844   15.7402  -19.1834 O   0  0  0  0  0  0  0  0  0  0  0  0
  -21.2340   15.7344  -20.1561 C   0  0  0  0  0  0  0  0  0  0  0  0
  -20.8339   11.6758  -16.6320 C   0  0  0  0  0  0  0  0  0  0  0  0
  -21.0072   12.0691  -15.3382 N   0  0  0  0  0  0  0  0  0  0  0  0
  -20.1006   11.3504  -14.4682 C   0  0  0  0  0  0  0  0  0  0  0  0
  -21.9660   12.7680  -14.6855 C   0  0  0  0  0  0  0  0  0  0  0  0
 19 20  1  0  0  0
 20  1  1  0  0  0
  1  2  2  0  0  0
  2  3  1  0  0  0
  3  7  1  0  0  0
  7  8  2  0  0  0
  8  9  1  0  0  0
  9 10  1  0  0  0
  9 11  1  0  0  0
 11 12  2  0  0  0
 11 13  1  0  0  0
 13 14  2  0  0  0
 14 15  1  0  0  0
 15 16  2  0  0  0
 16 17  1  0  0  0
 17 18  2  0  0  0
  3  4  2  0  0  0
  4 21  1  0  0  0
 21 22  1  0  0  0
  4  5  1  0  0  0
  5  6  2  0  0  0
  6 23  1  0  0  0
 23 24  1  0  0  0
 24 25  1  0  0  0
 24 26  1  0  0  0
  6  1  1  0  0  0
 18  7  1  0  0  0
 18 13  1  0  0  0
M  END
> <minimizedAffinity>
-7.19836

> <CNNscore>
0.3246127367

> <CNNaffinity>
5.7920460701

> <CNN_VS>
1.8801718950

> <CNNaffinity_variance>
0.1375336349

$$$$
[H]c1c(OC([H])([H])[H])c(C([H])([H])N(C([H])([H])[H])C([H])([H])[H])c([H])c(OC([H])([H])[H])c1-c1c([H])n(C([H])([H])[H])c(=O)c2c([H])c([H])c([H])c([H])c12


 26 28  0  0  0  0  0  0  0  0999 V2000
  -21.0796   11.2673  -16.3316 C   0  0  0  0  0  0  0  0  0  0  0  0
  -20.5795   11.4930  -17.6373 C   0  0  0  0  0  0  0  0  0  0  0  0
  -19.5182   12.4773  -17.9074 C   0  0  0  0  0  0  0  0  0  0  0  0
  -19.0505   13.1692  -16.8970 C   0  0  0  0  0  0  0  0  0  0  0  0
  -19.5564   13.0259  -15.5797 C   0  0  0  0  0  0  0  0  0  0  0  0
  -20.4894   12.1358  -15.3780 C   0  0  0  0  0  0  0  0  0  0  0  0
  -18.9404   12.2147  -19.2269 C   0  0  0  0  0  0  0  0  0  0  0  0
  -17.9710   11.1458  -19.3493 C   0  0  0  0  0  0  0  0  0  0  0  0
  -17.0171   11.1378  -20.3441 N   0  0  0  0  0  0  0  0  0  0  0  0
  -16.0054   10.1764  -20.5071 C   0  0  0  0  0  0  0  0  0  0  0  0
  -17.1642   12.2025  -21.0803 C   0  0  0  0  0  0  0  0  0  0  0  0
  -16.1485   12.1204  -22.0807 O   0  0  0  0  0  0  0  0  0  0  0  0
  -17.8461   13.2445  -21.2217 C   0  0  0  0  0  0  0  0  0  0  0  0
  -17.7159   14.2599  -22.1892 C   0  0  0  0  0  0  0  0  0  0  0  0
  -18.7997   15.2750  -21.9328 C   0  0  0  0  0  0  0  0  0  0  0  0
  -19.6105   15.2615  -21.0949 C   0  0  0  0  0  0  0  0  0  0  0  0
  -19.7743   14.2467  -20.0760 C   0  0  0  0  0  0  0  0  0  0  0  0
  -18.8970   13.2783  -20.1639 C   0  0  0  0  0  0  0  0  0  0  0  0
  -22.8281    9.5829  -15.5268 C   0  0  0  0  0  0  0  0  0  0  0  0
  -21.9299   10.4028  -15.8881 O   0  0  0  0  0  0  0  0  0  0  0  0
  -17.9803   14.0929  -17.0357 O   0  0  0  0  0  0  0  0  0  0  0  0
  -18.5041   15.4241  -17.0010 C   0  0  0  0  0  0  0  0  0  0  0  0
  -21.0041   11.8283  -14.0060 C   0  0  0  0  0  0  0  0  0  0  0  0
  -20.4121   10.9894  -13.1090 N   0  0  0  0  0  0  0  0  0  0  0  0
  -20.8631   11.2890  -11.7666 C   0  0  0  0  0  0  0  0  0  0  0  0
  -19.3567   10.1428  -13.1642 C   0  0  0  0  0  0  0  0  0  0  0  0
 19 20  1  0  0  0
 20  1  1  0  0  0
  1  2  2  0  0  0
  2  3  1  0  0  0
  3  7  1  0  0  0
  7  8  2  0  0  0
  8  9  1  0  0  0
  9 10  1  0  0  0
  9 11  1  0  0  0
 11 12  2  0  0  0
 11 13  1  0  0  0
 13 14  2  0  0  0
 14 15  1  0  0  0
 15 16  2  0  0  0
 16 17  1  0  0  0
 17 18  2  0  0  0
  3  4  2  0  0  0
  4 21  1  0  0  0
 21 22  1  0  0  0
  4  5  1  0  0  0
  5  6  2  0  0  0
  6 23  1  0  0  0
 23 24  1  0  0  0
 24 25  1  0  0  0
 24 26  1  0  0  0
  6  1  1  0  0  0
 18  7  1  0  0  0
 18 13  1  0  0  0
M  END
> <minimizedAffinity>
-6.21541

> <CNNscore>
0.3192337751

> <CNNaffinity>
5.7087454796

> <CNN_VS>
1.8224244118

> <CNNaffinity_variance>
0.1263245940

$$$$
[H]c1nc([H])c(N([H])C(=O)c2nn(-c3c([H])c([H])c([H])c([H])c3Cl)c(-c3c([H])c([H])c(Cl)c([H])c3[H])c2C([H])([H])C(=O)N([H])[H])c(C([H])([H])[H])c1[H]


 36 39  0  0  0  0  0  0  0  0999 V2000
  -17.4898   12.6184  -19.7324 C   0  0  0  0  0  0  0  0  0  0  0  0
  -17.5986   13.9448  -19.5608 N   0  0  0  0  0  0  0  0  0  0  0  0
  -17.4592   14.5969  -20.7218 N   0  0  0  0  0  0  0  0  0  0  0  0
  -17.2474   13.6917  -21.7275 C   0  0  0  0  0  0  0  0  0  0  0  0
  -17.2714   12.4632  -21.1011 C   0  0  0  0  0  0  0  0  0  0  0  0
  -17.5067   16.0077  -20.7566 C   0  0  0  0  0  0  0  0  0  0  0  0
  -16.3504   16.7407  -20.6256 C   0  0  0  0  0  0  0  0  0  0  0  0
  -16.3788   18.1405  -20.6302 C   0  0  0  0  0  0  0  0  0  0  0  0
  -17.5782   18.8181  -20.7675 C   0  0  0  0  0  0  0  0  0  0  0  0
  -18.7300   18.0821  -20.8980 C   0  0  0  0  0  0  0  0  0  0  0  0
  -18.7022   16.7069  -20.8934 C   0  0  0  0  0  0  0  0  0  0  0  0
  -20.1613   15.7566  -21.0589 Cl  0  0  0  0  0  0  0  0  0  0  0  0
  -16.9058   14.0332  -23.0994 C   0  0  0  0  0  0  0  0  0  0  0  0
  -17.7996   14.1105  -24.1372 C   0  0  0  0  0  0  0  0  0  0  0  0
  -17.4871   14.5433  -25.4196 C   0  0  0  0  0  0  0  0  0  0  0  0
  -16.1999   14.9255  -25.6996 C   0  0  0  0  0  0  0  0  0  0  0  0
  -15.8326   15.4659  -27.3204 Cl  0  0  0  0  0  0  0  0  0  0  0  0
  -15.2697   14.8686  -24.7099 C   0  0  0  0  0  0  0  0  0  0  0  0
  -15.6034   14.4313  -23.4236 C   0  0  0  0  0  0  0  0  0  0  0  0
  -18.8636   11.1565  -18.3010 N   0  0  0  0  0  0  0  0  0  0  0  0
  -17.5802   11.5962  -18.6864 C   0  0  0  0  0  0  0  0  0  0  0  0
  -16.5624   11.1422  -18.1676 O   0  0  0  0  0  0  0  0  0  0  0  0
  -19.6710   11.6316  -18.8324 H   0  0  0  0  0  0  0  0  0  0  0  0
  -20.8016   11.8800  -16.4471 C   0  0  0  0  0  0  0  0  0  0  0  0
  -20.1950   10.5378  -16.3928 C   0  0  0  0  0  0  0  0  0  0  0  0
  -20.5969    9.6453  -15.4193 C   0  0  0  0  0  0  0  0  0  0  0  0
  -20.0535    8.3879  -15.3325 C   0  0  0  0  0  0  0  0  0  0  0  0
  -19.1200    8.0727  -16.2339 N   0  0  0  0  0  0  0  0  0  0  0  0
  -18.6990    8.9355  -17.2128 C   0  0  0  0  0  0  0  0  0  0  0  0
  -19.2117   10.1991  -17.3387 C   0  0  0  0  0  0  0  0  0  0  0  0
  -17.1843   11.1068  -21.7267 C   0  0  0  0  0  0  0  0  0  0  0  0
  -15.7261   10.7037  -21.6613 C   0  0  0  0  0  0  0  0  0  0  0  0
  -14.8806   11.1647  -22.6849 N   0  0  0  0  0  0  0  0  0  0  0  0
  -15.2929    9.9964  -20.7443 O   0  0  0  0  0  0  0  0  0  0  0  0
  -15.0678   11.0059  -23.7170 H   0  0  0  0  0  0  0  0  0  0  0  0
  -13.9859   11.7098  -22.5018 H   0  0  0  0  0  0  0  0  0  0  0  0
 24 25  1  0  0  0
 25 26  2  0  0  0
 26 27  1  0  0  0
 27 28  2  0  0  0
 28 29  1  0  0  0
 29 30  2  0  0  0
 30 20  1  0  0  0
 20 21  1  0  0  0
 21 22  2  0  0  0
 21  1  1  0  0  0
  1  2  2  0  0  0
  2  3  1  0  0  0
  3  6  1  0  0  0
  6  7  2  0  0  0
  7  8  1  0  0  0
  8  9  2  0  0  0
  9 10  1  0  0  0
 10 11  2  0  0  0
 11 12  1  0  0  0
  3  4  1  0  0  0
  4 13  1  0  0  0
 13 14  2  0  0  0
 14 15  1  0  0  0
 15 16  2  0  0  0
 16 17  1  0  0  0
 16 18  1  0  0  0
 18 19  2  0  0  0
  4  5  2  0  0  0
  5 31  1  0  0  0
 31 32  1  0  0  0
 32 33  1  0  0  0
 32 34  2  0  0  0
 30 25  1  0  0  0
  5  1  1  0  0  0
 11  6  1  0  0  0
 19 13  1  0  0  0
 20 23  1  0  0  0
 33 35  1  0  0  0
 33 36  1  0  0  0
M  END
> <minimizedAffinity>
-10.01955

> <CNNscore>
0.9494922161

> <CNNaffinity>
7.9503350258

> <CNN_VS>
7.5487813950

> <CNNaffinity_variance>
0.1253833622

$$$$
[H]c1nc([H])c(N([H])C(=O)c2nn(-c3c([H])c([H])c([H])c([H])c3Cl)c(-c3c([H])c([H])c(Cl)c([H])c3[H])c2C([H])([H])C(=O)N([H])[H])c(C([H])([H])[H])c1[H]


 36 39  0  0  0  0  0  0  0  0999 V2000
  -17.5412   13.2605  -21.4174 C   0  0  0  0  0  0  0  0  0  0  0  0
  -17.9499   14.3358  -20.7266 N   0  0  0  0  0  0  0  0  0  0  0  0
  -18.4592   13.9845  -19.5392 N   0  0  0  0  0  0  0  0  0  0  0  0
  -18.4003   12.6228  -19.4058 C   0  0  0  0  0  0  0  0  0  0  0  0
  -17.8245   12.1824  -20.5791 C   0  0  0  0  0  0  0  0  0  0  0  0
  -18.9792   14.9668  -18.6683 C   0  0  0  0  0  0  0  0  0  0  0  0
  -18.1867   15.5025  -17.6802 C   0  0  0  0  0  0  0  0  0  0  0  0
  -18.6908   16.4576  -16.7891 C   0  0  0  0  0  0  0  0  0  0  0  0
  -20.0044   16.8840  -16.8858 C   0  0  0  0  0  0  0  0  0  0  0  0
  -20.7918   16.3463  -17.8739 C   0  0  0  0  0  0  0  0  0  0  0  0
  -20.2967   15.4080  -18.7493 C   0  0  0  0  0  0  0  0  0  0  0  0
  -21.2880   14.7147  -20.0127 Cl  0  0  0  0  0  0  0  0  0  0  0  0
  -18.9932   11.8646  -18.3153 C   0  0  0  0  0  0  0  0  0  0  0  0
  -20.0913   12.2546  -17.5915 C   0  0  0  0  0  0  0  0  0  0  0  0
  -20.7190   11.4776  -16.6261 C   0  0  0  0  0  0  0  0  0  0  0  0
  -20.2271   10.2267  -16.3531 C   0  0  0  0  0  0  0  0  0  0  0  0
  -21.0345    9.2693  -15.1344 Cl  0  0  0  0  0  0  0  0  0  0  0  0
  -19.1388    9.7868  -17.0387 C   0  0  0  0  0  0  0  0  0  0  0  0
  -18.5207   10.5830  -18.0088 C   0  0  0  0  0  0  0  0  0  0  0  0
  -17.5677   14.0307  -23.7583 N   0  0  0  0  0  0  0  0  0  0  0  0
  -16.9420   13.2624  -22.7546 C   0  0  0  0  0  0  0  0  0  0  0  0
  -15.9250   12.6110  -22.9838 O   0  0  0  0  0  0  0  0  0  0  0  0
  -18.4489   14.5544  -23.4282 H   0  0  0  0  0  0  0  0  0  0  0  0
  -16.3554   16.4356  -24.4386 C   0  0  0  0  0  0  0  0  0  0  0  0
  -16.5715   15.4027  -25.4676 C   0  0  0  0  0  0  0  0  0  0  0  0
  -16.1667   15.6370  -26.7664 C   0  0  0  0  0  0  0  0  0  0  0  0
  -16.3538   14.7026  -27.7542 C   0  0  0  0  0  0  0  0  0  0  0  0
  -16.9450   13.5598  -27.3967 N   0  0  0  0  0  0  0  0  0  0  0  0
  -17.3585   13.2961  -26.1164 C   0  0  0  0  0  0  0  0  0  0  0  0
  -17.1932   14.1971  -25.0984 C   0  0  0  0  0  0  0  0  0  0  0  0
  -17.4325   10.7861  -20.9471 C   0  0  0  0  0  0  0  0  0  0  0  0
  -15.9840   10.6305  -20.5340 C   0  0  0  0  0  0  0  0  0  0  0  0
  -15.0545   10.3144  -21.5396 N   0  0  0  0  0  0  0  0  0  0  0  0
  -15.6294   10.7755  -19.3584 O   0  0  0  0  0  0  0  0  0  0  0  0
  -15.1506    9.4787  -22.1861 H   0  0  0  0  0  0  0  0  0  0  0  0
  -14.1811   10.8909  -21.7295 H   0  0  0  0  0  0  0  0  0  0  0  0
 24 25  1  0  0  0
 25 26  2  0  0  0
 26 27  1  0  0  0
 27 28  2  0  0  0
 28 29  1  0  0  0
 29 30  2  0  0  0
 30 20  1  0  0  0
 20 21  1  0  0  0
 21 22  2  0  0  0
 21  1  1  0  0  0
  1  2  2  0  0  0
  2  3  1  0  0  0
  3  6  1  0  0  0
  6  7  2  0  0  0
  7  8  1  0  0  0
  8  9  2  0  0  0
  9 10  1  0  0  0
 10 11  2  0  0  0
 11 12  1  0  0  0
  3  4  1  0  0  0
  4 13  1  0  0  0
 13 14  2  0  0  0
 14 15  1  0  0  0
 15 16  2  0  0  0
 16 17  1  0  0  0
 16 18  1  0  0  0
 18 19  2  0  0  0
  4  5  2  0  0  0
  5 31  1  0  0  0
 31 32  1  0  0  0
 32 33  1  0  0  0
 32 34  2  0  0  0
 30 25  1  0  0  0
  5  1  1  0  0  0
 11  6  1  0  0  0
 19 13  1  0  0  0
 20 23  1  0  0  0
 33 35  1  0  0  0
 33 36  1  0  0  0
M  END
> <minimizedAffinity>
-9.66718

> <CNNscore>
0.7822699547

> <CNNaffinity>
7.8255453110

> <CNN_VS>
6.1216888428

> <CNNaffinity_variance>
0.1153324395

$$$$
[H]c1nc([H])c(N([H])C(=O)c2nn(-c3c([H])c([H])c([H])c([H])c3Cl)c(-c3c([H])c([H])c(Cl)c([H])c3[H])c2C([H])([H])C(=O)N([H])[H])c(C([H])([H])[H])c1[H]


 36 39  0  0  0  0  0  0  0  0999 V2000
  -17.4719   12.8742  -20.9425 C   0  0  0  0  0  0  0  0  0  0  0  0
  -16.7718   12.9525  -22.0845 N   0  0  0  0  0  0  0  0  0  0  0  0
  -16.7625   14.2029  -22.5629 N   0  0  0  0  0  0  0  0  0  0  0  0
  -17.4793   15.0143  -21.7241 C   0  0  0  0  0  0  0  0  0  0  0  0
  -17.9137   14.1778  -20.7174 C   0  0  0  0  0  0  0  0  0  0  0  0
  -16.1070   14.4957  -23.7787 C   0  0  0  0  0  0  0  0  0  0  0  0
  -14.7718   14.8256  -23.7812 C   0  0  0  0  0  0  0  0  0  0  0  0
  -14.1096   15.1458  -24.9725 C   0  0  0  0  0  0  0  0  0  0  0  0
  -14.7897   15.1366  -26.1783 C   0  0  0  0  0  0  0  0  0  0  0  0
  -16.1226   14.8066  -26.1710 C   0  0  0  0  0  0  0  0  0  0  0  0
  -16.7732   14.4921  -25.0006 C   0  0  0  0  0  0  0  0  0  0  0  0
  -18.4705   14.0698  -24.9763 Cl  0  0  0  0  0  0  0  0  0  0  0  0
  -17.8136   16.4043  -21.9918 C   0  0  0  0  0  0  0  0  0  0  0  0
  -18.7632   16.8271  -22.8870 C   0  0  0  0  0  0  0  0  0  0  0  0
  -19.1554   18.1485  -23.0590 C   0  0  0  0  0  0  0  0  0  0  0  0
  -18.5672   19.1238  -22.2946 C   0  0  0  0  0  0  0  0  0  0  0  0
  -19.0781   20.7784  -22.5302 Cl  0  0  0  0  0  0  0  0  0  0  0  0
  -17.6176   18.7641  -21.3909 C   0  0  0  0  0  0  0  0  0  0  0  0
  -17.2366   17.4276  -21.2305 C   0  0  0  0  0  0  0  0  0  0  0  0
  -18.3695   11.8073  -18.9104 N   0  0  0  0  0  0  0  0  0  0  0  0
  -17.7019   11.6668  -20.1447 C   0  0  0  0  0  0  0  0  0  0  0  0
  -17.3208   10.5699  -20.5483 O   0  0  0  0  0  0  0  0  0  0  0  0
  -18.6515   12.8194  -18.6738 H   0  0  0  0  0  0  0  0  0  0  0  0
  -20.3452   12.4397  -17.0630 C   0  0  0  0  0  0  0  0  0  0  0  0
  -19.7091   11.1104  -17.0352 C   0  0  0  0  0  0  0  0  0  0  0  0
  -20.1023   10.1846  -16.0897 C   0  0  0  0  0  0  0  0  0  0  0  0
  -19.5316    8.9378  -16.0280 C   0  0  0  0  0  0  0  0  0  0  0  0
  -18.5806    8.6667  -16.9253 N   0  0  0  0  0  0  0  0  0  0  0  0
  -18.1676    9.5634  -17.8768 C   0  0  0  0  0  0  0  0  0  0  0  0
  -18.7072   10.8180  -17.9770 C   0  0  0  0  0  0  0  0  0  0  0  0
  -18.6674   14.5410  -19.4768 C   0  0  0  0  0  0  0  0  0  0  0  0
  -20.1183   14.6778  -19.8881 C   0  0  0  0  0  0  0  0  0  0  0  0
  -20.6703   15.9703  -19.8938 N   0  0  0  0  0  0  0  0  0  0  0  0
  -20.7939   13.6927  -20.2072 O   0  0  0  0  0  0  0  0  0  0  0  0
  -20.6569   16.6181  -19.0537 H   0  0  0  0  0  0  0  0  0  0  0  0
  -21.1450   16.3986  -20.7438 H   0  0  0  0  0  0  0  0  0  0  0  0
 24 25  1  0  0  0
 25 26  2  0  0  0
 26 27  1  0  0  0
 27 28  2  0  0  0
 28 29  1  0  0  0
 29 30  2  0  0  0
 30 20  1  0  0  0
 20 21  1  0  0  0
 21 22  2  0  0  0
 21  1  1  0  0  0
  1  2  2  0  0  0
  2  3  1  0  0  0
  3  6  1  0  0  0
  6  7  2  0  0  0
  7  8  1  0  0  0
  8  9  2  0  0  0
  9 10  1  0  0  0
 10 11  2  0  0  0
 11 12  1  0  0  0
  3  4  1  0  0  0
  4 13  1  0  0  0
 13 14  2  0  0  0
 14 15  1  0  0  0
 15 16  2  0  0  0
 16 17  1  0  0  0
 16 18  1  0  0  0
 18 19  2  0  0  0
  4  5  2  0  0  0
  5 31  1  0  0  0
 31 32  1  0  0  0
 32 33  1  0  0  0
 32 34  2  0  0  0
 30 25  1  0  0  0
  5  1  1  0  0  0
 11  6  1  0  0  0
 19 13  1  0  0  0
 20 23  1  0  0  0
 33 35  1  0  0  0
 33 36  1  0  0  0
M  END
> <minimizedAffinity>
-9.42032

> <CNNscore>
0.6089838147

> <CNNaffinity>
7.4770431519

> <CNN_VS>
4.5533981323

> <CNNaffinity_variance>
0.1499584019

$$$$
[H]c1nc([H])c(N([H])C(=O)c2nn(-c3c([H])c([H])c([H])c([H])c3Cl)c(-c3c([H])c([H])c(Cl)c([H])c3[H])c2C([H])([H])C(=O)N([H])[H])c(C([H])([H])[H])c1[H]


 36 39  0  0  0  0  0  0  0  0999 V2000
  -17.5639   12.9218  -20.4144 C   0  0  0  0  0  0  0  0  0  0  0  0
  -17.2365   12.7046  -21.6975 N   0  0  0  0  0  0  0  0  0  0  0  0
  -17.3832   13.8156  -22.4300 N   0  0  0  0  0  0  0  0  0  0  0  0
  -17.8261   14.8328  -21.6270 C   0  0  0  0  0  0  0  0  0  0  0  0
  -17.9323   14.2663  -20.3740 C   0  0  0  0  0  0  0  0  0  0  0  0
  -17.1228   13.7936  -23.8176 C   0  0  0  0  0  0  0  0  0  0  0  0
  -17.9575   13.1043  -24.6658 C   0  0  0  0  0  0  0  0  0  0  0  0
  -17.7021   13.0472  -26.0412 C   0  0  0  0  0  0  0  0  0  0  0  0
  -16.5978   13.6873  -26.5775 C   0  0  0  0  0  0  0  0  0  0  0  0
  -15.7672   14.3742  -25.7268 C   0  0  0  0  0  0  0  0  0  0  0  0
  -16.0181   14.4302  -24.3756 C   0  0  0  0  0  0  0  0  0  0  0  0
  -14.9689   15.3015  -23.2803 Cl  0  0  0  0  0  0  0  0  0  0  0  0
  -18.2396   16.1462  -22.0954 C   0  0  0  0  0  0  0  0  0  0  0  0
  -19.3548   16.3962  -22.8540 C   0  0  0  0  0  0  0  0  0  0  0  0
  -19.8048   17.6625  -23.2056 C   0  0  0  0  0  0  0  0  0  0  0  0
  -19.1032   18.7617  -22.7802 C   0  0  0  0  0  0  0  0  0  0  0  0
  -19.6899   20.3435  -23.2360 Cl  0  0  0  0  0  0  0  0  0  0  0  0
  -17.9877   18.5752  -22.0260 C   0  0  0  0  0  0  0  0  0  0  0  0
  -17.5506   17.2920  -21.6804 C   0  0  0  0  0  0  0  0  0  0  0  0
  -18.7626   11.5288  -18.7724 N   0  0  0  0  0  0  0  0  0  0  0  0
  -17.5332   11.9362  -19.3305 C   0  0  0  0  0  0  0  0  0  0  0  0
  -16.4632   11.4844  -18.9277 O   0  0  0  0  0  0  0  0  0  0  0  0
  -19.6252   11.9981  -19.2147 H   0  0  0  0  0  0  0  0  0  0  0  0
  -20.4359   12.3463  -16.7113 C   0  0  0  0  0  0  0  0  0  0  0  0
  -19.8461   10.9957  -16.6895 C   0  0  0  0  0  0  0  0  0  0  0  0
  -20.1318   10.1422  -15.6428 C   0  0  0  0  0  0  0  0  0  0  0  0
  -19.5992    8.8785  -15.5835 C   0  0  0  0  0  0  0  0  0  0  0  0
  -18.7939    8.5178  -16.5858 N   0  0  0  0  0  0  0  0  0  0  0  0
  -18.4903    9.3411  -17.6393 C   0  0  0  0  0  0  0  0  0  0  0  0
  -18.9973   10.6091  -17.7414 C   0  0  0  0  0  0  0  0  0  0  0  0
  -18.2860   14.9382  -19.0847 C   0  0  0  0  0  0  0  0  0  0  0  0
  -19.7845   15.1542  -19.1174 C   0  0  0  0  0  0  0  0  0  0  0  0
  -20.2618   16.4316  -18.7777 N   0  0  0  0  0  0  0  0  0  0  0  0
  -20.5606   14.2441  -19.4305 O   0  0  0  0  0  0  0  0  0  0  0  0
  -20.0263   16.9234  -17.8675 H   0  0  0  0  0  0  0  0  0  0  0  0
  -20.8975   17.0043  -19.4094 H   0  0  0  0  0  0  0  0  0  0  0  0
 24 25  1  0  0  0
 25 26  2  0  0  0
 26 27  1  0  0  0
 27 28  2  0  0  0
 28 29  1  0  0  0
 29 30  2  0  0  0
 30 20  1  0  0  0
 20 21  1  0  0  0
 21 22  2  0  0  0
 21  1  1  0  0  0
  1  2  2  0  0  0
  2  3  1  0  0  0
  3  6  1  0  0  0
  6  7  2  0  0  0
  7  8  1  0  0  0
  8  9  2  0  0  0
  9 10  1  0  0  0
 10 11  2  0  0  0
 11 12  1  0  0  0
  3  4  1  0  0  0
  4 13  1  0  0  0
 13 14  2  0  0  0
 14 15  1  0  0  0
 15 16  2  0  0  0
 16 17  1  0  0  0
 16 18  1  0  0  0
 18 19  2  0  0  0
  4  5  2  0  0  0
  5 31  1  0  0  0
 31 32  1  0  0  0
 32 33  1  0  0  0
 32 34  2  0  0  0
 30 25  1  0  0  0
  5  1  1  0  0  0
 11  6  1  0  0  0
 19 13  1  0  0  0
 20 23  1  0  0  0
 33 35  1  0  0  0
 33 36  1  0  0  0
M  END
> <minimizedAffinity>
-8.60653

> <CNNscore>
0.4761761427

> <CNNaffinity>
7.3893523216

> <CNN_VS>
3.5186333656

> <CNNaffinity_variance>
0.3177099526

$$$$
[H]c1nc([H])c(N([H])C(=O)c2nn(-c3c([H])c([H])c([H])c([H])c3Cl)c(-c3c([H])c([H])c(Cl)c([H])c3[H])c2C([H])([H])C(=O)N([H])[H])c(C([H])([H])[H])c1[H]


 36 39  0  0  0  0  0  0  0  0999 V2000
  -18.8427   11.4684  -18.0547 C   0  0  0  0  0  0  0  0  0  0  0  0
  -19.2798   12.6663  -17.6368 N   0  0  0  0  0  0  0  0  0  0  0  0
  -18.9687   13.6290  -18.5137 N   0  0  0  0  0  0  0  0  0  0  0  0
  -18.2951   13.0781  -19.5713 C   0  0  0  0  0  0  0  0  0  0  0  0
  -18.2248   11.7326  -19.2769 C   0  0  0  0  0  0  0  0  0  0  0  0
  -19.3094   14.9730  -18.2469 C   0  0  0  0  0  0  0  0  0  0  0  0
  -18.5699   15.7076  -17.3497 C   0  0  0  0  0  0  0  0  0  0  0  0
  -18.9071   17.0331  -17.0506 C   0  0  0  0  0  0  0  0  0  0  0  0
  -19.9979   17.6338  -17.6554 C   0  0  0  0  0  0  0  0  0  0  0  0
  -20.7333   16.8965  -18.5505 C   0  0  0  0  0  0  0  0  0  0  0  0
  -20.4021   15.5943  -18.8443 C   0  0  0  0  0  0  0  0  0  0  0  0
  -21.3296   14.6433  -19.9823 Cl  0  0  0  0  0  0  0  0  0  0  0  0
  -17.6687   13.8322  -20.6458 C   0  0  0  0  0  0  0  0  0  0  0  0
  -17.1026   15.0743  -20.5096 C   0  0  0  0  0  0  0  0  0  0  0  0
  -16.4096   15.7419  -21.5114 C   0  0  0  0  0  0  0  0  0  0  0  0
  -16.2662   15.1424  -22.7366 C   0  0  0  0  0  0  0  0  0  0  0  0
  -15.3902   16.0031  -23.9800 Cl  0  0  0  0  0  0  0  0  0  0  0  0
  -16.8080   13.9109  -22.9308 C   0  0  0  0  0  0  0  0  0  0  0  0
  -17.5014   13.2531  -21.9093 C   0  0  0  0  0  0  0  0  0  0  0  0
  -20.0746   10.0593  -16.4515 N   0  0  0  0  0  0  0  0  0  0  0  0
  -18.9959   10.1928  -17.3501 C   0  0  0  0  0  0  0  0  0  0  0  0
  -18.2030    9.2735  -17.5439 O   0  0  0  0  0  0  0  0  0  0  0  0
  -20.6953   10.9360  -16.3737 H   0  0  0  0  0  0  0  0  0  0  0  0
  -22.7303    9.8890  -15.6549 C   0  0  0  0  0  0  0  0  0  0  0  0
  -21.7735    8.8405  -15.2578 C   0  0  0  0  0  0  0  0  0  0  0  0
  -22.2053    7.7761  -14.4922 C   0  0  0  0  0  0  0  0  0  0  0  0
  -21.3449    6.7818  -14.0984 C   0  0  0  0  0  0  0  0  0  0  0  0
  -20.0739    6.8958  -14.4919 N   0  0  0  0  0  0  0  0  0  0  0  0
  -19.6133    7.9396  -15.2523 C   0  0  0  0  0  0  0  0  0  0  0  0
  -20.4338    8.9539  -15.6686 C   0  0  0  0  0  0  0  0  0  0  0  0
  -17.6755   10.6298  -20.1259 C   0  0  0  0  0  0  0  0  0  0  0  0
  -16.1880   10.5813  -19.8460 C   0  0  0  0  0  0  0  0  0  0  0  0
  -15.7618   10.9227  -18.5511 N   0  0  0  0  0  0  0  0  0  0  0  0
  -15.3775   10.2544  -20.7206 O   0  0  0  0  0  0  0  0  0  0  0  0
  -16.0074   11.8381  -18.0745 H   0  0  0  0  0  0  0  0  0  0  0  0
  -15.1583   10.2869  -17.9486 H   0  0  0  0  0  0  0  0  0  0  0  0
 24 25  1  0  0  0
 25 26  2  0  0  0
 26 27  1  0  0  0
 27 28  2  0  0  0
 28 29  1  0  0  0
 29 30  2  0  0  0
 30 20  1  0  0  0
 20 21  1  0  0  0
 21 22  2  0  0  0
 21  1  1  0  0  0
  1  2  2  0  0  0
  2  3  1  0  0  0
  3  6  1  0  0  0
  6  7  2  0  0  0
  7  8  1  0  0  0
  8  9  2  0  0  0
  9 10  1  0  0  0
 10 11  2  0  0  0
 11 12  1  0  0  0
  3  4  1  0  0  0
  4 13  1  0  0  0
 13 14  2  0  0  0
 14 15  1  0  0  0
 15 16  2  0  0  0
 16 17  1  0  0  0
 16 18  1  0  0  0
 18 19  2  0  0  0
  4  5  2  0  0  0
  5 31  1  0  0  0
 31 32  1  0  0  0
 32 33  1  0  0  0
 32 34  2  0  0  0
 30 25  1  0  0  0
  5  1  1  0  0  0
 11  6  1  0  0  0
 19 13  1  0  0  0
 20 23  1  0  0  0
 33 35  1  0  0  0
 33 36  1  0  0  0
M  END
> <minimizedAffinity>
-9.05780

> <CNNscore>
0.4231043756

> <CNNaffinity>
7.1169157028

> <CNN_VS>
3.0111982822

> <CNNaffinity_variance>
0.1255794764

$$$$
[H]c1nc([H])c(N([H])C(=O)c2nn(-c3c([H])c([H])c([H])c([H])c3Cl)c(-c3c([H])c([H])c(Cl)c([H])c3[H])c2C([H])([H])C(=O)N([H])[H])c(C([H])([H])[H])c1[H]


 36 39  0  0  0  0  0  0  0  0999 V2000
  -18.9348   13.5271  -19.6580 C   0  0  0  0  0  0  0  0  0  0  0  0
  -19.0777   14.8592  -19.7341 N   0  0  0  0  0  0  0  0  0  0  0  0
  -18.6499   15.3261  -20.9137 N   0  0  0  0  0  0  0  0  0  0  0  0
  -18.1970   14.2829  -21.6768 C   0  0  0  0  0  0  0  0  0  0  0  0
  -18.3817   13.1676  -20.8869 C   0  0  0  0  0  0  0  0  0  0  0  0
  -18.6815   16.7113  -21.1854 C   0  0  0  0  0  0  0  0  0  0  0  0
  -19.7830   17.2714  -21.7892 C   0  0  0  0  0  0  0  0  0  0  0  0
  -19.8235   18.6378  -22.0919 C   0  0  0  0  0  0  0  0  0  0  0  0
  -18.7494   19.4566  -21.7877 C   0  0  0  0  0  0  0  0  0  0  0  0
  -17.6519   18.8930  -21.1849 C   0  0  0  0  0  0  0  0  0  0  0  0
  -17.6120   17.5507  -20.8876 C   0  0  0  0  0  0  0  0  0  0  0  0
  -16.2209   16.8192  -20.1198 Cl  0  0  0  0  0  0  0  0  0  0  0  0
  -17.5218   14.4176  -22.9580 C   0  0  0  0  0  0  0  0  0  0  0  0
  -18.1351   14.3414  -24.1827 C   0  0  0  0  0  0  0  0  0  0  0  0
  -17.5064   14.5797  -25.3983 C   0  0  0  0  0  0  0  0  0  0  0  0
  -16.1765   14.9152  -25.4070 C   0  0  0  0  0  0  0  0  0  0  0  0
  -15.4090   15.2098  -26.9492 Cl  0  0  0  0  0  0  0  0  0  0  0  0
  -15.5156   15.0044  -24.2225 C   0  0  0  0  0  0  0  0  0  0  0  0
  -16.1660   14.7624  -23.0078 C   0  0  0  0  0  0  0  0  0  0  0  0
  -20.4177   13.0360  -17.7518 N   0  0  0  0  0  0  0  0  0  0  0  0
  -19.2880   12.6786  -18.5167 C   0  0  0  0  0  0  0  0  0  0  0  0
  -18.6137   11.6878  -18.2433 O   0  0  0  0  0  0  0  0  0  0  0  0
  -20.9213   13.9234  -18.0966 H   0  0  0  0  0  0  0  0  0  0  0  0
  -21.5618   14.6535  -15.8049 C   0  0  0  0  0  0  0  0  0  0  0  0
  -21.5475   13.1899  -15.6314 C   0  0  0  0  0  0  0  0  0  0  0  0
  -22.1067   12.6305  -14.5000 C   0  0  0  0  0  0  0  0  0  0  0  0
  -22.1097   11.2727  -14.2992 C   0  0  0  0  0  0  0  0  0  0  0  0
  -21.5466   10.5231  -15.2501 N   0  0  0  0  0  0  0  0  0  0  0  0
  -20.9831   11.0471  -16.3848 C   0  0  0  0  0  0  0  0  0  0  0  0
  -20.9564   12.3944  -16.6285 C   0  0  0  0  0  0  0  0  0  0  0  0
  -18.1464   11.7340  -21.2451 C   0  0  0  0  0  0  0  0  0  0  0  0
  -16.6635   11.4895  -21.0592 C   0  0  0  0  0  0  0  0  0  0  0  0
  -16.2113   11.2138  -19.7575 N   0  0  0  0  0  0  0  0  0  0  0  0
  -15.8785   11.5301  -22.0136 O   0  0  0  0  0  0  0  0  0  0  0  0
  -16.3980   11.8447  -18.9252 H   0  0  0  0  0  0  0  0  0  0  0  0
  -15.6456   10.3486  -19.5070 H   0  0  0  0  0  0  0  0  0  0  0  0
 24 25  1  0  0  0
 25 26  2  0  0  0
 26 27  1  0  0  0
 27 28  2  0  0  0
 28 29  1  0  0  0
 29 30  2  0  0  0
 30 20  1  0  0  0
 20 21  1  0  0  0
 21 22  2  0  0  0
 21  1  1  0  0  0
  1  2  2  0  0  0
  2  3  1  0  0  0
  3  6  1  0  0  0
  6  7  2  0  0  0
  7  8  1  0  0  0
  8  9  2  0  0  0
  9 10  1  0  0  0
 10 11  2  0  0  0
 11 12  1  0  0  0
  3  4  1  0  0  0
  4 13  1  0  0  0
 13 14  2  0  0  0
 14 15  1  0  0  0
 15 16  2  0  0  0
 16 17  1  0  0  0
 16 18  1  0  0  0
 18 19  2  0  0  0
  4  5  2  0  0  0
  5 31  1  0  0  0
 31 32  1  0  0  0
 32 33  1  0  0  0
 32 34  2  0  0  0
 30 25  1  0  0  0
  5  1  1  0  0  0
 11  6  1  0  0  0
 19 13  1  0  0  0
 20 23  1  0  0  0
 33 35  1  0  0  0
 33 36  1  0  0  0
M  END
> <minimizedAffinity>
-7.93869

> <CNNscore>
0.3951583803

> <CNNaffinity>
7.3404488564

> <CNN_VS>
2.9006397724

> <CNNaffinity_variance>
0.5154120922

$$$$
[H]c1nc([H])c(N([H])C(=O)c2nn(-c3c([H])c([H])c([H])c([H])c3Cl)c(-c3c([H])c([H])c(Cl)c([H])c3[H])c2C([H])([H])C(=O)N([H])[H])c(C([H])([H])[H])c1[H]


 36 39  0  0  0  0  0  0  0  0999 V2000
  -18.6913   10.7017  -17.7507 C   0  0  0  0  0  0  0  0  0  0  0  0
  -18.7587    9.5343  -17.0926 N   0  0  0  0  0  0  0  0  0  0  0  0
  -19.8020    9.5100  -16.2537 N   0  0  0  0  0  0  0  0  0  0  0  0
  -20.4767   10.6991  -16.3352 C   0  0  0  0  0  0  0  0  0  0  0  0
  -19.7788   11.4321  -17.2720 C   0  0  0  0  0  0  0  0  0  0  0  0
  -20.0342    8.3812  -15.4380 C   0  0  0  0  0  0  0  0  0  0  0  0
  -20.6003    7.2477  -15.9730 C   0  0  0  0  0  0  0  0  0  0  0  0
  -20.8638    6.1273  -15.1757 C   0  0  0  0  0  0  0  0  0  0  0  0
  -20.5581    6.1385  -13.8256 C   0  0  0  0  0  0  0  0  0  0  0  0
  -19.9930    7.2724  -13.2959 C   0  0  0  0  0  0  0  0  0  0  0  0
  -19.7341    8.3731  -14.0790 C   0  0  0  0  0  0  0  0  0  0  0  0
  -19.0146    9.8240  -13.4180 Cl  0  0  0  0  0  0  0  0  0  0  0  0
  -21.5743   11.0969  -15.4678 C   0  0  0  0  0  0  0  0  0  0  0  0
  -22.8049   10.4920  -15.4276 C   0  0  0  0  0  0  0  0  0  0  0  0
  -23.8106   10.8044  -14.5218 C   0  0  0  0  0  0  0  0  0  0  0  0
  -23.5877   11.7856  -13.5897 C   0  0  0  0  0  0  0  0  0  0  0  0
  -24.8689   12.1598  -12.4616 Cl  0  0  0  0  0  0  0  0  0  0  0  0
  -22.3863   12.4215  -13.5824 C   0  0  0  0  0  0  0  0  0  0  0  0
  -21.3845   12.0921  -14.5017 C   0  0  0  0  0  0  0  0  0  0  0  0
  -18.1254   11.5566  -19.9918 N   0  0  0  0  0  0  0  0  0  0  0  0
  -17.6801   11.0853  -18.7393 C   0  0  0  0  0  0  0  0  0  0  0  0
  -16.4829   10.9955  -18.4748 O   0  0  0  0  0  0  0  0  0  0  0  0
  -19.1968   11.5881  -20.0960 H   0  0  0  0  0  0  0  0  0  0  0  0
  -18.7026   14.0702  -21.0235 C   0  0  0  0  0  0  0  0  0  0  0  0
  -17.6342   13.2538  -21.6273 C   0  0  0  0  0  0  0  0  0  0  0  0
  -16.9236   13.7462  -22.7034 C   0  0  0  0  0  0  0  0  0  0  0  0
  -15.9243   13.0154  -23.2963 C   0  0  0  0  0  0  0  0  0  0  0  0
  -15.6753   11.8088  -22.7813 N   0  0  0  0  0  0  0  0  0  0  0  0
  -16.3623   11.2910  -21.7138 C   0  0  0  0  0  0  0  0  0  0  0  0
  -17.3665   11.9825  -21.0902 C   0  0  0  0  0  0  0  0  0  0  0  0
  -20.1176   12.7790  -17.8288 C   0  0  0  0  0  0  0  0  0  0  0  0
  -19.4024   13.7894  -16.9566 C   0  0  0  0  0  0  0  0  0  0  0  0
  -20.1930   14.7298  -16.2742 N   0  0  0  0  0  0  0  0  0  0  0  0
  -18.1709   13.7897  -16.8469 O   0  0  0  0  0  0  0  0  0  0  0  0
  -20.8936   15.3661  -16.7536 H   0  0  0  0  0  0  0  0  0  0  0  0
  -20.1487   14.8756  -15.2215 H   0  0  0  0  0  0  0  0  0  0  0  0
 24 25  1  0  0  0
 25 26  2  0  0  0
 26 27  1  0  0  0
 27 28  2  0  0  0
 28 29  1  0  0  0
 29 30  2  0  0  0
 30 20  1  0  0  0
 20 21  1  0  0  0
 21 22  2  0  0  0
 21  1  1  0  0  0
  1  2  2  0  0  0
  2  3  1  0  0  0
  3  6  1  0  0  0
  6  7  2  0  0  0
  7  8  1  0  0  0
  8  9  2  0  0  0
  9 10  1  0  0  0
 10 11  2  0  0  0
 11 12  1  0  0  0
  3  4  1  0  0  0
  4 13  1  0  0  0
 13 14  2  0  0  0
 14 15  1  0  0  0
 15 16  2  0  0  0
 16 17  1  0  0  0
 16 18  1  0  0  0
 18 19  2  0  0  0
  4  5  2  0  0  0
  5 31  1  0  0  0
 31 32  1  0  0  0
 32 33  1  0  0  0
 32 34  2  0  0  0
 30 25  1  0  0  0
  5  1  1  0  0  0
 11  6  1  0  0  0
 19 13  1  0  0  0
 20 23  1  0  0  0
 33 35  1  0  0  0
 33 36  1  0  0  0
M  END
> <minimizedAffinity>
-7.69867

> <CNNscore>
0.3928356171

> <CNNaffinity>
6.8165845871

> <CNN_VS>
2.6777973175

> <CNNaffinity_variance>
0.0798330158

$$$$
[H]c1nc([H])c(N([H])C(=O)c2nn(-c3c([H])c([H])c([H])c([H])c3Cl)c(-c3c([H])c([H])c(Cl)c([H])c3[H])c2C([H])([H])C(=O)N([H])[H])c(C([H])([H])[H])c1[H]


 36 39  0  0  0  0  0  0  0  0999 V2000
  -17.9831   13.4646  -20.0465 C   0  0  0  0  0  0  0  0  0  0  0  0
  -17.3928   13.6386  -21.2390 N   0  0  0  0  0  0  0  0  0  0  0  0
  -17.7446   14.8078  -21.7882 N   0  0  0  0  0  0  0  0  0  0  0  0
  -18.6056   15.4623  -20.9479 C   0  0  0  0  0  0  0  0  0  0  0  0
  -18.7447   14.6189  -19.8657 C   0  0  0  0  0  0  0  0  0  0  0  0
  -17.2588   15.1709  -23.0632 C   0  0  0  0  0  0  0  0  0  0  0  0
  -17.6541   14.4691  -24.1781 C   0  0  0  0  0  0  0  0  0  0  0  0
  -17.1632   14.7955  -25.4480 C   0  0  0  0  0  0  0  0  0  0  0  0
  -16.2651   15.8370  -25.6074 C   0  0  0  0  0  0  0  0  0  0  0  0
  -15.8733   16.5347  -24.4916 C   0  0  0  0  0  0  0  0  0  0  0  0
  -16.3555   16.2141  -23.2439 C   0  0  0  0  0  0  0  0  0  0  0  0
  -15.8655   17.0942  -21.8139 Cl  0  0  0  0  0  0  0  0  0  0  0  0
  -19.3139   16.6910  -21.2705 C   0  0  0  0  0  0  0  0  0  0  0  0
  -19.2118   17.8657  -20.5694 C   0  0  0  0  0  0  0  0  0  0  0  0
  -19.8037   19.0650  -20.9448 C   0  0  0  0  0  0  0  0  0  0  0  0
  -20.5521   19.1087  -22.0934 C   0  0  0  0  0  0  0  0  0  0  0  0
  -21.2862   20.6294  -22.5437 Cl  0  0  0  0  0  0  0  0  0  0  0  0
  -20.6899   17.9740  -22.8290 C   0  0  0  0  0  0  0  0  0  0  0  0
  -20.0849   16.7754  -22.4359 C   0  0  0  0  0  0  0  0  0  0  0  0
  -18.9951   11.8036  -18.5332 N   0  0  0  0  0  0  0  0  0  0  0  0
  -17.8376   12.3026  -19.1658 C   0  0  0  0  0  0  0  0  0  0  0  0
  -16.7359   11.7859  -18.9908 O   0  0  0  0  0  0  0  0  0  0  0  0
  -19.8957   12.3443  -18.7706 H   0  0  0  0  0  0  0  0  0  0  0  0
  -20.8559   12.0389  -16.4842 C   0  0  0  0  0  0  0  0  0  0  0  0
  -20.0577   10.8069  -16.6163 C   0  0  0  0  0  0  0  0  0  0  0  0
  -20.2422    9.7738  -15.7195 C   0  0  0  0  0  0  0  0  0  0  0  0
  -19.5158    8.6124  -15.8059 C   0  0  0  0  0  0  0  0  0  0  0  0
  -18.6251    8.5327  -16.7976 N   0  0  0  0  0  0  0  0  0  0  0  0
  -18.4178    9.5400  -17.7043 C   0  0  0  0  0  0  0  0  0  0  0  0
  -19.1180   10.7159  -17.6581 C   0  0  0  0  0  0  0  0  0  0  0  0
  -19.4993   14.8628  -18.5968 C   0  0  0  0  0  0  0  0  0  0  0  0
  -18.4615   15.1918  -17.5442 C   0  0  0  0  0  0  0  0  0  0  0  0
  -17.8414   16.4508  -17.6181 N   0  0  0  0  0  0  0  0  0  0  0  0
  -18.1689   14.3864  -16.6529 O   0  0  0  0  0  0  0  0  0  0  0  0
  -17.3439   16.8103  -18.4834 H   0  0  0  0  0  0  0  0  0  0  0  0
  -17.8237   17.1412  -16.8092 H   0  0  0  0  0  0  0  0  0  0  0  0
 24 25  1  0  0  0
 25 26  2  0  0  0
 26 27  1  0  0  0
 27 28  2  0  0  0
 28 29  1  0  0  0
 29 30  2  0  0  0
 30 20  1  0  0  0
 20 21  1  0  0  0
 21 22  2  0  0  0
 21  1  1  0  0  0
  1  2  2  0  0  0
  2  3  1  0  0  0
  3  6  1  0  0  0
  6  7  2  0  0  0
  7  8  1  0  0  0
  8  9  2  0  0  0
  9 10  1  0  0  0
 10 11  2  0  0  0
 11 12  1  0  0  0
  3  4  1  0  0  0
  4 13  1  0  0  0
 13 14  2  0  0  0
 14 15  1  0  0  0
 15 16  2  0  0  0
 16 17  1  0  0  0
 16 18  1  0  0  0
 18 19  2  0  0  0
  4  5  2  0  0  0
  5 31  1  0  0  0
 31 32  1  0  0  0
 32 33  1  0  0  0
 32 34  2  0  0  0
 30 25  1  0  0  0
  5  1  1  0  0  0
 11  6  1  0  0  0
 19 13  1  0  0  0
 20 23  1  0  0  0
 33 35  1  0  0  0
 33 36  1  0  0  0
M  END
> <minimizedAffinity>
-8.84573

> <CNNscore>
0.3822662234

> <CNNaffinity>
7.1856889725

> <CNN_VS>
2.7468461990

> <CNNaffinity_variance>
0.2158127278

$$$$
[H]c1nc([H])c(N([H])C(=O)c2nn(-c3c([H])c([H])c([H])c([H])c3Cl)c(-c3c([H])c([H])c(Cl)c([H])c3[H])c2C([H])([H])C(=O)N([H])[H])c(C([H])([H])[H])c1[H]


 36 39  0  0  0  0  0  0  0  0999 V2000
  -18.7719   13.7981  -18.9726 C   0  0  0  0  0  0  0  0  0  0  0  0
  -18.8706   15.1267  -19.1333 N   0  0  0  0  0  0  0  0  0  0  0  0
  -18.5687   15.4873  -20.3868 N   0  0  0  0  0  0  0  0  0  0  0  0
  -18.2514   14.3718  -21.1153 C   0  0  0  0  0  0  0  0  0  0  0  0
  -18.3840   13.3258  -20.2263 C   0  0  0  0  0  0  0  0  0  0  0  0
  -18.5783   16.8495  -20.7582 C   0  0  0  0  0  0  0  0  0  0  0  0
  -19.7197   17.4160  -21.2756 C   0  0  0  0  0  0  0  0  0  0  0  0
  -19.7423   18.7576  -21.6753 C   0  0  0  0  0  0  0  0  0  0  0  0
  -18.6097   19.5449  -21.5568 C   0  0  0  0  0  0  0  0  0  0  0  0
  -17.4725   18.9750  -21.0397 C   0  0  0  0  0  0  0  0  0  0  0  0
  -17.4501   17.6569  -20.6471 C   0  0  0  0  0  0  0  0  0  0  0  0
  -16.0089   16.9179  -19.9867 Cl  0  0  0  0  0  0  0  0  0  0  0  0
  -17.7292   14.3822  -22.4728 C   0  0  0  0  0  0  0  0  0  0  0  0
  -18.4900   14.5034  -23.6078 C   0  0  0  0  0  0  0  0  0  0  0  0
  -17.9786   14.6233  -24.8938 C   0  0  0  0  0  0  0  0  0  0  0  0
  -16.6189   14.6212  -25.0738 C   0  0  0  0  0  0  0  0  0  0  0  0
  -16.0008   14.7732  -26.7014 Cl  0  0  0  0  0  0  0  0  0  0  0  0
  -15.8141   14.5023  -23.9848 C   0  0  0  0  0  0  0  0  0  0  0  0
  -16.3474   14.3842  -22.6968 C   0  0  0  0  0  0  0  0  0  0  0  0
  -19.8391   11.9059  -17.8090 N   0  0  0  0  0  0  0  0  0  0  0  0
  -19.0193   13.0511  -17.7365 C   0  0  0  0  0  0  0  0  0  0  0  0
  -18.5223   13.4198  -16.6743 O   0  0  0  0  0  0  0  0  0  0  0  0
  -20.2101   11.6906  -18.7968 H   0  0  0  0  0  0  0  0  0  0  0  0
  -18.4836    9.4866  -17.6473 C   0  0  0  0  0  0  0  0  0  0  0  0
  -19.5443    9.8032  -16.6739 C   0  0  0  0  0  0  0  0  0  0  0  0
  -19.8565    8.8935  -15.6837 C   0  0  0  0  0  0  0  0  0  0  0  0
  -20.8403    9.1488  -14.7612 C   0  0  0  0  0  0  0  0  0  0  0  0
  -21.4775   10.3173  -14.8696 N   0  0  0  0  0  0  0  0  0  0  0  0
  -21.1916   11.2420  -15.8407 C   0  0  0  0  0  0  0  0  0  0  0  0
  -20.2194   11.0316  -16.7819 C   0  0  0  0  0  0  0  0  0  0  0  0
  -18.2495   11.8607  -20.4987 C   0  0  0  0  0  0  0  0  0  0  0  0
  -16.7932   11.5186  -20.2633 C   0  0  0  0  0  0  0  0  0  0  0  0
  -16.0257   11.1512  -21.3818 N   0  0  0  0  0  0  0  0  0  0  0  0
  -16.2956   11.5601  -19.1322 O   0  0  0  0  0  0  0  0  0  0  0  0
  -16.2925   10.3671  -22.0448 H   0  0  0  0  0  0  0  0  0  0  0  0
  -15.1160   11.6330  -21.6493 H   0  0  0  0  0  0  0  0  0  0  0  0
 24 25  1  0  0  0
 25 26  2  0  0  0
 26 27  1  0  0  0
 27 28  2  0  0  0
 28 29  1  0  0  0
 29 30  2  0  0  0
 30 20  1  0  0  0
 20 21  1  0  0  0
 21 22  2  0  0  0
 21  1  1  0  0  0
  1  2  2  0  0  0
  2  3  1  0  0  0
  3  6  1  0  0  0
  6  7  2  0  0  0
  7  8  1  0  0  0
  8  9  2  0  0  0
  9 10  1  0  0  0
 10 11  2  0  0  0
 11 12  1  0  0  0
  3  4  1  0  0  0
  4 13  1  0  0  0
 13 14  2  0  0  0
 14 15  1  0  0  0
 15 16  2  0  0  0
 16 17  1  0  0  0
 16 18  1  0  0  0
 18 19  2  0  0  0
  4  5  2  0  0  0
  5 31  1  0  0  0
 31 32  1  0  0  0
 32 33  1  0  0  0
 32 34  2  0  0  0
 30 25  1  0  0  0
  5  1  1  0  0  0
 11  6  1  0  0  0
 19 13  1  0  0  0
 20 23  1  0  0  0
 33 35  1  0  0  0
 33 36  1  0  0  0
M  END
> <minimizedAffinity>
-8.33282

> <CNNscore>
0.3540899456

> <CNNaffinity>
7.3026061058

> <CNN_VS>
2.5857794285

> <CNNaffinity_variance>
0.3154061139

$$$$
[H]OC([H])([H])C([H])([H])n1c(C2([H])C([H])([H])C([H])([H])N(c3nc([H])nc(N([H])[H])c3C#N)C([H])([H])C2([H])[H])nc(-c2c([H])c([H])c(F)c(C([H])([H])[H])c2[H])c1[H]


 34 37  0  0  0  0  0  0  0  0999 V2000
  -19.4160   11.5593  -17.3509 C   0  0  0  0  0  0  0  0  0  0  0  0
  -19.3456   12.8520  -16.8878 C   0  0  0  0  0  0  0  0  0  0  0  0
  -18.7321   13.5918  -17.8652 N   0  0  0  0  0  0  0  0  0  0  0  0
  -18.4334   12.7930  -18.8926 C   0  0  0  0  0  0  0  0  0  0  0  0
  -18.8579   11.5638  -18.5580 N   0  0  0  0  0  0  0  0  0  0  0  0
  -23.1340    9.4127  -14.7861 C   0  0  0  0  0  0  0  0  0  0  0  0
  -21.7776    9.3813  -15.3862 C   0  0  0  0  0  0  0  0  0  0  0  0
  -21.2496   10.4739  -16.0749 C   0  0  0  0  0  0  0  0  0  0  0  0
  -19.9973   10.4369  -16.6258 C   0  0  0  0  0  0  0  0  0  0  0  0
  -19.2422    9.2923  -16.4958 C   0  0  0  0  0  0  0  0  0  0  0  0
  -19.7382    8.1954  -15.8198 C   0  0  0  0  0  0  0  0  0  0  0  0
  -21.0096    8.2425  -15.2644 C   0  0  0  0  0  0  0  0  0  0  0  0
  -21.4597    7.1324  -14.6037 F   0  0  0  0  0  0  0  0  0  0  0  0
  -17.7714   13.1548  -20.1438 C   0  0  0  0  0  0  0  0  0  0  0  0
  -18.7456   13.7600  -21.1362 C   0  0  0  0  0  0  0  0  0  0  0  0
  -17.8771   14.4745  -22.1412 C   0  0  0  0  0  0  0  0  0  0  0  0
  -17.0308   13.4743  -22.8316 N   0  0  0  0  0  0  0  0  0  0  0  0
  -16.3654   12.4875  -22.0540 C   0  0  0  0  0  0  0  0  0  0  0  0
  -17.1908   11.9590  -20.8685 C   0  0  0  0  0  0  0  0  0  0  0  0
  -17.0171   13.6135  -24.2420 C   0  0  0  0  0  0  0  0  0  0  0  0
  -17.5264   12.6255  -25.0443 N   0  0  0  0  0  0  0  0  0  0  0  0
  -17.4942   12.7083  -26.3766 C   0  0  0  0  0  0  0  0  0  0  0  0
  -16.9627   13.7609  -27.0001 N   0  0  0  0  0  0  0  0  0  0  0  0
  -16.4456   14.7672  -26.2828 C   0  0  0  0  0  0  0  0  0  0  0  0
  -15.8636   15.9183  -26.9009 N   0  0  0  0  0  0  0  0  0  0  0  0
  -16.4789   14.6826  -24.8759 C   0  0  0  0  0  0  0  0  0  0  0  0
  -14.9530   15.8183  -27.4296 H   0  0  0  0  0  0  0  0  0  0  0  0
  -16.2896   16.8643  -26.8609 H   0  0  0  0  0  0  0  0  0  0  0  0
  -15.9496   15.8100  -24.1467 C   0  0  0  0  0  0  0  0  0  0  0  0
  -15.4994   16.7167  -23.5792 N   0  0  0  0  0  0  0  0  0  0  0  0
  -18.5010   14.9975  -17.7125 C   0  0  0  0  0  0  0  0  0  0  0  0
  -19.6171   15.6012  -16.9131 C   0  0  0  0  0  0  0  0  0  0  0  0
  -19.2361   16.2581  -15.7718 O   0  0  0  0  0  0  0  0  0  0  0  0
  -19.6805   17.1509  -15.6626 H   0  0  0  0  0  0  0  0  0  0  0  0
  6  7  1  0  0  0
  7  8  2  0  0  0
  8  9  1  0  0  0
  9  1  1  0  0  0
  1  2  2  0  0  0
  2  3  1  0  0  0
  3 31  1  0  0  0
 31 32  1  0  0  0
 32 33  1  0  0  0
  3  4  1  0  0  0
  4 14  1  0  0  0
 14 15  1  0  0  0
 15 16  1  0  0  0
 16 17  1  0  0  0
 17 20  1  0  0  0
 20 21  2  0  0  0
 21 22  1  0  0  0
 22 23  2  0  0  0
 23 24  1  0  0  0
 24 25  1  0  0  0
 24 26  2  0  0  0
 26 29  1  0  0  0
 29 30  3  0  0  0
 17 18  1  0  0  0
 18 19  1  0  0  0
  4  5  2  0  0  0
  9 10  2  0  0  0
 10 11  1  0  0  0
 11 12  2  0  0  0
 12 13  1  0  0  0
 12  7  1  0  0  0
  5  1  1  0  0  0
 19 14  1  0  0  0
 26 20  1  0  0  0
 33 34  1  0  0  0
 25 27  1  0  0  0
 25 28  1  0  0  0
M  END
> <minimizedAffinity>
-8.93627

> <CNNscore>
0.2334097475

> <CNNaffinity>
6.8471040726

> <CNN_VS>
1.5981808901

> <CNNaffinity_variance>
0.0425532684

$$$$
[H]OC([H])([H])C([H])([H])n1c(C2([H])C([H])([H])C([H])([H])N(c3nc([H])nc(N([H])[H])c3C#N)C([H])([H])C2([H])[H])nc(-c2c([H])c([H])c(F)c(C([H])([H])[H])c2[H])c1[H]


 34 37  0  0  0  0  0  0  0  0999 V2000
  -17.9980   15.4426  -22.7633 C   0  0  0  0  0  0  0  0  0  0  0  0
  -18.2239   16.6879  -22.2258 C   0  0  0  0  0  0  0  0  0  0  0  0
  -18.6703   16.4931  -20.9445 N   0  0  0  0  0  0  0  0  0  0  0  0
  -18.7201   15.1822  -20.6956 C   0  0  0  0  0  0  0  0  0  0  0  0
  -18.3074   14.5641  -21.8140 N   0  0  0  0  0  0  0  0  0  0  0  0
  -17.3420   12.4559  -26.7204 C   0  0  0  0  0  0  0  0  0  0  0  0
  -17.1864   13.7618  -26.0339 C   0  0  0  0  0  0  0  0  0  0  0  0
  -17.6615   13.9766  -24.7397 C   0  0  0  0  0  0  0  0  0  0  0  0
  -17.5140   15.1846  -24.1133 C   0  0  0  0  0  0  0  0  0  0  0  0
  -16.8811   16.2110  -24.7788 C   0  0  0  0  0  0  0  0  0  0  0  0
  -16.4006   16.0280  -26.0601 C   0  0  0  0  0  0  0  0  0  0  0  0
  -16.5549   14.7992  -26.6872 C   0  0  0  0  0  0  0  0  0  0  0  0
  -16.0633   14.6633  -27.9566 F   0  0  0  0  0  0  0  0  0  0  0  0
  -19.1408   14.5213  -19.4624 C   0  0  0  0  0  0  0  0  0  0  0  0
  -18.0612   13.6015  -18.9254 C   0  0  0  0  0  0  0  0  0  0  0  0
  -18.4369   13.3674  -17.4836 C   0  0  0  0  0  0  0  0  0  0  0  0
  -19.7423   12.6692  -17.4418 N   0  0  0  0  0  0  0  0  0  0  0  0
  -20.7971   13.1403  -18.2705 C   0  0  0  0  0  0  0  0  0  0  0  0
  -20.3402   13.6184  -19.6592 C   0  0  0  0  0  0  0  0  0  0  0  0
  -19.7655   11.5529  -16.5687 C   0  0  0  0  0  0  0  0  0  0  0  0
  -20.4745   11.6003  -15.3965 N   0  0  0  0  0  0  0  0  0  0  0  0
  -20.4861   10.5808  -14.5342 C   0  0  0  0  0  0  0  0  0  0  0  0
  -19.8057    9.4577  -14.7687 N   0  0  0  0  0  0  0  0  0  0  0  0
  -19.0895    9.3369  -15.8943 C   0  0  0  0  0  0  0  0  0  0  0  0
  -18.3420    8.1550  -16.1944 N   0  0  0  0  0  0  0  0  0  0  0  0
  -19.0761   10.4116  -16.8067 C   0  0  0  0  0  0  0  0  0  0  0  0
  -17.4868    7.9218  -15.6172 H   0  0  0  0  0  0  0  0  0  0  0  0
  -18.5933    7.4997  -16.9595 H   0  0  0  0  0  0  0  0  0  0  0  0
  -18.3262   10.2179  -18.0245 C   0  0  0  0  0  0  0  0  0  0  0  0
  -17.7355   10.0882  -19.0150 N   0  0  0  0  0  0  0  0  0  0  0  0
  -18.9983   17.5922  -20.0859 C   0  0  0  0  0  0  0  0  0  0  0  0
  -18.1136   18.7587  -20.4110 C   0  0  0  0  0  0  0  0  0  0  0  0
  -16.9263   18.8063  -19.7274 O   0  0  0  0  0  0  0  0  0  0  0  0
  -16.1391   19.0072  -20.3160 H   0  0  0  0  0  0  0  0  0  0  0  0
  6  7  1  0  0  0
  7  8  2  0  0  0
  8  9  1  0  0  0
  9  1  1  0  0  0
  1  2  2  0  0  0
  2  3  1  0  0  0
  3 31  1  0  0  0
 31 32  1  0  0  0
 32 33  1  0  0  0
  3  4  1  0  0  0
  4 14  1  0  0  0
 14 15  1  0  0  0
 15 16  1  0  0  0
 16 17  1  0  0  0
 17 20  1  0  0  0
 20 21  2  0  0  0
 21 22  1  0  0  0
 22 23  2  0  0  0
 23 24  1  0  0  0
 24 25  1  0  0  0
 24 26  2  0  0  0
 26 29  1  0  0  0
 29 30  3  0  0  0
 17 18  1  0  0  0
 18 19  1  0  0  0
  4  5  2  0  0  0
  9 10  2  0  0  0
 10 11  1  0  0  0
 11 12  2  0  0  0
 12 13  1  0  0  0
 12  7  1  0  0  0
  5  1  1  0  0  0
 19 14  1  0  0  0
 26 20  1  0  0  0
 33 34  1  0  0  0
 25 27  1  0  0  0
 25 28  1  0  0  0
M  END
> <minimizedAffinity>
-8.65052

> <CNNscore>
0.2004970759

> <CNNaffinity>
6.8007330894

> <CNN_VS>
1.3635270596

> <CNNaffinity_variance>
0.3673738539

$$$$
[H]OC([H])([H])C([H])([H])n1c(C2([H])C([H])([H])C([H])([H])N(c3nc([H])nc(N([H])[H])c3C#N)C([H])([H])C2([H])[H])nc(-c2c([H])c([H])c(F)c(C([H])([H])[H])c2[H])c1[H]


 34 37  0  0  0  0  0  0  0  0999 V2000
  -19.2396   10.3470  -17.2851 C   0  0  0  0  0  0  0  0  0  0  0  0
  -18.0483    9.9205  -17.8232 C   0  0  0  0  0  0  0  0  0  0  0  0
  -17.5543   10.9589  -18.5692 N   0  0  0  0  0  0  0  0  0  0  0  0
  -18.4026   11.9877  -18.4984 C   0  0  0  0  0  0  0  0  0  0  0  0
  -19.4182   11.5933  -17.7134 N   0  0  0  0  0  0  0  0  0  0  0  0
  -20.2708    6.2058  -14.6781 C   0  0  0  0  0  0  0  0  0  0  0  0
  -20.6221    7.5656  -15.1559 C   0  0  0  0  0  0  0  0  0  0  0  0
  -19.7721    8.2996  -15.9839 C   0  0  0  0  0  0  0  0  0  0  0  0
  -20.1035    9.5538  -16.4203 C   0  0  0  0  0  0  0  0  0  0  0  0
  -21.3057   10.1021  -16.0314 C   0  0  0  0  0  0  0  0  0  0  0  0
  -22.1672    9.3996  -15.2126 C   0  0  0  0  0  0  0  0  0  0  0  0
  -21.8222    8.1281  -14.7750 C   0  0  0  0  0  0  0  0  0  0  0  0
  -22.7064    7.4692  -13.9654 F   0  0  0  0  0  0  0  0  0  0  0  0
  -18.2796   13.2941  -19.1408 C   0  0  0  0  0  0  0  0  0  0  0  0
  -18.9872   14.3755  -18.3471 C   0  0  0  0  0  0  0  0  0  0  0  0
  -18.4058   15.6703  -18.8573 C   0  0  0  0  0  0  0  0  0  0  0  0
  -18.7481   15.8104  -20.2914 N   0  0  0  0  0  0  0  0  0  0  0  0
  -18.5710   14.6908  -21.1496 C   0  0  0  0  0  0  0  0  0  0  0  0
  -18.9328   13.3415  -20.5059 C   0  0  0  0  0  0  0  0  0  0  0  0
  -19.2611   17.0863  -20.6344 C   0  0  0  0  0  0  0  0  0  0  0  0
  -20.6082   17.2714  -20.8088 N   0  0  0  0  0  0  0  0  0  0  0  0
  -21.1201   18.4508  -21.1692 C   0  0  0  0  0  0  0  0  0  0  0  0
  -20.3448   19.5157  -21.3794 N   0  0  0  0  0  0  0  0  0  0  0  0
  -19.0178   19.4125  -21.2278 C   0  0  0  0  0  0  0  0  0  0  0  0
  -18.1415   20.5226  -21.4408 N   0  0  0  0  0  0  0  0  0  0  0  0
  -18.4748   18.1685  -20.8466 C   0  0  0  0  0  0  0  0  0  0  0  0
  -18.0071   20.8965  -22.4211 H   0  0  0  0  0  0  0  0  0  0  0  0
  -17.6193   20.9925  -20.6763 H   0  0  0  0  0  0  0  0  0  0  0  0
  -17.0455   18.1177  -20.6534 C   0  0  0  0  0  0  0  0  0  0  0  0
  -15.8937   18.1046  -20.5117 N   0  0  0  0  0  0  0  0  0  0  0  0
  -16.3095   10.8567  -19.2712 C   0  0  0  0  0  0  0  0  0  0  0  0
  -16.5060   10.0446  -20.5166 C   0  0  0  0  0  0  0  0  0  0  0  0
  -15.3843    9.8604  -21.2830 O   0  0  0  0  0  0  0  0  0  0  0  0
  -15.2630    8.9112  -21.5842 H   0  0  0  0  0  0  0  0  0  0  0  0
  6  7  1  0  0  0
  7  8  2  0  0  0
  8  9  1  0  0  0
  9  1  1  0  0  0
  1  2  2  0  0  0
  2  3  1  0  0  0
  3 31  1  0  0  0
 31 32  1  0  0  0
 32 33  1  0  0  0
  3  4  1  0  0  0
  4 14  1  0  0  0
 14 15  1  0  0  0
 15 16  1  0  0  0
 16 17  1  0  0  0
 17 20  1  0  0  0
 20 21  2  0  0  0
 21 22  1  0  0  0
 22 23  2  0  0  0
 23 24  1  0  0  0
 24 25  1  0  0  0
 24 26  2  0  0  0
 26 29  1  0  0  0
 29 30  3  0  0  0
 17 18  1  0  0  0
 18 19  1  0  0  0
  4  5  2  0  0  0
  9 10  2  0  0  0
 10 11  1  0  0  0
 11 12  2  0  0  0
 12 13  1  0  0  0
 12  7  1  0  0  0
  5  1  1  0  0  0
 19 14  1  0  0  0
 26 20  1  0  0  0
 33 34  1  0  0  0
 25 27  1  0  0  0
 25 28  1  0  0  0
M  END
> <minimizedAffinity>
-8.04096

> <CNNscore>
0.1054731384

> <CNNaffinity>
6.0543966293

> <CNN_VS>
0.6385762095

> <CNNaffinity_variance>
0.2107327431

$$$$
[H]OC([H])([H])C([H])([H])n1c(C2([H])C([H])([H])C([H])([H])N(c3nc([H])nc(N([H])[H])c3C#N)C([H])([H])C2([H])[H])nc(-c2c([H])c([H])c(F)c(C([H])([H])[H])c2[H])c1[H]


 34 37  0  0  0  0  0  0  0  0999 V2000
  -18.3516   14.8045  -20.1028 C   0  0  0  0  0  0  0  0  0  0  0  0
  -18.5591   15.7323  -21.0961 C   0  0  0  0  0  0  0  0  0  0  0  0
  -19.0164   16.8719  -20.4869 N   0  0  0  0  0  0  0  0  0  0  0  0
  -19.0903   16.6618  -19.1703 C   0  0  0  0  0  0  0  0  0  0  0  0
  -18.6817   15.4000  -18.9604 N   0  0  0  0  0  0  0  0  0  0  0  0
  -17.5527   10.1193  -18.5473 C   0  0  0  0  0  0  0  0  0  0  0  0
  -17.4688   11.1813  -19.5798 C   0  0  0  0  0  0  0  0  0  0  0  0
  -17.9452   12.4726  -19.3509 C   0  0  0  0  0  0  0  0  0  0  0  0
  -17.8642   13.4468  -20.3088 C   0  0  0  0  0  0  0  0  0  0  0  0
  -17.2982   13.1425  -21.5270 C   0  0  0  0  0  0  0  0  0  0  0  0
  -16.8181   11.8735  -21.7823 C   0  0  0  0  0  0  0  0  0  0  0  0
  -16.9048   10.8920  -20.8045 C   0  0  0  0  0  0  0  0  0  0  0  0
  -16.4163    9.6491  -21.1016 F   0  0  0  0  0  0  0  0  0  0  0  0
  -19.5296   17.5982  -18.1384 C   0  0  0  0  0  0  0  0  0  0  0  0
  -19.1185   17.1363  -16.7536 C   0  0  0  0  0  0  0  0  0  0  0  0
  -19.2233   18.3684  -15.8900 C   0  0  0  0  0  0  0  0  0  0  0  0
  -20.6373   18.8077  -15.8614 N   0  0  0  0  0  0  0  0  0  0  0  0
  -21.3607   18.8656  -17.0840 C   0  0  0  0  0  0  0  0  0  0  0  0
  -21.0366   17.7228  -18.0612 C   0  0  0  0  0  0  0  0  0  0  0  0
  -21.1200   19.0955  -14.5602 C   0  0  0  0  0  0  0  0  0  0  0  0
  -20.9617   20.3451  -14.0193 N   0  0  0  0  0  0  0  0  0  0  0  0
  -21.3706   20.6383  -12.7824 C   0  0  0  0  0  0  0  0  0  0  0  0
  -21.9571   19.7272  -12.0045 N   0  0  0  0  0  0  0  0  0  0  0  0
  -22.1471   18.4833  -12.4643 C   0  0  0  0  0  0  0  0  0  0  0  0
  -22.7703   17.4688  -11.6718 N   0  0  0  0  0  0  0  0  0  0  0  0
  -21.7169   18.1714  -13.7702 C   0  0  0  0  0  0  0  0  0  0  0  0
  -22.2624   17.0860  -10.8267 H   0  0  0  0  0  0  0  0  0  0  0  0
  -23.7093   17.0780  -11.8805 H   0  0  0  0  0  0  0  0  0  0  0  0
  -21.9826   16.8318  -14.2367 C   0  0  0  0  0  0  0  0  0  0  0  0
  -22.2179   15.7516  -14.5899 N   0  0  0  0  0  0  0  0  0  0  0  0
  -19.3305   18.0523  -21.2357 C   0  0  0  0  0  0  0  0  0  0  0  0
  -18.0635   18.7830  -21.5671 C   0  0  0  0  0  0  0  0  0  0  0  0
  -17.9408   20.0309  -21.0130 O   0  0  0  0  0  0  0  0  0  0  0  0
  -17.0409   20.1933  -20.6003 H   0  0  0  0  0  0  0  0  0  0  0  0
  6  7  1  0  0  0
  7  8  2  0  0  0
  8  9  1  0  0  0
  9  1  1  0  0  0
  1  2  2  0  0  0
  2  3  1  0  0  0
  3 31  1  0  0  0
 31 32  1  0  0  0
 32 33  1  0  0  0
  3  4  1  0  0  0
  4 14  1  0  0  0
 14 15  1  0  0  0
 15 16  1  0  0  0
 16 17  1  0  0  0
 17 20  1  0  0  0
 20 21  2  0  0  0
 21 22  1  0  0  0
 22 23  2  0  0  0
 23 24  1  0  0  0
 24 25  1  0  0  0
 24 26  2  0  0  0
 26 29  1  0  0  0
 29 30  3  0  0  0
 17 18  1  0  0  0
 18 19  1  0  0  0
  4  5  2  0  0  0
  9 10  2  0  0  0
 10 11  1  0  0  0
 11 12  2  0  0  0
 12 13  1  0  0  0
 12  7  1  0  0  0
  5  1  1  0  0  0
 19 14  1  0  0  0
 26 20  1  0  0  0
 33 34  1  0  0  0
 25 27  1  0  0  0
 25 28  1  0  0  0
M  END
> <minimizedAffinity>
-7.10548

> <CNNscore>
0.0803095996

> <CNNaffinity>
5.7259330750

> <CNN_VS>
0.4598473907

> <CNNaffinity_variance>
0.1370357871

$$$$
[H]OC([H])([H])C([H])([H])n1c(C2([H])C([H])([H])C([H])([H])N(c3nc([H])nc(N([H])[H])c3C#N)C([H])([H])C2([H])[H])nc(-c2c([H])c([H])c(F)c(C([H])([H])[H])c2[H])c1[H]


 34 37  0  0  0  0  0  0  0  0999 V2000
  -18.8026   16.7519  -22.9715 C   0  0  0  0  0  0  0  0  0  0  0  0
  -19.6911   17.4911  -23.7164 C   0  0  0  0  0  0  0  0  0  0  0  0
  -20.4890   18.1659  -22.8293 N   0  0  0  0  0  0  0  0  0  0  0  0
  -20.1129   17.8592  -21.5853 C   0  0  0  0  0  0  0  0  0  0  0  0
  -19.0874   16.9994  -21.6963 N   0  0  0  0  0  0  0  0  0  0  0  0
  -17.2839   13.0283  -25.9443 C   0  0  0  0  0  0  0  0  0  0  0  0
  -17.0132   14.0886  -24.9427 C   0  0  0  0  0  0  0  0  0  0  0  0
  -18.0265   14.9057  -24.4403 C   0  0  0  0  0  0  0  0  0  0  0  0
  -17.7684   15.8819  -23.5164 C   0  0  0  0  0  0  0  0  0  0  0  0
  -16.4764   16.0597  -23.0735 C   0  0  0  0  0  0  0  0  0  0  0  0
  -15.4531   15.2664  -23.5524 C   0  0  0  0  0  0  0  0  0  0  0  0
  -15.7246   14.2789  -24.4896 C   0  0  0  0  0  0  0  0  0  0  0  0
  -14.6799   13.5169  -24.9360 F   0  0  0  0  0  0  0  0  0  0  0  0
  -20.6873   18.3434  -20.3322 C   0  0  0  0  0  0  0  0  0  0  0  0
  -19.6305   18.9559  -19.4333 C   0  0  0  0  0  0  0  0  0  0  0  0
  -20.4042   19.7869  -18.4405 C   0  0  0  0  0  0  0  0  0  0  0  0
  -21.2674   18.8873  -17.6410 N   0  0  0  0  0  0  0  0  0  0  0  0
  -22.0263   17.8910  -18.3139 C   0  0  0  0  0  0  0  0  0  0  0  0
  -21.2946   17.2357  -19.4976 C   0  0  0  0  0  0  0  0  0  0  0  0
  -21.1995   19.1223  -16.2449 C   0  0  0  0  0  0  0  0  0  0  0  0
  -21.9736   20.0929  -15.6637 N   0  0  0  0  0  0  0  0  0  0  0  0
  -21.9057   20.3653  -14.3582 C   0  0  0  0  0  0  0  0  0  0  0  0
  -21.0779   19.7047  -13.5472 N   0  0  0  0  0  0  0  0  0  0  0  0
  -20.2901   18.7411  -14.0427 C   0  0  0  0  0  0  0  0  0  0  0  0
  -19.3848   18.0027  -13.2174 N   0  0  0  0  0  0  0  0  0  0  0  0
  -20.3603   18.4510  -15.4205 C   0  0  0  0  0  0  0  0  0  0  0  0
  -18.5409   18.4912  -12.8075 H   0  0  0  0  0  0  0  0  0  0  0  0
  -19.5087   16.9967  -12.9925 H   0  0  0  0  0  0  0  0  0  0  0  0
  -19.5249   17.3761  -15.8994 C   0  0  0  0  0  0  0  0  0  0  0  0
  -18.8456   16.5290  -16.3090 N   0  0  0  0  0  0  0  0  0  0  0  0
  -21.5311   19.0444  -23.2709 C   0  0  0  0  0  0  0  0  0  0  0  0
  -20.9243   20.2225  -23.9730 C   0  0  0  0  0  0  0  0  0  0  0  0
  -21.4427   20.5017  -25.2110 O   0  0  0  0  0  0  0  0  0  0  0  0
  -21.6409   21.4759  -25.3460 H   0  0  0  0  0  0  0  0  0  0  0  0
  6  7  1  0  0  0
  7  8  2  0  0  0
  8  9  1  0  0  0
  9  1  1  0  0  0
  1  2  2  0  0  0
  2  3  1  0  0  0
  3 31  1  0  0  0
 31 32  1  0  0  0
 32 33  1  0  0  0
  3  4  1  0  0  0
  4 14  1  0  0  0
 14 15  1  0  0  0
 15 16  1  0  0  0
 16 17  1  0  0  0
 17 20  1  0  0  0
 20 21  2  0  0  0
 21 22  1  0  0  0
 22 23  2  0  0  0
 23 24  1  0  0  0
 24 25  1  0  0  0
 24 26  2  0  0  0
 26 29  1  0  0  0
 29 30  3  0  0  0
 17 18  1  0  0  0
 18 19  1  0  0  0
  4  5  2  0  0  0
  9 10  2  0  0  0
 10 11  1  0  0  0
 11 12  2  0  0  0
 12 13  1  0  0  0
 12  7  1  0  0  0
  5  1  1  0  0  0
 19 14  1  0  0  0
 26 20  1  0  0  0
 33 34  1  0  0  0
 25 27  1  0  0  0
 25 28  1  0  0  0
M  END
> <minimizedAffinity>
-6.81309

> <CNNscore>
0.0779044554

> <CNNaffinity>
5.6566934586

> <CNN_VS>
0.4406816363

> <CNNaffinity_variance>
0.1863993406

$$$$
[H]OC([H])([H])C([H])([H])n1c(C2([H])C([H])([H])C([H])([H])N(c3nc([H])nc(N([H])[H])c3C#N)C([H])([H])C2([H])[H])nc(-c2c([H])c([H])c(F)c(C([H])([H])[H])c2[H])c1[H]


 34 37  0  0  0  0  0  0  0  0999 V2000
  -19.2484   10.6515  -17.3982 C   0  0  0  0  0  0  0  0  0  0  0  0
  -18.0938   10.3745  -18.0915 C   0  0  0  0  0  0  0  0  0  0  0  0
  -17.8216   11.4724  -18.8658 N   0  0  0  0  0  0  0  0  0  0  0  0
  -18.7670   12.3932  -18.6628 C   0  0  0  0  0  0  0  0  0  0  0  0
  -19.6225   11.8730  -17.7680 N   0  0  0  0  0  0  0  0  0  0  0  0
  -23.0864    9.3549  -14.4659 C   0  0  0  0  0  0  0  0  0  0  0  0
  -21.7379    9.1068  -15.0324 C   0  0  0  0  0  0  0  0  0  0  0  0
  -21.1429    9.9884  -15.9355 C   0  0  0  0  0  0  0  0  0  0  0  0
  -19.8983    9.7522  -16.4536 C   0  0  0  0  0  0  0  0  0  0  0  0
  -19.2190    8.6162  -16.0726 C   0  0  0  0  0  0  0  0  0  0  0  0
  -19.7823    7.7256  -15.1806 C   0  0  0  0  0  0  0  0  0  0  0  0
  -21.0452    7.9737  -14.6605 C   0  0  0  0  0  0  0  0  0  0  0  0
  -21.5638    7.0641  -13.7801 F   0  0  0  0  0  0  0  0  0  0  0  0
  -18.8780   13.7124  -19.2810 C   0  0  0  0  0  0  0  0  0  0  0  0
  -19.0488   13.6118  -20.7846 C   0  0  0  0  0  0  0  0  0  0  0  0
  -19.5915   14.9560  -21.2011 C   0  0  0  0  0  0  0  0  0  0  0  0
  -18.5801   15.9921  -20.8900 N   0  0  0  0  0  0  0  0  0  0  0  0
  -17.9433   15.9669  -19.6190 C   0  0  0  0  0  0  0  0  0  0  0  0
  -17.6319   14.5530  -19.0996 C   0  0  0  0  0  0  0  0  0  0  0  0
  -18.3414   16.8957  -21.9556 C   0  0  0  0  0  0  0  0  0  0  0  0
  -19.0614   18.0577  -22.0578 N   0  0  0  0  0  0  0  0  0  0  0  0
  -18.8879   18.9115  -23.0697 C   0  0  0  0  0  0  0  0  0  0  0  0
  -18.0013   18.6782  -24.0385 N   0  0  0  0  0  0  0  0  0  0  0  0
  -17.2595   17.5630  -24.0066 C   0  0  0  0  0  0  0  0  0  0  0  0
  -16.2952   17.2645  -25.0198 N   0  0  0  0  0  0  0  0  0  0  0  0
  -17.4402   16.6602  -22.9389 C   0  0  0  0  0  0  0  0  0  0  0  0
  -16.6256   17.0248  -25.9956 H   0  0  0  0  0  0  0  0  0  0  0  0
  -15.2707   17.2688  -24.8516 H   0  0  0  0  0  0  0  0  0  0  0  0
  -16.5882   15.4955  -22.9246 C   0  0  0  0  0  0  0  0  0  0  0  0
  -15.9127   14.5519  -22.9418 N   0  0  0  0  0  0  0  0  0  0  0  0
  -16.6724   11.5256  -19.7198 C   0  0  0  0  0  0  0  0  0  0  0  0
  -16.5823   10.2555  -20.5122 C   0  0  0  0  0  0  0  0  0  0  0  0
  -15.4074   10.0680  -21.1932 O   0  0  0  0  0  0  0  0  0  0  0  0
  -15.0315    9.1441  -21.0858 H   0  0  0  0  0  0  0  0  0  0  0  0
  6  7  1  0  0  0
  7  8  2  0  0  0
  8  9  1  0  0  0
  9  1  1  0  0  0
  1  2  2  0  0  0
  2  3  1  0  0  0
  3 31  1  0  0  0
 31 32  1  0  0  0
 32 33  1  0  0  0
  3  4  1  0  0  0
  4 14  1  0  0  0
 14 15  1  0  0  0
 15 16  1  0  0  0
 16 17  1  0  0  0
 17 20  1  0  0  0
 20 21  2  0  0  0
 21 22  1  0  0  0
 22 23  2  0  0  0
 23 24  1  0  0  0
 24 25  1  0  0  0
 24 26  2  0  0  0
 26 29  1  0  0  0
 29 30  3  0  0  0
 17 18  1  0  0  0
 18 19  1  0  0  0
  4  5  2  0  0  0
  9 10  2  0  0  0
 10 11  1  0  0  0
 11 12  2  0  0  0
 12 13  1  0  0  0
 12  7  1  0  0  0
  5  1  1  0  0  0
 19 14  1  0  0  0
 26 20  1  0  0  0
 33 34  1  0  0  0
 25 27  1  0  0  0
 25 28  1  0  0  0
M  END
> <minimizedAffinity>
-7.73470

> <CNNscore>
0.0770770460

> <CNNaffinity>
6.3211393356

> <CNN_VS>
0.4872147441

> <CNNaffinity_variance>
0.0715259463

$$$$
[H]OC([H])([H])C([H])([H])n1c(C2([H])C([H])([H])C([H])([H])N(c3nc([H])nc(N([H])[H])c3C#N)C([H])([H])C2([H])[H])nc(-c2c([H])c([H])c(F)c(C([H])([H])[H])c2[H])c1[H]


 34 37  0  0  0  0  0  0  0  0999 V2000
  -17.2297   13.5211  -22.6456 C   0  0  0  0  0  0  0  0  0  0  0  0
  -17.0363   12.3346  -21.9781 C   0  0  0  0  0  0  0  0  0  0  0  0
  -17.3719   12.5561  -20.6676 N   0  0  0  0  0  0  0  0  0  0  0  0
  -17.7575   13.8267  -20.5260 C   0  0  0  0  0  0  0  0  0  0  0  0
  -17.6631   14.3931  -21.7398 N   0  0  0  0  0  0  0  0  0  0  0  0
  -14.8553   15.7559  -26.4373 C   0  0  0  0  0  0  0  0  0  0  0  0
  -15.8606   14.7996  -25.9123 C   0  0  0  0  0  0  0  0  0  0  0  0
  -16.0632   14.6187  -24.5437 C   0  0  0  0  0  0  0  0  0  0  0  0
  -16.9928   13.7342  -24.0675 C   0  0  0  0  0  0  0  0  0  0  0  0
  -17.7450   13.0065  -24.9629 C   0  0  0  0  0  0  0  0  0  0  0  0
  -17.5668   13.1642  -26.3228 C   0  0  0  0  0  0  0  0  0  0  0  0
  -16.6214   14.0637  -26.7964 C   0  0  0  0  0  0  0  0  0  0  0  0
  -16.4792   14.1871  -28.1514 F   0  0  0  0  0  0  0  0  0  0  0  0
  -18.1958   14.4974  -19.3043 C   0  0  0  0  0  0  0  0  0  0  0  0
  -19.7083   14.5360  -19.2002 C   0  0  0  0  0  0  0  0  0  0  0  0
  -19.9869   14.8219  -17.7458 C   0  0  0  0  0  0  0  0  0  0  0  0
  -19.4377   16.1562  -17.4119 N   0  0  0  0  0  0  0  0  0  0  0  0
  -18.1258   16.4853  -17.8501 C   0  0  0  0  0  0  0  0  0  0  0  0
  -17.7781   15.9517  -19.2502 C   0  0  0  0  0  0  0  0  0  0  0  0
  -20.3396   16.9826  -16.6960 C   0  0  0  0  0  0  0  0  0  0  0  0
  -20.4221   16.9036  -15.3299 N   0  0  0  0  0  0  0  0  0  0  0  0
  -21.2877   17.6401  -14.6290 C   0  0  0  0  0  0  0  0  0  0  0  0
  -22.1213   18.4952  -15.2233 N   0  0  0  0  0  0  0  0  0  0  0  0
  -22.0988   18.6281  -16.5561 C   0  0  0  0  0  0  0  0  0  0  0  0
  -22.9709   19.5300  -17.2431 N   0  0  0  0  0  0  0  0  0  0  0  0
  -21.1854   17.8521  -17.2985 C   0  0  0  0  0  0  0  0  0  0  0  0
  -24.0082   19.3255  -17.2742 H   0  0  0  0  0  0  0  0  0  0  0  0
  -22.6404   20.3897  -17.7223 H   0  0  0  0  0  0  0  0  0  0  0  0
  -21.1681   18.0619  -18.7262 C   0  0  0  0  0  0  0  0  0  0  0  0
  -21.1789   18.2120  -19.8770 N   0  0  0  0  0  0  0  0  0  0  0  0
  -17.2928   11.5175  -19.6839 C   0  0  0  0  0  0  0  0  0  0  0  0
  -17.0480   10.2044  -20.3656 C   0  0  0  0  0  0  0  0  0  0  0  0
  -15.8711    9.5814  -20.0393 O   0  0  0  0  0  0  0  0  0  0  0  0
  -15.9827    8.6040  -19.8426 H   0  0  0  0  0  0  0  0  0  0  0  0
  6  7  1  0  0  0
  7  8  2  0  0  0
  8  9  1  0  0  0
  9  1  1  0  0  0
  1  2  2  0  0  0
  2  3  1  0  0  0
  3 31  1  0  0  0
 31 32  1  0  0  0
 32 33  1  0  0  0
  3  4  1  0  0  0
  4 14  1  0  0  0
 14 15  1  0  0  0
 15 16  1  0  0  0
 16 17  1  0  0  0
 17 20  1  0  0  0
 20 21  2  0  0  0
 21 22  1  0  0  0
 22 23  2  0  0  0
 23 24  1  0  0  0
 24 25  1  0  0  0
 24 26  2  0  0  0
 26 29  1  0  0  0
 29 30  3  0  0  0
 17 18  1  0  0  0
 18 19  1  0  0  0
  4  5  2  0  0  0
  9 10  2  0  0  0
 10 11  1  0  0  0
 11 12  2  0  0  0
 12 13  1  0  0  0
 12  7  1  0  0  0
  5  1  1  0  0  0
 19 14  1  0  0  0
 26 20  1  0  0  0
 33 34  1  0  0  0
 25 27  1  0  0  0
 25 28  1  0  0  0
M  END
> <minimizedAffinity>
-8.08140

> <CNNscore>
0.0767082199

> <CNNaffinity>
6.5490293503

> <CNN_VS>
0.5023643970

> <CNNaffinity_variance>
0.1139553636

$$$$
[H]OC([H])([H])C([H])([H])n1c(C2([H])C([H])([H])C([H])([H])N(c3nc([H])nc(N([H])[H])c3C#N)C([H])([H])C2([H])[H])nc(-c2c([H])c([H])c(F)c(C([H])([H])[H])c2[H])c1[H]


 34 37  0  0  0  0  0  0  0  0999 V2000
  -18.0435   13.5991  -21.2272 C   0  0  0  0  0  0  0  0  0  0  0  0
  -19.1724   14.3610  -21.0380 C   0  0  0  0  0  0  0  0  0  0  0  0
  -19.8622   13.7980  -19.9958 N   0  0  0  0  0  0  0  0  0  0  0  0
  -19.1909   12.7310  -19.5556 C   0  0  0  0  0  0  0  0  0  0  0  0
  -18.0901   12.6298  -20.3180 N   0  0  0  0  0  0  0  0  0  0  0  0
  -15.5446   16.6185  -24.3334 C   0  0  0  0  0  0  0  0  0  0  0  0
  -15.8049   15.2819  -23.7447 C   0  0  0  0  0  0  0  0  0  0  0  0
  -16.7898   15.0805  -22.7771 C   0  0  0  0  0  0  0  0  0  0  0  0
  -17.0236   13.8441  -22.2387 C   0  0  0  0  0  0  0  0  0  0  0  0
  -16.2671   12.7746  -22.6642 C   0  0  0  0  0  0  0  0  0  0  0  0
  -15.2855   12.9434  -23.6203 C   0  0  0  0  0  0  0  0  0  0  0  0
  -15.0556   14.2013  -24.1605 C   0  0  0  0  0  0  0  0  0  0  0  0
  -14.0732   14.3215  -25.1048 F   0  0  0  0  0  0  0  0  0  0  0  0
  -19.5587   11.8300  -18.4658 C   0  0  0  0  0  0  0  0  0  0  0  0
  -19.7780   12.5836  -17.1681 C   0  0  0  0  0  0  0  0  0  0  0  0
  -20.5656   11.6344  -16.3001 C   0  0  0  0  0  0  0  0  0  0  0  0
  -19.7372   10.4351  -16.0374 N   0  0  0  0  0  0  0  0  0  0  0  0
  -19.0482    9.8282  -17.1229 C   0  0  0  0  0  0  0  0  0  0  0  0
  -18.4714   10.8282  -18.1395 C   0  0  0  0  0  0  0  0  0  0  0  0
  -19.7090   10.0476  -14.6743 C   0  0  0  0  0  0  0  0  0  0  0  0
  -19.4315   10.9657  -13.6949 N   0  0  0  0  0  0  0  0  0  0  0  0
  -19.3595   10.6258  -12.4056 C   0  0  0  0  0  0  0  0  0  0  0  0
  -19.5548    9.3700  -12.0007 N   0  0  0  0  0  0  0  0  0  0  0  0
  -19.8314    8.4166  -12.9003 C   0  0  0  0  0  0  0  0  0  0  0  0
  -20.0491    7.0551  -12.5199 N   0  0  0  0  0  0  0  0  0  0  0  0
  -19.9086    8.7730  -14.2622 C   0  0  0  0  0  0  0  0  0  0  0  0
  -19.2383    6.4833  -12.1531 H   0  0  0  0  0  0  0  0  0  0  0  0
  -20.9728    6.5855  -12.5834 H   0  0  0  0  0  0  0  0  0  0  0  0
  -20.2520    7.7208  -15.1883 C   0  0  0  0  0  0  0  0  0  0  0  0
  -20.5568    6.8742  -15.9213 N   0  0  0  0  0  0  0  0  0  0  0  0
  -21.0976   14.3498  -19.5247 C   0  0  0  0  0  0  0  0  0  0  0  0
  -20.8304   15.6604  -18.8464 C   0  0  0  0  0  0  0  0  0  0  0  0
  -21.0308   16.7752  -19.6187 O   0  0  0  0  0  0  0  0  0  0  0  0
  -21.5493   17.4938  -19.1484 H   0  0  0  0  0  0  0  0  0  0  0  0
  6  7  1  0  0  0
  7  8  2  0  0  0
  8  9  1  0  0  0
  9  1  1  0  0  0
  1  2  2  0  0  0
  2  3  1  0  0  0
  3 31  1  0  0  0
 31 32  1  0  0  0
 32 33  1  0  0  0
  3  4  1  0  0  0
  4 14  1  0  0  0
 14 15  1  0  0  0
 15 16  1  0  0  0
 16 17  1  0  0  0
 17 20  1  0  0  0
 20 21  2  0  0  0
 21 22  1  0  0  0
 22 23  2  0  0  0
 23 24  1  0  0  0
 24 25  1  0  0  0
 24 26  2  0  0  0
 26 29  1  0  0  0
 29 30  3  0  0  0
 17 18  1  0  0  0
 18 19  1  0  0  0
  4  5  2  0  0  0
  9 10  2  0  0  0
 10 11  1  0  0  0
 11 12  2  0  0  0
 12 13  1  0  0  0
 12  7  1  0  0  0
  5  1  1  0  0  0
 19 14  1  0  0  0
 26 20  1  0  0  0
 33 34  1  0  0  0
 25 27  1  0  0  0
 25 28  1  0  0  0
M  END
> <minimizedAffinity>
-7.89617

> <CNNscore>
0.0682576522

> <CNNaffinity>
6.1216912270

> <CNN_VS>
0.4178522825

> <CNNaffinity_variance>
0.0870390981

$$$$
[H]OC([H])([H])C([H])([H])n1c(C2([H])C([H])([H])C([H])([H])N(c3nc([H])nc(N([H])[H])c3C#N)C([H])([H])C2([H])[H])nc(-c2c([H])c([H])c(F)c(C([H])([H])[H])c2[H])c1[H]


 34 37  0  0  0  0  0  0  0  0999 V2000
  -17.3803   13.4353  -22.4210 C   0  0  0  0  0  0  0  0  0  0  0  0
  -17.0891   12.2847  -21.7269 C   0  0  0  0  0  0  0  0  0  0  0  0
  -17.5225   12.4756  -20.4406 N   0  0  0  0  0  0  0  0  0  0  0  0
  -18.0604   13.6935  -20.3389 C   0  0  0  0  0  0  0  0  0  0  0  0
  -17.9631   14.2577  -21.5535 N   0  0  0  0  0  0  0  0  0  0  0  0
  -14.8552   15.7031  -26.0939 C   0  0  0  0  0  0  0  0  0  0  0  0
  -15.8834   14.7452  -25.6186 C   0  0  0  0  0  0  0  0  0  0  0  0
  -16.1385   14.5495  -24.2608 C   0  0  0  0  0  0  0  0  0  0  0  0
  -17.0889   13.6637  -23.8304 C   0  0  0  0  0  0  0  0  0  0  0  0
  -17.8094   12.9495  -24.7621 C   0  0  0  0  0  0  0  0  0  0  0  0
  -17.5791   13.1220  -26.1123 C   0  0  0  0  0  0  0  0  0  0  0  0
  -16.6130   14.0228  -26.5393 C   0  0  0  0  0  0  0  0  0  0  0  0
  -16.4190   14.1610  -27.8864 F   0  0  0  0  0  0  0  0  0  0  0  0
  -18.6426   14.3179  -19.1532 C   0  0  0  0  0  0  0  0  0  0  0  0
  -19.8625   13.5605  -18.6652 C   0  0  0  0  0  0  0  0  0  0  0  0
  -20.0614   14.0255  -17.2443 C   0  0  0  0  0  0  0  0  0  0  0  0
  -20.3575   15.4765  -17.2581 N   0  0  0  0  0  0  0  0  0  0  0  0
  -19.5571   16.3306  -18.0651 C   0  0  0  0  0  0  0  0  0  0  0  0
  -19.1511   15.7195  -19.4170 C   0  0  0  0  0  0  0  0  0  0  0  0
  -21.4685   15.8406  -16.4568 C   0  0  0  0  0  0  0  0  0  0  0  0
  -22.6971   15.2710  -16.6696 N   0  0  0  0  0  0  0  0  0  0  0  0
  -23.7720   15.6195  -15.9582 C   0  0  0  0  0  0  0  0  0  0  0  0
  -23.7070   16.5440  -14.9988 N   0  0  0  0  0  0  0  0  0  0  0  0
  -22.5397   17.1447  -14.7322 C   0  0  0  0  0  0  0  0  0  0  0  0
  -22.4151   18.1422  -13.7148 N   0  0  0  0  0  0  0  0  0  0  0  0
  -21.4031   16.7781  -15.4815 C   0  0  0  0  0  0  0  0  0  0  0  0
  -22.8760   19.0841  -13.8528 H   0  0  0  0  0  0  0  0  0  0  0  0
  -21.8892   17.9943  -12.8319 H   0  0  0  0  0  0  0  0  0  0  0  0
  -20.1600   17.4207  -15.1286 C   0  0  0  0  0  0  0  0  0  0  0  0
  -19.1513   17.9354  -14.8745 N   0  0  0  0  0  0  0  0  0  0  0  0
  -17.3798   11.4609  -19.4392 C   0  0  0  0  0  0  0  0  0  0  0  0
  -16.0329   10.8154  -19.5736 C   0  0  0  0  0  0  0  0  0  0  0  0
  -16.0474    9.4847  -19.9031 O   0  0  0  0  0  0  0  0  0  0  0  0
  -15.3990    9.2510  -20.6321 H   0  0  0  0  0  0  0  0  0  0  0  0
  6  7  1  0  0  0
  7  8  2  0  0  0
  8  9  1  0  0  0
  9  1  1  0  0  0
  1  2  2  0  0  0
  2  3  1  0  0  0
  3 31  1  0  0  0
 31 32  1  0  0  0
 32 33  1  0  0  0
  3  4  1  0  0  0
  4 14  1  0  0  0
 14 15  1  0  0  0
 15 16  1  0  0  0
 16 17  1  0  0  0
 17 20  1  0  0  0
 20 21  2  0  0  0
 21 22  1  0  0  0
 22 23  2  0  0  0
 23 24  1  0  0  0
 24 25  1  0  0  0
 24 26  2  0  0  0
 26 29  1  0  0  0
 29 30  3  0  0  0
 17 18  1  0  0  0
 18 19  1  0  0  0
  4  5  2  0  0  0
  9 10  2  0  0  0
 10 11  1  0  0  0
 11 12  2  0  0  0
 12 13  1  0  0  0
 12  7  1  0  0  0
  5  1  1  0  0  0
 19 14  1  0  0  0
 26 20  1  0  0  0
 33 34  1  0  0  0
 25 27  1  0  0  0
 25 28  1  0  0  0
M  END
> <minimizedAffinity>
-8.17971

> <CNNscore>
0.0653146654

> <CNNaffinity>
6.4208817482

> <CNN_VS>
0.4193777442

> <CNNaffinity_variance>
0.1308541596

$$$$
[H]Cl.[H]O[C@]([H])(C(=O)N([H])[C@]([H])(C(=O)OC([H])([H])n1c([H])c(F)c(=O)n([H])c1=O)C([H])([H])C([H])(C([H])([H])[H])C([H])([H])[H])[C@]([H])(N([H])[H])C([H])([H])c1c([H])c([H])c([H])c([H])c1[H]


 37 38  0  0  0  0  0  0  0  0999 V2000
  -17.4739   15.0127  -24.2063 C   0  0  0  0  0  0  0  0  0  0  0  0
  -18.3839   15.4646  -23.1464 N   0  0  0  0  0  0  0  0  0  0  0  0
  -18.9720   16.7587  -23.1734 C   0  0  0  0  0  0  0  0  0  0  0  0
  -18.6901   17.5096  -24.1341 O   0  0  0  0  0  0  0  0  0  0  0  0
  -18.6266   14.8484  -22.3402 H   0  0  0  0  0  0  0  0  0  0  0  0
  -19.8944   17.2346  -22.1128 C   0  0  0  0  0  0  0  0  0  0  0  0
  -19.1613   17.5464  -20.9761 O   0  0  0  0  0  0  0  0  0  0  0  0
  -18.8323   18.4734  -21.0407 H   0  0  0  0  0  0  0  0  0  0  0  0
  -20.6593   18.4780  -22.5444 C   0  0  0  0  0  0  0  0  0  0  0  0
  -20.5637   19.5294  -21.5819 N   0  0  0  0  0  0  0  0  0  0  0  0
  -20.4450   20.4753  -21.9911 H   0  0  0  0  0  0  0  0  0  0  0  0
  -21.2160   19.4871  -20.7948 H   0  0  0  0  0  0  0  0  0  0  0  0
  -22.0875   18.0585  -22.7624 C   0  0  0  0  0  0  0  0  0  0  0  0
  -22.5774   18.3249  -24.1304 C   0  0  0  0  0  0  0  0  0  0  0  0
  -22.5466   19.5843  -24.7060 C   0  0  0  0  0  0  0  0  0  0  0  0
  -23.0063   19.8303  -25.9882 C   0  0  0  0  0  0  0  0  0  0  0  0
  -23.5130   18.8034  -26.7291 C   0  0  0  0  0  0  0  0  0  0  0  0
  -23.5637   17.5386  -26.2004 C   0  0  0  0  0  0  0  0  0  0  0  0
  -23.1057   17.3071  -24.9297 C   0  0  0  0  0  0  0  0  0  0  0  0
  -17.5655   13.5377  -24.3374 C   0  0  0  0  0  0  0  0  0  0  0  0
  -17.7282   13.0779  -25.5221 O   0  0  0  0  0  0  0  0  0  0  0  0
  -17.4961   12.6134  -23.3539 O   0  0  0  0  0  0  0  0  0  0  0  0
  -16.5577   12.3545  -22.3851 C   0  0  0  0  0  0  0  0  0  0  0  0
  -17.0028   11.7845  -21.1550 N   0  0  0  0  0  0  0  0  0  0  0  0
  -18.0048   12.2258  -20.3809 C   0  0  0  0  0  0  0  0  0  0  0  0
  -18.3498   11.5984  -19.1771 C   0  0  0  0  0  0  0  0  0  0  0  0
  -19.3620   12.0612  -18.4165 F   0  0  0  0  0  0  0  0  0  0  0  0
  -17.6512   10.4976  -18.7624 C   0  0  0  0  0  0  0  0  0  0  0  0
  -17.8748    9.8629  -17.7080 O   0  0  0  0  0  0  0  0  0  0  0  0
  -16.6431   10.0718  -19.5624 N   0  0  0  0  0  0  0  0  0  0  0  0
  -16.3403   10.6905  -20.7009 C   0  0  0  0  0  0  0  0  0  0  0  0
  -15.3708   10.2069  -21.3811 O   0  0  0  0  0  0  0  0  0  0  0  0
  -16.0890    9.2234  -19.2626 H   0  0  0  0  0  0  0  0  0  0  0  0
  -16.1059   15.5534  -23.9950 C   0  0  0  0  0  0  0  0  0  0  0  0
  -14.6163   15.7816  -25.9928 C   0  0  0  0  0  0  0  0  0  0  0  0
  -15.0688   14.8854  -24.8348 C   0  0  0  0  0  0  0  0  0  0  0  0
  -13.8396   14.5386  -23.9748 C   0  0  0  0  0  0  0  0  0  0  0  0
 35 36  1  0  0  0
 36 37  1  0  0  0
 36 34  1  0  0  0
 34  1  1  0  0  0
  1  2  1  0  0  0
  2  3  1  0  0  0
  3  4  2  0  0  0
  3  6  1  0  0  0
  6  7  1  0  0  0
  6  9  1  0  0  0
  9 10  1  0  0  0
  9 13  1  0  0  0
 13 14  1  0  0  0
 14 15  2  0  0  0
 15 16  1  0  0  0
 16 17  2  0  0  0
 17 18  1  0  0  0
 18 19  2  0  0  0
  1 20  1  0  0  0
 20 21  2  0  0  0
 20 22  1  0  0  0
 22 23  1  0  0  0
 23 24  1  0  0  0
 24 25  1  0  0  0
 25 26  2  0  0  0
 26 27  1  0  0  0
 26 28  1  0  0  0
 28 29  2  0  0  0
 28 30  1  0  0  0
 30 31  1  0  0  0
 31 32  2  0  0  0
 19 14  1  0  0  0
 31 24  1  0  0  0
  2  5  1  0  0  0
  7  8  1  0  0  0
 10 11  1  0  0  0
 10 12  1  0  0  0
 30 33  1  0  0  0
M  END
> <minimizedAffinity>
-7.86455

> <CNNscore>
0.9414213300

> <CNNaffinity>
7.2106542587

> <CNN_VS>
6.7882637978

> <CNNaffinity_variance>
0.0446177498

$$$$
[H]Cl.[H]O[C@]([H])(C(=O)N([H])[C@]([H])(C(=O)OC([H])([H])n1c([H])c(F)c(=O)n([H])c1=O)C([H])([H])C([H])(C([H])([H])[H])C([H])([H])[H])[C@]([H])(N([H])[H])C([H])([H])c1c([H])c([H])c([H])c([H])c1[H]


 37 38  0  0  0  0  0  0  0  0999 V2000
  -16.6113   14.8457  -23.3176 C   0  0  0  0  0  0  0  0  0  0  0  0
  -16.8375   15.3516  -21.9579 N   0  0  0  0  0  0  0  0  0  0  0  0
  -16.9669   16.7427  -21.6944 C   0  0  0  0  0  0  0  0  0  0  0  0
  -16.8816   17.5320  -22.6620 O   0  0  0  0  0  0  0  0  0  0  0  0
  -16.9101   14.7042  -21.1430 H   0  0  0  0  0  0  0  0  0  0  0  0
  -17.1962   17.2746  -20.3283 C   0  0  0  0  0  0  0  0  0  0  0  0
  -15.9777   17.6273  -19.7648 O   0  0  0  0  0  0  0  0  0  0  0  0
  -15.7449   18.5468  -20.0331 H   0  0  0  0  0  0  0  0  0  0  0  0
  -18.0903   18.5066  -20.3435 C   0  0  0  0  0  0  0  0  0  0  0  0
  -17.9054   19.3199  -19.1835 N   0  0  0  0  0  0  0  0  0  0  0  0
  -17.9076   20.3402  -19.3710 H   0  0  0  0  0  0  0  0  0  0  0  0
  -18.4220   19.0419  -18.3453 H   0  0  0  0  0  0  0  0  0  0  0  0
  -19.5083   18.0159  -20.4523 C   0  0  0  0  0  0  0  0  0  0  0  0
  -20.2054   18.4931  -21.6641 C   0  0  0  0  0  0  0  0  0  0  0  0
  -19.7699   19.5829  -22.3997 C   0  0  0  0  0  0  0  0  0  0  0  0
  -20.4255   20.0271  -23.5350 C   0  0  0  0  0  0  0  0  0  0  0  0
  -21.5467   19.3778  -23.9611 C   0  0  0  0  0  0  0  0  0  0  0  0
  -22.0154   18.2931  -23.2642 C   0  0  0  0  0  0  0  0  0  0  0  0
  -21.3580   17.8625  -22.1415 C   0  0  0  0  0  0  0  0  0  0  0  0
  -17.4329   13.6292  -23.5327 C   0  0  0  0  0  0  0  0  0  0  0  0
  -18.1837   13.6225  -24.5709 O   0  0  0  0  0  0  0  0  0  0  0  0
  -17.4853   12.5191  -22.7637 O   0  0  0  0  0  0  0  0  0  0  0  0
  -16.5913   11.9488  -21.8912 C   0  0  0  0  0  0  0  0  0  0  0  0
  -17.0896   11.4491  -20.6509 N   0  0  0  0  0  0  0  0  0  0  0  0
  -18.0384   12.0051  -19.8836 C   0  0  0  0  0  0  0  0  0  0  0  0
  -18.4433   11.4376  -18.6688 C   0  0  0  0  0  0  0  0  0  0  0  0
  -19.4000   12.0158  -17.9154 F   0  0  0  0  0  0  0  0  0  0  0  0
  -17.8613   10.2777  -18.2357 C   0  0  0  0  0  0  0  0  0  0  0  0
  -18.1465    9.6877  -17.1702 O   0  0  0  0  0  0  0  0  0  0  0  0
  -16.9049    9.7360  -19.0292 N   0  0  0  0  0  0  0  0  0  0  0  0
  -16.5428   10.3003  -20.1786 C   0  0  0  0  0  0  0  0  0  0  0  0
  -15.6305    9.7072  -20.8512 O   0  0  0  0  0  0  0  0  0  0  0  0
  -16.4408    8.8399  -18.7153 H   0  0  0  0  0  0  0  0  0  0  0  0
  -15.1583   14.6940  -23.5906 C   0  0  0  0  0  0  0  0  0  0  0  0
  -13.5684   14.9455  -25.5066 C   0  0  0  0  0  0  0  0  0  0  0  0
  -14.6574   15.6098  -24.6571 C   0  0  0  0  0  0  0  0  0  0  0  0
  -15.8167   16.0226  -25.5824 C   0  0  0  0  0  0  0  0  0  0  0  0
 35 36  1  0  0  0
 36 37  1  0  0  0
 36 34  1  0  0  0
 34  1  1  0  0  0
  1  2  1  0  0  0
  2  3  1  0  0  0
  3  4  2  0  0  0
  3  6  1  0  0  0
  6  7  1  0  0  0
  6  9  1  0  0  0
  9 10  1  0  0  0
  9 13  1  0  0  0
 13 14  1  0  0  0
 14 15  2  0  0  0
 15 16  1  0  0  0
 16 17  2  0  0  0
 17 18  1  0  0  0
 18 19  2  0  0  0
  1 20  1  0  0  0
 20 21  2  0  0  0
 20 22  1  0  0  0
 22 23  1  0  0  0
 23 24  1  0  0  0
 24 25  1  0  0  0
 25 26  2  0  0  0
 26 27  1  0  0  0
 26 28  1  0  0  0
 28 29  2  0  0  0
 28 30  1  0  0  0
 30 31  1  0  0  0
 31 32  2  0  0  0
 19 14  1  0  0  0
 31 24  1  0  0  0
  2  5  1  0  0  0
  7  8  1  0  0  0
 10 11  1  0  0  0
 10 12  1  0  0  0
 30 33  1  0  0  0
M  END
> <minimizedAffinity>
-7.49719

> <CNNscore>
0.7832218409

> <CNNaffinity>
7.1548752785

> <CNN_VS>
5.6038546562

> <CNNaffinity_variance>
0.0834743232

$$$$
[H]Cl.[H]O[C@]([H])(C(=O)N([H])[C@]([H])(C(=O)OC([H])([H])n1c([H])c(F)c(=O)n([H])c1=O)C([H])([H])C([H])(C([H])([H])[H])C([H])([H])[H])[C@]([H])(N([H])[H])C([H])([H])c1c([H])c([H])c([H])c([H])c1[H]


 37 38  0  0  0  0  0  0  0  0999 V2000
  -16.8342   14.8005  -23.9191 C   0  0  0  0  0  0  0  0  0  0  0  0
  -17.3645   15.5945  -22.8036 N   0  0  0  0  0  0  0  0  0  0  0  0
  -18.0090   16.8430  -23.0203 C   0  0  0  0  0  0  0  0  0  0  0  0
  -18.1127   17.2513  -24.1989 O   0  0  0  0  0  0  0  0  0  0  0  0
  -17.2840   15.2654  -21.8168 H   0  0  0  0  0  0  0  0  0  0  0  0
  -18.5523   17.6605  -21.9074 C   0  0  0  0  0  0  0  0  0  0  0  0
  -18.4238   19.0059  -22.2238 O   0  0  0  0  0  0  0  0  0  0  0  0
  -19.2027   19.2950  -22.7542 H   0  0  0  0  0  0  0  0  0  0  0  0
  -20.0247   17.3669  -21.6562 C   0  0  0  0  0  0  0  0  0  0  0  0
  -20.8574   17.8514  -22.7111 N   0  0  0  0  0  0  0  0  0  0  0  0
  -21.6318   17.2128  -22.9732 H   0  0  0  0  0  0  0  0  0  0  0  0
  -21.1193   18.8395  -22.6675 H   0  0  0  0  0  0  0  0  0  0  0  0
  -20.3782   18.0021  -20.3391 C   0  0  0  0  0  0  0  0  0  0  0  0
  -19.9108   17.2309  -19.1689 C   0  0  0  0  0  0  0  0  0  0  0  0
  -19.4119   17.8321  -18.0252 C   0  0  0  0  0  0  0  0  0  0  0  0
  -18.9751   17.1063  -16.9305 C   0  0  0  0  0  0  0  0  0  0  0  0
  -19.0310   15.7440  -16.9615 C   0  0  0  0  0  0  0  0  0  0  0  0
  -19.5176   15.1046  -18.0734 C   0  0  0  0  0  0  0  0  0  0  0  0
  -19.9471   15.8336  -19.1513 C   0  0  0  0  0  0  0  0  0  0  0  0
  -17.3456   13.4113  -23.8208 C   0  0  0  0  0  0  0  0  0  0  0  0
  -17.6827   12.8469  -24.9205 O   0  0  0  0  0  0  0  0  0  0  0  0
  -17.4986   12.6625  -22.7063 O   0  0  0  0  0  0  0  0  0  0  0  0
  -16.6023   12.1375  -21.8079 C   0  0  0  0  0  0  0  0  0  0  0  0
  -17.1164   11.5402  -20.6182 N   0  0  0  0  0  0  0  0  0  0  0  0
  -18.0877   12.0247  -19.8309 C   0  0  0  0  0  0  0  0  0  0  0  0
  -18.5067   11.3629  -18.6697 C   0  0  0  0  0  0  0  0  0  0  0  0
  -19.4860   11.8704  -17.8947 F   0  0  0  0  0  0  0  0  0  0  0  0
  -17.9156   10.1820  -18.3122 C   0  0  0  0  0  0  0  0  0  0  0  0
  -18.2118    9.5106  -17.2993 O   0  0  0  0  0  0  0  0  0  0  0  0
  -16.9363    9.7140  -19.1245 N   0  0  0  0  0  0  0  0  0  0  0  0
  -16.5612   10.3670  -20.2215 C   0  0  0  0  0  0  0  0  0  0  0  0
  -15.6276    9.8382  -20.9179 O   0  0  0  0  0  0  0  0  0  0  0  0
  -16.4648    8.8035  -18.8686 H   0  0  0  0  0  0  0  0  0  0  0  0
  -15.3567   14.9346  -24.0082 C   0  0  0  0  0  0  0  0  0  0  0  0
  -13.5861   15.1232  -25.7664 C   0  0  0  0  0  0  0  0  0  0  0  0
  -14.9019   15.6839  -25.2160 C   0  0  0  0  0  0  0  0  0  0  0  0
  -15.9709   15.5985  -26.3208 C   0  0  0  0  0  0  0  0  0  0  0  0
 35 36  1  0  0  0
 36 37  1  0  0  0
 36 34  1  0  0  0
 34  1  1  0  0  0
  1  2  1  0  0  0
  2  3  1  0  0  0
  3  4  2  0  0  0
  3  6  1  0  0  0
  6  7  1  0  0  0
  6  9  1  0  0  0
  9 10  1  0  0  0
  9 13  1  0  0  0
 13 14  1  0  0  0
 14 15  2  0  0  0
 15 16  1  0  0  0
 16 17  2  0  0  0
 17 18  1  0  0  0
 18 19  2  0  0  0
  1 20  1  0  0  0
 20 21  2  0  0  0
 20 22  1  0  0  0
 22 23  1  0  0  0
 23 24  1  0  0  0
 24 25  1  0  0  0
 25 26  2  0  0  0
 26 27  1  0  0  0
 26 28  1  0  0  0
 28 29  2  0  0  0
 28 30  1  0  0  0
 30 31  1  0  0  0
 31 32  2  0  0  0
 19 14  1  0  0  0
 31 24  1  0  0  0
  2  5  1  0  0  0
  7  8  1  0  0  0
 10 11  1  0  0  0
 10 12  1  0  0  0
 30 33  1  0  0  0
M  END
> <minimizedAffinity>
-7.09109

> <CNNscore>
0.7580346465

> <CNNaffinity>
7.1747269630

> <CNN_VS>
5.4386916161

> <CNNaffinity_variance>
0.1705391705

$$$$
[H]Cl.[H]O[C@]([H])(C(=O)N([H])[C@]([H])(C(=O)OC([H])([H])n1c([H])c(F)c(=O)n([H])c1=O)C([H])([H])C([H])(C([H])([H])[H])C([H])([H])[H])[C@]([H])(N([H])[H])C([H])([H])c1c([H])c([H])c([H])c([H])c1[H]


 37 38  0  0  0  0  0  0  0  0999 V2000
  -18.5453   16.2779  -18.8529 C   0  0  0  0  0  0  0  0  0  0  0  0
  -18.3451   16.1826  -20.3043 N   0  0  0  0  0  0  0  0  0  0  0  0
  -17.1055   16.5292  -20.9080 C   0  0  0  0  0  0  0  0  0  0  0  0
  -16.1807   16.9219  -20.1618 O   0  0  0  0  0  0  0  0  0  0  0  0
  -19.1081   15.8570  -20.9372 H   0  0  0  0  0  0  0  0  0  0  0  0
  -16.8823   16.4395  -22.3723 C   0  0  0  0  0  0  0  0  0  0  0  0
  -15.6810   17.0582  -22.6901 O   0  0  0  0  0  0  0  0  0  0  0  0
  -14.9417   16.4148  -22.5852 H   0  0  0  0  0  0  0  0  0  0  0  0
  -16.8161   14.9946  -22.8470 C   0  0  0  0  0  0  0  0  0  0  0  0
  -16.8028   14.0705  -21.7576 N   0  0  0  0  0  0  0  0  0  0  0  0
  -17.3781   13.2207  -21.9096 H   0  0  0  0  0  0  0  0  0  0  0  0
  -15.8946   13.8947  -21.3205 H   0  0  0  0  0  0  0  0  0  0  0  0
  -15.5776   14.8687  -23.6917 C   0  0  0  0  0  0  0  0  0  0  0  0
  -15.8575   14.7968  -25.1405 C   0  0  0  0  0  0  0  0  0  0  0  0
  -16.7866   13.9242  -25.6824 C   0  0  0  0  0  0  0  0  0  0  0  0
  -17.0466   13.8598  -27.0404 C   0  0  0  0  0  0  0  0  0  0  0  0
  -16.3703   14.6810  -27.8939 C   0  0  0  0  0  0  0  0  0  0  0  0
  -15.4404   15.5618  -27.4026 C   0  0  0  0  0  0  0  0  0  0  0  0
  -15.1914   15.6166  -26.0561 C   0  0  0  0  0  0  0  0  0  0  0  0
  -18.2817   14.9564  -18.2322 C   0  0  0  0  0  0  0  0  0  0  0  0
  -18.2046   14.9304  -16.9535 O   0  0  0  0  0  0  0  0  0  0  0  0
  -18.1138   13.7684  -18.8542 O   0  0  0  0  0  0  0  0  0  0  0  0
  -18.9813   12.7501  -19.1647 C   0  0  0  0  0  0  0  0  0  0  0  0
  -18.9332   11.5631  -18.3741 N   0  0  0  0  0  0  0  0  0  0  0  0
  -19.7672   11.2255  -17.3798 C   0  0  0  0  0  0  0  0  0  0  0  0
  -19.6190   10.0379  -16.6523 C   0  0  0  0  0  0  0  0  0  0  0  0
  -20.4712    9.7207  -15.6571 F   0  0  0  0  0  0  0  0  0  0  0  0
  -18.5944    9.1826  -16.9530 C   0  0  0  0  0  0  0  0  0  0  0  0
  -18.3709    8.0993  -16.3689 O   0  0  0  0  0  0  0  0  0  0  0  0
  -17.7653    9.5470  -17.9618 N   0  0  0  0  0  0  0  0  0  0  0  0
  -17.9334   10.6829  -18.6341 C   0  0  0  0  0  0  0  0  0  0  0  0
  -17.0947   10.9314  -19.5675 O   0  0  0  0  0  0  0  0  0  0  0  0
  -16.9662    8.9022  -18.2120 H   0  0  0  0  0  0  0  0  0  0  0  0
  -19.8672   16.8807  -18.5398 C   0  0  0  0  0  0  0  0  0  0  0  0
  -21.6721   15.5305  -19.6270 C   0  0  0  0  0  0  0  0  0  0  0  0
  -20.8332   16.8122  -19.6753 C   0  0  0  0  0  0  0  0  0  0  0  0
  -21.7843   18.0221  -19.6298 C   0  0  0  0  0  0  0  0  0  0  0  0
 35 36  1  0  0  0
 36 37  1  0  0  0
 36 34  1  0  0  0
 34  1  1  0  0  0
  1  2  1  0  0  0
  2  3  1  0  0  0
  3  4  2  0  0  0
  3  6  1  0  0  0
  6  7  1  0  0  0
  6  9  1  0  0  0
  9 10  1  0  0  0
  9 13  1  0  0  0
 13 14  1  0  0  0
 14 15  2  0  0  0
 15 16  1  0  0  0
 16 17  2  0  0  0
 17 18  1  0  0  0
 18 19  2  0  0  0
  1 20  1  0  0  0
 20 21  2  0  0  0
 20 22  1  0  0  0
 22 23  1  0  0  0
 23 24  1  0  0  0
 24 25  1  0  0  0
 25 26  2  0  0  0
 26 27  1  0  0  0
 26 28  1  0  0  0
 28 29  2  0  0  0
 28 30  1  0  0  0
 30 31  1  0  0  0
 31 32  2  0  0  0
 19 14  1  0  0  0
 31 24  1  0  0  0
  2  5  1  0  0  0
  7  8  1  0  0  0
 10 11  1  0  0  0
 10 12  1  0  0  0
 30 33  1  0  0  0
M  END
> <minimizedAffinity>
-7.48154

> <CNNscore>
0.4220612049

> <CNNaffinity>
6.6673536301

> <CNN_VS>
2.8140313625

> <CNNaffinity_variance>
0.0376664884

$$$$
[H]Cl.[H]O[C@]([H])(C(=O)N([H])[C@]([H])(C(=O)OC([H])([H])n1c([H])c(F)c(=O)n([H])c1=O)C([H])([H])C([H])(C([H])([H])[H])C([H])([H])[H])[C@]([H])(N([H])[H])C([H])([H])c1c([H])c([H])c([H])c([H])c1[H]


 37 38  0  0  0  0  0  0  0  0999 V2000
  -17.6416   13.4074  -20.1417 C   0  0  0  0  0  0  0  0  0  0  0  0
  -18.7044   14.1833  -19.4903 N   0  0  0  0  0  0  0  0  0  0  0  0
  -18.7637   14.3217  -18.0766 C   0  0  0  0  0  0  0  0  0  0  0  0
  -17.8773   13.7585  -17.3957 O   0  0  0  0  0  0  0  0  0  0  0  0
  -19.4491   14.6571  -20.0465 H   0  0  0  0  0  0  0  0  0  0  0  0
  -19.8286   15.1016  -17.3986 C   0  0  0  0  0  0  0  0  0  0  0  0
  -20.2036   14.4464  -16.2337 O   0  0  0  0  0  0  0  0  0  0  0  0
  -19.6043   14.7139  -15.4982 H   0  0  0  0  0  0  0  0  0  0  0  0
  -19.3569   16.5011  -17.0292 C   0  0  0  0  0  0  0  0  0  0  0  0
  -19.4571   16.7496  -15.6259 N   0  0  0  0  0  0  0  0  0  0  0  0
  -18.6578   17.2763  -15.2260 H   0  0  0  0  0  0  0  0  0  0  0  0
  -20.3739   17.0434  -15.2797 H   0  0  0  0  0  0  0  0  0  0  0  0
  -20.1945   17.4676  -17.8213 C   0  0  0  0  0  0  0  0  0  0  0  0
  -19.7213   17.6584  -19.2077 C   0  0  0  0  0  0  0  0  0  0  0  0
  -20.5031   17.3686  -20.3136 C   0  0  0  0  0  0  0  0  0  0  0  0
  -20.0565   17.5489  -21.6113 C   0  0  0  0  0  0  0  0  0  0  0  0
  -18.7992   18.0305  -21.8285 C   0  0  0  0  0  0  0  0  0  0  0  0
  -17.9885   18.3316  -20.7636 C   0  0  0  0  0  0  0  0  0  0  0  0
  -18.4415   18.1488  -19.4832 C   0  0  0  0  0  0  0  0  0  0  0  0
  -17.2984   14.0371  -21.4404 C   0  0  0  0  0  0  0  0  0  0  0  0
  -16.6790   15.1574  -21.3868 O   0  0  0  0  0  0  0  0  0  0  0  0
  -17.5590   13.5698  -22.6815 O   0  0  0  0  0  0  0  0  0  0  0  0
  -16.7735   12.9645  -23.6315 C   0  0  0  0  0  0  0  0  0  0  0  0
  -16.4373   13.7118  -24.7998 N   0  0  0  0  0  0  0  0  0  0  0  0
  -15.5150   14.6803  -24.8963 C   0  0  0  0  0  0  0  0  0  0  0  0
  -15.2754   15.3661  -26.0938 C   0  0  0  0  0  0  0  0  0  0  0  0
  -14.3419   16.3359  -26.1654 F   0  0  0  0  0  0  0  0  0  0  0  0
  -15.9980   15.0499  -27.2117 C   0  0  0  0  0  0  0  0  0  0  0  0
  -15.8656   15.5973  -28.3286 O   0  0  0  0  0  0  0  0  0  0  0  0
  -16.9242   14.0678  -27.0878 N   0  0  0  0  0  0  0  0  0  0  0  0
  -17.1276   13.4350  -25.9350 C   0  0  0  0  0  0  0  0  0  0  0  0
  -18.0258   12.5241  -25.9266 O   0  0  0  0  0  0  0  0  0  0  0  0
  -17.4949   13.8062  -27.9379 H   0  0  0  0  0  0  0  0  0  0  0  0
  -18.0007   11.9665  -20.2033 C   0  0  0  0  0  0  0  0  0  0  0  0
  -17.7163   10.2881  -18.3691 C   0  0  0  0  0  0  0  0  0  0  0  0
  -17.0338   11.0840  -19.4869 C   0  0  0  0  0  0  0  0  0  0  0  0
  -16.3960   10.0913  -20.4759 C   0  0  0  0  0  0  0  0  0  0  0  0
 35 36  1  0  0  0
 36 37  1  0  0  0
 36 34  1  0  0  0
 34  1  1  0  0  0
  1  2  1  0  0  0
  2  3  1  0  0  0
  3  4  2  0  0  0
  3  6  1  0  0  0
  6  7  1  0  0  0
  6  9  1  0  0  0
  9 10  1  0  0  0
  9 13  1  0  0  0
 13 14  1  0  0  0
 14 15  2  0  0  0
 15 16  1  0  0  0
 16 17  2  0  0  0
 17 18  1  0  0  0
 18 19  2  0  0  0
  1 20  1  0  0  0
 20 21  2  0  0  0
 20 22  1  0  0  0
 22 23  1  0  0  0
 23 24  1  0  0  0
 24 25  1  0  0  0
 25 26  2  0  0  0
 26 27  1  0  0  0
 26 28  1  0  0  0
 28 29  2  0  0  0
 28 30  1  0  0  0
 30 31  1  0  0  0
 31 32  2  0  0  0
 19 14  1  0  0  0
 31 24  1  0  0  0
  2  5  1  0  0  0
  7  8  1  0  0  0
 10 11  1  0  0  0
 10 12  1  0  0  0
 30 33  1  0  0  0
M  END
> <minimizedAffinity>
-7.86093

> <CNNscore>
0.4159424603

> <CNNaffinity>
6.4475736618

> <CNN_VS>
2.6818196774

> <CNNaffinity_variance>
0.4374047816

$$$$
[H]Cl.[H]O[C@]([H])(C(=O)N([H])[C@]([H])(C(=O)OC([H])([H])n1c([H])c(F)c(=O)n([H])c1=O)C([H])([H])C([H])(C([H])([H])[H])C([H])([H])[H])[C@]([H])(N([H])[H])C([H])([H])c1c([H])c([H])c([H])c([H])c1[H]


 37 38  0  0  0  0  0  0  0  0999 V2000
  -17.7937   13.2607  -20.5060 C   0  0  0  0  0  0  0  0  0  0  0  0
  -19.1098   13.7857  -20.1209 N   0  0  0  0  0  0  0  0  0  0  0  0
  -19.2437   14.8208  -19.1556 C   0  0  0  0  0  0  0  0  0  0  0  0
  -18.1995   15.2766  -18.6377 O   0  0  0  0  0  0  0  0  0  0  0  0
  -19.9876   13.4140  -20.5450 H   0  0  0  0  0  0  0  0  0  0  0  0
  -20.5639   15.3656  -18.7529 C   0  0  0  0  0  0  0  0  0  0  0  0
  -21.3282   15.5973  -19.8883 O   0  0  0  0  0  0  0  0  0  0  0  0
  -21.7996   14.7696  -20.1421 H   0  0  0  0  0  0  0  0  0  0  0  0
  -21.3239   14.4005  -17.8538 C   0  0  0  0  0  0  0  0  0  0  0  0
  -22.4699   15.0102  -17.2572 N   0  0  0  0  0  0  0  0  0  0  0  0
  -23.3078   14.3998  -17.2171 H   0  0  0  0  0  0  0  0  0  0  0  0
  -22.3046   15.5591  -16.4097 H   0  0  0  0  0  0  0  0  0  0  0  0
  -20.3521   13.9167  -16.8123 C   0  0  0  0  0  0  0  0  0  0  0  0
  -20.3765   12.4523  -16.6189 C   0  0  0  0  0  0  0  0  0  0  0  0
  -19.4564   11.6023  -17.2101 C   0  0  0  0  0  0  0  0  0  0  0  0
  -19.4821   10.2306  -17.0264 C   0  0  0  0  0  0  0  0  0  0  0  0
  -20.4446    9.6764  -16.2349 C   0  0  0  0  0  0  0  0  0  0  0  0
  -21.3774   10.4790  -15.6286 C   0  0  0  0  0  0  0  0  0  0  0  0
  -21.3421   11.8358  -15.8179 C   0  0  0  0  0  0  0  0  0  0  0  0
  -17.3416   13.9310  -21.7500 C   0  0  0  0  0  0  0  0  0  0  0  0
  -16.7152   15.0394  -21.6072 O   0  0  0  0  0  0  0  0  0  0  0  0
  -17.5091   13.5118  -23.0239 O   0  0  0  0  0  0  0  0  0  0  0  0
  -16.6499   12.9601  -23.9423 C   0  0  0  0  0  0  0  0  0  0  0  0
  -16.3034   13.7367  -25.0881 N   0  0  0  0  0  0  0  0  0  0  0  0
  -15.3624   14.6894  -25.1586 C   0  0  0  0  0  0  0  0  0  0  0  0
  -15.1138   15.4073  -26.3353 C   0  0  0  0  0  0  0  0  0  0  0  0
  -14.1615   16.3603  -26.3808 F   0  0  0  0  0  0  0  0  0  0  0  0
  -15.8469   15.1405  -27.4592 C   0  0  0  0  0  0  0  0  0  0  0  0
  -15.7080   15.7198  -28.5591 O   0  0  0  0  0  0  0  0  0  0  0  0
  -16.7920   14.1736  -27.3617 N   0  0  0  0  0  0  0  0  0  0  0  0
  -17.0035   13.5092  -26.2284 C   0  0  0  0  0  0  0  0  0  0  0  0
  -17.9195   12.6165  -26.2442 O   0  0  0  0  0  0  0  0  0  0  0  0
  -17.3711   13.9500  -28.2170 H   0  0  0  0  0  0  0  0  0  0  0  0
  -17.8083   11.7752  -20.5475 C   0  0  0  0  0  0  0  0  0  0  0  0
  -16.2194   11.1488  -18.7185 C   0  0  0  0  0  0  0  0  0  0  0  0
  -16.4865   11.1608  -20.2276 C   0  0  0  0  0  0  0  0  0  0  0  0
  -16.4420    9.7111  -20.7444 C   0  0  0  0  0  0  0  0  0  0  0  0
 35 36  1  0  0  0
 36 37  1  0  0  0
 36 34  1  0  0  0
 34  1  1  0  0  0
  1  2  1  0  0  0
  2  3  1  0  0  0
  3  4  2  0  0  0
  3  6  1  0  0  0
  6  7  1  0  0  0
  6  9  1  0  0  0
  9 10  1  0  0  0
  9 13  1  0  0  0
 13 14  1  0  0  0
 14 15  2  0  0  0
 15 16  1  0  0  0
 16 17  2  0  0  0
 17 18  1  0  0  0
 18 19  2  0  0  0
  1 20  1  0  0  0
 20 21  2  0  0  0
 20 22  1  0  0  0
 22 23  1  0  0  0
 23 24  1  0  0  0
 24 25  1  0  0  0
 25 26  2  0  0  0
 26 27  1  0  0  0
 26 28  1  0  0  0
 28 29  2  0  0  0
 28 30  1  0  0  0
 30 31  1  0  0  0
 31 32  2  0  0  0
 19 14  1  0  0  0
 31 24  1  0  0  0
  2  5  1  0  0  0
  7  8  1  0  0  0
 10 11  1  0  0  0
 10 12  1  0  0  0
 30 33  1  0  0  0
M  END
> <minimizedAffinity>
-8.04144

> <CNNscore>
0.3348004222

> <CNNaffinity>
5.8858804703

> <CNN_VS>
1.9705952406

> <CNNaffinity_variance>
0.6185011268

$$$$
[H]Cl.[H]O[C@]([H])(C(=O)N([H])[C@]([H])(C(=O)OC([H])([H])n1c([H])c(F)c(=O)n([H])c1=O)C([H])([H])C([H])(C([H])([H])[H])C([H])([H])[H])[C@]([H])(N([H])[H])C([H])([H])c1c([H])c([H])c([H])c([H])c1[H]


 37 38  0  0  0  0  0  0  0  0999 V2000
  -17.6140   12.8137  -20.2291 C   0  0  0  0  0  0  0  0  0  0  0  0
  -18.5815   13.8418  -19.8255 N   0  0  0  0  0  0  0  0  0  0  0  0
  -18.7348   14.2250  -18.4651 C   0  0  0  0  0  0  0  0  0  0  0  0
  -18.0162   13.6566  -17.6125 O   0  0  0  0  0  0  0  0  0  0  0  0
  -19.1865   14.3227  -20.5264 H   0  0  0  0  0  0  0  0  0  0  0  0
  -19.7060   15.2618  -18.0362 C   0  0  0  0  0  0  0  0  0  0  0  0
  -20.2933   14.8711  -16.8408 O   0  0  0  0  0  0  0  0  0  0  0  0
  -19.7264   15.1569  -16.0867 H   0  0  0  0  0  0  0  0  0  0  0  0
  -19.0348   16.6110  -17.8206 C   0  0  0  0  0  0  0  0  0  0  0  0
  -17.7394   16.6695  -18.4204 N   0  0  0  0  0  0  0  0  0  0  0  0
  -17.5229   17.5713  -18.8852 H   0  0  0  0  0  0  0  0  0  0  0  0
  -16.9672   16.2772  -17.8758 H   0  0  0  0  0  0  0  0  0  0  0  0
  -18.9642   16.8311  -16.3340 C   0  0  0  0  0  0  0  0  0  0  0  0
  -19.5574   18.1124  -15.8995 C   0  0  0  0  0  0  0  0  0  0  0  0
  -19.6547   18.4804  -14.5677 C   0  0  0  0  0  0  0  0  0  0  0  0
  -20.2108   19.6819  -14.1641 C   0  0  0  0  0  0  0  0  0  0  0  0
  -20.6871   20.5506  -15.1015 C   0  0  0  0  0  0  0  0  0  0  0  0
  -20.6122   20.2288  -16.4330 C   0  0  0  0  0  0  0  0  0  0  0  0
  -20.0595   19.0362  -16.8206 C   0  0  0  0  0  0  0  0  0  0  0  0
  -17.0561   13.1587  -21.5598 C   0  0  0  0  0  0  0  0  0  0  0  0
  -16.7023   12.1773  -22.3035 O   0  0  0  0  0  0  0  0  0  0  0  0
  -16.8759   14.3896  -22.0880 O   0  0  0  0  0  0  0  0  0  0  0  0
  -17.5851   15.1191  -23.0104 C   0  0  0  0  0  0  0  0  0  0  0  0
  -17.1033   15.1530  -24.3531 N   0  0  0  0  0  0  0  0  0  0  0  0
  -17.3054   14.2282  -25.3029 C   0  0  0  0  0  0  0  0  0  0  0  0
  -16.7695   14.3519  -26.5911 C   0  0  0  0  0  0  0  0  0  0  0  0
  -16.9875   13.4084  -27.5288 F   0  0  0  0  0  0  0  0  0  0  0  0
  -16.0120   15.4464  -26.9074 C   0  0  0  0  0  0  0  0  0  0  0  0
  -15.4875   15.6561  -28.0234 O   0  0  0  0  0  0  0  0  0  0  0  0
  -15.8223   16.3663  -25.9298 N   0  0  0  0  0  0  0  0  0  0  0  0
  -16.3457   16.2192  -24.7153 C   0  0  0  0  0  0  0  0  0  0  0  0
  -16.1057   17.1458  -23.8666 O   0  0  0  0  0  0  0  0  0  0  0  0
  -15.2404   17.2203  -26.1506 H   0  0  0  0  0  0  0  0  0  0  0  0
  -18.2070   11.4557  -20.1155 C   0  0  0  0  0  0  0  0  0  0  0  0
  -16.0619   11.1609  -18.8611 C   0  0  0  0  0  0  0  0  0  0  0  0
  -17.3662   10.5063  -19.3289 C   0  0  0  0  0  0  0  0  0  0  0  0
  -18.1414   10.0195  -18.0909 C   0  0  0  0  0  0  0  0  0  0  0  0
 35 36  1  0  0  0
 36 37  1  0  0  0
 36 34  1  0  0  0
 34  1  1  0  0  0
  1  2  1  0  0  0
  2  3  1  0  0  0
  3  4  2  0  0  0
  3  6  1  0  0  0
  6  7  1  0  0  0
  6  9  1  0  0  0
  9 10  1  0  0  0
  9 13  1  0  0  0
 13 14  1  0  0  0
 14 15  2  0  0  0
 15 16  1  0  0  0
 16 17  2  0  0  0
 17 18  1  0  0  0
 18 19  2  0  0  0
  1 20  1  0  0  0
 20 21  2  0  0  0
 20 22  1  0  0  0
 22 23  1  0  0  0
 23 24  1  0  0  0
 24 25  1  0  0  0
 25 26  2  0  0  0
 26 27  1  0  0  0
 26 28  1  0  0  0
 28 29  2  0  0  0
 28 30  1  0  0  0
 30 31  1  0  0  0
 31 32  2  0  0  0
 19 14  1  0  0  0
 31 24  1  0  0  0
  2  5  1  0  0  0
  7  8  1  0  0  0
 10 11  1  0  0  0
 10 12  1  0  0  0
 30 33  1  0  0  0
M  END
> <minimizedAffinity>
-7.22401

> <CNNscore>
0.3277103305

> <CNNaffinity>
6.3255691528

> <CNN_VS>
2.0729544163

> <CNNaffinity_variance>
0.1801018119

$$$$
[H]Cl.[H]O[C@]([H])(C(=O)N([H])[C@]([H])(C(=O)OC([H])([H])n1c([H])c(F)c(=O)n([H])c1=O)C([H])([H])C([H])(C([H])([H])[H])C([H])([H])[H])[C@]([H])(N([H])[H])C([H])([H])c1c([H])c([H])c([H])c([H])c1[H]


 37 38  0  0  0  0  0  0  0  0999 V2000
  -17.9238   13.4664  -19.8549 C   0  0  0  0  0  0  0  0  0  0  0  0
  -19.1783   13.5294  -19.0947 N   0  0  0  0  0  0  0  0  0  0  0  0
  -19.1838   13.6662  -17.6796 C   0  0  0  0  0  0  0  0  0  0  0  0
  -18.0798   13.7318  -17.0937 O   0  0  0  0  0  0  0  0  0  0  0  0
  -20.1049   13.4754  -19.5711 H   0  0  0  0  0  0  0  0  0  0  0  0
  -20.4401   13.7323  -16.8926 C   0  0  0  0  0  0  0  0  0  0  0  0
  -21.5192   13.8216  -17.7613 O   0  0  0  0  0  0  0  0  0  0  0  0
  -21.7949   12.9165  -18.0376 H   0  0  0  0  0  0  0  0  0  0  0  0
  -20.6281   12.4977  -16.0222 C   0  0  0  0  0  0  0  0  0  0  0  0
  -19.6863   12.4477  -14.9490 N   0  0  0  0  0  0  0  0  0  0  0  0
  -20.0817   12.1218  -14.0470 H   0  0  0  0  0  0  0  0  0  0  0  0
  -18.7636   12.0650  -15.1702 H   0  0  0  0  0  0  0  0  0  0  0  0
  -20.4978   11.3021  -16.9259 C   0  0  0  0  0  0  0  0  0  0  0  0
  -20.7981   10.0208  -16.2548 C   0  0  0  0  0  0  0  0  0  0  0  0
  -22.0215    9.7527  -15.6633 C   0  0  0  0  0  0  0  0  0  0  0  0
  -22.2996    8.5508  -15.0356 C   0  0  0  0  0  0  0  0  0  0  0  0
  -21.3427    7.5802  -14.9880 C   0  0  0  0  0  0  0  0  0  0  0  0
  -20.1156    7.8009  -15.5603 C   0  0  0  0  0  0  0  0  0  0  0  0
  -19.8517    8.9948  -16.1790 C   0  0  0  0  0  0  0  0  0  0  0  0
  -17.8554   14.6183  -20.7874 C   0  0  0  0  0  0  0  0  0  0  0  0
  -18.9116   15.3366  -20.8874 O   0  0  0  0  0  0  0  0  0  0  0  0
  -16.8078   15.0067  -21.5479 O   0  0  0  0  0  0  0  0  0  0  0  0
  -16.5728   16.1282  -22.3047 C   0  0  0  0  0  0  0  0  0  0  0  0
  -16.0604   15.9518  -23.6248 N   0  0  0  0  0  0  0  0  0  0  0  0
  -14.9628   15.2660  -23.9757 C   0  0  0  0  0  0  0  0  0  0  0  0
  -14.5367   15.1698  -25.3064 C   0  0  0  0  0  0  0  0  0  0  0  0
  -13.4296   14.4738  -25.6338 F   0  0  0  0  0  0  0  0  0  0  0  0
  -15.2524   15.7904  -26.2935 C   0  0  0  0  0  0  0  0  0  0  0  0
  -14.9622   15.7690  -27.5101 O   0  0  0  0  0  0  0  0  0  0  0  0
  -16.3574   16.4773  -25.9127 N   0  0  0  0  0  0  0  0  0  0  0  0
  -16.7357   16.5494  -24.6390 C   0  0  0  0  0  0  0  0  0  0  0  0
  -17.7937   17.2233  -24.3879 O   0  0  0  0  0  0  0  0  0  0  0  0
  -16.9263   16.9652  -26.6577 H   0  0  0  0  0  0  0  0  0  0  0  0
  -17.7486   12.1278  -20.4763 C   0  0  0  0  0  0  0  0  0  0  0  0
  -17.4149   10.3702  -18.7265 C   0  0  0  0  0  0  0  0  0  0  0  0
  -16.7491   11.2734  -19.7704 C   0  0  0  0  0  0  0  0  0  0  0  0
  -16.0074   10.3845  -20.7855 C   0  0  0  0  0  0  0  0  0  0  0  0
 35 36  1  0  0  0
 36 37  1  0  0  0
 36 34  1  0  0  0
 34  1  1  0  0  0
  1  2  1  0  0  0
  2  3  1  0  0  0
  3  4  2  0  0  0
  3  6  1  0  0  0
  6  7  1  0  0  0
  6  9  1  0  0  0
  9 10  1  0  0  0
  9 13  1  0  0  0
 13 14  1  0  0  0
 14 15  2  0  0  0
 15 16  1  0  0  0
 16 17  2  0  0  0
 17 18  1  0  0  0
 18 19  2  0  0  0
  1 20  1  0  0  0
 20 21  2  0  0  0
 20 22  1  0  0  0
 22 23  1  0  0  0
 23 24  1  0  0  0
 24 25  1  0  0  0
 25 26  2  0  0  0
 26 27  1  0  0  0
 26 28  1  0  0  0
 28 29  2  0  0  0
 28 30  1  0  0  0
 30 31  1  0  0  0
 31 32  2  0  0  0
 19 14  1  0  0  0
 31 24  1  0  0  0
  2  5  1  0  0  0
  7  8  1  0  0  0
 10 11  1  0  0  0
 10 12  1  0  0  0
 30 33  1  0  0  0
M  END
> <minimizedAffinity>
-7.78130

> <CNNscore>
0.3239074051

> <CNNaffinity>
5.9422707558

> <CNN_VS>
1.9247455597

> <CNNaffinity_variance>
0.2914531827

$$$$
[H]Cl.[H]O[C@]([H])(C(=O)N([H])[C@]([H])(C(=O)OC([H])([H])n1c([H])c(F)c(=O)n([H])c1=O)C([H])([H])C([H])(C([H])([H])[H])C([H])([H])[H])[C@]([H])(N([H])[H])C([H])([H])c1c([H])c([H])c([H])c([H])c1[H]


 37 38  0  0  0  0  0  0  0  0999 V2000
  -19.8763   15.3595  -20.1067 C   0  0  0  0  0  0  0  0  0  0  0  0
  -19.7062   16.1228  -21.3494 N   0  0  0  0  0  0  0  0  0  0  0  0
  -19.1179   17.4170  -21.3522 C   0  0  0  0  0  0  0  0  0  0  0  0
  -18.7457   17.8930  -20.2561 O   0  0  0  0  0  0  0  0  0  0  0  0
  -20.0125   15.7373  -22.2693 H   0  0  0  0  0  0  0  0  0  0  0  0
  -18.9363   18.2046  -22.5966 C   0  0  0  0  0  0  0  0  0  0  0  0
  -18.3256   19.4124  -22.2879 O   0  0  0  0  0  0  0  0  0  0  0  0
  -17.3472   19.2929  -22.2763 H   0  0  0  0  0  0  0  0  0  0  0  0
  -18.0643   17.4726  -23.6072 C   0  0  0  0  0  0  0  0  0  0  0  0
  -18.6665   16.2576  -24.0571 N   0  0  0  0  0  0  0  0  0  0  0  0
  -18.5505   16.0719  -25.0711 H   0  0  0  0  0  0  0  0  0  0  0  0
  -18.5394   15.4375  -23.4588 H   0  0  0  0  0  0  0  0  0  0  0  0
  -16.7411   17.2173  -22.9386 C   0  0  0  0  0  0  0  0  0  0  0  0
  -15.8589   16.3130  -23.7043 C   0  0  0  0  0  0  0  0  0  0  0  0
  -15.4170   15.0981  -23.2073 C   0  0  0  0  0  0  0  0  0  0  0  0
  -14.5907   14.2531  -23.9278 C   0  0  0  0  0  0  0  0  0  0  0  0
  -14.1856   14.6149  -25.1788 C   0  0  0  0  0  0  0  0  0  0  0  0
  -14.5981   15.8095  -25.7126 C   0  0  0  0  0  0  0  0  0  0  0  0
  -15.4161   16.6380  -24.9898 C   0  0  0  0  0  0  0  0  0  0  0  0
  -19.2780   14.0119  -20.2713 C   0  0  0  0  0  0  0  0  0  0  0  0
  -18.6506   13.7948  -21.3671 O   0  0  0  0  0  0  0  0  0  0  0  0
  -19.3122   12.9791  -19.4003 O   0  0  0  0  0  0  0  0  0  0  0  0
  -18.3276   12.2873  -18.7385 C   0  0  0  0  0  0  0  0  0  0  0  0
  -18.7109   11.1545  -17.9600 N   0  0  0  0  0  0  0  0  0  0  0  0
  -19.6715   11.1095  -17.0255 C   0  0  0  0  0  0  0  0  0  0  0  0
  -19.9563    9.9436  -16.3035 C   0  0  0  0  0  0  0  0  0  0  0  0
  -20.9277    9.9237  -15.3691 F   0  0  0  0  0  0  0  0  0  0  0  0
  -19.2398    8.8038  -16.5471 C   0  0  0  0  0  0  0  0  0  0  0  0
  -19.4108    7.7115  -15.9622 O   0  0  0  0  0  0  0  0  0  0  0  0
  -18.2743    8.8756  -17.4961 N   0  0  0  0  0  0  0  0  0  0  0  0
  -18.0284    9.9994  -18.1649 C   0  0  0  0  0  0  0  0  0  0  0  0
  -17.0956    9.9590  -19.0393 O   0  0  0  0  0  0  0  0  0  0  0  0
  -17.7074    8.0078  -17.7016 H   0  0  0  0  0  0  0  0  0  0  0  0
  -21.2945   15.3811  -19.6628 C   0  0  0  0  0  0  0  0  0  0  0  0
  -22.6547   16.8978  -18.2097 C   0  0  0  0  0  0  0  0  0  0  0  0
  -21.4753   15.9219  -18.2837 C   0  0  0  0  0  0  0  0  0  0  0  0
  -21.7312   14.7686  -17.2964 C   0  0  0  0  0  0  0  0  0  0  0  0
 35 36  1  0  0  0
 36 37  1  0  0  0
 36 34  1  0  0  0
 34  1  1  0  0  0
  1  2  1  0  0  0
  2  3  1  0  0  0
  3  4  2  0  0  0
  3  6  1  0  0  0
  6  7  1  0  0  0
  6  9  1  0  0  0
  9 10  1  0  0  0
  9 13  1  0  0  0
 13 14  1  0  0  0
 14 15  2  0  0  0
 15 16  1  0  0  0
 16 17  2  0  0  0
 17 18  1  0  0  0
 18 19  2  0  0  0
  1 20  1  0  0  0
 20 21  2  0  0  0
 20 22  1  0  0  0
 22 23  1  0  0  0
 23 24  1  0  0  0
 24 25  1  0  0  0
 25 26  2  0  0  0
 26 27  1  0  0  0
 26 28  1  0  0  0
 28 29  2  0  0  0
 28 30  1  0  0  0
 30 31  1  0  0  0
 31 32  2  0  0  0
 19 14  1  0  0  0
 31 24  1  0  0  0
  2  5  1  0  0  0
  7  8  1  0  0  0
 10 11  1  0  0  0
 10 12  1  0  0  0
 30 33  1  0  0  0
M  END
> <minimizedAffinity>
-7.09077

> <CNNscore>
0.3205346763

> <CNNaffinity>
6.0475182533

> <CNN_VS>
1.9384392500

> <CNNaffinity_variance>
0.1960332096

$$$$
