[H]c1oc2c([H])c([H])c([H])c(N([H])C(=O)c3c([H])n(C(=O)N([H])[H])c4c([H])c(O[C@@]([H])(C([H])([H])[H])C(F)(F)F)c([H])c([H])c34)c2c1C([H])([H])[H]
     RDKit          3D

 50 53  0  0  0  0  0  0  0  0999 V2000
    6.4300    0.1558    2.7394 C   0  0  0  0  0  0  0  0  0  0  0  0
    5.7976    0.7451    1.4821 C   0  0  2  0  0  0  0  0  0  0  0  0
    5.0063   -0.1692    0.8220 O   0  0  0  0  0  0  0  0  0  0  0  0
    3.6943   -0.0523    0.4369 C   0  0  0  0  0  0  0  0  0  0  0  0
    2.9672    1.0838    0.6891 C   0  0  0  0  0  0  0  0  0  0  0  0
    1.6261    1.1719    0.2820 C   0  0  0  0  0  0  0  0  0  0  0  0
    1.0603    0.1153   -0.3651 C   0  0  0  0  0  0  0  0  0  0  0  0
   -0.2168   -0.0411   -0.8573 C   0  0  0  0  0  0  0  0  0  0  0  0
   -0.2849   -1.2954   -1.4250 C   0  0  0  0  0  0  0  0  0  0  0  0
    0.9287   -1.8990   -1.2842 N   0  0  0  0  0  0  0  0  0  0  0  0
    1.2280   -3.2064   -1.7530 C   0  0  0  0  0  0  0  0  0  0  0  0
    0.2552   -3.9834   -2.4138 N   0  0  0  0  0  0  0  0  0  0  0  0
    2.3594   -3.7167   -1.5989 O   0  0  0  0  0  0  0  0  0  0  0  0
    1.7463   -1.0441   -0.6411 C   0  0  0  0  0  0  0  0  0  0  0  0
    3.0542   -1.1081   -0.2345 C   0  0  0  0  0  0  0  0  0  0  0  0
   -1.3145    0.9442   -0.7937 C   0  0  0  0  0  0  0  0  0  0  0  0
   -0.9881    2.1311   -0.9308 O   0  0  0  0  0  0  0  0  0  0  0  0
   -2.6175    0.4489   -0.5852 N   0  0  0  0  0  0  0  0  0  0  0  0
   -3.8142    1.2068   -0.4977 C   0  0  0  0  0  0  0  0  0  0  0  0
   -3.9086    2.5147   -0.9174 C   0  0  0  0  0  0  0  0  0  0  0  0
   -5.0997    3.2514   -0.8964 C   0  0  0  0  0  0  0  0  0  0  0  0
   -6.2412    2.6609   -0.4392 C   0  0  0  0  0  0  0  0  0  0  0  0
   -6.1876    1.3540   -0.0095 C   0  0  0  0  0  0  0  0  0  0  0  0
   -7.1286    0.5822    0.4674 O   0  0  0  0  0  0  0  0  0  0  0  0
   -6.6741   -0.5939    0.7667 C   0  0  0  0  0  0  0  0  0  0  0  0
   -5.2963   -0.6291    0.4664 C   0  0  0  0  0  0  0  0  0  0  0  0
   -4.4222   -1.7874    0.6917 C   0  0  0  0  0  0  0  0  0  0  0  0
   -4.9975    0.6152   -0.0293 C   0  0  0  0  0  0  0  0  0  0  0  0
    6.9988    1.1680    0.6156 C   0  0  0  0  0  0  0  0  0  0  0  0
    7.7011    2.0876    1.3518 F   0  0  0  0  0  0  0  0  0  0  0  0
    7.7704    0.0312    0.4174 F   0  0  0  0  0  0  0  0  0  0  0  0
    6.5908    1.6694   -0.5832 F   0  0  0  0  0  0  0  0  0  0  0  0
    5.6855   -0.3566    3.3732 H   0  0  0  0  0  0  0  0  0  0  0  0
    6.8424    1.0219    3.3056 H   0  0  0  0  0  0  0  0  0  0  0  0
    7.2232   -0.5520    2.4272 H   0  0  0  0  0  0  0  0  0  0  0  0
    5.2576    1.6710    1.7050 H   0  0  0  0  0  0  0  0  0  0  0  0
    3.3763    1.9468    1.2000 H   0  0  0  0  0  0  0  0  0  0  0  0
    1.0853    2.0761    0.4953 H   0  0  0  0  0  0  0  0  0  0  0  0
   -1.1526   -1.7229   -1.8990 H   0  0  0  0  0  0  0  0  0  0  0  0
   -0.5467   -4.3560   -1.8871 H   0  0  0  0  0  0  0  0  0  0  0  0
    0.3494   -4.1757   -3.4200 H   0  0  0  0  0  0  0  0  0  0  0  0
    3.6393   -1.9963   -0.4261 H   0  0  0  0  0  0  0  0  0  0  0  0
   -2.6691   -0.5979   -0.5270 H   0  0  0  0  0  0  0  0  0  0  0  0
   -3.0151    2.9954   -1.2933 H   0  0  0  0  0  0  0  0  0  0  0  0
   -5.0779    4.2833   -1.2493 H   0  0  0  0  0  0  0  0  0  0  0  0
   -7.1562    3.2364   -0.4271 H   0  0  0  0  0  0  0  0  0  0  0  0
   -7.1958   -1.4516    1.1783 H   0  0  0  0  0  0  0  0  0  0  0  0
   -4.1454   -2.3350   -0.2103 H   0  0  0  0  0  0  0  0  0  0  0  0
   -4.9820   -2.5472    1.3280 H   0  0  0  0  0  0  0  0  0  0  0  0
   -3.5409   -1.5508    1.3534 H   0  0  0  0  0  0  0  0  0  0  0  0
  1  2  1  0
  2  3  1  0
  3  4  1  0
  4  5  2  0
  5  6  1  0
  6  7  2  0
  7  8  1  0
  8  9  2  0
  9 10  1  0
 10 11  1  0
 11 12  1  0
 11 13  2  0
 10 14  1  0
 14 15  2  0
  8 16  1  0
 16 17  2  0
 16 18  1  0
 18 19  1  0
 19 20  2  0
 20 21  1  0
 21 22  2  0
 22 23  1  0
 23 24  1  0
 24 25  1  0
 25 26  2  0
 26 27  1  0
 26 28  1  0
  2 29  1  0
 29 30  1  0
 29 31  1  0
 29 32  1  0
 15  4  1  0
 28 19  1  0
 14  7  1  0
 28 23  2  0
  1 33  1  0
  1 34  1  0
  1 35  1  0
  2 36  1  1
  5 37  1  0
  6 38  1  0
  9 39  1  0
 12 40  1  0
 12 41  1  0
 15 42  1  0
 18 43  1  0
 20 44  1  0
 21 45  1  0
 22 46  1  0
 25 47  1  0
 27 48  1  0
 27 49  1  0
 27 50  1  0
M  END
$$$$
[H]/C(=C(/[H])c1c([H])c([H])c([H])c2c(C([H])([H])N(C([H])([H])C([H])([H])C([H])([H])[H])C([H])([H])C([H])([H])C([H])([H])[H])c(-c3nc([H])c([H])c([H])c3[H])sc12)c1c([H])c([H])c(Cl)c([H])c1Cl
     RDKit          3D

 61 64  0  0  0  0  0  0  0  0999 V2000
   -6.2849   -1.4012    0.1181 C   0  0  0  0  0  0  0  0  0  0  0  0
   -4.9473   -0.6961    0.3680 C   0  0  0  0  0  0  0  0  0  0  0  0
   -4.2968   -0.5166   -0.9610 C   0  0  0  0  0  0  0  0  0  0  0  0
   -2.9806    0.1419   -0.9048 N   0  0  0  0  0  0  0  0  0  0  0  0
   -3.2271    1.5506   -0.4734 C   0  0  0  0  0  0  0  0  0  0  0  0
   -3.9048    2.2673   -1.5965 C   0  0  0  0  0  0  0  0  0  0  0  0
   -4.1547    3.7205   -1.1938 C   0  0  0  0  0  0  0  0  0  0  0  0
   -2.1652   -0.4926    0.0747 C   0  0  0  0  0  0  0  0  0  0  0  0
   -0.6747   -0.3717   -0.0183 C   0  0  0  0  0  0  0  0  0  0  0  0
    0.0308   -0.9210    1.0780 C   0  0  0  0  0  0  0  0  0  0  0  0
    1.6493   -0.6548    0.6809 S   0  0  0  0  0  0  0  0  0  0  0  0
    1.4801    0.1215   -0.8207 C   0  0  0  0  0  0  0  0  0  0  0  0
    2.4194    0.5868   -1.7200 C   0  0  0  0  0  0  0  0  0  0  0  0
    3.8265    0.5256   -1.4620 C   0  0  0  0  0  0  0  0  0  0  0  0
    4.4929    0.1040   -0.4334 C   0  0  0  0  0  0  0  0  0  0  0  0
    5.9595    0.1471   -0.4141 C   0  0  0  0  0  0  0  0  0  0  0  0
    6.7519    0.6065   -1.4150 C   0  0  0  0  0  0  0  0  0  0  0  0
    8.1509    0.6150   -1.3217 C   0  0  0  0  0  0  0  0  0  0  0  0
    8.7825    0.1524   -0.1985 C   0  0  0  0  0  0  0  0  0  0  0  0
   10.5309    0.1520   -0.0569 Cl  0  0  0  0  0  0  0  0  0  0  0  0
    7.9805   -0.3167    0.8241 C   0  0  0  0  0  0  0  0  0  0  0  0
    6.6079   -0.3259    0.7347 C   0  0  0  0  0  0  0  0  0  0  0  0
    5.6564   -0.9301    2.0587 Cl  0  0  0  0  0  0  0  0  0  0  0  0
    1.9659    1.1546   -2.9335 C   0  0  0  0  0  0  0  0  0  0  0  0
    0.6180    1.1969   -3.1206 C   0  0  0  0  0  0  0  0  0  0  0  0
   -0.2900    0.7276   -2.2080 C   0  0  0  0  0  0  0  0  0  0  0  0
    0.1173    0.1578   -0.9857 C   0  0  0  0  0  0  0  0  0  0  0  0
   -0.4729   -1.5783    2.2792 C   0  0  0  0  0  0  0  0  0  0  0  0
    0.4568   -2.0053    3.2232 C   0  0  0  0  0  0  0  0  0  0  0  0
    0.0809   -2.6440    4.3779 C   0  0  0  0  0  0  0  0  0  0  0  0
   -1.2524   -2.8724    4.6167 C   0  0  0  0  0  0  0  0  0  0  0  0
   -2.1745   -2.4443    3.6720 C   0  0  0  0  0  0  0  0  0  0  0  0
   -1.7422   -1.8240    2.5601 N   0  0  0  0  0  0  0  0  0  0  0  0
   -6.1765   -2.5011    0.2622 H   0  0  0  0  0  0  0  0  0  0  0  0
   -7.0300   -0.9995    0.8323 H   0  0  0  0  0  0  0  0  0  0  0  0
   -6.6575   -1.1895   -0.9039 H   0  0  0  0  0  0  0  0  0  0  0  0
   -5.2024    0.2534    0.8635 H   0  0  0  0  0  0  0  0  0  0  0  0
   -4.3825   -1.3858    1.0404 H   0  0  0  0  0  0  0  0  0  0  0  0
   -4.9895   -0.0292   -1.6412 H   0  0  0  0  0  0  0  0  0  0  0  0
   -4.0345   -1.5625   -1.3120 H   0  0  0  0  0  0  0  0  0  0  0  0
   -3.7827    1.5906    0.4775 H   0  0  0  0  0  0  0  0  0  0  0  0
   -2.2661    2.0495   -0.2555 H   0  0  0  0  0  0  0  0  0  0  0  0
   -3.1943    2.2974   -2.4591 H   0  0  0  0  0  0  0  0  0  0  0  0
   -4.8227    1.8296   -1.9807 H   0  0  0  0  0  0  0  0  0  0  0  0
   -3.8883    3.8828   -0.1315 H   0  0  0  0  0  0  0  0  0  0  0  0
   -3.5518    4.4136   -1.8029 H   0  0  0  0  0  0  0  0  0  0  0  0
   -5.2192    3.9386   -1.3186 H   0  0  0  0  0  0  0  0  0  0  0  0
   -2.4855   -1.5514    0.1267 H   0  0  0  0  0  0  0  0  0  0  0  0
   -2.5126   -0.0341    1.0617 H   0  0  0  0  0  0  0  0  0  0  0  0
    4.4506    0.9134   -2.3117 H   0  0  0  0  0  0  0  0  0  0  0  0
    3.9577   -0.2762    0.4155 H   0  0  0  0  0  0  0  0  0  0  0  0
    6.3202    0.9838   -2.3244 H   0  0  0  0  0  0  0  0  0  0  0  0
    8.7540    0.9881   -2.1375 H   0  0  0  0  0  0  0  0  0  0  0  0
    8.4958   -0.6841    1.7177 H   0  0  0  0  0  0  0  0  0  0  0  0
    2.6877    1.5147   -3.6283 H   0  0  0  0  0  0  0  0  0  0  0  0
    0.2814    1.6352   -4.0603 H   0  0  0  0  0  0  0  0  0  0  0  0
   -1.3091    0.8082   -2.5300 H   0  0  0  0  0  0  0  0  0  0  0  0
    1.5107   -1.8348    3.0538 H   0  0  0  0  0  0  0  0  0  0  0  0
    0.8135   -2.9806    5.1223 H   0  0  0  0  0  0  0  0  0  0  0  0
   -1.5319   -3.3735    5.5249 H   0  0  0  0  0  0  0  0  0  0  0  0
   -3.2247   -2.6299    3.8709 H   0  0  0  0  0  0  0  0  0  0  0  0
  1  2  1  0
  2  3  1  0
  3  4  1  0
  4  5  1  0
  5  6  1  0
  6  7  1  0
  4  8  1  0
  8  9  1  0
  9 10  2  0
 10 11  1  0
 11 12  1  0
 12 13  2  0
 13 14  1  0
 14 15  2  0
 15 16  1  0
 16 17  2  0
 17 18  1  0
 18 19  2  0
 19 20  1  0
 19 21  1  0
 21 22  2  0
 22 23  1  0
 13 24  1  0
 24 25  2  0
 25 26  1  0
 26 27  2  0
 10 28  1  0
 28 29  2  0
 29 30  1  0
 30 31  2  0
 31 32  1  0
 32 33  2  0
 27  9  1  0
 33 28  1  0
 27 12  1  0
 22 16  1  0
  1 34  1  0
  1 35  1  0
  1 36  1  0
  2 37  1  0
  2 38  1  0
  3 39  1  0
  3 40  1  0
  5 41  1  0
  5 42  1  0
  6 43  1  0
  6 44  1  0
  7 45  1  0
  7 46  1  0
  7 47  1  0
  8 48  1  0
  8 49  1  0
 14 50  1  0
 15 51  1  0
 17 52  1  0
 18 53  1  0
 21 54  1  0
 24 55  1  0
 25 56  1  0
 26 57  1  0
 29 58  1  0
 30 59  1  0
 31 60  1  0
 32 61  1  0
M  END
$$$$
[H]c1c([H])c([H])c(N([H])N([H])C(=O)c2c([H])c([H])c(OC(=O)C([H])([H])[H])c(-c3c([H])c(Cl)c([H])c([H])c3Cl)c2[H])c([H])c1[H]
     RDKit          3D

 44 46  0  0  0  0  0  0  0  0999 V2000
   -5.1066    0.8749    3.2410 C   0  0  0  0  0  0  0  0  0  0  0  0
   -3.8437    0.8816    2.4338 C   0  0  0  0  0  0  0  0  0  0  0  0
   -3.2430    1.9543    2.1630 O   0  0  0  0  0  0  0  0  0  0  0  0
   -3.2789   -0.2901    1.9487 O   0  0  0  0  0  0  0  0  0  0  0  0
   -2.0978   -0.2363    1.1985 C   0  0  0  0  0  0  0  0  0  0  0  0
   -0.8571   -0.3398    1.8175 C   0  0  0  0  0  0  0  0  0  0  0  0
    0.3269   -0.2896    1.1083 C   0  0  0  0  0  0  0  0  0  0  0  0
    0.3199   -0.1336   -0.2551 C   0  0  0  0  0  0  0  0  0  0  0  0
   -0.9149   -0.0321   -0.8619 C   0  0  0  0  0  0  0  0  0  0  0  0
   -2.1068   -0.0791   -0.1751 C   0  0  0  0  0  0  0  0  0  0  0  0
   -3.4135    0.0200   -0.8184 C   0  0  0  0  0  0  0  0  0  0  0  0
   -4.3944   -0.9002   -0.5237 C   0  0  0  0  0  0  0  0  0  0  0  0
   -5.6154   -0.8014   -1.1446 C   0  0  0  0  0  0  0  0  0  0  0  0
   -6.8422   -1.9744   -0.7581 Cl  0  0  0  0  0  0  0  0  0  0  0  0
   -5.9099    0.1844   -2.0581 C   0  0  0  0  0  0  0  0  0  0  0  0
   -4.9392    1.1144   -2.3652 C   0  0  0  0  0  0  0  0  0  0  0  0
   -3.7001    1.0180   -1.7379 C   0  0  0  0  0  0  0  0  0  0  0  0
   -2.4937    2.2257   -2.1475 Cl  0  0  0  0  0  0  0  0  0  0  0  0
    1.5376   -0.0697   -1.0718 C   0  0  0  0  0  0  0  0  0  0  0  0
    1.4273    0.0057   -2.3121 O   0  0  0  0  0  0  0  0  0  0  0  0
    2.8241   -0.0912   -0.4980 N   0  0  0  0  0  0  0  0  0  0  0  0
    3.9549   -0.0277   -1.3101 N   0  0  0  0  0  0  0  0  0  0  0  0
    5.2632   -0.1196   -0.7695 C   0  0  0  0  0  0  0  0  0  0  0  0
    5.9563    1.0007   -0.3658 C   0  0  0  0  0  0  0  0  0  0  0  0
    7.2319    0.9073    0.1608 C   0  0  0  0  0  0  0  0  0  0  0  0
    7.8437   -0.3277    0.2939 C   0  0  0  0  0  0  0  0  0  0  0  0
    7.1638   -1.4671   -0.1064 C   0  0  0  0  0  0  0  0  0  0  0  0
    5.8972   -1.3558   -0.6275 C   0  0  0  0  0  0  0  0  0  0  0  0
   -5.2722   -0.1175    3.6867 H   0  0  0  0  0  0  0  0  0  0  0  0
   -4.9207    1.5879    4.0889 H   0  0  0  0  0  0  0  0  0  0  0  0
   -5.9584    1.2731    2.6709 H   0  0  0  0  0  0  0  0  0  0  0  0
   -0.8116   -0.4639    2.8895 H   0  0  0  0  0  0  0  0  0  0  0  0
    1.2714   -0.3742    1.6250 H   0  0  0  0  0  0  0  0  0  0  0  0
   -0.9250    0.0841   -1.9266 H   0  0  0  0  0  0  0  0  0  0  0  0
   -4.2085   -1.6895    0.1801 H   0  0  0  0  0  0  0  0  0  0  0  0
   -6.8879    0.2387   -2.5349 H   0  0  0  0  0  0  0  0  0  0  0  0
   -5.1323    1.9047   -3.0786 H   0  0  0  0  0  0  0  0  0  0  0  0
    2.9811   -0.1544    0.5510 H   0  0  0  0  0  0  0  0  0  0  0  0
    3.8744    0.0901   -2.3446 H   0  0  0  0  0  0  0  0  0  0  0  0
    5.4421    1.9572   -0.4853 H   0  0  0  0  0  0  0  0  0  0  0  0
    7.7247    1.8231    0.4588 H   0  0  0  0  0  0  0  0  0  0  0  0
    8.8540   -0.3903    0.7126 H   0  0  0  0  0  0  0  0  0  0  0  0
    7.6502   -2.4281    0.0017 H   0  0  0  0  0  0  0  0  0  0  0  0
    5.3293   -2.2233   -0.9536 H   0  0  0  0  0  0  0  0  0  0  0  0
  1  2  1  0
  2  3  2  0
  2  4  1  0
  4  5  1  0
  5  6  2  0
  6  7  1  0
  7  8  2  0
  8  9  1  0
  9 10  2  0
 10 11  1  0
 11 12  2  0
 12 13  1  0
 13 14  1  0
 13 15  2  0
 15 16  1  0
 16 17  2  0
 17 18  1  0
  8 19  1  0
 19 20  2  0
 19 21  1  0
 21 22  1  0
 22 23  1  0
 23 24  2  0
 24 25  1  0
 25 26  2  0
 26 27  1  0
 27 28  2  0
 10  5  1  0
 17 11  1  0
 28 23  1  0
  1 29  1  0
  1 30  1  0
  1 31  1  0
  6 32  1  0
  7 33  1  0
  9 34  1  0
 12 35  1  0
 15 36  1  0
 16 37  1  0
 21 38  1  0
 22 39  1  0
 24 40  1  0
 25 41  1  0
 26 42  1  0
 27 43  1  0
 28 44  1  0
M  END
$$$$
[H]c1nc(Oc2c([H])c([H])c([H])c(N3C([H])([H])C([H])([H])OC([H])([H])C3([H])[H])c2[H])c(S(=O)(=O)N2C([H])([H])C([H])([H])N(c3c([H])c([H])c4c(-c5c([H])c([H])c(C#N)c([H])c5[H])c([H])c([H])c([H])c4c3[H])C([H])([H])C2([H])[H])c([H])c1[H]
     RDKit          3D

 79 85  0  0  0  0  0  0  0  0999 V2000
  -12.4843   -4.3798    0.3647 N   0  0  0  0  0  0  0  0  0  0  0  0
  -11.7526   -3.4874    0.3254 C   0  0  0  0  0  0  0  0  0  0  0  0
  -10.8380   -2.3826    0.2532 C   0  0  0  0  0  0  0  0  0  0  0  0
   -9.8425   -2.2172    1.1961 C   0  0  0  0  0  0  0  0  0  0  0  0
   -8.9928   -1.1358    1.0758 C   0  0  0  0  0  0  0  0  0  0  0  0
   -9.1005   -0.2237    0.0584 C   0  0  0  0  0  0  0  0  0  0  0  0
  -10.0921   -0.3951   -0.8743 C   0  0  0  0  0  0  0  0  0  0  0  0
  -10.9557   -1.4601   -0.7854 C   0  0  0  0  0  0  0  0  0  0  0  0
   -8.1908    0.8927   -0.0299 C   0  0  0  0  0  0  0  0  0  0  0  0
   -8.6918    2.2047    0.0012 C   0  0  0  0  0  0  0  0  0  0  0  0
   -7.8784    3.3102   -0.0372 C   0  0  0  0  0  0  0  0  0  0  0  0
   -6.5243    3.1604   -0.1086 C   0  0  0  0  0  0  0  0  0  0  0  0
   -5.9960    1.8929   -0.1419 C   0  0  0  0  0  0  0  0  0  0  0  0
   -4.6164    1.7967   -0.2256 C   0  0  0  0  0  0  0  0  0  0  0  0
   -4.0269    0.5596   -0.2740 C   0  0  0  0  0  0  0  0  0  0  0  0
   -4.8515   -0.5619   -0.2370 C   0  0  0  0  0  0  0  0  0  0  0  0
   -6.2274   -0.4806   -0.1537 C   0  0  0  0  0  0  0  0  0  0  0  0
   -6.8252    0.7609   -0.1031 C   0  0  0  0  0  0  0  0  0  0  0  0
   -2.6414    0.3849   -0.3593 N   0  0  0  0  0  0  0  0  0  0  0  0
   -2.0817   -0.9721   -0.3247 C   0  0  0  0  0  0  0  0  0  0  0  0
   -0.5749   -0.9181   -0.5139 C   0  0  0  0  0  0  0  0  0  0  0  0
    0.0610   -0.0116    0.3772 N   0  0  0  0  0  0  0  0  0  0  0  0
   -0.6723    1.1859    0.6557 C   0  0  0  0  0  0  0  0  0  0  0  0
   -1.6518    1.4183   -0.4819 C   0  0  0  0  0  0  0  0  0  0  0  0
    1.7004    0.3824   -0.1103 S   0  0  0  0  0  0  0  0  0  0  0  0
    1.6874    1.0668   -1.4310 O   0  0  0  0  0  0  0  0  0  0  0  0
    2.2608    1.3515    0.9135 O   0  0  0  0  0  0  0  0  0  0  0  0
    2.6762   -1.0491   -0.0915 C   0  0  0  0  0  0  0  0  0  0  0  0
    2.2213   -2.1012    0.7185 C   0  0  0  0  0  0  0  0  0  0  0  0
    2.9883   -3.2354    0.7978 C   0  0  0  0  0  0  0  0  0  0  0  0
    4.1709   -3.3147    0.0917 C   0  0  0  0  0  0  0  0  0  0  0  0
    4.5672   -2.2899   -0.6669 N   0  0  0  0  0  0  0  0  0  0  0  0
    3.8393   -1.1196   -0.7895 C   0  0  0  0  0  0  0  0  0  0  0  0
    4.3398   -0.1284   -1.5988 O   0  0  0  0  0  0  0  0  0  0  0  0
    5.3043    0.7417   -1.1928 C   0  0  0  0  0  0  0  0  0  0  0  0
    5.1660    2.0584   -0.8605 C   0  0  0  0  0  0  0  0  0  0  0  0
    6.1724    2.8761   -0.4598 C   0  0  0  0  0  0  0  0  0  0  0  0
    7.4680    2.3499   -0.3721 C   0  0  0  0  0  0  0  0  0  0  0  0
    7.6797    1.0330   -0.6919 C   0  0  0  0  0  0  0  0  0  0  0  0
    6.6148    0.2442   -1.0952 C   0  0  0  0  0  0  0  0  0  0  0  0
    8.9456    0.4213   -0.6439 N   0  0  0  0  0  0  0  0  0  0  0  0
   10.1460    1.2179   -0.5971 C   0  0  0  0  0  0  0  0  0  0  0  0
   10.8984    0.7334    0.6536 C   0  0  0  0  0  0  0  0  0  0  0  0
   11.3061   -0.5656    0.3325 O   0  0  0  0  0  0  0  0  0  0  0  0
   10.2791   -1.4677    0.2284 C   0  0  0  0  0  0  0  0  0  0  0  0
    9.1194   -1.0209   -0.6240 C   0  0  0  0  0  0  0  0  0  0  0  0
   -9.7551   -2.9393    2.0045 H   0  0  0  0  0  0  0  0  0  0  0  0
   -8.2170   -1.0167    1.8209 H   0  0  0  0  0  0  0  0  0  0  0  0
  -10.1845    0.3075   -1.6680 H   0  0  0  0  0  0  0  0  0  0  0  0
  -11.7544   -1.6319   -1.5027 H   0  0  0  0  0  0  0  0  0  0  0  0
   -9.7514    2.3584    0.0568 H   0  0  0  0  0  0  0  0  0  0  0  0
   -8.2902    4.3219   -0.0115 H   0  0  0  0  0  0  0  0  0  0  0  0
   -5.8630    4.0318   -0.1392 H   0  0  0  0  0  0  0  0  0  0  0  0
   -3.9930    2.6692   -0.2529 H   0  0  0  0  0  0  0  0  0  0  0  0
   -4.4193   -1.5650   -0.2749 H   0  0  0  0  0  0  0  0  0  0  0  0
   -6.8244   -1.3796   -0.1431 H   0  0  0  0  0  0  0  0  0  0  0  0
   -2.4914   -1.6242   -1.0954 H   0  0  0  0  0  0  0  0  0  0  0  0
   -2.2935   -1.3518    0.7138 H   0  0  0  0  0  0  0  0  0  0  0  0
   -0.2150   -1.9475   -0.4113 H   0  0  0  0  0  0  0  0  0  0  0  0
   -0.3979   -0.6271   -1.5850 H   0  0  0  0  0  0  0  0  0  0  0  0
   -1.2691    1.0047    1.5897 H   0  0  0  0  0  0  0  0  0  0  0  0
   -0.0312    2.0790    0.7840 H   0  0  0  0  0  0  0  0  0  0  0  0
   -1.1322    1.2495   -1.4700 H   0  0  0  0  0  0  0  0  0  0  0  0
   -2.0197    2.4439   -0.5175 H   0  0  0  0  0  0  0  0  0  0  0  0
    1.2867   -1.9976    1.2874 H   0  0  0  0  0  0  0  0  0  0  0  0
    2.6477   -4.0530    1.4176 H   0  0  0  0  0  0  0  0  0  0  0  0
    4.7316   -4.2331    0.1948 H   0  0  0  0  0  0  0  0  0  0  0  0
    4.1620    2.4766   -0.9300 H   0  0  0  0  0  0  0  0  0  0  0  0
    6.0147    3.9056   -0.2089 H   0  0  0  0  0  0  0  0  0  0  0  0
    8.2826    2.9855   -0.0491 H   0  0  0  0  0  0  0  0  0  0  0  0
    6.7681   -0.7833   -1.3503 H   0  0  0  0  0  0  0  0  0  0  0  0
   10.8350    0.9054   -1.4440 H   0  0  0  0  0  0  0  0  0  0  0  0
   10.0200    2.2918   -0.6347 H   0  0  0  0  0  0  0  0  0  0  0  0
   11.7824    1.3579    0.7670 H   0  0  0  0  0  0  0  0  0  0  0  0
   10.2521    0.7738    1.5279 H   0  0  0  0  0  0  0  0  0  0  0  0
    9.9494   -1.8527    1.2217 H   0  0  0  0  0  0  0  0  0  0  0  0
   10.7070   -2.3745   -0.2916 H   0  0  0  0  0  0  0  0  0  0  0  0
    9.1507   -1.4176   -1.6575 H   0  0  0  0  0  0  0  0  0  0  0  0
    8.2093   -1.4931   -0.1469 H   0  0  0  0  0  0  0  0  0  0  0  0
  1  2  3  0
  2  3  1  0
  3  4  2  0
  4  5  1  0
  5  6  2  0
  6  7  1  0
  7  8  2  0
  6  9  1  0
  9 10  2  0
 10 11  1  0
 11 12  2  0
 12 13  1  0
 13 14  2  0
 14 15  1  0
 15 16  2  0
 16 17  1  0
 17 18  2  0
 15 19  1  0
 19 20  1  0
 20 21  1  0
 21 22  1  0
 22 23  1  0
 23 24  1  0
 22 25  1  0
 25 26  2  0
 25 27  2  0
 25 28  1  0
 28 29  2  0
 29 30  1  0
 30 31  2  0
 31 32  1  0
 32 33  2  0
 33 34  1  0
 34 35  1  0
 35 36  2  0
 36 37  1  0
 37 38  2  0
 38 39  1  0
 39 40  2  0
 39 41  1  0
 41 42  1  0
 42 43  1  0
 43 44  1  0
 44 45  1  0
 45 46  1  0
  8  3  1  0
 18  9  1  0
 24 19  1  0
 33 28  1  0
 40 35  1  0
 46 41  1  0
 18 13  1  0
  4 47  1  0
  5 48  1  0
  7 49  1  0
  8 50  1  0
 10 51  1  0
 11 52  1  0
 12 53  1  0
 14 54  1  0
 16 55  1  0
 17 56  1  0
 20 57  1  0
 20 58  1  0
 21 59  1  0
 21 60  1  0
 23 61  1  0
 23 62  1  0
 24 63  1  0
 24 64  1  0
 29 65  1  0
 30 66  1  0
 31 67  1  0
 36 68  1  0
 37 69  1  0
 38 70  1  0
 40 71  1  0
 42 72  1  0
 42 73  1  0
 43 74  1  0
 43 75  1  0
 45 76  1  0
 45 77  1  0
 46 78  1  0
 46 79  1  0
M  END
$$$$
[H]OC(=O)C([H])([H])N(C(=O)[C@]1([H])N(C(=O)c2c([H])c([H])c3c(sc(=O)n3[H])c2C([H])([H])[H])C([H])([H])C([H])([H])C1([H])[H])C([H])=C([H])[H]
     RDKit          3D

 46 48  0  0  0  0  0  0  0  0999 V2000
    1.8311   -2.1397   -1.4738 C   0  0  0  0  0  0  0  0  0  0  0  0
    2.7761   -1.2735   -0.7553 C   0  0  0  0  0  0  0  0  0  0  0  0
    2.3821   -0.4886    0.2982 C   0  0  0  0  0  0  0  0  0  0  0  0
    3.3473    0.2763    0.8906 C   0  0  0  0  0  0  0  0  0  0  0  0
    4.6595    0.3013    0.4977 C   0  0  0  0  0  0  0  0  0  0  0  0
    5.0716   -0.5050   -0.5869 C   0  0  0  0  0  0  0  0  0  0  0  0
    6.3004   -0.5768   -1.0673 N   0  0  0  0  0  0  0  0  0  0  0  0
    6.5273   -1.3884   -2.0986 C   0  0  0  0  0  0  0  0  0  0  0  0
    7.6427   -1.5945   -2.7010 O   0  0  0  0  0  0  0  0  0  0  0  0
    4.9921   -2.0670   -2.4056 S   0  0  0  0  0  0  0  0  0  0  0  0
    4.1164   -1.2713   -1.1842 C   0  0  0  0  0  0  0  0  0  0  0  0
    0.9839   -0.4933    0.7427 C   0  0  0  0  0  0  0  0  0  0  0  0
    0.6366   -1.3142    1.6178 O   0  0  0  0  0  0  0  0  0  0  0  0
    0.0399    0.4022    0.2046 N   0  0  0  0  0  0  0  0  0  0  0  0
    0.4362    1.4087   -0.8724 C   0  0  0  0  0  0  0  0  0  0  0  0
   -0.0108    2.6637   -0.1551 C   0  0  0  0  0  0  0  0  0  0  0  0
   -1.1969    2.2396    0.6834 C   0  0  0  0  0  0  0  0  0  0  0  0
   -1.3339    0.7326    0.3259 C   0  0  2  0  0  0  0  0  0  0  0  0
   -2.2110    0.0733    1.2533 C   0  0  0  0  0  0  0  0  0  0  0  0
   -1.8035   -0.6063    2.2124 O   0  0  0  0  0  0  0  0  0  0  0  0
   -3.6400    0.2214    1.0404 N   0  0  0  0  0  0  0  0  0  0  0  0
   -4.4999   -0.4497    2.0139 C   0  0  0  0  0  0  0  0  0  0  0  0
   -4.8249   -1.8276    1.5797 C   0  0  0  0  0  0  0  0  0  0  0  0
   -4.3161   -2.2995    0.3840 O   0  0  0  0  0  0  0  0  0  0  0  0
   -5.5488   -2.5482    2.2883 O   0  0  0  0  0  0  0  0  0  0  0  0
   -4.2292    0.9287   -0.0040 C   0  0  0  0  0  0  0  0  0  0  0  0
   -5.5385    1.0494   -0.1785 C   0  0  0  0  0  0  0  0  0  0  0  0
    2.2185   -2.3648   -2.4901 H   0  0  0  0  0  0  0  0  0  0  0  0
    1.7921   -3.1200   -0.9316 H   0  0  0  0  0  0  0  0  0  0  0  0
    0.8032   -1.7440   -1.4885 H   0  0  0  0  0  0  0  0  0  0  0  0
    2.9963    0.8944    1.7333 H   0  0  0  0  0  0  0  0  0  0  0  0
    5.3385    0.9436    1.0374 H   0  0  0  0  0  0  0  0  0  0  0  0
    7.1547   -0.0239   -0.6895 H   0  0  0  0  0  0  0  0  0  0  0  0
    1.4993    1.3535   -1.0640 H   0  0  0  0  0  0  0  0  0  0  0  0
   -0.1932    1.1772   -1.7484 H   0  0  0  0  0  0  0  0  0  0  0  0
    0.8305    2.9408    0.5422 H   0  0  0  0  0  0  0  0  0  0  0  0
   -0.2439    3.4939   -0.8342 H   0  0  0  0  0  0  0  0  0  0  0  0
   -2.1018    2.7972    0.4305 H   0  0  0  0  0  0  0  0  0  0  0  0
   -0.9784    2.3335    1.7755 H   0  0  0  0  0  0  0  0  0  0  0  0
   -1.7523    0.7584   -0.7225 H   0  0  0  0  0  0  0  0  0  0  0  0
   -5.4243    0.1169    2.1765 H   0  0  0  0  0  0  0  0  0  0  0  0
   -3.9288   -0.5495    2.9741 H   0  0  0  0  0  0  0  0  0  0  0  0
   -4.7974   -2.1240   -0.4962 H   0  0  0  0  0  0  0  0  0  0  0  0
   -3.5979    1.4193   -0.7392 H   0  0  0  0  0  0  0  0  0  0  0  0
   -6.2869    0.6234    0.4536 H   0  0  0  0  0  0  0  0  0  0  0  0
   -5.9178    1.6203   -1.0214 H   0  0  0  0  0  0  0  0  0  0  0  0
  1  2  1  0
  2  3  2  0
  3  4  1  0
  4  5  2  0
  5  6  1  0
  6  7  1  0
  7  8  1  0
  8  9  2  0
  8 10  1  0
 10 11  1  0
  3 12  1  0
 12 13  2  0
 12 14  1  0
 14 15  1  0
 15 16  1  0
 16 17  1  0
 17 18  1  0
 18 19  1  0
 19 20  2  0
 19 21  1  0
 21 22  1  0
 22 23  1  0
 23 24  1  0
 23 25  2  0
 21 26  1  0
 26 27  2  3
 11  2  1  0
 18 14  1  0
 11  6  2  0
  1 28  1  0
  1 29  1  0
  1 30  1  0
  4 31  1  0
  5 32  1  0
  7 33  1  0
 15 34  1  0
 15 35  1  0
 16 36  1  0
 16 37  1  0
 17 38  1  0
 17 39  1  0
 18 40  1  6
 22 41  1  0
 22 42  1  0
 24 43  1  0
 26 44  1  0
 27 45  1  0
 27 46  1  0
M  END
$$$$
[H]c1c([H])c([H])c(C([H])([H])C([H])([H])C23C([H])([H])OC(=O)C2([H])c2c([H])c([N+](=O)[O-])c([H])c([H])c2C3([H])[H])c([H])c1[H]
     RDKit          3D

 41 44  0  0  0  0  0  0  0  0999 V2000
   -7.1940    0.7596   -0.2778 O   0  0  0  0  0  0  0  0  0  0  0  0
   -6.2421   -0.1549    0.0577 N   0  0  0  0  0  0  0  0  0  0  0  0
   -6.5902   -1.2964    0.3888 O   0  0  0  0  0  0  0  0  0  0  0  0
   -4.8704    0.1730    0.0350 C   0  0  0  0  0  0  0  0  0  0  0  0
   -4.5130    1.4530   -0.3382 C   0  0  0  0  0  0  0  0  0  0  0  0
   -3.1930    1.8245   -0.3771 C   0  0  0  0  0  0  0  0  0  0  0  0
   -2.2333    0.8862   -0.0338 C   0  0  0  0  0  0  0  0  0  0  0  0
   -0.7748    1.0245    0.0131 C   0  0  0  0  0  0  0  0  0  0  0  0
   -0.2932   -0.3805   -0.1893 C   0  0  0  0  0  0  0  0  0  0  0  0
    1.1110   -0.5010    0.2929 C   0  0  0  0  0  0  0  0  0  0  0  0
    1.9691    0.4468   -0.4859 C   0  0  0  0  0  0  0  0  0  0  0  0
    3.3895    0.4351   -0.1150 C   0  0  0  0  0  0  0  0  0  0  0  0
    4.2135   -0.4448   -0.7863 C   0  0  0  0  0  0  0  0  0  0  0  0
    5.5714   -0.5443   -0.5215 C   0  0  0  0  0  0  0  0  0  0  0  0
    6.0984    0.2694    0.4467 C   0  0  0  0  0  0  0  0  0  0  0  0
    5.2762    1.1542    1.1235 C   0  0  0  0  0  0  0  0  0  0  0  0
    3.9383    1.2411    0.8512 C   0  0  0  0  0  0  0  0  0  0  0  0
   -0.5365   -0.9234   -1.5596 C   0  0  0  0  0  0  0  0  0  0  0  0
   -0.8455   -2.2990   -1.2948 O   0  0  0  0  0  0  0  0  0  0  0  0
   -1.3887   -2.4517   -0.0458 C   0  0  0  0  0  0  0  0  0  0  0  0
   -1.8807   -3.5213    0.3956 O   0  0  0  0  0  0  0  0  0  0  0  0
   -1.2823   -1.1607    0.6439 C   0  0  0  0  0  0  0  0  0  0  0  0
   -2.5472   -0.3984    0.3431 C   0  0  0  0  0  0  0  0  0  0  0  0
   -3.8817   -0.7364    0.3710 C   0  0  0  0  0  0  0  0  0  0  0  0
   -5.2829    2.1854   -0.6074 H   0  0  0  0  0  0  0  0  0  0  0  0
   -2.8884    2.8227   -0.6666 H   0  0  0  0  0  0  0  0  0  0  0  0
   -0.4997    1.3173    1.0518 H   0  0  0  0  0  0  0  0  0  0  0  0
   -0.3780    1.7403   -0.7360 H   0  0  0  0  0  0  0  0  0  0  0  0
    1.4336   -1.5522    0.1495 H   0  0  0  0  0  0  0  0  0  0  0  0
    1.1205   -0.3176    1.3804 H   0  0  0  0  0  0  0  0  0  0  0  0
    1.8763    0.2046   -1.5587 H   0  0  0  0  0  0  0  0  0  0  0  0
    1.6085    1.4895   -0.3686 H   0  0  0  0  0  0  0  0  0  0  0  0
    3.8073   -1.0938   -1.5548 H   0  0  0  0  0  0  0  0  0  0  0  0
    6.1566   -1.2579   -1.0883 H   0  0  0  0  0  0  0  0  0  0  0  0
    7.1668    0.2011    0.6653 H   0  0  0  0  0  0  0  0  0  0  0  0
    5.6957    1.7902    1.8823 H   0  0  0  0  0  0  0  0  0  0  0  0
    3.2626    1.9188    1.3572 H   0  0  0  0  0  0  0  0  0  0  0  0
    0.3193   -0.9257   -2.2291 H   0  0  0  0  0  0  0  0  0  0  0  0
   -1.4455   -0.4416   -1.9968 H   0  0  0  0  0  0  0  0  0  0  0  0
   -1.0529   -1.2028    1.7050 H   0  0  0  0  0  0  0  0  0  0  0  0
   -4.2008   -1.7329    0.6592 H   0  0  0  0  0  0  0  0  0  0  0  0
  1  2  1  0
  2  3  2  0
  2  4  1  0
  4  5  2  0
  5  6  1  0
  6  7  2  0
  7  8  1  0
  8  9  1  0
  9 10  1  0
 10 11  1  0
 11 12  1  0
 12 13  2  0
 13 14  1  0
 14 15  2  0
 15 16  1  0
 16 17  2  0
  9 18  1  0
 18 19  1  0
 19 20  1  0
 20 21  2  0
 20 22  1  0
 22 23  1  0
 23 24  2  0
 24  4  1  0
 23  7  1  0
 22  9  1  0
 17 12  1  0
  5 25  1  0
  6 26  1  0
  8 27  1  0
  8 28  1  0
 10 29  1  0
 10 30  1  0
 11 31  1  0
 11 32  1  0
 13 33  1  0
 14 34  1  0
 15 35  1  0
 16 36  1  0
 17 37  1  0
 18 38  1  0
 18 39  1  0
 22 40  1  0
 24 41  1  0
M  CHG  2   1  -1   2   1
M  END
$$$$
[H]c1c([H])c2c(c(N3C([H])([H])C([H])([H])N(C(=O)c4c([H])c([H])c5c(c4[H])OC([H])([H])O5)C([H])([H])C3([H])[H])c1[H])C(=O)C(C([H])([H])[H])(C([H])([H])[H])O2
     RDKit          3D

 51 55  0  0  0  0  0  0  0  0999 V2000
   -4.1532   -3.0429    1.6553 C   0  0  0  0  0  0  0  0  0  0  0  0
   -4.2123   -1.8116    0.8196 C   0  0  0  0  0  0  0  0  0  0  0  0
   -4.5500   -2.1003   -0.6298 C   0  0  0  0  0  0  0  0  0  0  0  0
   -5.1312   -0.8465    1.2799 O   0  0  0  0  0  0  0  0  0  0  0  0
   -4.7368    0.3977    0.8160 C   0  0  0  0  0  0  0  0  0  0  0  0
   -5.4424    1.5727    0.5906 C   0  0  0  0  0  0  0  0  0  0  0  0
   -4.7559    2.6612    0.1145 C   0  0  0  0  0  0  0  0  0  0  0  0
   -3.4072    2.6106   -0.1383 C   0  0  0  0  0  0  0  0  0  0  0  0
   -2.6571    1.4333    0.0799 C   0  0  0  0  0  0  0  0  0  0  0  0
   -1.2718    1.4334   -0.1702 N   0  0  0  0  0  0  0  0  0  0  0  0
   -0.3211    1.4470    0.8951 C   0  0  0  0  0  0  0  0  0  0  0  0
    0.9916    0.7433    0.5611 C   0  0  0  0  0  0  0  0  0  0  0  0
    1.5774    1.3182   -0.6028 N   0  0  0  0  0  0  0  0  0  0  0  0
    0.6777    2.1806   -1.4138 C   0  0  0  0  0  0  0  0  0  0  0  0
   -0.6729    1.4419   -1.5145 C   0  0  0  0  0  0  0  0  0  0  0  0
    2.8762    1.1542   -1.0733 C   0  0  0  0  0  0  0  0  0  0  0  0
    3.1428    1.8389   -2.1700 O   0  0  0  0  0  0  0  0  0  0  0  0
    3.9766    0.3889   -0.5988 C   0  0  0  0  0  0  0  0  0  0  0  0
    5.2324    0.4965   -1.2317 C   0  0  0  0  0  0  0  0  0  0  0  0
    6.3342   -0.2180   -0.8528 C   0  0  0  0  0  0  0  0  0  0  0  0
    6.2706   -1.0939    0.1844 C   0  0  0  0  0  0  0  0  0  0  0  0
    7.2116   -1.9347    0.7747 O   0  0  0  0  0  0  0  0  0  0  0  0
    6.6022   -2.6291    1.8369 C   0  0  0  0  0  0  0  0  0  0  0  0
    5.2607   -2.1749    1.8416 O   0  0  0  0  0  0  0  0  0  0  0  0
    5.0770   -1.2412    0.8376 C   0  0  0  0  0  0  0  0  0  0  0  0
    3.9553   -0.5004    0.4359 C   0  0  0  0  0  0  0  0  0  0  0  0
   -3.3618    0.3411    0.5603 C   0  0  0  0  0  0  0  0  0  0  0  0
   -2.9482   -1.0126    0.8938 C   0  0  0  0  0  0  0  0  0  0  0  0
   -1.7960   -1.3807    1.1710 O   0  0  0  0  0  0  0  0  0  0  0  0
   -3.3130   -2.9727    2.3816 H   0  0  0  0  0  0  0  0  0  0  0  0
   -5.0692   -3.2275    2.2375 H   0  0  0  0  0  0  0  0  0  0  0  0
   -3.9048   -3.9057    0.9947 H   0  0  0  0  0  0  0  0  0  0  0  0
   -5.5443   -2.5692   -0.6806 H   0  0  0  0  0  0  0  0  0  0  0  0
   -3.7575   -2.7306   -1.1123 H   0  0  0  0  0  0  0  0  0  0  0  0
   -4.5579   -1.1399   -1.1813 H   0  0  0  0  0  0  0  0  0  0  0  0
   -6.5084    1.6034    0.7936 H   0  0  0  0  0  0  0  0  0  0  0  0
   -5.2925    3.5980   -0.0709 H   0  0  0  0  0  0  0  0  0  0  0  0
   -2.9234    3.4952   -0.5107 H   0  0  0  0  0  0  0  0  0  0  0  0
   -0.7153    1.1618    1.8897 H   0  0  0  0  0  0  0  0  0  0  0  0
   -0.0039    2.5394    0.9866 H   0  0  0  0  0  0  0  0  0  0  0  0
    1.6474    1.0114    1.4359 H   0  0  0  0  0  0  0  0  0  0  0  0
    0.8266   -0.3545    0.4893 H   0  0  0  0  0  0  0  0  0  0  0  0
    1.0738    2.2263   -2.4362 H   0  0  0  0  0  0  0  0  0  0  0  0
    0.5665    3.1726   -0.9861 H   0  0  0  0  0  0  0  0  0  0  0  0
   -0.4070    0.3930   -1.7581 H   0  0  0  0  0  0  0  0  0  0  0  0
   -1.2959    1.9458   -2.2505 H   0  0  0  0  0  0  0  0  0  0  0  0
    5.3107    1.1805   -2.0507 H   0  0  0  0  0  0  0  0  0  0  0  0
    7.2974   -0.1097   -1.3680 H   0  0  0  0  0  0  0  0  0  0  0  0
    7.0789   -2.3826    2.8189 H   0  0  0  0  0  0  0  0  0  0  0  0
    6.6649   -3.7244    1.7233 H   0  0  0  0  0  0  0  0  0  0  0  0
    3.0584   -0.6832    0.9871 H   0  0  0  0  0  0  0  0  0  0  0  0
  1  2  1  0
  2  3  1  0
  2  4  1  0
  4  5  1  0
  5  6  2  0
  6  7  1  0
  7  8  2  0
  8  9  1  0
  9 10  1  0
 10 11  1  0
 11 12  1  0
 12 13  1  0
 13 14  1  0
 14 15  1  0
 13 16  1  0
 16 17  2  0
 16 18  1  0
 18 19  2  0
 19 20  1  0
 20 21  2  0
 21 22  1  0
 22 23  1  0
 23 24  1  0
 24 25  1  0
 25 26  2  0
  9 27  2  0
 27 28  1  0
 28 29  2  0
 28  2  1  0
 27  5  1  0
 15 10  1  0
 26 18  1  0
 25 21  1  0
  1 30  1  0
  1 31  1  0
  1 32  1  0
  3 33  1  0
  3 34  1  0
  3 35  1  0
  6 36  1  0
  7 37  1  0
  8 38  1  0
 11 39  1  0
 11 40  1  0
 12 41  1  0
 12 42  1  0
 14 43  1  0
 14 44  1  0
 15 45  1  0
 15 46  1  0
 19 47  1  0
 20 48  1  0
 23 49  1  0
 23 50  1  0
 26 51  1  0
M  END
$$$$
[H]C([H])=C([H])C(=O)N([H])C1(C(=O)N([H])[C@]2([H])C([H])([H])C([H])([H])[C@]([H])(N3C([H])([H])C([H])([H])N(c4c([H])c(Cl)c(OC([H])([H])[H])c(Cl)c4[H])C([H])([H])C3([H])[H])C([H])([H])C2([H])[H])C([H])([H])C1([H])[H]
     RDKit          3D

 65 68  0  0  0  0  0  0  0  0999 V2000
   -9.8386   -1.6807   -1.1819 C   0  0  0  0  0  0  0  0  0  0  0  0
   -9.5665   -0.5965   -0.2858 O   0  0  0  0  0  0  0  0  0  0  0  0
   -8.2370   -0.2607   -0.1078 C   0  0  0  0  0  0  0  0  0  0  0  0
   -7.5293   -0.8727    0.8886 C   0  0  0  0  0  0  0  0  0  0  0  0
   -8.2970   -2.0491    1.9065 Cl  0  0  0  0  0  0  0  0  0  0  0  0
   -6.1922   -0.5604    1.0966 C   0  0  0  0  0  0  0  0  0  0  0  0
   -5.5365    0.3621    0.3212 C   0  0  0  0  0  0  0  0  0  0  0  0
   -6.2877    0.9708   -0.6898 C   0  0  0  0  0  0  0  0  0  0  0  0
   -7.6268    0.6635   -0.9043 C   0  0  0  0  0  0  0  0  0  0  0  0
   -8.5301    1.4547   -2.1879 Cl  0  0  0  0  0  0  0  0  0  0  0  0
   -4.1958    0.7288    0.4722 N   0  0  0  0  0  0  0  0  0  0  0  0
   -3.5625    1.6926   -0.4408 C   0  0  0  0  0  0  0  0  0  0  0  0
   -2.0758    1.6425   -0.1826 C   0  0  0  0  0  0  0  0  0  0  0  0
   -1.5509    0.3349   -0.0434 N   0  0  0  0  0  0  0  0  0  0  0  0
   -0.1358    0.2371   -0.0877 C   0  0  1  0  0  0  0  0  0  0  0  0
    0.4123   -1.1433   -0.0448 C   0  0  0  0  0  0  0  0  0  0  0  0
    1.8588   -1.0542    0.4230 C   0  0  0  0  0  0  0  0  0  0  0  0
    2.4908    0.2289   -0.0452 C   0  0  2  0  0  0  0  0  0  0  0  0
    1.9548    0.6618   -1.3912 C   0  0  0  0  0  0  0  0  0  0  0  0
    0.4761    0.9636   -1.2694 C   0  0  0  0  0  0  0  0  0  0  0  0
    3.9225   -0.0164   -0.1481 N   0  0  0  0  0  0  0  0  0  0  0  0
    4.8299    0.7447    0.5999 C   0  0  0  0  0  0  0  0  0  0  0  0
    4.3687    1.6495    1.3664 O   0  0  0  0  0  0  0  0  0  0  0  0
    6.3239    0.6074    0.5973 C   0  0  0  0  0  0  0  0  0  0  0  0
    6.9539    0.8218    1.9329 C   0  0  0  0  0  0  0  0  0  0  0  0
    7.1107    1.8474    0.8615 C   0  0  0  0  0  0  0  0  0  0  0  0
    6.8791   -0.3901   -0.2590 N   0  0  0  0  0  0  0  0  0  0  0  0
    8.2366   -0.7238   -0.3868 C   0  0  0  0  0  0  0  0  0  0  0  0
    9.1014   -0.1307    0.2904 O   0  0  0  0  0  0  0  0  0  0  0  0
    8.7304   -1.7580   -1.2927 C   0  0  0  0  0  0  0  0  0  0  0  0
    7.9362   -2.4543   -2.0574 C   0  0  0  0  0  0  0  0  0  0  0  0
   -2.2239   -0.5508    0.8200 C   0  0  0  0  0  0  0  0  0  0  0  0
   -3.3672    0.2068    1.4992 C   0  0  0  0  0  0  0  0  0  0  0  0
   -9.0970   -1.7323   -1.9899 H   0  0  0  0  0  0  0  0  0  0  0  0
  -10.8224   -1.4741   -1.6479 H   0  0  0  0  0  0  0  0  0  0  0  0
   -9.8386   -2.6376   -0.6167 H   0  0  0  0  0  0  0  0  0  0  0  0
   -5.6638   -1.0624    1.8895 H   0  0  0  0  0  0  0  0  0  0  0  0
   -5.8248    1.6970   -1.3224 H   0  0  0  0  0  0  0  0  0  0  0  0
   -3.9223    2.6904   -0.1147 H   0  0  0  0  0  0  0  0  0  0  0  0
   -3.8040    1.4837   -1.4842 H   0  0  0  0  0  0  0  0  0  0  0  0
   -1.8585    2.2326    0.7288 H   0  0  0  0  0  0  0  0  0  0  0  0
   -1.6112    2.2233   -1.0186 H   0  0  0  0  0  0  0  0  0  0  0  0
    0.2615    0.7766    0.8232 H   0  0  0  0  0  0  0  0  0  0  0  0
    0.4754   -1.5648   -1.0879 H   0  0  0  0  0  0  0  0  0  0  0  0
   -0.0902   -1.8376    0.6434 H   0  0  0  0  0  0  0  0  0  0  0  0
    1.8199   -1.0069    1.5344 H   0  0  0  0  0  0  0  0  0  0  0  0
    2.4116   -1.9517    0.0774 H   0  0  0  0  0  0  0  0  0  0  0  0
    2.3449    1.0582    0.6636 H   0  0  0  0  0  0  0  0  0  0  0  0
    2.5321    1.5635   -1.6898 H   0  0  0  0  0  0  0  0  0  0  0  0
    2.1578   -0.1011   -2.1744 H   0  0  0  0  0  0  0  0  0  0  0  0
   -0.0284    0.7760   -2.2149 H   0  0  0  0  0  0  0  0  0  0  0  0
    0.4192    2.0772   -1.0899 H   0  0  0  0  0  0  0  0  0  0  0  0
    4.2900   -0.7656   -0.7824 H   0  0  0  0  0  0  0  0  0  0  0  0
    7.7831    0.1831    2.2774 H   0  0  0  0  0  0  0  0  0  0  0  0
    6.2977    1.1868    2.7843 H   0  0  0  0  0  0  0  0  0  0  0  0
    8.0941    1.9650    0.4168 H   0  0  0  0  0  0  0  0  0  0  0  0
    6.5669    2.8226    0.9485 H   0  0  0  0  0  0  0  0  0  0  0  0
    6.2201   -0.9522   -0.8751 H   0  0  0  0  0  0  0  0  0  0  0  0
    9.7828   -1.9520   -1.3308 H   0  0  0  0  0  0  0  0  0  0  0  0
    6.8611   -2.3549   -2.1116 H   0  0  0  0  0  0  0  0  0  0  0  0
    8.3731   -3.2228   -2.7209 H   0  0  0  0  0  0  0  0  0  0  0  0
   -2.6927   -1.4413    0.3166 H   0  0  0  0  0  0  0  0  0  0  0  0
   -1.5896   -0.9107    1.6562 H   0  0  0  0  0  0  0  0  0  0  0  0
   -3.8431   -0.3903    2.2731 H   0  0  0  0  0  0  0  0  0  0  0  0
   -2.8374    1.0453    2.0453 H   0  0  0  0  0  0  0  0  0  0  0  0
  1  2  1  0
  2  3  1  0
  3  4  2  0
  4  5  1  0
  4  6  1  0
  6  7  2  0
  7  8  1  0
  8  9  2  0
  9 10  1  0
  7 11  1  0
 11 12  1  0
 12 13  1  0
 13 14  1  0
 14 15  1  0
 15 16  1  0
 16 17  1  0
 17 18  1  0
 18 19  1  0
 19 20  1  0
 18 21  1  0
 21 22  1  0
 22 23  2  0
 22 24  1  0
 24 25  1  0
 25 26  1  0
 24 27  1  0
 27 28  1  0
 28 29  2  0
 28 30  1  0
 30 31  2  3
 14 32  1  0
 32 33  1  0
  9  3  1  0
 33 11  1  0
 20 15  1  0
 26 24  1  0
  1 34  1  0
  1 35  1  0
  1 36  1  0
  6 37  1  0
  8 38  1  0
 12 39  1  0
 12 40  1  0
 13 41  1  0
 13 42  1  0
 15 43  1  1
 16 44  1  0
 16 45  1  0
 17 46  1  0
 17 47  1  0
 18 48  1  1
 19 49  1  0
 19 50  1  0
 20 51  1  0
 20 52  1  0
 21 53  1  0
 25 54  1  0
 25 55  1  0
 26 56  1  0
 26 57  1  0
 27 58  1  0
 30 59  1  0
 31 60  1  0
 31 61  1  0
 32 62  1  0
 32 63  1  0
 33 64  1  0
 33 65  1  0
M  END
$$$$
[H]c1c(C2([H])C([H])([H])N(C(=O)C([H])([H])C([H])([H])C([H])([H])[H])C2([H])[H])c([H])c2nc([H])n(C([H])([H])[H])c2c1[H]
     RDKit          3D

 38 40  0  0  0  0  0  0  0  0999 V2000
   -6.4054    1.6212   -0.4422 C   0  0  0  0  0  0  0  0  0  0  0  0
   -5.5418    0.3996   -0.6451 C   0  0  0  0  0  0  0  0  0  0  0  0
   -4.1503    0.6180   -0.0792 C   0  0  0  0  0  0  0  0  0  0  0  0
   -3.2976   -0.5795   -0.2759 C   0  0  0  0  0  0  0  0  0  0  0  0
   -3.8096   -1.5738   -0.8570 O   0  0  0  0  0  0  0  0  0  0  0  0
   -1.9537   -0.6352    0.1614 N   0  0  0  0  0  0  0  0  0  0  0  0
   -0.8958   -1.6002    0.1299 C   0  0  0  0  0  0  0  0  0  0  0  0
   -0.1040   -0.7686    1.1377 C   0  0  0  0  0  0  0  0  0  0  0  0
   -1.0933    0.3032    0.8389 C   0  0  0  0  0  0  0  0  0  0  0  0
    1.2948   -0.5370    0.8057 C   0  0  0  0  0  0  0  0  0  0  0  0
    1.7410   -0.0259   -0.3945 C   0  0  0  0  0  0  0  0  0  0  0  0
    3.0759    0.1786   -0.6699 C   0  0  0  0  0  0  0  0  0  0  0  0
    4.0234   -0.1251    0.2582 C   0  0  0  0  0  0  0  0  0  0  0  0
    5.3855   -0.0401    0.2866 N   0  0  0  0  0  0  0  0  0  0  0  0
    6.2086    0.4572   -0.8123 C   0  0  0  0  0  0  0  0  0  0  0  0
    5.8283   -0.4823    1.4717 C   0  0  0  0  0  0  0  0  0  0  0  0
    4.7518   -0.8400    2.1761 N   0  0  0  0  0  0  0  0  0  0  0  0
    3.6211   -0.6392    1.4734 C   0  0  0  0  0  0  0  0  0  0  0  0
    2.2631   -0.8419    1.7402 C   0  0  0  0  0  0  0  0  0  0  0  0
   -5.8706    2.3687    0.1966 H   0  0  0  0  0  0  0  0  0  0  0  0
   -7.3501    1.3383    0.0843 H   0  0  0  0  0  0  0  0  0  0  0  0
   -6.6699    2.1158   -1.3998 H   0  0  0  0  0  0  0  0  0  0  0  0
   -5.4515    0.1786   -1.7431 H   0  0  0  0  0  0  0  0  0  0  0  0
   -6.0379   -0.4762   -0.1788 H   0  0  0  0  0  0  0  0  0  0  0  0
   -3.7100    1.4964   -0.5920 H   0  0  0  0  0  0  0  0  0  0  0  0
   -4.2394    0.8602    1.0013 H   0  0  0  0  0  0  0  0  0  0  0  0
   -1.1731   -2.6003    0.4696 H   0  0  0  0  0  0  0  0  0  0  0  0
   -0.4196   -1.6134   -0.8707 H   0  0  0  0  0  0  0  0  0  0  0  0
   -0.2650   -1.1851    2.1518 H   0  0  0  0  0  0  0  0  0  0  0  0
   -1.6008    0.7546    1.7178 H   0  0  0  0  0  0  0  0  0  0  0  0
   -0.7804    1.1028    0.1471 H   0  0  0  0  0  0  0  0  0  0  0  0
    0.9797    0.2114   -1.1231 H   0  0  0  0  0  0  0  0  0  0  0  0
    3.3977    0.5832   -1.6253 H   0  0  0  0  0  0  0  0  0  0  0  0
    7.0709    1.0024   -0.3740 H   0  0  0  0  0  0  0  0  0  0  0  0
    5.6308    1.1490   -1.4598 H   0  0  0  0  0  0  0  0  0  0  0  0
    6.6432   -0.3994   -1.3938 H   0  0  0  0  0  0  0  0  0  0  0  0
    6.8831   -0.5295    1.7766 H   0  0  0  0  0  0  0  0  0  0  0  0
    2.0208   -1.2466    2.7102 H   0  0  0  0  0  0  0  0  0  0  0  0
  1  2  1  0
  2  3  1  0
  3  4  1  0
  4  5  2  0
  4  6  1  0
  6  7  1  0
  7  8  1  0
  8  9  1  0
  8 10  1  0
 10 11  2  0
 11 12  1  0
 12 13  2  0
 13 14  1  0
 14 15  1  0
 14 16  1  0
 16 17  2  0
 17 18  1  0
 18 19  2  0
  9  6  1  0
 19 10  1  0
 18 13  1  0
  1 20  1  0
  1 21  1  0
  1 22  1  0
  2 23  1  0
  2 24  1  0
  3 25  1  0
  3 26  1  0
  7 27  1  0
  7 28  1  0
  8 29  1  0
  9 30  1  0
  9 31  1  0
 11 32  1  0
 12 33  1  0
 15 34  1  0
 15 35  1  0
 15 36  1  0
 16 37  1  0
 19 38  1  0
M  END
$$$$
[H]c1c([H])c([H])c(C([H])([H])N([H])C(=O)c2c([H])c([H])c(Cl)c3c2c2c(=O)n([H])c4c(C([H])([H])[H])c(C#N)n(C([H])([H])C(F)(F)F)c5c([H])c([H])c([H])c([H])c5c4c32)c([H])c1[H]
     RDKit          3D

 61 66  0  0  0  0  0  0  0  0999 V2000
   -5.7558    3.6005    0.7135 N   0  0  0  0  0  0  0  0  0  0  0  0
   -5.2208    2.6179    0.4363 C   0  0  0  0  0  0  0  0  0  0  0  0
   -4.5082    1.3969    0.0714 C   0  0  0  0  0  0  0  0  0  0  0  0
   -3.4120    1.6610   -0.7736 C   0  0  0  0  0  0  0  0  0  0  0  0
   -3.5345    2.6793   -1.8183 C   0  0  0  0  0  0  0  0  0  0  0  0
   -2.1548    1.0537   -0.6131 C   0  0  0  0  0  0  0  0  0  0  0  0
   -1.1552    1.8247   -1.0165 N   0  0  0  0  0  0  0  0  0  0  0  0
    0.1016    1.4942   -0.6893 C   0  0  0  0  0  0  0  0  0  0  0  0
    1.0550    2.2067   -1.0680 O   0  0  0  0  0  0  0  0  0  0  0  0
    0.3667    0.3501    0.0794 C   0  0  0  0  0  0  0  0  0  0  0  0
    1.2505   -0.4321    0.7850 C   0  0  0  0  0  0  0  0  0  0  0  0
    2.5517   -0.5841    1.1526 C   0  0  0  0  0  0  0  0  0  0  0  0
    2.8788   -1.6111    2.0269 C   0  0  0  0  0  0  0  0  0  0  0  0
    1.8819   -2.4256    2.4872 C   0  0  0  0  0  0  0  0  0  0  0  0
    0.5608   -2.2787    2.1243 C   0  0  0  0  0  0  0  0  0  0  0  0
   -0.6289   -3.2435    2.9574 Cl  0  0  0  0  0  0  0  0  0  0  0  0
    0.2182   -1.2640    1.2468 C   0  0  0  0  0  0  0  0  0  0  0  0
   -0.6485   -0.4850    0.5198 C   0  0  0  0  0  0  0  0  0  0  0  0
   -1.8938   -0.0905    0.1313 C   0  0  0  0  0  0  0  0  0  0  0  0
   -2.8419   -1.0778    0.3222 C   0  0  0  0  0  0  0  0  0  0  0  0
   -2.2931   -2.3201    0.1777 C   0  0  0  0  0  0  0  0  0  0  0  0
   -3.1315   -3.4158    0.3705 C   0  0  0  0  0  0  0  0  0  0  0  0
   -4.4513   -3.2580    0.6930 C   0  0  0  0  0  0  0  0  0  0  0  0
   -4.9887   -1.9929    0.8278 C   0  0  0  0  0  0  0  0  0  0  0  0
   -4.1993   -0.9080    0.6383 C   0  0  0  0  0  0  0  0  0  0  0  0
   -4.9807    0.2257    0.5709 N   0  0  0  0  0  0  0  0  0  0  0  0
   -6.3298    0.2120    0.9887 C   0  0  0  0  0  0  0  0  0  0  0  0
   -7.4084    0.0052   -0.0204 C   0  0  0  0  0  0  0  0  0  0  0  0
   -8.6769   -0.0342    0.5960 F   0  0  0  0  0  0  0  0  0  0  0  0
   -7.2438   -0.9302   -0.9923 F   0  0  0  0  0  0  0  0  0  0  0  0
   -7.6337    1.1817   -0.8173 F   0  0  0  0  0  0  0  0  0  0  0  0
    3.5629    0.3140    0.6354 C   0  0  0  0  0  0  0  0  0  0  0  0
    4.0509    1.2420    1.3573 O   0  0  0  0  0  0  0  0  0  0  0  0
    4.0482    0.2029   -0.6785 N   0  0  0  0  0  0  0  0  0  0  0  0
    5.0299    1.0816   -1.2539 C   0  0  0  0  0  0  0  0  0  0  0  0
    6.3581    0.8281   -0.6518 C   0  0  0  0  0  0  0  0  0  0  0  0
    7.0733   -0.3154   -0.9852 C   0  0  0  0  0  0  0  0  0  0  0  0
    8.3178   -0.5890   -0.4571 C   0  0  0  0  0  0  0  0  0  0  0  0
    8.9012    0.2887    0.4404 C   0  0  0  0  0  0  0  0  0  0  0  0
    8.2196    1.4192    0.7839 C   0  0  0  0  0  0  0  0  0  0  0  0
    6.9676    1.6960    0.2528 C   0  0  0  0  0  0  0  0  0  0  0  0
   -3.0570    2.4082   -2.7695 H   0  0  0  0  0  0  0  0  0  0  0  0
   -4.6095    2.7968   -2.0589 H   0  0  0  0  0  0  0  0  0  0  0  0
   -3.2378    3.6972   -1.4630 H   0  0  0  0  0  0  0  0  0  0  0  0
   -1.4110    2.6653   -1.5773 H   0  0  0  0  0  0  0  0  0  0  0  0
    3.9215   -1.7036    2.2924 H   0  0  0  0  0  0  0  0  0  0  0  0
    2.1508   -3.2102    3.1605 H   0  0  0  0  0  0  0  0  0  0  0  0
   -1.3009   -2.4671   -0.1285 H   0  0  0  0  0  0  0  0  0  0  0  0
   -2.6571   -4.3987    0.2416 H   0  0  0  0  0  0  0  0  0  0  0  0
   -5.1117   -4.0847    0.8493 H   0  0  0  0  0  0  0  0  0  0  0  0
   -6.0078   -1.8428    1.1332 H   0  0  0  0  0  0  0  0  0  0  0  0
   -6.5324    1.2958    1.3194 H   0  0  0  0  0  0  0  0  0  0  0  0
   -6.5352   -0.2188    2.0042 H   0  0  0  0  0  0  0  0  0  0  0  0
    3.6692   -0.5736   -1.2842 H   0  0  0  0  0  0  0  0  0  0  0  0
    5.1604    0.8902   -2.3528 H   0  0  0  0  0  0  0  0  0  0  0  0
    4.7463    2.1680   -1.2005 H   0  0  0  0  0  0  0  0  0  0  0  0
    6.6364   -1.0205   -1.6953 H   0  0  0  0  0  0  0  0  0  0  0  0
    8.8950   -1.4770   -0.7034 H   0  0  0  0  0  0  0  0  0  0  0  0
    9.8952    0.0492    0.8516 H   0  0  0  0  0  0  0  0  0  0  0  0
    8.6582    2.1067    1.4846 H   0  0  0  0  0  0  0  0  0  0  0  0
    6.4243    2.5939    0.5154 H   0  0  0  0  0  0  0  0  0  0  0  0
  1  2  3  0
  2  3  1  0
  3  4  2  0
  4  5  1  0
  4  6  1  0
  6  7  1  0
  7  8  1  0
  8  9  2  0
  8 10  1  0
 10 11  2  0
 11 12  1  0
 12 13  2  0
 13 14  1  0
 14 15  2  0
 15 16  1  0
 15 17  1  0
 17 18  2  0
 18 19  1  0
 19 20  1  0
 20 21  2  0
 21 22  1  0
 22 23  2  0
 23 24  1  0
 24 25  2  0
 25 26  1  0
 26 27  1  0
 27 28  1  0
 28 29  1  0
 28 30  1  0
 28 31  1  0
 12 32  1  0
 32 33  2  0
 32 34  1  0
 34 35  1  0
 35 36  1  0
 36 37  2  0
 37 38  1  0
 38 39  2  0
 39 40  1  0
 40 41  2  0
 26  3  1  0
 41 36  1  0
 19  6  2  0
 25 20  1  0
 18 10  1  0
 17 11  1  0
  5 42  1  0
  5 43  1  0
  5 44  1  0
  7 45  1  0
 13 46  1  0
 14 47  1  0
 21 48  1  0
 22 49  1  0
 23 50  1  0
 24 51  1  0
 27 52  1  0
 27 53  1  0
 34 54  1  0
 35 55  1  0
 35 56  1  0
 37 57  1  0
 38 58  1  0
 39 59  1  0
 40 60  1  0
 41 61  1  0
M  END
$$$$
[H]c1nc(N2C([H])([H])C([H])([H])N(C(=O)N([H])C([H])([H])C([H])([H])[H])C([H])([H])C2([H])[H])c([H])c([H])c1-c1c([H])c(F)c([H])c(S(=O)(=O)c2c([H])c([H])c([H])c([H])c2[H])c1[H]
     RDKit          3D

 58 61  0  0  0  0  0  0  0  0999 V2000
    9.4910    0.1335    1.4319 C   0  0  0  0  0  0  0  0  0  0  0  0
    8.5176   -0.6802    2.2535 C   0  0  0  0  0  0  0  0  0  0  0  0
    7.2340   -0.7830    1.6110 N   0  0  0  0  0  0  0  0  0  0  0  0
    6.4986    0.3853    1.3266 C   0  0  0  0  0  0  0  0  0  0  0  0
    6.9820    1.4991    1.6428 O   0  0  0  0  0  0  0  0  0  0  0  0
    5.2319    0.3529    0.6966 N   0  0  0  0  0  0  0  0  0  0  0  0
    4.6721   -0.9259    0.3261 C   0  0  0  0  0  0  0  0  0  0  0  0
    3.6955   -0.6619   -0.8253 C   0  0  0  0  0  0  0  0  0  0  0  0
    2.6432    0.1772   -0.3045 N   0  0  0  0  0  0  0  0  0  0  0  0
    3.0078    1.3516    0.4657 C   0  0  0  0  0  0  0  0  0  0  0  0
    4.5079    1.5565    0.4290 C   0  0  0  0  0  0  0  0  0  0  0  0
    1.2874   -0.1449   -0.5468 C   0  0  0  0  0  0  0  0  0  0  0  0
    0.2520    0.6307   -0.0640 C   0  0  0  0  0  0  0  0  0  0  0  0
   -1.0690    0.2768   -0.3294 C   0  0  0  0  0  0  0  0  0  0  0  0
   -1.3668   -0.8454   -1.0733 C   0  0  0  0  0  0  0  0  0  0  0  0
   -0.2951   -1.5826   -1.5298 C   0  0  0  0  0  0  0  0  0  0  0  0
    0.9771   -1.2345   -1.2694 N   0  0  0  0  0  0  0  0  0  0  0  0
   -2.7233   -1.2719   -1.3906 C   0  0  0  0  0  0  0  0  0  0  0  0
   -3.0850   -2.5892   -1.5541 C   0  0  0  0  0  0  0  0  0  0  0  0
   -4.3661   -2.9967   -1.8567 C   0  0  0  0  0  0  0  0  0  0  0  0
   -4.6955   -4.3177   -2.0134 F   0  0  0  0  0  0  0  0  0  0  0  0
   -5.3712   -2.0431   -2.0115 C   0  0  0  0  0  0  0  0  0  0  0  0
   -5.0212   -0.7206   -1.8502 C   0  0  0  0  0  0  0  0  0  0  0  0
   -3.7297   -0.3326   -1.5466 C   0  0  0  0  0  0  0  0  0  0  0  0
   -6.3059    0.4774   -2.0528 S   0  0  0  0  0  0  0  0  0  0  0  0
   -5.6791    1.7668   -2.5292 O   0  0  0  0  0  0  0  0  0  0  0  0
   -7.3518    0.0093   -2.9951 O   0  0  0  0  0  0  0  0  0  0  0  0
   -7.0433    0.7090   -0.4772 C   0  0  0  0  0  0  0  0  0  0  0  0
   -6.5870    1.6698    0.4131 C   0  0  0  0  0  0  0  0  0  0  0  0
   -7.1459    1.8740    1.6541 C   0  0  0  0  0  0  0  0  0  0  0  0
   -8.2103    1.0986    2.0519 C   0  0  0  0  0  0  0  0  0  0  0  0
   -8.6825    0.1299    1.1736 C   0  0  0  0  0  0  0  0  0  0  0  0
   -8.1085   -0.0552   -0.0594 C   0  0  0  0  0  0  0  0  0  0  0  0
    9.1393    0.0847    0.3806 H   0  0  0  0  0  0  0  0  0  0  0  0
    9.5181    1.1672    1.7978 H   0  0  0  0  0  0  0  0  0  0  0  0
   10.4924   -0.3086    1.4753 H   0  0  0  0  0  0  0  0  0  0  0  0
    8.9680   -1.6676    2.4602 H   0  0  0  0  0  0  0  0  0  0  0  0
    8.3766   -0.1579    3.2197 H   0  0  0  0  0  0  0  0  0  0  0  0
    6.8700   -1.7223    1.3680 H   0  0  0  0  0  0  0  0  0  0  0  0
    4.0929   -1.3065    1.1938 H   0  0  0  0  0  0  0  0  0  0  0  0
    5.4256   -1.6547   -0.0413 H   0  0  0  0  0  0  0  0  0  0  0  0
    4.2113   -0.1001   -1.6333 H   0  0  0  0  0  0  0  0  0  0  0  0
    3.2775   -1.6255   -1.1898 H   0  0  0  0  0  0  0  0  0  0  0  0
    2.5454    2.2423   -0.0074 H   0  0  0  0  0  0  0  0  0  0  0  0
    2.6492    1.3074    1.5132 H   0  0  0  0  0  0  0  0  0  0  0  0
    4.7622    2.3000    1.2119 H   0  0  0  0  0  0  0  0  0  0  0  0
    4.8051    2.0312   -0.5480 H   0  0  0  0  0  0  0  0  0  0  0  0
    0.4739    1.5251    0.5286 H   0  0  0  0  0  0  0  0  0  0  0  0
   -1.8792    0.8822    0.0473 H   0  0  0  0  0  0  0  0  0  0  0  0
   -0.5274   -2.4684   -2.1168 H   0  0  0  0  0  0  0  0  0  0  0  0
   -2.3287   -3.3460   -1.4401 H   0  0  0  0  0  0  0  0  0  0  0  0
   -6.3737   -2.3544   -2.2479 H   0  0  0  0  0  0  0  0  0  0  0  0
   -3.4838    0.7129   -1.4256 H   0  0  0  0  0  0  0  0  0  0  0  0
   -5.7552    2.2861    0.1198 H   0  0  0  0  0  0  0  0  0  0  0  0
   -6.7769    2.6362    2.3488 H   0  0  0  0  0  0  0  0  0  0  0  0
   -8.6375    1.2716    3.0286 H   0  0  0  0  0  0  0  0  0  0  0  0
   -9.5165   -0.4763    1.4873 H   0  0  0  0  0  0  0  0  0  0  0  0
   -8.4893   -0.8127   -0.7272 H   0  0  0  0  0  0  0  0  0  0  0  0
  1  2  1  0
  2  3  1  0
  3  4  1  0
  4  5  2  0
  4  6  1  0
  6  7  1  0
  7  8  1  0
  8  9  1  0
  9 10  1  0
 10 11  1  0
  9 12  1  0
 12 13  2  0
 13 14  1  0
 14 15  2  0
 15 16  1  0
 16 17  2  0
 15 18  1  0
 18 19  2  0
 19 20  1  0
 20 21  1  0
 20 22  2  0
 22 23  1  0
 23 24  2  0
 23 25  1  0
 25 26  2  0
 25 27  2  0
 25 28  1  0
 28 29  2  0
 29 30  1  0
 30 31  2  0
 31 32  1  0
 32 33  2  0
 11  6  1  0
 17 12  1  0
 24 18  1  0
 33 28  1  0
  1 34  1  0
  1 35  1  0
  1 36  1  0
  2 37  1  0
  2 38  1  0
  3 39  1  0
  7 40  1  0
  7 41  1  0
  8 42  1  0
  8 43  1  0
 10 44  1  0
 10 45  1  0
 11 46  1  0
 11 47  1  0
 13 48  1  0
 14 49  1  0
 16 50  1  0
 19 51  1  0
 22 52  1  0
 24 53  1  0
 29 54  1  0
 30 55  1  0
 31 56  1  0
 32 57  1  0
 33 58  1  0
M  END
$$$$
[H]c1nc2nc(-c3nc(-c4c([H])c([H])c([H])c(N(C(=O)c5c([H])c([H])c([H])c6nc([H])c([H])c([H])c56)C([H])([H])[H])c4[H])sc3[H])c([H])c([H])c2nc1[H]
     RDKit          3D

 53 58  0  0  0  0  0  0  0  0999 V2000
    3.3018   -2.7081   -2.7699 C   0  0  0  0  0  0  0  0  0  0  0  0
    3.4031   -2.0564   -1.4508 N   0  0  0  0  0  0  0  0  0  0  0  0
    2.1815   -2.0293   -0.7131 C   0  0  0  0  0  0  0  0  0  0  0  0
    2.0216   -2.7235    0.4575 C   0  0  0  0  0  0  0  0  0  0  0  0
    0.8376   -2.6743    1.1449 C   0  0  0  0  0  0  0  0  0  0  0  0
   -0.2170   -1.9009    0.6316 C   0  0  0  0  0  0  0  0  0  0  0  0
   -0.0902   -1.2079   -0.5207 C   0  0  0  0  0  0  0  0  0  0  0  0
    1.1005   -1.2671   -1.1939 C   0  0  0  0  0  0  0  0  0  0  0  0
   -1.1748   -0.4002   -1.0802 C   0  0  0  0  0  0  0  0  0  0  0  0
   -2.3507   -0.0791   -0.6159 N   0  0  0  0  0  0  0  0  0  0  0  0
   -3.1636    0.6623   -1.2873 C   0  0  0  0  0  0  0  0  0  0  0  0
   -2.7348    1.1055   -2.5255 C   0  0  0  0  0  0  0  0  0  0  0  0
   -1.1791    0.4075   -2.6150 S   0  0  0  0  0  0  0  0  0  0  0  0
   -4.4938    1.0758   -0.7772 C   0  0  0  0  0  0  0  0  0  0  0  0
   -5.3419    1.8637   -1.5124 C   0  0  0  0  0  0  0  0  0  0  0  0
   -6.5701    2.2127   -0.9741 C   0  0  0  0  0  0  0  0  0  0  0  0
   -6.9478    1.7812    0.2818 C   0  0  0  0  0  0  0  0  0  0  0  0
   -8.1356    2.1106    0.8208 N   0  0  0  0  0  0  0  0  0  0  0  0
   -8.4882    1.6840    2.0438 C   0  0  0  0  0  0  0  0  0  0  0  0
   -7.6152    0.8917    2.7617 C   0  0  0  0  0  0  0  0  0  0  0  0
   -6.4293    0.5643    2.2201 N   0  0  0  0  0  0  0  0  0  0  0  0
   -6.0603    0.9823    0.9985 C   0  0  0  0  0  0  0  0  0  0  0  0
   -4.8713    0.6650    0.4355 N   0  0  0  0  0  0  0  0  0  0  0  0
    4.6132   -1.5081   -1.0021 C   0  0  0  0  0  0  0  0  0  0  0  0
    5.5803   -1.6026   -1.8145 O   0  0  0  0  0  0  0  0  0  0  0  0
    4.7414   -0.8816    0.2933 C   0  0  0  0  0  0  0  0  0  0  0  0
    5.1680   -1.5760    1.4236 C   0  0  0  0  0  0  0  0  0  0  0  0
    5.2956   -0.9242    2.6248 C   0  0  0  0  0  0  0  0  0  0  0  0
    5.0095    0.4192    2.7503 C   0  0  0  0  0  0  0  0  0  0  0  0
    4.5877    1.1377    1.6656 C   0  0  0  0  0  0  0  0  0  0  0  0
    4.2974    2.4594    1.7409 N   0  0  0  0  0  0  0  0  0  0  0  0
    3.8909    3.1161    0.6453 C   0  0  0  0  0  0  0  0  0  0  0  0
    3.7436    2.5262   -0.5861 C   0  0  0  0  0  0  0  0  0  0  0  0
    4.0381    1.1737   -0.6745 C   0  0  0  0  0  0  0  0  0  0  0  0
    4.4599    0.4812    0.4553 C   0  0  0  0  0  0  0  0  0  0  0  0
    2.5744   -2.1285   -3.3724 H   0  0  0  0  0  0  0  0  0  0  0  0
    4.2896   -2.7027   -3.2388 H   0  0  0  0  0  0  0  0  0  0  0  0
    2.8802   -3.7153   -2.5925 H   0  0  0  0  0  0  0  0  0  0  0  0
    2.7948   -3.3472    0.8759 H   0  0  0  0  0  0  0  0  0  0  0  0
    0.7317   -3.2210    2.0548 H   0  0  0  0  0  0  0  0  0  0  0  0
   -1.1253   -1.8857    1.1941 H   0  0  0  0  0  0  0  0  0  0  0  0
    1.2107   -0.7159   -2.1145 H   0  0  0  0  0  0  0  0  0  0  0  0
   -3.2727    1.7412   -3.2506 H   0  0  0  0  0  0  0  0  0  0  0  0
   -5.0688    2.2149   -2.5017 H   0  0  0  0  0  0  0  0  0  0  0  0
   -7.2438    2.8327   -1.5461 H   0  0  0  0  0  0  0  0  0  0  0  0
   -9.4685    1.9708    2.4574 H   0  0  0  0  0  0  0  0  0  0  0  0
   -7.8665    0.5353    3.7378 H   0  0  0  0  0  0  0  0  0  0  0  0
    5.3860   -2.6467    1.2848 H   0  0  0  0  0  0  0  0  0  0  0  0
    5.6362   -1.5192    3.4877 H   0  0  0  0  0  0  0  0  0  0  0  0
    5.1126    0.9124    3.6969 H   0  0  0  0  0  0  0  0  0  0  0  0
    3.6549    4.1882    0.7104 H   0  0  0  0  0  0  0  0  0  0  0  0
    3.4152    3.0759   -1.4531 H   0  0  0  0  0  0  0  0  0  0  0  0
    3.9511    0.6301   -1.6084 H   0  0  0  0  0  0  0  0  0  0  0  0
  1  2  1  0
  2  3  1  0
  3  4  2  0
  4  5  1  0
  5  6  2  0
  6  7  1  0
  7  8  2  0
  7  9  1  0
  9 10  2  0
 10 11  1  0
 11 12  2  0
 12 13  1  0
 11 14  1  0
 14 15  2  0
 15 16  1  0
 16 17  2  0
 17 18  1  0
 18 19  2  0
 19 20  1  0
 20 21  2  0
 21 22  1  0
 22 23  2  0
  2 24  1  0
 24 25  2  0
 24 26  1  0
 26 27  2  0
 27 28  1  0
 28 29  2  0
 29 30  1  0
 30 31  2  0
 31 32  1  0
 32 33  2  0
 33 34  1  0
 34 35  2  0
  8  3  1  0
 13  9  1  0
 23 14  1  0
 35 26  1  0
 22 17  1  0
 35 30  1  0
  1 36  1  0
  1 37  1  0
  1 38  1  0
  4 39  1  0
  5 40  1  0
  6 41  1  0
  8 42  1  0
 12 43  1  0
 15 44  1  0
 16 45  1  0
 19 46  1  0
 20 47  1  0
 27 48  1  0
 28 49  1  0
 29 50  1  0
 32 51  1  0
 33 52  1  0
 34 53  1  0
M  END
$$$$
[H]c1c([H])c(C([H])([H])[H])c([H])c([H])c1N1C([H])([H])c2c(C([H])([H])[H])nc(OC([H])([H])[H])c([H])c2C([H])([H])C1([H])[H]
     RDKit          3D

 40 42  0  0  0  0  0  0  0  0999 V2000
    6.5034   -0.0104   -0.0810 C   0  0  0  0  0  0  0  0  0  0  0  0
    5.5342   -1.0254   -0.2647 O   0  0  0  0  0  0  0  0  0  0  0  0
    4.1946   -0.6753   -0.0448 C   0  0  0  0  0  0  0  0  0  0  0  0
    3.1932   -1.6213   -0.2069 C   0  0  0  0  0  0  0  0  0  0  0  0
    1.8664   -1.3099    0.0014 C   0  0  0  0  0  0  0  0  0  0  0  0
    0.8620   -2.3640   -0.1896 C   0  0  0  0  0  0  0  0  0  0  0  0
   -0.5136   -1.8867   -0.4138 C   0  0  0  0  0  0  0  0  0  0  0  0
   -0.7988   -0.5675    0.0956 N   0  0  0  0  0  0  0  0  0  0  0  0
    0.1762    0.3476    0.6077 C   0  0  0  0  0  0  0  0  0  0  0  0
    1.5640   -0.0257    0.3769 C   0  0  0  0  0  0  0  0  0  0  0  0
    2.5486    0.9257    0.5421 C   0  0  0  0  0  0  0  0  0  0  0  0
    2.1765    2.3090    0.9509 C   0  0  0  0  0  0  0  0  0  0  0  0
    3.8252    0.5639    0.3249 N   0  0  0  0  0  0  0  0  0  0  0  0
   -2.1613   -0.1504    0.0843 C   0  0  0  0  0  0  0  0  0  0  0  0
   -2.5556    1.1048    0.5534 C   0  0  0  0  0  0  0  0  0  0  0  0
   -3.8719    1.5117    0.5441 C   0  0  0  0  0  0  0  0  0  0  0  0
   -4.8514    0.6800    0.0648 C   0  0  0  0  0  0  0  0  0  0  0  0
   -6.2611    1.1641    0.0750 C   0  0  0  0  0  0  0  0  0  0  0  0
   -4.4977   -0.5595   -0.4032 C   0  0  0  0  0  0  0  0  0  0  0  0
   -3.1895   -0.9501   -0.3883 C   0  0  0  0  0  0  0  0  0  0  0  0
    6.4839    0.3933    0.9467 H   0  0  0  0  0  0  0  0  0  0  0  0
    7.5102   -0.4148   -0.3644 H   0  0  0  0  0  0  0  0  0  0  0  0
    6.2450    0.8481   -0.7626 H   0  0  0  0  0  0  0  0  0  0  0  0
    3.5147   -2.6107   -0.5045 H   0  0  0  0  0  0  0  0  0  0  0  0
    0.9302   -3.1109    0.6517 H   0  0  0  0  0  0  0  0  0  0  0  0
    1.1813   -2.9496   -1.1010 H   0  0  0  0  0  0  0  0  0  0  0  0
   -0.8243   -1.9503   -1.4862 H   0  0  0  0  0  0  0  0  0  0  0  0
   -1.2164   -2.5836    0.1311 H   0  0  0  0  0  0  0  0  0  0  0  0
    0.0204    0.4379    1.7170 H   0  0  0  0  0  0  0  0  0  0  0  0
    0.0275    1.3794    0.1910 H   0  0  0  0  0  0  0  0  0  0  0  0
    2.1364    2.9489    0.0535 H   0  0  0  0  0  0  0  0  0  0  0  0
    1.2353    2.3217    1.5402 H   0  0  0  0  0  0  0  0  0  0  0  0
    3.0135    2.7063    1.5854 H   0  0  0  0  0  0  0  0  0  0  0  0
   -1.8250    1.7922    0.9387 H   0  0  0  0  0  0  0  0  0  0  0  0
   -4.1225    2.5032    0.9229 H   0  0  0  0  0  0  0  0  0  0  0  0
   -6.5493    1.5944    1.0490 H   0  0  0  0  0  0  0  0  0  0  0  0
   -6.3138    1.9854   -0.6908 H   0  0  0  0  0  0  0  0  0  0  0  0
   -6.9621    0.3874   -0.2808 H   0  0  0  0  0  0  0  0  0  0  0  0
   -5.2971   -1.2027   -0.7796 H   0  0  0  0  0  0  0  0  0  0  0  0
   -2.9313   -1.9361   -0.7638 H   0  0  0  0  0  0  0  0  0  0  0  0
  1  2  1  0
  2  3  1  0
  3  4  2  0
  4  5  1  0
  5  6  1  0
  6  7  1  0
  7  8  1  0
  8  9  1  0
  9 10  1  0
 10 11  1  0
 11 12  1  0
 11 13  2  0
  8 14  1  0
 14 15  2  0
 15 16  1  0
 16 17  2  0
 17 18  1  0
 17 19  1  0
 19 20  2  0
 13  3  1  0
 20 14  1  0
 10  5  2  0
  1 21  1  0
  1 22  1  0
  1 23  1  0
  4 24  1  0
  6 25  1  0
  6 26  1  0
  7 27  1  0
  7 28  1  0
  9 29  1  0
  9 30  1  0
 12 31  1  0
 12 32  1  0
 12 33  1  0
 15 34  1  0
 16 35  1  0
 18 36  1  0
 18 37  1  0
 18 38  1  0
 19 39  1  0
 20 40  1  0
M  END
$$$$
