[H]c1nc2c(c([H])c1[H])c(C1=N[C@]([H])(C([H])([H])[H])C([H])([H])N(S(=O)(=O)C([H])([H])[H])C([H])([H])C([H])([H])O1)c(-c1c([H])c([H])c(OC([H])([H])[H])c(OC([H])([H])[H])c1[H])n2[H]
     RDKit          3D

 58 61  0  0  0  0  0  0  0  0999 V2000
    3.3644    1.6883   -4.8687 C   0  0  0  0  0  0  0  0  0  0  0  0
    3.9371    1.7543   -3.5831 O   0  0  0  0  0  0  0  0  0  0  0  0
    3.4531    1.0399   -2.5018 C   0  0  0  0  0  0  0  0  0  0  0  0
    2.3580    0.2272   -2.6965 C   0  0  0  0  0  0  0  0  0  0  0  0
    1.8633   -0.4956   -1.6151 C   0  0  0  0  0  0  0  0  0  0  0  0
    2.3933   -0.4494   -0.3697 C   0  0  0  0  0  0  0  0  0  0  0  0
    3.5215    0.4080   -0.2409 C   0  0  0  0  0  0  0  0  0  0  0  0
    4.0406    1.1298   -1.2596 C   0  0  0  0  0  0  0  0  0  0  0  0
    5.1562    1.9722   -1.1141 O   0  0  0  0  0  0  0  0  0  0  0  0
    5.7452    2.0491    0.1757 C   0  0  0  0  0  0  0  0  0  0  0  0
    1.9073   -1.1098    0.8233 C   0  0  0  0  0  0  0  0  0  0  0  0
    2.8204   -1.6898    1.7013 N   0  0  0  0  0  0  0  0  0  0  0  0
    2.1738   -2.2209    2.7344 C   0  0  0  0  0  0  0  0  0  0  0  0
    2.6261   -2.8944    3.8340 N   0  0  0  0  0  0  0  0  0  0  0  0
    1.8151   -3.3680    4.7814 C   0  0  0  0  0  0  0  0  0  0  0  0
    0.4633   -3.1682    4.6429 C   0  0  0  0  0  0  0  0  0  0  0  0
   -0.0618   -2.4784    3.5266 C   0  0  0  0  0  0  0  0  0  0  0  0
    0.8134   -2.0112    2.5819 C   0  0  0  0  0  0  0  0  0  0  0  0
    0.6891   -1.3008    1.3634 C   0  0  0  0  0  0  0  0  0  0  0  0
   -0.5814   -0.7270    0.9436 C   0  0  0  0  0  0  0  0  0  0  0  0
   -0.5997    0.1266   -0.0110 N   0  0  0  0  0  0  0  0  0  0  0  0
   -1.5434    0.9417   -0.7588 C   0  0  2  0  0  0  0  0  0  0  0  0
   -1.7449    2.3127   -0.1748 C   0  0  0  0  0  0  0  0  0  0  0  0
   -2.8098    0.2274   -1.1188 C   0  0  0  0  0  0  0  0  0  0  0  0
   -3.7953    0.3883   -0.1073 N   0  0  0  0  0  0  0  0  0  0  0  0
   -3.9436   -0.7641    0.7494 C   0  0  0  0  0  0  0  0  0  0  0  0
   -2.9874   -0.5674    1.8970 C   0  0  0  0  0  0  0  0  0  0  0  0
   -1.7135   -1.1836    1.6530 O   0  0  0  0  0  0  0  0  0  0  0  0
   -5.2461    1.1170   -0.5870 S   0  0  0  0  0  0  0  0  0  0  0  0
   -6.1256    0.2093   -1.8315 C   0  0  0  0  0  0  0  0  0  0  0  0
   -6.1386    1.2464    0.6175 O   0  0  0  0  0  0  0  0  0  0  0  0
   -4.9590    2.5101   -1.0644 O   0  0  0  0  0  0  0  0  0  0  0  0
    3.9306    2.3066   -5.5688 H   0  0  0  0  0  0  0  0  0  0  0  0
    3.3787    0.6233   -5.2248 H   0  0  0  0  0  0  0  0  0  0  0  0
    2.3073    2.0485   -4.8158 H   0  0  0  0  0  0  0  0  0  0  0  0
    1.8779    0.1394   -3.6648 H   0  0  0  0  0  0  0  0  0  0  0  0
    1.0263   -1.1722   -1.8248 H   0  0  0  0  0  0  0  0  0  0  0  0
    3.9603    0.4571    0.7454 H   0  0  0  0  0  0  0  0  0  0  0  0
    6.1012    1.0633    0.5388 H   0  0  0  0  0  0  0  0  0  0  0  0
    5.0332    2.5192    0.9093 H   0  0  0  0  0  0  0  0  0  0  0  0
    6.6404    2.6932    0.0775 H   0  0  0  0  0  0  0  0  0  0  0  0
    3.8581   -1.6857    1.5335 H   0  0  0  0  0  0  0  0  0  0  0  0
    2.1562   -3.9025    5.6572 H   0  0  0  0  0  0  0  0  0  0  0  0
   -0.2289   -3.5338    5.3840 H   0  0  0  0  0  0  0  0  0  0  0  0
   -1.1144   -2.3553    3.4629 H   0  0  0  0  0  0  0  0  0  0  0  0
   -1.0170    1.1246   -1.7475 H   0  0  0  0  0  0  0  0  0  0  0  0
   -0.8190    2.5760    0.4010 H   0  0  0  0  0  0  0  0  0  0  0  0
   -2.5614    2.3037    0.5531 H   0  0  0  0  0  0  0  0  0  0  0  0
   -1.8832    3.0620   -0.9940 H   0  0  0  0  0  0  0  0  0  0  0  0
   -3.1914    0.6475   -2.0778 H   0  0  0  0  0  0  0  0  0  0  0  0
   -2.5464   -0.8312   -1.3243 H   0  0  0  0  0  0  0  0  0  0  0  0
   -3.6111   -1.6581    0.1848 H   0  0  0  0  0  0  0  0  0  0  0  0
   -4.9869   -0.9177    1.0847 H   0  0  0  0  0  0  0  0  0  0  0  0
   -2.8736    0.5113    2.1202 H   0  0  0  0  0  0  0  0  0  0  0  0
   -3.4111   -1.0718    2.8168 H   0  0  0  0  0  0  0  0  0  0  0  0
   -6.2851   -0.8248   -1.5304 H   0  0  0  0  0  0  0  0  0  0  0  0
   -5.5526    0.2141   -2.7956 H   0  0  0  0  0  0  0  0  0  0  0  0
   -7.0794    0.7436   -2.0228 H   0  0  0  0  0  0  0  0  0  0  0  0
  1  2  1  0
  2  3  1  0
  3  4  2  0
  4  5  1  0
  5  6  2  0
  6  7  1  0
  7  8  2  0
  8  9  1  0
  9 10  1  0
  6 11  1  0
 11 12  1  0
 12 13  1  0
 13 14  2  0
 14 15  1  0
 15 16  2  0
 16 17  1  0
 17 18  2  0
 18 19  1  0
 19 20  1  0
 20 21  2  0
 21 22  1  0
 22 23  1  0
 22 24  1  0
 24 25  1  0
 25 26  1  0
 26 27  1  0
 27 28  1  0
 25 29  1  0
 29 30  1  0
 29 31  2  0
 29 32  2  0
  8  3  1  0
 19 11  2  0
 28 20  1  0
 18 13  1  0
  1 33  1  0
  1 34  1  0
  1 35  1  0
  4 36  1  0
  5 37  1  0
  7 38  1  0
 10 39  1  0
 10 40  1  0
 10 41  1  0
 12 42  1  0
 15 43  1  0
 16 44  1  0
 17 45  1  0
 22 46  1  6
 23 47  1  0
 23 48  1  0
 23 49  1  0
 24 50  1  0
 24 51  1  0
 26 52  1  0
 26 53  1  0
 27 54  1  0
 27 55  1  0
 30 56  1  0
 30 57  1  0
 30 58  1  0
M  END
$$$$
[H]c1nc2c3c([H])c(N([H])C(=O)c4c([H])c(C(F)(F)F)c([H])c([H])c4OS(=O)(=O)C([H])([H])[H])c([H])c([H])c3n(C([H])([H])[H])c2c([H])c1[H]
     RDKit          3D

 48 51  0  0  0  0  0  0  0  0999 V2000
    5.3195    0.7562    2.2645 C   0  0  0  0  0  0  0  0  0  0  0  0
    4.5516    0.5938    1.0679 N   0  0  0  0  0  0  0  0  0  0  0  0
    5.1456    0.3425   -0.1436 C   0  0  0  0  0  0  0  0  0  0  0  0
    6.4787    0.2157   -0.5272 C   0  0  0  0  0  0  0  0  0  0  0  0
    6.8027   -0.0443   -1.8556 C   0  0  0  0  0  0  0  0  0  0  0  0
    5.7840   -0.1781   -2.7380 C   0  0  0  0  0  0  0  0  0  0  0  0
    4.4739   -0.0648   -2.3781 N   0  0  0  0  0  0  0  0  0  0  0  0
    4.1707    0.2023   -1.0717 C   0  0  0  0  0  0  0  0  0  0  0  0
    2.9663    0.3812   -0.4147 C   0  0  0  0  0  0  0  0  0  0  0  0
    1.6620    0.3827   -0.8186 C   0  0  0  0  0  0  0  0  0  0  0  0
    0.5231    0.6241    0.0491 C   0  0  0  0  0  0  0  0  0  0  0  0
   -0.6757    0.5087   -0.5627 N   0  0  0  0  0  0  0  0  0  0  0  0
   -1.8728    0.4006   -1.1859 C   0  0  0  0  0  0  0  0  0  0  0  0
   -2.1827    0.9347   -2.3693 O   0  0  0  0  0  0  0  0  0  0  0  0
   -3.0763   -0.3193   -0.6524 C   0  0  0  0  0  0  0  0  0  0  0  0
   -3.8325   -1.0208   -1.6443 C   0  0  0  0  0  0  0  0  0  0  0  0
   -4.6762   -2.0627   -1.2462 C   0  0  0  0  0  0  0  0  0  0  0  0
   -4.7663   -2.3885    0.0652 C   0  0  0  0  0  0  0  0  0  0  0  0
   -4.0279   -1.6853    1.0272 C   0  0  0  0  0  0  0  0  0  0  0  0
   -3.1853   -0.6453    0.6297 C   0  0  0  0  0  0  0  0  0  0  0  0
   -2.5138   -0.0121    1.6910 O   0  0  0  0  0  0  0  0  0  0  0  0
   -3.4767    1.2300    2.4122 S   0  0  0  0  0  0  0  0  0  0  0  0
   -4.3909    2.1382    1.2470 C   0  0  0  0  0  0  0  0  0  0  0  0
   -4.4753    0.4681    3.2836 O   0  0  0  0  0  0  0  0  0  0  0  0
   -2.6651    2.0983    3.3168 O   0  0  0  0  0  0  0  0  0  0  0  0
   -5.4002   -2.8580   -2.2818 C   0  0  0  0  0  0  0  0  0  0  0  0
   -6.0594   -2.0504   -3.1370 F   0  0  0  0  0  0  0  0  0  0  0  0
   -6.2583   -3.7480   -1.6152 F   0  0  0  0  0  0  0  0  0  0  0  0
   -4.4170   -3.6209   -2.9127 F   0  0  0  0  0  0  0  0  0  0  0  0
    0.8264    0.8496    1.3360 C   0  0  0  0  0  0  0  0  0  0  0  0
    2.1546    0.8466    1.7697 C   0  0  0  0  0  0  0  0  0  0  0  0
    3.2032    0.6228    0.9090 C   0  0  0  0  0  0  0  0  0  0  0  0
    4.7068    0.9372    3.1671 H   0  0  0  0  0  0  0  0  0  0  0  0
    6.0758    1.5633    2.1872 H   0  0  0  0  0  0  0  0  0  0  0  0
    5.8336   -0.2423    2.4475 H   0  0  0  0  0  0  0  0  0  0  0  0
    7.2724    0.3207    0.1743 H   0  0  0  0  0  0  0  0  0  0  0  0
    7.8072   -0.1618   -2.2263 H   0  0  0  0  0  0  0  0  0  0  0  0
    5.9773   -0.3724   -3.7827 H   0  0  0  0  0  0  0  0  0  0  0  0
    1.4487    0.1918   -1.8539 H   0  0  0  0  0  0  0  0  0  0  0  0
   -0.3518    1.5601   -1.3823 H   0  0  0  0  0  0  0  0  0  0  0  0
   -3.7375   -0.7511   -2.6791 H   0  0  0  0  0  0  0  0  0  0  0  0
   -5.4424   -3.1853    0.3907 H   0  0  0  0  0  0  0  0  0  0  0  0
   -4.1678   -1.9644    2.0426 H   0  0  0  0  0  0  0  0  0  0  0  0
   -3.7916    2.9308    0.7354 H   0  0  0  0  0  0  0  0  0  0  0  0
   -5.1769    2.7227    1.7954 H   0  0  0  0  0  0  0  0  0  0  0  0
   -4.9117    1.4747    0.5580 H   0  0  0  0  0  0  0  0  0  0  0  0
    0.0285    1.0543    2.1016 H   0  0  0  0  0  0  0  0  0  0  0  0
    2.3198    1.0238    2.8103 H   0  0  0  0  0  0  0  0  0  0  0  0
  1  2  1  0
  2  3  1  0
  3  4  2  0
  4  5  1  0
  5  6  2  0
  6  7  1  0
  7  8  2  0
  8  9  1  0
  9 10  2  0
 10 11  1  0
 11 12  1  0
 12 13  1  0
 13 14  2  0
 13 15  1  0
 15 16  2  0
 16 17  1  0
 17 18  2  0
 18 19  1  0
 19 20  2  0
 20 21  1  0
 21 22  1  0
 22 23  1  0
 22 24  2  0
 22 25  2  0
 17 26  1  0
 26 27  1  0
 26 28  1  0
 26 29  1  0
 11 30  2  0
 30 31  1  0
 31 32  2  0
 32  2  1  0
  8  3  1  0
 32  9  1  0
 20 15  1  0
  1 33  1  0
  1 34  1  0
  1 35  1  0
  4 36  1  0
  5 37  1  0
  6 38  1  0
 10 39  1  0
 12 40  1  0
 16 41  1  0
 18 42  1  0
 19 43  1  0
 23 44  1  0
 23 45  1  0
 23 46  1  0
 30 47  1  0
 31 48  1  0
M  END
$$$$
[H]c1nc(N([H])[H])c([H])c(-c2c([H])c(S(=O)(=O)N([H])c3c([H])c([H])c([H])c(C(=O)N([H])C([H])([H])c4c([H])c([H])c(C#N)c([H])c4[H])c3[H])c([H])n2[H])c1[H]
     RDKit          3D

 54 57  0  0  0  0  0  0  0  0999 V2000
   -8.8845   -0.8728    2.0284 N   0  0  0  0  0  0  0  0  0  0  0  0
   -8.3394   -0.1288    0.9513 C   0  0  0  0  0  0  0  0  0  0  0  0
   -7.0477   -0.3483    0.4874 C   0  0  0  0  0  0  0  0  0  0  0  0
   -6.4950    0.3590   -0.5536 C   0  0  0  0  0  0  0  0  0  0  0  0
   -7.2532    1.3265   -1.1630 C   0  0  0  0  0  0  0  0  0  0  0  0
   -8.5521    1.5380   -0.6868 C   0  0  0  0  0  0  0  0  0  0  0  0
   -9.0579    0.8222    0.3378 N   0  0  0  0  0  0  0  0  0  0  0  0
   -5.1327    0.1124   -1.0282 C   0  0  0  0  0  0  0  0  0  0  0  0
   -4.2388   -0.8260   -0.5340 C   0  0  0  0  0  0  0  0  0  0  0  0
   -3.0383   -0.7727   -1.2352 C   0  0  0  0  0  0  0  0  0  0  0  0
   -3.2407    0.2366   -2.1750 C   0  0  0  0  0  0  0  0  0  0  0  0
   -4.4805    0.7353   -2.0261 N   0  0  0  0  0  0  0  0  0  0  0  0
   -1.6236   -1.7676   -1.0120 S   0  0  0  0  0  0  0  0  0  0  0  0
   -2.1325   -3.1851   -0.7621 O   0  0  0  0  0  0  0  0  0  0  0  0
   -0.9089   -1.8642   -2.3408 O   0  0  0  0  0  0  0  0  0  0  0  0
   -0.6116   -1.3063    0.2505 N   0  0  0  0  0  0  0  0  0  0  0  0
    0.0996   -0.1004    0.4286 C   0  0  0  0  0  0  0  0  0  0  0  0
   -0.4583    1.1479    0.3157 C   0  0  0  0  0  0  0  0  0  0  0  0
    0.3028    2.3026    0.5187 C   0  0  0  0  0  0  0  0  0  0  0  0
    1.6401    2.2174    0.8398 C   0  0  0  0  0  0  0  0  0  0  0  0
    2.2301    0.9661    0.9611 C   0  0  0  0  0  0  0  0  0  0  0  0
    1.4522   -0.1477    0.7543 C   0  0  0  0  0  0  0  0  0  0  0  0
    3.6473    0.9277    1.2976 C   0  0  0  0  0  0  0  0  0  0  0  0
    4.3620    1.9631    1.2550 O   0  0  0  0  0  0  0  0  0  0  0  0
    4.2865   -0.2784    1.6893 N   0  0  0  0  0  0  0  0  0  0  0  0
    5.6672   -0.4071    2.0330 C   0  0  0  0  0  0  0  0  0  0  0  0
    6.5651   -0.4274    0.8492 C   0  0  0  0  0  0  0  0  0  0  0  0
    6.7189   -1.6108    0.1537 C   0  0  0  0  0  0  0  0  0  0  0  0
    7.5435   -1.6858   -0.9485 C   0  0  0  0  0  0  0  0  0  0  0  0
    8.2467   -0.5776   -1.3975 C   0  0  0  0  0  0  0  0  0  0  0  0
    8.0914    0.5885   -0.7072 C   0  0  0  0  0  0  0  0  0  0  0  0
    7.2702    0.6573    0.3881 C   0  0  0  0  0  0  0  0  0  0  0  0
    9.0914   -0.7146   -2.5513 C   0  0  0  0  0  0  0  0  0  0  0  0
    9.7722   -0.8458   -3.4870 N   0  0  0  0  0  0  0  0  0  0  0  0
   -9.5626   -1.6327    1.8408 H   0  0  0  0  0  0  0  0  0  0  0  0
   -8.6189   -0.6732    3.0071 H   0  0  0  0  0  0  0  0  0  0  0  0
   -6.4414   -1.1013    0.9537 H   0  0  0  0  0  0  0  0  0  0  0  0
   -6.9301    1.9344   -1.9758 H   0  0  0  0  0  0  0  0  0  0  0  0
   -9.2078    2.2890   -1.1234 H   0  0  0  0  0  0  0  0  0  0  0  0
   -4.4352   -1.5112    0.2833 H   0  0  0  0  0  0  0  0  0  0  0  0
   -2.5310    0.5854   -2.9194 H   0  0  0  0  0  0  0  0  0  0  0  0
   -4.9416    1.5128   -2.5857 H   0  0  0  0  0  0  0  0  0  0  0  0
   -0.4609   -2.0022    1.0540 H   0  0  0  0  0  0  0  0  0  0  0  0
   -1.4861    1.3175    0.0819 H   0  0  0  0  0  0  0  0  0  0  0  0
   -0.1556    3.2812    0.4245 H   0  0  0  0  0  0  0  0  0  0  0  0
    2.2270    3.1213    0.9964 H   0  0  0  0  0  0  0  0  0  0  0  0
    1.8920   -1.1229    0.8424 H   0  0  0  0  0  0  0  0  0  0  0  0
    3.6980   -1.1518    1.7309 H   0  0  0  0  0  0  0  0  0  0  0  0
    5.8174   -1.3048    2.6474 H   0  0  0  0  0  0  0  0  0  0  0  0
    5.9363    0.4886    2.6369 H   0  0  0  0  0  0  0  0  0  0  0  0
    6.1972   -2.5042    0.4567 H   0  0  0  0  0  0  0  0  0  0  0  0
    7.6710   -2.6201   -1.5045 H   0  0  0  0  0  0  0  0  0  0  0  0
    8.6487    1.4552   -1.0678 H   0  0  0  0  0  0  0  0  0  0  0  0
    7.1918    1.6059    0.8933 H   0  0  0  0  0  0  0  0  0  0  0  0
  1  2  1  0
  2  3  2  0
  3  4  1  0
  4  5  2  0
  5  6  1  0
  6  7  2  0
  4  8  1  0
  8  9  2  0
  9 10  1  0
 10 11  2  0
 11 12  1  0
 10 13  1  0
 13 14  2  0
 13 15  2  0
 13 16  1  0
 16 17  1  0
 17 18  2  0
 18 19  1  0
 19 20  2  0
 20 21  1  0
 21 22  2  0
 21 23  1  0
 23 24  2  0
 23 25  1  0
 25 26  1  0
 26 27  1  0
 27 28  2  0
 28 29  1  0
 29 30  2  0
 30 31  1  0
 31 32  2  0
 30 33  1  0
 33 34  3  0
  7  2  1  0
 12  8  1  0
 22 17  1  0
 32 27  1  0
  1 35  1  0
  1 36  1  0
  3 37  1  0
  5 38  1  0
  6 39  1  0
  9 40  1  0
 11 41  1  0
 12 42  1  0
 16 43  1  0
 18 44  1  0
 19 45  1  0
 20 46  1  0
 22 47  1  0
 25 48  1  0
 26 49  1  0
 26 50  1  0
 28 51  1  0
 29 52  1  0
 31 53  1  0
 32 54  1  0
M  END
$$$$
[H]Oc1c([H])c(Br)c2c(c1[H])O[C@]([H])(SC([H])([H])c1c([H])c([H])c([H])c([H])c1[H])C([H])([H])O2
     RDKit          3D

 33 35  0  0  0  0  0  0  0  0999 V2000
    4.7287    1.3934    2.7881 O   0  0  0  0  0  0  0  0  0  0  0  0
    4.0339    1.2259    1.5978 C   0  0  0  0  0  0  0  0  0  0  0  0
    4.4860    1.9843    0.5246 C   0  0  0  0  0  0  0  0  0  0  0  0
    3.8394    1.8641   -0.6847 C   0  0  0  0  0  0  0  0  0  0  0  0
    4.3926    2.8708   -2.2235 Br  0  0  0  0  0  0  0  0  0  0  0  0
    2.7685    0.9966   -0.7856 C   0  0  0  0  0  0  0  0  0  0  0  0
    2.0928    0.8583   -2.0129 O   0  0  0  0  0  0  0  0  0  0  0  0
    1.4042   -0.3657   -2.1902 C   0  0  0  0  0  0  0  0  0  0  0  0
    0.4327   -0.5106   -1.0288 C   0  0  1  0  0  0  0  0  0  0  0  0
   -0.5671   -1.9664   -1.3548 S   0  0  0  0  0  0  0  0  0  0  0  0
   -1.7816   -2.3104   -0.0903 C   0  0  0  0  0  0  0  0  0  0  0  0
   -2.8541   -1.2880    0.0141 C   0  0  0  0  0  0  0  0  0  0  0  0
   -4.0124   -1.4407   -0.7468 C   0  0  0  0  0  0  0  0  0  0  0  0
   -5.0494   -0.5320   -0.7003 C   0  0  0  0  0  0  0  0  0  0  0  0
   -4.9700    0.5740    0.1143 C   0  0  0  0  0  0  0  0  0  0  0  0
   -3.8253    0.7370    0.8746 C   0  0  0  0  0  0  0  0  0  0  0  0
   -2.7879   -0.1817    0.8215 C   0  0  0  0  0  0  0  0  0  0  0  0
    1.2161   -0.6386    0.1421 O   0  0  0  0  0  0  0  0  0  0  0  0
    2.2952    0.2304    0.2591 C   0  0  0  0  0  0  0  0  0  0  0  0
    2.9622    0.3673    1.4701 C   0  0  0  0  0  0  0  0  0  0  0  0
    5.5207    0.7852    2.9529 H   0  0  0  0  0  0  0  0  0  0  0  0
    5.3264    2.6640    0.6074 H   0  0  0  0  0  0  0  0  0  0  0  0
    0.8168   -0.3910   -3.1227 H   0  0  0  0  0  0  0  0  0  0  0  0
    2.0992   -1.2339   -2.1277 H   0  0  0  0  0  0  0  0  0  0  0  0
   -0.1621    0.4166   -0.9218 H   0  0  0  0  0  0  0  0  0  0  0  0
   -2.2857   -3.2780   -0.3828 H   0  0  0  0  0  0  0  0  0  0  0  0
   -1.3383   -2.5226    0.9051 H   0  0  0  0  0  0  0  0  0  0  0  0
   -4.0723   -2.3170   -1.3903 H   0  0  0  0  0  0  0  0  0  0  0  0
   -5.9367   -0.6612   -1.2918 H   0  0  0  0  0  0  0  0  0  0  0  0
   -5.7730    1.3130    0.1749 H   0  0  0  0  0  0  0  0  0  0  0  0
   -3.7303    1.5920    1.5233 H   0  0  0  0  0  0  0  0  0  0  0  0
   -1.9061   -0.0254    1.4286 H   0  0  0  0  0  0  0  0  0  0  0  0
    2.6369   -0.2098    2.3314 H   0  0  0  0  0  0  0  0  0  0  0  0
  1  2  1  0
  2  3  2  0
  3  4  1  0
  4  5  1  0
  4  6  2  0
  6  7  1  0
  7  8  1  0
  8  9  1  0
  9 10  1  0
 10 11  1  0
 11 12  1  0
 12 13  2  0
 13 14  1  0
 14 15  2  0
 15 16  1  0
 16 17  2  0
  9 18  1  0
 18 19  1  0
 19 20  2  0
 20  2  1  0
 19  6  1  0
 17 12  1  0
  1 21  1  0
  3 22  1  0
  8 23  1  0
  8 24  1  0
  9 25  1  1
 11 26  1  0
 11 27  1  0
 13 28  1  0
 14 29  1  0
 15 30  1  0
 16 31  1  0
 17 32  1  0
 20 33  1  0
M  END
$$$$
[H]c1nc(C([H])([H])N([H])[H])c2c([H])c(-c3nc(C([H])([H])[H])nc(N([H])S(=O)(=O)C([H])([H])[H])c3[H])c([H])c([H])c2c1C([H])([H])C1([H])C([H])([H])C([H])([H])N(C([H])([H])C([H])([H])[H])C([H])([H])C1([H])[H]
     RDKit          3D

 65 68  0  0  0  0  0  0  0  0999 V2000
    8.5505    0.5909    0.8590 C   0  0  0  0  0  0  0  0  0  0  0  0
    7.8436   -0.0496    2.0013 C   0  0  0  0  0  0  0  0  0  0  0  0
    6.4265   -0.2568    1.8333 N   0  0  0  0  0  0  0  0  0  0  0  0
    5.7101    1.0195    2.0174 C   0  0  0  0  0  0  0  0  0  0  0  0
    4.2474    0.5614    1.9782 C   0  0  0  0  0  0  0  0  0  0  0  0
    3.8027    0.3815    0.5153 C   0  0  0  0  0  0  0  0  0  0  0  0
    2.4559   -0.3537    0.5969 C   0  0  0  0  0  0  0  0  0  0  0  0
    1.7376   -0.4889   -0.6584 C   0  0  0  0  0  0  0  0  0  0  0  0
    2.2788   -0.4677   -1.8995 C   0  0  0  0  0  0  0  0  0  0  0  0
    1.5256   -0.3450   -3.0379 N   0  0  0  0  0  0  0  0  0  0  0  0
    0.1694   -0.2613   -2.9703 C   0  0  0  0  0  0  0  0  0  0  0  0
   -0.6961   -0.2312   -4.1779 C   0  0  0  0  0  0  0  0  0  0  0  0
   -0.3895    1.0250   -4.9422 N   0  0  0  0  0  0  0  0  0  0  0  0
   -0.4172   -0.2978   -1.7173 C   0  0  0  0  0  0  0  0  0  0  0  0
   -1.8081   -0.1693   -1.7187 C   0  0  0  0  0  0  0  0  0  0  0  0
   -2.4858   -0.1629   -0.5440 C   0  0  0  0  0  0  0  0  0  0  0  0
   -1.7485   -0.2764    0.6228 C   0  0  0  0  0  0  0  0  0  0  0  0
   -0.3564   -0.3934    0.6439 C   0  0  0  0  0  0  0  0  0  0  0  0
    0.2872   -0.4030   -0.5660 C   0  0  0  0  0  0  0  0  0  0  0  0
   -3.9552    0.0223   -0.4938 C   0  0  0  0  0  0  0  0  0  0  0  0
   -4.5910   -0.2326    0.6923 C   0  0  0  0  0  0  0  0  0  0  0  0
   -5.9753   -0.0102    0.7832 C   0  0  0  0  0  0  0  0  0  0  0  0
   -6.5266   -0.0842    2.1094 N   0  0  0  0  0  0  0  0  0  0  0  0
   -8.0906    0.4599    2.4961 S   0  0  0  0  0  0  0  0  0  0  0  0
   -9.1837   -0.7426    3.1768 C   0  0  0  0  0  0  0  0  0  0  0  0
   -8.0061    1.7057    3.3652 O   0  0  0  0  0  0  0  0  0  0  0  0
   -8.7215    0.9716    1.1770 O   0  0  0  0  0  0  0  0  0  0  0  0
   -6.6220    0.4282   -0.2728 N   0  0  0  0  0  0  0  0  0  0  0  0
   -5.9462    0.6701   -1.4460 C   0  0  0  0  0  0  0  0  0  0  0  0
   -6.6812    1.2006   -2.6291 C   0  0  0  0  0  0  0  0  0  0  0  0
   -4.6154    0.4647   -1.5627 N   0  0  0  0  0  0  0  0  0  0  0  0
    4.8523   -0.5474   -0.1005 C   0  0  0  0  0  0  0  0  0  0  0  0
    6.2306   -0.4795    0.4019 C   0  0  0  0  0  0  0  0  0  0  0  0
    8.6382   -0.1188   -0.0157 H   0  0  0  0  0  0  0  0  0  0  0  0
    8.2016    1.5707    0.5473 H   0  0  0  0  0  0  0  0  0  0  0  0
    9.6348    0.7095    1.1716 H   0  0  0  0  0  0  0  0  0  0  0  0
    8.0382    0.6406    2.8956 H   0  0  0  0  0  0  0  0  0  0  0  0
    8.3641   -0.9791    2.2684 H   0  0  0  0  0  0  0  0  0  0  0  0
    5.9113    1.3587    3.0474 H   0  0  0  0  0  0  0  0  0  0  0  0
    5.9616    1.7606    1.2692 H   0  0  0  0  0  0  0  0  0  0  0  0
    4.2001   -0.4155    2.4483 H   0  0  0  0  0  0  0  0  0  0  0  0
    3.6026    1.2615    2.5225 H   0  0  0  0  0  0  0  0  0  0  0  0
    3.7440    1.3145   -0.0248 H   0  0  0  0  0  0  0  0  0  0  0  0
    2.6470   -1.3089    1.0755 H   0  0  0  0  0  0  0  0  0  0  0  0
    1.8873    0.3396    1.2760 H   0  0  0  0  0  0  0  0  0  0  0  0
    3.3478   -0.5419   -2.1221 H   0  0  0  0  0  0  0  0  0  0  0  0
   -1.6794   -0.5714   -4.1504 H   0  0  0  0  0  0  0  0  0  0  0  0
   -0.1600   -1.0112   -4.9003 H   0  0  0  0  0  0  0  0  0  0  0  0
    0.1733    1.5894   -4.2138 H   0  0  0  0  0  0  0  0  0  0  0  0
   -1.3251    1.6040   -4.8944 H   0  0  0  0  0  0  0  0  0  0  0  0
   -2.4139   -0.0046   -2.6168 H   0  0  0  0  0  0  0  0  0  0  0  0
   -2.2385   -0.2885    1.5721 H   0  0  0  0  0  0  0  0  0  0  0  0
    0.1561   -0.4252    1.5855 H   0  0  0  0  0  0  0  0  0  0  0  0
   -4.0767   -0.6142    1.5219 H   0  0  0  0  0  0  0  0  0  0  0  0
   -5.9245   -0.4990    2.8697 H   0  0  0  0  0  0  0  0  0  0  0  0
   -9.7087   -1.3443    2.4290 H   0  0  0  0  0  0  0  0  0  0  0  0
   -9.9612   -0.1734    3.7868 H   0  0  0  0  0  0  0  0  0  0  0  0
   -8.6444   -1.4265    3.8998 H   0  0  0  0  0  0  0  0  0  0  0  0
   -6.3176    2.2575   -2.7307 H   0  0  0  0  0  0  0  0  0  0  0  0
   -7.7662    1.2894   -2.3892 H   0  0  0  0  0  0  0  0  0  0  0  0
   -6.4711    0.5656   -3.4922 H   0  0  0  0  0  0  0  0  0  0  0  0
    4.4260   -1.5648   -0.0005 H   0  0  0  0  0  0  0  0  0  0  0  0
    4.9494   -0.1962   -1.1752 H   0  0  0  0  0  0  0  0  0  0  0  0
    6.7090    0.4087   -0.1277 H   0  0  0  0  0  0  0  0  0  0  0  0
    6.7926   -1.3812    0.1342 H   0  0  0  0  0  0  0  0  0  0  0  0
  1  2  1  0
  2  3  1  0
  3  4  1  0
  4  5  1  0
  5  6  1  0
  6  7  1  0
  7  8  1  0
  8  9  2  0
  9 10  1  0
 10 11  2  0
 11 12  1  0
 12 13  1  0
 11 14  1  0
 14 15  2  0
 15 16  1  0
 16 17  2  0
 17 18  1  0
 18 19  2  0
 16 20  1  0
 20 21  2  0
 21 22  1  0
 22 23  1  0
 23 24  1  0
 24 25  1  0
 24 26  2  0
 24 27  2  0
 22 28  2  0
 28 29  1  0
 29 30  1  0
 29 31  2  0
  6 32  1  0
 32 33  1  0
 33  3  1  0
 19  8  1  0
 31 20  1  0
 19 14  1  0
  1 34  1  0
  1 35  1  0
  1 36  1  0
  2 37  1  0
  2 38  1  0
  4 39  1  0
  4 40  1  0
  5 41  1  0
  5 42  1  0
  6 43  1  0
  7 44  1  0
  7 45  1  0
  9 46  1  0
 12 47  1  0
 12 48  1  0
 13 49  1  0
 13 50  1  0
 15 51  1  0
 17 52  1  0
 18 53  1  0
 21 54  1  0
 23 55  1  0
 25 56  1  0
 25 57  1  0
 25 58  1  0
 30 59  1  0
 30 60  1  0
 30 61  1  0
 32 62  1  0
 32 63  1  0
 33 64  1  0
 33 65  1  0
M  END
$$$$
[H]OC(=O)[C@]([H])(N([H])[H])C([H])([H])C([H])([H])n1c([H])c(I)c(=O)n([H])c1=O
     RDKit          3D

 26 26  0  0  0  0  0  0  0  0999 V2000
    2.4090   -0.8993   -1.3325 N   0  0  0  0  0  0  0  0  0  0  0  0
    2.3691   -0.3766    0.0164 C   0  0  2  0  0  0  0  0  0  0  0  0
    0.9978    0.2519    0.2175 C   0  0  0  0  0  0  0  0  0  0  0  0
   -0.0255   -0.8642    0.0071 C   0  0  0  0  0  0  0  0  0  0  0  0
   -1.3767   -0.3532    0.1807 N   0  0  0  0  0  0  0  0  0  0  0  0
   -2.0592    0.1463   -0.8797 C   0  0  0  0  0  0  0  0  0  0  0  0
   -3.3329    0.6097   -0.6288 C   0  0  0  0  0  0  0  0  0  0  0  0
   -4.4190    1.3920   -2.2564 I   0  0  0  0  0  0  0  0  0  0  0  0
   -3.9024    0.5793    0.6140 C   0  0  0  0  0  0  0  0  0  0  0  0
   -5.0645    1.0036    0.8358 O   0  0  0  0  0  0  0  0  0  0  0  0
   -3.1776    0.0724    1.6279 N   0  0  0  0  0  0  0  0  0  0  0  0
   -1.9473   -0.3793    1.4049 C   0  0  0  0  0  0  0  0  0  0  0  0
   -1.2743   -0.8564    2.3774 O   0  0  0  0  0  0  0  0  0  0  0  0
    3.4521    0.6101    0.2517 C   0  0  0  0  0  0  0  0  0  0  0  0
    4.3821    0.9794   -0.7071 O   0  0  0  0  0  0  0  0  0  0  0  0
    3.5244    1.1379    1.3890 O   0  0  0  0  0  0  0  0  0  0  0  0
    1.7314   -0.3753   -1.9331 H   0  0  0  0  0  0  0  0  0  0  0  0
    3.3511   -0.7121   -1.7380 H   0  0  0  0  0  0  0  0  0  0  0  0
    2.4910   -1.2349    0.7025 H   0  0  0  0  0  0  0  0  0  0  0  0
    0.9362    0.6995    1.2096 H   0  0  0  0  0  0  0  0  0  0  0  0
    0.7881    0.9977   -0.5764 H   0  0  0  0  0  0  0  0  0  0  0  0
    0.1893   -1.7377    0.6295 H   0  0  0  0  0  0  0  0  0  0  0  0
    0.0692   -1.1784   -1.0649 H   0  0  0  0  0  0  0  0  0  0  0  0
   -1.5800    0.1530   -1.8350 H   0  0  0  0  0  0  0  0  0  0  0  0
   -3.6074    0.0469    2.5779 H   0  0  0  0  0  0  0  0  0  0  0  0
    5.0759    0.2875   -1.0267 H   0  0  0  0  0  0  0  0  0  0  0  0
  1  2  1  0
  2  3  1  0
  3  4  1  0
  4  5  1  0
  5  6  1  0
  6  7  2  0
  7  8  1  0
  7  9  1  0
  9 10  2  0
  9 11  1  0
 11 12  1  0
 12 13  2  0
  2 14  1  0
 14 15  1  0
 14 16  2  0
 12  5  1  0
  1 17  1  0
  1 18  1  0
  2 19  1  1
  3 20  1  0
  3 21  1  0
  4 22  1  0
  4 23  1  0
  6 24  1  0
 11 25  1  0
 15 26  1  0
M  END
$$$$
[H]c1nc2c(c([H])nn2C([H])([H])[H])c([H])c1-c1c([H])nn([H])c1-c1c([H])c([H])c(N(C([H])([H])[H])C([H])([H])[H])c([H])c1[H]
     RDKit          3D

 42 45  0  0  0  0  0  0  0  0999 V2000
    3.4469    2.5448    1.5618 C   0  0  0  0  0  0  0  0  0  0  0  0
    4.0169    1.5062    0.7141 N   0  0  0  0  0  0  0  0  0  0  0  0
    5.4055    1.5121    0.3127 C   0  0  0  0  0  0  0  0  0  0  0  0
    3.0875    0.4906    0.3104 C   0  0  0  0  0  0  0  0  0  0  0  0
    2.3943    0.6270   -0.9001 C   0  0  0  0  0  0  0  0  0  0  0  0
    1.4952   -0.3241   -1.3132 C   0  0  0  0  0  0  0  0  0  0  0  0
    1.2192   -1.4551   -0.5808 C   0  0  0  0  0  0  0  0  0  0  0  0
    1.9135   -1.5756    0.6144 C   0  0  0  0  0  0  0  0  0  0  0  0
    2.8192   -0.6318    1.0455 C   0  0  0  0  0  0  0  0  0  0  0  0
    0.2807   -2.4951   -0.9840 C   0  0  0  0  0  0  0  0  0  0  0  0
    0.6622   -3.7372   -1.4374 N   0  0  0  0  0  0  0  0  0  0  0  0
   -0.4244   -4.4078   -1.7155 N   0  0  0  0  0  0  0  0  0  0  0  0
   -1.5180   -3.6918   -1.4764 C   0  0  0  0  0  0  0  0  0  0  0  0
   -1.0839   -2.4399   -0.9983 C   0  0  0  0  0  0  0  0  0  0  0  0
   -1.9417   -1.3433   -0.6076 C   0  0  0  0  0  0  0  0  0  0  0  0
   -2.0063   -0.2012   -1.3564 C   0  0  0  0  0  0  0  0  0  0  0  0
   -2.8004    0.8435   -1.0190 N   0  0  0  0  0  0  0  0  0  0  0  0
   -3.5838    0.8304    0.0811 C   0  0  0  0  0  0  0  0  0  0  0  0
   -4.4504    1.6781    0.6600 N   0  0  0  0  0  0  0  0  0  0  0  0
   -4.7640    2.9964    0.1350 C   0  0  0  0  0  0  0  0  0  0  0  0
   -4.9641    1.1310    1.7732 N   0  0  0  0  0  0  0  0  0  0  0  0
   -4.4352   -0.0855    1.9327 C   0  0  0  0  0  0  0  0  0  0  0  0
   -3.5675   -0.3096    0.8954 C   0  0  0  0  0  0  0  0  0  0  0  0
   -2.7477   -1.3722    0.5358 C   0  0  0  0  0  0  0  0  0  0  0  0
    2.7065    3.1551    0.9724 H   0  0  0  0  0  0  0  0  0  0  0  0
    4.2056    3.1920    2.0250 H   0  0  0  0  0  0  0  0  0  0  0  0
    2.8205    1.9912    2.3190 H   0  0  0  0  0  0  0  0  0  0  0  0
    5.5458    2.0531   -0.6621 H   0  0  0  0  0  0  0  0  0  0  0  0
    6.0353    1.9260    1.1133 H   0  0  0  0  0  0  0  0  0  0  0  0
    5.7097    0.4586    0.1501 H   0  0  0  0  0  0  0  0  0  0  0  0
    2.6183    1.5198   -1.4681 H   0  0  0  0  0  0  0  0  0  0  0  0
    0.9938   -0.1621   -2.2578 H   0  0  0  0  0  0  0  0  0  0  0  0
    1.7381   -2.4590    1.2502 H   0  0  0  0  0  0  0  0  0  0  0  0
    3.3428   -0.7602    1.9836 H   0  0  0  0  0  0  0  0  0  0  0  0
    1.6421   -4.0664   -1.5371 H   0  0  0  0  0  0  0  0  0  0  0  0
   -2.5640   -3.9363   -1.5931 H   0  0  0  0  0  0  0  0  0  0  0  0
   -1.4260   -0.0655   -2.2812 H   0  0  0  0  0  0  0  0  0  0  0  0
   -4.2347    3.7924    0.7308 H   0  0  0  0  0  0  0  0  0  0  0  0
   -4.4081    3.0844   -0.9120 H   0  0  0  0  0  0  0  0  0  0  0  0
   -5.8301    3.2186    0.1831 H   0  0  0  0  0  0  0  0  0  0  0  0
   -4.6510   -0.7609    2.7291 H   0  0  0  0  0  0  0  0  0  0  0  0
   -2.6987   -2.2709    1.1293 H   0  0  0  0  0  0  0  0  0  0  0  0
  1  2  1  0
  2  3  1  0
  2  4  1  0
  4  5  2  0
  5  6  1  0
  6  7  2  0
  7  8  1  0
  8  9  2  0
  7 10  1  0
 10 11  1  0
 11 12  1  0
 12 13  2  0
 13 14  1  0
 14 15  1  0
 15 16  2  0
 16 17  1  0
 17 18  2  0
 18 19  1  0
 19 20  1  0
 19 21  1  0
 21 22  2  0
 22 23  1  0
 23 24  2  0
  9  4  1  0
 14 10  2  0
 24 15  1  0
 23 18  1  0
  1 25  1  0
  1 26  1  0
  1 27  1  0
  3 28  1  0
  3 29  1  0
  3 30  1  0
  5 31  1  0
  6 32  1  0
  8 33  1  0
  9 34  1  0
 11 35  1  0
 13 36  1  0
 16 37  1  0
 20 38  1  0
 20 39  1  0
 20 40  1  0
 22 41  1  0
 24 42  1  0
M  END
$$$$
[H]Cl.[H]Cl.[H]Oc1c([H])c([H])c([H])c(C([H])([H])N2[C@]([H])(c3nc(-c4c([H])c5c6c([H])c([H])c([H])c([H])c6c([H])c([H])n5c4[H])no3)C([H])([H])N(C([H])([H])[H])C([H])([H])[C@]2([H])C([H])([H])N([H])C(=O)C([H])([H])Cl)c1[H]
     RDKit          3D

 72 75  0  0  0  0  0  0  0  0999 V2000
    0.6866    0.0000    0.0000 Cl  0  0  0  0  0  0  0  0  0  0  0  0
    0.6866    0.0000    0.0000 Cl  0  0  0  0  0  0  0  0  0  0  0  0
   -1.2500   -0.6485    3.7233 C   0  0  0  0  0  0  0  0  0  0  0  0
   -1.6288   -0.2868    2.4002 N   0  0  0  0  0  0  0  0  0  0  0  0
   -3.0805   -0.3208    2.1808 C   0  0  0  0  0  0  0  0  0  0  0  0
   -3.2160   -0.5055    0.6615 C   0  0  2  0  0  0  0  0  0  0  0  0
   -2.6140   -1.8657    0.4160 C   0  0  0  0  0  0  0  0  0  0  0  0
   -2.6225   -2.3490   -0.9160 N   0  0  0  0  0  0  0  0  0  0  0  0
   -3.8430   -2.5759   -1.5888 C   0  0  0  0  0  0  0  0  0  0  0  0
   -4.9695   -2.3549   -1.0458 O   0  0  0  0  0  0  0  0  0  0  0  0
   -3.8656   -3.0933   -2.9754 C   0  0  0  0  0  0  0  0  0  0  0  0
   -3.9974   -1.7649   -4.1141 Cl  0  0  0  0  0  0  0  0  0  0  0  0
   -2.5164    0.4846   -0.0576 N   0  0  0  0  0  0  0  0  0  0  0  0
   -3.1239    1.1054   -1.1693 C   0  0  0  0  0  0  0  0  0  0  0  0
   -4.3775    1.8207   -0.9535 C   0  0  0  0  0  0  0  0  0  0  0  0
   -4.6302    2.4726    0.2270 C   0  0  0  0  0  0  0  0  0  0  0  0
   -5.8198    3.1596    0.4487 C   0  0  0  0  0  0  0  0  0  0  0  0
   -6.7666    3.1895   -0.5332 C   0  0  0  0  0  0  0  0  0  0  0  0
   -6.5412    2.5440   -1.7299 C   0  0  0  0  0  0  0  0  0  0  0  0
   -7.5365    2.6063   -2.6935 O   0  0  0  0  0  0  0  0  0  0  0  0
   -5.3547    1.8695   -1.9270 C   0  0  0  0  0  0  0  0  0  0  0  0
   -1.4334    1.1609    0.5312 C   0  0  1  0  0  0  0  0  0  0  0  0
   -1.2649    1.0611    2.0122 C   0  0  0  0  0  0  0  0  0  0  0  0
   -0.0960    0.8667   -0.0939 C   0  0  0  0  0  0  0  0  0  0  0  0
    1.0750    0.6096    0.5507 N   0  0  0  0  0  0  0  0  0  0  0  0
    2.0571    0.3941   -0.3401 C   0  0  0  0  0  0  0  0  0  0  0  0
    1.4685    0.5230   -1.5405 N   0  0  0  0  0  0  0  0  0  0  0  0
    0.1936    0.8027   -1.3695 O   0  0  0  0  0  0  0  0  0  0  0  0
    3.4680    0.0880   -0.0826 C   0  0  0  0  0  0  0  0  0  0  0  0
    4.0961   -0.0524    1.1340 C   0  0  0  0  0  0  0  0  0  0  0  0
    5.4209   -0.3322    0.9748 N   0  0  0  0  0  0  0  0  0  0  0  0
    6.4271   -0.5489    1.8478 C   0  0  0  0  0  0  0  0  0  0  0  0
    7.7155   -0.8175    1.4401 C   0  0  0  0  0  0  0  0  0  0  0  0
    7.9613   -0.8614    0.0850 C   0  0  0  0  0  0  0  0  0  0  0  0
    9.2380   -1.1265   -0.3895 C   0  0  0  0  0  0  0  0  0  0  0  0
    9.4183   -1.1558   -1.7559 C   0  0  0  0  0  0  0  0  0  0  0  0
    8.3801   -0.9323   -2.6470 C   0  0  0  0  0  0  0  0  0  0  0  0
    7.1253   -0.6720   -2.1567 C   0  0  0  0  0  0  0  0  0  0  0  0
    6.9191   -0.6371   -0.7973 C   0  0  0  0  0  0  0  0  0  0  0  0
    5.6310   -0.3687   -0.3529 C   0  0  0  0  0  0  0  0  0  0  0  0
    4.4549   -0.1157   -1.0271 C   0  0  0  0  0  0  0  0  0  0  0  0
   -0.6866    0.0000    0.0000 H   0  0  0  0  0  0  0  0  0  0  0  0
   -0.6866    0.0000    0.0000 H   0  0  0  0  0  0  0  0  0  0  0  0
   -1.1083   -1.7695    3.7453 H   0  0  0  0  0  0  0  0  0  0  0  0
   -1.9781   -0.3834    4.5016 H   0  0  0  0  0  0  0  0  0  0  0  0
   -0.2277   -0.2424    3.9145 H   0  0  0  0  0  0  0  0  0  0  0  0
   -3.5522    0.6057    2.5063 H   0  0  0  0  0  0  0  0  0  0  0  0
   -3.5129   -1.2151    2.6507 H   0  0  0  0  0  0  0  0  0  0  0  0
   -4.2943   -0.5452    0.4536 H   0  0  0  0  0  0  0  0  0  0  0  0
   -1.5618   -1.8024    0.7957 H   0  0  0  0  0  0  0  0  0  0  0  0
   -3.1818   -2.5652    1.1046 H   0  0  0  0  0  0  0  0  0  0  0  0
   -1.7369   -2.5424   -1.4142 H   0  0  0  0  0  0  0  0  0  0  0  0
   -4.7310   -3.8018   -3.0475 H   0  0  0  0  0  0  0  0  0  0  0  0
   -2.9521   -3.6807   -3.2167 H   0  0  0  0  0  0  0  0  0  0  0  0
   -2.3680    1.8847   -1.5353 H   0  0  0  0  0  0  0  0  0  0  0  0
   -3.2171    0.4382   -2.0518 H   0  0  0  0  0  0  0  0  0  0  0  0
   -3.8940    2.4636    1.0122 H   0  0  0  0  0  0  0  0  0  0  0  0
   -5.9400    3.6471    1.4088 H   0  0  0  0  0  0  0  0  0  0  0  0
   -7.6854    3.7262   -0.3488 H   0  0  0  0  0  0  0  0  0  0  0  0
   -7.5564    3.3541   -3.3834 H   0  0  0  0  0  0  0  0  0  0  0  0
   -5.2292    1.3801   -2.8868 H   0  0  0  0  0  0  0  0  0  0  0  0
   -1.5768    2.2667    0.3159 H   0  0  0  0  0  0  0  0  0  0  0  0
   -1.9825    1.7770    2.5045 H   0  0  0  0  0  0  0  0  0  0  0  0
   -0.2197    1.2932    2.2855 H   0  0  0  0  0  0  0  0  0  0  0  0
    3.6146    0.0440    2.0942 H   0  0  0  0  0  0  0  0  0  0  0  0
    6.2413   -0.5161    2.9078 H   0  0  0  0  0  0  0  0  0  0  0  0
    8.5270   -0.9924    2.1611 H   0  0  0  0  0  0  0  0  0  0  0  0
   10.0468   -1.3003    0.3015 H   0  0  0  0  0  0  0  0  0  0  0  0
   10.4098   -1.3609   -2.1700 H   0  0  0  0  0  0  0  0  0  0  0  0
    8.5615   -0.9637   -3.7274 H   0  0  0  0  0  0  0  0  0  0  0  0
    6.2917   -0.4926   -2.8398 H   0  0  0  0  0  0  0  0  0  0  0  0
    4.3125   -0.0791   -2.1024 H   0  0  0  0  0  0  0  0  0  0  0  0
  3  4  1  0
  4  5  1  0
  5  6  1  0
  6  7  1  0
  7  8  1  0
  8  9  1  0
  9 10  2  0
  9 11  1  0
 11 12  1  0
  6 13  1  0
 13 14  1  0
 14 15  1  0
 15 16  2  0
 16 17  1  0
 17 18  2  0
 18 19  1  0
 19 20  1  0
 19 21  2  0
 13 22  1  0
 22 23  1  0
 22 24  1  0
 24 25  2  0
 25 26  1  0
 26 27  2  0
 27 28  1  0
 26 29  1  0
 29 30  2  0
 30 31  1  0
 31 32  1  0
 32 33  2  0
 33 34  1  0
 34 35  2  0
 35 36  1  0
 36 37  2  0
 37 38  1  0
 38 39  2  0
 39 40  1  0
 40 41  2  0
 23  4  1  0
 28 24  1  0
 41 29  1  0
 21 15  1  0
 40 31  1  0
 39 34  1  0
  1 42  1  0
  2 43  1  0
  3 44  1  0
  3 45  1  0
  3 46  1  0
  5 47  1  0
  5 48  1  0
  6 49  1  1
  7 50  1  0
  7 51  1  0
  8 52  1  0
 11 53  1  0
 11 54  1  0
 14 55  1  0
 14 56  1  0
 16 57  1  0
 17 58  1  0
 18 59  1  0
 20 60  1  0
 21 61  1  0
 22 62  1  1
 23 63  1  0
 23 64  1  0
 30 65  1  0
 32 66  1  0
 33 67  1  0
 35 68  1  0
 36 69  1  0
 37 70  1  0
 38 71  1  0
 41 72  1  0
M  END
$$$$
[H]c1c([H])c([H])c2c(c1[H])c1c3c(c4c5c([H])c([H])c([H])c([H])c5n5c4c1n2[C@]1([H])O[C@]5(C([H])([H])[H])[C@@]([H])(OC([H])([H])[H])[C@]([H])(C([H])(C([H])([H])[H])C([H])([H])[H])C1([H])[H])C([H])([H])N([H])C3=O
     RDKit          3D

 65 72  0  0  0  0  0  0  0  0999 V2000
   -4.3229   -1.2930    1.3215 C   0  0  0  0  0  0  0  0  0  0  0  0
   -4.1525   -1.0421   -0.1263 C   0  0  0  0  0  0  0  0  0  0  0  0
   -4.9144   -2.1380   -0.8891 C   0  0  0  0  0  0  0  0  0  0  0  0
   -2.8045   -0.8275   -0.6618 C   0  0  2  0  0  0  0  0  0  0  0  0
   -1.8282   -2.0204   -0.4354 C   0  0  0  0  0  0  0  0  0  0  0  0
   -0.6534   -1.3627   -0.1777 C   0  0  1  0  0  0  0  0  0  0  0  0
   -0.8787   -0.6932    1.0128 O   0  0  0  0  0  0  0  0  0  0  0  0
   -1.1710    0.6387    0.6612 C   0  0  2  0  0  0  0  0  0  0  0  0
   -1.7344    1.1940    2.0084 C   0  0  0  0  0  0  0  0  0  0  0  0
   -2.1799    0.5436   -0.3635 C   0  0  1  0  0  0  0  0  0  0  0  0
   -1.9701    1.2979   -1.5336 O   0  0  0  0  0  0  0  0  0  0  0  0
   -2.8696    2.3124   -1.7195 C   0  0  0  0  0  0  0  0  0  0  0  0
    0.1309    1.2458    0.4681 N   0  0  0  0  0  0  0  0  0  0  0  0
    0.3950    2.5656    0.6670 C   0  0  0  0  0  0  0  0  0  0  0  0
   -0.3623    3.6841    0.9316 C   0  0  0  0  0  0  0  0  0  0  0  0
    0.1547    4.9503    1.0866 C   0  0  0  0  0  0  0  0  0  0  0  0
    1.5183    5.1253    0.9717 C   0  0  0  0  0  0  0  0  0  0  0  0
    2.3404    4.0442    0.7057 C   0  0  0  0  0  0  0  0  0  0  0  0
    1.7699    2.8053    0.5608 C   0  0  0  0  0  0  0  0  0  0  0  0
    2.3590    1.6119    0.2872 C   0  0  0  0  0  0  0  0  0  0  0  0
    3.6459    1.1119    0.0995 C   0  0  0  0  0  0  0  0  0  0  0  0
    4.9154    1.8659    0.1117 C   0  0  0  0  0  0  0  0  0  0  0  0
    5.9325    0.8831   -0.1319 N   0  0  0  0  0  0  0  0  0  0  0  0
    5.3421   -0.4239   -0.2882 C   0  0  0  0  0  0  0  0  0  0  0  0
    6.0639   -1.4063   -0.5053 O   0  0  0  0  0  0  0  0  0  0  0  0
    3.9213   -0.2340   -0.1368 C   0  0  0  0  0  0  0  0  0  0  0  0
    2.8925   -1.1568   -0.2007 C   0  0  0  0  0  0  0  0  0  0  0  0
    2.7537   -2.4971   -0.4571 C   0  0  0  0  0  0  0  0  0  0  0  0
    3.6496   -3.4857   -0.7029 C   0  0  0  0  0  0  0  0  0  0  0  0
    3.1472   -4.7786   -0.9275 C   0  0  0  0  0  0  0  0  0  0  0  0
    1.8036   -5.0694   -0.9068 C   0  0  0  0  0  0  0  0  0  0  0  0
    0.8949   -4.0317   -0.6504 C   0  0  0  0  0  0  0  0  0  0  0  0
    1.3823   -2.7853   -0.4342 C   0  0  0  0  0  0  0  0  0  0  0  0
    0.7248   -1.6678   -0.1742 N   0  0  0  0  0  0  0  0  0  0  0  0
    1.6268   -0.6339   -0.0119 C   0  0  0  0  0  0  0  0  0  0  0  0
    1.3582    0.7028    0.2318 C   0  0  0  0  0  0  0  0  0  0  0  0
   -3.5655   -1.9721    1.7669 H   0  0  0  0  0  0  0  0  0  0  0  0
   -4.4557   -0.3766    1.9342 H   0  0  0  0  0  0  0  0  0  0  0  0
   -5.3023   -1.8417    1.4588 H   0  0  0  0  0  0  0  0  0  0  0  0
   -4.7546   -0.1106   -0.3598 H   0  0  0  0  0  0  0  0  0  0  0  0
   -4.6577   -2.0833   -1.9693 H   0  0  0  0  0  0  0  0  0  0  0  0
   -6.0001   -2.0824   -0.6937 H   0  0  0  0  0  0  0  0  0  0  0  0
   -4.4994   -3.1079   -0.5312 H   0  0  0  0  0  0  0  0  0  0  0  0
   -2.9267   -0.8167   -1.7910 H   0  0  0  0  0  0  0  0  0  0  0  0
   -1.8415   -2.6936   -1.3186 H   0  0  0  0  0  0  0  0  0  0  0  0
   -2.2170   -2.6573    0.4071 H   0  0  0  0  0  0  0  0  0  0  0  0
   -0.6332   -0.6191   -1.1020 H   0  0  0  0  0  0  0  0  0  0  0  0
   -2.0414    0.3520    2.6779 H   0  0  0  0  0  0  0  0  0  0  0  0
   -2.6616    1.7650    1.8363 H   0  0  0  0  0  0  0  0  0  0  0  0
   -0.9459    1.7236    2.5702 H   0  0  0  0  0  0  0  0  0  0  0  0
   -3.0978    1.0847    0.0690 H   0  0  0  0  0  0  0  0  0  0  0  0
   -3.9163    1.9017   -1.7906 H   0  0  0  0  0  0  0  0  0  0  0  0
   -2.8774    2.9668   -0.8122 H   0  0  0  0  0  0  0  0  0  0  0  0
   -2.6273    2.9367   -2.5949 H   0  0  0  0  0  0  0  0  0  0  0  0
   -1.4347    3.6054    1.0222 H   0  0  0  0  0  0  0  0  0  0  0  0
   -0.4954    5.7980    1.2956 H   0  0  0  0  0  0  0  0  0  0  0  0
    1.9275    6.0995    1.0900 H   0  0  0  0  0  0  0  0  0  0  0  0
    3.4183    4.1539    0.6100 H   0  0  0  0  0  0  0  0  0  0  0  0
    4.9017    2.5656   -0.7696 H   0  0  0  0  0  0  0  0  0  0  0  0
    5.0664    2.4453    1.0450 H   0  0  0  0  0  0  0  0  0  0  0  0
    6.9468    1.1252   -0.1810 H   0  0  0  0  0  0  0  0  0  0  0  0
    4.6994   -3.3174   -0.7282 H   0  0  0  0  0  0  0  0  0  0  0  0
    3.8332   -5.5887   -1.1263 H   0  0  0  0  0  0  0  0  0  0  0  0
    1.4430   -6.0738   -1.0830 H   0  0  0  0  0  0  0  0  0  0  0  0
   -0.1661   -4.2174   -0.6227 H   0  0  0  0  0  0  0  0  0  0  0  0
  1  2  1  0
  2  3  1  0
  2  4  1  0
  4  5  1  0
  5  6  1  0
  6  7  1  0
  7  8  1  0
  8  9  1  1
  8 10  1  0
 10 11  1  0
 11 12  1  0
  8 13  1  0
 13 14  1  0
 14 15  2  0
 15 16  1  0
 16 17  2  0
 17 18  1  0
 18 19  2  0
 19 20  1  0
 20 21  2  0
 21 22  1  0
 22 23  1  0
 23 24  1  0
 24 25  2  0
 24 26  1  0
 26 27  2  0
 27 28  1  0
 28 29  2  0
 29 30  1  0
 30 31  2  0
 31 32  1  0
 32 33  2  0
 33 34  1  0
 34 35  1  0
 35 36  2  0
 10  4  1  0
 36 13  1  0
 34  6  1  0
 19 14  1  0
 36 20  1  0
 26 21  1  0
 35 27  1  0
 33 28  1  0
  1 37  1  0
  1 38  1  0
  1 39  1  0
  2 40  1  0
  3 41  1  0
  3 42  1  0
  3 43  1  0
  4 44  1  6
  5 45  1  0
  5 46  1  0
  6 47  1  6
  9 48  1  0
  9 49  1  0
  9 50  1  0
 10 51  1  1
 12 52  1  0
 12 53  1  0
 12 54  1  0
 15 55  1  0
 16 56  1  0
 17 57  1  0
 18 58  1  0
 22 59  1  0
 22 60  1  0
 23 61  1  0
 29 62  1  0
 30 63  1  0
 31 64  1  0
 32 65  1  0
M  END
$$$$
[H]c1c([H])c([H])c([C@@]2([H])C([H])([H])N(c3c([H])c([H])c(F)c(Cl)c3[H])C([H])([H])[C@@]2([H])N([H])C(=O)N([H])c2c([H])c([H])c([H])c([H])c2C([H])([H])[H])c([H])c1[H]
     RDKit          3D

 53 56  0  0  0  0  0  0  0  0999 V2000
    4.8894   -1.2400    1.7424 C   0  0  0  0  0  0  0  0  0  0  0  0
    5.2743   -0.3213    0.6433 C   0  0  0  0  0  0  0  0  0  0  0  0
    6.5990   -0.0704    0.4312 C   0  0  0  0  0  0  0  0  0  0  0  0
    7.0173    0.7779   -0.5782 C   0  0  0  0  0  0  0  0  0  0  0  0
    6.0913    1.3878   -1.3922 C   0  0  0  0  0  0  0  0  0  0  0  0
    4.7242    1.1442   -1.1922 C   0  0  0  0  0  0  0  0  0  0  0  0
    4.3264    0.3020   -0.1887 C   0  0  0  0  0  0  0  0  0  0  0  0
    2.9912   -0.0051    0.0886 N   0  0  0  0  0  0  0  0  0  0  0  0
    1.8731    0.4841   -0.5837 C   0  0  0  0  0  0  0  0  0  0  0  0
    1.8982    1.2960   -1.5652 O   0  0  0  0  0  0  0  0  0  0  0  0
    0.5618    0.0346   -0.1329 N   0  0  0  0  0  0  0  0  0  0  0  0
   -0.5826    0.5278   -0.8117 C   0  0  2  0  0  0  0  0  0  0  0  0
   -1.5518    1.2644    0.0595 C   0  0  0  0  0  0  0  0  0  0  0  0
   -2.8339    1.0199   -0.5553 N   0  0  0  0  0  0  0  0  0  0  0  0
   -2.7662   -0.1334   -1.4392 C   0  0  0  0  0  0  0  0  0  0  0  0
   -1.3578   -0.6188   -1.4230 C   0  0  2  0  0  0  0  0  0  0  0  0
   -1.1875   -1.8955   -0.6808 C   0  0  0  0  0  0  0  0  0  0  0  0
   -1.6856   -2.0751    0.5900 C   0  0  0  0  0  0  0  0  0  0  0  0
   -1.5058   -3.2840    1.2548 C   0  0  0  0  0  0  0  0  0  0  0  0
   -0.8318   -4.3376    0.6790 C   0  0  0  0  0  0  0  0  0  0  0  0
   -0.3323   -4.1613   -0.5922 C   0  0  0  0  0  0  0  0  0  0  0  0
   -0.5152   -2.9606   -1.2427 C   0  0  0  0  0  0  0  0  0  0  0  0
   -4.0111    1.7697   -0.3544 C   0  0  0  0  0  0  0  0  0  0  0  0
   -3.9800    2.8475    0.4982 C   0  0  0  0  0  0  0  0  0  0  0  0
   -5.1145    3.6154    0.7274 C   0  0  0  0  0  0  0  0  0  0  0  0
   -6.2838    3.2823    0.0845 C   0  0  0  0  0  0  0  0  0  0  0  0
   -7.3951    4.0187    0.2964 F   0  0  0  0  0  0  0  0  0  0  0  0
   -6.3465    2.2192   -0.7670 C   0  0  0  0  0  0  0  0  0  0  0  0
   -7.8390    1.8262   -1.5625 Cl  0  0  0  0  0  0  0  0  0  0  0  0
   -5.2025    1.4684   -0.9797 C   0  0  0  0  0  0  0  0  0  0  0  0
    4.5555   -2.2003    1.3150 H   0  0  0  0  0  0  0  0  0  0  0  0
    5.7677   -1.4424    2.3739 H   0  0  0  0  0  0  0  0  0  0  0  0
    4.1276   -0.7888    2.4135 H   0  0  0  0  0  0  0  0  0  0  0  0
    7.3246   -0.5611    1.0848 H   0  0  0  0  0  0  0  0  0  0  0  0
    8.0826    0.9523   -0.7153 H   0  0  0  0  0  0  0  0  0  0  0  0
    6.4179    2.0427   -2.1712 H   0  0  0  0  0  0  0  0  0  0  0  0
    4.0497    1.6517   -1.8630 H   0  0  0  0  0  0  0  0  0  0  0  0
    2.7841   -0.6790    0.8896 H   0  0  0  0  0  0  0  0  0  0  0  0
    0.5561   -0.6220    0.6624 H   0  0  0  0  0  0  0  0  0  0  0  0
   -0.2900    1.2293   -1.6333 H   0  0  0  0  0  0  0  0  0  0  0  0
   -1.5077    0.9887    1.1286 H   0  0  0  0  0  0  0  0  0  0  0  0
   -1.2850    2.3542    0.0370 H   0  0  0  0  0  0  0  0  0  0  0  0
   -3.0253    0.1405   -2.4916 H   0  0  0  0  0  0  0  0  0  0  0  0
   -3.4711   -0.9232   -1.1098 H   0  0  0  0  0  0  0  0  0  0  0  0
   -0.9178   -0.7544   -2.4556 H   0  0  0  0  0  0  0  0  0  0  0  0
   -2.2259   -1.2922    1.1035 H   0  0  0  0  0  0  0  0  0  0  0  0
   -1.8956   -3.4387    2.2622 H   0  0  0  0  0  0  0  0  0  0  0  0
   -0.6806   -5.2922    1.1831 H   0  0  0  0  0  0  0  0  0  0  0  0
    0.2105   -4.9577   -1.1020 H   0  0  0  0  0  0  0  0  0  0  0  0
   -0.1252   -2.7971   -2.2581 H   0  0  0  0  0  0  0  0  0  0  0  0
   -3.0812    3.1469    1.0263 H   0  0  0  0  0  0  0  0  0  0  0  0
   -5.0632    4.4493    1.3960 H   0  0  0  0  0  0  0  0  0  0  0  0
   -5.2305    0.6106   -1.6594 H   0  0  0  0  0  0  0  0  0  0  0  0
  1  2  1  0
  2  3  2  0
  3  4  1  0
  4  5  2  0
  5  6  1  0
  6  7  2  0
  7  8  1  0
  8  9  1  0
  9 10  2  0
  9 11  1  0
 11 12  1  0
 12 13  1  0
 13 14  1  0
 14 15  1  0
 15 16  1  0
 16 17  1  0
 17 18  2  0
 18 19  1  0
 19 20  2  0
 20 21  1  0
 21 22  2  0
 14 23  1  0
 23 24  2  0
 24 25  1  0
 25 26  2  0
 26 27  1  0
 26 28  1  0
 28 29  1  0
 28 30  2  0
  7  2  1  0
 16 12  1  0
 22 17  1  0
 30 23  1  0
  1 31  1  0
  1 32  1  0
  1 33  1  0
  3 34  1  0
  4 35  1  0
  5 36  1  0
  6 37  1  0
  8 38  1  0
 11 39  1  0
 12 40  1  6
 13 41  1  0
 13 42  1  0
 15 43  1  0
 15 44  1  0
 16 45  1  6
 18 46  1  0
 19 47  1  0
 20 48  1  0
 21 49  1  0
 22 50  1  0
 24 51  1  0
 25 52  1  0
 30 53  1  0
M  END
$$$$
[H]c1c([H])c(-c2c([H])c([H])c(C(=O)N([H])c3c([H])c([H])n([H])c(=O)c3[H])c([H])c2[H])c([H])c([H])c1F
     RDKit          3D

 36 38  0  0  0  0  0  0  0  0999 V2000
   -8.0194    0.0706   -0.4202 F   0  0  0  0  0  0  0  0  0  0  0  0
   -6.6637    0.1317   -0.3466 C   0  0  0  0  0  0  0  0  0  0  0  0
   -5.8917   -0.9603   -0.0229 C   0  0  0  0  0  0  0  0  0  0  0  0
   -4.5197   -0.8717    0.0451 C   0  0  0  0  0  0  0  0  0  0  0  0
   -3.8444    0.3222   -0.2091 C   0  0  0  0  0  0  0  0  0  0  0  0
   -4.6258    1.4151   -0.5337 C   0  0  0  0  0  0  0  0  0  0  0  0
   -5.9976    1.3120   -0.5979 C   0  0  0  0  0  0  0  0  0  0  0  0
   -2.3936    0.3972   -0.1328 C   0  0  0  0  0  0  0  0  0  0  0  0
   -1.7941    1.5681    0.2491 C   0  0  0  0  0  0  0  0  0  0  0  0
   -0.4136    1.6441    0.3231 C   0  0  0  0  0  0  0  0  0  0  0  0
    0.3485    0.5475    0.0140 C   0  0  0  0  0  0  0  0  0  0  0  0
   -0.2099   -0.6434   -0.3727 C   0  0  0  0  0  0  0  0  0  0  0  0
   -1.6088   -0.6889   -0.4379 C   0  0  0  0  0  0  0  0  0  0  0  0
    1.8082    0.6700    0.0969 C   0  0  0  0  0  0  0  0  0  0  0  0
    2.2578    1.8305    0.0317 O   0  0  0  0  0  0  0  0  0  0  0  0
    2.5746   -0.4938    0.2403 N   0  0  0  0  0  0  0  0  0  0  0  0
    3.9776   -0.5463    0.3382 C   0  0  0  0  0  0  0  0  0  0  0  0
    4.7799    0.5098    0.6151 C   0  0  0  0  0  0  0  0  0  0  0  0
    6.1795    0.4224    0.6832 C   0  0  0  0  0  0  0  0  0  0  0  0
    6.7628   -0.7479    0.4684 N   0  0  0  0  0  0  0  0  0  0  0  0
    6.0066   -1.8105    0.1935 C   0  0  0  0  0  0  0  0  0  0  0  0
    6.5618   -2.9349   -0.0129 O   0  0  0  0  0  0  0  0  0  0  0  0
    4.6432   -1.7764    0.1160 C   0  0  0  0  0  0  0  0  0  0  0  0
   -6.3579   -1.9121    0.1844 H   0  0  0  0  0  0  0  0  0  0  0  0
   -3.8882   -1.7255    0.3001 H   0  0  0  0  0  0  0  0  0  0  0  0
   -4.0994    2.3545   -0.7341 H   0  0  0  0  0  0  0  0  0  0  0  0
   -6.6072    2.1879   -0.8568 H   0  0  0  0  0  0  0  0  0  0  0  0
   -2.3530    2.4740    0.5070 H   0  0  0  0  0  0  0  0  0  0  0  0
    0.0475    2.5874    0.6298 H   0  0  0  0  0  0  0  0  0  0  0  0
    0.3437   -1.5291   -0.6292 H   0  0  0  0  0  0  0  0  0  0  0  0
   -2.0331   -1.6327   -0.7436 H   0  0  0  0  0  0  0  0  0  0  0  0
    2.0973   -1.4580    0.2947 H   0  0  0  0  0  0  0  0  0  0  0  0
    4.3574    1.4843    0.8119 H   0  0  0  0  0  0  0  0  0  0  0  0
    6.7195    1.3099    0.9070 H   0  0  0  0  0  0  0  0  0  0  0  0
    7.8165   -0.8620    0.5093 H   0  0  0  0  0  0  0  0  0  0  0  0
    4.0388   -2.6459   -0.1088 H   0  0  0  0  0  0  0  0  0  0  0  0
  1  2  1  0
  2  3  2  0
  3  4  1  0
  4  5  2  0
  5  6  1  0
  6  7  2  0
  5  8  1  0
  8  9  2  0
  9 10  1  0
 10 11  2  0
 11 12  1  0
 12 13  2  0
 11 14  1  0
 14 15  2  0
 14 16  1  0
 16 17  1  0
 17 18  1  0
 18 19  2  0
 19 20  1  0
 20 21  1  0
 21 22  2  0
 21 23  1  0
  7  2  1  0
 13  8  1  0
 23 17  2  0
  3 24  1  0
  4 25  1  0
  6 26  1  0
  7 27  1  0
  9 28  1  0
 10 29  1  0
 12 30  1  0
 13 31  1  0
 16 32  1  0
 18 33  1  0
 19 34  1  0
 20 35  1  0
 23 36  1  0
M  END
$$$$
[H]c1c([H])c(Cl)c2c(c1[H])C([H])(N([H])C(=O)c1nc3c([H])c([H])c([H])c([H])c3c([H])c1[H])C([H])([H])N(C([H])([H])[H])C([H])([H])C2([H])[H]
     RDKit          3D

 46 49  0  0  0  0  0  0  0  0999 V2000
   -2.5837   -0.5024   -2.5435 C   0  0  0  0  0  0  0  0  0  0  0  0
   -2.9293    0.5221   -1.6585 N   0  0  0  0  0  0  0  0  0  0  0  0
   -4.2973    0.8351   -1.4890 C   0  0  0  0  0  0  0  0  0  0  0  0
   -4.5975    0.8685    0.0007 C   0  0  0  0  0  0  0  0  0  0  0  0
   -3.6576   -0.0967    0.6470 C   0  0  0  0  0  0  0  0  0  0  0  0
   -4.2963   -1.1641    1.2355 C   0  0  0  0  0  0  0  0  0  0  0  0
   -6.0449   -1.2235    1.1390 Cl  0  0  0  0  0  0  0  0  0  0  0  0
   -3.5803   -2.1667    1.8875 C   0  0  0  0  0  0  0  0  0  0  0  0
   -2.2065   -2.0495    1.9213 C   0  0  0  0  0  0  0  0  0  0  0  0
   -1.5727   -0.9802    1.3313 C   0  0  0  0  0  0  0  0  0  0  0  0
   -2.2975    0.0003    0.6918 C   0  0  0  0  0  0  0  0  0  0  0  0
   -1.4196    1.0630    0.1245 C   0  0  0  0  0  0  0  0  0  0  0  0
   -1.9728    1.4446   -1.2493 C   0  0  0  0  0  0  0  0  0  0  0  0
   -0.0610    0.6453    0.0599 N   0  0  0  0  0  0  0  0  0  0  0  0
    0.9200    1.3888    0.8079 C   0  0  0  0  0  0  0  0  0  0  0  0
    0.5823    2.3708    1.4918 O   0  0  0  0  0  0  0  0  0  0  0  0
    2.3313    0.9921    0.7687 C   0  0  0  0  0  0  0  0  0  0  0  0
    3.2394    1.7245    1.4955 C   0  0  0  0  0  0  0  0  0  0  0  0
    4.5744    1.3936    1.4921 C   0  0  0  0  0  0  0  0  0  0  0  0
    4.9830    0.3026    0.7375 C   0  0  0  0  0  0  0  0  0  0  0  0
    6.2978   -0.0853    0.6869 C   0  0  0  0  0  0  0  0  0  0  0  0
    6.6949   -1.1697   -0.0649 C   0  0  0  0  0  0  0  0  0  0  0  0
    5.7360   -1.8616   -0.7702 C   0  0  0  0  0  0  0  0  0  0  0  0
    4.4155   -1.5093   -0.7479 C   0  0  0  0  0  0  0  0  0  0  0  0
    4.0499   -0.4107    0.0206 C   0  0  0  0  0  0  0  0  0  0  0  0
    2.7392   -0.0697    0.0362 N   0  0  0  0  0  0  0  0  0  0  0  0
   -2.4029   -1.4489   -1.9621 H   0  0  0  0  0  0  0  0  0  0  0  0
   -3.3001   -0.6823   -3.3836 H   0  0  0  0  0  0  0  0  0  0  0  0
   -1.5979   -0.2782   -3.0368 H   0  0  0  0  0  0  0  0  0  0  0  0
   -4.9126    0.0729   -2.0124 H   0  0  0  0  0  0  0  0  0  0  0  0
   -4.5282    1.8643   -1.8729 H   0  0  0  0  0  0  0  0  0  0  0  0
   -4.3229    1.8786    0.3712 H   0  0  0  0  0  0  0  0  0  0  0  0
   -5.6567    0.6146    0.2088 H   0  0  0  0  0  0  0  0  0  0  0  0
   -4.0791   -2.9952    2.3439 H   0  0  0  0  0  0  0  0  0  0  0  0
   -1.6291   -2.8212    2.4252 H   0  0  0  0  0  0  0  0  0  0  0  0
   -0.4879   -0.9181    1.3761 H   0  0  0  0  0  0  0  0  0  0  0  0
   -1.5372    1.9390    0.7659 H   0  0  0  0  0  0  0  0  0  0  0  0
   -2.3886    2.4678   -1.2505 H   0  0  0  0  0  0  0  0  0  0  0  0
   -1.1049    1.4491   -1.9690 H   0  0  0  0  0  0  0  0  0  0  0  0
    0.2225   -0.1763   -0.5120 H   0  0  0  0  0  0  0  0  0  0  0  0
    2.9064    2.5677    2.0754 H   0  0  0  0  0  0  0  0  0  0  0  0
    5.3248    1.9358    2.0446 H   0  0  0  0  0  0  0  0  0  0  0  0
    7.0405    0.4836    1.2583 H   0  0  0  0  0  0  0  0  0  0  0  0
    7.7395   -1.4538   -0.0867 H   0  0  0  0  0  0  0  0  0  0  0  0
    6.0068   -2.7327   -1.3831 H   0  0  0  0  0  0  0  0  0  0  0  0
    3.6608   -2.0284   -1.2837 H   0  0  0  0  0  0  0  0  0  0  0  0
  1  2  1  0
  2  3  1  0
  3  4  1  0
  4  5  1  0
  5  6  2  0
  6  7  1  0
  6  8  1  0
  8  9  2  0
  9 10  1  0
 10 11  2  0
 11 12  1  0
 12 13  1  0
 12 14  1  0
 14 15  1  0
 15 16  2  0
 15 17  1  0
 17 18  2  0
 18 19  1  0
 19 20  2  0
 20 21  1  0
 21 22  2  0
 22 23  1  0
 23 24  2  0
 24 25  1  0
 25 26  2  0
 13  2  1  0
 26 17  1  0
 11  5  1  0
 25 20  1  0
  1 27  1  0
  1 28  1  0
  1 29  1  0
  3 30  1  0
  3 31  1  0
  4 32  1  0
  4 33  1  0
  8 34  1  0
  9 35  1  0
 10 36  1  0
 12 37  1  0
 13 38  1  0
 13 39  1  0
 14 40  1  0
 18 41  1  0
 19 42  1  0
 21 43  1  0
 22 44  1  0
 23 45  1  0
 24 46  1  0
M  END
$$$$
[H]OC([H])([H])[C@]1([H])C(=O)[C@@]2([H])C([H])([H])C([H])([H])[C@@](O[H])(C(=O)C3(C([H])([H])[H])C([H])([H])C([H])([H])C3([H])C([H])([H])[H])[C@]2(C([H])([H])[H])C([H])([H])C([H])([H])C([H])(C([H])([H])C(=O)N2C([H])([H])C([H])([H])C([H])(c3c([H])c([H])c([H])c([H])c3[H])C([H])([H])C2([H])[H])C([H])([H])[C@]([H])(OC([H])([H])[H])C(=O)N1[H]
     RDKit          3D

 97101  0  0  0  0  0  0  0  0999 V2000
    0.1302   -6.0865   -0.9332 C   0  0  0  0  0  0  0  0  0  0  0  0
   -0.5499   -4.9108   -1.0747 O   0  0  0  0  0  0  0  0  0  0  0  0
   -0.2036   -3.9312   -0.0882 C   0  0  1  0  0  0  0  0  0  0  0  0
    0.5334   -2.9460   -0.8362 C   0  0  0  0  0  0  0  0  0  0  0  0
    1.0736   -1.6685   -0.3397 C   0  0  0  0  0  0  0  0  0  0  0  0
    1.9180   -1.6850    0.8522 C   0  0  0  0  0  0  0  0  0  0  0  0
    2.4540   -0.3801    1.3065 C   0  0  0  0  0  0  0  0  0  0  0  0
    1.7133    0.2193    2.1761 O   0  0  0  0  0  0  0  0  0  0  0  0
    3.6347    0.2381    0.9019 N   0  0  0  0  0  0  0  0  0  0  0  0
    4.5210   -0.3520   -0.0730 C   0  0  0  0  0  0  0  0  0  0  0  0
    5.8443   -0.5432    0.6002 C   0  0  0  0  0  0  0  0  0  0  0  0
    6.3741    0.6278    1.3414 C   0  0  0  0  0  0  0  0  0  0  0  0
    5.3977    1.5189    2.0133 C   0  0  0  0  0  0  0  0  0  0  0  0
    4.0074    1.5250    1.4831 C   0  0  0  0  0  0  0  0  0  0  0  0
    7.3397    1.3644    0.4791 C   0  0  0  0  0  0  0  0  0  0  0  0
    6.9259    2.1808   -0.5588 C   0  0  0  0  0  0  0  0  0  0  0  0
    7.8394    2.8409   -1.3388 C   0  0  0  0  0  0  0  0  0  0  0  0
    9.1910    2.7208   -1.1247 C   0  0  0  0  0  0  0  0  0  0  0  0
    9.6137    1.9110   -0.0944 C   0  0  0  0  0  0  0  0  0  0  0  0
    8.7000    1.2445    0.6934 C   0  0  0  0  0  0  0  0  0  0  0  0
    0.1918   -0.4474   -0.5970 C   0  0  0  0  0  0  0  0  0  0  0  0
   -0.8603   -0.0967    0.3219 C   0  0  0  0  0  0  0  0  0  0  0  0
   -2.2906    0.1147   -0.1746 C   0  0  2  0  0  0  0  0  0  0  0  0
   -3.1502   -0.0181    1.0626 C   0  0  0  0  0  0  0  0  0  0  0  0
   -2.7213   -0.6594   -1.3247 C   0  0  2  0  0  0  0  0  0  0  0  0
   -3.9425    0.1651   -1.8373 C   0  0  0  0  0  0  0  0  0  0  0  0
   -3.1354    1.4724   -1.9699 C   0  0  0  0  0  0  0  0  0  0  0  0
   -2.5069    1.5814   -0.6383 C   0  0  2  0  0  0  0  0  0  0  0  0
   -1.1263    1.8785   -0.9799 O   0  0  0  0  0  0  0  0  0  0  0  0
   -2.9616    2.5321    0.3318 C   0  0  0  0  0  0  0  0  0  0  0  0
   -1.9260    2.9820    0.9435 O   0  0  0  0  0  0  0  0  0  0  0  0
   -4.0797    3.2066    0.9091 C   0  0  0  0  0  0  0  0  0  0  0  0
   -3.5905    4.0620    2.1463 C   0  0  0  0  0  0  0  0  0  0  0  0
   -4.4365    4.3450   -0.1158 C   0  0  0  0  0  0  0  0  0  0  0  0
   -5.7177    3.5938   -0.3924 C   0  0  0  0  0  0  0  0  0  0  0  0
   -5.4761    3.0789    1.0317 C   0  0  0  0  0  0  0  0  0  0  0  0
   -6.3132    1.9876    1.5067 C   0  0  0  0  0  0  0  0  0  0  0  0
   -3.0214   -2.0673   -1.3250 C   0  0  0  0  0  0  0  0  0  0  0  0
   -2.7529   -2.7007   -2.3806 O   0  0  0  0  0  0  0  0  0  0  0  0
   -3.5981   -2.9521   -0.3224 C   0  0  1  0  0  0  0  0  0  0  0  0
   -4.4542   -4.0718   -0.9955 C   0  0  0  0  0  0  0  0  0  0  0  0
   -5.1434   -4.7670   -0.0034 O   0  0  0  0  0  0  0  0  0  0  0  0
   -2.7249   -3.6674    0.5506 N   0  0  0  0  0  0  0  0  0  0  0  0
   -1.3419   -3.6751    0.7546 C   0  0  0  0  0  0  0  0  0  0  0  0
   -1.0239   -3.3890    1.9892 O   0  0  0  0  0  0  0  0  0  0  0  0
   -0.1934   -6.7671   -1.7189 H   0  0  0  0  0  0  0  0  0  0  0  0
    1.2250   -5.9048   -1.0797 H   0  0  0  0  0  0  0  0  0  0  0  0
   -0.0655   -6.5556    0.0551 H   0  0  0  0  0  0  0  0  0  0  0  0
    0.5833   -4.5219    0.5196 H   0  0  0  0  0  0  0  0  0  0  0  0
   -0.0024   -2.6927   -1.8050 H   0  0  0  0  0  0  0  0  0  0  0  0
    1.3987   -3.5692   -1.3054 H   0  0  0  0  0  0  0  0  0  0  0  0
    1.8849   -1.4535   -1.1537 H   0  0  0  0  0  0  0  0  0  0  0  0
    2.8172   -2.3394    0.6367 H   0  0  0  0  0  0  0  0  0  0  0  0
    1.5024   -2.1501    1.7658 H   0  0  0  0  0  0  0  0  0  0  0  0
    4.1333   -1.3160   -0.3846 H   0  0  0  0  0  0  0  0  0  0  0  0
    4.6025    0.2790   -0.9925 H   0  0  0  0  0  0  0  0  0  0  0  0
    6.5850   -0.8388   -0.1872 H   0  0  0  0  0  0  0  0  0  0  0  0
    5.6992   -1.4094    1.3142 H   0  0  0  0  0  0  0  0  0  0  0  0
    7.0209    0.1815    2.1756 H   0  0  0  0  0  0  0  0  0  0  0  0
    5.7415    2.5964    2.0391 H   0  0  0  0  0  0  0  0  0  0  0  0
    5.3121    1.2708    3.1156 H   0  0  0  0  0  0  0  0  0  0  0  0
    3.2810    1.8291    2.2597 H   0  0  0  0  0  0  0  0  0  0  0  0
    3.9250    2.2854    0.6809 H   0  0  0  0  0  0  0  0  0  0  0  0
    5.8545    2.2799   -0.7277 H   0  0  0  0  0  0  0  0  0  0  0  0
    7.4521    3.4737   -2.1454 H   0  0  0  0  0  0  0  0  0  0  0  0
    9.9126    3.2578   -1.7604 H   0  0  0  0  0  0  0  0  0  0  0  0
   10.6799    1.7961    0.1006 H   0  0  0  0  0  0  0  0  0  0  0  0
    9.0682    0.6047    1.5088 H   0  0  0  0  0  0  0  0  0  0  0  0
    0.8649    0.4639   -0.7708 H   0  0  0  0  0  0  0  0  0  0  0  0
   -0.1067   -0.6328   -1.6773 H   0  0  0  0  0  0  0  0  0  0  0  0
   -0.8920   -0.6490    1.2845 H   0  0  0  0  0  0  0  0  0  0  0  0
   -0.6288    0.9501    0.7397 H   0  0  0  0  0  0  0  0  0  0  0  0
   -2.9123    0.8617    1.6951 H   0  0  0  0  0  0  0  0  0  0  0  0
   -4.2097   -0.1503    0.8405 H   0  0  0  0  0  0  0  0  0  0  0  0
   -2.7634   -0.8609    1.7243 H   0  0  0  0  0  0  0  0  0  0  0  0
   -1.9970   -0.4387   -2.1685 H   0  0  0  0  0  0  0  0  0  0  0  0
   -4.7232    0.2313   -1.0940 H   0  0  0  0  0  0  0  0  0  0  0  0
   -4.2514   -0.1862   -2.8250 H   0  0  0  0  0  0  0  0  0  0  0  0
   -3.6790    2.2884   -2.3709 H   0  0  0  0  0  0  0  0  0  0  0  0
   -2.4076    1.1795   -2.7829 H   0  0  0  0  0  0  0  0  0  0  0  0
   -1.1235    2.5416   -1.7000 H   0  0  0  0  0  0  0  0  0  0  0  0
   -3.4730    3.3702    2.9931 H   0  0  0  0  0  0  0  0  0  0  0  0
   -4.3706    4.7935    2.4101 H   0  0  0  0  0  0  0  0  0  0  0  0
   -2.6913    4.6158    1.8632 H   0  0  0  0  0  0  0  0  0  0  0  0
   -3.7475    4.4475   -0.9426 H   0  0  0  0  0  0  0  0  0  0  0  0
   -4.6874    5.3014    0.3572 H   0  0  0  0  0  0  0  0  0  0  0  0
   -5.7340    2.8507   -1.1752 H   0  0  0  0  0  0  0  0  0  0  0  0
   -6.6121    4.2487   -0.5128 H   0  0  0  0  0  0  0  0  0  0  0  0
   -5.8890    3.9892    1.6304 H   0  0  0  0  0  0  0  0  0  0  0  0
   -7.2827    2.2163    1.9351 H   0  0  0  0  0  0  0  0  0  0  0  0
   -5.7200    1.3707    2.2456 H   0  0  0  0  0  0  0  0  0  0  0  0
   -6.4996    1.2626    0.6598 H   0  0  0  0  0  0  0  0  0  0  0  0
   -4.4349   -2.4361    0.2624 H   0  0  0  0  0  0  0  0  0  0  0  0
   -5.1122   -3.6322   -1.7530 H   0  0  0  0  0  0  0  0  0  0  0  0
   -3.6925   -4.7675   -1.4111 H   0  0  0  0  0  0  0  0  0  0  0  0
   -4.6768   -5.6053    0.2392 H   0  0  0  0  0  0  0  0  0  0  0  0
   -3.3188   -4.3363    1.1824 H   0  0  0  0  0  0  0  0  0  0  0  0
  1  2  1  0
  2  3  1  0
  3  4  1  0
  4  5  1  0
  5  6  1  0
  6  7  1  0
  7  8  2  0
  7  9  1  0
  9 10  1  0
 10 11  1  0
 11 12  1  0
 12 13  1  0
 13 14  1  0
 12 15  1  0
 15 16  2  0
 16 17  1  0
 17 18  2  0
 18 19  1  0
 19 20  2  0
  5 21  1  0
 21 22  1  0
 22 23  1  0
 23 24  1  1
 23 25  1  0
 25 26  1  0
 26 27  1  0
 27 28  1  0
 28 29  1  6
 28 30  1  0
 30 31  2  0
 30 32  1  0
 32 33  1  0
 32 34  1  0
 34 35  1  0
 35 36  1  0
 36 37  1  0
 25 38  1  0
 38 39  2  0
 38 40  1  0
 40 41  1  0
 41 42  1  0
 40 43  1  0
 43 44  1  0
 44 45  2  0
 44  3  1  0
 14  9  1  0
 20 15  1  0
 28 23  1  0
 36 32  1  0
  1 46  1  0
  1 47  1  0
  1 48  1  0
  3 49  1  1
  4 50  1  0
  4 51  1  0
  5 52  1  0
  6 53  1  0
  6 54  1  0
 10 55  1  0
 10 56  1  0
 11 57  1  0
 11 58  1  0
 12 59  1  0
 13 60  1  0
 13 61  1  0
 14 62  1  0
 14 63  1  0
 16 64  1  0
 17 65  1  0
 18 66  1  0
 19 67  1  0
 20 68  1  0
 21 69  1  0
 21 70  1  0
 22 71  1  0
 22 72  1  0
 24 73  1  0
 24 74  1  0
 24 75  1  0
 25 76  1  6
 26 77  1  0
 26 78  1  0
 27 79  1  0
 27 80  1  0
 29 81  1  0
 33 82  1  0
 33 83  1  0
 33 84  1  0
 34 85  1  0
 34 86  1  0
 35 87  1  0
 35 88  1  0
 36 89  1  0
 37 90  1  0
 37 91  1  0
 37 92  1  0
 40 93  1  1
 41 94  1  0
 41 95  1  0
 42 96  1  0
 43 97  1  0
M  END
$$$$
[H]Oc1c([H])c(C([H])([H])C([H])([H])[H])c(-c2c([H])c([H])c3c(-c4nc5c(n4[H])C([H])([H])C([H])([H])N(C([H])([H])[C@@]4([H])N(C([H])([H])[H])C([H])([H])C([H])([H])C4([H])[H])C5([H])[H])nn([H])c3c2[H])c([H])c1F
     RDKit          3D

 66 71  0  0  0  0  0  0  0  0999 V2000
   -6.9312   -1.7770   -1.1241 C   0  0  0  0  0  0  0  0  0  0  0  0
   -6.5642   -0.5104   -1.8275 C   0  0  0  0  0  0  0  0  0  0  0  0
   -6.6844    0.7047   -1.0203 C   0  0  0  0  0  0  0  0  0  0  0  0
   -7.8217    1.4991   -1.2254 C   0  0  0  0  0  0  0  0  0  0  0  0
   -8.0080    2.6555   -0.5144 C   0  0  0  0  0  0  0  0  0  0  0  0
   -9.1561    3.4051   -0.7589 O   0  0  0  0  0  0  0  0  0  0  0  0
   -7.0978    3.0850    0.4221 C   0  0  0  0  0  0  0  0  0  0  0  0
   -7.2883    4.2220    1.1165 F   0  0  0  0  0  0  0  0  0  0  0  0
   -5.9842    2.3155    0.6288 C   0  0  0  0  0  0  0  0  0  0  0  0
   -5.7852    1.1389   -0.0875 C   0  0  0  0  0  0  0  0  0  0  0  0
   -4.5844    0.3974    0.2095 C   0  0  0  0  0  0  0  0  0  0  0  0
   -3.4092    0.8042   -0.3525 C   0  0  0  0  0  0  0  0  0  0  0  0
   -2.2451    0.1340   -0.0691 C   0  0  0  0  0  0  0  0  0  0  0  0
   -2.2766   -0.9471    0.7837 C   0  0  0  0  0  0  0  0  0  0  0  0
   -1.3300   -1.8128    1.2683 C   0  0  0  0  0  0  0  0  0  0  0  0
   -1.9612   -2.7001    2.0955 N   0  0  0  0  0  0  0  0  0  0  0  0
   -3.2460   -2.4369    2.1541 N   0  0  0  0  0  0  0  0  0  0  0  0
   -3.4643   -1.3712    1.3621 C   0  0  0  0  0  0  0  0  0  0  0  0
   -4.6176   -0.6725    1.0544 C   0  0  0  0  0  0  0  0  0  0  0  0
    0.0966   -1.8034    0.9688 C   0  0  0  0  0  0  0  0  0  0  0  0
    0.7618   -0.9587    0.1646 N   0  0  0  0  0  0  0  0  0  0  0  0
    2.0640   -1.2573    0.1318 C   0  0  0  0  0  0  0  0  0  0  0  0
    3.2537   -0.7071   -0.5459 C   0  0  0  0  0  0  0  0  0  0  0  0
    4.4691   -0.7889    0.1879 N   0  0  0  0  0  0  0  0  0  0  0  0
    5.1416    0.4774    0.3779 C   0  0  0  0  0  0  0  0  0  0  0  0
    5.6413    0.9253   -0.9805 C   0  0  2  0  0  0  0  0  0  0  0  0
    6.5963   -0.1831   -1.4484 C   0  0  0  0  0  0  0  0  0  0  0  0
    7.7858    0.1109   -0.5387 C   0  0  0  0  0  0  0  0  0  0  0  0
    7.6388    1.5560   -0.1147 C   0  0  0  0  0  0  0  0  0  0  0  0
    6.5489    2.0361   -0.8990 N   0  0  0  0  0  0  0  0  0  0  0  0
    5.9497    3.2480   -0.4015 C   0  0  0  0  0  0  0  0  0  0  0  0
    4.4808   -1.6221    1.3393 C   0  0  0  0  0  0  0  0  0  0  0  0
    3.6347   -2.8493    1.0676 C   0  0  0  0  0  0  0  0  0  0  0  0
    2.2354   -2.3654    0.9718 C   0  0  0  0  0  0  0  0  0  0  0  0
    1.0313   -2.6556    1.4493 N   0  0  0  0  0  0  0  0  0  0  0  0
   -7.3909   -1.5468   -0.1205 H   0  0  0  0  0  0  0  0  0  0  0  0
   -7.7092   -2.3310   -1.7265 H   0  0  0  0  0  0  0  0  0  0  0  0
   -6.0963   -2.4953   -1.0212 H   0  0  0  0  0  0  0  0  0  0  0  0
   -5.5317   -0.6486   -2.2262 H   0  0  0  0  0  0  0  0  0  0  0  0
   -7.1906   -0.3988   -2.7594 H   0  0  0  0  0  0  0  0  0  0  0  0
   -8.5644    1.2018   -1.9526 H   0  0  0  0  0  0  0  0  0  0  0  0
   -9.8493    3.1342   -1.4330 H   0  0  0  0  0  0  0  0  0  0  0  0
   -5.2502    2.6326    1.3641 H   0  0  0  0  0  0  0  0  0  0  0  0
   -3.3405    1.6539   -1.0334 H   0  0  0  0  0  0  0  0  0  0  0  0
   -1.2846    0.4427   -0.5101 H   0  0  0  0  0  0  0  0  0  0  0  0
   -3.9663   -2.9584    2.7116 H   0  0  0  0  0  0  0  0  0  0  0  0
   -5.5374   -1.0258    1.5332 H   0  0  0  0  0  0  0  0  0  0  0  0
    2.9988    0.3170   -0.8757 H   0  0  0  0  0  0  0  0  0  0  0  0
    3.3887   -1.3204   -1.4825 H   0  0  0  0  0  0  0  0  0  0  0  0
    4.5077    1.2401    0.8694 H   0  0  0  0  0  0  0  0  0  0  0  0
    5.9927    0.2920    1.0636 H   0  0  0  0  0  0  0  0  0  0  0  0
    4.8244    1.0936   -1.6826 H   0  0  0  0  0  0  0  0  0  0  0  0
    6.1198   -1.1483   -1.2159 H   0  0  0  0  0  0  0  0  0  0  0  0
    6.8276   -0.0137   -2.5004 H   0  0  0  0  0  0  0  0  0  0  0  0
    8.7259   -0.0405   -1.0877 H   0  0  0  0  0  0  0  0  0  0  0  0
    7.7355   -0.5187    0.3857 H   0  0  0  0  0  0  0  0  0  0  0  0
    7.4984    1.6626    0.9887 H   0  0  0  0  0  0  0  0  0  0  0  0
    8.5484    2.1402   -0.4341 H   0  0  0  0  0  0  0  0  0  0  0  0
    4.8538    3.2251   -0.3868 H   0  0  0  0  0  0  0  0  0  0  0  0
    6.3974    3.4912    0.5888 H   0  0  0  0  0  0  0  0  0  0  0  0
    6.2646    4.0668   -1.0820 H   0  0  0  0  0  0  0  0  0  0  0  0
    5.5200   -1.9916    1.4871 H   0  0  0  0  0  0  0  0  0  0  0  0
    4.1144   -1.1340    2.2744 H   0  0  0  0  0  0  0  0  0  0  0  0
    3.9116   -3.2604    0.0739 H   0  0  0  0  0  0  0  0  0  0  0  0
    3.7609   -3.6189    1.8568 H   0  0  0  0  0  0  0  0  0  0  0  0
    0.8465   -3.4390    2.1062 H   0  0  0  0  0  0  0  0  0  0  0  0
  1  2  1  0
  2  3  1  0
  3  4  2  0
  4  5  1  0
  5  6  1  0
  5  7  2  0
  7  8  1  0
  7  9  1  0
  9 10  2  0
 10 11  1  0
 11 12  2  0
 12 13  1  0
 13 14  2  0
 14 15  1  0
 15 16  2  0
 16 17  1  0
 17 18  1  0
 18 19  2  0
 15 20  1  0
 20 21  2  0
 21 22  1  0
 22 23  1  0
 23 24  1  0
 24 25  1  0
 25 26  1  0
 26 27  1  0
 27 28  1  0
 28 29  1  0
 29 30  1  0
 30 31  1  0
 24 32  1  0
 32 33  1  0
 33 34  1  0
 34 35  1  0
 10  3  1  0
 19 11  1  0
 35 20  1  0
 18 14  1  0
 34 22  2  0
 30 26  1  0
  1 36  1  0
  1 37  1  0
  1 38  1  0
  2 39  1  0
  2 40  1  0
  4 41  1  0
  6 42  1  0
  9 43  1  0
 12 44  1  0
 13 45  1  0
 17 46  1  0
 19 47  1  0
 23 48  1  0
 23 49  1  0
 25 50  1  0
 25 51  1  0
 26 52  1  6
 27 53  1  0
 27 54  1  0
 28 55  1  0
 28 56  1  0
 29 57  1  0
 29 58  1  0
 31 59  1  0
 31 60  1  0
 31 61  1  0
 32 62  1  0
 32 63  1  0
 33 64  1  0
 33 65  1  0
 35 66  1  0
M  END
$$$$
[H]OC(=O)C([H])([H])N([H])C(=O)c1c([H])c([H])c(C([H])([H])[C@]2([H])N(c3c([H])c([H])c(SC([H])([H])[H])c([H])c3[H])C([H])([H])[C@]([H])(C([H])([H])C([H])(C([H])([H])[H])C([H])([H])[H])OC2([H])[H])c([H])c1[H]
     RDKit          3D

 64 66  0  0  0  0  0  0  0  0999 V2000
   -5.2451    6.2440   -1.8048 C   0  0  0  0  0  0  0  0  0  0  0  0
   -4.0508    6.2058   -0.4648 S   0  0  0  0  0  0  0  0  0  0  0  0
   -3.4403    4.5734   -0.1580 C   0  0  0  0  0  0  0  0  0  0  0  0
   -3.8264    3.4530   -0.8593 C   0  0  0  0  0  0  0  0  0  0  0  0
   -3.3107    2.2129   -0.5662 C   0  0  0  0  0  0  0  0  0  0  0  0
   -2.3676    2.0229    0.4583 C   0  0  0  0  0  0  0  0  0  0  0  0
   -1.9800    3.1374    1.1603 C   0  0  0  0  0  0  0  0  0  0  0  0
   -2.5160    4.3739    0.8432 C   0  0  0  0  0  0  0  0  0  0  0  0
   -1.8898    0.7057    0.7315 N   0  0  0  0  0  0  0  0  0  0  0  0
   -2.8262   -0.2938    1.2950 C   0  0  0  0  0  0  0  0  0  0  0  0
   -2.6438   -1.5297    0.4321 C   0  0  2  0  0  0  0  0  0  0  0  0
   -3.6161   -2.6047    0.7739 C   0  0  0  0  0  0  0  0  0  0  0  0
   -3.4222   -3.8182   -0.1004 C   0  0  0  0  0  0  0  0  0  0  0  0
   -4.4618   -4.8773    0.2934 C   0  0  0  0  0  0  0  0  0  0  0  0
   -2.0387   -4.4253    0.0133 C   0  0  0  0  0  0  0  0  0  0  0  0
   -1.3514   -1.9999    0.4822 O   0  0  0  0  0  0  0  0  0  0  0  0
   -0.4646   -1.1623    1.1472 C   0  0  0  0  0  0  0  0  0  0  0  0
   -0.5640    0.2116    0.4802 C   0  0  2  0  0  0  0  0  0  0  0  0
    0.4560    1.1586    1.0038 C   0  0  0  0  0  0  0  0  0  0  0  0
    1.8677    0.6846    0.7766 C   0  0  0  0  0  0  0  0  0  0  0  0
    2.5549    0.9756   -0.3784 C   0  0  0  0  0  0  0  0  0  0  0  0
    3.8709    0.5363   -0.5699 C   0  0  0  0  0  0  0  0  0  0  0  0
    4.5330   -0.1987    0.3757 C   0  0  0  0  0  0  0  0  0  0  0  0
    3.8267   -0.4916    1.5503 C   0  0  0  0  0  0  0  0  0  0  0  0
    2.5320   -0.0549    1.7297 C   0  0  0  0  0  0  0  0  0  0  0  0
    5.9080   -0.6898    0.2316 C   0  0  0  0  0  0  0  0  0  0  0  0
    6.4823   -1.2556    1.2281 O   0  0  0  0  0  0  0  0  0  0  0  0
    6.5932   -0.5442   -0.9856 N   0  0  0  0  0  0  0  0  0  0  0  0
    7.9470   -1.0366   -1.1006 C   0  0  0  0  0  0  0  0  0  0  0  0
    8.4766   -0.7840   -2.4551 C   0  0  0  0  0  0  0  0  0  0  0  0
    9.7708   -1.1913   -2.7525 O   0  0  0  0  0  0  0  0  0  0  0  0
    7.8213   -0.2230   -3.3475 O   0  0  0  0  0  0  0  0  0  0  0  0
   -6.1701    5.6980   -1.4955 H   0  0  0  0  0  0  0  0  0  0  0  0
   -4.8507    5.9042   -2.7705 H   0  0  0  0  0  0  0  0  0  0  0  0
   -5.5697    7.3111   -1.9310 H   0  0  0  0  0  0  0  0  0  0  0  0
   -4.5626    3.5874   -1.6622 H   0  0  0  0  0  0  0  0  0  0  0  0
   -3.6215    1.3370   -1.1246 H   0  0  0  0  0  0  0  0  0  0  0  0
   -1.2517    3.0331    1.9723 H   0  0  0  0  0  0  0  0  0  0  0  0
   -2.1621    5.2273    1.4453 H   0  0  0  0  0  0  0  0  0  0  0  0
   -2.6051   -0.4641    2.3613 H   0  0  0  0  0  0  0  0  0  0  0  0
   -3.8402    0.0685    1.1320 H   0  0  0  0  0  0  0  0  0  0  0  0
   -2.8782   -1.1908   -0.6167 H   0  0  0  0  0  0  0  0  0  0  0  0
   -4.6719   -2.2639    0.7687 H   0  0  0  0  0  0  0  0  0  0  0  0
   -3.4372   -2.9331    1.8383 H   0  0  0  0  0  0  0  0  0  0  0  0
   -3.5862   -3.5951   -1.1707 H   0  0  0  0  0  0  0  0  0  0  0  0
   -4.9307   -4.5822    1.2513 H   0  0  0  0  0  0  0  0  0  0  0  0
   -5.2888   -4.9016   -0.4600 H   0  0  0  0  0  0  0  0  0  0  0  0
   -4.0309   -5.8814    0.3275 H   0  0  0  0  0  0  0  0  0  0  0  0
   -1.6002   -4.3549    1.0181 H   0  0  0  0  0  0  0  0  0  0  0  0
   -1.4114   -4.0583   -0.7996 H   0  0  0  0  0  0  0  0  0  0  0  0
   -2.1961   -5.5232   -0.2230 H   0  0  0  0  0  0  0  0  0  0  0  0
   -0.6991   -1.1389    2.2111 H   0  0  0  0  0  0  0  0  0  0  0  0
    0.5513   -1.6169    0.9537 H   0  0  0  0  0  0  0  0  0  0  0  0
   -0.4194   -0.0119   -0.6115 H   0  0  0  0  0  0  0  0  0  0  0  0
    0.3185    1.2738    2.0892 H   0  0  0  0  0  0  0  0  0  0  0  0
    0.3122    2.1232    0.4309 H   0  0  0  0  0  0  0  0  0  0  0  0
    2.0584    1.5594   -1.1537 H   0  0  0  0  0  0  0  0  0  0  0  0
    4.3816    0.7877   -1.4953 H   0  0  0  0  0  0  0  0  0  0  0  0
    4.3472   -1.0747    2.3044 H   0  0  0  0  0  0  0  0  0  0  0  0
    1.9796   -0.2815    2.6432 H   0  0  0  0  0  0  0  0  0  0  0  0
    6.1352   -0.0913   -1.7914 H   0  0  0  0  0  0  0  0  0  0  0  0
    8.5503   -0.5364   -0.3078 H   0  0  0  0  0  0  0  0  0  0  0  0
    7.9464   -2.1300   -0.9135 H   0  0  0  0  0  0  0  0  0  0  0  0
   10.5781   -0.5950   -2.6939 H   0  0  0  0  0  0  0  0  0  0  0  0
  1  2  1  0
  2  3  1  0
  3  4  2  0
  4  5  1  0
  5  6  2  0
  6  7  1  0
  7  8  2  0
  6  9  1  0
  9 10  1  0
 10 11  1  0
 11 12  1  0
 12 13  1  0
 13 14  1  0
 13 15  1  0
 11 16  1  0
 16 17  1  0
 17 18  1  0
 18 19  1  0
 19 20  1  0
 20 21  2  0
 21 22  1  0
 22 23  2  0
 23 24  1  0
 24 25  2  0
 23 26  1  0
 26 27  2  0
 26 28  1  0
 28 29  1  0
 29 30  1  0
 30 31  1  0
 30 32  2  0
  8  3  1  0
 18  9  1  0
 25 20  1  0
  1 33  1  0
  1 34  1  0
  1 35  1  0
  4 36  1  0
  5 37  1  0
  7 38  1  0
  8 39  1  0
 10 40  1  0
 10 41  1  0
 11 42  1  6
 12 43  1  0
 12 44  1  0
 13 45  1  0
 14 46  1  0
 14 47  1  0
 14 48  1  0
 15 49  1  0
 15 50  1  0
 15 51  1  0
 17 52  1  0
 17 53  1  0
 18 54  1  6
 19 55  1  0
 19 56  1  0
 21 57  1  0
 22 58  1  0
 24 59  1  0
 25 60  1  0
 28 61  1  0
 29 62  1  0
 29 63  1  0
 31 64  1  0
M  END
$$$$
[H]c1c(S(=O)(=O)N([H])[H])c([H])c2sc(N3C([H])([H])C([H])([H])C([H])(N4C([H])([H])C([H])([H])N(C([H])([H])[H])C([H])([H])C4([H])[H])C([H])([H])C3([H])[H])nc2c1[H]
     RDKit          3D

 51 54  0  0  0  0  0  0  0  0999 V2000
   -6.4253    0.8283   -0.9509 C   0  0  0  0  0  0  0  0  0  0  0  0
   -6.3254   -0.3545   -0.1106 N   0  0  0  0  0  0  0  0  0  0  0  0
   -5.8010   -1.4987   -0.8063 C   0  0  0  0  0  0  0  0  0  0  0  0
   -4.3418   -1.7786   -0.4831 C   0  0  0  0  0  0  0  0  0  0  0  0
   -3.6240   -0.5506   -0.5724 N   0  0  0  0  0  0  0  0  0  0  0  0
   -4.1016    0.3787    0.4002 C   0  0  0  0  0  0  0  0  0  0  0  0
   -5.4536   -0.0426    0.9934 C   0  0  0  0  0  0  0  0  0  0  0  0
   -2.2053   -0.6512   -0.6983 C   0  0  0  0  0  0  0  0  0  0  0  0
   -1.6051   -1.3050    0.5130 C   0  0  0  0  0  0  0  0  0  0  0  0
   -0.1208   -1.2803    0.5358 C   0  0  0  0  0  0  0  0  0  0  0  0
    0.4617   -0.0625    0.0806 N   0  0  0  0  0  0  0  0  0  0  0  0
   -0.3099    1.0090   -0.4418 C   0  0  0  0  0  0  0  0  0  0  0  0
   -1.6444    0.6913   -1.0000 C   0  0  0  0  0  0  0  0  0  0  0  0
    1.8784    0.0718    0.1712 C   0  0  0  0  0  0  0  0  0  0  0  0
    2.6562    1.0775   -0.1779 N   0  0  0  0  0  0  0  0  0  0  0  0
    3.9412    1.0117   -0.0072 C   0  0  0  0  0  0  0  0  0  0  0  0
    4.8691    2.0214   -0.3393 C   0  0  0  0  0  0  0  0  0  0  0  0
    6.1871    1.8298   -0.1087 C   0  0  0  0  0  0  0  0  0  0  0  0
    6.7425    0.6938    0.4442 C   0  0  0  0  0  0  0  0  0  0  0  0
    5.8254   -0.3119    0.7757 C   0  0  0  0  0  0  0  0  0  0  0  0
    4.4540   -0.1293    0.5431 C   0  0  0  0  0  0  0  0  0  0  0  0
    3.0383   -1.0566    0.7871 S   0  0  0  0  0  0  0  0  0  0  0  0
    8.4268    0.4652    0.7337 S   0  0  0  0  0  0  0  0  0  0  0  0
    9.1330   -0.2796   -0.6646 N   0  0  0  0  0  0  0  0  0  0  0  0
    8.7273   -0.2924    1.9858 O   0  0  0  0  0  0  0  0  0  0  0  0
    9.0627    1.8368    0.8658 O   0  0  0  0  0  0  0  0  0  0  0  0
   -5.7005    0.7288   -1.7756 H   0  0  0  0  0  0  0  0  0  0  0  0
   -6.2899    1.7660   -0.3717 H   0  0  0  0  0  0  0  0  0  0  0  0
   -7.4767    0.8725   -1.3353 H   0  0  0  0  0  0  0  0  0  0  0  0
   -6.4434   -2.3687   -0.5216 H   0  0  0  0  0  0  0  0  0  0  0  0
   -5.9708   -1.3452   -1.8893 H   0  0  0  0  0  0  0  0  0  0  0  0
   -4.2683   -2.2493    0.4997 H   0  0  0  0  0  0  0  0  0  0  0  0
   -3.9791   -2.5146   -1.2299 H   0  0  0  0  0  0  0  0  0  0  0  0
   -3.4053    0.5469    1.2447 H   0  0  0  0  0  0  0  0  0  0  0  0
   -4.3109    1.3887   -0.0645 H   0  0  0  0  0  0  0  0  0  0  0  0
   -5.8938    0.8267    1.5245 H   0  0  0  0  0  0  0  0  0  0  0  0
   -5.3512   -0.8553    1.7124 H   0  0  0  0  0  0  0  0  0  0  0  0
   -2.0074   -1.3614   -1.5523 H   0  0  0  0  0  0  0  0  0  0  0  0
   -2.0511   -0.9480    1.4629 H   0  0  0  0  0  0  0  0  0  0  0  0
   -1.9124   -2.3929    0.4604 H   0  0  0  0  0  0  0  0  0  0  0  0
    0.1874   -1.3840    1.6211 H   0  0  0  0  0  0  0  0  0  0  0  0
    0.3302   -2.1852    0.0539 H   0  0  0  0  0  0  0  0  0  0  0  0
    0.3313    1.5711   -1.1744 H   0  0  0  0  0  0  0  0  0  0  0  0
   -0.4393    1.7430    0.4169 H   0  0  0  0  0  0  0  0  0  0  0  0
   -2.3371    1.5273   -0.7524 H   0  0  0  0  0  0  0  0  0  0  0  0
   -1.5479    0.7601   -2.1273 H   0  0  0  0  0  0  0  0  0  0  0  0
    4.5578    2.9623   -0.7810 H   0  0  0  0  0  0  0  0  0  0  0  0
    6.9212    2.6104   -0.3649 H   0  0  0  0  0  0  0  0  0  0  0  0
    6.1115   -1.2376    1.2069 H   0  0  0  0  0  0  0  0  0  0  0  0
    8.9373    0.3663   -1.4639 H   0  0  0  0  0  0  0  0  0  0  0  0
    8.5628   -1.1492   -0.8542 H   0  0  0  0  0  0  0  0  0  0  0  0
  1  2  1  0
  2  3  1  0
  3  4  1  0
  4  5  1  0
  5  6  1  0
  6  7  1  0
  5  8  1  0
  8  9  1  0
  9 10  1  0
 10 11  1  0
 11 12  1  0
 12 13  1  0
 11 14  1  0
 14 15  2  0
 15 16  1  0
 16 17  2  0
 17 18  1  0
 18 19  2  0
 19 20  1  0
 20 21  2  0
 21 22  1  0
 19 23  1  0
 23 24  1  0
 23 25  2  0
 23 26  2  0
  7  2  1  0
 13  8  1  0
 22 14  1  0
 21 16  1  0
  1 27  1  0
  1 28  1  0
  1 29  1  0
  3 30  1  0
  3 31  1  0
  4 32  1  0
  4 33  1  0
  6 34  1  0
  6 35  1  0
  7 36  1  0
  7 37  1  0
  8 38  1  0
  9 39  1  0
  9 40  1  0
 10 41  1  0
 10 42  1  0
 12 43  1  0
 12 44  1  0
 13 45  1  0
 13 46  1  0
 17 47  1  0
 18 48  1  0
 20 49  1  0
 24 50  1  0
 24 51  1  0
M  END
$$$$
[H]OC(=O)C([H])([H])[C@@]([H])(C(=O)N([H])c1c([H])c([H])c([H])c2c([H])c([H])c([H])c([H])c12)N([H])C(=O)C([H])([H])C1([H])C([H])([H])C1([H])[H]
     RDKit          3D

 45 47  0  0  0  0  0  0  0  0999 V2000
   -2.0770    2.3843    1.9198 O   0  0  0  0  0  0  0  0  0  0  0  0
   -1.6236    1.1838    2.4443 C   0  0  0  0  0  0  0  0  0  0  0  0
   -1.8839    0.8533    3.6056 O   0  0  0  0  0  0  0  0  0  0  0  0
   -0.7992    0.3109    1.5266 C   0  0  0  0  0  0  0  0  0  0  0  0
   -0.8516    0.8556    0.1276 C   0  0  2  0  0  0  0  0  0  0  0  0
   -2.0855    0.9067   -0.5241 N   0  0  0  0  0  0  0  0  0  0  0  0
   -3.2813    0.2529   -0.1839 C   0  0  0  0  0  0  0  0  0  0  0  0
   -3.3312   -0.5053    0.8042 O   0  0  0  0  0  0  0  0  0  0  0  0
   -4.5032    0.4606   -1.0056 C   0  0  0  0  0  0  0  0  0  0  0  0
   -5.6216   -0.4624   -0.7916 C   0  0  0  0  0  0  0  0  0  0  0  0
   -6.2225   -0.5508    0.6484 C   0  0  0  0  0  0  0  0  0  0  0  0
   -5.5705   -1.7177   -0.0596 C   0  0  0  0  0  0  0  0  0  0  0  0
    0.2717    0.2829   -0.6644 C   0  0  0  0  0  0  0  0  0  0  0  0
   -0.0839   -0.1495   -1.7867 O   0  0  0  0  0  0  0  0  0  0  0  0
    1.5929    0.2363   -0.1964 N   0  0  0  0  0  0  0  0  0  0  0  0
    2.7003   -0.2830   -0.8676 C   0  0  0  0  0  0  0  0  0  0  0  0
    2.6975   -0.7452   -2.1577 C   0  0  0  0  0  0  0  0  0  0  0  0
    3.8483   -1.2410   -2.8000 C   0  0  0  0  0  0  0  0  0  0  0  0
    5.0327   -1.2725   -2.1280 C   0  0  0  0  0  0  0  0  0  0  0  0
    5.0807   -0.8203   -0.8363 C   0  0  0  0  0  0  0  0  0  0  0  0
    6.2889   -0.8676   -0.1814 C   0  0  0  0  0  0  0  0  0  0  0  0
    6.4340   -0.4419    1.1133 C   0  0  0  0  0  0  0  0  0  0  0  0
    5.3158    0.0402    1.7417 C   0  0  0  0  0  0  0  0  0  0  0  0
    4.0765    0.0917    1.0777 C   0  0  0  0  0  0  0  0  0  0  0  0
    3.9402   -0.3362   -0.2182 C   0  0  0  0  0  0  0  0  0  0  0  0
   -2.7892    2.9592    2.3081 H   0  0  0  0  0  0  0  0  0  0  0  0
   -1.1075   -0.7332    1.5726 H   0  0  0  0  0  0  0  0  0  0  0  0
    0.2618    0.3588    1.9125 H   0  0  0  0  0  0  0  0  0  0  0  0
   -0.5460    1.9680    0.3115 H   0  0  0  0  0  0  0  0  0  0  0  0
   -2.1464    1.5291   -1.4068 H   0  0  0  0  0  0  0  0  0  0  0  0
   -4.8787    1.5079   -0.7819 H   0  0  0  0  0  0  0  0  0  0  0  0
   -4.2252    0.5462   -2.0971 H   0  0  0  0  0  0  0  0  0  0  0  0
   -6.4627   -0.3995   -1.5789 H   0  0  0  0  0  0  0  0  0  0  0  0
   -7.3229   -0.4887    0.7174 H   0  0  0  0  0  0  0  0  0  0  0  0
   -5.6507    0.0004    1.4177 H   0  0  0  0  0  0  0  0  0  0  0  0
   -4.6876   -2.1829    0.3742 H   0  0  0  0  0  0  0  0  0  0  0  0
   -6.3639   -2.5160   -0.3150 H   0  0  0  0  0  0  0  0  0  0  0  0
    1.7744    0.6584    0.7629 H   0  0  0  0  0  0  0  0  0  0  0  0
    1.8024   -0.7422   -2.7364 H   0  0  0  0  0  0  0  0  0  0  0  0
    3.8236   -1.6000   -3.8157 H   0  0  0  0  0  0  0  0  0  0  0  0
    5.9257   -1.6598   -2.6309 H   0  0  0  0  0  0  0  0  0  0  0  0
    7.1875   -1.2497   -0.6727 H   0  0  0  0  0  0  0  0  0  0  0  0
    7.4024   -0.4830    1.6316 H   0  0  0  0  0  0  0  0  0  0  0  0
    5.3955    0.3799    2.7526 H   0  0  0  0  0  0  0  0  0  0  0  0
    3.2630    0.4835    1.6664 H   0  0  0  0  0  0  0  0  0  0  0  0
  1  2  1  0
  2  3  2  0
  2  4  1  0
  4  5  1  0
  5  6  1  0
  6  7  1  0
  7  8  2  0
  7  9  1  0
  9 10  1  0
 10 11  1  0
 11 12  1  0
  5 13  1  0
 13 14  2  0
 13 15  1  0
 15 16  1  0
 16 17  2  0
 17 18  1  0
 18 19  2  0
 19 20  1  0
 20 21  2  0
 21 22  1  0
 22 23  2  0
 23 24  1  0
 24 25  2  0
 12 10  1  0
 25 16  1  0
 25 20  1  0
  1 26  1  0
  4 27  1  0
  4 28  1  0
  5 29  1  1
  6 30  1  0
  9 31  1  0
  9 32  1  0
 10 33  1  0
 11 34  1  0
 11 35  1  0
 12 36  1  0
 12 37  1  0
 15 38  1  0
 17 39  1  0
 18 40  1  0
 19 41  1  0
 21 42  1  0
 22 43  1  0
 23 44  1  0
 24 45  1  0
M  END
$$$$
[H]OC([H])([H])[C@@]([H])(C(=O)N([H])[C@@]([H])(C([H])([H])O[H])[C@]([H])(O[H])C([H])([H])[H])N([H])C(=O)C(C([H])([H])[H])(C([H])([H])[H])[C@]([H])(N([H])C(=O)C([H])([H])c1c([H])n([H])c2c([H])c([H])c([H])c([H])c12)C([H])([H])C([H])(C([H])([H])[H])C([H])([H])[H]
     RDKit          3D

 76 77  0  0  0  0  0  0  0  0999 V2000
    4.6125    4.7518    1.1608 C   0  0  0  0  0  0  0  0  0  0  0  0
    4.6564    3.2716    0.9685 C   0  0  1  0  0  0  0  0  0  0  0  0
    5.8062    2.7015    1.4899 O   0  0  0  0  0  0  0  0  0  0  0  0
    3.4052    2.5682    1.4376 C   0  0  2  0  0  0  0  0  0  0  0  0
    3.3400    2.6205    2.9396 C   0  0  0  0  0  0  0  0  0  0  0  0
    3.2386    3.9654    3.3123 O   0  0  0  0  0  0  0  0  0  0  0  0
    3.5089    1.1818    0.9882 N   0  0  0  0  0  0  0  0  0  0  0  0
    2.5959    0.6157    0.0711 C   0  0  0  0  0  0  0  0  0  0  0  0
    1.6741    1.3873   -0.3323 O   0  0  0  0  0  0  0  0  0  0  0  0
    2.7411   -0.7739   -0.3539 C   0  0  2  0  0  0  0  0  0  0  0  0
    3.9697   -0.8105   -1.2990 C   0  0  0  0  0  0  0  0  0  0  0  0
    5.0583   -0.3650   -0.6259 O   0  0  0  0  0  0  0  0  0  0  0  0
    1.6158   -1.2724   -1.1389 N   0  0  0  0  0  0  0  0  0  0  0  0
    0.9763   -2.4914   -0.8724 C   0  0  0  0  0  0  0  0  0  0  0  0
    1.4186   -3.1510    0.1008 O   0  0  0  0  0  0  0  0  0  0  0  0
   -0.1889   -3.0391   -1.6790 C   0  0  0  0  0  0  0  0  0  0  0  0
   -0.3317   -4.4388   -1.2169 C   0  0  0  0  0  0  0  0  0  0  0  0
    0.3262   -3.0315   -3.1005 C   0  0  0  0  0  0  0  0  0  0  0  0
   -1.3757   -2.1375   -1.5285 C   0  0  1  0  0  0  0  0  0  0  0  0
   -2.6281   -2.3839   -2.2103 C   0  0  0  0  0  0  0  0  0  0  0  0
   -3.5401   -3.4849   -2.1413 C   0  0  0  0  0  0  0  0  0  0  0  0
   -4.1609   -3.8495   -0.8187 C   0  0  0  0  0  0  0  0  0  0  0  0
   -3.2809   -4.7482   -2.9080 C   0  0  0  0  0  0  0  0  0  0  0  0
   -1.5441   -1.7107   -0.1358 N   0  0  0  0  0  0  0  0  0  0  0  0
   -1.6283   -0.3679    0.2816 C   0  0  0  0  0  0  0  0  0  0  0  0
   -1.5662    0.5898   -0.5450 O   0  0  0  0  0  0  0  0  0  0  0  0
   -1.7963    0.0116    1.7120 C   0  0  0  0  0  0  0  0  0  0  0  0
   -1.8824    1.4499    1.9124 C   0  0  0  0  0  0  0  0  0  0  0  0
   -0.8896    2.2633    2.4058 C   0  0  0  0  0  0  0  0  0  0  0  0
   -1.3380    3.5442    2.4468 N   0  0  0  0  0  0  0  0  0  0  0  0
   -2.5937    3.5569    1.9891 C   0  0  0  0  0  0  0  0  0  0  0  0
   -3.4654    4.6151    1.8375 C   0  0  0  0  0  0  0  0  0  0  0  0
   -4.7465    4.4190    1.3354 C   0  0  0  0  0  0  0  0  0  0  0  0
   -5.1082    3.1359    0.9981 C   0  0  0  0  0  0  0  0  0  0  0  0
   -4.2300    2.0887    1.1539 C   0  0  0  0  0  0  0  0  0  0  0  0
   -2.9637    2.2600    1.6464 C   0  0  0  0  0  0  0  0  0  0  0  0
    5.0658    5.0989    2.1105 H   0  0  0  0  0  0  0  0  0  0  0  0
    3.5488    5.0730    1.1378 H   0  0  0  0  0  0  0  0  0  0  0  0
    5.1848    5.2293    0.3309 H   0  0  0  0  0  0  0  0  0  0  0  0
    4.7027    3.0840   -0.1438 H   0  0  0  0  0  0  0  0  0  0  0  0
    6.5012    2.5489    0.7949 H   0  0  0  0  0  0  0  0  0  0  0  0
    2.5359    3.0168    0.9500 H   0  0  0  0  0  0  0  0  0  0  0  0
    4.2377    2.1472    3.3854 H   0  0  0  0  0  0  0  0  0  0  0  0
    2.4403    2.0481    3.2905 H   0  0  0  0  0  0  0  0  0  0  0  0
    2.2677    4.1955    3.1895 H   0  0  0  0  0  0  0  0  0  0  0  0
    4.2749    0.5866    1.3709 H   0  0  0  0  0  0  0  0  0  0  0  0
    2.9435   -1.4170    0.5154 H   0  0  0  0  0  0  0  0  0  0  0  0
    4.1078   -1.9124   -1.4988 H   0  0  0  0  0  0  0  0  0  0  0  0
    3.7375   -0.2979   -2.2404 H   0  0  0  0  0  0  0  0  0  0  0  0
    5.8791   -0.7035   -1.0668 H   0  0  0  0  0  0  0  0  0  0  0  0
    1.2943   -0.6801   -1.9219 H   0  0  0  0  0  0  0  0  0  0  0  0
   -0.3598   -5.1016   -2.1343 H   0  0  0  0  0  0  0  0  0  0  0  0
   -1.1791   -4.7025   -0.6052 H   0  0  0  0  0  0  0  0  0  0  0  0
    0.6423   -4.7835   -0.7323 H   0  0  0  0  0  0  0  0  0  0  0  0
    1.3760   -3.4273   -3.0615 H   0  0  0  0  0  0  0  0  0  0  0  0
   -0.2169   -3.6775   -3.7922 H   0  0  0  0  0  0  0  0  0  0  0  0
    0.4240   -1.9841   -3.5037 H   0  0  0  0  0  0  0  0  0  0  0  0
   -0.9780   -1.1593   -1.9938 H   0  0  0  0  0  0  0  0  0  0  0  0
   -2.4015   -2.2467   -3.3369 H   0  0  0  0  0  0  0  0  0  0  0  0
   -3.2575   -1.4194   -2.0716 H   0  0  0  0  0  0  0  0  0  0  0  0
   -4.5168   -3.1259   -2.7021 H   0  0  0  0  0  0  0  0  0  0  0  0
   -4.9696   -4.5778   -1.0497 H   0  0  0  0  0  0  0  0  0  0  0  0
   -4.7006   -2.9707   -0.3609 H   0  0  0  0  0  0  0  0  0  0  0  0
   -3.4919   -4.3394   -0.1142 H   0  0  0  0  0  0  0  0  0  0  0  0
   -2.3906   -4.6449   -3.5671 H   0  0  0  0  0  0  0  0  0  0  0  0
   -3.0388   -5.6072   -2.2137 H   0  0  0  0  0  0  0  0  0  0  0  0
   -4.1563   -5.1196   -3.4892 H   0  0  0  0  0  0  0  0  0  0  0  0
   -1.6030   -2.4531    0.5722 H   0  0  0  0  0  0  0  0  0  0  0  0
   -2.7232   -0.5290    2.0563 H   0  0  0  0  0  0  0  0  0  0  0  0
   -0.9472   -0.4510    2.2819 H   0  0  0  0  0  0  0  0  0  0  0  0
    0.1116    2.0062    2.7312 H   0  0  0  0  0  0  0  0  0  0  0  0
   -0.7962    4.3791    2.7785 H   0  0  0  0  0  0  0  0  0  0  0  0
   -3.1947    5.6359    2.1004 H   0  0  0  0  0  0  0  0  0  0  0  0
   -5.4046    5.2756    1.2296 H   0  0  0  0  0  0  0  0  0  0  0  0
   -6.1206    2.9854    0.6029 H   0  0  0  0  0  0  0  0  0  0  0  0
   -4.5143    1.0786    0.8896 H   0  0  0  0  0  0  0  0  0  0  0  0
  1  2  1  0
  2  3  1  0
  2  4  1  0
  4  5  1  0
  5  6  1  0
  4  7  1  0
  7  8  1  0
  8  9  2  0
  8 10  1  0
 10 11  1  0
 11 12  1  0
 10 13  1  0
 13 14  1  0
 14 15  2  0
 14 16  1  0
 16 17  1  0
 16 18  1  0
 16 19  1  0
 19 20  1  0
 20 21  1  0
 21 22  1  0
 21 23  1  0
 19 24  1  0
 24 25  1  0
 25 26  2  0
 25 27  1  0
 27 28  1  0
 28 29  2  0
 29 30  1  0
 30 31  1  0
 31 32  2  0
 32 33  1  0
 33 34  2  0
 34 35  1  0
 35 36  2  0
 36 28  1  0
 36 31  1  0
  1 37  1  0
  1 38  1  0
  1 39  1  0
  2 40  1  6
  3 41  1  0
  4 42  1  6
  5 43  1  0
  5 44  1  0
  6 45  1  0
  7 46  1  0
 10 47  1  1
 11 48  1  0
 11 49  1  0
 12 50  1  0
 13 51  1  0
 17 52  1  0
 17 53  1  0
 17 54  1  0
 18 55  1  0
 18 56  1  0
 18 57  1  0
 19 58  1  6
 20 59  1  0
 20 60  1  0
 21 61  1  0
 22 62  1  0
 22 63  1  0
 22 64  1  0
 23 65  1  0
 23 66  1  0
 23 67  1  0
 24 68  1  0
 27 69  1  0
 27 70  1  0
 29 71  1  0
 30 72  1  0
 32 73  1  0
 33 74  1  0
 34 75  1  0
 35 76  1  0
M  END
$$$$
[H]c1nc(C(=O)N([H])c2c([H])c([H])c(C([H])([H])C([H])([H])C([H])([H])C([H])([H])C3(C([H])([H])c4c([H])c([H])c([H])c([H])c4[H])C(=O)N([H])C(=O)N3[H])c([H])c2[H])c([H])c(C(=O)C([H])([H])[H])c1[H]
     RDKit          3D

 64 67  0  0  0  0  0  0  0  0999 V2000
   10.2334    1.0917    0.2913 C   0  0  0  0  0  0  0  0  0  0  0  0
    8.8260    0.9828   -0.1513 C   0  0  0  0  0  0  0  0  0  0  0  0
    8.4444    1.6960   -1.1037 O   0  0  0  0  0  0  0  0  0  0  0  0
    7.9376    0.0704    0.5149 C   0  0  0  0  0  0  0  0  0  0  0  0
    8.3220   -0.7331    1.5694 C   0  0  0  0  0  0  0  0  0  0  0  0
    7.4608   -1.5963    2.1914 C   0  0  0  0  0  0  0  0  0  0  0  0
    6.2074   -1.6591    1.7592 N   0  0  0  0  0  0  0  0  0  0  0  0
    5.7655   -0.9107    0.7434 C   0  0  0  0  0  0  0  0  0  0  0  0
    6.6000   -0.0458    0.1088 C   0  0  0  0  0  0  0  0  0  0  0  0
    4.3602   -1.0483    0.3344 C   0  0  0  0  0  0  0  0  0  0  0  0
    3.6858   -1.8777    0.9941 O   0  0  0  0  0  0  0  0  0  0  0  0
    3.7988   -0.3153   -0.7126 N   0  0  0  0  0  0  0  0  0  0  0  0
    2.4766   -0.3887   -1.1480 C   0  0  0  0  0  0  0  0  0  0  0  0
    1.4130   -0.8900   -0.4468 C   0  0  0  0  0  0  0  0  0  0  0  0
    0.1055   -0.9516   -0.9696 C   0  0  0  0  0  0  0  0  0  0  0  0
   -0.1419   -0.4924   -2.2416 C   0  0  0  0  0  0  0  0  0  0  0  0
   -1.4854   -0.5427   -2.8006 C   0  0  0  0  0  0  0  0  0  0  0  0
   -2.3651    0.6240   -2.6279 C   0  0  0  0  0  0  0  0  0  0  0  0
   -2.7146    1.0300   -1.2426 C   0  0  0  0  0  0  0  0  0  0  0  0
   -3.4583    0.0018   -0.4477 C   0  0  0  0  0  0  0  0  0  0  0  0
   -3.7320    0.5719    0.9268 C   0  0  0  0  0  0  0  0  0  0  0  0
   -4.4749   -0.3769    1.8223 C   0  0  0  0  0  0  0  0  0  0  0  0
   -5.7821   -0.7358    1.2441 C   0  0  0  0  0  0  0  0  0  0  0  0
   -5.9690   -1.8364    0.4099 C   0  0  0  0  0  0  0  0  0  0  0  0
   -7.2131   -2.1222   -0.1005 C   0  0  0  0  0  0  0  0  0  0  0  0
   -8.2815   -1.3165    0.2141 C   0  0  0  0  0  0  0  0  0  0  0  0
   -8.1182   -0.2205    1.0393 C   0  0  0  0  0  0  0  0  0  0  0  0
   -6.8775    0.0756    1.5561 C   0  0  0  0  0  0  0  0  0  0  0  0
   -4.4191    1.8505    0.8433 N   0  0  0  0  0  0  0  0  0  0  0  0
   -3.5780    2.9039    1.2988 C   0  0  0  0  0  0  0  0  0  0  0  0
   -3.8061    4.1521    1.2897 O   0  0  0  0  0  0  0  0  0  0  0  0
   -2.3763    2.3460    1.7957 N   0  0  0  0  0  0  0  0  0  0  0  0
   -2.4846    0.9513    1.6433 C   0  0  0  0  0  0  0  0  0  0  0  0
   -1.6455    0.0919    2.0516 O   0  0  0  0  0  0  0  0  0  0  0  0
    0.9187    0.0228   -2.9772 C   0  0  0  0  0  0  0  0  0  0  0  0
    2.1810    0.0730   -2.4508 C   0  0  0  0  0  0  0  0  0  0  0  0
   10.3311    1.0644    1.4106 H   0  0  0  0  0  0  0  0  0  0  0  0
   10.6896    2.0488   -0.0567 H   0  0  0  0  0  0  0  0  0  0  0  0
   10.8198    0.2372   -0.1145 H   0  0  0  0  0  0  0  0  0  0  0  0
    9.3580   -0.6602    1.9031 H   0  0  0  0  0  0  0  0  0  0  0  0
    7.7896   -2.2091    3.0098 H   0  0  0  0  0  0  0  0  0  0  0  0
    6.3212    0.5900   -0.7152 H   0  0  0  0  0  0  0  0  0  0  0  0
    4.4407    0.3581   -1.2135 H   0  0  0  0  0  0  0  0  0  0  0  0
    1.5597   -1.2466    0.5620 H   0  0  0  0  0  0  0  0  0  0  0  0
   -0.6345   -1.3656   -0.3283 H   0  0  0  0  0  0  0  0  0  0  0  0
   -2.0342   -1.4392   -2.3867 H   0  0  0  0  0  0  0  0  0  0  0  0
   -1.3851   -0.7814   -3.8916 H   0  0  0  0  0  0  0  0  0  0  0  0
   -3.3481    0.3496   -3.1252 H   0  0  0  0  0  0  0  0  0  0  0  0
   -2.0477    1.5259   -3.2318 H   0  0  0  0  0  0  0  0  0  0  0  0
   -3.2877    1.9765   -1.1903 H   0  0  0  0  0  0  0  0  0  0  0  0
   -1.7502    1.2438   -0.6978 H   0  0  0  0  0  0  0  0  0  0  0  0
   -2.9733   -0.9627   -0.3291 H   0  0  0  0  0  0  0  0  0  0  0  0
   -4.4775   -0.0975   -0.9323 H   0  0  0  0  0  0  0  0  0  0  0  0
   -3.8325   -1.2832    1.9787 H   0  0  0  0  0  0  0  0  0  0  0  0
   -4.6382    0.0331    2.8353 H   0  0  0  0  0  0  0  0  0  0  0  0
   -5.0929   -2.4315    0.1988 H   0  0  0  0  0  0  0  0  0  0  0  0
   -7.3523   -2.9702   -0.7420 H   0  0  0  0  0  0  0  0  0  0  0  0
   -9.2656   -1.5170   -0.1712 H   0  0  0  0  0  0  0  0  0  0  0  0
   -8.9881    0.3771    1.2536 H   0  0  0  0  0  0  0  0  0  0  0  0
   -6.7635    0.9458    2.2074 H   0  0  0  0  0  0  0  0  0  0  0  0
   -5.3991    2.0448    0.5044 H   0  0  0  0  0  0  0  0  0  0  0  0
   -1.5592    2.8447    2.1990 H   0  0  0  0  0  0  0  0  0  0  0  0
    0.6817    0.3711   -3.9673 H   0  0  0  0  0  0  0  0  0  0  0  0
    3.0251    0.4777   -3.0260 H   0  0  0  0  0  0  0  0  0  0  0  0
  1  2  1  0
  2  3  2  0
  2  4  1  0
  4  5  2  0
  5  6  1  0
  6  7  2  0
  7  8  1  0
  8  9  2  0
  8 10  1  0
 10 11  2  0
 10 12  1  0
 12 13  1  0
 13 14  2  0
 14 15  1  0
 15 16  2  0
 16 17  1  0
 17 18  1  0
 18 19  1  0
 19 20  1  0
 20 21  1  0
 21 22  1  0
 22 23  1  0
 23 24  2  0
 24 25  1  0
 25 26  2  0
 26 27  1  0
 27 28  2  0
 21 29  1  0
 29 30  1  0
 30 31  2  0
 30 32  1  0
 32 33  1  0
 33 34  2  0
 16 35  1  0
 35 36  2  0
  9  4  1  0
 36 13  1  0
 33 21  1  0
 28 23  1  0
  1 37  1  0
  1 38  1  0
  1 39  1  0
  5 40  1  0
  6 41  1  0
  9 42  1  0
 12 43  1  0
 14 44  1  0
 15 45  1  0
 17 46  1  0
 17 47  1  0
 18 48  1  0
 18 49  1  0
 19 50  1  0
 19 51  1  0
 20 52  1  0
 20 53  1  0
 22 54  1  0
 22 55  1  0
 24 56  1  0
 25 57  1  0
 26 58  1  0
 27 59  1  0
 28 60  1  0
 29 61  1  0
 32 62  1  0
 35 63  1  0
 36 64  1  0
M  END
$$$$
[H]c1c([H])c([H])c(OC([H])([H])C(=O)N([H])C([H])(C([H])([H])c2c([H])n([H])c3c([H])c([H])c([H])c([H])c23)C([H])([H])N(C(=O)C([H])([H])[H])C([H])([H])c2c([H])c([H])c([H])c([H])c2OC([H])([H])[H])c([H])c1[H]
     RDKit          3D

 67 70  0  0  0  0  0  0  0  0999 V2000
   -2.4809   -5.7313   -0.2723 C   0  0  0  0  0  0  0  0  0  0  0  0
   -2.5745   -4.3700   -0.6461 O   0  0  0  0  0  0  0  0  0  0  0  0
   -2.8423   -3.4379    0.3395 C   0  0  0  0  0  0  0  0  0  0  0  0
   -3.0231   -3.7604    1.6659 C   0  0  0  0  0  0  0  0  0  0  0  0
   -3.2889   -2.8091    2.6261 C   0  0  0  0  0  0  0  0  0  0  0  0
   -3.3762   -1.4950    2.2450 C   0  0  0  0  0  0  0  0  0  0  0  0
   -3.1941   -1.1636    0.9050 C   0  0  0  0  0  0  0  0  0  0  0  0
   -2.9285   -2.0973   -0.0645 C   0  0  0  0  0  0  0  0  0  0  0  0
   -2.7983   -1.8159   -1.4840 C   0  0  0  0  0  0  0  0  0  0  0  0
   -2.8012   -0.4434   -1.9116 N   0  0  0  0  0  0  0  0  0  0  0  0
   -1.5896    0.2220   -2.2376 C   0  0  0  0  0  0  0  0  0  0  0  0
   -0.8268    1.0373   -1.2793 C   0  0  0  0  0  0  0  0  0  0  0  0
   -1.5087    2.2042   -0.6575 C   0  0  0  0  0  0  0  0  0  0  0  0
   -0.5924    2.9207    0.3065 C   0  0  0  0  0  0  0  0  0  0  0  0
   -0.5896    2.8342    1.6814 C   0  0  0  0  0  0  0  0  0  0  0  0
    0.3918    3.6234    2.1610 N   0  0  0  0  0  0  0  0  0  0  0  0
    1.0368    4.2270    1.1630 C   0  0  0  0  0  0  0  0  0  0  0  0
    2.0873    5.1129    1.1063 C   0  0  0  0  0  0  0  0  0  0  0  0
    2.5247    5.5624   -0.1188 C   0  0  0  0  0  0  0  0  0  0  0  0
    1.9485    5.1581   -1.3019 C   0  0  0  0  0  0  0  0  0  0  0  0
    0.8920    4.2651   -1.2167 C   0  0  0  0  0  0  0  0  0  0  0  0
    0.4245    3.7919   -0.0189 C   0  0  0  0  0  0  0  0  0  0  0  0
    0.0219    0.2779   -0.3883 N   0  0  0  0  0  0  0  0  0  0  0  0
    1.4435    0.1911   -0.5333 C   0  0  0  0  0  0  0  0  0  0  0  0
    1.9777    0.8072   -1.4869 O   0  0  0  0  0  0  0  0  0  0  0  0
    2.2930   -0.5818    0.3796 C   0  0  0  0  0  0  0  0  0  0  0  0
    3.6474   -0.5014    0.0299 O   0  0  0  0  0  0  0  0  0  0  0  0
    4.6380   -1.1410    0.7336 C   0  0  0  0  0  0  0  0  0  0  0  0
    5.9702   -1.0765    0.4105 C   0  0  0  0  0  0  0  0  0  0  0  0
    6.9508   -1.7260    1.1294 C   0  0  0  0  0  0  0  0  0  0  0  0
    6.5946   -2.4809    2.2282 C   0  0  0  0  0  0  0  0  0  0  0  0
    5.2547   -2.5621    2.5754 C   0  0  0  0  0  0  0  0  0  0  0  0
    4.2850   -1.9014    1.8392 C   0  0  0  0  0  0  0  0  0  0  0  0
   -4.0505    0.1804   -2.1252 C   0  0  0  0  0  0  0  0  0  0  0  0
   -4.3027    1.5486   -2.5886 C   0  0  0  0  0  0  0  0  0  0  0  0
   -5.0986   -0.5172   -1.8940 O   0  0  0  0  0  0  0  0  0  0  0  0
   -1.5154   -5.9766    0.2067 H   0  0  0  0  0  0  0  0  0  0  0  0
   -3.2938   -6.0592    0.3990 H   0  0  0  0  0  0  0  0  0  0  0  0
   -2.6135   -6.3446   -1.2118 H   0  0  0  0  0  0  0  0  0  0  0  0
   -2.9532   -4.8054    1.9673 H   0  0  0  0  0  0  0  0  0  0  0  0
   -3.4310   -3.0444    3.6569 H   0  0  0  0  0  0  0  0  0  0  0  0
   -3.5819   -0.6849    2.9369 H   0  0  0  0  0  0  0  0  0  0  0  0
   -3.2767   -0.1129    0.6257 H   0  0  0  0  0  0  0  0  0  0  0  0
   -1.8181   -2.3036   -1.8091 H   0  0  0  0  0  0  0  0  0  0  0  0
   -3.5658   -2.4024   -2.0629 H   0  0  0  0  0  0  0  0  0  0  0  0
   -0.8581   -0.5681   -2.6662 H   0  0  0  0  0  0  0  0  0  0  0  0
   -1.7262    0.8657   -3.1750 H   0  0  0  0  0  0  0  0  0  0  0  0
   -0.0030    1.5874   -1.9465 H   0  0  0  0  0  0  0  0  0  0  0  0
   -2.4080    1.8876   -0.1208 H   0  0  0  0  0  0  0  0  0  0  0  0
   -1.8243    2.9534   -1.4251 H   0  0  0  0  0  0  0  0  0  0  0  0
   -1.2926    2.2116    2.2241 H   0  0  0  0  0  0  0  0  0  0  0  0
    0.6010    3.7324    3.1776 H   0  0  0  0  0  0  0  0  0  0  0  0
    2.5744    5.4601    2.0241 H   0  0  0  0  0  0  0  0  0  0  0  0
    3.3493    6.2595   -0.1856 H   0  0  0  0  0  0  0  0  0  0  0  0
    2.2833    5.5055   -2.2850 H   0  0  0  0  0  0  0  0  0  0  0  0
    0.4095    3.9255   -2.1437 H   0  0  0  0  0  0  0  0  0  0  0  0
   -0.3866   -0.2370    0.4122 H   0  0  0  0  0  0  0  0  0  0  0  0
    2.1970   -0.1100    1.3949 H   0  0  0  0  0  0  0  0  0  0  0  0
    1.9553   -1.6298    0.5175 H   0  0  0  0  0  0  0  0  0  0  0  0
    6.2317   -0.4720   -0.4643 H   0  0  0  0  0  0  0  0  0  0  0  0
    7.9875   -1.6500    0.8428 H   0  0  0  0  0  0  0  0  0  0  0  0
    7.3462   -2.9954    2.8019 H   0  0  0  0  0  0  0  0  0  0  0  0
    4.9870   -3.1503    3.4299 H   0  0  0  0  0  0  0  0  0  0  0  0
    3.2456   -1.9814    2.1317 H   0  0  0  0  0  0  0  0  0  0  0  0
   -5.2261    1.6162   -3.2096 H   0  0  0  0  0  0  0  0  0  0  0  0
   -3.4346    1.9690   -3.1234 H   0  0  0  0  0  0  0  0  0  0  0  0
   -4.4741    2.2015   -1.6882 H   0  0  0  0  0  0  0  0  0  0  0  0
  1  2  1  0
  2  3  1  0
  3  4  2  0
  4  5  1  0
  5  6  2  0
  6  7  1  0
  7  8  2  0
  8  9  1  0
  9 10  1  0
 10 11  1  0
 11 12  1  0
 12 13  1  0
 13 14  1  0
 14 15  2  0
 15 16  1  0
 16 17  1  0
 17 18  2  0
 18 19  1  0
 19 20  2  0
 20 21  1  0
 21 22  2  0
 12 23  1  0
 23 24  1  0
 24 25  2  0
 24 26  1  0
 26 27  1  0
 27 28  1  0
 28 29  2  0
 29 30  1  0
 30 31  2  0
 31 32  1  0
 32 33  2  0
 10 34  1  0
 34 35  1  0
 34 36  2  0
  8  3  1  0
 22 14  1  0
 33 28  1  0
 22 17  1  0
  1 37  1  0
  1 38  1  0
  1 39  1  0
  4 40  1  0
  5 41  1  0
  6 42  1  0
  7 43  1  0
  9 44  1  0
  9 45  1  0
 11 46  1  0
 11 47  1  0
 12 48  1  0
 13 49  1  0
 13 50  1  0
 15 51  1  0
 16 52  1  0
 18 53  1  0
 19 54  1  0
 20 55  1  0
 21 56  1  0
 23 57  1  0
 26 58  1  0
 26 59  1  0
 29 60  1  0
 30 61  1  0
 31 62  1  0
 32 63  1  0
 33 64  1  0
 35 65  1  0
 35 66  1  0
 35 67  1  0
M  END
$$$$
[H]ON([H])C(=O)/C([H])=C(\[H])c1c([H])c([H])c([H])c(-c2nn(C([H])([H])[H])c3c(Br)c([H])c([H])c(C(=O)N([H])O[H])c23)c1[H]
     RDKit          3D

 42 44  0  0  0  0  0  0  0  0999 V2000
   -4.4405    0.0971    3.2456 C   0  0  0  0  0  0  0  0  0  0  0  0
   -3.4641    0.0953    2.1380 N   0  0  0  0  0  0  0  0  0  0  0  0
   -2.2670    0.6299    2.1786 N   0  0  0  0  0  0  0  0  0  0  0  0
   -1.6134    0.4518    0.9795 C   0  0  0  0  0  0  0  0  0  0  0  0
   -0.2470    0.9075    0.7544 C   0  0  0  0  0  0  0  0  0  0  0  0
    0.0579    2.2594    0.9189 C   0  0  0  0  0  0  0  0  0  0  0  0
    1.3628    2.6442    0.8082 C   0  0  0  0  0  0  0  0  0  0  0  0
    2.3695    1.7180    0.5382 C   0  0  0  0  0  0  0  0  0  0  0  0
    2.0873    0.3825    0.3732 C   0  0  0  0  0  0  0  0  0  0  0  0
    3.1059   -0.6236    0.0889 C   0  0  0  0  0  0  0  0  0  0  0  0
    4.3889   -0.3672   -0.0407 C   0  0  0  0  0  0  0  0  0  0  0  0
    5.3605   -1.4425   -0.3294 C   0  0  0  0  0  0  0  0  0  0  0  0
    4.9839   -2.6300   -0.4582 O   0  0  0  0  0  0  0  0  0  0  0  0
    6.7366   -1.1167   -0.4608 N   0  0  0  0  0  0  0  0  0  0  0  0
    7.6697   -2.0561   -0.7242 O   0  0  0  0  0  0  0  0  0  0  0  0
    0.7541    0.0102    0.4897 C   0  0  0  0  0  0  0  0  0  0  0  0
   -2.4463   -0.2177    0.1601 C   0  0  0  0  0  0  0  0  0  0  0  0
   -2.3569   -0.6812   -1.1292 C   0  0  0  0  0  0  0  0  0  0  0  0
   -3.4579   -1.3839   -1.6479 C   0  0  0  0  0  0  0  0  0  0  0  0
   -4.5833   -1.5983   -0.9084 C   0  0  0  0  0  0  0  0  0  0  0  0
   -4.6605   -1.1229    0.3746 C   0  0  0  0  0  0  0  0  0  0  0  0
   -6.2305   -1.4067    1.4323 Br  0  0  0  0  0  0  0  0  0  0  0  0
   -3.6076   -0.4352    0.9164 C   0  0  0  0  0  0  0  0  0  0  0  0
   -1.2904   -0.3658   -2.0605 C   0  0  0  0  0  0  0  0  0  0  0  0
   -0.5835   -1.2553   -2.6150 O   0  0  0  0  0  0  0  0  0  0  0  0
   -1.0373    0.9811   -2.3747 N   0  0  0  0  0  0  0  0  0  0  0  0
   -0.0603    1.2893   -3.2461 O   0  0  0  0  0  0  0  0  0  0  0  0
   -4.6138   -0.9225    3.6222 H   0  0  0  0  0  0  0  0  0  0  0  0
   -5.3412    0.6798    3.0124 H   0  0  0  0  0  0  0  0  0  0  0  0
   -3.9724    0.6587    4.1145 H   0  0  0  0  0  0  0  0  0  0  0  0
   -0.7166    2.9882    1.1285 H   0  0  0  0  0  0  0  0  0  0  0  0
    1.6993    3.6757    0.9211 H   0  0  0  0  0  0  0  0  0  0  0  0
    3.3998    2.0412    0.4532 H   0  0  0  0  0  0  0  0  0  0  0  0
    2.8035   -1.6538   -0.0265 H   0  0  0  0  0  0  0  0  0  0  0  0
    4.7498    0.6388    0.0621 H   0  0  0  0  0  0  0  0  0  0  0  0
    7.0790   -0.1339   -0.3585 H   0  0  0  0  0  0  0  0  0  0  0  0
    8.5084   -1.6838   -1.0582 H   0  0  0  0  0  0  0  0  0  0  0  0
    0.5229   -1.0619    0.3661 H   0  0  0  0  0  0  0  0  0  0  0  0
   -3.3728   -1.7459   -2.6551 H   0  0  0  0  0  0  0  0  0  0  0  0
   -5.4275   -2.1463   -1.3268 H   0  0  0  0  0  0  0  0  0  0  0  0
   -1.5940    1.7439   -1.9471 H   0  0  0  0  0  0  0  0  0  0  0  0
   -0.2552    2.1585   -3.6511 H   0  0  0  0  0  0  0  0  0  0  0  0
  1  2  1  0
  2  3  1  0
  3  4  2  0
  4  5  1  0
  5  6  2  0
  6  7  1  0
  7  8  2  0
  8  9  1  0
  9 10  1  0
 10 11  2  0
 11 12  1  0
 12 13  2  0
 12 14  1  0
 14 15  1  0
  9 16  2  0
  4 17  1  0
 17 18  2  0
 18 19  1  0
 19 20  2  0
 20 21  1  0
 21 22  1  0
 21 23  2  0
 18 24  1  0
 24 25  2  0
 24 26  1  0
 26 27  1  0
 23  2  1  0
 16  5  1  0
 23 17  1  0
  1 28  1  0
  1 29  1  0
  1 30  1  0
  6 31  1  0
  7 32  1  0
  8 33  1  0
 10 34  1  0
 11 35  1  0
 14 36  1  0
 15 37  1  0
 16 38  1  0
 19 39  1  0
 20 40  1  0
 26 41  1  0
 27 42  1  0
M  END
$$$$
[H]c1c([H])c(C([H])([H])C([H])([H])C([H])([H])C([H])([H])C([H])([H])C([H])([H])C([H])([H])C([H])([H])[H])c([H])c([H])c1OC([H])([H])C(=O)N(C([H])([H])C([H])([H])[H])C([H])([H])C([H])([H])[H]
     RDKit          3D

 56 56  0  0  0  0  0  0  0  0999 V2000
    6.6218   -2.2432    0.9727 C   0  0  0  0  0  0  0  0  0  0  0  0
    5.7924   -1.2367    1.7404 C   0  0  0  0  0  0  0  0  0  0  0  0
    5.8518    0.0927    1.0110 C   0  0  0  0  0  0  0  0  0  0  0  0
    5.2966   -0.1163   -0.3619 C   0  0  0  0  0  0  0  0  0  0  0  0
    5.2925    1.1262   -1.2107 C   0  0  0  0  0  0  0  0  0  0  0  0
    4.4545    2.1741   -0.5366 C   0  0  0  0  0  0  0  0  0  0  0  0
    3.0257    1.7490   -0.3238 C   0  0  0  0  0  0  0  0  0  0  0  0
    2.3613    1.4420   -1.6240 C   0  0  0  0  0  0  0  0  0  0  0  0
    0.9352    1.0298   -1.3615 C   0  0  0  0  0  0  0  0  0  0  0  0
    0.5920   -0.2883   -1.1451 C   0  0  0  0  0  0  0  0  0  0  0  0
   -0.7088   -0.6825   -0.9034 C   0  0  0  0  0  0  0  0  0  0  0  0
   -1.7324    0.2412   -0.8684 C   0  0  0  0  0  0  0  0  0  0  0  0
   -3.0486   -0.1280   -0.6276 O   0  0  0  0  0  0  0  0  0  0  0  0
   -3.3715   -1.4690   -0.4112 C   0  0  0  0  0  0  0  0  0  0  0  0
   -4.7805   -1.7750   -0.1646 C   0  0  0  0  0  0  0  0  0  0  0  0
   -5.0800   -3.0154    0.1081 O   0  0  0  0  0  0  0  0  0  0  0  0
   -5.8715   -0.9093   -0.1787 N   0  0  0  0  0  0  0  0  0  0  0  0
   -5.7650    0.4819   -0.5021 C   0  0  0  0  0  0  0  0  0  0  0  0
   -5.4519    1.3622    0.6861 C   0  0  0  0  0  0  0  0  0  0  0  0
   -7.2034   -1.4366    0.1559 C   0  0  0  0  0  0  0  0  0  0  0  0
   -7.5036   -1.3432    1.6153 C   0  0  0  0  0  0  0  0  0  0  0  0
   -1.3878    1.5586   -1.0850 C   0  0  0  0  0  0  0  0  0  0  0  0
   -0.0879    1.9541   -1.3267 C   0  0  0  0  0  0  0  0  0  0  0  0
    7.3780   -1.7034    0.3502 H   0  0  0  0  0  0  0  0  0  0  0  0
    7.1213   -2.8984    1.7160 H   0  0  0  0  0  0  0  0  0  0  0  0
    5.9408   -2.8000    0.3120 H   0  0  0  0  0  0  0  0  0  0  0  0
    6.2092   -1.0575    2.7629 H   0  0  0  0  0  0  0  0  0  0  0  0
    4.7452   -1.5834    1.7872 H   0  0  0  0  0  0  0  0  0  0  0  0
    6.8989    0.3980    0.9437 H   0  0  0  0  0  0  0  0  0  0  0  0
    5.2932    0.8207    1.6248 H   0  0  0  0  0  0  0  0  0  0  0  0
    4.2565   -0.5177   -0.3337 H   0  0  0  0  0  0  0  0  0  0  0  0
    5.9031   -0.9319   -0.8302 H   0  0  0  0  0  0  0  0  0  0  0  0
    6.3516    1.4474   -1.3204 H   0  0  0  0  0  0  0  0  0  0  0  0
    4.9011    0.8744   -2.2009 H   0  0  0  0  0  0  0  0  0  0  0  0
    4.8572    2.4390    0.4721 H   0  0  0  0  0  0  0  0  0  0  0  0
    4.4755    3.0704   -1.1966 H   0  0  0  0  0  0  0  0  0  0  0  0
    2.4929    2.5800    0.2034 H   0  0  0  0  0  0  0  0  0  0  0  0
    2.9718    0.8920    0.3711 H   0  0  0  0  0  0  0  0  0  0  0  0
    2.9101    0.5827   -2.1078 H   0  0  0  0  0  0  0  0  0  0  0  0
    2.3588    2.2614   -2.3391 H   0  0  0  0  0  0  0  0  0  0  0  0
    1.3946   -1.0240   -1.1710 H   0  0  0  0  0  0  0  0  0  0  0  0
   -0.9730   -1.7329   -0.7322 H   0  0  0  0  0  0  0  0  0  0  0  0
   -3.0941   -2.0177   -1.3645 H   0  0  0  0  0  0  0  0  0  0  0  0
   -2.6968   -1.9471    0.3563 H   0  0  0  0  0  0  0  0  0  0  0  0
   -6.7725    0.8440   -0.9036 H   0  0  0  0  0  0  0  0  0  0  0  0
   -5.0780    0.7320   -1.3204 H   0  0  0  0  0  0  0  0  0  0  0  0
   -4.9177    2.2849    0.3788 H   0  0  0  0  0  0  0  0  0  0  0  0
   -4.8209    0.8568    1.4443 H   0  0  0  0  0  0  0  0  0  0  0  0
   -6.4060    1.6858    1.1523 H   0  0  0  0  0  0  0  0  0  0  0  0
   -7.2573   -2.5108   -0.1699 H   0  0  0  0  0  0  0  0  0  0  0  0
   -7.9271   -0.8319   -0.4238 H   0  0  0  0  0  0  0  0  0  0  0  0
   -7.3276   -2.3366    2.0769 H   0  0  0  0  0  0  0  0  0  0  0  0
   -8.5735   -1.1008    1.7641 H   0  0  0  0  0  0  0  0  0  0  0  0
   -6.8276   -0.6376    2.1423 H   0  0  0  0  0  0  0  0  0  0  0  0
   -2.1920    2.2940   -1.0588 H   0  0  0  0  0  0  0  0  0  0  0  0
    0.1736    2.9995   -1.4968 H   0  0  0  0  0  0  0  0  0  0  0  0
  1  2  1  0
  2  3  1  0
  3  4  1  0
  4  5  1  0
  5  6  1  0
  6  7  1  0
  7  8  1  0
  8  9  1  0
  9 10  2  0
 10 11  1  0
 11 12  2  0
 12 13  1  0
 13 14  1  0
 14 15  1  0
 15 16  2  0
 15 17  1  0
 17 18  1  0
 18 19  1  0
 17 20  1  0
 20 21  1  0
 12 22  1  0
 22 23  2  0
 23  9  1  0
  1 24  1  0
  1 25  1  0
  1 26  1  0
  2 27  1  0
  2 28  1  0
  3 29  1  0
  3 30  1  0
  4 31  1  0
  4 32  1  0
  5 33  1  0
  5 34  1  0
  6 35  1  0
  6 36  1  0
  7 37  1  0
  7 38  1  0
  8 39  1  0
  8 40  1  0
 10 41  1  0
 11 42  1  0
 14 43  1  0
 14 44  1  0
 18 45  1  0
 18 46  1  0
 19 47  1  0
 19 48  1  0
 19 49  1  0
 20 50  1  0
 20 51  1  0
 21 52  1  0
 21 53  1  0
 21 54  1  0
 22 55  1  0
 23 56  1  0
M  END
$$$$
[H]c1c([H])c([H])c([C@@]([H])(C(=O)N([H])C([H])([H])C2([H])C([H])([H])C([H])([H])N(C([H])([H])[H])C([H])([H])C2([H])[H])N([H])c2c([H])c(-c3c([H])c([H])c4nc(C([H])([H])[H])n(C([H])([H])c5c([H])c([H])c(F)c([H])c5F)c4c3[H])c([H])c(C([H])([H])[H])c2[H])c([H])c1[H]
     RDKit          3D

 84 89  0  0  0  0  0  0  0  0999 V2000
    9.1636    3.2323    0.9379 C   0  0  0  0  0  0  0  0  0  0  0  0
    7.6741    3.0081    0.8222 C   0  0  0  0  0  0  0  0  0  0  0  0
    6.7236    3.7143    1.4577 N   0  0  0  0  0  0  0  0  0  0  0  0
    5.4928    3.2421    1.1266 C   0  0  0  0  0  0  0  0  0  0  0  0
    4.2048    3.5864    1.4766 C   0  0  0  0  0  0  0  0  0  0  0  0
    3.1216    2.8803    0.9434 C   0  0  0  0  0  0  0  0  0  0  0  0
    3.3066    1.8365    0.0664 C   0  0  0  0  0  0  0  0  0  0  0  0
    4.5997    1.5064   -0.2726 C   0  0  0  0  0  0  0  0  0  0  0  0
    5.6998    2.1976    0.2477 C   0  0  0  0  0  0  0  0  0  0  0  0
    7.0390    2.0853    0.0863 N   0  0  0  0  0  0  0  0  0  0  0  0
    7.6557    1.1298   -0.7851 C   0  0  0  0  0  0  0  0  0  0  0  0
    8.0475   -0.1572   -0.2234 C   0  0  0  0  0  0  0  0  0  0  0  0
    8.6876   -1.0308   -1.1146 C   0  0  0  0  0  0  0  0  0  0  0  0
    9.1117   -2.2669   -0.7414 C   0  0  0  0  0  0  0  0  0  0  0  0
    8.9128   -2.6973    0.5646 C   0  0  0  0  0  0  0  0  0  0  0  0
    9.3457   -3.9320    0.9029 F   0  0  0  0  0  0  0  0  0  0  0  0
    8.2798   -1.8295    1.4407 C   0  0  0  0  0  0  0  0  0  0  0  0
    7.8579   -0.5915    1.0572 C   0  0  0  0  0  0  0  0  0  0  0  0
    7.2549    0.1756    1.9830 F   0  0  0  0  0  0  0  0  0  0  0  0
    2.1327    1.1177   -0.4787 C   0  0  0  0  0  0  0  0  0  0  0  0
    2.1424    0.5493   -1.7380 C   0  0  0  0  0  0  0  0  0  0  0  0
    1.0648   -0.1169   -2.2757 C   0  0  0  0  0  0  0  0  0  0  0  0
    1.0928   -0.7324   -3.6372 C   0  0  0  0  0  0  0  0  0  0  0  0
   -0.0916   -0.2083   -1.4811 C   0  0  0  0  0  0  0  0  0  0  0  0
   -0.1633    0.3342   -0.2238 C   0  0  0  0  0  0  0  0  0  0  0  0
   -1.3133    0.2401    0.5662 N   0  0  0  0  0  0  0  0  0  0  0  0
   -2.5449   -0.4159    0.2511 C   0  0  2  0  0  0  0  0  0  0  0  0
   -3.5721   -0.2273    1.3087 C   0  0  0  0  0  0  0  0  0  0  0  0
   -3.2206   -0.1249    2.4955 O   0  0  0  0  0  0  0  0  0  0  0  0
   -4.9497   -0.1597    0.9753 N   0  0  0  0  0  0  0  0  0  0  0  0
   -5.9596    0.0209    1.9878 C   0  0  0  0  0  0  0  0  0  0  0  0
   -7.3032    0.0983    1.3445 C   0  0  0  0  0  0  0  0  0  0  0  0
   -7.7101   -1.1028    0.5524 C   0  0  0  0  0  0  0  0  0  0  0  0
   -8.4788   -0.7432   -0.6973 C   0  0  0  0  0  0  0  0  0  0  0  0
   -9.3970    0.3412   -0.5197 N   0  0  0  0  0  0  0  0  0  0  0  0
   -9.8501    0.7519   -1.8439 C   0  0  0  0  0  0  0  0  0  0  0  0
   -8.8665    1.4981    0.1384 C   0  0  0  0  0  0  0  0  0  0  0  0
   -7.3800    1.3209    0.4153 C   0  0  0  0  0  0  0  0  0  0  0  0
   -2.3604   -1.8910   -0.0147 C   0  0  0  0  0  0  0  0  0  0  0  0
   -3.1369   -2.5896   -0.9181 C   0  0  0  0  0  0  0  0  0  0  0  0
   -2.9461   -3.9348   -1.1633 C   0  0  0  0  0  0  0  0  0  0  0  0
   -1.9585   -4.6181   -0.4990 C   0  0  0  0  0  0  0  0  0  0  0  0
   -1.1706   -3.9483    0.4056 C   0  0  0  0  0  0  0  0  0  0  0  0
   -1.3781   -2.6040    0.6366 C   0  0  0  0  0  0  0  0  0  0  0  0
    0.9770    0.9998    0.2585 C   0  0  0  0  0  0  0  0  0  0  0  0
    9.5528    2.7932    1.8665 H   0  0  0  0  0  0  0  0  0  0  0  0
    9.2949    4.3376    1.0062 H   0  0  0  0  0  0  0  0  0  0  0  0
    9.6945    2.9015    0.0234 H   0  0  0  0  0  0  0  0  0  0  0  0
    4.0310    4.4112    2.1699 H   0  0  0  0  0  0  0  0  0  0  0  0
    2.1283    3.1619    1.2270 H   0  0  0  0  0  0  0  0  0  0  0  0
    4.7554    0.6892   -0.9590 H   0  0  0  0  0  0  0  0  0  0  0  0
    8.5610    1.5801   -1.2629 H   0  0  0  0  0  0  0  0  0  0  0  0
    6.9767    0.9176   -1.6524 H   0  0  0  0  0  0  0  0  0  0  0  0
    8.8633   -0.7207   -2.1586 H   0  0  0  0  0  0  0  0  0  0  0  0
    9.6035   -2.9058   -1.4711 H   0  0  0  0  0  0  0  0  0  0  0  0
    8.1502   -2.2209    2.4479 H   0  0  0  0  0  0  0  0  0  0  0  0
    3.0477    0.6427   -2.3107 H   0  0  0  0  0  0  0  0  0  0  0  0
    0.6150   -1.7295   -3.5374 H   0  0  0  0  0  0  0  0  0  0  0  0
    0.6898   -0.1018   -4.4250 H   0  0  0  0  0  0  0  0  0  0  0  0
    2.1703   -0.9462   -3.8988 H   0  0  0  0  0  0  0  0  0  0  0  0
   -0.9305   -0.7238   -1.9168 H   0  0  0  0  0  0  0  0  0  0  0  0
   -1.2838    0.7096    1.5222 H   0  0  0  0  0  0  0  0  0  0  0  0
   -2.9804   -0.0002   -0.6944 H   0  0  0  0  0  0  0  0  0  0  0  0
   -5.2448   -0.2438   -0.0416 H   0  0  0  0  0  0  0  0  0  0  0  0
   -5.9843   -0.8150    2.7188 H   0  0  0  0  0  0  0  0  0  0  0  0
   -5.7616    0.9800    2.5310 H   0  0  0  0  0  0  0  0  0  0  0  0
   -8.0738    0.2856    2.1398 H   0  0  0  0  0  0  0  0  0  0  0  0
   -8.4036   -1.7264    1.1965 H   0  0  0  0  0  0  0  0  0  0  0  0
   -6.8403   -1.7144    0.3040 H   0  0  0  0  0  0  0  0  0  0  0  0
   -7.8156   -0.5581   -1.5679 H   0  0  0  0  0  0  0  0  0  0  0  0
   -9.1004   -1.6527   -0.9496 H   0  0  0  0  0  0  0  0  0  0  0  0
  -10.0356   -0.1357   -2.4715 H   0  0  0  0  0  0  0  0  0  0  0  0
  -10.7508    1.4141   -1.7591 H   0  0  0  0  0  0  0  0  0  0  0  0
   -9.0126    1.3363   -2.3267 H   0  0  0  0  0  0  0  0  0  0  0  0
   -9.0758    2.4465   -0.4125 H   0  0  0  0  0  0  0  0  0  0  0  0
   -9.3412    1.5490    1.1622 H   0  0  0  0  0  0  0  0  0  0  0  0
   -6.8086    1.1610   -0.5104 H   0  0  0  0  0  0  0  0  0  0  0  0
   -6.9935    2.2019    0.9495 H   0  0  0  0  0  0  0  0  0  0  0  0
   -3.9023   -2.0244   -1.4234 H   0  0  0  0  0  0  0  0  0  0  0  0
   -3.5760   -4.4505   -1.8807 H   0  0  0  0  0  0  0  0  0  0  0  0
   -1.8245   -5.6747   -0.7053 H   0  0  0  0  0  0  0  0  0  0  0  0
   -0.3878   -4.4728    0.9360 H   0  0  0  0  0  0  0  0  0  0  0  0
   -0.7602   -2.0666    1.3484 H   0  0  0  0  0  0  0  0  0  0  0  0
    0.9168    1.4200    1.2360 H   0  0  0  0  0  0  0  0  0  0  0  0
  1  2  1  0
  2  3  2  0
  3  4  1  0
  4  5  2  0
  5  6  1  0
  6  7  2  0
  7  8  1  0
  8  9  2  0
  9 10  1  0
 10 11  1  0
 11 12  1  0
 12 13  2  0
 13 14  1  0
 14 15  2  0
 15 16  1  0
 15 17  1  0
 17 18  2  0
 18 19  1  0
  7 20  1  0
 20 21  2  0
 21 22  1  0
 22 23  1  0
 22 24  2  0
 24 25  1  0
 25 26  1  0
 26 27  1  0
 27 28  1  0
 28 29  2  0
 28 30  1  0
 30 31  1  0
 31 32  1  0
 32 33  1  0
 33 34  1  0
 34 35  1  0
 35 36  1  0
 35 37  1  0
 37 38  1  0
 27 39  1  0
 39 40  2  0
 40 41  1  0
 41 42  2  0
 42 43  1  0
 43 44  2  0
 25 45  2  0
 10  2  1  0
 18 12  1  0
 45 20  1  0
  9  4  1  0
 38 32  1  0
 44 39  1  0
  1 46  1  0
  1 47  1  0
  1 48  1  0
  5 49  1  0
  6 50  1  0
  8 51  1  0
 11 52  1  0
 11 53  1  0
 13 54  1  0
 14 55  1  0
 17 56  1  0
 21 57  1  0
 23 58  1  0
 23 59  1  0
 23 60  1  0
 24 61  1  0
 26 62  1  0
 27 63  1  6
 30 64  1  0
 31 65  1  0
 31 66  1  0
 32 67  1  0
 33 68  1  0
 33 69  1  0
 34 70  1  0
 34 71  1  0
 36 72  1  0
 36 73  1  0
 36 74  1  0
 37 75  1  0
 37 76  1  0
 38 77  1  0
 38 78  1  0
 40 79  1  0
 41 80  1  0
 42 81  1  0
 43 82  1  0
 44 83  1  0
 45 84  1  0
M  END
$$$$
[H]c1nc(S(=O)(=O)[C@@]2([H])C([H])([H])N(c3nc([H])c(C(F)(F)F)c([H])c3[H])[C@]([H])(C(=O)N([H])C3(C#N)C([H])([H])C3([H])[H])C2([H])[H])c([H])c([H])c1[H]
     RDKit          3D

 50 53  0  0  0  0  0  0  0  0999 V2000
   -3.9094    5.4892   -0.6628 F   0  0  0  0  0  0  0  0  0  0  0  0
   -2.5507    5.4889   -0.4001 C   0  0  0  0  0  0  0  0  0  0  0  0
   -1.8532    6.1803   -1.4053 F   0  0  0  0  0  0  0  0  0  0  0  0
   -2.2364    6.1493    0.7784 F   0  0  0  0  0  0  0  0  0  0  0  0
   -2.0070    4.1171   -0.3516 C   0  0  0  0  0  0  0  0  0  0  0  0
   -0.6641    3.9840    0.0042 C   0  0  0  0  0  0  0  0  0  0  0  0
   -0.1098    2.7177    0.0618 C   0  0  0  0  0  0  0  0  0  0  0  0
   -0.8379    1.5584   -0.2210 C   0  0  0  0  0  0  0  0  0  0  0  0
   -2.1265    1.7591   -0.5578 N   0  0  0  0  0  0  0  0  0  0  0  0
   -2.7020    2.9711   -0.6251 C   0  0  0  0  0  0  0  0  0  0  0  0
   -0.2283    0.2465   -0.1802 N   0  0  0  0  0  0  0  0  0  0  0  0
    1.1999    0.1914    0.1852 C   0  0  0  0  0  0  0  0  0  0  0  0
    1.6348   -1.1862    0.2346 C   0  0  1  0  0  0  0  0  0  0  0  0
    0.3992   -2.0001    0.0002 C   0  0  0  0  0  0  0  0  0  0  0  0
   -0.6557   -1.0291   -0.4652 C   0  0  1  0  0  0  0  0  0  0  0  0
   -1.9605   -1.5890   -0.1304 C   0  0  0  0  0  0  0  0  0  0  0  0
   -2.1334   -2.7490   -0.7337 O   0  0  0  0  0  0  0  0  0  0  0  0
   -3.0347   -1.2154    0.6417 N   0  0  0  0  0  0  0  0  0  0  0  0
   -4.2682   -1.9935    0.8099 C   0  0  0  0  0  0  0  0  0  0  0  0
   -4.9019   -2.3366   -0.5279 C   0  0  0  0  0  0  0  0  0  0  0  0
   -4.4537   -3.3856    0.4319 C   0  0  0  0  0  0  0  0  0  0  0  0
   -5.2390   -1.3507    1.7217 C   0  0  0  0  0  0  0  0  0  0  0  0
   -6.0122   -0.8649    2.4373 N   0  0  0  0  0  0  0  0  0  0  0  0
    2.8329   -1.6501   -1.0163 S   0  0  0  0  0  0  0  0  0  0  0  0
    2.4710   -0.8925   -2.2935 O   0  0  0  0  0  0  0  0  0  0  0  0
    2.7871   -3.1087   -1.3005 O   0  0  0  0  0  0  0  0  0  0  0  0
    4.4511   -1.1699   -0.5998 C   0  0  0  0  0  0  0  0  0  0  0  0
    4.7600   -0.5940    0.6080 C   0  0  0  0  0  0  0  0  0  0  0  0
    6.0765   -0.2767    0.9052 C   0  0  0  0  0  0  0  0  0  0  0  0
    7.0686   -0.5366   -0.0094 C   0  0  0  0  0  0  0  0  0  0  0  0
    6.7208   -1.1215   -1.2289 C   0  0  0  0  0  0  0  0  0  0  0  0
    5.4290   -1.4105   -1.4655 N   0  0  0  0  0  0  0  0  0  0  0  0
   -0.0718    4.8468    0.2264 H   0  0  0  0  0  0  0  0  0  0  0  0
    0.9323    2.6595    0.3425 H   0  0  0  0  0  0  0  0  0  0  0  0
   -3.7364    3.0948   -0.8969 H   0  0  0  0  0  0  0  0  0  0  0  0
    1.4176    0.8146    1.0497 H   0  0  0  0  0  0  0  0  0  0  0  0
    1.6927    0.6735   -0.7302 H   0  0  0  0  0  0  0  0  0  0  0  0
    2.0894   -1.5486    1.2126 H   0  0  0  0  0  0  0  0  0  0  0  0
    0.5668   -2.8160   -0.7429 H   0  0  0  0  0  0  0  0  0  0  0  0
    0.0574   -2.4147    0.9762 H   0  0  0  0  0  0  0  0  0  0  0  0
   -0.5999   -1.1221   -1.6268 H   0  0  0  0  0  0  0  0  0  0  0  0
   -3.0038   -0.3304    1.1902 H   0  0  0  0  0  0  0  0  0  0  0  0
   -5.9721   -2.1901   -0.6919 H   0  0  0  0  0  0  0  0  0  0  0  0
   -4.3114   -2.2000   -1.4447 H   0  0  0  0  0  0  0  0  0  0  0  0
   -3.6935   -4.1133    0.1884 H   0  0  0  0  0  0  0  0  0  0  0  0
   -5.3198   -3.8917    0.9801 H   0  0  0  0  0  0  0  0  0  0  0  0
    4.0054   -0.3821    1.3439 H   0  0  0  0  0  0  0  0  0  0  0  0
    6.3693    0.1675    1.8299 H   0  0  0  0  0  0  0  0  0  0  0  0
    8.1220   -0.3180    0.1562 H   0  0  0  0  0  0  0  0  0  0  0  0
    7.5097   -1.3221   -1.9503 H   0  0  0  0  0  0  0  0  0  0  0  0
  1  2  1  0
  2  3  1  0
  2  4  1  0
  2  5  1  0
  5  6  2  0
  6  7  1  0
  7  8  2  0
  8  9  1  0
  9 10  2  0
  8 11  1  0
 11 12  1  0
 12 13  1  0
 13 14  1  0
 14 15  1  0
 15 16  1  0
 16 17  2  0
 16 18  1  0
 18 19  1  0
 19 20  1  0
 20 21  1  0
 19 22  1  0
 22 23  3  0
 13 24  1  0
 24 25  2  0
 24 26  2  0
 24 27  1  0
 27 28  2  0
 28 29  1  0
 29 30  2  0
 30 31  1  0
 31 32  2  0
 10  5  1  0
 15 11  1  0
 21 19  1  0
 32 27  1  0
  6 33  1  0
  7 34  1  0
 10 35  1  0
 12 36  1  0
 12 37  1  0
 13 38  1  1
 14 39  1  0
 14 40  1  0
 15 41  1  6
 18 42  1  0
 20 43  1  0
 20 44  1  0
 21 45  1  0
 21 46  1  0
 28 47  1  0
 29 48  1  0
 30 49  1  0
 31 50  1  0
M  END
$$$$
[H]c1c([H])c(C([H])([H])n2c(C([H])([H])C([H])([H])[H])c(C(=O)C(=O)N([H])[H])c3c(OC([H])([H])[H])c([H])c([H])c([H])c32)c([H])c(C([H])([H])C([H])([H])c2noc3c([H])c([H])c(Cl)c([H])c23)c1[H]
     RDKit          3D

 63 67  0  0  0  0  0  0  0  0999 V2000
   -3.2273   -3.1785    0.0097 C   0  0  0  0  0  0  0  0  0  0  0  0
   -3.5397   -2.3960    1.2586 C   0  0  0  0  0  0  0  0  0  0  0  0
   -3.2048   -0.9632    1.0478 C   0  0  0  0  0  0  0  0  0  0  0  0
   -3.9592   -0.0942    0.2857 C   0  0  0  0  0  0  0  0  0  0  0  0
   -5.2397   -0.2542   -0.3840 C   0  0  0  0  0  0  0  0  0  0  0  0
   -5.5543    0.7401   -1.1911 O   0  0  0  0  0  0  0  0  0  0  0  0
   -6.2692   -1.2134   -0.3968 C   0  0  0  0  0  0  0  0  0  0  0  0
   -7.3351   -1.0099   -1.3835 N   0  0  0  0  0  0  0  0  0  0  0  0
   -6.4568   -2.2123    0.2700 O   0  0  0  0  0  0  0  0  0  0  0  0
   -3.2658    1.1438    0.3735 C   0  0  0  0  0  0  0  0  0  0  0  0
   -3.4968    2.3975   -0.1194 C   0  0  0  0  0  0  0  0  0  0  0  0
   -4.5482    2.7691   -0.9253 O   0  0  0  0  0  0  0  0  0  0  0  0
   -4.7010    4.0957   -1.3838 C   0  0  0  0  0  0  0  0  0  0  0  0
   -2.6018    3.4264    0.2065 C   0  0  0  0  0  0  0  0  0  0  0  0
   -1.5198    3.1861    1.0012 C   0  0  0  0  0  0  0  0  0  0  0  0
   -1.2977    1.9252    1.4903 C   0  0  0  0  0  0  0  0  0  0  0  0
   -2.1713    0.8904    1.1775 C   0  0  0  0  0  0  0  0  0  0  0  0
   -2.1232   -0.3827    1.5894 N   0  0  0  0  0  0  0  0  0  0  0  0
   -1.1048   -0.9717    2.4427 C   0  0  0  0  0  0  0  0  0  0  0  0
    0.0742   -1.5499    1.8454 C   0  0  0  0  0  0  0  0  0  0  0  0
    0.1774   -2.8931    1.5505 C   0  0  0  0  0  0  0  0  0  0  0  0
    1.3103   -3.4718    0.9972 C   0  0  0  0  0  0  0  0  0  0  0  0
    2.3965   -2.6694    0.7243 C   0  0  0  0  0  0  0  0  0  0  0  0
    2.3454   -1.3451    0.9962 C   0  0  0  0  0  0  0  0  0  0  0  0
    3.4718   -0.4046    0.7343 C   0  0  0  0  0  0  0  0  0  0  0  0
    3.4046    0.1951   -0.6342 C   0  0  0  0  0  0  0  0  0  0  0  0
    4.5574    1.1106   -0.8018 C   0  0  0  0  0  0  0  0  0  0  0  0
    4.4936    2.4632   -0.7520 N   0  0  0  0  0  0  0  0  0  0  0  0
    5.6777    2.9767   -0.9360 O   0  0  0  0  0  0  0  0  0  0  0  0
    6.5425    2.0142   -1.1089 C   0  0  0  0  0  0  0  0  0  0  0  0
    7.9152    2.0482   -1.3383 C   0  0  0  0  0  0  0  0  0  0  0  0
    8.5825    0.8614   -1.4847 C   0  0  0  0  0  0  0  0  0  0  0  0
    7.9013   -0.3340   -1.4050 C   0  0  0  0  0  0  0  0  0  0  0  0
    8.7591   -1.8356   -1.5923 Cl  0  0  0  0  0  0  0  0  0  0  0  0
    6.5357   -0.3836   -1.1772 C   0  0  0  0  0  0  0  0  0  0  0  0
    5.8819    0.8071   -1.0330 C   0  0  0  0  0  0  0  0  0  0  0  0
    1.1932   -0.8052    1.5500 C   0  0  0  0  0  0  0  0  0  0  0  0
   -2.4161   -3.9174    0.1233 H   0  0  0  0  0  0  0  0  0  0  0  0
   -4.1131   -3.7606   -0.3658 H   0  0  0  0  0  0  0  0  0  0  0  0
   -2.8825   -2.5043   -0.8230 H   0  0  0  0  0  0  0  0  0  0  0  0
   -4.4869   -2.6054    1.7267 H   0  0  0  0  0  0  0  0  0  0  0  0
   -2.8077   -2.8294    2.0347 H   0  0  0  0  0  0  0  0  0  0  0  0
   -7.4116   -1.6888   -2.1289 H   0  0  0  0  0  0  0  0  0  0  0  0
   -7.9300   -0.2009   -1.2580 H   0  0  0  0  0  0  0  0  0  0  0  0
   -3.8942    4.3812   -2.1172 H   0  0  0  0  0  0  0  0  0  0  0  0
   -4.7271    4.8410   -0.5643 H   0  0  0  0  0  0  0  0  0  0  0  0
   -5.6851    4.2082   -1.9146 H   0  0  0  0  0  0  0  0  0  0  0  0
   -2.7732    4.4171   -0.1772 H   0  0  0  0  0  0  0  0  0  0  0  0
   -0.8235    3.9844    1.2563 H   0  0  0  0  0  0  0  0  0  0  0  0
   -0.4614    1.7588    2.1281 H   0  0  0  0  0  0  0  0  0  0  0  0
   -0.7972   -0.1535    3.1956 H   0  0  0  0  0  0  0  0  0  0  0  0
   -1.5817   -1.7196    3.1192 H   0  0  0  0  0  0  0  0  0  0  0  0
   -0.6495   -3.5989    1.7491 H   0  0  0  0  0  0  0  0  0  0  0  0
    1.3515   -4.5418    0.7778 H   0  0  0  0  0  0  0  0  0  0  0  0
    3.3099   -3.0845    0.2874 H   0  0  0  0  0  0  0  0  0  0  0  0
    4.4213   -0.9433    0.8511 H   0  0  0  0  0  0  0  0  0  0  0  0
    3.4409    0.3987    1.5001 H   0  0  0  0  0  0  0  0  0  0  0  0
    3.5486   -0.6233   -1.3897 H   0  0  0  0  0  0  0  0  0  0  0  0
    2.4942    0.7503   -0.8491 H   0  0  0  0  0  0  0  0  0  0  0  0
    8.4137    2.9942   -1.3946 H   0  0  0  0  0  0  0  0  0  0  0  0
    9.6464    0.8134   -1.6647 H   0  0  0  0  0  0  0  0  0  0  0  0
    6.0049   -1.3183   -1.1154 H   0  0  0  0  0  0  0  0  0  0  0  0
    1.2057    0.2600    1.7703 H   0  0  0  0  0  0  0  0  0  0  0  0
  1  2  1  0
  2  3  1  0
  3  4  2  0
  4  5  1  0
  5  6  2  0
  5  7  1  0
  7  8  1  0
  7  9  2  0
  4 10  1  0
 10 11  2  0
 11 12  1  0
 12 13  1  0
 11 14  1  0
 14 15  2  0
 15 16  1  0
 16 17  2  0
 17 18  1  0
 18 19  1  0
 19 20  1  0
 20 21  2  0
 21 22  1  0
 22 23  2  0
 23 24  1  0
 24 25  1  0
 25 26  1  0
 26 27  1  0
 27 28  2  0
 28 29  1  0
 29 30  1  0
 30 31  2  0
 31 32  1  0
 32 33  2  0
 33 34  1  0
 33 35  1  0
 35 36  2  0
 24 37  2  0
 18  3  1  0
 37 20  1  0
 17 10  1  0
 36 27  1  0
 36 30  1  0
  1 38  1  0
  1 39  1  0
  1 40  1  0
  2 41  1  0
  2 42  1  0
  8 43  1  0
  8 44  1  0
 13 45  1  0
 13 46  1  0
 13 47  1  0
 14 48  1  0
 15 49  1  0
 16 50  1  0
 19 51  1  0
 19 52  1  0
 21 53  1  0
 22 54  1  0
 23 55  1  0
 25 56  1  0
 25 57  1  0
 26 58  1  0
 26 59  1  0
 31 60  1  0
 32 61  1  0
 35 62  1  0
 37 63  1  0
M  END
$$$$
[H]/C(=C1/C(=O)C(C([H])([H])[H])(C([H])([H])[H])c2oc3c(c([H])c(Br)c([H])c3c2[H])C(=O)N1[H])C([H])([H])N([H])C(C([H])([H])[H])(C([H])([H])[H])C([H])([H])C([H])([H])[H]
     RDKit          3D

 52 54  0  0  0  0  0  0  0  0999 V2000
    5.6757   -0.2910    1.4290 C   0  0  0  0  0  0  0  0  0  0  0  0
    4.4085   -0.8964    0.9440 C   0  0  0  0  0  0  0  0  0  0  0  0
    3.8925   -0.2751   -0.3175 C   0  0  0  0  0  0  0  0  0  0  0  0
    4.9601   -0.4538   -1.4106 C   0  0  0  0  0  0  0  0  0  0  0  0
    3.7749    1.2133   -0.0910 C   0  0  0  0  0  0  0  0  0  0  0  0
    2.6994   -0.7938   -0.8301 N   0  0  0  0  0  0  0  0  0  0  0  0
    1.4958   -0.6978   -0.0671 C   0  0  0  0  0  0  0  0  0  0  0  0
    0.3387   -1.3458   -0.6632 C   0  0  0  0  0  0  0  0  0  0  0  0
   -0.8719   -0.7533   -1.0529 C   0  0  0  0  0  0  0  0  0  0  0  0
   -1.7748   -1.6860   -1.5919 N   0  0  0  0  0  0  0  0  0  0  0  0
   -3.0390   -2.3132   -1.4289 C   0  0  0  0  0  0  0  0  0  0  0  0
   -3.3912   -3.3802   -2.0476 O   0  0  0  0  0  0  0  0  0  0  0  0
   -4.1176   -1.8603   -0.5563 C   0  0  0  0  0  0  0  0  0  0  0  0
   -5.2789   -2.4274   -0.1538 C   0  0  0  0  0  0  0  0  0  0  0  0
   -6.1651   -1.7676    0.7113 C   0  0  0  0  0  0  0  0  0  0  0  0
   -7.7649   -2.6337    1.2207 Br  0  0  0  0  0  0  0  0  0  0  0  0
   -5.8692   -0.4784    1.1944 C   0  0  0  0  0  0  0  0  0  0  0  0
   -4.6997    0.1332    0.8101 C   0  0  0  0  0  0  0  0  0  0  0  0
   -3.9786    1.3263    0.9957 C   0  0  0  0  0  0  0  0  0  0  0  0
   -2.8353    1.2018    0.2534 C   0  0  0  0  0  0  0  0  0  0  0  0
   -2.9092    0.0385   -0.3025 O   0  0  0  0  0  0  0  0  0  0  0  0
   -3.9197   -0.5737   -0.0162 C   0  0  0  0  0  0  0  0  0  0  0  0
   -1.5551    1.7844   -0.2043 C   0  0  0  0  0  0  0  0  0  0  0  0
   -1.8761    2.8378   -1.2221 C   0  0  0  0  0  0  0  0  0  0  0  0
   -0.7336    2.4052    0.8681 C   0  0  0  0  0  0  0  0  0  0  0  0
   -0.7467    0.6598   -0.8367 C   0  0  0  0  0  0  0  0  0  0  0  0
    0.3682    1.2573   -1.2817 O   0  0  0  0  0  0  0  0  0  0  0  0
    6.5216   -1.0410    1.4718 H   0  0  0  0  0  0  0  0  0  0  0  0
    6.0716    0.5545    0.8749 H   0  0  0  0  0  0  0  0  0  0  0  0
    5.5998    0.0573    2.5024 H   0  0  0  0  0  0  0  0  0  0  0  0
    4.6014   -1.9980    0.7945 H   0  0  0  0  0  0  0  0  0  0  0  0
    3.6317   -0.7403    1.7296 H   0  0  0  0  0  0  0  0  0  0  0  0
    4.8743   -1.4337   -1.8827 H   0  0  0  0  0  0  0  0  0  0  0  0
    5.9602   -0.2167   -1.0277 H   0  0  0  0  0  0  0  0  0  0  0  0
    4.7101    0.3113   -2.1759 H   0  0  0  0  0  0  0  0  0  0  0  0
    3.2137    1.6397   -0.9577 H   0  0  0  0  0  0  0  0  0  0  0  0
    3.1951    1.4127    0.8298 H   0  0  0  0  0  0  0  0  0  0  0  0
    4.7456    1.7446   -0.0962 H   0  0  0  0  0  0  0  0  0  0  0  0
    2.6143   -0.5384   -1.8276 H   0  0  0  0  0  0  0  0  0  0  0  0
    1.3800    0.1956    0.5354 H   0  0  0  0  0  0  0  0  0  0  0  0
    1.7365   -1.4112    0.8195 H   0  0  0  0  0  0  0  0  0  0  0  0
    0.4733   -2.4383   -0.8369 H   0  0  0  0  0  0  0  0  0  0  0  0
   -1.3418   -2.1761   -2.5221 H   0  0  0  0  0  0  0  0  0  0  0  0
   -5.5025   -3.4282   -0.5266 H   0  0  0  0  0  0  0  0  0  0  0  0
   -6.5031    0.0784    1.8567 H   0  0  0  0  0  0  0  0  0  0  0  0
   -4.2706    2.1519    1.5945 H   0  0  0  0  0  0  0  0  0  0  0  0
   -2.8447    3.3044   -0.9188 H   0  0  0  0  0  0  0  0  0  0  0  0
   -2.0916    2.3615   -2.2194 H   0  0  0  0  0  0  0  0  0  0  0  0
   -1.1288    3.6391   -1.2812 H   0  0  0  0  0  0  0  0  0  0  0  0
   -0.3066    1.6371    1.5776 H   0  0  0  0  0  0  0  0  0  0  0  0
   -1.4476    2.9915    1.5190 H   0  0  0  0  0  0  0  0  0  0  0  0
    0.0208    3.1122    0.5196 H   0  0  0  0  0  0  0  0  0  0  0  0
  1  2  1  0
  2  3  1  0
  3  4  1  0
  3  5  1  0
  3  6  1  0
  6  7  1  0
  7  8  1  0
  8  9  2  0
  9 10  1  0
 10 11  1  0
 11 12  2  0
 11 13  1  0
 13 14  2  0
 14 15  1  0
 15 16  1  0
 15 17  2  0
 17 18  1  0
 18 19  1  0
 19 20  2  0
 20 21  1  0
 21 22  1  0
 20 23  1  0
 23 24  1  0
 23 25  1  0
 23 26  1  0
 26 27  2  0
 26  9  1  0
 22 13  1  0
 22 18  2  0
  1 28  1  0
  1 29  1  0
  1 30  1  0
  2 31  1  0
  2 32  1  0
  4 33  1  0
  4 34  1  0
  4 35  1  0
  5 36  1  0
  5 37  1  0
  5 38  1  0
  6 39  1  0
  7 40  1  0
  7 41  1  0
  8 42  1  0
 10 43  1  0
 14 44  1  0
 17 45  1  0
 19 46  1  0
 24 47  1  0
 24 48  1  0
 24 49  1  0
 25 50  1  0
 25 51  1  0
 25 52  1  0
M  END
$$$$
[H]c1nc(N([H])C(=O)OC([H])([H])[H])c([H])c(-c2c([H])c([H])c(C(=O)N(C([H])([H])[H])[C@@]([H])(C([H])([H])[H])C([H])([H])C(=O)N([H])[C@]([H])(C(=O)N([H])[H])C([H])([H])c3c([H])c([H])c([H])c([H])c3[H])c([H])c2[H])c1[H]
     RDKit          3D

 69 71  0  0  0  0  0  0  0  0999 V2000
    6.2374   -1.9644   -3.1780 C   0  0  0  0  0  0  0  0  0  0  0  0
    6.5447   -0.9029   -2.3228 O   0  0  0  0  0  0  0  0  0  0  0  0
    7.6555   -0.1019   -2.3803 C   0  0  0  0  0  0  0  0  0  0  0  0
    8.4688   -0.3916   -3.3354 O   0  0  0  0  0  0  0  0  0  0  0  0
    7.9896    0.9524   -1.5461 N   0  0  0  0  0  0  0  0  0  0  0  0
    7.2438    1.4428   -0.4561 C   0  0  0  0  0  0  0  0  0  0  0  0
    6.0284    0.9746   -0.0371 C   0  0  0  0  0  0  0  0  0  0  0  0
    5.3272    1.4990    1.0702 C   0  0  0  0  0  0  0  0  0  0  0  0
    5.9099    2.5236    1.7447 C   0  0  0  0  0  0  0  0  0  0  0  0
    7.1331    3.0096    1.3395 C   0  0  0  0  0  0  0  0  0  0  0  0
    7.7521    2.4773    0.2835 N   0  0  0  0  0  0  0  0  0  0  0  0
    4.0408    0.9199    1.4164 C   0  0  0  0  0  0  0  0  0  0  0  0
    3.8084   -0.3958    1.1931 C   0  0  0  0  0  0  0  0  0  0  0  0
    2.5532   -0.9625    1.5033 C   0  0  0  0  0  0  0  0  0  0  0  0
    1.5349   -0.2317    2.0328 C   0  0  0  0  0  0  0  0  0  0  0  0
    1.8249    1.1362    2.2505 C   0  0  0  0  0  0  0  0  0  0  0  0
    3.0530    1.6907    1.9455 C   0  0  0  0  0  0  0  0  0  0  0  0
    0.2185   -0.7120    2.3247 C   0  0  0  0  0  0  0  0  0  0  0  0
   -0.5140    0.1693    2.9555 O   0  0  0  0  0  0  0  0  0  0  0  0
   -0.4633   -1.8953    2.0860 N   0  0  0  0  0  0  0  0  0  0  0  0
    0.2450   -3.0285    1.4779 C   0  0  0  0  0  0  0  0  0  0  0  0
   -1.9023   -2.0425    2.2927 C   0  0  1  0  0  0  0  0  0  0  0  0
   -2.4100   -1.7259    3.6343 C   0  0  0  0  0  0  0  0  0  0  0  0
   -2.7697   -1.6739    1.1591 C   0  0  0  0  0  0  0  0  0  0  0  0
   -2.9171   -0.4051    0.5489 C   0  0  0  0  0  0  0  0  0  0  0  0
   -2.6838    0.7216    0.9915 O   0  0  0  0  0  0  0  0  0  0  0  0
   -3.4239   -0.3852   -0.8200 N   0  0  0  0  0  0  0  0  0  0  0  0
   -3.6232    0.8240   -1.5632 C   0  0  1  0  0  0  0  0  0  0  0  0
   -4.7844    1.6655   -1.0440 C   0  0  0  0  0  0  0  0  0  0  0  0
   -6.0612    0.8864   -1.1294 C   0  0  0  0  0  0  0  0  0  0  0  0
   -6.5381    0.1065   -0.0997 C   0  0  0  0  0  0  0  0  0  0  0  0
   -7.7248   -0.6065   -0.2223 C   0  0  0  0  0  0  0  0  0  0  0  0
   -8.4589   -0.5531   -1.3806 C   0  0  0  0  0  0  0  0  0  0  0  0
   -7.9853    0.2278   -2.4169 C   0  0  0  0  0  0  0  0  0  0  0  0
   -6.8072    0.9339   -2.2903 C   0  0  0  0  0  0  0  0  0  0  0  0
   -2.4043    1.6256   -1.7975 C   0  0  0  0  0  0  0  0  0  0  0  0
   -2.4719    2.8525   -2.4980 N   0  0  0  0  0  0  0  0  0  0  0  0
   -1.2836    1.2484   -1.3898 O   0  0  0  0  0  0  0  0  0  0  0  0
    7.0309   -2.0175   -3.9483 H   0  0  0  0  0  0  0  0  0  0  0  0
    6.2418   -2.9314   -2.6209 H   0  0  0  0  0  0  0  0  0  0  0  0
    5.2245   -1.7916   -3.6065 H   0  0  0  0  0  0  0  0  0  0  0  0
    8.9080    1.4566   -1.7468 H   0  0  0  0  0  0  0  0  0  0  0  0
    5.5527    0.1683   -0.5600 H   0  0  0  0  0  0  0  0  0  0  0  0
    5.4053    2.9575    2.6060 H   0  0  0  0  0  0  0  0  0  0  0  0
    7.6046    3.8437    1.8838 H   0  0  0  0  0  0  0  0  0  0  0  0
    4.5865   -1.0250    0.7759 H   0  0  0  0  0  0  0  0  0  0  0  0
    2.5087   -1.9992    1.2902 H   0  0  0  0  0  0  0  0  0  0  0  0
    1.0659    1.7605    2.6627 H   0  0  0  0  0  0  0  0  0  0  0  0
    3.1994    2.7622    2.1435 H   0  0  0  0  0  0  0  0  0  0  0  0
    0.5771   -2.8178    0.4577 H   0  0  0  0  0  0  0  0  0  0  0  0
   -0.4661   -3.8965    1.3647 H   0  0  0  0  0  0  0  0  0  0  0  0
    0.9780   -3.3795    2.2074 H   0  0  0  0  0  0  0  0  0  0  0  0
   -1.9961   -3.2280    2.2228 H   0  0  0  0  0  0  0  0  0  0  0  0
   -1.7222   -2.1091    4.4400 H   0  0  0  0  0  0  0  0  0  0  0  0
   -3.3458   -2.3486    3.7850 H   0  0  0  0  0  0  0  0  0  0  0  0
   -2.6102   -0.6660    3.8642 H   0  0  0  0  0  0  0  0  0  0  0  0
   -3.8513   -1.9959    1.4657 H   0  0  0  0  0  0  0  0  0  0  0  0
   -2.6149   -2.4957    0.3329 H   0  0  0  0  0  0  0  0  0  0  0  0
   -3.6437   -1.3026   -1.2606 H   0  0  0  0  0  0  0  0  0  0  0  0
   -4.0054    0.4872   -2.5931 H   0  0  0  0  0  0  0  0  0  0  0  0
   -4.6145    1.9069    0.0178 H   0  0  0  0  0  0  0  0  0  0  0  0
   -4.8802    2.6053   -1.6127 H   0  0  0  0  0  0  0  0  0  0  0  0
   -5.9767    0.0486    0.8375 H   0  0  0  0  0  0  0  0  0  0  0  0
   -8.0965   -1.2170    0.5826 H   0  0  0  0  0  0  0  0  0  0  0  0
   -9.3992   -1.1186   -1.4767 H   0  0  0  0  0  0  0  0  0  0  0  0
   -8.5603    0.2662   -3.3179 H   0  0  0  0  0  0  0  0  0  0  0  0
   -6.4936    1.5262   -3.1396 H   0  0  0  0  0  0  0  0  0  0  0  0
   -2.1102    3.6934   -1.9674 H   0  0  0  0  0  0  0  0  0  0  0  0
   -2.8390    2.9487   -3.4519 H   0  0  0  0  0  0  0  0  0  0  0  0
  1  2  1  0
  2  3  1  0
  3  4  2  0
  3  5  1  0
  5  6  1  0
  6  7  2  0
  7  8  1  0
  8  9  2  0
  9 10  1  0
 10 11  2  0
  8 12  1  0
 12 13  2  0
 13 14  1  0
 14 15  2  0
 15 16  1  0
 16 17  2  0
 15 18  1  0
 18 19  2  0
 18 20  1  0
 20 21  1  0
 20 22  1  0
 22 23  1  0
 22 24  1  0
 24 25  1  0
 25 26  2  0
 25 27  1  0
 27 28  1  0
 28 29  1  0
 29 30  1  0
 30 31  2  0
 31 32  1  0
 32 33  2  0
 33 34  1  0
 34 35  2  0
 28 36  1  0
 36 37  1  0
 36 38  2  0
 11  6  1  0
 17 12  1  0
 35 30  1  0
  1 39  1  0
  1 40  1  0
  1 41  1  0
  5 42  1  0
  7 43  1  0
  9 44  1  0
 10 45  1  0
 13 46  1  0
 14 47  1  0
 16 48  1  0
 17 49  1  0
 21 50  1  0
 21 51  1  0
 21 52  1  0
 22 53  1  1
 23 54  1  0
 23 55  1  0
 23 56  1  0
 24 57  1  0
 24 58  1  0
 27 59  1  0
 28 60  1  6
 29 61  1  0
 29 62  1  0
 31 63  1  0
 32 64  1  0
 33 65  1  0
 34 66  1  0
 35 67  1  0
 37 68  1  0
 37 69  1  0
M  END
$$$$
[H]N=C(N([H])[H])C([H])([H])N([H])C(=O)N([H])C([H])([H])C([H])([H])C([H])([H])[C@@]1([H])C(=O)N([H])[C@]([H])(C([H])([H])c2c([H])n([H])c3c([H])c([H])c([H])c([H])c23)C(=O)N([H])[C@@]([H])(C([H])(C([H])([H])[H])C([H])([H])[H])C(=O)N([H])[C@@]([H])(C([H])([H])c2c([H])c([H])c([H])c([H])c2[H])C(=O)N1[H]
     RDKit          3D

 90 93  0  0  0  0  0  0  0  0999 V2000
   -6.0520    0.7430   -1.5069 C   0  0  0  0  0  0  0  0  0  0  0  0
   -5.3812    0.5087   -0.1785 C   0  0  0  0  0  0  0  0  0  0  0  0
   -5.9858    1.4451    0.8280 C   0  0  0  0  0  0  0  0  0  0  0  0
   -3.8497    0.7105   -0.2852 C   0  0  2  0  0  0  0  0  0  0  0  0
   -3.3661   -0.2249   -1.2474 N   0  0  0  0  0  0  0  0  0  0  0  0
   -2.1624   -0.9049   -1.3905 C   0  0  0  0  0  0  0  0  0  0  0  0
   -1.4762   -0.6154   -2.4590 O   0  0  0  0  0  0  0  0  0  0  0  0
   -1.4939   -1.9118   -0.5572 C   0  0  1  0  0  0  0  0  0  0  0  0
   -1.9873   -3.3337   -0.9135 C   0  0  0  0  0  0  0  0  0  0  0  0
   -3.4240   -3.4788   -0.6819 C   0  0  0  0  0  0  0  0  0  0  0  0
   -4.4609   -3.4536   -1.6048 C   0  0  0  0  0  0  0  0  0  0  0  0
   -5.6398   -3.6254   -0.9847 N   0  0  0  0  0  0  0  0  0  0  0  0
   -5.4416   -3.7667    0.3243 C   0  0  0  0  0  0  0  0  0  0  0  0
   -6.3424   -3.9741    1.3602 C   0  0  0  0  0  0  0  0  0  0  0  0
   -5.8739   -4.1014    2.6584 C   0  0  0  0  0  0  0  0  0  0  0  0
   -4.5183   -4.0168    2.8768 C   0  0  0  0  0  0  0  0  0  0  0  0
   -3.6279   -3.8086    1.8317 C   0  0  0  0  0  0  0  0  0  0  0  0
   -4.0912   -3.6806    0.5328 C   0  0  0  0  0  0  0  0  0  0  0  0
   -0.0374   -1.9053   -0.7162 N   0  0  0  0  0  0  0  0  0  0  0  0
    0.7970   -0.9102   -1.2032 C   0  0  0  0  0  0  0  0  0  0  0  0
    1.5044   -1.1797   -2.2570 O   0  0  0  0  0  0  0  0  0  0  0  0
    1.0133    0.4636   -0.6849 C   0  0  2  0  0  0  0  0  0  0  0  0
    2.4410    0.8957   -1.0206 C   0  0  0  0  0  0  0  0  0  0  0  0
    3.4525   -0.0186   -0.3968 C   0  0  0  0  0  0  0  0  0  0  0  0
    4.8707    0.4066   -0.7211 C   0  0  0  0  0  0  0  0  0  0  0  0
    5.7573   -0.5439   -0.0767 N   0  0  0  0  0  0  0  0  0  0  0  0
    7.1696   -0.4495   -0.1694 C   0  0  0  0  0  0  0  0  0  0  0  0
    7.6600    0.4940   -0.8325 O   0  0  0  0  0  0  0  0  0  0  0  0
    8.0517   -1.3684    0.4500 N   0  0  0  0  0  0  0  0  0  0  0  0
    9.4793   -1.2779    0.3621 C   0  0  0  0  0  0  0  0  0  0  0  0
   10.0194   -1.3442   -0.9987 C   0  0  0  0  0  0  0  0  0  0  0  0
    9.7862   -2.4969   -1.8265 N   0  0  0  0  0  0  0  0  0  0  0  0
   10.7116   -0.3868   -1.4915 N   0  0  0  0  0  0  0  0  0  0  0  0
    0.7839    0.5656    0.7433 N   0  0  0  0  0  0  0  0  0  0  0  0
    0.0203    1.5526    1.3992 C   0  0  0  0  0  0  0  0  0  0  0  0
    0.4764    1.9185    2.5274 O   0  0  0  0  0  0  0  0  0  0  0  0
   -1.2203    2.1423    0.8564 C   0  0  2  0  0  0  0  0  0  0  0  0
   -1.2653    3.6421    0.9756 C   0  0  0  0  0  0  0  0  0  0  0  0
   -0.2188    4.3754    0.2790 C   0  0  0  0  0  0  0  0  0  0  0  0
    0.9442    4.7747    0.8828 C   0  0  0  0  0  0  0  0  0  0  0  0
    1.9367    5.4677    0.1791 C   0  0  0  0  0  0  0  0  0  0  0  0
    1.7773    5.7742   -1.1513 C   0  0  0  0  0  0  0  0  0  0  0  0
    0.6142    5.3814   -1.7760 C   0  0  0  0  0  0  0  0  0  0  0  0
   -0.3578    4.6991   -1.0755 C   0  0  0  0  0  0  0  0  0  0  0  0
   -2.3949    1.6463    1.5793 N   0  0  0  0  0  0  0  0  0  0  0  0
   -3.3062    0.6918    1.0589 C   0  0  0  0  0  0  0  0  0  0  0  0
   -3.6496   -0.2235    1.8474 O   0  0  0  0  0  0  0  0  0  0  0  0
   -6.1352   -0.2062   -2.0745 H   0  0  0  0  0  0  0  0  0  0  0  0
   -5.5809    1.5637   -2.0819 H   0  0  0  0  0  0  0  0  0  0  0  0
   -7.0867    1.0698   -1.2950 H   0  0  0  0  0  0  0  0  0  0  0  0
   -5.5701   -0.5376    0.1253 H   0  0  0  0  0  0  0  0  0  0  0  0
   -6.9669    1.0307    1.1369 H   0  0  0  0  0  0  0  0  0  0  0  0
   -5.3689    1.5221    1.7222 H   0  0  0  0  0  0  0  0  0  0  0  0
   -6.2182    2.4493    0.3765 H   0  0  0  0  0  0  0  0  0  0  0  0
   -3.7839    1.7280   -0.7660 H   0  0  0  0  0  0  0  0  0  0  0  0
   -4.1071   -0.4068   -2.0307 H   0  0  0  0  0  0  0  0  0  0  0  0
   -1.6875   -1.8367    0.5253 H   0  0  0  0  0  0  0  0  0  0  0  0
   -1.4545   -4.0578   -0.2652 H   0  0  0  0  0  0  0  0  0  0  0  0
   -1.7946   -3.5082   -1.9888 H   0  0  0  0  0  0  0  0  0  0  0  0
   -4.3468   -3.3153   -2.6783 H   0  0  0  0  0  0  0  0  0  0  0  0
   -6.5966   -3.6496   -1.4376 H   0  0  0  0  0  0  0  0  0  0  0  0
   -7.4053   -4.0395    1.1736 H   0  0  0  0  0  0  0  0  0  0  0  0
   -6.6045   -4.2610    3.4328 H   0  0  0  0  0  0  0  0  0  0  0  0
   -4.1736   -4.1191    3.8972 H   0  0  0  0  0  0  0  0  0  0  0  0
   -2.5782   -3.7487    2.0487 H   0  0  0  0  0  0  0  0  0  0  0  0
    0.4236   -2.8235   -0.4163 H   0  0  0  0  0  0  0  0  0  0  0  0
    0.3722    1.2099   -1.1777 H   0  0  0  0  0  0  0  0  0  0  0  0
    2.6516    1.9190   -0.7076 H   0  0  0  0  0  0  0  0  0  0  0  0
    2.5705    0.8442   -2.1210 H   0  0  0  0  0  0  0  0  0  0  0  0
    3.3583    0.0986    0.7194 H   0  0  0  0  0  0  0  0  0  0  0  0
    3.3798   -1.0742   -0.7016 H   0  0  0  0  0  0  0  0  0  0  0  0
    5.0531    0.3438   -1.8107 H   0  0  0  0  0  0  0  0  0  0  0  0
    5.1174    1.4069   -0.3054 H   0  0  0  0  0  0  0  0  0  0  0  0
    5.3927   -1.3608    0.4985 H   0  0  0  0  0  0  0  0  0  0  0  0
    7.5923   -2.1544    1.0020 H   0  0  0  0  0  0  0  0  0  0  0  0
    9.9284   -2.1115    0.9404 H   0  0  0  0  0  0  0  0  0  0  0  0
    9.8471   -0.3220    0.8303 H   0  0  0  0  0  0  0  0  0  0  0  0
    9.5163   -2.2891   -2.8083 H   0  0  0  0  0  0  0  0  0  0  0  0
    9.8892   -3.4444   -1.4376 H   0  0  0  0  0  0  0  0  0  0  0  0
   10.8912    0.4594   -0.9007 H   0  0  0  0  0  0  0  0  0  0  0  0
    1.2612   -0.2042    1.3088 H   0  0  0  0  0  0  0  0  0  0  0  0
   -1.2713    1.8341   -0.2140 H   0  0  0  0  0  0  0  0  0  0  0  0
   -2.2468    4.0573    0.6624 H   0  0  0  0  0  0  0  0  0  0  0  0
   -1.2002    3.8667    2.0695 H   0  0  0  0  0  0  0  0  0  0  0  0
    1.1554    4.5898    1.9225 H   0  0  0  0  0  0  0  0  0  0  0  0
    2.8603    5.7852    0.6536 H   0  0  0  0  0  0  0  0  0  0  0  0
    2.5607    6.3159   -1.6910 H   0  0  0  0  0  0  0  0  0  0  0  0
    0.5047    5.6297   -2.8191 H   0  0  0  0  0  0  0  0  0  0  0  0
   -1.2747    4.3837   -1.5509 H   0  0  0  0  0  0  0  0  0  0  0  0
   -2.5156    2.0655    2.5450 H   0  0  0  0  0  0  0  0  0  0  0  0
  1  2  1  0
  2  3  1  0
  2  4  1  0
  4  5  1  0
  5  6  1  0
  6  7  2  0
  6  8  1  0
  8  9  1  0
  9 10  1  0
 10 11  2  0
 11 12  1  0
 12 13  1  0
 13 14  2  0
 14 15  1  0
 15 16  2  0
 16 17  1  0
 17 18  2  0
  8 19  1  0
 19 20  1  0
 20 21  2  0
 20 22  1  0
 22 23  1  0
 23 24  1  0
 24 25  1  0
 25 26  1  0
 26 27  1  0
 27 28  2  0
 27 29  1  0
 29 30  1  0
 30 31  1  0
 31 32  1  0
 31 33  2  3
 22 34  1  0
 34 35  1  0
 35 36  2  0
 35 37  1  0
 37 38  1  0
 38 39  1  0
 39 40  2  0
 40 41  1  0
 41 42  2  0
 42 43  1  0
 43 44  2  0
 37 45  1  0
 45 46  1  0
 46 47  2  0
 46  4  1  0
 18 10  1  0
 44 39  1  0
 18 13  1  0
  1 48  1  0
  1 49  1  0
  1 50  1  0
  2 51  1  0
  3 52  1  0
  3 53  1  0
  3 54  1  0
  4 55  1  6
  5 56  1  0
  8 57  1  1
  9 58  1  0
  9 59  1  0
 11 60  1  0
 12 61  1  0
 14 62  1  0
 15 63  1  0
 16 64  1  0
 17 65  1  0
 19 66  1  0
 22 67  1  6
 23 68  1  0
 23 69  1  0
 24 70  1  0
 24 71  1  0
 25 72  1  0
 25 73  1  0
 26 74  1  0
 29 75  1  0
 30 76  1  0
 30 77  1  0
 32 78  1  0
 32 79  1  0
 33 80  1  0
 34 81  1  0
 37 82  1  6
 38 83  1  0
 38 84  1  0
 40 85  1  0
 41 86  1  0
 42 87  1  0
 43 88  1  0
 44 89  1  0
 45 90  1  0
M  END
$$$$
[H]O[C@@]1([H])C([H])([H])[C@@]([H])(OC([H])([H])c2c([H])c([H])c(F)c([H])c2[H])C([H])([H])[C@@]1([H])OC([H])([H])[C@]1([H])C([H])([H])[C@]2([H])N([H])C(=O)[C@]([H])(C(=O)OC([H])([H])[H])C([H])([H])[C@]1([H])C2([H])[H]
     RDKit          3D

 61 64  0  0  0  0  0  0  0  0999 V2000
    5.1925    3.4002   -2.2623 C   0  0  0  0  0  0  0  0  0  0  0  0
    5.2317    2.1774   -1.5649 O   0  0  0  0  0  0  0  0  0  0  0  0
    4.1956    1.2686   -1.5184 C   0  0  0  0  0  0  0  0  0  0  0  0
    3.1459    1.5514   -2.1408 O   0  0  0  0  0  0  0  0  0  0  0  0
    4.2759   -0.0151   -0.7689 C   0  0  2  0  0  0  0  0  0  0  0  0
    2.9543   -0.7478   -0.9475 C   0  0  0  0  0  0  0  0  0  0  0  0
    2.5689   -1.2134    0.3191 C   0  0  1  0  0  0  0  0  0  0  0  0
    1.6469   -1.9171    1.0938 C   0  0  2  0  0  0  0  0  0  0  0  0
    0.3011   -1.3616    1.3910 C   0  0  0  0  0  0  0  0  0  0  0  0
   -0.5205   -1.1075    0.4500 O   0  0  0  0  0  0  0  0  0  0  0  0
   -0.6942   -0.3412   -0.5571 C   0  0  2  0  0  0  0  0  0  0  0  0
   -1.9279    0.5764   -0.5274 C   0  0  0  0  0  0  0  0  0  0  0  0
   -3.0088   -0.4206   -0.8956 C   0  0  2  0  0  0  0  0  0  0  0  0
   -3.4911   -0.9578    0.2577 O   0  0  0  0  0  0  0  0  0  0  0  0
   -4.8136   -0.7794    0.5407 C   0  0  0  0  0  0  0  0  0  0  0  0
   -5.2843    0.5931    0.6774 C   0  0  0  0  0  0  0  0  0  0  0  0
   -5.1496    1.2742    1.8595 C   0  0  0  0  0  0  0  0  0  0  0  0
   -5.5982    2.5748    1.9938 C   0  0  0  0  0  0  0  0  0  0  0  0
   -6.1877    3.2051    0.9398 C   0  0  0  0  0  0  0  0  0  0  0  0
   -6.6500    4.4955    1.0213 F   0  0  0  0  0  0  0  0  0  0  0  0
   -6.3406    2.5530   -0.2638 C   0  0  0  0  0  0  0  0  0  0  0  0
   -5.8785    1.2343   -0.3782 C   0  0  0  0  0  0  0  0  0  0  0  0
   -2.3458   -1.4281   -1.8086 C   0  0  0  0  0  0  0  0  0  0  0  0
   -0.8901   -0.9580   -1.9272 C   0  0  2  0  0  0  0  0  0  0  0  0
   -0.1651   -2.1080   -2.1437 O   0  0  0  0  0  0  0  0  0  0  0  0
    2.4755   -1.8587    2.4567 C   0  0  0  0  0  0  0  0  0  0  0  0
    3.9175   -1.7523    2.0292 C   0  0  2  0  0  0  0  0  0  0  0  0
    4.4690   -0.4271    1.8470 N   0  0  0  0  0  0  0  0  0  0  0  0
    4.6265    0.3627    0.6466 C   0  0  0  0  0  0  0  0  0  0  0  0
    5.1204    1.4936    0.8692 O   0  0  0  0  0  0  0  0  0  0  0  0
    3.7218   -2.2353    0.6106 C   0  0  0  0  0  0  0  0  0  0  0  0
    6.0878    3.9804   -1.9327 H   0  0  0  0  0  0  0  0  0  0  0  0
    5.2624    3.2619   -3.3640 H   0  0  0  0  0  0  0  0  0  0  0  0
    4.2513    3.9193   -2.0024 H   0  0  0  0  0  0  0  0  0  0  0  0
    5.1323   -0.5573   -1.2415 H   0  0  0  0  0  0  0  0  0  0  0  0
    2.2329   -0.1569   -1.5089 H   0  0  0  0  0  0  0  0  0  0  0  0
    3.2028   -1.6131   -1.6433 H   0  0  0  0  0  0  0  0  0  0  0  0
    2.6186   -0.2573    0.9231 H   0  0  0  0  0  0  0  0  0  0  0  0
    1.5972   -3.0292    0.8794 H   0  0  0  0  0  0  0  0  0  0  0  0
   -0.1499   -1.9088    2.3026 H   0  0  0  0  0  0  0  0  0  0  0  0
    0.5526   -0.3551    1.9338 H   0  0  0  0  0  0  0  0  0  0  0  0
    0.1454    0.4057   -0.6875 H   0  0  0  0  0  0  0  0  0  0  0  0
   -1.8554    1.3592   -1.3107 H   0  0  0  0  0  0  0  0  0  0  0  0
   -2.0714    1.0412    0.4472 H   0  0  0  0  0  0  0  0  0  0  0  0
   -3.7382    0.1244   -1.5213 H   0  0  0  0  0  0  0  0  0  0  0  0
   -4.9875   -1.2750    1.5436 H   0  0  0  0  0  0  0  0  0  0  0  0
   -5.4862   -1.3722   -0.1438 H   0  0  0  0  0  0  0  0  0  0  0  0
   -4.6809    0.8023    2.7308 H   0  0  0  0  0  0  0  0  0  0  0  0
   -5.5001    3.1267    2.9186 H   0  0  0  0  0  0  0  0  0  0  0  0
   -6.8085    3.0475   -1.1067 H   0  0  0  0  0  0  0  0  0  0  0  0
   -6.0322    0.7868   -1.3480 H   0  0  0  0  0  0  0  0  0  0  0  0
   -2.3817   -2.4455   -1.4267 H   0  0  0  0  0  0  0  0  0  0  0  0
   -2.7499   -1.4152   -2.8369 H   0  0  0  0  0  0  0  0  0  0  0  0
   -0.7576   -0.2413   -2.7345 H   0  0  0  0  0  0  0  0  0  0  0  0
   -0.6305   -2.9343   -1.8591 H   0  0  0  0  0  0  0  0  0  0  0  0
    2.3419   -2.8085    2.9817 H   0  0  0  0  0  0  0  0  0  0  0  0
    2.1336   -0.9874    3.0183 H   0  0  0  0  0  0  0  0  0  0  0  0
    4.5856   -2.4128    2.6111 H   0  0  0  0  0  0  0  0  0  0  0  0
    4.8117    0.0549    2.6866 H   0  0  0  0  0  0  0  0  0  0  0  0
    4.6267   -2.0198    0.0638 H   0  0  0  0  0  0  0  0  0  0  0  0
    3.3497   -3.2515    0.5239 H   0  0  0  0  0  0  0  0  0  0  0  0
  1  2  1  0
  2  3  1  0
  3  4  2  0
  3  5  1  0
  5  6  1  0
  6  7  1  0
  7  8  1  0
  8  9  1  0
  9 10  1  0
 10 11  1  0
 11 12  1  0
 12 13  1  0
 13 14  1  0
 14 15  1  0
 15 16  1  0
 16 17  2  0
 17 18  1  0
 18 19  2  0
 19 20  1  0
 19 21  1  0
 21 22  2  0
 13 23  1  0
 23 24  1  0
 24 25  1  0
  8 26  1  0
 26 27  1  0
 27 28  1  0
 28 29  1  0
 29 30  2  0
 27 31  1  0
 29  5  1  0
 31  7  1  0
 24 11  1  0
 22 16  1  0
  1 32  1  0
  1 33  1  0
  1 34  1  0
  5 35  1  6
  6 36  1  0
  6 37  1  0
  7 38  1  1
  8 39  1  6
  9 40  1  0
  9 41  1  0
 11 42  1  6
 12 43  1  0
 12 44  1  0
 13 45  1  6
 15 46  1  0
 15 47  1  0
 17 48  1  0
 18 49  1  0
 21 50  1  0
 22 51  1  0
 23 52  1  0
 23 53  1  0
 24 54  1  6
 25 55  1  0
 26 56  1  0
 26 57  1  0
 27 58  1  1
 28 59  1  0
 31 60  1  0
 31 61  1  0
M  END
$$$$
[H]C([H])=C([H])C(=O)N1C([H])([H])C([H])([H])C([H])([H])[C@@]([H])(n2nc(C(=O)N([H])c3c([H])c(Cl)c(OC(=O)N(C([H])([H])[H])C([H])([H])[H])c([H])c3Cl)c3c(N([H])[H])nc([H])nc32)C1([H])[H]
     RDKit          3D

 61 64  0  0  0  0  0  0  0  0999 V2000
    9.2307    0.8656   -1.6443 C   0  0  0  0  0  0  0  0  0  0  0  0
    8.4150   -0.1758   -2.2086 N   0  0  0  0  0  0  0  0  0  0  0  0
    8.9409   -1.1252   -3.1620 C   0  0  0  0  0  0  0  0  0  0  0  0
    7.0388   -0.2704   -1.8096 C   0  0  0  0  0  0  0  0  0  0  0  0
    6.2811   -1.1608   -2.2712 O   0  0  0  0  0  0  0  0  0  0  0  0
    6.4912    0.6195   -0.8969 O   0  0  0  0  0  0  0  0  0  0  0  0
    5.1650    0.5413   -0.5019 C   0  0  0  0  0  0  0  0  0  0  0  0
    4.1615    1.2006   -1.1545 C   0  0  0  0  0  0  0  0  0  0  0  0
    2.8606    1.1006   -0.7362 C   0  0  0  0  0  0  0  0  0  0  0  0
    1.5881    1.9519   -1.5834 Cl  0  0  0  0  0  0  0  0  0  0  0  0
    2.4743    0.3259    0.3745 C   0  0  0  0  0  0  0  0  0  0  0  0
    1.1312    0.2653    0.7474 N   0  0  0  0  0  0  0  0  0  0  0  0
    0.5680   -0.4451    1.8388 C   0  0  0  0  0  0  0  0  0  0  0  0
    1.2922   -1.1027    2.5796 O   0  0  0  0  0  0  0  0  0  0  0  0
   -0.8814   -0.3581    2.0376 C   0  0  0  0  0  0  0  0  0  0  0  0
   -1.7478    0.0725    1.0741 N   0  0  0  0  0  0  0  0  0  0  0  0
   -2.9761    0.0860    1.4785 N   0  0  0  0  0  0  0  0  0  0  0  0
   -4.2047    0.4588    0.8151 C   0  0  2  0  0  0  0  0  0  0  0  0
   -5.0078   -0.8026    0.5249 C   0  0  0  0  0  0  0  0  0  0  0  0
   -6.3562   -0.4577   -0.0787 C   0  0  0  0  0  0  0  0  0  0  0  0
   -6.2695    0.8891   -0.8063 C   0  0  0  0  0  0  0  0  0  0  0  0
   -4.9948    0.9193   -1.4160 N   0  0  0  0  0  0  0  0  0  0  0  0
   -3.8927    1.2427   -0.4523 C   0  0  0  0  0  0  0  0  0  0  0  0
   -4.6397    0.6487   -2.7189 C   0  0  0  0  0  0  0  0  0  0  0  0
   -3.3574    0.8584   -3.0398 O   0  0  0  0  0  0  0  0  0  0  0  0
   -5.4038    0.1752   -3.8064 C   0  0  0  0  0  0  0  0  0  0  0  0
   -6.6528   -0.1613   -3.8431 C   0  0  0  0  0  0  0  0  0  0  0  0
   -2.9498   -0.3505    2.7668 C   0  0  0  0  0  0  0  0  0  0  0  0
   -3.9173   -0.5289    3.6739 N   0  0  0  0  0  0  0  0  0  0  0  0
   -3.6551   -0.9673    4.9146 C   0  0  0  0  0  0  0  0  0  0  0  0
   -2.3935   -1.2375    5.2686 N   0  0  0  0  0  0  0  0  0  0  0  0
   -1.3426   -1.0836    4.4041 C   0  0  0  0  0  0  0  0  0  0  0  0
   -0.0346   -1.3696    4.8777 N   0  0  0  0  0  0  0  0  0  0  0  0
   -1.6229   -0.6360    3.1362 C   0  0  0  0  0  0  0  0  0  0  0  0
    3.5041   -0.3200    1.0035 C   0  0  0  0  0  0  0  0  0  0  0  0
    4.8467   -0.2254    0.5833 C   0  0  0  0  0  0  0  0  0  0  0  0
    6.1071   -1.0912    1.4527 Cl  0  0  0  0  0  0  0  0  0  0  0  0
    9.7357    0.5033   -0.7068 H   0  0  0  0  0  0  0  0  0  0  0  0
    8.5859    1.7328   -1.3873 H   0  0  0  0  0  0  0  0  0  0  0  0
   10.0000    1.1976   -2.3820 H   0  0  0  0  0  0  0  0  0  0  0  0
    9.4773   -0.5533   -3.9699 H   0  0  0  0  0  0  0  0  0  0  0  0
    9.6990   -1.7994   -2.6733 H   0  0  0  0  0  0  0  0  0  0  0  0
    8.1099   -1.7081   -3.6118 H   0  0  0  0  0  0  0  0  0  0  0  0
    4.4272    1.8121   -2.0225 H   0  0  0  0  0  0  0  0  0  0  0  0
    0.4260    0.8124    0.1519 H   0  0  0  0  0  0  0  0  0  0  0  0
   -4.8622    1.0962    1.4380 H   0  0  0  0  0  0  0  0  0  0  0  0
   -4.4247   -1.4626   -0.1259 H   0  0  0  0  0  0  0  0  0  0  0  0
   -5.2145   -1.2574    1.5152 H   0  0  0  0  0  0  0  0  0  0  0  0
   -7.1608   -0.3590    0.6688 H   0  0  0  0  0  0  0  0  0  0  0  0
   -6.6674   -1.2091   -0.8264 H   0  0  0  0  0  0  0  0  0  0  0  0
   -6.2821    1.6366    0.0838 H   0  0  0  0  0  0  0  0  0  0  0  0
   -7.1555    1.0644   -1.3826 H   0  0  0  0  0  0  0  0  0  0  0  0
   -3.9974    2.3126   -0.2136 H   0  0  0  0  0  0  0  0  0  0  0  0
   -2.9161    1.0473   -0.8773 H   0  0  0  0  0  0  0  0  0  0  0  0
   -4.8589    0.0725   -4.7866 H   0  0  0  0  0  0  0  0  0  0  0  0
   -7.0968   -0.5209   -4.8198 H   0  0  0  0  0  0  0  0  0  0  0  0
   -7.3824   -0.1793   -3.0698 H   0  0  0  0  0  0  0  0  0  0  0  0
   -4.4954   -1.0849    5.5872 H   0  0  0  0  0  0  0  0  0  0  0  0
    0.5290   -0.5460    5.2215 H   0  0  0  0  0  0  0  0  0  0  0  0
    0.3695   -2.3494    4.9103 H   0  0  0  0  0  0  0  0  0  0  0  0
    3.3589   -0.9418    1.8573 H   0  0  0  0  0  0  0  0  0  0  0  0
  1  2  1  0
  2  3  1  0
  2  4  1  0
  4  5  2  0
  4  6  1  0
  6  7  1  0
  7  8  2  0
  8  9  1  0
  9 10  1  0
  9 11  2  0
 11 12  1  0
 12 13  1  0
 13 14  2  0
 13 15  1  0
 15 16  2  0
 16 17  1  0
 17 18  1  0
 18 19  1  0
 19 20  1  0
 20 21  1  0
 21 22  1  0
 22 23  1  0
 22 24  1  0
 24 25  2  0
 24 26  1  0
 26 27  2  3
 17 28  1  0
 28 29  2  0
 29 30  1  0
 30 31  2  0
 31 32  1  0
 32 33  1  0
 32 34  2  0
 11 35  1  0
 35 36  2  0
 36 37  1  0
 36  7  1  0
 34 15  1  0
 23 18  1  0
 34 28  1  0
  1 38  1  0
  1 39  1  0
  1 40  1  0
  3 41  1  0
  3 42  1  0
  3 43  1  0
  8 44  1  0
 12 45  1  0
 18 46  1  1
 19 47  1  0
 19 48  1  0
 20 49  1  0
 20 50  1  0
 21 51  1  0
 21 52  1  0
 23 53  1  0
 23 54  1  0
 26 55  1  0
 27 56  1  0
 27 57  1  0
 30 58  1  0
 33 59  1  0
 33 60  1  0
 35 61  1  0
M  END
$$$$
[H]c1c([H])c([H])c(C#Cc2c([H])c(C(=O)N([H])c3c([H])c([H])c([H])c(C([H])([H])N4C([H])([H])C([H])([H])N(C([H])([H])[H])C([H])([H])C4([H])[H])c3C(F)(F)F)c([H])c([H])c2C([H])([H])[H])c([H])c1[H]
     RDKit          3D

 64 67  0  0  0  0  0  0  0  0999 V2000
   -8.0968    0.0150   -1.1010 C   0  0  0  0  0  0  0  0  0  0  0  0
   -8.2113    0.5440    0.2257 N   0  0  0  0  0  0  0  0  0  0  0  0
   -7.6667    1.8896    0.3112 C   0  0  0  0  0  0  0  0  0  0  0  0
   -6.1801    1.9604    0.2009 C   0  0  0  0  0  0  0  0  0  0  0  0
   -5.6062    0.5721    0.3428 N   0  0  0  0  0  0  0  0  0  0  0  0
   -4.1748    0.8574    0.5346 C   0  0  0  0  0  0  0  0  0  0  0  0
   -3.3913   -0.3906    0.5048 C   0  0  0  0  0  0  0  0  0  0  0  0
   -4.0162   -1.6004    0.3212 C   0  0  0  0  0  0  0  0  0  0  0  0
   -3.3483   -2.7973    0.2905 C   0  0  0  0  0  0  0  0  0  0  0  0
   -2.0065   -2.8291    0.4384 C   0  0  0  0  0  0  0  0  0  0  0  0
   -1.2724   -1.6230    0.6256 C   0  0  0  0  0  0  0  0  0  0  0  0
    0.0803   -1.7006    0.4956 N   0  0  0  0  0  0  0  0  0  0  0  0
    1.4056   -1.7767    0.3684 C   0  0  0  0  0  0  0  0  0  0  0  0
    2.1275   -2.6978    1.0020 O   0  0  0  0  0  0  0  0  0  0  0  0
    2.2895   -0.9212   -0.4582 C   0  0  0  0  0  0  0  0  0  0  0  0
    1.8063   -0.2761   -1.5515 C   0  0  0  0  0  0  0  0  0  0  0  0
    2.6566    0.5230   -2.3418 C   0  0  0  0  0  0  0  0  0  0  0  0
    3.9705    0.6534   -2.0137 C   0  0  0  0  0  0  0  0  0  0  0  0
    4.8608    1.5152   -2.8716 C   0  0  0  0  0  0  0  0  0  0  0  0
    4.4724    0.0100   -0.9155 C   0  0  0  0  0  0  0  0  0  0  0  0
    3.6037   -0.7784   -0.1460 C   0  0  0  0  0  0  0  0  0  0  0  0
    5.8581    0.1248   -0.5628 C   0  0  0  0  0  0  0  0  0  0  0  0
    7.0484    0.1960   -0.2680 C   0  0  0  0  0  0  0  0  0  0  0  0
    8.4463    0.2473    0.0625 C   0  0  0  0  0  0  0  0  0  0  0  0
    9.4367    0.4326   -0.8900 C   0  0  0  0  0  0  0  0  0  0  0  0
   10.7868    0.4703   -0.5374 C   0  0  0  0  0  0  0  0  0  0  0  0
   11.1640    0.3249    0.7669 C   0  0  0  0  0  0  0  0  0  0  0  0
   10.1917    0.1409    1.7230 C   0  0  0  0  0  0  0  0  0  0  0  0
    8.8731    0.1035    1.3737 C   0  0  0  0  0  0  0  0  0  0  0  0
   -2.0032   -0.4185    0.6589 C   0  0  0  0  0  0  0  0  0  0  0  0
   -1.3366    0.8760    0.8921 C   0  0  0  0  0  0  0  0  0  0  0  0
   -1.4359    1.7075   -0.1951 F   0  0  0  0  0  0  0  0  0  0  0  0
   -0.0292    0.8081    1.2939 F   0  0  0  0  0  0  0  0  0  0  0  0
   -2.0137    1.5780    1.9320 F   0  0  0  0  0  0  0  0  0  0  0  0
   -6.2299    0.1558    1.6088 C   0  0  0  0  0  0  0  0  0  0  0  0
   -7.6374   -0.3164    1.2532 C   0  0  0  0  0  0  0  0  0  0  0  0
   -8.0022    0.8619   -1.8443 H   0  0  0  0  0  0  0  0  0  0  0  0
   -7.2185   -0.6346   -1.2742 H   0  0  0  0  0  0  0  0  0  0  0  0
   -9.0148   -0.5272   -1.4202 H   0  0  0  0  0  0  0  0  0  0  0  0
   -8.0430    2.3376    1.2559 H   0  0  0  0  0  0  0  0  0  0  0  0
   -8.1123    2.4656   -0.5269 H   0  0  0  0  0  0  0  0  0  0  0  0
   -5.7828    2.3701   -0.7275 H   0  0  0  0  0  0  0  0  0  0  0  0
   -5.7996    2.4604    1.1355 H   0  0  0  0  0  0  0  0  0  0  0  0
   -4.1743    1.2979    1.5899 H   0  0  0  0  0  0  0  0  0  0  0  0
   -3.8512    1.6528   -0.1226 H   0  0  0  0  0  0  0  0  0  0  0  0
   -5.0970   -1.6079    0.1575 H   0  0  0  0  0  0  0  0  0  0  0  0
   -3.9353   -3.7205    0.1438 H   0  0  0  0  0  0  0  0  0  0  0  0
   -1.4378   -3.7380    0.4111 H   0  0  0  0  0  0  0  0  0  0  0  0
    0.1175   -2.5724    1.5354 H   0  0  0  0  0  0  0  0  0  0  0  0
    0.7918   -0.3282   -1.8667 H   0  0  0  0  0  0  0  0  0  0  0  0
    2.2737    1.0360   -3.2132 H   0  0  0  0  0  0  0  0  0  0  0  0
    4.5279    2.5745   -2.8267 H   0  0  0  0  0  0  0  0  0  0  0  0
    5.9159    1.3626   -2.6322 H   0  0  0  0  0  0  0  0  0  0  0  0
    4.7412    1.2131   -3.9441 H   0  0  0  0  0  0  0  0  0  0  0  0
    4.0100   -1.2817    0.7239 H   0  0  0  0  0  0  0  0  0  0  0  0
    9.1171    0.5437   -1.9105 H   0  0  0  0  0  0  0  0  0  0  0  0
   11.5492    0.6241   -1.3090 H   0  0  0  0  0  0  0  0  0  0  0  0
   12.2287    0.3582    1.0529 H   0  0  0  0  0  0  0  0  0  0  0  0
   10.4893    0.0303    2.7526 H   0  0  0  0  0  0  0  0  0  0  0  0
    8.1018   -0.0472    2.1434 H   0  0  0  0  0  0  0  0  0  0  0  0
   -6.3379    1.0265    2.3126 H   0  0  0  0  0  0  0  0  0  0  0  0
   -5.7032   -0.6075    2.1609 H   0  0  0  0  0  0  0  0  0  0  0  0
   -8.2798   -0.4682    2.1185 H   0  0  0  0  0  0  0  0  0  0  0  0
   -7.4962   -1.3085    0.7504 H   0  0  0  0  0  0  0  0  0  0  0  0
  1  2  1  0
  2  3  1  0
  3  4  1  0
  4  5  1  0
  5  6  1  0
  6  7  1  0
  7  8  2  0
  8  9  1  0
  9 10  2  0
 10 11  1  0
 11 12  1  0
 12 13  1  0
 13 14  2  0
 13 15  1  0
 15 16  2  0
 16 17  1  0
 17 18  2  0
 18 19  1  0
 18 20  1  0
 20 21  2  0
 20 22  1  0
 22 23  3  0
 23 24  1  0
 24 25  2  0
 25 26  1  0
 26 27  2  0
 27 28  1  0
 28 29  2  0
 11 30  2  0
 30 31  1  0
 31 32  1  0
 31 33  1  0
 31 34  1  0
  5 35  1  0
 35 36  1  0
 36  2  1  0
 30  7  1  0
 21 15  1  0
 29 24  1  0
  1 37  1  0
  1 38  1  0
  1 39  1  0
  3 40  1  0
  3 41  1  0
  4 42  1  0
  4 43  1  0
  6 44  1  0
  6 45  1  0
  8 46  1  0
  9 47  1  0
 10 48  1  0
 12 49  1  0
 16 50  1  0
 17 51  1  0
 19 52  1  0
 19 53  1  0
 19 54  1  0
 21 55  1  0
 25 56  1  0
 26 57  1  0
 27 58  1  0
 28 59  1  0
 29 60  1  0
 35 61  1  0
 35 62  1  0
 36 63  1  0
 36 64  1  0
M  END
$$$$
[H]c1nc(C(F)(F)F)c(Oc2c([H])c([H])c(N([H])c3nc([H])c(F)c(N4C([H])([H])C([H])([H])N(c5nc6c([H])c([H])c([H])c([H])c6n5C([H])([H])[H])C([H])([H])C4([H])[H])n3)c([H])c2[H])c([H])c1[H]
     RDKit          3D

 65 70  0  0  0  0  0  0  0  0999 V2000
   -6.8970    1.1560   -1.9014 C   0  0  0  0  0  0  0  0  0  0  0  0
   -6.8965    0.5320   -0.5831 N   0  0  0  0  0  0  0  0  0  0  0  0
   -6.1135   -0.4413   -0.1009 C   0  0  0  0  0  0  0  0  0  0  0  0
   -6.5071   -0.6662    1.1966 N   0  0  0  0  0  0  0  0  0  0  0  0
   -7.5121    0.1408    1.5303 C   0  0  0  0  0  0  0  0  0  0  0  0
   -8.2607    0.3189    2.6915 C   0  0  0  0  0  0  0  0  0  0  0  0
   -9.2623    1.2636    2.7215 C   0  0  0  0  0  0  0  0  0  0  0  0
   -9.5176    2.0264    1.6031 C   0  0  0  0  0  0  0  0  0  0  0  0
   -8.7696    1.8408    0.4594 C   0  0  0  0  0  0  0  0  0  0  0  0
   -7.7552    0.8932    0.4092 C   0  0  0  0  0  0  0  0  0  0  0  0
   -5.0797   -1.1438   -0.7445 N   0  0  0  0  0  0  0  0  0  0  0  0
   -4.6409   -1.0443   -2.1023 C   0  0  0  0  0  0  0  0  0  0  0  0
   -3.3208   -0.2759   -2.0568 C   0  0  0  0  0  0  0  0  0  0  0  0
   -2.4664   -0.9636   -1.1058 N   0  0  0  0  0  0  0  0  0  0  0  0
   -2.8959   -2.1986   -0.4637 C   0  0  0  0  0  0  0  0  0  0  0  0
   -4.3132   -2.1114    0.0766 C   0  0  0  0  0  0  0  0  0  0  0  0
   -1.1841   -0.4741   -0.7565 C   0  0  0  0  0  0  0  0  0  0  0  0
   -0.0507   -1.1476   -0.9984 N   0  0  0  0  0  0  0  0  0  0  0  0
    1.1810   -0.6785   -0.6634 C   0  0  0  0  0  0  0  0  0  0  0  0
    2.3422   -1.3972   -0.9609 N   0  0  0  0  0  0  0  0  0  0  0  0
    3.6690   -1.0296   -0.6449 C   0  0  0  0  0  0  0  0  0  0  0  0
    4.0476   -0.2380    0.4038 C   0  0  0  0  0  0  0  0  0  0  0  0
    5.3503    0.1209    0.6615 C   0  0  0  0  0  0  0  0  0  0  0  0
    6.3591   -0.3168   -0.1512 C   0  0  0  0  0  0  0  0  0  0  0  0
    7.6437   -0.0569   -0.0278 O   0  0  0  0  0  0  0  0  0  0  0  0
    8.6130    0.4841    0.6702 C   0  0  0  0  0  0  0  0  0  0  0  0
    8.5416    1.1321    1.8872 C   0  0  0  0  0  0  0  0  0  0  0  0
    9.6755    1.6431    2.4741 C   0  0  0  0  0  0  0  0  0  0  0  0
   10.8942    1.5105    1.8487 C   0  0  0  0  0  0  0  0  0  0  0  0
   11.0047    0.8825    0.6570 N   0  0  0  0  0  0  0  0  0  0  0  0
    9.9068    0.3918    0.0961 C   0  0  0  0  0  0  0  0  0  0  0  0
   10.0681   -0.3014   -1.2235 C   0  0  0  0  0  0  0  0  0  0  0  0
    9.2701    0.3967   -2.1227 F   0  0  0  0  0  0  0  0  0  0  0  0
    9.6284   -1.5874   -1.1769 F   0  0  0  0  0  0  0  0  0  0  0  0
   11.3641   -0.1927   -1.6808 F   0  0  0  0  0  0  0  0  0  0  0  0
    5.9928   -1.1343   -1.2378 C   0  0  0  0  0  0  0  0  0  0  0  0
    4.7121   -1.4765   -1.4768 C   0  0  0  0  0  0  0  0  0  0  0  0
    1.2081    0.5075   -0.0707 N   0  0  0  0  0  0  0  0  0  0  0  0
    0.1558    1.2681    0.2213 C   0  0  0  0  0  0  0  0  0  0  0  0
   -1.0890    0.7471   -0.1407 C   0  0  0  0  0  0  0  0  0  0  0  0
   -2.1660    1.5104    0.1519 F   0  0  0  0  0  0  0  0  0  0  0  0
   -5.8896    1.5315   -2.1779 H   0  0  0  0  0  0  0  0  0  0  0  0
   -7.5386    2.0762   -1.8552 H   0  0  0  0  0  0  0  0  0  0  0  0
   -7.3711    0.5208   -2.6587 H   0  0  0  0  0  0  0  0  0  0  0  0
   -8.0426   -0.2868    3.5477 H   0  0  0  0  0  0  0  0  0  0  0  0
   -9.8666    1.4210    3.6294 H   0  0  0  0  0  0  0  0  0  0  0  0
  -10.3095    2.7547    1.6665 H   0  0  0  0  0  0  0  0  0  0  0  0
   -8.9521    2.4283   -0.4319 H   0  0  0  0  0  0  0  0  0  0  0  0
   -5.3368   -0.6725   -2.8374 H   0  0  0  0  0  0  0  0  0  0  0  0
   -4.3812   -2.1130   -2.4341 H   0  0  0  0  0  0  0  0  0  0  0  0
   -2.8865   -0.2869   -3.0770 H   0  0  0  0  0  0  0  0  0  0  0  0
   -3.5888    0.7502   -1.7344 H   0  0  0  0  0  0  0  0  0  0  0  0
   -2.8237   -2.9968   -1.2500 H   0  0  0  0  0  0  0  0  0  0  0  0
   -2.2495   -2.4746    0.3683 H   0  0  0  0  0  0  0  0  0  0  0  0
   -4.7736   -3.1032   -0.0878 H   0  0  0  0  0  0  0  0  0  0  0  0
   -4.3726   -1.8766    1.1423 H   0  0  0  0  0  0  0  0  0  0  0  0
    2.2339   -2.3167   -1.4744 H   0  0  0  0  0  0  0  0  0  0  0  0
    3.2721    0.1306    1.1106 H   0  0  0  0  0  0  0  0  0  0  0  0
    5.5465    0.7688    1.5310 H   0  0  0  0  0  0  0  0  0  0  0  0
    7.5722    1.2158    2.3555 H   0  0  0  0  0  0  0  0  0  0  0  0
    9.6110    2.1406    3.4115 H   0  0  0  0  0  0  0  0  0  0  0  0
   11.7829    1.9104    2.3080 H   0  0  0  0  0  0  0  0  0  0  0  0
    6.7676   -1.5160   -1.9259 H   0  0  0  0  0  0  0  0  0  0  0  0
    4.4030   -2.1160   -2.3231 H   0  0  0  0  0  0  0  0  0  0  0  0
    0.2640    2.2197    0.7042 H   0  0  0  0  0  0  0  0  0  0  0  0
  1  2  1  0
  2  3  1  0
  3  4  2  0
  4  5  1  0
  5  6  2  0
  6  7  1  0
  7  8  2  0
  8  9  1  0
  9 10  2  0
  3 11  1  0
 11 12  1  0
 12 13  1  0
 13 14  1  0
 14 15  1  0
 15 16  1  0
 14 17  1  0
 17 18  2  0
 18 19  1  0
 19 20  1  0
 20 21  1  0
 21 22  2  0
 22 23  1  0
 23 24  2  0
 24 25  1  0
 25 26  1  0
 26 27  2  0
 27 28  1  0
 28 29  2  0
 29 30  1  0
 30 31  2  0
 31 32  1  0
 32 33  1  0
 32 34  1  0
 32 35  1  0
 24 36  1  0
 36 37  2  0
 19 38  2  0
 38 39  1  0
 39 40  2  0
 40 41  1  0
 10  2  1  0
 16 11  1  0
 40 17  1  0
 10  5  1  0
 37 21  1  0
 31 26  1  0
  1 42  1  0
  1 43  1  0
  1 44  1  0
  6 45  1  0
  7 46  1  0
  8 47  1  0
  9 48  1  0
 12 49  1  0
 12 50  1  0
 13 51  1  0
 13 52  1  0
 15 53  1  0
 15 54  1  0
 16 55  1  0
 16 56  1  0
 20 57  1  0
 22 58  1  0
 23 59  1  0
 27 60  1  0
 28 61  1  0
 29 62  1  0
 36 63  1  0
 37 64  1  0
 39 65  1  0
M  END
$$$$
[H]c1nc([H])c(-n2nc(-c3c([H])c([H])c([H])c([H])c3[H])c(-c3c([H])c([H])c(N([H])C(=O)c4c(Cl)c([H])c([H])c([H])c4Cl)c([H])c3[H])c2[H])c([H])c1[H]
     RDKit          3D

 52 56  0  0  0  0  0  0  0  0999 V2000
    5.7624    3.0134   -0.6687 Cl  0  0  0  0  0  0  0  0  0  0  0  0
    6.5751    1.4815   -0.5520 C   0  0  0  0  0  0  0  0  0  0  0  0
    7.9882    1.4937   -0.5088 C   0  0  0  0  0  0  0  0  0  0  0  0
    8.7275    0.3426   -0.4709 C   0  0  0  0  0  0  0  0  0  0  0  0
    8.0338   -0.8396   -0.4765 C   0  0  0  0  0  0  0  0  0  0  0  0
    6.6705   -0.9104   -0.5165 C   0  0  0  0  0  0  0  0  0  0  0  0
    5.8760   -2.4601   -0.5209 Cl  0  0  0  0  0  0  0  0  0  0  0  0
    5.9332    0.2975   -0.5540 C   0  0  0  0  0  0  0  0  0  0  0  0
    4.5063    0.1325   -0.5287 C   0  0  0  0  0  0  0  0  0  0  0  0
    4.0088   -0.9544   -1.0249 O   0  0  0  0  0  0  0  0  0  0  0  0
    3.5903    1.0389   -0.0094 N   0  0  0  0  0  0  0  0  0  0  0  0
    2.1871    0.8249   -0.0436 C   0  0  0  0  0  0  0  0  0  0  0  0
    1.3981    1.3396    1.0076 C   0  0  0  0  0  0  0  0  0  0  0  0
    0.0394    1.1802    0.9828 C   0  0  0  0  0  0  0  0  0  0  0  0
   -0.6155    0.5298   -0.0359 C   0  0  0  0  0  0  0  0  0  0  0  0
    0.1250    0.0285   -1.0553 C   0  0  0  0  0  0  0  0  0  0  0  0
    1.5184    0.1848   -1.0434 C   0  0  0  0  0  0  0  0  0  0  0  0
   -2.0555    0.4029    0.0088 C   0  0  0  0  0  0  0  0  0  0  0  0
   -2.9449    1.4698    0.0214 C   0  0  0  0  0  0  0  0  0  0  0  0
   -4.1733    0.9610    0.0642 N   0  0  0  0  0  0  0  0  0  0  0  0
   -4.0844   -0.3422    0.0783 N   0  0  0  0  0  0  0  0  0  0  0  0
   -2.8131   -0.7518    0.0460 C   0  0  0  0  0  0  0  0  0  0  0  0
   -2.3390   -2.1197    0.0503 C   0  0  0  0  0  0  0  0  0  0  0  0
   -2.6630   -2.9963   -0.9758 C   0  0  0  0  0  0  0  0  0  0  0  0
   -2.2146   -4.2958   -0.9733 C   0  0  0  0  0  0  0  0  0  0  0  0
   -1.4292   -4.7362    0.0667 C   0  0  0  0  0  0  0  0  0  0  0  0
   -1.1008   -3.8739    1.0920 C   0  0  0  0  0  0  0  0  0  0  0  0
   -1.5513   -2.5720    1.0875 C   0  0  0  0  0  0  0  0  0  0  0  0
   -5.3903    1.7323    0.0901 C   0  0  0  0  0  0  0  0  0  0  0  0
   -6.6001    1.0814    0.0206 C   0  0  0  0  0  0  0  0  0  0  0  0
   -7.7564    1.8306    0.0462 C   0  0  0  0  0  0  0  0  0  0  0  0
   -7.7190    3.2063    0.1391 C   0  0  0  0  0  0  0  0  0  0  0  0
   -6.5022    3.7731    0.2031 N   0  0  0  0  0  0  0  0  0  0  0  0
   -5.3472    3.0865    0.1818 C   0  0  0  0  0  0  0  0  0  0  0  0
    8.4968    2.4473   -0.5060 H   0  0  0  0  0  0  0  0  0  0  0  0
    9.7918    0.3894   -0.4391 H   0  0  0  0  0  0  0  0  0  0  0  0
    8.6206   -1.7550   -0.4469 H   0  0  0  0  0  0  0  0  0  0  0  0
    3.9397    1.9166    0.4638 H   0  0  0  0  0  0  0  0  0  0  0  0
    1.9254    1.8484    1.8024 H   0  0  0  0  0  0  0  0  0  0  0  0
   -0.5306    1.5968    1.8208 H   0  0  0  0  0  0  0  0  0  0  0  0
   -0.3324   -0.4831   -1.8674 H   0  0  0  0  0  0  0  0  0  0  0  0
    2.0605   -0.2096   -1.8884 H   0  0  0  0  0  0  0  0  0  0  0  0
   -2.6394    2.5285   -0.0012 H   0  0  0  0  0  0  0  0  0  0  0  0
   -3.2864   -2.6774   -1.8195 H   0  0  0  0  0  0  0  0  0  0  0  0
   -2.4999   -4.9447   -1.8070 H   0  0  0  0  0  0  0  0  0  0  0  0
   -1.1005   -5.7616    0.0276 H   0  0  0  0  0  0  0  0  0  0  0  0
   -0.4813   -4.2828    1.8770 H   0  0  0  0  0  0  0  0  0  0  0  0
   -1.2650   -1.9217    1.9245 H   0  0  0  0  0  0  0  0  0  0  0  0
   -6.6000    0.0056   -0.0520 H   0  0  0  0  0  0  0  0  0  0  0  0
   -8.7107    1.3038   -0.0088 H   0  0  0  0  0  0  0  0  0  0  0  0
   -8.6295    3.8124    0.1600 H   0  0  0  0  0  0  0  0  0  0  0  0
   -4.3997    3.6076    0.2371 H   0  0  0  0  0  0  0  0  0  0  0  0
  1  2  1  0
  2  3  2  0
  3  4  1  0
  4  5  2  0
  5  6  1  0
  6  7  1  0
  6  8  2  0
  8  9  1  0
  9 10  2  0
  9 11  1  0
 11 12  1  0
 12 13  2  0
 13 14  1  0
 14 15  2  0
 15 16  1  0
 16 17  2  0
 15 18  1  0
 18 19  2  0
 19 20  1  0
 20 21  1  0
 21 22  2  0
 22 23  1  0
 23 24  2  0
 24 25  1  0
 25 26  2  0
 26 27  1  0
 27 28  2  0
 20 29  1  0
 29 30  2  0
 30 31  1  0
 31 32  2  0
 32 33  1  0
 33 34  2  0
  8  2  1  0
 17 12  1  0
 22 18  1  0
 28 23  1  0
 34 29  1  0
  3 35  1  0
  4 36  1  0
  5 37  1  0
 11 38  1  0
 13 39  1  0
 14 40  1  0
 16 41  1  0
 17 42  1  0
 19 43  1  0
 24 44  1  0
 25 45  1  0
 26 46  1  0
 27 47  1  0
 28 48  1  0
 30 49  1  0
 31 50  1  0
 32 51  1  0
 34 52  1  0
M  END
$$$$
[H]OC1([H])C2(O[C@]([H])(C(=O)c3c([H])c([H])c([H])c([H])c3[H])N(C3([H])C([H])([H])C([H])([H])C([H])([H])C([H])([H])C3([H])[H])C2=O)C([H])([H])[C@]1([H])O[H]
     RDKit          3D

 48 51  0  0  0  0  0  0  0  0999 V2000
    0.9038   -2.4231    1.0439 O   0  0  0  0  0  0  0  0  0  0  0  0
    1.4959   -1.2858    0.8160 C   0  0  0  0  0  0  0  0  0  0  0  0
    0.6978   -0.1133    1.1519 C   0  0  1  0  0  0  0  0  0  0  0  0
    1.2723    1.0840    0.9183 O   0  0  0  0  0  0  0  0  0  0  0  0
    0.4804    1.8845    0.1269 C   0  0  0  0  0  0  0  0  0  0  0  0
    1.1406    2.8767   -0.7595 C   0  0  0  0  0  0  0  0  0  0  0  0
   -0.0420    3.8156   -0.4816 C   0  0  2  0  0  0  0  0  0  0  0  0
    0.3119    5.1244   -0.2775 O   0  0  0  0  0  0  0  0  0  0  0  0
   -0.2636    2.9996    0.7993 C   0  0  0  0  0  0  0  0  0  0  0  0
    0.4101    3.6227    1.8448 O   0  0  0  0  0  0  0  0  0  0  0  0
   -0.4530    0.9200   -0.5371 C   0  0  0  0  0  0  0  0  0  0  0  0
   -1.0254    1.0207   -1.6491 O   0  0  0  0  0  0  0  0  0  0  0  0
   -0.5536   -0.1651    0.3907 N   0  0  0  0  0  0  0  0  0  0  0  0
   -1.6558   -1.0726    0.5200 C   0  0  0  0  0  0  0  0  0  0  0  0
   -2.9241   -0.3386    0.9959 C   0  0  0  0  0  0  0  0  0  0  0  0
   -3.9826   -0.3948   -0.0618 C   0  0  0  0  0  0  0  0  0  0  0  0
   -4.4252   -1.8516   -0.1727 C   0  0  0  0  0  0  0  0  0  0  0  0
   -3.2173   -2.6640   -0.4845 C   0  0  0  0  0  0  0  0  0  0  0  0
   -1.9767   -1.8390   -0.7242 C   0  0  0  0  0  0  0  0  0  0  0  0
    2.8067   -1.3887    0.2836 C   0  0  0  0  0  0  0  0  0  0  0  0
    3.6218   -0.3342   -0.0016 C   0  0  0  0  0  0  0  0  0  0  0  0
    4.9099   -0.4798   -0.5347 C   0  0  0  0  0  0  0  0  0  0  0  0
    5.3870   -1.7300   -0.7864 C   0  0  0  0  0  0  0  0  0  0  0  0
    4.6121   -2.8210   -0.5190 C   0  0  0  0  0  0  0  0  0  0  0  0
    3.3519   -2.6564    0.0035 C   0  0  0  0  0  0  0  0  0  0  0  0
    0.4353   -0.1175    2.2654 H   0  0  0  0  0  0  0  0  0  0  0  0
    2.0676    3.2802   -0.3179 H   0  0  0  0  0  0  0  0  0  0  0  0
    1.1683    2.6163   -1.8211 H   0  0  0  0  0  0  0  0  0  0  0  0
   -0.8695    3.6847   -1.2073 H   0  0  0  0  0  0  0  0  0  0  0  0
   -0.0666    5.6634   -1.0366 H   0  0  0  0  0  0  0  0  0  0  0  0
   -1.3076    2.7570    0.9999 H   0  0  0  0  0  0  0  0  0  0  0  0
    0.3078    4.6061    1.6953 H   0  0  0  0  0  0  0  0  0  0  0  0
   -1.4261   -1.8031    1.3224 H   0  0  0  0  0  0  0  0  0  0  0  0
   -3.3051   -0.7285    1.9370 H   0  0  0  0  0  0  0  0  0  0  0  0
   -2.6592    0.7405    1.1465 H   0  0  0  0  0  0  0  0  0  0  0  0
   -3.6481   -0.0522   -1.0418 H   0  0  0  0  0  0  0  0  0  0  0  0
   -4.8406    0.2446    0.2546 H   0  0  0  0  0  0  0  0  0  0  0  0
   -4.8468   -2.1089    0.8272 H   0  0  0  0  0  0  0  0  0  0  0  0
   -5.2456   -1.9670   -0.9057 H   0  0  0  0  0  0  0  0  0  0  0  0
   -3.4277   -3.2417   -1.4221 H   0  0  0  0  0  0  0  0  0  0  0  0
   -3.0569   -3.3937    0.3051 H   0  0  0  0  0  0  0  0  0  0  0  0
   -2.0785   -1.2071   -1.6265 H   0  0  0  0  0  0  0  0  0  0  0  0
   -1.1628   -2.5549   -0.9501 H   0  0  0  0  0  0  0  0  0  0  0  0
    3.3518    0.6932    0.1613 H   0  0  0  0  0  0  0  0  0  0  0  0
    5.5370    0.3583   -0.7531 H   0  0  0  0  0  0  0  0  0  0  0  0
    6.3805   -1.8883   -1.1997 H   0  0  0  0  0  0  0  0  0  0  0  0
    5.0174   -3.8100   -0.7294 H   0  0  0  0  0  0  0  0  0  0  0  0
    2.7920   -3.5616    0.1913 H   0  0  0  0  0  0  0  0  0  0  0  0
  1  2  2  0
  2  3  1  0
  3  4  1  0
  4  5  1  0
  5  6  1  0
  6  7  1  0
  7  8  1  0
  7  9  1  0
  9 10  1  0
  5 11  1  0
 11 12  2  0
 11 13  1  0
 13 14  1  0
 14 15  1  0
 15 16  1  0
 16 17  1  0
 17 18  1  0
 18 19  1  0
  2 20  1  0
 20 21  2  0
 21 22  1  0
 22 23  2  0
 23 24  1  0
 24 25  2  0
 13  3  1  0
 19 14  1  0
 25 20  1  0
  9  5  1  0
  3 26  1  1
  6 27  1  0
  6 28  1  0
  7 29  1  6
  8 30  1  0
  9 31  1  0
 10 32  1  0
 14 33  1  0
 15 34  1  0
 15 35  1  0
 16 36  1  0
 16 37  1  0
 17 38  1  0
 17 39  1  0
 18 40  1  0
 18 41  1  0
 19 42  1  0
 19 43  1  0
 21 44  1  0
 22 45  1  0
 23 46  1  0
 24 47  1  0
 25 48  1  0
M  END
$$$$
[H]c1nc2c(nc1C(=O)N([H])c1c([H])c(C(F)(F)F)c([H])c([H])c1C([H])([H])[H])c(-c1c([H])c([H])c(C#N)c([H])c1[H])nn2[H]
     RDKit          3D

 44 47  0  0  0  0  0  0  0  0999 V2000
   -0.6219   -0.6656   -2.3521 C   0  0  0  0  0  0  0  0  0  0  0  0
   -2.0074   -0.9372   -1.9114 C   0  0  0  0  0  0  0  0  0  0  0  0
   -2.9318   -1.2769   -2.8672 C   0  0  0  0  0  0  0  0  0  0  0  0
   -4.2559   -1.5542   -2.5975 C   0  0  0  0  0  0  0  0  0  0  0  0
   -4.6705   -1.4827   -1.2717 C   0  0  0  0  0  0  0  0  0  0  0  0
   -3.7379   -1.1409   -0.3172 C   0  0  0  0  0  0  0  0  0  0  0  0
   -2.4076   -0.8621   -0.5865 C   0  0  0  0  0  0  0  0  0  0  0  0
   -1.4638   -0.5118    0.3979 N   0  0  0  0  0  0  0  0  0  0  0  0
   -1.5923   -0.3900    1.7691 C   0  0  0  0  0  0  0  0  0  0  0  0
   -2.6599   -0.5905    2.3976 O   0  0  0  0  0  0  0  0  0  0  0  0
   -0.3932    0.0029    2.5739 C   0  0  0  0  0  0  0  0  0  0  0  0
   -0.4629    0.0122    3.9435 C   0  0  0  0  0  0  0  0  0  0  0  0
    0.6226    0.3776    4.6836 N   0  0  0  0  0  0  0  0  0  0  0  0
    1.7334    0.7186    4.0155 C   0  0  0  0  0  0  0  0  0  0  0  0
    2.9709    1.1289    4.4280 N   0  0  0  0  0  0  0  0  0  0  0  0
    3.7330    1.3534    3.3846 N   0  0  0  0  0  0  0  0  0  0  0  0
    3.0885    1.1197    2.2348 C   0  0  0  0  0  0  0  0  0  0  0  0
    3.5474    1.2538    0.8600 C   0  0  0  0  0  0  0  0  0  0  0  0
    4.2488    2.3366    0.3940 C   0  0  0  0  0  0  0  0  0  0  0  0
    4.6558    2.4230   -0.9381 C   0  0  0  0  0  0  0  0  0  0  0  0
    4.3481    1.4045   -1.7938 C   0  0  0  0  0  0  0  0  0  0  0  0
    3.6454    0.3007   -1.3632 C   0  0  0  0  0  0  0  0  0  0  0  0
    3.2512    0.2418   -0.0271 C   0  0  0  0  0  0  0  0  0  0  0  0
    4.7871    1.5391   -3.1622 C   0  0  0  0  0  0  0  0  0  0  0  0
    5.1330    1.6302   -4.2782 N   0  0  0  0  0  0  0  0  0  0  0  0
    1.8129    0.7132    2.6410 C   0  0  0  0  0  0  0  0  0  0  0  0
    0.7387    0.3514    1.9190 N   0  0  0  0  0  0  0  0  0  0  0  0
   -6.0955   -1.7715   -0.9229 C   0  0  0  0  0  0  0  0  0  0  0  0
   -6.4130   -1.1103    0.2515 F   0  0  0  0  0  0  0  0  0  0  0  0
   -6.9475   -1.2850   -1.9045 F   0  0  0  0  0  0  0  0  0  0  0  0
   -6.2871   -3.1216   -0.6836 F   0  0  0  0  0  0  0  0  0  0  0  0
   -0.4386    0.4156   -2.5199 H   0  0  0  0  0  0  0  0  0  0  0  0
    0.1398   -1.1363   -1.6965 H   0  0  0  0  0  0  0  0  0  0  0  0
   -0.4793   -1.1815   -3.3437 H   0  0  0  0  0  0  0  0  0  0  0  0
   -2.6289   -1.3391   -3.9233 H   0  0  0  0  0  0  0  0  0  0  0  0
   -4.9912   -1.8216   -3.3374 H   0  0  0  0  0  0  0  0  0  0  0  0
   -4.1303   -1.1068    0.6943 H   0  0  0  0  0  0  0  0  0  0  0  0
   -0.4831   -0.3055    0.0094 H   0  0  0  0  0  0  0  0  0  0  0  0
   -1.3948   -0.2746    4.4153 H   0  0  0  0  0  0  0  0  0  0  0  0
    3.2024    1.2248    5.4444 H   0  0  0  0  0  0  0  0  0  0  0  0
    4.5035    3.1468    1.0447 H   0  0  0  0  0  0  0  0  0  0  0  0
    5.2098    3.2911   -1.2851 H   0  0  0  0  0  0  0  0  0  0  0  0
    3.4160   -0.4873   -2.0554 H   0  0  0  0  0  0  0  0  0  0  0  0
    2.7061   -0.6330    0.2732 H   0  0  0  0  0  0  0  0  0  0  0  0
  1  2  1  0
  2  3  2  0
  3  4  1  0
  4  5  2  0
  5  6  1  0
  6  7  2  0
  7  8  1  0
  8  9  1  0
  9 10  2  0
  9 11  1  0
 11 12  2  0
 12 13  1  0
 13 14  2  0
 14 15  1  0
 15 16  1  0
 16 17  2  0
 17 18  1  0
 18 19  2  0
 19 20  1  0
 20 21  2  0
 21 22  1  0
 22 23  2  0
 21 24  1  0
 24 25  3  0
 17 26  1  0
 26 27  2  0
  5 28  1  0
 28 29  1  0
 28 30  1  0
 28 31  1  0
  7  2  1  0
 27 11  1  0
 26 14  1  0
 23 18  1  0
  1 32  1  0
  1 33  1  0
  1 34  1  0
  3 35  1  0
  4 36  1  0
  6 37  1  0
  8 38  1  0
 12 39  1  0
 15 40  1  0
 19 41  1  0
 20 42  1  0
 22 43  1  0
 23 44  1  0
M  END
$$$$
[H]c1nc([H])c2c([H])c([H])c([H])c(-c3nn([H])c(C([H])([H])[H])c3[H])c2c1[H]
     RDKit          3D

 27 29  0  0  0  0  0  0  0  0999 V2000
    4.6228   -0.0281   -0.3953 C   0  0  0  0  0  0  0  0  0  0  0  0
    3.2017    0.3379   -0.1004 C   0  0  0  0  0  0  0  0  0  0  0  0
    2.1150   -0.4388   -0.3862 C   0  0  0  0  0  0  0  0  0  0  0  0
    0.9446    0.2242    0.0316 C   0  0  0  0  0  0  0  0  0  0  0  0
    1.4045    1.3502    0.5384 N   0  0  0  0  0  0  0  0  0  0  0  0
    2.7212    1.4381    0.4718 N   0  0  0  0  0  0  0  0  0  0  0  0
   -0.3601   -0.3800   -0.1527 C   0  0  0  0  0  0  0  0  0  0  0  0
   -0.5130   -1.6348   -0.7466 C   0  0  0  0  0  0  0  0  0  0  0  0
   -1.7115   -2.2535   -0.9467 C   0  0  0  0  0  0  0  0  0  0  0  0
   -2.8510   -1.5952   -0.5344 C   0  0  0  0  0  0  0  0  0  0  0  0
   -2.7728   -0.3535    0.0594 C   0  0  0  0  0  0  0  0  0  0  0  0
   -3.9503    0.2407    0.4439 C   0  0  0  0  0  0  0  0  0  0  0  0
   -3.9206    1.4608    1.0312 N   0  0  0  0  0  0  0  0  0  0  0  0
   -2.7602    2.0800    1.2347 C   0  0  0  0  0  0  0  0  0  0  0  0
   -1.5577    1.4756    0.8433 C   0  0  0  0  0  0  0  0  0  0  0  0
   -1.5180    0.2414    0.2434 C   0  0  0  0  0  0  0  0  0  0  0  0
    4.7275   -1.1097   -0.5511 H   0  0  0  0  0  0  0  0  0  0  0  0
    5.2969    0.2500    0.4370 H   0  0  0  0  0  0  0  0  0  0  0  0
    4.9565    0.4688   -1.3398 H   0  0  0  0  0  0  0  0  0  0  0  0
    2.1652   -1.4018   -0.8564 H   0  0  0  0  0  0  0  0  0  0  0  0
    3.3278    2.2297    0.8046 H   0  0  0  0  0  0  0  0  0  0  0  0
    0.3705   -2.1505   -1.0689 H   0  0  0  0  0  0  0  0  0  0  0  0
   -1.8023   -3.2233   -1.4081 H   0  0  0  0  0  0  0  0  0  0  0  0
   -3.8280   -2.0697   -0.6831 H   0  0  0  0  0  0  0  0  0  0  0  0
   -4.9156   -0.2176    0.3020 H   0  0  0  0  0  0  0  0  0  0  0  0
   -2.7458    3.0654    1.7099 H   0  0  0  0  0  0  0  0  0  0  0  0
   -0.6475    1.9938    1.0186 H   0  0  0  0  0  0  0  0  0  0  0  0
  1  2  1  0
  2  3  2  0
  3  4  1  0
  4  5  2  0
  5  6  1  0
  4  7  1  0
  7  8  2  0
  8  9  1  0
  9 10  2  0
 10 11  1  0
 11 12  2  0
 12 13  1  0
 13 14  2  0
 14 15  1  0
 15 16  2  0
  6  2  1  0
 16  7  1  0
 16 11  1  0
  1 17  1  0
  1 18  1  0
  1 19  1  0
  3 20  1  0
  6 21  1  0
  8 22  1  0
  9 23  1  0
 10 24  1  0
 12 25  1  0
 14 26  1  0
 15 27  1  0
M  END
$$$$
[H]OC(=O)C([H])([H])[C@@]([H])(C(=O)N([H])[C@@]([H])(C([H])([H])C(=O)O[H])[C@@]([H])(C([H])([H])C(=O)OC([H])([H])[H])C([H])([H])C([H])([H])[H])N([H])C(=O)[C@@]([H])(N([H])C(=O)C([H])([H])[H])C([H])([H])C([H])([H])C([H])([H])C(=O)C([H])([H])[H]
     RDKit          3D

 70 69  0  0  0  0  0  0  0  0999 V2000
   -6.1930    1.5891   -0.2086 C   0  0  0  0  0  0  0  0  0  0  0  0
   -5.0225    1.2338   -1.1396 C   0  0  0  0  0  0  0  0  0  0  0  0
   -4.1189    0.3103   -0.3184 C   0  0  2  0  0  0  0  0  0  0  0  0
   -3.6329    0.9914    0.9140 C   0  0  0  0  0  0  0  0  0  0  0  0
   -2.8321    2.2132    0.7026 C   0  0  0  0  0  0  0  0  0  0  0  0
   -2.4852    2.6260   -0.4262 O   0  0  0  0  0  0  0  0  0  0  0  0
   -2.4058    3.0021    1.7914 O   0  0  0  0  0  0  0  0  0  0  0  0
   -1.6407    4.1651    1.5514 C   0  0  0  0  0  0  0  0  0  0  0  0
   -3.0725   -0.3271   -1.1484 C   0  0  2  0  0  0  0  0  0  0  0  0
   -3.6218   -1.1705   -2.2714 C   0  0  0  0  0  0  0  0  0  0  0  0
   -4.4524   -2.3038   -1.8799 C   0  0  0  0  0  0  0  0  0  0  0  0
   -5.0606   -3.0572   -2.9106 O   0  0  0  0  0  0  0  0  0  0  0  0
   -4.6889   -2.6866   -0.7336 O   0  0  0  0  0  0  0  0  0  0  0  0
   -2.1239   -1.1350   -0.4471 N   0  0  0  0  0  0  0  0  0  0  0  0
   -0.7285   -0.9186   -0.3477 C   0  0  0  0  0  0  0  0  0  0  0  0
   -0.3117    0.1044   -0.9399 O   0  0  0  0  0  0  0  0  0  0  0  0
    0.2322   -1.7395    0.3502 C   0  0  2  0  0  0  0  0  0  0  0  0
   -0.0940   -2.2987    1.6706 C   0  0  0  0  0  0  0  0  0  0  0  0
   -0.3992   -1.3904    2.7610 C   0  0  0  0  0  0  0  0  0  0  0  0
   -0.7214   -1.9269    4.0230 O   0  0  0  0  0  0  0  0  0  0  0  0
   -0.4099   -0.1375    2.7108 O   0  0  0  0  0  0  0  0  0  0  0  0
    1.5670   -1.1220    0.3071 N   0  0  0  0  0  0  0  0  0  0  0  0
    2.6515   -1.7230   -0.3850 C   0  0  0  0  0  0  0  0  0  0  0  0
    2.4473   -2.8298   -0.9750 O   0  0  0  0  0  0  0  0  0  0  0  0
    4.0062   -1.1622   -0.4666 C   0  0  1  0  0  0  0  0  0  0  0  0
    4.9260   -2.2934   -0.7267 N   0  0  0  0  0  0  0  0  0  0  0  0
    6.0039   -2.5772    0.1316 C   0  0  0  0  0  0  0  0  0  0  0  0
    6.8935   -3.7205   -0.1621 C   0  0  0  0  0  0  0  0  0  0  0  0
    6.2121   -1.8640    1.1430 O   0  0  0  0  0  0  0  0  0  0  0  0
    4.2223   -0.1393   -1.5450 C   0  0  0  0  0  0  0  0  0  0  0  0
    3.4159    1.0988   -1.4755 C   0  0  0  0  0  0  0  0  0  0  0  0
    3.6527    1.9483   -0.2623 C   0  0  0  0  0  0  0  0  0  0  0  0
    2.7250    3.1391   -0.3620 C   0  0  0  0  0  0  0  0  0  0  0  0
    2.6828    4.1613    0.7209 C   0  0  0  0  0  0  0  0  0  0  0  0
    1.9912    3.2895   -1.3282 O   0  0  0  0  0  0  0  0  0  0  0  0
   -6.0055    2.5218    0.3425 H   0  0  0  0  0  0  0  0  0  0  0  0
   -6.3302    0.7509    0.5400 H   0  0  0  0  0  0  0  0  0  0  0  0
   -7.1494    1.6438   -0.7474 H   0  0  0  0  0  0  0  0  0  0  0  0
   -5.4786    0.6215   -1.9449 H   0  0  0  0  0  0  0  0  0  0  0  0
   -4.5671    2.1469   -1.4744 H   0  0  0  0  0  0  0  0  0  0  0  0
   -4.8451   -0.4701    0.0429 H   0  0  0  0  0  0  0  0  0  0  0  0
   -3.0346    0.3316    1.5764 H   0  0  0  0  0  0  0  0  0  0  0  0
   -4.4957    1.3049    1.5765 H   0  0  0  0  0  0  0  0  0  0  0  0
   -1.8092    4.9214    2.3573 H   0  0  0  0  0  0  0  0  0  0  0  0
   -2.0061    4.5983    0.5766 H   0  0  0  0  0  0  0  0  0  0  0  0
   -0.5639    3.9354    1.4780 H   0  0  0  0  0  0  0  0  0  0  0  0
   -2.4611    0.4949   -1.6397 H   0  0  0  0  0  0  0  0  0  0  0  0
   -2.7821   -1.6056   -2.8894 H   0  0  0  0  0  0  0  0  0  0  0  0
   -4.1722   -0.5306   -3.0032 H   0  0  0  0  0  0  0  0  0  0  0  0
   -4.8549   -4.0675   -2.8597 H   0  0  0  0  0  0  0  0  0  0  0  0
   -2.4803   -1.9792    0.0524 H   0  0  0  0  0  0  0  0  0  0  0  0
    0.3593   -2.6636   -0.3194 H   0  0  0  0  0  0  0  0  0  0  0  0
    0.8212   -2.8913    1.9841 H   0  0  0  0  0  0  0  0  0  0  0  0
   -0.8601   -3.1174    1.5467 H   0  0  0  0  0  0  0  0  0  0  0  0
   -0.9264   -2.9337    4.1297 H   0  0  0  0  0  0  0  0  0  0  0  0
    1.7508   -0.2261    0.7968 H   0  0  0  0  0  0  0  0  0  0  0  0
    4.3532   -0.6978    0.4748 H   0  0  0  0  0  0  0  0  0  0  0  0
    4.7422   -2.8584   -1.5552 H   0  0  0  0  0  0  0  0  0  0  0  0
    6.8109   -4.5325    0.5983 H   0  0  0  0  0  0  0  0  0  0  0  0
    7.9329   -3.3362   -0.1024 H   0  0  0  0  0  0  0  0  0  0  0  0
    6.7104   -4.0741   -1.1850 H   0  0  0  0  0  0  0  0  0  0  0  0
    5.3052    0.1842   -1.4240 H   0  0  0  0  0  0  0  0  0  0  0  0
    4.1940   -0.5566   -2.5734 H   0  0  0  0  0  0  0  0  0  0  0  0
    3.7473    1.7430   -2.3500 H   0  0  0  0  0  0  0  0  0  0  0  0
    2.3275    0.9476   -1.6233 H   0  0  0  0  0  0  0  0  0  0  0  0
    3.4205    1.4011    0.6382 H   0  0  0  0  0  0  0  0  0  0  0  0
    4.6994    2.3446   -0.2787 H   0  0  0  0  0  0  0  0  0  0  0  0
    2.1784    5.0767    0.3378 H   0  0  0  0  0  0  0  0  0  0  0  0
    3.7233    4.4481    1.0349 H   0  0  0  0  0  0  0  0  0  0  0  0
    2.1319    3.7749    1.5900 H   0  0  0  0  0  0  0  0  0  0  0  0
  1  2  1  0
  2  3  1  0
  3  4  1  0
  4  5  1  0
  5  6  2  0
  5  7  1  0
  7  8  1  0
  3  9  1  0
  9 10  1  0
 10 11  1  0
 11 12  1  0
 11 13  2  0
  9 14  1  0
 14 15  1  0
 15 16  2  0
 15 17  1  0
 17 18  1  0
 18 19  1  0
 19 20  1  0
 19 21  2  0
 17 22  1  0
 22 23  1  0
 23 24  2  0
 23 25  1  0
 25 26  1  0
 26 27  1  0
 27 28  1  0
 27 29  2  0
 25 30  1  0
 30 31  1  0
 31 32  1  0
 32 33  1  0
 33 34  1  0
 33 35  2  0
  1 36  1  0
  1 37  1  0
  1 38  1  0
  2 39  1  0
  2 40  1  0
  3 41  1  1
  4 42  1  0
  4 43  1  0
  8 44  1  0
  8 45  1  0
  8 46  1  0
  9 47  1  6
 10 48  1  0
 10 49  1  0
 12 50  1  0
 14 51  1  0
 17 52  1  6
 18 53  1  0
 18 54  1  0
 20 55  1  0
 22 56  1  0
 25 57  1  1
 26 58  1  0
 28 59  1  0
 28 60  1  0
 28 61  1  0
 30 62  1  0
 30 63  1  0
 31 64  1  0
 31 65  1  0
 32 66  1  0
 32 67  1  0
 34 68  1  0
 34 69  1  0
 34 70  1  0
M  END
$$$$
[H]OC(=O)c1oc2c([H])c([H])c(F)c([H])c2c1-c1c([H])c([H])c(C([H])([H])[C@@]2([H])O[C@]([H])(O[H])C2([H])[H])c([H])c1[H]
     RDKit          3D

 40 43  0  0  0  0  0  0  0  0999 V2000
    6.1016   -1.6238   -0.7026 O   0  0  0  0  0  0  0  0  0  0  0  0
    5.0436   -1.0865    0.0310 C   0  0  2  0  0  0  0  0  0  0  0  0
    4.1994   -0.0950   -0.7462 C   0  0  0  0  0  0  0  0  0  0  0  0
    4.1133    0.5204    0.6060 C   0  0  1  0  0  0  0  0  0  0  0  0
    3.0866    0.0379    1.5639 C   0  0  0  0  0  0  0  0  0  0  0  0
    1.7228    0.2197    1.0146 C   0  0  0  0  0  0  0  0  0  0  0  0
    0.9868    1.3834    1.2476 C   0  0  0  0  0  0  0  0  0  0  0  0
   -0.2892    1.5189    0.7409 C   0  0  0  0  0  0  0  0  0  0  0  0
   -0.8905    0.5409   -0.0022 C   0  0  0  0  0  0  0  0  0  0  0  0
   -0.1262   -0.6050   -0.2165 C   0  0  0  0  0  0  0  0  0  0  0  0
    1.1370   -0.7603    0.2758 C   0  0  0  0  0  0  0  0  0  0  0  0
   -2.2285    0.5915   -0.5273 C   0  0  0  0  0  0  0  0  0  0  0  0
   -2.8377    1.3678   -1.4760 C   0  0  0  0  0  0  0  0  0  0  0  0
   -2.1554    2.4182   -2.1981 C   0  0  0  0  0  0  0  0  0  0  0  0
   -0.8529    2.7743   -2.0611 O   0  0  0  0  0  0  0  0  0  0  0  0
   -2.8469    3.0769   -3.0497 O   0  0  0  0  0  0  0  0  0  0  0  0
   -4.0864    0.9970   -1.5982 O   0  0  0  0  0  0  0  0  0  0  0  0
   -4.3622   -0.0039   -0.7726 C   0  0  0  0  0  0  0  0  0  0  0  0
   -5.5307   -0.7046   -0.5605 C   0  0  0  0  0  0  0  0  0  0  0  0
   -5.5531   -1.7215    0.3720 C   0  0  0  0  0  0  0  0  0  0  0  0
   -4.3916   -2.0000    1.0639 C   0  0  0  0  0  0  0  0  0  0  0  0
   -4.3806   -2.9951    1.9854 F   0  0  0  0  0  0  0  0  0  0  0  0
   -3.2202   -1.3052    0.8588 C   0  0  0  0  0  0  0  0  0  0  0  0
   -3.2221   -0.2958   -0.0754 C   0  0  0  0  0  0  0  0  0  0  0  0
    5.3916   -0.0263    0.8710 O   0  0  0  0  0  0  0  0  0  0  0  0
    5.9311   -2.5881   -0.8473 H   0  0  0  0  0  0  0  0  0  0  0  0
    4.4762   -1.8588    0.5738 H   0  0  0  0  0  0  0  0  0  0  0  0
    4.8811    0.5115   -1.3911 H   0  0  0  0  0  0  0  0  0  0  0  0
    3.3079   -0.4787   -1.2297 H   0  0  0  0  0  0  0  0  0  0  0  0
    4.1969    1.6261    0.6333 H   0  0  0  0  0  0  0  0  0  0  0  0
    3.1937   -1.0172    1.8873 H   0  0  0  0  0  0  0  0  0  0  0  0
    3.1363    0.7254    2.4552 H   0  0  0  0  0  0  0  0  0  0  0  0
    1.4533    2.1636    1.8323 H   0  0  0  0  0  0  0  0  0  0  0  0
   -0.8174    2.4286    0.9443 H   0  0  0  0  0  0  0  0  0  0  0  0
   -0.5352   -1.4168   -0.7932 H   0  0  0  0  0  0  0  0  0  0  0  0
    1.7111   -1.6715    0.0920 H   0  0  0  0  0  0  0  0  0  0  0  0
   -0.5244    3.6324   -1.6374 H   0  0  0  0  0  0  0  0  0  0  0  0
   -6.4394   -0.4709   -1.1143 H   0  0  0  0  0  0  0  0  0  0  0  0
   -6.4708   -2.2975    0.5592 H   0  0  0  0  0  0  0  0  0  0  0  0
   -2.3087   -1.5119    1.3913 H   0  0  0  0  0  0  0  0  0  0  0  0
  1  2  1  0
  2  3  1  0
  3  4  1  0
  4  5  1  0
  5  6  1  0
  6  7  2  0
  7  8  1  0
  8  9  2  0
  9 10  1  0
 10 11  2  0
  9 12  1  0
 12 13  2  0
 13 14  1  0
 14 15  1  0
 14 16  2  0
 13 17  1  0
 17 18  1  0
 18 19  2  0
 19 20  1  0
 20 21  2  0
 21 22  1  0
 21 23  1  0
 23 24  2  0
  4 25  1  0
 25  2  1  0
 11  6  1  0
 24 12  1  0
 24 18  1  0
  1 26  1  0
  2 27  1  1
  3 28  1  0
  3 29  1  0
  4 30  1  6
  5 31  1  0
  5 32  1  0
  7 33  1  0
  8 34  1  0
 10 35  1  0
 11 36  1  0
 15 37  1  0
 19 38  1  0
 20 39  1  0
 23 40  1  0
M  END
$$$$
[H]c1nn(C2([H])C([H])([H])C([H])([H])C([H])([H])C([H])([H])C2([H])[H])c([H])c1-c1nn([H])c2c([H])c(OC([H])([H])C([H])([H])C([H])([H])N(C([H])([H])[H])C([H])([H])c3c([H])c([H])c([H])c([H])c3[H])c([H])c([H])c12
     RDKit          3D

 66 70  0  0  0  0  0  0  0  0999 V2000
    5.8527    0.1708   -1.6229 C   0  0  0  0  0  0  0  0  0  0  0  0
    5.3393    0.5543   -0.3733 N   0  0  0  0  0  0  0  0  0  0  0  0
    4.0462    1.0929   -0.2872 C   0  0  0  0  0  0  0  0  0  0  0  0
    3.0300   -0.0114   -0.6217 C   0  0  0  0  0  0  0  0  0  0  0  0
    3.1441   -1.1536    0.3298 C   0  0  0  0  0  0  0  0  0  0  0  0
    2.2537   -2.1666    0.0869 O   0  0  0  0  0  0  0  0  0  0  0  0
    0.9051   -2.2459    0.1091 C   0  0  0  0  0  0  0  0  0  0  0  0
    0.0605   -1.2101    0.4410 C   0  0  0  0  0  0  0  0  0  0  0  0
   -1.3276   -1.4120    0.4251 C   0  0  0  0  0  0  0  0  0  0  0  0
   -1.8904   -2.6153    0.0888 C   0  0  0  0  0  0  0  0  0  0  0  0
   -3.1727   -3.0999   -0.0129 C   0  0  0  0  0  0  0  0  0  0  0  0
   -3.0674   -4.3979   -0.3981 N   0  0  0  0  0  0  0  0  0  0  0  0
   -1.7894   -4.7116   -0.5309 N   0  0  0  0  0  0  0  0  0  0  0  0
   -1.0291   -3.6431   -0.2407 C   0  0  0  0  0  0  0  0  0  0  0  0
    0.3239   -3.4644   -0.2309 C   0  0  0  0  0  0  0  0  0  0  0  0
   -4.3704   -2.3252    0.2552 C   0  0  0  0  0  0  0  0  0  0  0  0
   -5.4355   -2.8187    1.0122 C   0  0  0  0  0  0  0  0  0  0  0  0
   -6.3533   -1.8672    1.0617 N   0  0  0  0  0  0  0  0  0  0  0  0
   -5.9618   -0.7842    0.3887 N   0  0  0  0  0  0  0  0  0  0  0  0
   -4.7431   -1.0673   -0.1063 C   0  0  0  0  0  0  0  0  0  0  0  0
   -6.7622    0.4122    0.2711 C   0  0  0  0  0  0  0  0  0  0  0  0
   -5.9573    1.6733    0.2417 C   0  0  0  0  0  0  0  0  0  0  0  0
   -6.8457    2.8337   -0.0649 C   0  0  0  0  0  0  0  0  0  0  0  0
   -8.3146    2.5318    0.0777 C   0  0  0  0  0  0  0  0  0  0  0  0
   -8.7598    1.3689   -0.7578 C   0  0  0  0  0  0  0  0  0  0  0  0
   -7.6456    0.3717   -0.9739 C   0  0  0  0  0  0  0  0  0  0  0  0
    6.1367    0.4501    0.7786 C   0  0  0  0  0  0  0  0  0  0  0  0
    7.3862    1.2234    0.7807 C   0  0  0  0  0  0  0  0  0  0  0  0
    8.5460    0.6106    0.3621 C   0  0  0  0  0  0  0  0  0  0  0  0
    9.7653    1.2618    0.3316 C   0  0  0  0  0  0  0  0  0  0  0  0
    9.8086    2.5689    0.7365 C   0  0  0  0  0  0  0  0  0  0  0  0
    8.6312    3.1864    1.1599 C   0  0  0  0  0  0  0  0  0  0  0  0
    7.4223    2.5177    1.1829 C   0  0  0  0  0  0  0  0  0  0  0  0
    5.3433    0.8043   -2.4108 H   0  0  0  0  0  0  0  0  0  0  0  0
    6.9407    0.1970   -1.7304 H   0  0  0  0  0  0  0  0  0  0  0  0
    5.4812   -0.8700   -1.8619 H   0  0  0  0  0  0  0  0  0  0  0  0
    3.8301    1.4247    0.7282 H   0  0  0  0  0  0  0  0  0  0  0  0
    3.8474    1.8824   -1.0561 H   0  0  0  0  0  0  0  0  0  0  0  0
    2.0460    0.3819   -0.8097 H   0  0  0  0  0  0  0  0  0  0  0  0
    3.3959   -0.4032   -1.6280 H   0  0  0  0  0  0  0  0  0  0  0  0
    2.9325   -0.7524    1.3607 H   0  0  0  0  0  0  0  0  0  0  0  0
    4.2016   -1.5351    0.3846 H   0  0  0  0  0  0  0  0  0  0  0  0
    0.4685   -0.2561    0.7247 H   0  0  0  0  0  0  0  0  0  0  0  0
   -1.9726   -0.5990    0.6845 H   0  0  0  0  0  0  0  0  0  0  0  0
   -1.3978   -5.6352   -0.8149 H   0  0  0  0  0  0  0  0  0  0  0  0
    0.9625   -4.2922   -0.4947 H   0  0  0  0  0  0  0  0  0  0  0  0
   -5.4771   -3.8005    1.4635 H   0  0  0  0  0  0  0  0  0  0  0  0
   -4.1414   -0.3950   -0.7062 H   0  0  0  0  0  0  0  0  0  0  0  0
   -7.4577    0.4801    1.1341 H   0  0  0  0  0  0  0  0  0  0  0  0
   -5.1294    1.6377   -0.4974 H   0  0  0  0  0  0  0  0  0  0  0  0
   -5.5169    1.7958    1.2727 H   0  0  0  0  0  0  0  0  0  0  0  0
   -6.6164    3.6846    0.6130 H   0  0  0  0  0  0  0  0  0  0  0  0
   -6.6935    3.2027   -1.1163 H   0  0  0  0  0  0  0  0  0  0  0  0
   -8.8569    3.4362   -0.3178 H   0  0  0  0  0  0  0  0  0  0  0  0
   -8.6371    2.4402    1.1342 H   0  0  0  0  0  0  0  0  0  0  0  0
   -9.6055    0.8606   -0.2325 H   0  0  0  0  0  0  0  0  0  0  0  0
   -9.1192    1.6909   -1.7595 H   0  0  0  0  0  0  0  0  0  0  0  0
   -7.0096    0.6027   -1.8356 H   0  0  0  0  0  0  0  0  0  0  0  0
   -8.1230   -0.6360   -1.0486 H   0  0  0  0  0  0  0  0  0  0  0  0
    6.3537   -0.6500    0.9414 H   0  0  0  0  0  0  0  0  0  0  0  0
    5.4858    0.7040    1.6632 H   0  0  0  0  0  0  0  0  0  0  0  0
    8.5676   -0.4287    0.0295 H   0  0  0  0  0  0  0  0  0  0  0  0
   10.6844    0.7789    0.0010 H   0  0  0  0  0  0  0  0  0  0  0  0
   10.7386    3.1308    0.7336 H   0  0  0  0  0  0  0  0  0  0  0  0
    8.7080    4.2127    1.4695 H   0  0  0  0  0  0  0  0  0  0  0  0
    6.5404    3.0713    1.5290 H   0  0  0  0  0  0  0  0  0  0  0  0
  1  2  1  0
  2  3  1  0
  3  4  1  0
  4  5  1  0
  5  6  1  0
  6  7  1  0
  7  8  2  0
  8  9  1  0
  9 10  2  0
 10 11  1  0
 11 12  2  0
 12 13  1  0
 13 14  1  0
 14 15  2  0
 11 16  1  0
 16 17  1  0
 17 18  2  0
 18 19  1  0
 19 20  1  0
 19 21  1  0
 21 22  1  0
 22 23  1  0
 23 24  1  0
 24 25  1  0
 25 26  1  0
  2 27  1  0
 27 28  1  0
 28 29  2  0
 29 30  1  0
 30 31  2  0
 31 32  1  0
 32 33  2  0
 15  7  1  0
 20 16  2  0
 26 21  1  0
 33 28  1  0
 14 10  1  0
  1 34  1  0
  1 35  1  0
  1 36  1  0
  3 37  1  0
  3 38  1  0
  4 39  1  0
  4 40  1  0
  5 41  1  0
  5 42  1  0
  8 43  1  0
  9 44  1  0
 13 45  1  0
 15 46  1  0
 17 47  1  0
 20 48  1  0
 21 49  1  0
 22 50  1  0
 22 51  1  0
 23 52  1  0
 23 53  1  0
 24 54  1  0
 24 55  1  0
 25 56  1  0
 25 57  1  0
 26 58  1  0
 26 59  1  0
 27 60  1  0
 27 61  1  0
 29 62  1  0
 30 63  1  0
 31 64  1  0
 32 65  1  0
 33 66  1  0
M  END
$$$$
[H]c1c([H])c([H])c(C([H])(C([H])([H])[H])C([H])([H])[H])c(C([H])([H])C(=O)N([H])C(=NC([H])([H])C([H])([H])C([H])([H])c2c([H])c([H])c(F)c([H])c2F)N([H])[H])c1[H]
     RDKit          3D

 52 53  0  0  0  0  0  0  0  0999 V2000
   -6.3996    1.2822    0.6305 C   0  0  0  0  0  0  0  0  0  0  0  0
   -5.2696    1.1507   -0.4046 C   0  0  0  0  0  0  0  0  0  0  0  0
   -5.9410    1.5866   -1.7176 C   0  0  0  0  0  0  0  0  0  0  0  0
   -4.8933   -0.2649   -0.4662 C   0  0  0  0  0  0  0  0  0  0  0  0
   -5.7833   -1.2569   -0.0279 C   0  0  0  0  0  0  0  0  0  0  0  0
   -5.5399   -2.6051   -0.1461 C   0  0  0  0  0  0  0  0  0  0  0  0
   -4.3633   -3.0150   -0.7240 C   0  0  0  0  0  0  0  0  0  0  0  0
   -3.4682   -2.0744   -1.1629 C   0  0  0  0  0  0  0  0  0  0  0  0
   -3.7391   -0.6942   -1.0290 C   0  0  0  0  0  0  0  0  0  0  0  0
   -2.6517    0.2410   -1.4311 C   0  0  0  0  0  0  0  0  0  0  0  0
   -1.7259    0.5286   -0.3335 C   0  0  0  0  0  0  0  0  0  0  0  0
   -2.0553    1.1467    0.6829 O   0  0  0  0  0  0  0  0  0  0  0  0
   -0.3520    0.0896   -0.3827 N   0  0  0  0  0  0  0  0  0  0  0  0
    0.5651    0.3388    0.6546 C   0  0  0  0  0  0  0  0  0  0  0  0
    0.1661    1.0801    1.8143 N   0  0  0  0  0  0  0  0  0  0  0  0
    1.7811   -0.0966    0.5501 N   0  0  0  0  0  0  0  0  0  0  0  0
    2.7148    0.1599    1.6173 C   0  0  0  0  0  0  0  0  0  0  0  0
    4.1086    0.5081    1.1737 C   0  0  0  0  0  0  0  0  0  0  0  0
    4.6880   -0.6384    0.3740 C   0  0  0  0  0  0  0  0  0  0  0  0
    6.0539   -0.3647   -0.0798 C   0  0  0  0  0  0  0  0  0  0  0  0
    6.6744    0.8035    0.2984 C   0  0  0  0  0  0  0  0  0  0  0  0
    7.9677    1.0721   -0.1219 C   0  0  0  0  0  0  0  0  0  0  0  0
    8.6548    0.1743   -0.9254 C   0  0  0  0  0  0  0  0  0  0  0  0
    9.9133    0.3788   -1.3657 F   0  0  0  0  0  0  0  0  0  0  0  0
    8.0282   -1.0001   -1.3034 C   0  0  0  0  0  0  0  0  0  0  0  0
    6.7212   -1.2528   -0.8684 C   0  0  0  0  0  0  0  0  0  0  0  0
    6.1398   -2.4081   -1.2564 F   0  0  0  0  0  0  0  0  0  0  0  0
   -7.3316    0.9465    0.1369 H   0  0  0  0  0  0  0  0  0  0  0  0
   -6.2261    0.6776    1.5139 H   0  0  0  0  0  0  0  0  0  0  0  0
   -6.5657    2.3635    0.8628 H   0  0  0  0  0  0  0  0  0  0  0  0
   -4.5358    1.8797   -0.1374 H   0  0  0  0  0  0  0  0  0  0  0  0
   -6.6588    2.3893   -1.4654 H   0  0  0  0  0  0  0  0  0  0  0  0
   -5.2295    2.0056   -2.4369 H   0  0  0  0  0  0  0  0  0  0  0  0
   -6.5119    0.7004   -2.0790 H   0  0  0  0  0  0  0  0  0  0  0  0
   -6.7284   -0.9276    0.4360 H   0  0  0  0  0  0  0  0  0  0  0  0
   -6.2750   -3.3208    0.2207 H   0  0  0  0  0  0  0  0  0  0  0  0
   -4.1591   -4.0784   -0.8272 H   0  0  0  0  0  0  0  0  0  0  0  0
   -2.5197   -2.3546   -1.6338 H   0  0  0  0  0  0  0  0  0  0  0  0
   -3.0621    1.1558   -1.9114 H   0  0  0  0  0  0  0  0  0  0  0  0
   -2.0774   -0.2614   -2.2449 H   0  0  0  0  0  0  0  0  0  0  0  0
   -0.0533   -0.4292   -1.2338 H   0  0  0  0  0  0  0  0  0  0  0  0
   -0.4653    0.7105    2.5525 H   0  0  0  0  0  0  0  0  0  0  0  0
    0.5239    2.0553    1.9353 H   0  0  0  0  0  0  0  0  0  0  0  0
    2.3422    0.9753    2.3062 H   0  0  0  0  0  0  0  0  0  0  0  0
    2.8249   -0.7825    2.2331 H   0  0  0  0  0  0  0  0  0  0  0  0
    4.1413    1.4559    0.6054 H   0  0  0  0  0  0  0  0  0  0  0  0
    4.7169    0.6218    2.1079 H   0  0  0  0  0  0  0  0  0  0  0  0
    4.6634   -1.5403    1.0376 H   0  0  0  0  0  0  0  0  0  0  0  0
    4.0311   -0.8827   -0.4797 H   0  0  0  0  0  0  0  0  0  0  0  0
    6.1499    1.4978    0.9198 H   0  0  0  0  0  0  0  0  0  0  0  0
    8.4640    1.9801    0.1665 H   0  0  0  0  0  0  0  0  0  0  0  0
    8.5474   -1.7073   -1.9294 H   0  0  0  0  0  0  0  0  0  0  0  0
  1  2  1  0
  2  3  1  0
  2  4  1  0
  4  5  2  0
  5  6  1  0
  6  7  2  0
  7  8  1  0
  8  9  2  0
  9 10  1  0
 10 11  1  0
 11 12  2  0
 11 13  1  0
 13 14  1  0
 14 15  1  0
 14 16  2  3
 16 17  1  0
 17 18  1  0
 18 19  1  0
 19 20  1  0
 20 21  2  0
 21 22  1  0
 22 23  2  0
 23 24  1  0
 23 25  1  0
 25 26  2  0
 26 27  1  0
  9  4  1  0
 26 20  1  0
  1 28  1  0
  1 29  1  0
  1 30  1  0
  2 31  1  0
  3 32  1  0
  3 33  1  0
  3 34  1  0
  5 35  1  0
  6 36  1  0
  7 37  1  0
  8 38  1  0
 10 39  1  0
 10 40  1  0
 13 41  1  0
 15 42  1  0
 15 43  1  0
 17 44  1  0
 17 45  1  0
 18 46  1  0
 18 47  1  0
 19 48  1  0
 19 49  1  0
 21 50  1  0
 22 51  1  0
 25 52  1  0
M  END
$$$$
[H]c1c([H])c([H])c(-c2nc(C([H])([H])[H])sc2C(=O)N([H])c2c([H])c([H])c([H])c(Cl)c2[H])c([H])c1[H]
     RDKit          3D

 35 37  0  0  0  0  0  0  0  0999 V2000
   -4.0683    4.0053   -0.1840 C   0  0  0  0  0  0  0  0  0  0  0  0
   -2.9331    3.0010   -0.1342 C   0  0  0  0  0  0  0  0  0  0  0  0
   -2.9742    1.7051   -0.1401 N   0  0  0  0  0  0  0  0  0  0  0  0
   -1.8601    0.9784   -0.0897 C   0  0  0  0  0  0  0  0  0  0  0  0
   -1.9927   -0.5200   -0.0659 C   0  0  0  0  0  0  0  0  0  0  0  0
   -2.5627   -1.2033   -1.1144 C   0  0  0  0  0  0  0  0  0  0  0  0
   -2.7966   -2.5632   -1.0743 C   0  0  0  0  0  0  0  0  0  0  0  0
   -2.4569   -3.2912    0.0448 C   0  0  0  0  0  0  0  0  0  0  0  0
   -1.8853   -2.6178    1.1013 C   0  0  0  0  0  0  0  0  0  0  0  0
   -1.6533   -1.2499    1.0533 C   0  0  0  0  0  0  0  0  0  0  0  0
   -0.6885    1.6587   -0.0376 C   0  0  0  0  0  0  0  0  0  0  0  0
   -1.2705    3.3140   -0.0556 S   0  0  0  0  0  0  0  0  0  0  0  0
    0.7280    1.2796    0.0233 C   0  0  0  0  0  0  0  0  0  0  0  0
    1.5142    2.2682    0.2138 O   0  0  0  0  0  0  0  0  0  0  0  0
    1.2840    0.0205   -0.1054 N   0  0  0  0  0  0  0  0  0  0  0  0
    2.6844   -0.2504   -0.0005 C   0  0  0  0  0  0  0  0  0  0  0  0
    3.2404   -1.2940   -0.7389 C   0  0  0  0  0  0  0  0  0  0  0  0
    4.5792   -1.5947   -0.6309 C   0  0  0  0  0  0  0  0  0  0  0  0
    5.4199   -0.8830    0.2048 C   0  0  0  0  0  0  0  0  0  0  0  0
    4.8692    0.1301    0.9194 C   0  0  0  0  0  0  0  0  0  0  0  0
    5.8749    1.0696    1.9942 Cl  0  0  0  0  0  0  0  0  0  0  0  0
    3.5129    0.4470    0.8211 C   0  0  0  0  0  0  0  0  0  0  0  0
   -4.3818    4.1731   -1.2325 H   0  0  0  0  0  0  0  0  0  0  0  0
   -3.6859    4.9238    0.3102 H   0  0  0  0  0  0  0  0  0  0  0  0
   -4.9067    3.5319    0.3584 H   0  0  0  0  0  0  0  0  0  0  0  0
   -2.8303   -0.6203   -2.0002 H   0  0  0  0  0  0  0  0  0  0  0  0
   -3.2443   -3.1019   -1.8970 H   0  0  0  0  0  0  0  0  0  0  0  0
   -2.6271   -4.3670    0.1118 H   0  0  0  0  0  0  0  0  0  0  0  0
   -1.6157   -3.1960    1.9896 H   0  0  0  0  0  0  0  0  0  0  0  0
   -1.2042   -0.7372    1.8907 H   0  0  0  0  0  0  0  0  0  0  0  0
    0.7284   -0.8593   -0.3354 H   0  0  0  0  0  0  0  0  0  0  0  0
    2.5965   -1.8562   -1.3935 H   0  0  0  0  0  0  0  0  0  0  0  0
    5.0079   -2.4063   -1.2062 H   0  0  0  0  0  0  0  0  0  0  0  0
    6.4635   -1.1584    0.2534 H   0  0  0  0  0  0  0  0  0  0  0  0
    3.1347    1.2636    1.4452 H   0  0  0  0  0  0  0  0  0  0  0  0
  1  2  1  0
  2  3  2  0
  3  4  1  0
  4  5  1  0
  5  6  2  0
  6  7  1  0
  7  8  2  0
  8  9  1  0
  9 10  2  0
  4 11  2  0
 11 12  1  0
 11 13  1  0
 13 14  2  0
 13 15  1  0
 15 16  1  0
 16 17  2  0
 17 18  1  0
 18 19  2  0
 19 20  1  0
 20 21  1  0
 20 22  2  0
 12  2  1  0
 22 16  1  0
 10  5  1  0
  1 23  1  0
  1 24  1  0
  1 25  1  0
  6 26  1  0
  7 27  1  0
  8 28  1  0
  9 29  1  0
 10 30  1  0
 15 31  1  0
 17 32  1  0
 18 33  1  0
 19 34  1  0
 22 35  1  0
M  END
$$$$
[H]OC(=O)C([H])([H])C(=O)N([H])C([H])([H])C([H])(C([H])([H])c1c([H])c([H])c([H])c([H])c1C(F)(F)F)C([H])([H])C([H])([H])[H]
     RDKit          3D

 40 40  0  0  0  0  0  0  0  0999 V2000
    0.5775   -3.5735   -0.3363 C   0  0  0  0  0  0  0  0  0  0  0  0
   -0.0493   -2.4716   -1.1094 C   0  0  0  0  0  0  0  0  0  0  0  0
   -0.6212   -1.3703   -0.2072 C   0  0  0  0  0  0  0  0  0  0  0  0
    0.5639   -0.8490    0.5853 C   0  0  0  0  0  0  0  0  0  0  0  0
    1.6165   -0.3162   -0.2300 N   0  0  0  0  0  0  0  0  0  0  0  0
    2.7826    0.1869    0.4238 C   0  0  0  0  0  0  0  0  0  0  0  0
    2.8555    0.1573    1.6765 O   0  0  0  0  0  0  0  0  0  0  0  0
    3.8693    0.7285   -0.4478 C   0  0  0  0  0  0  0  0  0  0  0  0
    5.0006    1.2146    0.3686 C   0  0  0  0  0  0  0  0  0  0  0  0
    6.1167    1.7304   -0.2691 O   0  0  0  0  0  0  0  0  0  0  0  0
    4.9708    1.1696    1.6210 O   0  0  0  0  0  0  0  0  0  0  0  0
   -1.2472   -0.3785   -1.1167 C   0  0  0  0  0  0  0  0  0  0  0  0
   -1.9049    0.7799   -0.5684 C   0  0  0  0  0  0  0  0  0  0  0  0
   -1.1830    1.9659   -0.4651 C   0  0  0  0  0  0  0  0  0  0  0  0
   -1.7363    3.1082    0.0640 C   0  0  0  0  0  0  0  0  0  0  0  0
   -3.0166    3.1334    0.5116 C   0  0  0  0  0  0  0  0  0  0  0  0
   -3.7529    1.9821    0.4225 C   0  0  0  0  0  0  0  0  0  0  0  0
   -3.2069    0.8042   -0.1152 C   0  0  0  0  0  0  0  0  0  0  0  0
   -4.1062   -0.3469   -0.1767 C   0  0  0  0  0  0  0  0  0  0  0  0
   -4.2554   -0.8559   -1.4799 F   0  0  0  0  0  0  0  0  0  0  0  0
   -5.4410    0.1065    0.0769 F   0  0  0  0  0  0  0  0  0  0  0  0
   -3.9472   -1.3144    0.7726 F   0  0  0  0  0  0  0  0  0  0  0  0
    1.7009   -3.5394   -0.3452 H   0  0  0  0  0  0  0  0  0  0  0  0
    0.2289   -3.6742    0.7061 H   0  0  0  0  0  0  0  0  0  0  0  0
    0.3341   -4.5385   -0.8276 H   0  0  0  0  0  0  0  0  0  0  0  0
    0.6772   -1.9816   -1.7722 H   0  0  0  0  0  0  0  0  0  0  0  0
   -0.8688   -2.8885   -1.7457 H   0  0  0  0  0  0  0  0  0  0  0  0
   -1.2834   -1.8312    0.5421 H   0  0  0  0  0  0  0  0  0  0  0  0
    0.9697   -1.7486    1.1351 H   0  0  0  0  0  0  0  0  0  0  0  0
    0.2455   -0.1536    1.4063 H   0  0  0  0  0  0  0  0  0  0  0  0
    1.5517   -0.2817   -1.2682 H   0  0  0  0  0  0  0  0  0  0  0  0
    4.2266   -0.0742   -1.1298 H   0  0  0  0  0  0  0  0  0  0  0  0
    3.4507    1.5957   -0.9834 H   0  0  0  0  0  0  0  0  0  0  0  0
    6.6775    2.4132    0.1966 H   0  0  0  0  0  0  0  0  0  0  0  0
   -0.3978    0.0050   -1.7770 H   0  0  0  0  0  0  0  0  0  0  0  0
   -1.8554   -0.9649   -1.8479 H   0  0  0  0  0  0  0  0  0  0  0  0
   -0.1404    2.0330   -0.8122 H   0  0  0  0  0  0  0  0  0  0  0  0
   -1.1370    4.0089    0.1240 H   0  0  0  0  0  0  0  0  0  0  0  0
   -3.4910    4.0255    0.9387 H   0  0  0  0  0  0  0  0  0  0  0  0
   -4.7744    2.0040    0.7813 H   0  0  0  0  0  0  0  0  0  0  0  0
  1  2  1  0
  2  3  1  0
  3  4  1  0
  4  5  1  0
  5  6  1  0
  6  7  2  0
  6  8  1  0
  8  9  1  0
  9 10  1  0
  9 11  2  0
  3 12  1  0
 12 13  1  0
 13 14  2  0
 14 15  1  0
 15 16  2  0
 16 17  1  0
 17 18  2  0
 18 19  1  0
 19 20  1  0
 19 21  1  0
 19 22  1  0
 18 13  1  0
  1 23  1  0
  1 24  1  0
  1 25  1  0
  2 26  1  0
  2 27  1  0
  3 28  1  0
  4 29  1  0
  4 30  1  0
  5 31  1  0
  8 32  1  0
  8 33  1  0
 10 34  1  0
 12 35  1  0
 12 36  1  0
 14 37  1  0
 15 38  1  0
 16 39  1  0
 17 40  1  0
M  END
$$$$
[H]c1nc2nc([H])c(-c3c(C([H])(C([H])([H])[H])C([H])([H])[H])c4c([H])c(C5([H])C([H])([H])C([H])([H])N(C([H])([H])c6c([H])nn(C([H])([H])[H])c6[H])C([H])([H])C5([H])[H])c([H])c([H])c4n3[H])c([H])n2n1
     RDKit          3D

 64 69  0  0  0  0  0  0  0  0999 V2000
   -2.4616    1.4217   -2.3153 C   0  0  0  0  0  0  0  0  0  0  0  0
   -3.2191    0.1817   -1.8616 C   0  0  0  0  0  0  0  0  0  0  0  0
   -4.3051   -0.3236   -2.7453 C   0  0  0  0  0  0  0  0  0  0  0  0
   -3.1674   -0.1728   -0.4479 C   0  0  0  0  0  0  0  0  0  0  0  0
   -4.2187   -0.3672    0.4218 C   0  0  0  0  0  0  0  0  0  0  0  0
   -3.7260   -0.9314    1.5769 N   0  0  0  0  0  0  0  0  0  0  0  0
   -2.4189   -1.0889    1.4604 C   0  0  0  0  0  0  0  0  0  0  0  0
   -1.5019   -1.6261    2.3369 C   0  0  0  0  0  0  0  0  0  0  0  0
   -0.2046   -1.6970    1.9703 C   0  0  0  0  0  0  0  0  0  0  0  0
    0.1964   -1.2226    0.7173 C   0  0  0  0  0  0  0  0  0  0  0  0
   -0.7058   -0.7007   -0.1350 C   0  0  0  0  0  0  0  0  0  0  0  0
   -2.0386   -0.6349    0.2399 C   0  0  0  0  0  0  0  0  0  0  0  0
    1.6525   -1.3055    0.5067 C   0  0  0  0  0  0  0  0  0  0  0  0
    2.2333   -0.7937   -0.7242 C   0  0  0  0  0  0  0  0  0  0  0  0
    3.7469   -0.6995   -0.7252 C   0  0  0  0  0  0  0  0  0  0  0  0
    4.3153   -0.2592    0.4628 N   0  0  0  0  0  0  0  0  0  0  0  0
    4.9687    0.9457    0.6387 C   0  0  0  0  0  0  0  0  0  0  0  0
    6.2915    1.0359   -0.0365 C   0  0  0  0  0  0  0  0  0  0  0  0
    6.6859    1.7319   -1.1388 C   0  0  0  0  0  0  0  0  0  0  0  0
    8.0001    1.4794   -1.3272 N   0  0  0  0  0  0  0  0  0  0  0  0
    8.4367    0.6628   -0.3969 N   0  0  0  0  0  0  0  0  0  0  0  0
    9.8096    0.1774   -0.3051 C   0  0  0  0  0  0  0  0  0  0  0  0
    7.4389    0.3669    0.4076 C   0  0  0  0  0  0  0  0  0  0  0  0
    3.7628   -0.8509    1.6576 C   0  0  0  0  0  0  0  0  0  0  0  0
    2.2907   -0.5190    1.7112 C   0  0  0  0  0  0  0  0  0  0  0  0
   -5.5935    0.1440    0.3909 C   0  0  0  0  0  0  0  0  0  0  0  0
   -5.7737    1.3591    1.1000 C   0  0  0  0  0  0  0  0  0  0  0  0
   -6.9995    1.8876    1.2392 N   0  0  0  0  0  0  0  0  0  0  0  0
   -8.1070    1.3199    0.7282 C   0  0  0  0  0  0  0  0  0  0  0  0
   -9.4248    1.6529    0.7441 N   0  0  0  0  0  0  0  0  0  0  0  0
  -10.0687    0.6809    0.0788 C   0  0  0  0  0  0  0  0  0  0  0  0
   -9.1544   -0.2104   -0.3293 N   0  0  0  0  0  0  0  0  0  0  0  0
   -7.9544    0.1658    0.0531 N   0  0  0  0  0  0  0  0  0  0  0  0
   -6.7060   -0.4062   -0.1054 C   0  0  0  0  0  0  0  0  0  0  0  0
   -1.6478    1.6067   -1.6174 H   0  0  0  0  0  0  0  0  0  0  0  0
   -3.1701    2.3008   -2.3739 H   0  0  0  0  0  0  0  0  0  0  0  0
   -2.1269    1.2710   -3.3572 H   0  0  0  0  0  0  0  0  0  0  0  0
   -2.3316   -0.6192   -2.2617 H   0  0  0  0  0  0  0  0  0  0  0  0
   -4.9718    0.4358   -3.2026 H   0  0  0  0  0  0  0  0  0  0  0  0
   -3.9021   -0.8793   -3.6751 H   0  0  0  0  0  0  0  0  0  0  0  0
   -4.8540   -1.1017   -2.2224 H   0  0  0  0  0  0  0  0  0  0  0  0
   -4.3041   -1.1835    2.4035 H   0  0  0  0  0  0  0  0  0  0  0  0
   -1.8574   -1.9785    3.3059 H   0  0  0  0  0  0  0  0  0  0  0  0
    0.5147   -2.1412    2.6247 H   0  0  0  0  0  0  0  0  0  0  0  0
   -0.4300   -0.3369   -1.0973 H   0  0  0  0  0  0  0  0  0  0  0  0
    2.0112   -2.3621    0.7333 H   0  0  0  0  0  0  0  0  0  0  0  0
    2.0079   -1.5090   -1.5789 H   0  0  0  0  0  0  0  0  0  0  0  0
    1.7437    0.1534   -1.0506 H   0  0  0  0  0  0  0  0  0  0  0  0
    4.0426   -0.0451   -1.5613 H   0  0  0  0  0  0  0  0  0  0  0  0
    4.1070   -1.7334   -0.9629 H   0  0  0  0  0  0  0  0  0  0  0  0
    5.2221    1.0538    1.7475 H   0  0  0  0  0  0  0  0  0  0  0  0
    4.3846    1.8750    0.3980 H   0  0  0  0  0  0  0  0  0  0  0  0
    6.0397    2.3669   -1.7119 H   0  0  0  0  0  0  0  0  0  0  0  0
    9.9255   -0.7827   -0.8281 H   0  0  0  0  0  0  0  0  0  0  0  0
   10.0806    0.0508    0.7683 H   0  0  0  0  0  0  0  0  0  0  0  0
   10.5144    0.9284   -0.6973 H   0  0  0  0  0  0  0  0  0  0  0  0
    7.4433   -0.2844    1.2656 H   0  0  0  0  0  0  0  0  0  0  0  0
    4.2265   -0.3359    2.5281 H   0  0  0  0  0  0  0  0  0  0  0  0
    3.9121   -1.9321    1.6727 H   0  0  0  0  0  0  0  0  0  0  0  0
    2.1627    0.5527    1.4384 H   0  0  0  0  0  0  0  0  0  0  0  0
    1.8643   -0.8271    2.6586 H   0  0  0  0  0  0  0  0  0  0  0  0
   -4.8989    1.8399    1.5221 H   0  0  0  0  0  0  0  0  0  0  0  0
  -11.1452    0.7115   -0.0597 H   0  0  0  0  0  0  0  0  0  0  0  0
   -6.6426   -1.3346   -0.6573 H   0  0  0  0  0  0  0  0  0  0  0  0
  1  2  1  0
  2  3  1  0
  2  4  1  0
  4  5  2  0
  5  6  1  0
  6  7  1  0
  7  8  2  0
  8  9  1  0
  9 10  2  0
 10 11  1  0
 11 12  2  0
 10 13  1  0
 13 14  1  0
 14 15  1  0
 15 16  1  0
 16 17  1  0
 17 18  1  0
 18 19  1  0
 19 20  2  0
 20 21  1  0
 21 22  1  0
 21 23  1  0
 16 24  1  0
 24 25  1  0
  5 26  1  0
 26 27  1  0
 27 28  2  0
 28 29  1  0
 29 30  2  0
 30 31  1  0
 31 32  2  0
 32 33  1  0
 33 34  1  0
 12  4  1  0
 25 13  1  0
 34 26  2  0
 12  7  1  0
 23 18  2  0
 33 29  1  0
  1 35  1  0
  1 36  1  0
  1 37  1  0
  2 38  1  0
  3 39  1  0
  3 40  1  0
  3 41  1  0
  6 42  1  0
  8 43  1  0
  9 44  1  0
 11 45  1  0
 13 46  1  0
 14 47  1  0
 14 48  1  0
 15 49  1  0
 15 50  1  0
 17 51  1  0
 17 52  1  0
 19 53  1  0
 22 54  1  0
 22 55  1  0
 22 56  1  0
 23 57  1  0
 24 58  1  0
 24 59  1  0
 25 60  1  0
 25 61  1  0
 27 62  1  0
 31 63  1  0
 34 64  1  0
M  END
$$$$
[H]c1c([H])c(C([H])([H])N2C([H])([H])C([H])([H])C([H])([H])C(C([H])([H])[H])(C([H])([H])[H])C2([H])[H])c([H])c([H])c1-c1noc2c([H])c([H])c3c4c([H])c(C([H])([H])[H])c([H])c([H])c4n([H])c3c12
     RDKit          3D

 61 66  0  0  0  0  0  0  0  0999 V2000
   -8.7070    1.0731    1.5727 C   0  0  0  0  0  0  0  0  0  0  0  0
   -7.2744    0.8938    1.2364 C   0  0  0  0  0  0  0  0  0  0  0  0
   -6.4250    1.9757    1.1444 C   0  0  0  0  0  0  0  0  0  0  0  0
   -5.0970    1.7838    0.8303 C   0  0  0  0  0  0  0  0  0  0  0  0
   -4.6416    0.4819    0.6108 C   0  0  0  0  0  0  0  0  0  0  0  0
   -3.4162   -0.0229    0.2916 N   0  0  0  0  0  0  0  0  0  0  0  0
   -3.5048   -1.3504    0.1928 C   0  0  0  0  0  0  0  0  0  0  0  0
   -4.8152   -1.7408    0.4487 C   0  0  0  0  0  0  0  0  0  0  0  0
   -5.1662   -3.0606    0.3878 C   0  0  0  0  0  0  0  0  0  0  0  0
   -4.2296   -4.0173    0.0724 C   0  0  0  0  0  0  0  0  0  0  0  0
   -2.9257   -3.6716   -0.1862 C   0  0  0  0  0  0  0  0  0  0  0  0
   -1.8425   -4.3210   -0.5047 O   0  0  0  0  0  0  0  0  0  0  0  0
   -0.8437   -3.5450   -0.6470 N   0  0  0  0  0  0  0  0  0  0  0  0
   -1.2228   -2.2343   -0.4153 C   0  0  0  0  0  0  0  0  0  0  0  0
   -0.2851   -1.1418   -0.5180 C   0  0  0  0  0  0  0  0  0  0  0  0
    0.0342   -0.2337    0.4564 C   0  0  0  0  0  0  0  0  0  0  0  0
    0.9243    0.7931    0.3344 C   0  0  0  0  0  0  0  0  0  0  0  0
    1.5648    0.9322   -0.8848 C   0  0  0  0  0  0  0  0  0  0  0  0
    2.5411    2.0234   -1.0859 C   0  0  0  0  0  0  0  0  0  0  0  0
    3.8665    1.6623   -0.7749 N   0  0  0  0  0  0  0  0  0  0  0  0
    4.8681    2.6248   -0.9312 C   0  0  0  0  0  0  0  0  0  0  0  0
    6.2267    2.2334   -0.4175 C   0  0  0  0  0  0  0  0  0  0  0  0
    6.0268    1.3225    0.7755 C   0  0  0  0  0  0  0  0  0  0  0  0
    5.4016    0.0450    0.2561 C   0  0  0  0  0  0  0  0  0  0  0  0
    5.0510   -0.7978    1.4756 C   0  0  0  0  0  0  0  0  0  0  0  0
    6.4815   -0.7079   -0.4910 C   0  0  0  0  0  0  0  0  0  0  0  0
    4.2003    0.3155   -0.6085 C   0  0  0  0  0  0  0  0  0  0  0  0
    1.2903    0.0489   -1.9158 C   0  0  0  0  0  0  0  0  0  0  0  0
    0.3773   -0.9792   -1.7432 C   0  0  0  0  0  0  0  0  0  0  0  0
   -2.5552   -2.3212   -0.1242 C   0  0  0  0  0  0  0  0  0  0  0  0
   -5.5117   -0.5680    0.7103 C   0  0  0  0  0  0  0  0  0  0  0  0
   -6.8323   -0.3940    1.0211 C   0  0  0  0  0  0  0  0  0  0  0  0
   -9.3087    0.7008    0.7168 H   0  0  0  0  0  0  0  0  0  0  0  0
   -9.0010    0.4569    2.4597 H   0  0  0  0  0  0  0  0  0  0  0  0
   -8.9615    2.1170    1.8414 H   0  0  0  0  0  0  0  0  0  0  0  0
   -6.7707    2.9989    1.3141 H   0  0  0  0  0  0  0  0  0  0  0  0
   -4.4091    2.6156    0.7517 H   0  0  0  0  0  0  0  0  0  0  0  0
   -2.6326    0.6129    0.1576 H   0  0  0  0  0  0  0  0  0  0  0  0
   -6.2134   -3.3277    0.5977 H   0  0  0  0  0  0  0  0  0  0  0  0
   -4.5486   -5.0461    0.0342 H   0  0  0  0  0  0  0  0  0  0  0  0
   -0.4739   -0.3495    1.4126 H   0  0  0  0  0  0  0  0  0  0  0  0
    1.1545    1.4952    1.1281 H   0  0  0  0  0  0  0  0  0  0  0  0
    2.2499    2.9170   -0.4927 H   0  0  0  0  0  0  0  0  0  0  0  0
    2.4976    2.3134   -2.1750 H   0  0  0  0  0  0  0  0  0  0  0  0
    4.5789    3.5661   -0.3951 H   0  0  0  0  0  0  0  0  0  0  0  0
    4.9949    2.9402   -2.0054 H   0  0  0  0  0  0  0  0  0  0  0  0
    6.7649    3.1319   -0.0513 H   0  0  0  0  0  0  0  0  0  0  0  0
    6.8036    1.7562   -1.2207 H   0  0  0  0  0  0  0  0  0  0  0  0
    6.9818    1.0422    1.2652 H   0  0  0  0  0  0  0  0  0  0  0  0
    5.3278    1.8511    1.4601 H   0  0  0  0  0  0  0  0  0  0  0  0
    5.9001   -0.7197    2.1806 H   0  0  0  0  0  0  0  0  0  0  0  0
    4.8915   -1.8624    1.1440 H   0  0  0  0  0  0  0  0  0  0  0  0
    4.1035   -0.3851    1.8753 H   0  0  0  0  0  0  0  0  0  0  0  0
    6.3376   -0.6242   -1.5868 H   0  0  0  0  0  0  0  0  0  0  0  0
    7.4936   -0.3177   -0.2670 H   0  0  0  0  0  0  0  0  0  0  0  0
    6.4995   -1.7856   -0.2331 H   0  0  0  0  0  0  0  0  0  0  0  0
    4.3696   -0.2018   -1.5979 H   0  0  0  0  0  0  0  0  0  0  0  0
    3.3466   -0.2377   -0.1485 H   0  0  0  0  0  0  0  0  0  0  0  0
    1.7965    0.1707   -2.8574 H   0  0  0  0  0  0  0  0  0  0  0  0
    0.1481   -1.6796   -2.5336 H   0  0  0  0  0  0  0  0  0  0  0  0
   -7.4795   -1.2511    1.0885 H   0  0  0  0  0  0  0  0  0  0  0  0
  1  2  1  0
  2  3  2  0
  3  4  1  0
  4  5  2  0
  5  6  1  0
  6  7  1  0
  7  8  2  0
  8  9  1  0
  9 10  2  0
 10 11  1  0
 11 12  1  0
 12 13  1  0
 13 14  2  0
 14 15  1  0
 15 16  2  0
 16 17  1  0
 17 18  2  0
 18 19  1  0
 19 20  1  0
 20 21  1  0
 21 22  1  0
 22 23  1  0
 23 24  1  0
 24 25  1  0
 24 26  1  0
 24 27  1  0
 18 28  1  0
 28 29  2  0
 14 30  1  0
  8 31  1  0
 31 32  2  0
 32  2  1  0
 31  5  1  0
 30  7  1  0
 30 11  2  0
 29 15  1  0
 27 20  1  0
  1 33  1  0
  1 34  1  0
  1 35  1  0
  3 36  1  0
  4 37  1  0
  6 38  1  0
  9 39  1  0
 10 40  1  0
 16 41  1  0
 17 42  1  0
 19 43  1  0
 19 44  1  0
 21 45  1  0
 21 46  1  0
 22 47  1  0
 22 48  1  0
 23 49  1  0
 23 50  1  0
 25 51  1  0
 25 52  1  0
 25 53  1  0
 26 54  1  0
 26 55  1  0
 26 56  1  0
 27 57  1  0
 27 58  1  0
 28 59  1  0
 29 60  1  0
 32 61  1  0
M  END
$$$$
[H]OC(=O)c1nnn(C([H])([H])c2c([H])c([H])c(OC([H])([H])c3c([H])c([H])c([H])c(C(F)(F)F)c3[H])c(C([H])(C([H])([H])[H])C([H])([H])[H])c2[H])n1
     RDKit          3D

 49 51  0  0  0  0  0  0  0  0999 V2000
   -1.2215    3.3172    1.1178 C   0  0  0  0  0  0  0  0  0  0  0  0
   -0.1419    2.2798    0.9419 C   0  0  0  0  0  0  0  0  0  0  0  0
    1.0813    2.8625    0.3772 C   0  0  0  0  0  0  0  0  0  0  0  0
   -0.6353    0.9989    0.4812 C   0  0  0  0  0  0  0  0  0  0  0  0
   -1.9466    0.6974    0.7490 C   0  0  0  0  0  0  0  0  0  0  0  0
   -2.5578   -0.5168    0.4663 C   0  0  0  0  0  0  0  0  0  0  0  0
   -3.8493   -0.8576    1.0511 C   0  0  0  0  0  0  0  0  0  0  0  0
   -5.0916   -0.4828    0.5792 N   0  0  0  0  0  0  0  0  0  0  0  0
   -5.7713    0.6515    0.7872 N   0  0  0  0  0  0  0  0  0  0  0  0
   -6.9812    0.5735    0.2985 N   0  0  0  0  0  0  0  0  0  0  0  0
   -7.1098   -0.6432   -0.2542 C   0  0  0  0  0  0  0  0  0  0  0  0
   -5.9462   -1.2712   -0.0781 N   0  0  0  0  0  0  0  0  0  0  0  0
   -8.3315   -1.1322   -0.8834 C   0  0  0  0  0  0  0  0  0  0  0  0
   -8.3760   -2.3998   -1.4382 O   0  0  0  0  0  0  0  0  0  0  0  0
   -9.3903   -0.4273   -0.9514 O   0  0  0  0  0  0  0  0  0  0  0  0
   -1.7558   -1.4816   -0.1550 C   0  0  0  0  0  0  0  0  0  0  0  0
   -0.4366   -1.1774   -0.4247 C   0  0  0  0  0  0  0  0  0  0  0  0
    0.1243    0.0382   -0.1044 C   0  0  0  0  0  0  0  0  0  0  0  0
    1.4754    0.3048   -0.3328 O   0  0  0  0  0  0  0  0  0  0  0  0
    2.3090   -0.6589   -0.9663 C   0  0  0  0  0  0  0  0  0  0  0  0
    3.7659   -0.3830   -0.7684 C   0  0  0  0  0  0  0  0  0  0  0  0
    4.3461    0.8256   -0.6000 C   0  0  0  0  0  0  0  0  0  0  0  0
    5.6858    0.9261   -0.2871 C   0  0  0  0  0  0  0  0  0  0  0  0
    6.4866   -0.1867   -0.1354 C   0  0  0  0  0  0  0  0  0  0  0  0
    5.9112   -1.4365   -0.3038 C   0  0  0  0  0  0  0  0  0  0  0  0
    4.5819   -1.5253   -0.6152 C   0  0  0  0  0  0  0  0  0  0  0  0
    6.7448   -2.6701   -0.0949 C   0  0  0  0  0  0  0  0  0  0  0  0
    7.8660   -2.5847   -0.8788 F   0  0  0  0  0  0  0  0  0  0  0  0
    7.1244   -2.6416    1.2292 F   0  0  0  0  0  0  0  0  0  0  0  0
    5.9610   -3.7831   -0.3985 F   0  0  0  0  0  0  0  0  0  0  0  0
   -0.7322    4.3104    1.2823 H   0  0  0  0  0  0  0  0  0  0  0  0
   -1.8340    3.0955    1.9925 H   0  0  0  0  0  0  0  0  0  0  0  0
   -1.8524    3.3986    0.1931 H   0  0  0  0  0  0  0  0  0  0  0  0
    0.1447    2.0631    2.0666 H   0  0  0  0  0  0  0  0  0  0  0  0
    2.0207    2.5263    0.9334 H   0  0  0  0  0  0  0  0  0  0  0  0
    1.0722    3.9695    0.6424 H   0  0  0  0  0  0  0  0  0  0  0  0
    1.2229    2.8348   -0.7012 H   0  0  0  0  0  0  0  0  0  0  0  0
   -2.6183    1.4233    1.2213 H   0  0  0  0  0  0  0  0  0  0  0  0
   -3.7745   -0.5038    2.1583 H   0  0  0  0  0  0  0  0  0  0  0  0
   -3.8292   -2.0085    1.2737 H   0  0  0  0  0  0  0  0  0  0  0  0
   -7.5153   -2.8076   -1.7233 H   0  0  0  0  0  0  0  0  0  0  0  0
   -2.1898   -2.4087   -0.4054 H   0  0  0  0  0  0  0  0  0  0  0  0
    0.1616   -1.9286   -0.9120 H   0  0  0  0  0  0  0  0  0  0  0  0
    2.1545   -0.5077   -2.0924 H   0  0  0  0  0  0  0  0  0  0  0  0
    2.1027   -1.6926   -0.7326 H   0  0  0  0  0  0  0  0  0  0  0  0
    3.7276    1.7319   -0.7209 H   0  0  0  0  0  0  0  0  0  0  0  0
    6.1309    1.9136   -0.1395 H   0  0  0  0  0  0  0  0  0  0  0  0
    7.5503   -0.1204    0.1159 H   0  0  0  0  0  0  0  0  0  0  0  0
    4.1365   -2.5049   -0.7529 H   0  0  0  0  0  0  0  0  0  0  0  0
  1  2  1  0
  2  3  1  0
  2  4  1  0
  4  5  2  0
  5  6  1  0
  6  7  1  0
  7  8  1  0
  8  9  1  0
  9 10  2  0
 10 11  1  0
 11 12  2  0
 11 13  1  0
 13 14  1  0
 13 15  2  0
  6 16  2  0
 16 17  1  0
 17 18  2  0
 18 19  1  0
 19 20  1  0
 20 21  1  0
 21 22  2  0
 22 23  1  0
 23 24  2  0
 24 25  1  0
 25 26  2  0
 25 27  1  0
 27 28  1  0
 27 29  1  0
 27 30  1  0
 18  4  1  0
 26 21  1  0
 12  8  1  0
  1 31  1  0
  1 32  1  0
  1 33  1  0
  2 34  1  0
  3 35  1  0
  3 36  1  0
  3 37  1  0
  5 38  1  0
  7 39  1  0
  7 40  1  0
 14 41  1  0
 16 42  1  0
 17 43  1  0
 20 44  1  0
 20 45  1  0
 22 46  1  0
 23 47  1  0
 24 48  1  0
 26 49  1  0
M  END
$$$$
[H]c1c([H])c([H])c(C([H])([H])[C@@]2([H])C(=O)N3C([H])([H])C([H])([H])C([H])([H])[C@@]3([H])C(=O)N([H])[C@@]([H])(C([H])([H])C([H])([H])C([H])([H])C([H])([H])N=C(N([H])[H])N([H])[H])C(=O)N([H])[C@@]([H])(C([H])([H])c3c([H])c([H])c([H])c([H])c3[H])C(=O)N3C([H])([H])C([H])([H])C([H])([H])C([H])([H])[C@@]3([H])C(=O)N3C([H])([H])C([H])([H])C([H])([H])[C@@]3([H])C(=O)N2[H])c([H])c1[H]
     RDKit          3D

111116  0  0  0  0  0  0  0  0999 V2000
    5.8641    6.7062    0.0017 N   0  0  0  0  0  0  0  0  0  0  0  0
    7.0150    5.8928    0.1738 C   0  0  0  0  0  0  0  0  0  0  0  0
    8.1410    6.4047    0.8671 N   0  0  0  0  0  0  0  0  0  0  0  0
    7.0937    4.7001   -0.2681 N   0  0  0  0  0  0  0  0  0  0  0  0
    6.0793    3.9848   -0.9910 C   0  0  0  0  0  0  0  0  0  0  0  0
    4.9090    3.6238   -0.0865 C   0  0  0  0  0  0  0  0  0  0  0  0
    3.8647    2.8639   -0.8768 C   0  0  0  0  0  0  0  0  0  0  0  0
    2.7257    2.5250    0.0501 C   0  0  0  0  0  0  0  0  0  0  0  0
    1.6111    1.7387   -0.6806 C   0  0  2  0  0  0  0  0  0  0  0  0
    0.5870    1.4750    0.3022 N   0  0  0  0  0  0  0  0  0  0  0  0
   -0.5326    2.3217    0.5418 C   0  0  0  0  0  0  0  0  0  0  0  0
   -0.8185    2.6301    1.7365 O   0  0  0  0  0  0  0  0  0  0  0  0
   -1.4094    2.8821   -0.5243 C   0  0  2  0  0  0  0  0  0  0  0  0
   -0.9707    4.2376   -0.9565 C   0  0  0  0  0  0  0  0  0  0  0  0
   -1.8412    5.1646   -0.1420 C   0  0  0  0  0  0  0  0  0  0  0  0
   -3.1557    4.4381    0.0351 C   0  0  0  0  0  0  0  0  0  0  0  0
   -2.7765    3.0444   -0.0456 N   0  0  0  0  0  0  0  0  0  0  0  0
   -3.5773    1.9002    0.3013 C   0  0  0  0  0  0  0  0  0  0  0  0
   -4.2803    1.9618    1.3720 O   0  0  0  0  0  0  0  0  0  0  0  0
   -3.6295    0.6594   -0.5048 C   0  0  2  0  0  0  0  0  0  0  0  0
   -4.9964    0.1009   -0.5614 C   0  0  0  0  0  0  0  0  0  0  0  0
   -6.0004    0.9806   -1.1734 C   0  0  0  0  0  0  0  0  0  0  0  0
   -6.0666    0.9962   -2.5654 C   0  0  0  0  0  0  0  0  0  0  0  0
   -6.9868    1.7576   -3.2562 C   0  0  0  0  0  0  0  0  0  0  0  0
   -7.8680    2.5282   -2.5085 C   0  0  0  0  0  0  0  0  0  0  0  0
   -7.8273    2.5333   -1.1358 C   0  0  0  0  0  0  0  0  0  0  0  0
   -6.8904    1.7553   -0.4984 C   0  0  0  0  0  0  0  0  0  0  0  0
   -2.5807   -0.2592   -0.1447 N   0  0  0  0  0  0  0  0  0  0  0  0
   -2.4921   -1.1874    0.9145 C   0  0  0  0  0  0  0  0  0  0  0  0
   -1.5737   -0.9348    1.7934 O   0  0  0  0  0  0  0  0  0  0  0  0
   -3.2566   -2.3707    1.1773 C   0  0  2  0  0  0  0  0  0  0  0  0
   -3.8735   -2.5214    2.5413 C   0  0  0  0  0  0  0  0  0  0  0  0
   -4.3966   -3.9625    2.4481 C   0  0  0  0  0  0  0  0  0  0  0  0
   -3.9740   -4.4319    1.0700 C   0  0  0  0  0  0  0  0  0  0  0  0
   -2.6840   -3.6775    0.9733 N   0  0  0  0  0  0  0  0  0  0  0  0
   -1.3591   -4.1034    0.7499 C   0  0  0  0  0  0  0  0  0  0  0  0
   -1.2142   -4.5555   -0.4571 O   0  0  0  0  0  0  0  0  0  0  0  0
   -0.1745   -4.1419    1.5722 C   0  0  2  0  0  0  0  0  0  0  0  0
   -0.5199   -4.1422    3.0897 C   0  0  0  0  0  0  0  0  0  0  0  0
    0.5752   -4.8484    3.8342 C   0  0  0  0  0  0  0  0  0  0  0  0
    1.8316   -3.9946    3.6003 C   0  0  0  0  0  0  0  0  0  0  0  0
    2.1235   -4.1485    2.1161 C   0  0  0  0  0  0  0  0  0  0  0  0
    1.0376   -3.4697    1.3134 N   0  0  0  0  0  0  0  0  0  0  0  0
    1.5058   -2.3912    0.5879 C   0  0  0  0  0  0  0  0  0  0  0  0
    2.3844   -1.6673    1.2705 O   0  0  0  0  0  0  0  0  0  0  0  0
    1.3065   -1.8081   -0.7383 C   0  0  2  0  0  0  0  0  0  0  0  0
    1.4848   -2.6778   -1.9394 C   0  0  0  0  0  0  0  0  0  0  0  0
    2.8003   -3.2944   -2.1328 C   0  0  0  0  0  0  0  0  0  0  0  0
    3.0253   -4.5211   -1.5832 C   0  0  0  0  0  0  0  0  0  0  0  0
    4.2133   -5.1823   -1.7178 C   0  0  0  0  0  0  0  0  0  0  0  0
    5.2466   -4.6007   -2.4391 C   0  0  0  0  0  0  0  0  0  0  0  0
    5.0118   -3.3610   -2.9917 C   0  0  0  0  0  0  0  0  0  0  0  0
    3.8167   -2.7128   -2.8476 C   0  0  0  0  0  0  0  0  0  0  0  0
    2.3058   -0.7556   -0.9620 N   0  0  0  0  0  0  0  0  0  0  0  0
    2.1790    0.5588   -1.3496 C   0  0  0  0  0  0  0  0  0  0  0  0
    2.6491    0.8368   -2.5318 O   0  0  0  0  0  0  0  0  0  0  0  0
    5.2136    6.5538   -0.7872 H   0  0  0  0  0  0  0  0  0  0  0  0
    5.6896    7.4714    0.7018 H   0  0  0  0  0  0  0  0  0  0  0  0
    9.0188    6.5531    0.3437 H   0  0  0  0  0  0  0  0  0  0  0  0
    8.0633    6.6186    1.8786 H   0  0  0  0  0  0  0  0  0  0  0  0
    5.6948    4.6538   -1.7915 H   0  0  0  0  0  0  0  0  0  0  0  0
    6.5353    3.0718   -1.3950 H   0  0  0  0  0  0  0  0  0  0  0  0
    5.2987    2.9230    0.7097 H   0  0  0  0  0  0  0  0  0  0  0  0
    4.5143    4.5279    0.4014 H   0  0  0  0  0  0  0  0  0  0  0  0
    3.5405    3.4140   -1.7596 H   0  0  0  0  0  0  0  0  0  0  0  0
    4.3641    1.8790   -1.1255 H   0  0  0  0  0  0  0  0  0  0  0  0
    2.2889    3.4300    0.5154 H   0  0  0  0  0  0  0  0  0  0  0  0
    3.0543    1.8581    0.8720 H   0  0  0  0  0  0  0  0  0  0  0  0
    1.2452    2.4756   -1.4402 H   0  0  0  0  0  0  0  0  0  0  0  0
    0.6786    0.6106    0.8770 H   0  0  0  0  0  0  0  0  0  0  0  0
   -1.3964    2.2425   -1.4507 H   0  0  0  0  0  0  0  0  0  0  0  0
   -1.1778    4.4283   -2.0270 H   0  0  0  0  0  0  0  0  0  0  0  0
    0.0961    4.4659   -0.7551 H   0  0  0  0  0  0  0  0  0  0  0  0
   -1.9491    6.1224   -0.6633 H   0  0  0  0  0  0  0  0  0  0  0  0
   -1.3411    5.3498    0.8302 H   0  0  0  0  0  0  0  0  0  0  0  0
   -3.8152    4.7855   -0.7666 H   0  0  0  0  0  0  0  0  0  0  0  0
   -3.5470    4.6337    1.0447 H   0  0  0  0  0  0  0  0  0  0  0  0
   -3.4008    0.9610   -1.5911 H   0  0  0  0  0  0  0  0  0  0  0  0
   -5.0099   -0.8397   -1.1596 H   0  0  0  0  0  0  0  0  0  0  0  0
   -5.3281   -0.0813    0.4899 H   0  0  0  0  0  0  0  0  0  0  0  0
   -5.3858    0.3998   -3.1648 H   0  0  0  0  0  0  0  0  0  0  0  0
   -7.0477    1.7770   -4.3360 H   0  0  0  0  0  0  0  0  0  0  0  0
   -8.6143    3.1476   -3.0067 H   0  0  0  0  0  0  0  0  0  0  0  0
   -8.5274    3.1461   -0.5414 H   0  0  0  0  0  0  0  0  0  0  0  0
   -6.9165    1.7805    0.5987 H   0  0  0  0  0  0  0  0  0  0  0  0
   -1.7206   -0.2169   -0.7864 H   0  0  0  0  0  0  0  0  0  0  0  0
   -4.1631   -2.3227    0.4804 H   0  0  0  0  0  0  0  0  0  0  0  0
   -4.7079   -1.8116    2.7156 H   0  0  0  0  0  0  0  0  0  0  0  0
   -3.0985   -2.4087    3.3097 H   0  0  0  0  0  0  0  0  0  0  0  0
   -5.5114   -3.9175    2.5352 H   0  0  0  0  0  0  0  0  0  0  0  0
   -3.9723   -4.6008    3.2553 H   0  0  0  0  0  0  0  0  0  0  0  0
   -4.6911   -3.9510    0.3572 H   0  0  0  0  0  0  0  0  0  0  0  0
   -3.9413   -5.4704    0.8970 H   0  0  0  0  0  0  0  0  0  0  0  0
    0.1108   -5.2860    1.5234 H   0  0  0  0  0  0  0  0  0  0  0  0
   -1.4439   -4.7507    3.1447 H   0  0  0  0  0  0  0  0  0  0  0  0
   -0.7118   -3.1305    3.4421 H   0  0  0  0  0  0  0  0  0  0  0  0
    0.7529   -5.8357    3.3859 H   0  0  0  0  0  0  0  0  0  0  0  0
    0.3105   -4.8726    4.8960 H   0  0  0  0  0  0  0  0  0  0  0  0
    2.6996   -4.3882    4.1263 H   0  0  0  0  0  0  0  0  0  0  0  0
    1.5517   -2.9789    3.8741 H   0  0  0  0  0  0  0  0  0  0  0  0
    2.0415   -5.2551    1.9171 H   0  0  0  0  0  0  0  0  0  0  0  0
    3.1173   -3.8802    1.8482 H   0  0  0  0  0  0  0  0  0  0  0  0
    0.2767   -1.3962   -0.8071 H   0  0  0  0  0  0  0  0  0  0  0  0
    1.3942   -1.9333   -2.8092 H   0  0  0  0  0  0  0  0  0  0  0  0
    0.6417   -3.3603   -2.1660 H   0  0  0  0  0  0  0  0  0  0  0  0
    2.2444   -5.0263   -1.0047 H   0  0  0  0  0  0  0  0  0  0  0  0
    4.3551   -6.1630   -1.2626 H   0  0  0  0  0  0  0  0  0  0  0  0
    6.1919   -5.1202   -2.5491 H   0  0  0  0  0  0  0  0  0  0  0  0
    5.8039   -2.8749   -3.5654 H   0  0  0  0  0  0  0  0  0  0  0  0
    3.6728   -1.7208   -3.3125 H   0  0  0  0  0  0  0  0  0  0  0  0
    3.2960   -1.1683   -0.7705 H   0  0  0  0  0  0  0  0  0  0  0  0
  1  2  1  0
  2  3  1  0
  2  4  2  3
  4  5  1  0
  5  6  1  0
  6  7  1  0
  7  8  1  0
  8  9  1  0
  9 10  1  0
 10 11  1  0
 11 12  2  0
 11 13  1  0
 13 14  1  0
 14 15  1  0
 15 16  1  0
 16 17  1  0
 17 18  1  0
 18 19  2  0
 18 20  1  0
 20 21  1  0
 21 22  1  0
 22 23  2  0
 23 24  1  0
 24 25  2  0
 25 26  1  0
 26 27  2  0
 20 28  1  0
 28 29  1  0
 29 30  2  0
 29 31  1  0
 31 32  1  0
 32 33  1  0
 33 34  1  0
 34 35  1  0
 35 36  1  0
 36 37  2  0
 36 38  1  0
 38 39  1  0
 39 40  1  0
 40 41  1  0
 41 42  1  0
 42 43  1  0
 43 44  1  0
 44 45  2  0
 44 46  1  0
 46 47  1  0
 47 48  1  0
 48 49  2  0
 49 50  1  0
 50 51  2  0
 51 52  1  0
 52 53  2  0
 46 54  1  0
 54 55  1  0
 55 56  2  0
 55  9  1  0
 17 13  1  0
 27 22  1  0
 35 31  1  0
 43 38  1  0
 53 48  1  0
  1 57  1  0
  1 58  1  0
  3 59  1  0
  3 60  1  0
  5 61  1  0
  5 62  1  0
  6 63  1  0
  6 64  1  0
  7 65  1  0
  7 66  1  0
  8 67  1  0
  8 68  1  0
  9 69  1  6
 10 70  1  0
 13 71  1  6
 14 72  1  0
 14 73  1  0
 15 74  1  0
 15 75  1  0
 16 76  1  0
 16 77  1  0
 20 78  1  6
 21 79  1  0
 21 80  1  0
 23 81  1  0
 24 82  1  0
 25 83  1  0
 26 84  1  0
 27 85  1  0
 28 86  1  0
 31 87  1  6
 32 88  1  0
 32 89  1  0
 33 90  1  0
 33 91  1  0
 34 92  1  0
 34 93  1  0
 38 94  1  6
 39 95  1  0
 39 96  1  0
 40 97  1  0
 40 98  1  0
 41 99  1  0
 41100  1  0
 42101  1  0
 42102  1  0
 46103  1  1
 47104  1  0
 47105  1  0
 49106  1  0
 50107  1  0
 51108  1  0
 52109  1  0
 53110  1  0
 54111  1  0
M  END
$$$$
[H]c1nc(C#N)c([H])c([H])c1N1C([H])([H])c2c(nc(-c3c([H])c(C([H])([H])[H])nc(C([H])([H])[H])c3[H])n2C(C([H])([H])[H])(C([H])([H])[H])C([H])([H])[H])C([H])([H])C1([H])[H]
     RDKit          3D

 55 58  0  0  0  0  0  0  0  0999 V2000
    0.7582    1.3718    2.1026 C   0  0  0  0  0  0  0  0  0  0  0  0
   -0.4561    0.5720    1.6751 C   0  0  0  0  0  0  0  0  0  0  0  0
   -1.6016    1.5728    1.8674 C   0  0  0  0  0  0  0  0  0  0  0  0
   -0.5729   -0.4829    2.7511 C   0  0  0  0  0  0  0  0  0  0  0  0
   -0.4733    0.0930    0.3534 N   0  0  0  0  0  0  0  0  0  0  0  0
   -1.5283   -0.2371   -0.3804 C   0  0  0  0  0  0  0  0  0  0  0  0
   -1.0836   -0.5549   -1.6644 N   0  0  0  0  0  0  0  0  0  0  0  0
    0.2221   -0.4220   -1.6956 C   0  0  0  0  0  0  0  0  0  0  0  0
    1.2443   -0.6186   -2.7990 C   0  0  0  0  0  0  0  0  0  0  0  0
    2.3342   -1.4502   -2.0946 C   0  0  0  0  0  0  0  0  0  0  0  0
    2.9248   -0.6174   -1.1136 N   0  0  0  0  0  0  0  0  0  0  0  0
    2.0441    0.1597   -0.2355 C   0  0  0  0  0  0  0  0  0  0  0  0
    0.6306   -0.0208   -0.4477 C   0  0  0  0  0  0  0  0  0  0  0  0
    4.3350   -0.4711   -0.9022 C   0  0  0  0  0  0  0  0  0  0  0  0
    5.2556   -1.2397   -1.5827 C   0  0  0  0  0  0  0  0  0  0  0  0
    6.5976   -1.0274   -1.3196 C   0  0  0  0  0  0  0  0  0  0  0  0
    7.0500   -0.0927   -0.4180 C   0  0  0  0  0  0  0  0  0  0  0  0
    6.1392    0.6392    0.2283 N   0  0  0  0  0  0  0  0  0  0  0  0
    4.8350    0.4452   -0.0158 C   0  0  0  0  0  0  0  0  0  0  0  0
    8.4699    0.0894   -0.1796 C   0  0  0  0  0  0  0  0  0  0  0  0
    9.6001    0.2442    0.0161 N   0  0  0  0  0  0  0  0  0  0  0  0
   -2.9819   -0.3212   -0.2101 C   0  0  0  0  0  0  0  0  0  0  0  0
   -3.6634   -0.7117    0.8874 C   0  0  0  0  0  0  0  0  0  0  0  0
   -5.0324   -0.6822    0.9827 C   0  0  0  0  0  0  0  0  0  0  0  0
   -5.7427   -1.1290    2.2347 C   0  0  0  0  0  0  0  0  0  0  0  0
   -5.7443   -0.2477   -0.0585 N   0  0  0  0  0  0  0  0  0  0  0  0
   -5.1160    0.1544   -1.1840 C   0  0  0  0  0  0  0  0  0  0  0  0
   -5.9701    0.6259   -2.3059 C   0  0  0  0  0  0  0  0  0  0  0  0
   -3.7559    0.1334   -1.2984 C   0  0  0  0  0  0  0  0  0  0  0  0
    1.1491    2.0611    1.3526 H   0  0  0  0  0  0  0  0  0  0  0  0
    1.4777    0.7624    2.6669 H   0  0  0  0  0  0  0  0  0  0  0  0
    0.3639    2.0763    2.9107 H   0  0  0  0  0  0  0  0  0  0  0  0
   -2.3004    1.2921    2.6545 H   0  0  0  0  0  0  0  0  0  0  0  0
   -1.1828    2.5718    2.2657 H   0  0  0  0  0  0  0  0  0  0  0  0
   -2.0803    1.8756    0.9371 H   0  0  0  0  0  0  0  0  0  0  0  0
   -0.8231   -1.4486    2.2220 H   0  0  0  0  0  0  0  0  0  0  0  0
    0.3435   -0.6780    3.3057 H   0  0  0  0  0  0  0  0  0  0  0  0
   -1.3713   -0.2629    3.4800 H   0  0  0  0  0  0  0  0  0  0  0  0
    0.7729   -1.1675   -3.6142 H   0  0  0  0  0  0  0  0  0  0  0  0
    1.6188    0.3420   -3.1458 H   0  0  0  0  0  0  0  0  0  0  0  0
    1.7599   -2.2635   -1.5600 H   0  0  0  0  0  0  0  0  0  0  0  0
    2.9773   -1.9491   -2.8040 H   0  0  0  0  0  0  0  0  0  0  0  0
    2.3195    1.2191   -0.5046 H   0  0  0  0  0  0  0  0  0  0  0  0
    2.4525    0.0196    0.7801 H   0  0  0  0  0  0  0  0  0  0  0  0
    4.9249   -1.9728   -2.2875 H   0  0  0  0  0  0  0  0  0  0  0  0
    7.3167   -1.6324   -1.8555 H   0  0  0  0  0  0  0  0  0  0  0  0
    4.1468    1.0884    0.5539 H   0  0  0  0  0  0  0  0  0  0  0  0
   -3.1534   -1.1115    1.7655 H   0  0  0  0  0  0  0  0  0  0  0  0
   -5.1630   -1.9414    2.6845 H   0  0  0  0  0  0  0  0  0  0  0  0
   -5.6846   -0.2490    2.9211 H   0  0  0  0  0  0  0  0  0  0  0  0
   -6.7754   -1.4214    2.0085 H   0  0  0  0  0  0  0  0  0  0  0  0
   -5.4320    1.3983   -2.9065 H   0  0  0  0  0  0  0  0  0  0  0  0
   -6.2445   -0.2535   -2.9326 H   0  0  0  0  0  0  0  0  0  0  0  0
   -6.8543    1.1353   -1.8696 H   0  0  0  0  0  0  0  0  0  0  0  0
   -3.2763    0.4679   -2.2221 H   0  0  0  0  0  0  0  0  0  0  0  0
  1  2  1  0
  2  3  1  0
  2  4  1  0
  2  5  1  0
  5  6  1  0
  6  7  2  0
  7  8  1  0
  8  9  1  0
  9 10  1  0
 10 11  1  0
 11 12  1  0
 12 13  1  0
 11 14  1  0
 14 15  2  0
 15 16  1  0
 16 17  2  0
 17 18  1  0
 18 19  2  0
 17 20  1  0
 20 21  3  0
  6 22  1  0
 22 23  2  0
 23 24  1  0
 24 25  1  0
 24 26  2  0
 26 27  1  0
 27 28  1  0
 27 29  2  0
 13  5  1  0
 19 14  1  0
 29 22  1  0
 13  8  2  0
  1 30  1  0
  1 31  1  0
  1 32  1  0
  3 33  1  0
  3 34  1  0
  3 35  1  0
  4 36  1  0
  4 37  1  0
  4 38  1  0
  9 39  1  0
  9 40  1  0
 10 41  1  0
 10 42  1  0
 12 43  1  0
 12 44  1  0
 15 45  1  0
 16 46  1  0
 19 47  1  0
 23 48  1  0
 25 49  1  0
 25 50  1  0
 25 51  1  0
 28 52  1  0
 28 53  1  0
 28 54  1  0
 29 55  1  0
M  END
$$$$
[H]N=C(c1oc(C(=O)N([H])[C@]([H])(C(=O)O[H])C([H])([H])N([H])S(=O)(=O)c2c([H])c([H])c(OC([H])([H])c3c([H])c([H])c([H])c([H])c3[H])c([H])c2O[H])c([H])c1[H])C([H])([H])[H]
     RDKit          3D

 58 60  0  0  0  0  0  0  0  0999 V2000
   10.4542   -2.3661   -0.7006 C   0  0  0  0  0  0  0  0  0  0  0  0
    9.6604   -1.6455    0.3269 C   0  0  0  0  0  0  0  0  0  0  0  0
   10.2631   -1.0916    1.3121 N   0  0  0  0  0  0  0  0  0  0  0  0
    8.1977   -1.5516    0.2415 C   0  0  0  0  0  0  0  0  0  0  0  0
    7.3999   -2.0893   -0.7520 C   0  0  0  0  0  0  0  0  0  0  0  0
    6.0877   -1.7783   -0.4638 C   0  0  0  0  0  0  0  0  0  0  0  0
    6.1456   -1.0478    0.7201 C   0  0  0  0  0  0  0  0  0  0  0  0
    7.4054   -0.9517    1.0780 O   0  0  0  0  0  0  0  0  0  0  0  0
    5.0016   -0.4959    1.4225 C   0  0  0  0  0  0  0  0  0  0  0  0
    5.2013    0.1392    2.4856 O   0  0  0  0  0  0  0  0  0  0  0  0
    3.6755   -0.6514    0.9475 N   0  0  0  0  0  0  0  0  0  0  0  0
    2.5663   -0.0823    1.6825 C   0  0  1  0  0  0  0  0  0  0  0  0
    1.8392    0.9552    0.8331 C   0  0  0  0  0  0  0  0  0  0  0  0
    0.7350    1.5285    1.5606 N   0  0  0  0  0  0  0  0  0  0  0  0
   -0.1459    2.7031    0.6950 S   0  0  0  0  0  0  0  0  0  0  0  0
   -0.1869    4.0086    1.4461 O   0  0  0  0  0  0  0  0  0  0  0  0
    0.5187    2.8841   -0.6505 O   0  0  0  0  0  0  0  0  0  0  0  0
   -1.7971    2.2299    0.3524 C   0  0  0  0  0  0  0  0  0  0  0  0
   -2.8413    3.0018    0.8535 C   0  0  0  0  0  0  0  0  0  0  0  0
   -4.1565    2.6785    0.6201 C   0  0  0  0  0  0  0  0  0  0  0  0
   -4.5090    1.5703   -0.1243 C   0  0  0  0  0  0  0  0  0  0  0  0
   -5.8368    1.2408   -0.3618 O   0  0  0  0  0  0  0  0  0  0  0  0
   -6.1296    0.0976   -1.1281 C   0  0  0  0  0  0  0  0  0  0  0  0
   -7.5969   -0.0429   -1.2416 C   0  0  0  0  0  0  0  0  0  0  0  0
   -8.4095    0.8737   -0.6279 C   0  0  0  0  0  0  0  0  0  0  0  0
   -9.7692    0.7314   -0.7410 C   0  0  0  0  0  0  0  0  0  0  0  0
  -10.3172   -0.2976   -1.4478 C   0  0  0  0  0  0  0  0  0  0  0  0
   -9.5179   -1.2279   -2.0711 C   0  0  0  0  0  0  0  0  0  0  0  0
   -8.1511   -1.0905   -1.9612 C   0  0  0  0  0  0  0  0  0  0  0  0
   -3.4629    0.8173   -0.6130 C   0  0  0  0  0  0  0  0  0  0  0  0
   -2.1444    1.1294   -0.3869 C   0  0  0  0  0  0  0  0  0  0  0  0
   -1.1549    0.3278   -0.9093 O   0  0  0  0  0  0  0  0  0  0  0  0
    1.6276   -1.1309    2.1517 C   0  0  0  0  0  0  0  0  0  0  0  0
    0.4849   -0.8379    2.8789 O   0  0  0  0  0  0  0  0  0  0  0  0
    1.8569   -2.3402    1.8911 O   0  0  0  0  0  0  0  0  0  0  0  0
    9.8412   -2.9298   -1.4055 H   0  0  0  0  0  0  0  0  0  0  0  0
   10.9701   -1.5635   -1.3053 H   0  0  0  0  0  0  0  0  0  0  0  0
   11.2855   -2.9576   -0.2620 H   0  0  0  0  0  0  0  0  0  0  0  0
   11.2824   -1.1108    1.4454 H   0  0  0  0  0  0  0  0  0  0  0  0
    7.7567   -2.6540   -1.6023 H   0  0  0  0  0  0  0  0  0  0  0  0
    5.2008   -2.0451   -1.0363 H   0  0  0  0  0  0  0  0  0  0  0  0
    3.5292   -1.1825    0.0627 H   0  0  0  0  0  0  0  0  0  0  0  0
    2.9429    0.4367    2.5784 H   0  0  0  0  0  0  0  0  0  0  0  0
    2.5287    1.8088    0.5973 H   0  0  0  0  0  0  0  0  0  0  0  0
    1.5908    0.4911   -0.1188 H   0  0  0  0  0  0  0  0  0  0  0  0
    0.9936    1.7867    2.5237 H   0  0  0  0  0  0  0  0  0  0  0  0
   -2.6101    3.8952    1.4524 H   0  0  0  0  0  0  0  0  0  0  0  0
   -4.9797    3.2831    1.0123 H   0  0  0  0  0  0  0  0  0  0  0  0
   -5.6868    0.1517   -2.1633 H   0  0  0  0  0  0  0  0  0  0  0  0
   -5.6622   -0.8196   -0.6844 H   0  0  0  0  0  0  0  0  0  0  0  0
   -8.0078    1.7063   -0.0561 H   0  0  0  0  0  0  0  0  0  0  0  0
  -10.4013    1.4689   -0.2472 H   0  0  0  0  0  0  0  0  0  0  0  0
  -11.3874   -0.3675   -1.5081 H   0  0  0  0  0  0  0  0  0  0  0  0
   -9.9651   -2.0254   -2.6190 H   0  0  0  0  0  0  0  0  0  0  0  0
   -7.5410   -1.8337   -2.4592 H   0  0  0  0  0  0  0  0  0  0  0  0
   -3.7290   -0.0692   -1.2088 H   0  0  0  0  0  0  0  0  0  0  0  0
   -1.3882   -0.4855   -1.4555 H   0  0  0  0  0  0  0  0  0  0  0  0
    0.4428   -1.1821    3.8338 H   0  0  0  0  0  0  0  0  0  0  0  0
  1  2  1  0
  2  3  2  3
  2  4  1  0
  4  5  2  0
  5  6  1  0
  6  7  2  0
  7  8  1  0
  7  9  1  0
  9 10  2  0
  9 11  1  0
 11 12  1  0
 12 13  1  0
 13 14  1  0
 14 15  1  0
 15 16  2  0
 15 17  2  0
 15 18  1  0
 18 19  2  0
 19 20  1  0
 20 21  2  0
 21 22  1  0
 22 23  1  0
 23 24  1  0
 24 25  2  0
 25 26  1  0
 26 27  2  0
 27 28  1  0
 28 29  2  0
 21 30  1  0
 30 31  2  0
 31 32  1  0
 12 33  1  0
 33 34  1  0
 33 35  2  0
  8  4  1  0
 31 18  1  0
 29 24  1  0
  1 36  1  0
  1 37  1  0
  1 38  1  0
  3 39  1  0
  5 40  1  0
  6 41  1  0
 11 42  1  0
 12 43  1  1
 13 44  1  0
 13 45  1  0
 14 46  1  0
 19 47  1  0
 20 48  1  0
 23 49  1  0
 23 50  1  0
 25 51  1  0
 26 52  1  0
 27 53  1  0
 28 54  1  0
 29 55  1  0
 30 56  1  0
 32 57  1  0
 34 58  1  0
M  END
$$$$
[H]N=C([H])c1c([H])c(Cl)c(N([H])c2nc(C([H])([H])[H])c(-c3c([H])c([H])nc(N4C([H])([H])C([H])([H])N(C([H])([H])[H])C([H])([H])C4([H])[H])c3[H])s2)c([H])c1OC([H])([H])C([H])([H])C([H])([H])N1C([H])([H])C([H])([H])C([H])([H])C1([H])[H]
     RDKit          3D

 74 78  0  0  0  0  0  0  0  0999 V2000
    0.0481    1.7304   -1.0313 C   0  0  0  0  0  0  0  0  0  0  0  0
    0.7313    1.1650    0.2061 C   0  0  0  0  0  0  0  0  0  0  0  0
   -0.0165    0.6621    1.1593 N   0  0  0  0  0  0  0  0  0  0  0  0
    0.4629    0.1211    2.2195 C   0  0  0  0  0  0  0  0  0  0  0  0
   -0.0668   -0.5385    3.3800 N   0  0  0  0  0  0  0  0  0  0  0  0
   -1.4322   -0.8626    3.5766 C   0  0  0  0  0  0  0  0  0  0  0  0
   -2.3945   -0.7347    2.6141 C   0  0  0  0  0  0  0  0  0  0  0  0
   -3.7392   -1.1275    2.8194 C   0  0  0  0  0  0  0  0  0  0  0  0
   -4.6405   -0.9599    1.7972 O   0  0  0  0  0  0  0  0  0  0  0  0
   -4.3361   -0.4357    0.5369 C   0  0  0  0  0  0  0  0  0  0  0  0
   -5.5470   -0.3529   -0.3585 C   0  0  0  0  0  0  0  0  0  0  0  0
   -5.1132    0.1826   -1.7251 C   0  0  0  0  0  0  0  0  0  0  0  0
   -6.2312    0.3263   -2.6055 N   0  0  0  0  0  0  0  0  0  0  0  0
   -6.8803   -0.8843   -2.9958 C   0  0  0  0  0  0  0  0  0  0  0  0
   -8.3216   -0.7409   -2.5050 C   0  0  0  0  0  0  0  0  0  0  0  0
   -8.5204    0.7461   -2.7080 C   0  0  0  0  0  0  0  0  0  0  0  0
   -7.1871    1.3196   -2.2685 C   0  0  0  0  0  0  0  0  0  0  0  0
   -4.1364   -1.6630    4.0202 C   0  0  0  0  0  0  0  0  0  0  0  0
   -5.5017   -2.1442    4.2630 C   0  0  0  0  0  0  0  0  0  0  0  0
   -6.4423   -2.1362    3.4201 N   0  0  0  0  0  0  0  0  0  0  0  0
   -3.1672   -1.7976    5.0115 C   0  0  0  0  0  0  0  0  0  0  0  0
   -1.8658   -1.4058    4.7776 C   0  0  0  0  0  0  0  0  0  0  0  0
   -0.6474   -1.5990    6.0424 Cl  0  0  0  0  0  0  0  0  0  0  0  0
    2.1547    0.2894    1.9397 S   0  0  0  0  0  0  0  0  0  0  0  0
    2.0807    1.0902    0.3880 C   0  0  0  0  0  0  0  0  0  0  0  0
    3.2391    1.4439   -0.4286 C   0  0  0  0  0  0  0  0  0  0  0  0
    3.2298    2.3824   -1.3954 C   0  0  0  0  0  0  0  0  0  0  0  0
    4.3983    2.6425   -2.1782 C   0  0  0  0  0  0  0  0  0  0  0  0
    5.5044    1.9475   -1.9494 N   0  0  0  0  0  0  0  0  0  0  0  0
    5.5565    0.9923   -0.9888 C   0  0  0  0  0  0  0  0  0  0  0  0
    4.4438    0.7401   -0.2343 C   0  0  0  0  0  0  0  0  0  0  0  0
    6.7691    0.2545   -0.8228 N   0  0  0  0  0  0  0  0  0  0  0  0
    6.9044   -0.8567    0.0742 C   0  0  0  0  0  0  0  0  0  0  0  0
    8.3021   -1.2776    0.3348 C   0  0  0  0  0  0  0  0  0  0  0  0
    9.3000   -0.9424   -0.6127 N   0  0  0  0  0  0  0  0  0  0  0  0
   10.1603    0.1571   -0.1868 C   0  0  0  0  0  0  0  0  0  0  0  0
    8.7317   -0.5754   -1.9190 C   0  0  0  0  0  0  0  0  0  0  0  0
    7.9077    0.6764   -1.6386 C   0  0  0  0  0  0  0  0  0  0  0  0
    0.2969    2.7523   -1.2256 H   0  0  0  0  0  0  0  0  0  0  0  0
   -1.0590    1.6583   -0.9413 H   0  0  0  0  0  0  0  0  0  0  0  0
    0.3138    1.0807   -1.9061 H   0  0  0  0  0  0  0  0  0  0  0  0
    0.6156   -0.8113    4.1526 H   0  0  0  0  0  0  0  0  0  0  0  0
   -2.1623   -0.3303    1.6503 H   0  0  0  0  0  0  0  0  0  0  0  0
   -3.5656   -1.0785    0.0405 H   0  0  0  0  0  0  0  0  0  0  0  0
   -3.8824    0.5695    0.7018 H   0  0  0  0  0  0  0  0  0  0  0  0
   -5.9291   -1.3912   -0.5935 H   0  0  0  0  0  0  0  0  0  0  0  0
   -6.2960    0.2959    0.1113 H   0  0  0  0  0  0  0  0  0  0  0  0
   -4.4502    1.0346   -1.6282 H   0  0  0  0  0  0  0  0  0  0  0  0
   -4.4758   -0.6403   -2.1746 H   0  0  0  0  0  0  0  0  0  0  0  0
   -6.9474   -0.8945   -4.1240 H   0  0  0  0  0  0  0  0  0  0  0  0
   -6.4036   -1.8074   -2.6394 H   0  0  0  0  0  0  0  0  0  0  0  0
   -8.3619   -0.9261   -1.3991 H   0  0  0  0  0  0  0  0  0  0  0  0
   -9.0223   -1.3626   -3.0729 H   0  0  0  0  0  0  0  0  0  0  0  0
   -8.6136    0.9608   -3.7934 H   0  0  0  0  0  0  0  0  0  0  0  0
   -9.3833    1.1268   -2.1342 H   0  0  0  0  0  0  0  0  0  0  0  0
   -7.2816    1.5586   -1.2037 H   0  0  0  0  0  0  0  0  0  0  0  0
   -6.9739    2.2610   -2.8321 H   0  0  0  0  0  0  0  0  0  0  0  0
   -5.7627   -2.5462    5.2574 H   0  0  0  0  0  0  0  0  0  0  0  0
   -6.5919   -1.8647    2.4976 H   0  0  0  0  0  0  0  0  0  0  0  0
   -3.5010   -2.2110    5.9438 H   0  0  0  0  0  0  0  0  0  0  0  0
    2.4038    2.9917   -1.6372 H   0  0  0  0  0  0  0  0  0  0  0  0
    4.3738    3.4087   -2.9391 H   0  0  0  0  0  0  0  0  0  0  0  0
    4.4448   -0.0050    0.5352 H   0  0  0  0  0  0  0  0  0  0  0  0
    6.3324   -0.6261    1.0300 H   0  0  0  0  0  0  0  0  0  0  0  0
    6.3926   -1.7411   -0.4409 H   0  0  0  0  0  0  0  0  0  0  0  0
    8.5979   -0.8921    1.3555 H   0  0  0  0  0  0  0  0  0  0  0  0
    8.3534   -2.4181    0.4375 H   0  0  0  0  0  0  0  0  0  0  0  0
   11.0748   -0.2942    0.2463 H   0  0  0  0  0  0  0  0  0  0  0  0
    9.6563    0.8918    0.4424 H   0  0  0  0  0  0  0  0  0  0  0  0
   10.5128    0.6903   -1.1236 H   0  0  0  0  0  0  0  0  0  0  0  0
    8.0362   -1.3773   -2.2334 H   0  0  0  0  0  0  0  0  0  0  0  0
    9.5118   -0.3326   -2.6425 H   0  0  0  0  0  0  0  0  0  0  0  0
    8.5057    1.4664   -1.1450 H   0  0  0  0  0  0  0  0  0  0  0  0
    7.5031    1.0320   -2.6007 H   0  0  0  0  0  0  0  0  0  0  0  0
  1  2  1  0
  2  3  1  0
  3  4  2  0
  4  5  1  0
  5  6  1  0
  6  7  2  0
  7  8  1  0
  8  9  1  0
  9 10  1  0
 10 11  1  0
 11 12  1  0
 12 13  1  0
 13 14  1  0
 14 15  1  0
 15 16  1  0
 16 17  1  0
  8 18  2  0
 18 19  1  0
 19 20  2  3
 18 21  1  0
 21 22  2  0
 22 23  1  0
  4 24  1  0
 24 25  1  0
 25 26  1  0
 26 27  2  0
 27 28  1  0
 28 29  2  0
 29 30  1  0
 30 31  2  0
 30 32  1  0
 32 33  1  0
 33 34  1  0
 34 35  1  0
 35 36  1  0
 35 37  1  0
 37 38  1  0
 25  2  2  0
 31 26  1  0
 38 32  1  0
 22  6  1  0
 17 13  1  0
  1 39  1  0
  1 40  1  0
  1 41  1  0
  5 42  1  0
  7 43  1  0
 10 44  1  0
 10 45  1  0
 11 46  1  0
 11 47  1  0
 12 48  1  0
 12 49  1  0
 14 50  1  0
 14 51  1  0
 15 52  1  0
 15 53  1  0
 16 54  1  0
 16 55  1  0
 17 56  1  0
 17 57  1  0
 19 58  1  0
 20 59  1  0
 21 60  1  0
 27 61  1  0
 28 62  1  0
 31 63  1  0
 33 64  1  0
 33 65  1  0
 34 66  1  0
 34 67  1  0
 36 68  1  0
 36 69  1  0
 36 70  1  0
 37 71  1  0
 37 72  1  0
 38 73  1  0
 38 74  1  0
M  END
$$$$
[H]OC([H])([H])[C@@]1(O[H])C([H])([H])[C@@]2([H])O[C@]1(C([H])([H])[H])n1c3c([H])c([H])c([H])c([H])c3c3c4c(c5c6c([H])c([H])c([H])c([H])c6n2c5c31)C(=O)N([H])C4([H])[H]
     RDKit          3D

 54 61  0  0  0  0  0  0  0  0999 V2000
    3.1800    0.8838    1.3878 C   0  0  0  0  0  0  0  0  0  0  0  0
    2.1176    0.2237    0.5774 C   0  0  2  0  0  0  0  0  0  0  0  0
    1.6968   -0.7870    1.4854 O   0  0  0  0  0  0  0  0  0  0  0  0
    1.2511   -1.8639    0.7986 C   0  0  2  0  0  0  0  0  0  0  0  0
    2.0328   -1.9517   -0.4419 C   0  0  0  0  0  0  0  0  0  0  0  0
    2.6347   -0.5714   -0.5849 C   0  0  1  0  0  0  0  0  0  0  0  0
    2.2138   -0.0799   -1.8115 O   0  0  0  0  0  0  0  0  0  0  0  0
    4.1191   -0.7109   -0.6110 C   0  0  0  0  0  0  0  0  0  0  0  0
    4.4589   -1.5975   -1.6334 O   0  0  0  0  0  0  0  0  0  0  0  0
   -0.2014   -1.7853    0.5955 N   0  0  0  0  0  0  0  0  0  0  0  0
   -1.1044   -2.7499    0.6347 C   0  0  0  0  0  0  0  0  0  0  0  0
   -0.9179   -4.0868    0.8734 C   0  0  0  0  0  0  0  0  0  0  0  0
   -2.0299   -4.9199    0.8648 C   0  0  0  0  0  0  0  0  0  0  0  0
   -3.2823   -4.4161    0.6235 C   0  0  0  0  0  0  0  0  0  0  0  0
   -3.4758   -3.0511    0.3794 C   0  0  0  0  0  0  0  0  0  0  0  0
   -2.3768   -2.2421    0.3902 C   0  0  0  0  0  0  0  0  0  0  0  0
   -2.2053   -0.8905    0.1945 C   0  0  0  0  0  0  0  0  0  0  0  0
   -3.0670    0.1511   -0.0975 C   0  0  0  0  0  0  0  0  0  0  0  0
   -4.5001    0.2660   -0.2996 C   0  0  0  0  0  0  0  0  0  0  0  0
   -5.3884   -0.5871   -0.2658 O   0  0  0  0  0  0  0  0  0  0  0  0
   -4.7851    1.6416   -0.5724 N   0  0  0  0  0  0  0  0  0  0  0  0
   -3.5735    2.4248   -0.5610 C   0  0  0  0  0  0  0  0  0  0  0  0
   -2.5314    1.4168   -0.2472 C   0  0  0  0  0  0  0  0  0  0  0  0
   -1.1701    1.6669   -0.1133 C   0  0  0  0  0  0  0  0  0  0  0  0
   -0.3770    2.7657   -0.2198 C   0  0  0  0  0  0  0  0  0  0  0  0
   -0.7006    4.0705   -0.5126 C   0  0  0  0  0  0  0  0  0  0  0  0
    0.3203    5.0230   -0.5829 C   0  0  0  0  0  0  0  0  0  0  0  0
    1.6233    4.6180   -0.3553 C   0  0  0  0  0  0  0  0  0  0  0  0
    1.9232    3.2989   -0.0625 C   0  0  0  0  0  0  0  0  0  0  0  0
    0.9354    2.3466    0.0129 C   0  0  0  0  0  0  0  0  0  0  0  0
    0.9590    1.0103    0.2643 N   0  0  0  0  0  0  0  0  0  0  0  0
   -0.3578    0.6223    0.1746 C   0  0  0  0  0  0  0  0  0  0  0  0
   -0.8544   -0.6533    0.3299 C   0  0  0  0  0  0  0  0  0  0  0  0
    4.0624    1.2462    0.8471 H   0  0  0  0  0  0  0  0  0  0  0  0
    3.5596    0.1949    2.1815 H   0  0  0  0  0  0  0  0  0  0  0  0
    2.7312    1.7230    1.9466 H   0  0  0  0  0  0  0  0  0  0  0  0
    1.4219   -2.7643    1.4120 H   0  0  0  0  0  0  0  0  0  0  0  0
    1.4720   -2.2700   -1.3403 H   0  0  0  0  0  0  0  0  0  0  0  0
    2.8377   -2.7359   -0.3258 H   0  0  0  0  0  0  0  0  0  0  0  0
    2.8799   -0.3390   -2.4928 H   0  0  0  0  0  0  0  0  0  0  0  0
    4.5238   -1.1579    0.3296 H   0  0  0  0  0  0  0  0  0  0  0  0
    4.6358    0.2581   -0.8438 H   0  0  0  0  0  0  0  0  0  0  0  0
    4.7979   -2.4633   -1.2908 H   0  0  0  0  0  0  0  0  0  0  0  0
    0.0592   -4.4684    1.0598 H   0  0  0  0  0  0  0  0  0  0  0  0
   -1.8569   -5.9719    1.0560 H   0  0  0  0  0  0  0  0  0  0  0  0
   -4.1224   -5.0759    0.6219 H   0  0  0  0  0  0  0  0  0  0  0  0
   -4.4721   -2.7398    0.2018 H   0  0  0  0  0  0  0  0  0  0  0  0
   -5.7336    2.0654   -0.7610 H   0  0  0  0  0  0  0  0  0  0  0  0
   -3.6366    3.2333    0.1993 H   0  0  0  0  0  0  0  0  0  0  0  0
   -3.3846    2.8954   -1.5673 H   0  0  0  0  0  0  0  0  0  0  0  0
   -1.7294    4.3700   -0.6881 H   0  0  0  0  0  0  0  0  0  0  0  0
    0.0587    6.0490   -0.8135 H   0  0  0  0  0  0  0  0  0  0  0  0
    2.3774    5.3965   -0.4223 H   0  0  0  0  0  0  0  0  0  0  0  0
    2.9510    3.0689    0.0761 H   0  0  0  0  0  0  0  0  0  0  0  0
  2  1  1  1
  2  3  1  0
  3  4  1  0
  4  5  1  0
  5  6  1  0
  6  7  1  6
  6  8  1  0
  8  9  1  0
  4 10  1  0
 10 11  1  0
 11 12  2  0
 12 13  1  0
 13 14  2  0
 14 15  1  0
 15 16  2  0
 16 17  1  0
 17 18  2  0
 18 19  1  0
 19 20  2  0
 19 21  1  0
 21 22  1  0
 22 23  1  0
 23 24  2  0
 24 25  1  0
 25 26  2  0
 26 27  1  0
 27 28  2  0
 28 29  1  0
 29 30  2  0
 30 31  1  0
 31 32  1  0
 32 33  2  0
  6  2  1  0
 33 10  1  0
 31  2  1  0
 16 11  1  0
 33 17  1  0
 23 18  1  0
 32 24  1  0
 30 25  1  0
  1 34  1  0
  1 35  1  0
  1 36  1  0
  4 37  1  1
  5 38  1  0
  5 39  1  0
  7 40  1  0
  8 41  1  0
  8 42  1  0
  9 43  1  0
 12 44  1  0
 13 45  1  0
 14 46  1  0
 15 47  1  0
 21 48  1  0
 22 49  1  0
 22 50  1  0
 26 51  1  0
 27 52  1  0
 28 53  1  0
 29 54  1  0
M  END
$$$$
[H]c1c([H])c(C(C([H])([H])[H])(C([H])([H])[H])C([H])([H])[H])c([H])c([H])c1N([H])C(=S)N([H])C(=O)C(OC([H])([H])[H])(C([H])([H])[H])C([H])([H])[H]
     RDKit          3D

 45 45  0  0  0  0  0  0  0  0999 V2000
    5.4436    1.7234   -0.1458 C   0  0  0  0  0  0  0  0  0  0  0  0
    5.5135    0.7747    0.8507 O   0  0  0  0  0  0  0  0  0  0  0  0
    5.1709   -0.4941    0.4569 C   0  0  0  0  0  0  0  0  0  0  0  0
    5.9499   -1.0445   -0.6903 C   0  0  0  0  0  0  0  0  0  0  0  0
    5.4876   -1.4273    1.6537 C   0  0  0  0  0  0  0  0  0  0  0  0
    3.6997   -0.6041    0.2920 C   0  0  0  0  0  0  0  0  0  0  0  0
    3.2171   -1.6307   -0.2973 O   0  0  0  0  0  0  0  0  0  0  0  0
    2.8015    0.3743    0.7588 N   0  0  0  0  0  0  0  0  0  0  0  0
    1.4046    0.4102    0.6477 C   0  0  0  0  0  0  0  0  0  0  0  0
    0.6275    1.7239    1.3424 S   0  0  0  0  0  0  0  0  0  0  0  0
    0.5659   -0.4884   -0.0163 N   0  0  0  0  0  0  0  0  0  0  0  0
   -0.8501   -0.2940   -0.0100 C   0  0  0  0  0  0  0  0  0  0  0  0
   -1.4698    0.0453   -1.2112 C   0  0  0  0  0  0  0  0  0  0  0  0
   -2.8393    0.2113   -1.2378 C   0  0  0  0  0  0  0  0  0  0  0  0
   -3.6333    0.0521   -0.1070 C   0  0  0  0  0  0  0  0  0  0  0  0
   -3.0262   -0.2791    1.0618 C   0  0  0  0  0  0  0  0  0  0  0  0
   -1.6462   -0.4465    1.0915 C   0  0  0  0  0  0  0  0  0  0  0  0
   -5.0784    0.2614   -0.2922 C   0  0  0  0  0  0  0  0  0  0  0  0
   -5.3097    1.6824   -0.7335 C   0  0  0  0  0  0  0  0  0  0  0  0
   -5.9135   -0.0643    0.8948 C   0  0  0  0  0  0  0  0  0  0  0  0
   -5.5174   -0.6279   -1.4656 C   0  0  0  0  0  0  0  0  0  0  0  0
    6.1447    1.4390   -0.9792 H   0  0  0  0  0  0  0  0  0  0  0  0
    5.8368    2.6926    0.2560 H   0  0  0  0  0  0  0  0  0  0  0  0
    4.4573    1.9143   -0.5564 H   0  0  0  0  0  0  0  0  0  0  0  0
    5.8953   -2.1717   -0.7230 H   0  0  0  0  0  0  0  0  0  0  0  0
    5.5364   -0.7293   -1.6767 H   0  0  0  0  0  0  0  0  0  0  0  0
    6.9941   -0.6931   -0.6450 H   0  0  0  0  0  0  0  0  0  0  0  0
    6.5769   -1.4167    1.8085 H   0  0  0  0  0  0  0  0  0  0  0  0
    4.9511   -1.0437    2.5260 H   0  0  0  0  0  0  0  0  0  0  0  0
    5.1738   -2.4600    1.4020 H   0  0  0  0  0  0  0  0  0  0  0  0
    3.2500    1.2054    1.2804 H   0  0  0  0  0  0  0  0  0  0  0  0
    0.9406   -1.3077   -0.5203 H   0  0  0  0  0  0  0  0  0  0  0  0
   -0.8570    0.1729   -2.1076 H   0  0  0  0  0  0  0  0  0  0  0  0
   -3.2780    0.4815   -2.2048 H   0  0  0  0  0  0  0  0  0  0  0  0
   -3.6491   -0.4035    1.9388 H   0  0  0  0  0  0  0  0  0  0  0  0
   -1.1788   -0.7104    2.0379 H   0  0  0  0  0  0  0  0  0  0  0  0
   -5.0129    1.8032   -1.8080 H   0  0  0  0  0  0  0  0  0  0  0  0
   -6.3733    1.9442   -0.6758 H   0  0  0  0  0  0  0  0  0  0  0  0
   -4.6711    2.3809   -0.1681 H   0  0  0  0  0  0  0  0  0  0  0  0
   -6.0565    0.8082    1.5621 H   0  0  0  0  0  0  0  0  0  0  0  0
   -6.9488   -0.3226    0.5356 H   0  0  0  0  0  0  0  0  0  0  0  0
   -5.5701   -0.9500    1.4702 H   0  0  0  0  0  0  0  0  0  0  0  0
   -5.2037   -0.0973   -2.3840 H   0  0  0  0  0  0  0  0  0  0  0  0
   -4.9485   -1.5693   -1.3488 H   0  0  0  0  0  0  0  0  0  0  0  0
   -6.6071   -0.8248   -1.4559 H   0  0  0  0  0  0  0  0  0  0  0  0
  1  2  1  0
  2  3  1  0
  3  4  1  0
  3  5  1  0
  3  6  1  0
  6  7  2  0
  6  8  1  0
  8  9  1  0
  9 10  2  0
  9 11  1  0
 11 12  1  0
 12 13  2  0
 13 14  1  0
 14 15  2  0
 15 16  1  0
 16 17  2  0
 15 18  1  0
 18 19  1  0
 18 20  1  0
 18 21  1  0
 17 12  1  0
  1 22  1  0
  1 23  1  0
  1 24  1  0
  4 25  1  0
  4 26  1  0
  4 27  1  0
  5 28  1  0
  5 29  1  0
  5 30  1  0
  8 31  1  0
 11 32  1  0
 13 33  1  0
 14 34  1  0
 16 35  1  0
 17 36  1  0
 19 37  1  0
 19 38  1  0
 19 39  1  0
 20 40  1  0
 20 41  1  0
 20 42  1  0
 21 43  1  0
 21 44  1  0
 21 45  1  0
M  END
$$$$
[H]c1c([H])c(-c2c([H])c([H])c(OC([H])([H])[H])c(OC([H])([H])C([H])([H])C([H])([H])[H])c2[H])c([H])c(Cl)c1Cl
     RDKit          3D

 36 37  0  0  0  0  0  0  0  0999 V2000
   -3.9083    0.0308    1.1857 C   0  0  0  0  0  0  0  0  0  0  0  0
   -3.3318    0.9601    0.1255 C   0  0  0  0  0  0  0  0  0  0  0  0
   -3.0379    0.2204   -1.1511 C   0  0  0  0  0  0  0  0  0  0  0  0
   -2.1479   -0.7981   -1.0397 O   0  0  0  0  0  0  0  0  0  0  0  0
   -0.8395   -0.9260   -0.7133 C   0  0  0  0  0  0  0  0  0  0  0  0
   -0.0464    0.1444   -0.4133 C   0  0  0  0  0  0  0  0  0  0  0  0
    1.2934    0.0298   -0.0739 C   0  0  0  0  0  0  0  0  0  0  0  0
    1.8504   -1.2273   -0.0390 C   0  0  0  0  0  0  0  0  0  0  0  0
    1.0785   -2.3476   -0.3386 C   0  0  0  0  0  0  0  0  0  0  0  0
   -0.2379   -2.1836   -0.6671 C   0  0  0  0  0  0  0  0  0  0  0  0
   -1.0329   -3.2697   -0.9698 O   0  0  0  0  0  0  0  0  0  0  0  0
   -0.4699   -4.5588   -0.9366 C   0  0  0  0  0  0  0  0  0  0  0  0
    2.0893    1.1987    0.2362 C   0  0  0  0  0  0  0  0  0  0  0  0
    3.4465    1.2413   -0.0403 C   0  0  0  0  0  0  0  0  0  0  0  0
    4.2426    2.3314    0.2374 C   0  0  0  0  0  0  0  0  0  0  0  0
    3.6571    3.4326    0.8191 C   0  0  0  0  0  0  0  0  0  0  0  0
    4.6838    4.8222    1.1705 Cl  0  0  0  0  0  0  0  0  0  0  0  0
    2.3165    3.4443    1.1144 C   0  0  0  0  0  0  0  0  0  0  0  0
    1.5487    4.8252    1.8511 Cl  0  0  0  0  0  0  0  0  0  0  0  0
    1.5570    2.3427    0.8240 C   0  0  0  0  0  0  0  0  0  0  0  0
   -3.2002   -0.7614    1.4798 H   0  0  0  0  0  0  0  0  0  0  0  0
   -4.8905   -0.3815    0.8776 H   0  0  0  0  0  0  0  0  0  0  0  0
   -4.0951    0.6764    2.0835 H   0  0  0  0  0  0  0  0  0  0  0  0
   -2.4580    1.4429    0.5439 H   0  0  0  0  0  0  0  0  0  0  0  0
   -4.1136    1.7308   -0.0734 H   0  0  0  0  0  0  0  0  0  0  0  0
   -3.9946   -0.1905   -1.5776 H   0  0  0  0  0  0  0  0  0  0  0  0
   -2.7184    1.0250   -1.8808 H   0  0  0  0  0  0  0  0  0  0  0  0
   -0.4420    1.1360   -0.4479 H   0  0  0  0  0  0  0  0  0  0  0  0
    2.8851   -1.4024    0.2154 H   0  0  0  0  0  0  0  0  0  0  0  0
    1.5475   -3.3015   -0.3003 H   0  0  0  0  0  0  0  0  0  0  0  0
    0.0589   -4.6529    0.0523 H   0  0  0  0  0  0  0  0  0  0  0  0
    0.3048   -4.7160   -1.7125 H   0  0  0  0  0  0  0  0  0  0  0  0
   -1.2734   -5.3227   -0.9924 H   0  0  0  0  0  0  0  0  0  0  0  0
    3.8988    0.3725   -0.4972 H   0  0  0  0  0  0  0  0  0  0  0  0
    5.2972    2.3161    0.0025 H   0  0  0  0  0  0  0  0  0  0  0  0
    0.4822    2.3161    1.0461 H   0  0  0  0  0  0  0  0  0  0  0  0
  1  2  1  0
  2  3  1  0
  3  4  1  0
  4  5  1  0
  5  6  2  0
  6  7  1  0
  7  8  2  0
  8  9  1  0
  9 10  2  0
 10 11  1  0
 11 12  1  0
  7 13  1  0
 13 14  2  0
 14 15  1  0
 15 16  2  0
 16 17  1  0
 16 18  1  0
 18 19  1  0
 18 20  2  0
 10  5  1  0
 20 13  1  0
  1 21  1  0
  1 22  1  0
  1 23  1  0
  2 24  1  0
  2 25  1  0
  3 26  1  0
  3 27  1  0
  6 28  1  0
  8 29  1  0
  9 30  1  0
 12 31  1  0
 12 32  1  0
 12 33  1  0
 14 34  1  0
 15 35  1  0
 20 36  1  0
M  END
$$$$
[H]OC(=O)[C@@]([H])(C([H])([H])O[H])C([H])([H])[C@]([H])(OC([H])([H])[H])C(=O)N1C([H])([H])C([H])([H])C([H])([H])C([H])([H])[C@@]1([H])C(=O)O[C@]([H])(C(=O)OC1(C([H])([H])O[C@]2([H])C([H])([H])C([H])([H])[C@@]([H])(OC([H])([H])[H])C([H])([H])C2([H])[H])C([H])([H])C([H])([H])C([H])([H])C([H])([H])C1([H])[H])C([H])([H])OC(=O)[C@]([H])(N([H])C(=O)[C@@]([H])(OC([H])([H])[H])C([H])([H])c1c([H])c([H])c(OC([H])([H])[H])c([H])c1[H])C([H])([H])[H]
     RDKit          2D

128131  0  0  0  0  0  0  0  0999 V2000
    4.0586   -0.4512    0.0000 C   0  0  0  0  0  0  0  0  0  0  0  0
    2.6491   -0.9642    0.0000 O   0  0  0  0  0  0  0  0  0  0  0  0
    1.5000    0.0000    0.0000 C   0  0  0  0  0  0  0  0  0  0  0  0
    0.7500   -1.2990    0.0000 C   0  0  0  0  0  0  0  0  0  0  0  0
   -0.7500   -1.2990    0.0000 C   0  0  0  0  0  0  0  0  0  0  0  0
   -1.5000    0.0000    0.0000 C   0  0  0  0  0  0  0  0  0  0  0  0
   -0.7500    1.2990    0.0000 C   0  0  0  0  0  0  0  0  0  0  0  0
    0.7500    1.2990    0.0000 C   0  0  0  0  0  0  0  0  0  0  0  0
   -2.6491    0.9642    0.0000 O   0  0  0  0  0  0  0  0  0  0  0  0
   -4.0586    0.4512    0.0000 C   0  0  0  0  0  0  0  0  0  0  0  0
   -5.4681   -0.0619    0.0000 C   0  0  0  0  0  0  0  0  0  0  0  0
   -5.7286    1.4153    0.0000 C   0  0  0  0  0  0  0  0  0  0  0  0
   -7.1382    1.9284    0.0000 C   0  0  0  0  0  0  0  0  0  0  0  0
   -8.2872    0.9642    0.0000 C   0  0  0  0  0  0  0  0  0  0  0  0
   -8.0268   -0.5130    0.0000 C   0  0  0  0  0  0  0  0  0  0  0  0
   -6.6172   -1.0261    0.0000 C   0  0  0  0  0  0  0  0  0  0  0  0
   -4.7181   -1.3609    0.0000 O   0  0  0  0  0  0  0  0  0  0  0  0
   -5.4681   -2.6600    0.0000 C   0  0  0  0  0  0  0  0  0  0  0  0
   -6.9681   -2.6600    0.0000 O   0  0  0  0  0  0  0  0  0  0  0  0
   -4.7181   -3.9590    0.0000 C   0  0  0  0  0  0  0  0  0  0  0  0
   -6.0172   -4.7090    0.0000 C   0  0  0  0  0  0  0  0  0  0  0  0
   -7.3162   -5.4590    0.0000 O   0  0  0  0  0  0  0  0  0  0  0  0
   -7.3162   -6.9590    0.0000 C   0  0  0  0  0  0  0  0  0  0  0  0
   -5.9354   -7.5451    0.0000 O   0  0  0  0  0  0  0  0  0  0  0  0
   -8.6153   -7.7090    0.0000 C   0  0  0  0  0  0  0  0  0  0  0  0
   -7.8653   -9.0080    0.0000 C   0  0  0  0  0  0  0  0  0  0  0  0
   -9.9143   -8.4590    0.0000 N   0  0  0  0  0  0  0  0  0  0  0  0
   -9.9143   -9.9590    0.0000 C   0  0  0  0  0  0  0  0  0  0  0  0
   -8.5335  -10.5451    0.0000 O   0  0  0  0  0  0  0  0  0  0  0  0
  -11.2133  -10.7090    0.0000 C   0  0  0  0  0  0  0  0  0  0  0  0
  -10.4633  -12.0080    0.0000 C   0  0  0  0  0  0  0  0  0  0  0  0
   -9.7133  -13.3071    0.0000 C   0  0  0  0  0  0  0  0  0  0  0  0
  -10.4633  -14.6061    0.0000 C   0  0  0  0  0  0  0  0  0  0  0  0
   -9.7133  -15.9051    0.0000 C   0  0  0  0  0  0  0  0  0  0  0  0
   -8.2133  -15.9051    0.0000 C   0  0  0  0  0  0  0  0  0  0  0  0
   -7.4633  -17.2042    0.0000 O   0  0  0  0  0  0  0  0  0  0  0  0
   -5.9633  -17.2042    0.0000 C   0  0  0  0  0  0  0  0  0  0  0  0
   -7.4633  -14.6061    0.0000 C   0  0  0  0  0  0  0  0  0  0  0  0
   -8.2133  -13.3071    0.0000 C   0  0  0  0  0  0  0  0  0  0  0  0
  -12.5124  -11.4590    0.0000 O   0  0  0  0  0  0  0  0  0  0  0  0
  -13.8114  -10.7090    0.0000 C   0  0  0  0  0  0  0  0  0  0  0  0
   -3.9681   -5.2580    0.0000 O   0  0  0  0  0  0  0  0  0  0  0  0
   -2.4681   -5.2580    0.0000 C   0  0  0  0  0  0  0  0  0  0  0  0
   -1.7181   -3.9590    0.0000 O   0  0  0  0  0  0  0  0  0  0  0  0
   -1.7181   -6.5571    0.0000 C   0  0  0  0  0  0  0  0  0  0  0  0
   -3.1277   -7.0701    0.0000 C   0  0  0  0  0  0  0  0  0  0  0  0
   -3.3882   -8.5473    0.0000 C   0  0  0  0  0  0  0  0  0  0  0  0
   -2.2391   -9.5115    0.0000 C   0  0  0  0  0  0  0  0  0  0  0  0
   -0.8296   -8.9985    0.0000 C   0  0  0  0  0  0  0  0  0  0  0  0
   -0.5691   -7.5213    0.0000 N   0  0  0  0  0  0  0  0  0  0  0  0
    0.8405   -7.0082    0.0000 C   0  0  0  0  0  0  0  0  0  0  0  0
    0.7357   -5.5119    0.0000 O   0  0  0  0  0  0  0  0  0  0  0  0
    1.9895   -7.9724    0.0000 C   0  0  0  0  0  0  0  0  0  0  0  0
    2.9537   -6.8233    0.0000 C   0  0  0  0  0  0  0  0  0  0  0  0
    3.9179   -5.6743    0.0000 C   0  0  0  0  0  0  0  0  0  0  0  0
    2.7688   -4.7101    0.0000 C   0  0  0  0  0  0  0  0  0  0  0  0
    1.6198   -3.7459    0.0000 O   0  0  0  0  0  0  0  0  0  0  0  0
    5.0670   -6.6385    0.0000 C   0  0  0  0  0  0  0  0  0  0  0  0
    6.4765   -6.1254    0.0000 O   0  0  0  0  0  0  0  0  0  0  0  0
    4.9885   -8.1364    0.0000 O   0  0  0  0  0  0  0  0  0  0  0  0
    3.1386   -8.9366    0.0000 O   0  0  0  0  0  0  0  0  0  0  0  0
    2.8781  -10.4138    0.0000 C   0  0  0  0  0  0  0  0  0  0  0  0
    4.5716   -1.8607    0.0000 H   0  0  0  0  0  0  0  0  0  0  0  0
    3.7212    1.0104    0.0000 H   0  0  0  0  0  0  0  0  0  0  0  0
    5.4681    0.0619    0.0000 H   0  0  0  0  0  0  0  0  0  0  0  0
    2.3286    0.8886    0.0000 H   0  0  0  0  0  0  0  0  0  0  0  0
    1.9339   -1.5723    0.0000 H   0  0  0  0  0  0  0  0  0  0  0  0
    0.4895   -2.7762    0.0000 H   0  0  0  0  0  0  0  0  0  0  0  0
   -0.4895   -2.7762    0.0000 H   0  0  0  0  0  0  0  0  0  0  0  0
   -1.8917   -1.7146    0.0000 H   0  0  0  0  0  0  0  0  0  0  0  0
   -2.3286   -0.8886    0.0000 H   0  0  0  0  0  0  0  0  0  0  0  0
   -2.1595    1.8121    0.0000 H   0  0  0  0  0  0  0  0  0  0  0  0
   -0.4895    2.7762    0.0000 H   0  0  0  0  0  0  0  0  0  0  0  0
    0.4895    2.7762    0.0000 H   0  0  0  0  0  0  0  0  0  0  0  0
    1.8917    1.7146    0.0000 H   0  0  0  0  0  0  0  0  0  0  0  0
   -4.2379    1.2279    0.0000 H   0  0  0  0  0  0  0  0  0  0  0  0
   -3.7212   -1.0104    0.0000 H   0  0  0  0  0  0  0  0  0  0  0  0
   -5.4681    2.8925    0.0000 H   0  0  0  0  0  0  0  0  0  0  0  0
   -4.9374    1.5125    0.0000 H   0  0  0  0  0  0  0  0  0  0  0  0
   -8.2872    2.8925    0.0000 H   0  0  0  0  0  0  0  0  0  0  0  0
   -6.3882    3.2274    0.0000 H   0  0  0  0  0  0  0  0  0  0  0  0
   -9.6968    0.4512    0.0000 H   0  0  0  0  0  0  0  0  0  0  0  0
   -9.0372    2.2632    0.0000 H   0  0  0  0  0  0  0  0  0  0  0  0
   -8.2872   -1.9902    0.0000 H   0  0  0  0  0  0  0  0  0  0  0  0
   -9.5268   -0.5130    0.0000 H   0  0  0  0  0  0  0  0  0  0  0  0
   -5.7356   -2.2396    0.0000 H   0  0  0  0  0  0  0  0  0  0  0  0
   -7.5200   -2.2240    0.0000 H   0  0  0  0  0  0  0  0  0  0  0  0
   -3.4191   -3.2090    0.0000 H   0  0  0  0  0  0  0  0  0  0  0  0
   -6.9199   -3.5111    0.0000 H   0  0  0  0  0  0  0  0  0  0  0  0
   -5.2672   -6.0080    0.0000 H   0  0  0  0  0  0  0  0  0  0  0  0
   -9.3653   -6.4100    0.0000 H   0  0  0  0  0  0  0  0  0  0  0  0
   -8.9442  -10.0501    0.0000 H   0  0  0  0  0  0  0  0  0  0  0  0
   -6.4845   -8.4220    0.0000 H   0  0  0  0  0  0  0  0  0  0  0  0
   -7.1153  -10.3071    0.0000 H   0  0  0  0  0  0  0  0  0  0  0  0
  -11.2133   -7.7090    0.0000 H   0  0  0  0  0  0  0  0  0  0  0  0
  -11.9633   -9.4100    0.0000 H   0  0  0  0  0  0  0  0  0  0  0  0
  -11.7624  -12.7580    0.0000 H   0  0  0  0  0  0  0  0  0  0  0  0
   -9.0826  -11.4220    0.0000 H   0  0  0  0  0  0  0  0  0  0  0  0
  -11.9633  -14.6061    0.0000 H   0  0  0  0  0  0  0  0  0  0  0  0
  -10.4633  -17.2042    0.0000 H   0  0  0  0  0  0  0  0  0  0  0  0
   -5.9633  -18.7042    0.0000 H   0  0  0  0  0  0  0  0  0  0  0  0
   -5.9633  -15.7042    0.0000 H   0  0  0  0  0  0  0  0  0  0  0  0
   -4.4633  -17.2042    0.0000 H   0  0  0  0  0  0  0  0  0  0  0  0
   -5.9633  -14.6061    0.0000 H   0  0  0  0  0  0  0  0  0  0  0  0
   -7.4633  -12.0080    0.0000 H   0  0  0  0  0  0  0  0  0  0  0  0
  -14.5614  -12.0080    0.0000 H   0  0  0  0  0  0  0  0  0  0  0  0
  -13.0614   -9.4100    0.0000 H   0  0  0  0  0  0  0  0  0  0  0  0
  -15.1104   -9.9590    0.0000 H   0  0  0  0  0  0  0  0  0  0  0  0
   -0.5691   -5.5929    0.0000 H   0  0  0  0  0  0  0  0  0  0  0  0
   -4.6277   -7.0701    0.0000 H   0  0  0  0  0  0  0  0  0  0  0  0
   -3.7379   -5.6998    0.0000 H   0  0  0  0  0  0  0  0  0  0  0  0
   -4.1382   -9.8463    0.0000 H   0  0  0  0  0  0  0  0  0  0  0  0
   -4.7977   -8.0343    0.0000 H   0  0  0  0  0  0  0  0  0  0  0  0
   -1.4891  -10.8105    0.0000 H   0  0  0  0  0  0  0  0  0  0  0  0
   -3.3882  -10.4757    0.0000 H   0  0  0  0  0  0  0  0  0  0  0  0
    0.6593   -9.1813    0.0000 H   0  0  0  0  0  0  0  0  0  0  0  0
   -0.5691  -10.4757    0.0000 H   0  0  0  0  0  0  0  0  0  0  0  0
    1.1726   -9.2304    0.0000 H   0  0  0  0  0  0  0  0  0  0  0  0
    3.9767   -7.9204    0.0000 H   0  0  0  0  0  0  0  0  0  0  0  0
    1.8046   -5.8592    0.0000 H   0  0  0  0  0  0  0  0  0  0  0  0
    4.8821   -4.5252    0.0000 H   0  0  0  0  0  0  0  0  0  0  0  0
    1.5553   -5.5917    0.0000 H   0  0  0  0  0  0  0  0  0  0  0  0
    3.7330   -3.5610    0.0000 H   0  0  0  0  0  0  0  0  0  0  0  0
    2.0584   -2.3115    0.0000 H   0  0  0  0  0  0  0  0  0  0  0  0
    7.6256   -7.0896    0.0000 H   0  0  0  0  0  0  0  0  0  0  0  0
    4.3553  -10.6743    0.0000 H   0  0  0  0  0  0  0  0  0  0  0  0
    1.4009  -10.1533    0.0000 H   0  0  0  0  0  0  0  0  0  0  0  0
    2.6176  -11.8910    0.0000 H   0  0  0  0  0  0  0  0  0  0  0  0
  1  2  1  0
  2  3  1  0
  3  4  1  0
  4  5  1  0
  5  6  1  0
  6  7  1  0
  7  8  1  0
  6  9  1  0
  9 10  1  0
 10 11  1  0
 11 12  1  0
 12 13  1  0
 13 14  1  0
 14 15  1  0
 15 16  1  0
 11 17  1  0
 17 18  1  0
 18 19  2  0
 18 20  1  0
 20 21  1  0
 21 22  1  0
 22 23  1  0
 23 24  2  0
 23 25  1  0
 25 26  1  0
 25 27  1  0
 27 28  1  0
 28 29  2  0
 28 30  1  0
 30 31  1  0
 31 32  1  0
 32 33  2  0
 33 34  1  0
 34 35  2  0
 35 36  1  0
 36 37  1  0
 35 38  1  0
 38 39  2  0
 30 40  1  0
 40 41  1  0
 20 42  1  0
 42 43  1  0
 43 44  2  0
 43 45  1  0
 45 46  1  0
 46 47  1  0
 47 48  1  0
 48 49  1  0
 49 50  1  0
 50 51  1  0
 51 52  2  0
 51 53  1  0
 53 54  1  0
 54 55  1  0
 55 56  1  0
 56 57  1  0
 55 58  1  0
 58 59  1  0
 58 60  2  0
 53 61  1  0
 61 62  1  0
  8  3  1  0
 16 11  1  0
 39 32  1  0
 50 45  1  0
  1 63  1  0
  1 64  1  0
  1 65  1  0
  3 66  1  6
  4 67  1  0
  4 68  1  0
  5 69  1  0
  5 70  1  0
  6 71  1  1
  7 72  1  0
  7 73  1  0
  8 74  1  0
  8 75  1  0
 10 76  1  0
 10 77  1  0
 12 78  1  0
 12 79  1  0
 13 80  1  0
 13 81  1  0
 14 82  1  0
 14 83  1  0
 15 84  1  0
 15 85  1  0
 16 86  1  0
 16 87  1  0
 20 88  1  6
 21 89  1  0
 21 90  1  0
 25 91  1  6
 26 92  1  0
 26 93  1  0
 26 94  1  0
 27 95  1  0
 30 96  1  1
 31 97  1  0
 31 98  1  0
 33 99  1  0
 34100  1  0
 37101  1  0
 37102  1  0
 37103  1  0
 38104  1  0
 39105  1  0
 41106  1  0
 41107  1  0
 41108  1  0
 45109  1  6
 46110  1  0
 46111  1  0
 47112  1  0
 47113  1  0
 48114  1  0
 48115  1  0
 49116  1  0
 49117  1  0
 53118  1  1
 54119  1  0
 54120  1  0
 55121  1  1
 56122  1  0
 56123  1  0
 57124  1  0
 59125  1  0
 62126  1  0
 62127  1  0
 62128  1  0
M  END
$$$$
[H]c1c([H])c(C([H])([H])N(C([H])([H])[H])C([H])([H])[H])c([H])c([H])c1Oc1c([H])c([H])c2c(c1[H])C([H])([H])C([H])([H])C2=O
     RDKit          3D

 40 42  0  0  0  0  0  0  0  0999 V2000
   -5.1549   -0.9277    0.1417 C   0  0  0  0  0  0  0  0  0  0  0  0
   -4.7187   -0.3608    1.3753 N   0  0  0  0  0  0  0  0  0  0  0  0
   -5.6786   -0.3943    2.4305 C   0  0  0  0  0  0  0  0  0  0  0  0
   -4.0038    0.8671    1.2436 C   0  0  0  0  0  0  0  0  0  0  0  0
   -2.7749    0.6383    0.4414 C   0  0  0  0  0  0  0  0  0  0  0  0
   -2.1720   -0.5827    0.2872 C   0  0  0  0  0  0  0  0  0  0  0  0
   -1.0207   -0.7708   -0.4763 C   0  0  0  0  0  0  0  0  0  0  0  0
   -0.4651    0.3038   -1.0996 C   0  0  0  0  0  0  0  0  0  0  0  0
    0.6873    0.0830   -1.8568 O   0  0  0  0  0  0  0  0  0  0  0  0
    1.9115    0.1969   -1.2200 C   0  0  0  0  0  0  0  0  0  0  0  0
    2.0172    0.5164    0.1158 C   0  0  0  0  0  0  0  0  0  0  0  0
    3.2222    0.6271    0.7375 C   0  0  0  0  0  0  0  0  0  0  0  0
    4.3882    0.4144    0.0160 C   0  0  0  0  0  0  0  0  0  0  0  0
    5.7880    0.4641    0.4260 C   0  0  0  0  0  0  0  0  0  0  0  0
    6.2873    1.0061    1.4344 O   0  0  0  0  0  0  0  0  0  0  0  0
    6.5481   -0.2785   -0.6166 C   0  0  0  0  0  0  0  0  0  0  0  0
    5.7119   -0.0729   -1.8371 C   0  0  0  0  0  0  0  0  0  0  0  0
    4.3429    0.0923   -1.3230 C   0  0  0  0  0  0  0  0  0  0  0  0
    3.0802   -0.0081   -1.9095 C   0  0  0  0  0  0  0  0  0  0  0  0
   -1.0327    1.5503   -0.9755 C   0  0  0  0  0  0  0  0  0  0  0  0
   -2.1678    1.7136   -0.2180 C   0  0  0  0  0  0  0  0  0  0  0  0
   -4.8589   -2.0058    0.1029 H   0  0  0  0  0  0  0  0  0  0  0  0
   -4.6533   -0.3702   -0.6935 H   0  0  0  0  0  0  0  0  0  0  0  0
   -6.2581   -0.9237    0.0142 H   0  0  0  0  0  0  0  0  0  0  0  0
   -5.2431    0.1390    3.3037 H   0  0  0  0  0  0  0  0  0  0  0  0
   -5.7904   -1.4701    2.7491 H   0  0  0  0  0  0  0  0  0  0  0  0
   -6.6828   -0.0270    2.1575 H   0  0  0  0  0  0  0  0  0  0  0  0
   -4.6234    1.6856    0.7999 H   0  0  0  0  0  0  0  0  0  0  0  0
   -3.6712    1.2514    2.2300 H   0  0  0  0  0  0  0  0  0  0  0  0
   -2.6370   -1.4328    0.8033 H   0  0  0  0  0  0  0  0  0  0  0  0
   -0.6322   -1.7886   -0.5252 H   0  0  0  0  0  0  0  0  0  0  0  0
    1.1153    0.6815    0.6765 H   0  0  0  0  0  0  0  0  0  0  0  0
    3.3300    0.8764    1.7815 H   0  0  0  0  0  0  0  0  0  0  0  0
    6.5438   -1.3664   -0.3741 H   0  0  0  0  0  0  0  0  0  0  0  0
    7.5543    0.1423   -0.6680 H   0  0  0  0  0  0  0  0  0  0  0  0
    5.7834   -0.9248   -2.5544 H   0  0  0  0  0  0  0  0  0  0  0  0
    6.0205    0.8793   -2.3536 H   0  0  0  0  0  0  0  0  0  0  0  0
    3.0734   -0.2609   -2.9563 H   0  0  0  0  0  0  0  0  0  0  0  0
   -0.5493    2.3646   -1.4914 H   0  0  0  0  0  0  0  0  0  0  0  0
   -2.6163    2.6949   -0.1192 H   0  0  0  0  0  0  0  0  0  0  0  0
  1  2  1  0
  2  3  1  0
  2  4  1  0
  4  5  1  0
  5  6  2  0
  6  7  1  0
  7  8  2  0
  8  9  1  0
  9 10  1  0
 10 11  2  0
 11 12  1  0
 12 13  2  0
 13 14  1  0
 14 15  2  0
 14 16  1  0
 16 17  1  0
 17 18  1  0
 18 19  2  0
  8 20  1  0
 20 21  2  0
 21  5  1  0
 19 10  1  0
 18 13  1  0
  1 22  1  0
  1 23  1  0
  1 24  1  0
  3 25  1  0
  3 26  1  0
  3 27  1  0
  4 28  1  0
  4 29  1  0
  6 30  1  0
  7 31  1  0
 11 32  1  0
 12 33  1  0
 16 34  1  0
 16 35  1  0
 17 36  1  0
 17 37  1  0
 19 38  1  0
 20 39  1  0
 21 40  1  0
M  END
$$$$
[H]c1nc2c(nc(N([H])c3c([H])c(OC([H])([H])[H])c(OC([H])([H])[H])c(OC([H])([H])[H])c3[H])n2[H])c(-c2c([H])c([H])c3c(c([H])nn3[H])c2[H])c1[H]
     RDKit          3D

 51 55  0  0  0  0  0  0  0  0999 V2000
    0.9386    2.5587    0.3137 C   0  0  0  0  0  0  0  0  0  0  0  0
    2.2595    2.3213   -0.1240 O   0  0  0  0  0  0  0  0  0  0  0  0
    2.6642    0.9906   -0.2674 C   0  0  0  0  0  0  0  0  0  0  0  0
    1.7838   -0.0665    0.0154 C   0  0  0  0  0  0  0  0  0  0  0  0
    2.1531   -1.3814   -0.1163 C   0  0  0  0  0  0  0  0  0  0  0  0
    1.3420   -2.5003    0.1274 N   0  0  0  0  0  0  0  0  0  0  0  0
   -0.0432   -2.4996    0.3802 C   0  0  0  0  0  0  0  0  0  0  0  0
   -0.9456   -1.5059    0.4583 N   0  0  0  0  0  0  0  0  0  0  0  0
   -2.1771   -1.9730    0.7195 C   0  0  0  0  0  0  0  0  0  0  0  0
   -3.3845   -1.3803    0.8858 C   0  0  0  0  0  0  0  0  0  0  0  0
   -4.4912   -2.1942    1.1531 C   0  0  0  0  0  0  0  0  0  0  0  0
   -4.3432   -3.5601    1.2423 C   0  0  0  0  0  0  0  0  0  0  0  0
   -3.1430   -4.1321    1.0757 N   0  0  0  0  0  0  0  0  0  0  0  0
   -2.0605   -3.3436    0.8148 C   0  0  0  0  0  0  0  0  0  0  0  0
   -0.7672   -3.6152    0.6052 N   0  0  0  0  0  0  0  0  0  0  0  0
   -3.5053    0.0607    0.7868 C   0  0  0  0  0  0  0  0  0  0  0  0
   -2.6599    0.9707    1.3736 C   0  0  0  0  0  0  0  0  0  0  0  0
   -2.8330    2.3296    1.2413 C   0  0  0  0  0  0  0  0  0  0  0  0
   -3.8801    2.8382    0.5016 C   0  0  0  0  0  0  0  0  0  0  0  0
   -4.2972    4.0957    0.1986 N   0  0  0  0  0  0  0  0  0  0  0  0
   -5.3951    4.0136   -0.5722 N   0  0  0  0  0  0  0  0  0  0  0  0
   -5.6734    2.7068   -0.7575 C   0  0  0  0  0  0  0  0  0  0  0  0
   -4.7396    1.9459   -0.0954 C   0  0  0  0  0  0  0  0  0  0  0  0
   -4.5530    0.5930    0.0463 C   0  0  0  0  0  0  0  0  0  0  0  0
    3.4681   -1.5834   -0.5515 C   0  0  0  0  0  0  0  0  0  0  0  0
    4.3328   -0.5505   -0.8292 C   0  0  0  0  0  0  0  0  0  0  0  0
    5.6321   -0.8021   -1.2595 O   0  0  0  0  0  0  0  0  0  0  0  0
    6.1182   -2.1306   -1.4296 C   0  0  0  0  0  0  0  0  0  0  0  0
    3.9516    0.7615   -0.6938 C   0  0  0  0  0  0  0  0  0  0  0  0
    4.7998    1.8255   -0.9659 O   0  0  0  0  0  0  0  0  0  0  0  0
    5.6431    2.4138   -0.0037 C   0  0  0  0  0  0  0  0  0  0  0  0
    0.6481    3.6207    0.2261 H   0  0  0  0  0  0  0  0  0  0  0  0
    0.7880    2.2528    1.3599 H   0  0  0  0  0  0  0  0  0  0  0  0
    0.2452    2.0038   -0.3752 H   0  0  0  0  0  0  0  0  0  0  0  0
    0.8068    0.1800    0.3456 H   0  0  0  0  0  0  0  0  0  0  0  0
    1.8259   -3.4359    0.1238 H   0  0  0  0  0  0  0  0  0  0  0  0
   -5.4584   -1.7453    1.2884 H   0  0  0  0  0  0  0  0  0  0  0  0
   -5.1834   -4.2096    1.4480 H   0  0  0  0  0  0  0  0  0  0  0  0
   -0.4037   -4.5883    0.6224 H   0  0  0  0  0  0  0  0  0  0  0  0
   -1.8269    0.6258    1.9616 H   0  0  0  0  0  0  0  0  0  0  0  0
   -2.1639    3.0468    1.7059 H   0  0  0  0  0  0  0  0  0  0  0  0
   -3.8555    4.9918    0.5020 H   0  0  0  0  0  0  0  0  0  0  0  0
   -6.5145    2.3730   -1.3460 H   0  0  0  0  0  0  0  0  0  0  0  0
   -5.2619   -0.0549   -0.4468 H   0  0  0  0  0  0  0  0  0  0  0  0
    3.7788   -2.6167   -0.6627 H   0  0  0  0  0  0  0  0  0  0  0  0
    7.1561   -2.0367   -1.8185 H   0  0  0  0  0  0  0  0  0  0  0  0
    5.4563   -2.6210   -2.1880 H   0  0  0  0  0  0  0  0  0  0  0  0
    6.0937   -2.7036   -0.4851 H   0  0  0  0  0  0  0  0  0  0  0  0
    6.5871    2.6840   -0.5243 H   0  0  0  0  0  0  0  0  0  0  0  0
    5.9067    1.7164    0.8156 H   0  0  0  0  0  0  0  0  0  0  0  0
    5.1807    3.3099    0.4589 H   0  0  0  0  0  0  0  0  0  0  0  0
  1  2  1  0
  2  3  1  0
  3  4  2  0
  4  5  1  0
  5  6  1  0
  6  7  1  0
  7  8  2  0
  8  9  1  0
  9 10  2  0
 10 11  1  0
 11 12  2  0
 12 13  1  0
 13 14  2  0
 14 15  1  0
 10 16  1  0
 16 17  2  0
 17 18  1  0
 18 19  2  0
 19 20  1  0
 20 21  1  0
 21 22  2  0
 22 23  1  0
 23 24  2  0
  5 25  2  0
 25 26  1  0
 26 27  1  0
 27 28  1  0
 26 29  2  0
 29 30  1  0
 30 31  1  0
 29  3  1  0
 15  7  1  0
 24 16  1  0
 14  9  1  0
 23 19  1  0
  1 32  1  0
  1 33  1  0
  1 34  1  0
  4 35  1  0
  6 36  1  0
 11 37  1  0
 12 38  1  0
 15 39  1  0
 17 40  1  0
 18 41  1  0
 20 42  1  0
 22 43  1  0
 24 44  1  0
 25 45  1  0
 28 46  1  0
 28 47  1  0
 28 48  1  0
 31 49  1  0
 31 50  1  0
 31 51  1  0
M  END
$$$$
[H]OC([H])([H])c1c(-c2c([H])c3c([H])c([H])c(N4C([H])([H])C([H])([H])N(C([H])([H])[H])C([H])([H])C4([H])[H])c([H])c3n2[H])c(=O)n([H])c2c([H])c([H])c(F)c([H])c12
     RDKit          3D

 53 57  0  0  0  0  0  0  0  0999 V2000
   -7.8878    0.7468    0.7897 C   0  0  0  0  0  0  0  0  0  0  0  0
   -6.6405    0.3496    0.2168 N   0  0  0  0  0  0  0  0  0  0  0  0
   -6.3207   -1.0307    0.5372 C   0  0  0  0  0  0  0  0  0  0  0  0
   -5.0602   -1.4266   -0.1766 C   0  0  0  0  0  0  0  0  0  0  0  0
   -3.9831   -0.4920   -0.1080 N   0  0  0  0  0  0  0  0  0  0  0  0
   -4.2314    0.8838    0.1868 C   0  0  0  0  0  0  0  0  0  0  0  0
   -5.5896    1.2336    0.6837 C   0  0  0  0  0  0  0  0  0  0  0  0
   -2.6430   -0.9254   -0.3405 C   0  0  0  0  0  0  0  0  0  0  0  0
   -2.3316   -2.2384   -0.6091 C   0  0  0  0  0  0  0  0  0  0  0  0
   -1.0353   -2.6583   -0.8368 C   0  0  0  0  0  0  0  0  0  0  0  0
    0.0021   -1.7297   -0.7957 C   0  0  0  0  0  0  0  0  0  0  0  0
    1.3729   -1.8664   -0.9817 C   0  0  0  0  0  0  0  0  0  0  0  0
    1.9158   -0.5764   -0.8195 C   0  0  0  0  0  0  0  0  0  0  0  0
    0.8994    0.2352   -0.5564 N   0  0  0  0  0  0  0  0  0  0  0  0
   -0.2931   -0.4288   -0.5313 C   0  0  0  0  0  0  0  0  0  0  0  0
   -1.5893   -0.0129   -0.3043 C   0  0  0  0  0  0  0  0  0  0  0  0
    3.3484   -0.3402   -0.8504 C   0  0  0  0  0  0  0  0  0  0  0  0
    4.0223    0.6567   -0.1352 C   0  0  0  0  0  0  0  0  0  0  0  0
    3.2388    1.5370    0.7059 C   0  0  0  0  0  0  0  0  0  0  0  0
    3.8446    2.4620    1.5134 O   0  0  0  0  0  0  0  0  0  0  0  0
    5.4018    0.7538   -0.3076 C   0  0  0  0  0  0  0  0  0  0  0  0
    6.1423    1.7102    0.3554 C   0  0  0  0  0  0  0  0  0  0  0  0
    7.5252    1.7610    0.1383 C   0  0  0  0  0  0  0  0  0  0  0  0
    8.2133    2.7137    0.8077 F   0  0  0  0  0  0  0  0  0  0  0  0
    8.1974    0.9141   -0.6983 C   0  0  0  0  0  0  0  0  0  0  0  0
    7.4563   -0.0382   -1.3584 C   0  0  0  0  0  0  0  0  0  0  0  0
    6.0934   -0.1105   -1.1633 C   0  0  0  0  0  0  0  0  0  0  0  0
    5.4266   -1.0405   -1.8257 N   0  0  0  0  0  0  0  0  0  0  0  0
    4.1203   -1.1642   -1.6902 C   0  0  0  0  0  0  0  0  0  0  0  0
    3.4996   -2.0600   -2.3420 O   0  0  0  0  0  0  0  0  0  0  0  0
   -8.0880    1.8035    0.4719 H   0  0  0  0  0  0  0  0  0  0  0  0
   -7.9234    0.6896    1.8870 H   0  0  0  0  0  0  0  0  0  0  0  0
   -8.6936    0.0843    0.3562 H   0  0  0  0  0  0  0  0  0  0  0  0
   -7.1464   -1.6456    0.1066 H   0  0  0  0  0  0  0  0  0  0  0  0
   -6.2795   -1.2289    1.6196 H   0  0  0  0  0  0  0  0  0  0  0  0
   -4.8003   -2.4288    0.2391 H   0  0  0  0  0  0  0  0  0  0  0  0
   -5.2959   -1.5861   -1.2552 H   0  0  0  0  0  0  0  0  0  0  0  0
   -3.5152    1.3066    0.9322 H   0  0  0  0  0  0  0  0  0  0  0  0
   -4.1053    1.4324   -0.7990 H   0  0  0  0  0  0  0  0  0  0  0  0
   -5.8535    2.2501    0.3292 H   0  0  0  0  0  0  0  0  0  0  0  0
   -5.5859    1.3000    1.8038 H   0  0  0  0  0  0  0  0  0  0  0  0
   -3.0938   -2.9950   -0.6542 H   0  0  0  0  0  0  0  0  0  0  0  0
   -0.8104   -3.7053   -1.0479 H   0  0  0  0  0  0  0  0  0  0  0  0
    1.8409   -2.8124   -1.1800 H   0  0  0  0  0  0  0  0  0  0  0  0
    0.8584    1.2731   -0.3903 H   0  0  0  0  0  0  0  0  0  0  0  0
   -1.8101    1.0265   -0.0972 H   0  0  0  0  0  0  0  0  0  0  0  0
    2.4777    1.0042    1.3017 H   0  0  0  0  0  0  0  0  0  0  0  0
    2.6067    2.2309   -0.0112 H   0  0  0  0  0  0  0  0  0  0  0  0
    3.2567    3.2342    1.6949 H   0  0  0  0  0  0  0  0  0  0  0  0
    5.7085    2.4199    1.0260 H   0  0  0  0  0  0  0  0  0  0  0  0
    9.2697    0.9767   -0.8469 H   0  0  0  0  0  0  0  0  0  0  0  0
    7.9540   -0.7322   -2.0343 H   0  0  0  0  0  0  0  0  0  0  0  0
    5.9138   -1.7163   -2.4855 H   0  0  0  0  0  0  0  0  0  0  0  0
  1  2  1  0
  2  3  1  0
  3  4  1  0
  4  5  1  0
  5  6  1  0
  6  7  1  0
  5  8  1  0
  8  9  2  0
  9 10  1  0
 10 11  2  0
 11 12  1  0
 12 13  2  0
 13 14  1  0
 14 15  1  0
 15 16  2  0
 13 17  1  0
 17 18  2  0
 18 19  1  0
 19 20  1  0
 18 21  1  0
 21 22  2  0
 22 23  1  0
 23 24  1  0
 23 25  2  0
 25 26  1  0
 26 27  2  0
 27 28  1  0
 28 29  1  0
 29 30  2  0
  7  2  1  0
 16  8  1  0
 29 17  1  0
 15 11  1  0
 27 21  1  0
  1 31  1  0
  1 32  1  0
  1 33  1  0
  3 34  1  0
  3 35  1  0
  4 36  1  0
  4 37  1  0
  6 38  1  0
  6 39  1  0
  7 40  1  0
  7 41  1  0
  9 42  1  0
 10 43  1  0
 12 44  1  0
 14 45  1  0
 16 46  1  0
 19 47  1  0
 19 48  1  0
 20 49  1  0
 22 50  1  0
 25 51  1  0
 26 52  1  0
 28 53  1  0
M  END
$$$$
[H]c1c(N([H])[H])nc(S(=O)(=O)N2C([H])([H])c3c([H])c([H])c(S(=O)(=O)N(C([H])([H])[H])C([H])([H])[H])c([H])c3C([H])([H])C2([H])[H])c([H])c1C([H])([H])[H]
     RDKit          3D

 49 51  0  0  0  0  0  0  0  0999 V2000
    5.8775   -0.7471   -0.6373 C   0  0  0  0  0  0  0  0  0  0  0  0
    6.2809   -0.0120    0.5454 N   0  0  0  0  0  0  0  0  0  0  0  0
    5.9281   -0.8178    1.7029 C   0  0  0  0  0  0  0  0  0  0  0  0
    5.3582    1.4523    0.5664 S   0  0  0  0  0  0  0  0  0  0  0  0
    5.6209    2.1921   -0.7129 O   0  0  0  0  0  0  0  0  0  0  0  0
    5.7852    2.2656    1.7532 O   0  0  0  0  0  0  0  0  0  0  0  0
    3.6462    1.1163    0.6719 C   0  0  0  0  0  0  0  0  0  0  0  0
    2.9819    0.9980    1.8754 C   0  0  0  0  0  0  0  0  0  0  0  0
    1.6154    0.7290    1.8911 C   0  0  0  0  0  0  0  0  0  0  0  0
    0.9402    0.5838    0.7144 C   0  0  0  0  0  0  0  0  0  0  0  0
   -0.5089    0.2946    0.6557 C   0  0  0  0  0  0  0  0  0  0  0  0
   -0.6855   -0.7273   -0.3116 N   0  0  0  0  0  0  0  0  0  0  0  0
   -0.2760   -0.4874   -1.6345 C   0  0  0  0  0  0  0  0  0  0  0  0
    0.7999    0.5337   -1.7386 C   0  0  0  0  0  0  0  0  0  0  0  0
    1.6013    0.7016   -0.4784 C   0  0  0  0  0  0  0  0  0  0  0  0
    2.9442    0.9658   -0.5018 C   0  0  0  0  0  0  0  0  0  0  0  0
   -2.0585   -1.6971   -0.1062 S   0  0  0  0  0  0  0  0  0  0  0  0
   -2.0347   -2.7910   -1.1331 O   0  0  0  0  0  0  0  0  0  0  0  0
   -1.9334   -2.3935    1.2431 O   0  0  0  0  0  0  0  0  0  0  0  0
   -3.5572   -0.8590   -0.1927 C   0  0  0  0  0  0  0  0  0  0  0  0
   -4.4846   -1.2024   -1.1547 C   0  0  0  0  0  0  0  0  0  0  0  0
   -5.6992   -0.5776   -1.2825 C   0  0  0  0  0  0  0  0  0  0  0  0
   -6.7109   -0.9306   -2.3091 C   0  0  0  0  0  0  0  0  0  0  0  0
   -5.9957    0.4361   -0.4062 C   0  0  0  0  0  0  0  0  0  0  0  0
   -5.0783    0.7871    0.5574 C   0  0  0  0  0  0  0  0  0  0  0  0
   -5.3921    1.8440    1.4678 N   0  0  0  0  0  0  0  0  0  0  0  0
   -3.9098    0.1464    0.6385 N   0  0  0  0  0  0  0  0  0  0  0  0
    5.9029   -0.1151   -1.5400 H   0  0  0  0  0  0  0  0  0  0  0  0
    4.8647   -1.1780   -0.4564 H   0  0  0  0  0  0  0  0  0  0  0  0
    6.5831   -1.6063   -0.7287 H   0  0  0  0  0  0  0  0  0  0  0  0
    4.8759   -1.1810    1.5906 H   0  0  0  0  0  0  0  0  0  0  0  0
    6.5768   -1.6994    1.7837 H   0  0  0  0  0  0  0  0  0  0  0  0
    6.0361   -0.2369    2.6261 H   0  0  0  0  0  0  0  0  0  0  0  0
    3.5660    1.1224    2.7725 H   0  0  0  0  0  0  0  0  0  0  0  0
    1.1180    0.6412    2.8649 H   0  0  0  0  0  0  0  0  0  0  0  0
   -0.8558   -0.0816    1.6328 H   0  0  0  0  0  0  0  0  0  0  0  0
   -1.0188    1.2485    0.4171 H   0  0  0  0  0  0  0  0  0  0  0  0
    0.1585   -1.4518   -2.0366 H   0  0  0  0  0  0  0  0  0  0  0  0
   -1.0939   -0.2488   -2.3472 H   0  0  0  0  0  0  0  0  0  0  0  0
    0.3653    1.4991   -2.0641 H   0  0  0  0  0  0  0  0  0  0  0  0
    1.5526    0.2568   -2.5250 H   0  0  0  0  0  0  0  0  0  0  0  0
    3.4330    1.0520   -1.4732 H   0  0  0  0  0  0  0  0  0  0  0  0
   -4.2528   -2.0061   -1.8516 H   0  0  0  0  0  0  0  0  0  0  0  0
   -6.5654   -0.3815   -3.2618 H   0  0  0  0  0  0  0  0  0  0  0  0
   -6.6514   -2.0227   -2.5662 H   0  0  0  0  0  0  0  0  0  0  0  0
   -7.7404   -0.7563   -1.9718 H   0  0  0  0  0  0  0  0  0  0  0  0
   -6.9360    0.9728   -0.4492 H   0  0  0  0  0  0  0  0  0  0  0  0
   -5.9777    2.6157    1.1319 H   0  0  0  0  0  0  0  0  0  0  0  0
   -4.9956    1.7530    2.4268 H   0  0  0  0  0  0  0  0  0  0  0  0
  1  2  1  0
  2  3  1  0
  2  4  1  0
  4  5  2  0
  4  6  2  0
  4  7  1  0
  7  8  2  0
  8  9  1  0
  9 10  2  0
 10 11  1  0
 11 12  1  0
 12 13  1  0
 13 14  1  0
 14 15  1  0
 15 16  2  0
 12 17  1  0
 17 18  2  0
 17 19  2  0
 17 20  1  0
 20 21  2  0
 21 22  1  0
 22 23  1  0
 22 24  2  0
 24 25  1  0
 25 26  1  0
 25 27  2  0
 16  7  1  0
 27 20  1  0
 15 10  1  0
  1 28  1  0
  1 29  1  0
  1 30  1  0
  3 31  1  0
  3 32  1  0
  3 33  1  0
  8 34  1  0
  9 35  1  0
 11 36  1  0
 11 37  1  0
 13 38  1  0
 13 39  1  0
 14 40  1  0
 14 41  1  0
 16 42  1  0
 21 43  1  0
 23 44  1  0
 23 45  1  0
 23 46  1  0
 24 47  1  0
 26 48  1  0
 26 49  1  0
M  END
$$$$
[H]c1c([H])c([H])c(C([H])(c2c([H])c([H])c([H])c([H])c2[H])n2c(=O)c(=O)n([H])c3c([H])c([H])c([H])c([H])c32)c([H])c1[H]
     RDKit          3D

 41 44  0  0  0  0  0  0  0  0999 V2000
    2.5095   -1.1169    3.2839 O   0  0  0  0  0  0  0  0  0  0  0  0
    2.3559   -0.6942    2.0887 C   0  0  0  0  0  0  0  0  0  0  0  0
    3.3891   -0.1959    1.4090 N   0  0  0  0  0  0  0  0  0  0  0  0
    3.2019    0.2430    0.1513 C   0  0  0  0  0  0  0  0  0  0  0  0
    4.3212    0.7430   -0.4776 C   0  0  0  0  0  0  0  0  0  0  0  0
    4.1880    1.2101   -1.7728 C   0  0  0  0  0  0  0  0  0  0  0  0
    2.9535    1.1615   -2.3873 C   0  0  0  0  0  0  0  0  0  0  0  0
    1.8301    0.6489   -1.7278 C   0  0  0  0  0  0  0  0  0  0  0  0
    1.9430    0.1792   -0.4383 C   0  0  0  0  0  0  0  0  0  0  0  0
    0.8727   -0.3261    0.2366 N   0  0  0  0  0  0  0  0  0  0  0  0
   -0.4258   -0.3889   -0.3858 C   0  0  0  0  0  0  0  0  0  0  0  0
   -1.1237    0.9231   -0.3079 C   0  0  0  0  0  0  0  0  0  0  0  0
   -1.9457    1.3610   -1.3448 C   0  0  0  0  0  0  0  0  0  0  0  0
   -2.5976    2.5743   -1.3104 C   0  0  0  0  0  0  0  0  0  0  0  0
   -2.4594    3.4174   -0.2292 C   0  0  0  0  0  0  0  0  0  0  0  0
   -1.6526    3.0128    0.8132 C   0  0  0  0  0  0  0  0  0  0  0  0
   -0.9994    1.7746    0.7565 C   0  0  0  0  0  0  0  0  0  0  0  0
   -1.3198   -1.4548    0.1094 C   0  0  0  0  0  0  0  0  0  0  0  0
   -1.0504   -2.8052   -0.1329 C   0  0  0  0  0  0  0  0  0  0  0  0
   -1.8709   -3.8133    0.2845 C   0  0  0  0  0  0  0  0  0  0  0  0
   -3.0145   -3.5400    0.9713 C   0  0  0  0  0  0  0  0  0  0  0  0
   -3.3103   -2.2137    1.2275 C   0  0  0  0  0  0  0  0  0  0  0  0
   -2.4754   -1.2066    0.8016 C   0  0  0  0  0  0  0  0  0  0  0  0
    1.0961   -0.7545    1.4891 C   0  0  0  0  0  0  0  0  0  0  0  0
    0.1727   -1.2378    2.1961 O   0  0  0  0  0  0  0  0  0  0  0  0
    4.3216   -0.1608    1.8777 H   0  0  0  0  0  0  0  0  0  0  0  0
    5.2886    0.7742    0.0218 H   0  0  0  0  0  0  0  0  0  0  0  0
    5.0384    1.6137   -2.3128 H   0  0  0  0  0  0  0  0  0  0  0  0
    2.8034    1.5145   -3.3956 H   0  0  0  0  0  0  0  0  0  0  0  0
    0.9069    0.6444   -2.2665 H   0  0  0  0  0  0  0  0  0  0  0  0
   -0.3286   -0.5941   -1.5006 H   0  0  0  0  0  0  0  0  0  0  0  0
   -2.0895    0.7386   -2.2176 H   0  0  0  0  0  0  0  0  0  0  0  0
   -3.2318    2.9022   -2.1201 H   0  0  0  0  0  0  0  0  0  0  0  0
   -2.9460    4.3787   -0.1487 H   0  0  0  0  0  0  0  0  0  0  0  0
   -1.5386    3.6732    1.6704 H   0  0  0  0  0  0  0  0  0  0  0  0
   -0.3918    1.5185    1.5861 H   0  0  0  0  0  0  0  0  0  0  0  0
   -0.1403   -3.0731   -0.6826 H   0  0  0  0  0  0  0  0  0  0  0  0
   -1.6443   -4.8591    0.0863 H   0  0  0  0  0  0  0  0  0  0  0  0
   -3.6567   -4.3487    1.2968 H   0  0  0  0  0  0  0  0  0  0  0  0
   -4.2340   -2.0305    1.7799 H   0  0  0  0  0  0  0  0  0  0  0  0
   -2.7456   -0.1927    1.0216 H   0  0  0  0  0  0  0  0  0  0  0  0
  1  2  2  0
  2  3  1  0
  3  4  1  0
  4  5  2  0
  5  6  1  0
  6  7  2  0
  7  8  1  0
  8  9  2  0
  9 10  1  0
 10 11  1  0
 11 12  1  0
 12 13  2  0
 13 14  1  0
 14 15  2  0
 15 16  1  0
 16 17  2  0
 11 18  1  0
 18 19  2  0
 19 20  1  0
 20 21  2  0
 21 22  1  0
 22 23  2  0
 10 24  1  0
 24 25  2  0
 24  2  1  0
  9  4  1  0
 17 12  1  0
 23 18  1  0
  3 26  1  0
  5 27  1  0
  6 28  1  0
  7 29  1  0
  8 30  1  0
 11 31  1  0
 13 32  1  0
 14 33  1  0
 15 34  1  0
 16 35  1  0
 17 36  1  0
 19 37  1  0
 20 38  1  0
 21 39  1  0
 22 40  1  0
 23 41  1  0
M  END
$$$$
[H]c1nc(N([H])C(=O)c2c([H])c([H])c([H])c3c([H])c([H])c([H])c([H])c23)c([H])c(N([H])c2c([H])c([H])c3c(c2[H])/C(=N/OC([H])([H])C([H])([H])N([H])C(=O)C([H])([H])[H])C(=O)N3[H])n1
     RDKit          3D

 61 65  0  0  0  0  0  0  0  0999 V2000
   10.2593    1.1173   -0.2151 C   0  0  0  0  0  0  0  0  0  0  0  0
    9.4262    0.1483    0.5618 C   0  0  0  0  0  0  0  0  0  0  0  0
    8.8704    0.5286    1.6184 O   0  0  0  0  0  0  0  0  0  0  0  0
    9.3130   -1.1729    0.0441 N   0  0  0  0  0  0  0  0  0  0  0  0
    8.5333   -2.1445    0.7360 C   0  0  0  0  0  0  0  0  0  0  0  0
    7.0894   -1.8246    0.9138 C   0  0  0  0  0  0  0  0  0  0  0  0
    6.3905   -1.6444   -0.3066 O   0  0  0  0  0  0  0  0  0  0  0  0
    5.0456   -1.3520   -0.2632 N   0  0  0  0  0  0  0  0  0  0  0  0
    4.5042   -0.6415   -1.1908 C   0  0  0  0  0  0  0  0  0  0  0  0
    5.1284   -0.0517   -2.3667 C   0  0  0  0  0  0  0  0  0  0  0  0
    6.3618   -0.1372   -2.6893 O   0  0  0  0  0  0  0  0  0  0  0  0
    4.0949    0.6238   -3.0618 N   0  0  0  0  0  0  0  0  0  0  0  0
    2.8739    0.4578   -2.3412 C   0  0  0  0  0  0  0  0  0  0  0  0
    1.5928    0.9006   -2.5741 C   0  0  0  0  0  0  0  0  0  0  0  0
    0.5458    0.5935   -1.6939 C   0  0  0  0  0  0  0  0  0  0  0  0
    0.7160   -0.1544   -0.5585 C   0  0  0  0  0  0  0  0  0  0  0  0
   -0.2604   -0.4955    0.3883 N   0  0  0  0  0  0  0  0  0  0  0  0
   -1.5579    0.0174    0.5098 C   0  0  0  0  0  0  0  0  0  0  0  0
   -2.3982   -0.4470    1.5127 C   0  0  0  0  0  0  0  0  0  0  0  0
   -3.6779    0.0389    1.6558 C   0  0  0  0  0  0  0  0  0  0  0  0
   -4.5293   -0.3889    2.7074 N   0  0  0  0  0  0  0  0  0  0  0  0
   -5.8623   -0.0486    2.9030 C   0  0  0  0  0  0  0  0  0  0  0  0
   -6.4216   -0.4453    3.9848 O   0  0  0  0  0  0  0  0  0  0  0  0
   -6.7323    0.7131    2.0306 C   0  0  0  0  0  0  0  0  0  0  0  0
   -6.9897    2.0203    2.3738 C   0  0  0  0  0  0  0  0  0  0  0  0
   -7.7700    2.7741    1.5270 C   0  0  0  0  0  0  0  0  0  0  0  0
   -8.2761    2.2213    0.3658 C   0  0  0  0  0  0  0  0  0  0  0  0
   -8.0243    0.9028    0.0093 C   0  0  0  0  0  0  0  0  0  0  0  0
   -8.5568    0.3539   -1.1429 C   0  0  0  0  0  0  0  0  0  0  0  0
   -8.3155   -0.9643   -1.4635 C   0  0  0  0  0  0  0  0  0  0  0  0
   -7.5301   -1.7381   -0.6155 C   0  0  0  0  0  0  0  0  0  0  0  0
   -7.0071   -1.1823    0.5237 C   0  0  0  0  0  0  0  0  0  0  0  0
   -7.2404    0.1547    0.8655 C   0  0  0  0  0  0  0  0  0  0  0  0
   -4.1325    0.9849    0.8099 N   0  0  0  0  0  0  0  0  0  0  0  0
   -3.3463    1.4412   -0.1531 C   0  0  0  0  0  0  0  0  0  0  0  0
   -2.1026    0.9550   -0.2761 N   0  0  0  0  0  0  0  0  0  0  0  0
    2.0380   -0.5927   -0.3493 C   0  0  0  0  0  0  0  0  0  0  0  0
    3.0648   -0.2935   -1.2106 C   0  0  0  0  0  0  0  0  0  0  0  0
   10.5865    1.9773    0.4363 H   0  0  0  0  0  0  0  0  0  0  0  0
    9.6479    1.4803   -1.0668 H   0  0  0  0  0  0  0  0  0  0  0  0
   11.1709    0.6411   -0.6087 H   0  0  0  0  0  0  0  0  0  0  0  0
    9.7960   -1.4557   -0.8457 H   0  0  0  0  0  0  0  0  0  0  0  0
    8.9599   -2.3161    1.7687 H   0  0  0  0  0  0  0  0  0  0  0  0
    8.6486   -3.1410    0.2323 H   0  0  0  0  0  0  0  0  0  0  0  0
    6.9656   -0.9750    1.5986 H   0  0  0  0  0  0  0  0  0  0  0  0
    6.6273   -2.7488    1.3809 H   0  0  0  0  0  0  0  0  0  0  0  0
    4.2305    1.1603   -3.9695 H   0  0  0  0  0  0  0  0  0  0  0  0
    1.3863    1.4945   -3.4476 H   0  0  0  0  0  0  0  0  0  0  0  0
   -0.4521    0.9595   -1.9354 H   0  0  0  0  0  0  0  0  0  0  0  0
    0.0200   -1.2430    1.1008 H   0  0  0  0  0  0  0  0  0  0  0  0
   -2.0312   -1.2023    2.1875 H   0  0  0  0  0  0  0  0  0  0  0  0
   -4.0337   -0.9744    3.4487 H   0  0  0  0  0  0  0  0  0  0  0  0
   -6.5763    2.4429    3.3026 H   0  0  0  0  0  0  0  0  0  0  0  0
   -7.9639    3.7949    1.8060 H   0  0  0  0  0  0  0  0  0  0  0  0
   -8.8945    2.8030   -0.3176 H   0  0  0  0  0  0  0  0  0  0  0  0
   -9.1661    0.9773   -1.7887 H   0  0  0  0  0  0  0  0  0  0  0  0
   -8.7537   -1.3513   -2.3784 H   0  0  0  0  0  0  0  0  0  0  0  0
   -7.3732   -2.7714   -0.9138 H   0  0  0  0  0  0  0  0  0  0  0  0
   -6.4010   -1.8014    1.1665 H   0  0  0  0  0  0  0  0  0  0  0  0
   -3.7500    2.2086   -0.8230 H   0  0  0  0  0  0  0  0  0  0  0  0
    2.2390   -1.1872    0.5292 H   0  0  0  0  0  0  0  0  0  0  0  0
  1  2  1  0
  2  3  2  0
  2  4  1  0
  4  5  1  0
  5  6  1  0
  6  7  1  0
  7  8  1  0
  8  9  2  0
  9 10  1  0
 10 11  2  0
 10 12  1  0
 12 13  1  0
 13 14  2  0
 14 15  1  0
 15 16  2  0
 16 17  1  0
 17 18  1  0
 18 19  2  0
 19 20  1  0
 20 21  1  0
 21 22  1  0
 22 23  2  0
 22 24  1  0
 24 25  2  0
 25 26  1  0
 26 27  2  0
 27 28  1  0
 28 29  2  0
 29 30  1  0
 30 31  2  0
 31 32  1  0
 32 33  2  0
 20 34  2  0
 34 35  1  0
 35 36  2  0
 16 37  1  0
 37 38  2  0
 38  9  1  0
 38 13  1  0
 36 18  1  0
 33 24  1  0
 33 28  1  0
  1 39  1  0
  1 40  1  0
  1 41  1  0
  4 42  1  0
  5 43  1  0
  5 44  1  0
  6 45  1  0
  6 46  1  0
 12 47  1  0
 14 48  1  0
 15 49  1  0
 17 50  1  0
 19 51  1  0
 21 52  1  0
 25 53  1  0
 26 54  1  0
 27 55  1  0
 29 56  1  0
 30 57  1  0
 31 58  1  0
 32 59  1  0
 35 60  1  0
 37 61  1  0
M  END
$$$$
[H]c1nc(N([H])c2c([H])c([H])c([H])c(C(=O)c3c([H])c([H])c([H])c([H])c3[H])c2[H])c2nc(C([H])([H])[H])c([H])n2n1
     RDKit          3D

 40 43  0  0  0  0  0  0  0  0999 V2000
   -6.7320    2.0517    0.5082 C   0  0  0  0  0  0  0  0  0  0  0  0
   -5.8546    0.8555    0.2767 C   0  0  0  0  0  0  0  0  0  0  0  0
   -6.2920   -0.4008   -0.0717 C   0  0  0  0  0  0  0  0  0  0  0  0
   -5.2068   -1.2027   -0.1746 N   0  0  0  0  0  0  0  0  0  0  0  0
   -5.0734   -2.4780   -0.4649 N   0  0  0  0  0  0  0  0  0  0  0  0
   -3.8426   -3.0268   -0.4813 C   0  0  0  0  0  0  0  0  0  0  0  0
   -2.7584   -2.2646   -0.2008 N   0  0  0  0  0  0  0  0  0  0  0  0
   -2.8303   -0.9640    0.1007 C   0  0  0  0  0  0  0  0  0  0  0  0
   -1.7311   -0.1145    0.3555 N   0  0  0  0  0  0  0  0  0  0  0  0
   -0.3590   -0.5572    0.4357 C   0  0  0  0  0  0  0  0  0  0  0  0
   -0.0352   -1.8151    0.8797 C   0  0  0  0  0  0  0  0  0  0  0  0
    1.2903   -2.1799    0.9108 C   0  0  0  0  0  0  0  0  0  0  0  0
    2.3240   -1.3113    0.5041 C   0  0  0  0  0  0  0  0  0  0  0  0
    2.0231   -0.0645    0.0602 C   0  0  0  0  0  0  0  0  0  0  0  0
    0.6568    0.2706    0.0443 C   0  0  0  0  0  0  0  0  0  0  0  0
    2.9876    0.9075   -0.4065 C   0  0  0  0  0  0  0  0  0  0  0  0
    2.5003    1.9387   -1.0621 O   0  0  0  0  0  0  0  0  0  0  0  0
    4.4119    0.9671   -0.2852 C   0  0  0  0  0  0  0  0  0  0  0  0
    5.0340    2.2266   -0.1382 C   0  0  0  0  0  0  0  0  0  0  0  0
    6.3770    2.4170   -0.0450 C   0  0  0  0  0  0  0  0  0  0  0  0
    7.2098    1.3050   -0.0964 C   0  0  0  0  0  0  0  0  0  0  0  0
    6.6727    0.0494   -0.2390 C   0  0  0  0  0  0  0  0  0  0  0  0
    5.2806   -0.0892   -0.3319 C   0  0  0  0  0  0  0  0  0  0  0  0
   -4.1287   -0.4239    0.1102 C   0  0  0  0  0  0  0  0  0  0  0  0
   -4.5111    0.8167    0.3835 N   0  0  0  0  0  0  0  0  0  0  0  0
   -7.1884    2.4265   -0.4325 H   0  0  0  0  0  0  0  0  0  0  0  0
   -6.0949    2.8246    0.9689 H   0  0  0  0  0  0  0  0  0  0  0  0
   -7.5557    1.8031    1.2381 H   0  0  0  0  0  0  0  0  0  0  0  0
   -7.3396   -0.6559   -0.2256 H   0  0  0  0  0  0  0  0  0  0  0  0
   -3.6654   -4.0791   -0.7154 H   0  0  0  0  0  0  0  0  0  0  0  0
   -1.8838    0.9081    0.5004 H   0  0  0  0  0  0  0  0  0  0  0  0
   -0.7621   -2.5216    1.2143 H   0  0  0  0  0  0  0  0  0  0  0  0
    1.6136   -3.1726    1.2557 H   0  0  0  0  0  0  0  0  0  0  0  0
    3.3250   -1.6514    0.5797 H   0  0  0  0  0  0  0  0  0  0  0  0
    0.4109    1.2666   -0.3084 H   0  0  0  0  0  0  0  0  0  0  0  0
    4.3758    3.0778   -0.1000 H   0  0  0  0  0  0  0  0  0  0  0  0
    6.7947    3.4216    0.0651 H   0  0  0  0  0  0  0  0  0  0  0  0
    8.2886    1.4058   -0.0236 H   0  0  0  0  0  0  0  0  0  0  0  0
    7.2881   -0.8417   -0.2773 H   0  0  0  0  0  0  0  0  0  0  0  0
    4.9803   -1.1254   -0.4907 H   0  0  0  0  0  0  0  0  0  0  0  0
  1  2  1  0
  2  3  2  0
  3  4  1  0
  4  5  1  0
  5  6  2  0
  6  7  1  0
  7  8  2  0
  8  9  1  0
  9 10  1  0
 10 11  2  0
 11 12  1  0
 12 13  2  0
 13 14  1  0
 14 15  2  0
 14 16  1  0
 16 17  2  0
 16 18  1  0
 18 19  2  0
 19 20  1  0
 20 21  2  0
 21 22  1  0
 22 23  2  0
  8 24  1  0
 24 25  2  0
 25  2  1  0
 24  4  1  0
 15 10  1  0
 23 18  1  0
  1 26  1  0
  1 27  1  0
  1 28  1  0
  3 29  1  0
  6 30  1  0
  9 31  1  0
 11 32  1  0
 12 33  1  0
 13 34  1  0
 15 35  1  0
 19 36  1  0
 20 37  1  0
 21 38  1  0
 22 39  1  0
 23 40  1  0
M  END
$$$$
[H]OC([H])([H])C1=C([H])C2=C(C([H])=C3C(=C1[H])[C@@]([H])(C([H])([H])[H])c1c([H])c(F)c([H])c([H])c13)c1c([H])c(C#N)c(F)c([H])c1C([H])([H])C2([H])[H]
     RDKit          3D

 49 53  0  0  0  0  0  0  0  0999 V2000
   -3.8677   -0.5396   -1.2897 C   0  0  0  0  0  0  0  0  0  0  0  0
   -3.3705   -0.4045    0.1549 C   0  0  1  0  0  0  0  0  0  0  0  0
   -2.9960   -1.7956    0.5730 C   0  0  0  0  0  0  0  0  0  0  0  0
   -3.8233   -2.8854    0.8772 C   0  0  0  0  0  0  0  0  0  0  0  0
   -3.2391   -4.1050    1.1218 C   0  0  0  0  0  0  0  0  0  0  0  0
   -4.0094   -5.2070    1.4253 F   0  0  0  0  0  0  0  0  0  0  0  0
   -1.8713   -4.1962    1.0561 C   0  0  0  0  0  0  0  0  0  0  0  0
   -1.0363   -3.1315    0.7592 C   0  0  0  0  0  0  0  0  0  0  0  0
   -1.6249   -1.8874    0.5114 C   0  0  0  0  0  0  0  0  0  0  0  0
   -1.0320   -0.5736    0.2894 C   0  0  0  0  0  0  0  0  0  0  0  0
    0.2816   -0.5033    0.1968 C   0  0  0  0  0  0  0  0  0  0  0  0
    1.2493    0.5466   -0.0204 C   0  0  0  0  0  0  0  0  0  0  0  0
    1.2165    1.8899    0.0232 C   0  0  0  0  0  0  0  0  0  0  0  0
    2.3371    2.7789   -0.2325 C   0  0  0  0  0  0  0  0  0  0  0  0
    3.6391    2.1528   -0.4643 C   0  0  0  0  0  0  0  0  0  0  0  0
    3.6135    0.6775   -0.5804 C   0  0  0  0  0  0  0  0  0  0  0  0
    4.8043    0.0480   -0.9441 C   0  0  0  0  0  0  0  0  0  0  0  0
    4.8752   -1.3205   -1.0641 C   0  0  0  0  0  0  0  0  0  0  0  0
    6.0370   -1.9448   -1.4187 F   0  0  0  0  0  0  0  0  0  0  0  0
    3.7839   -2.1146   -0.8331 C   0  0  0  0  0  0  0  0  0  0  0  0
    2.5883   -1.4909   -0.4698 C   0  0  0  0  0  0  0  0  0  0  0  0
    2.4992   -0.1222   -0.3433 C   0  0  0  0  0  0  0  0  0  0  0  0
    3.7834   -3.5387   -0.9377 C   0  0  0  0  0  0  0  0  0  0  0  0
    3.8048   -4.7138   -1.0295 N   0  0  0  0  0  0  0  0  0  0  0  0
    0.0785    2.8098    0.2708 C   0  0  0  0  0  0  0  0  0  0  0  0
   -1.2238    2.8019    0.3733 C   0  0  0  0  0  0  0  0  0  0  0  0
   -1.8536    4.1237    0.6466 C   0  0  0  0  0  0  0  0  0  0  0  0
   -0.8632    5.0859    0.7300 O   0  0  0  0  0  0  0  0  0  0  0  0
   -2.1967    1.7123    0.2864 C   0  0  0  0  0  0  0  0  0  0  0  0
   -2.1484    0.3856    0.2357 C   0  0  0  0  0  0  0  0  0  0  0  0
   -2.9843   -0.5227   -1.9733 H   0  0  0  0  0  0  0  0  0  0  0  0
   -4.3334   -1.5450   -1.4328 H   0  0  0  0  0  0  0  0  0  0  0  0
   -4.5119    0.2936   -1.5660 H   0  0  0  0  0  0  0  0  0  0  0  0
   -4.2047   -0.0121    0.7693 H   0  0  0  0  0  0  0  0  0  0  0  0
   -4.8800   -2.7517    0.9134 H   0  0  0  0  0  0  0  0  0  0  0  0
   -1.4398   -5.1891    1.2562 H   0  0  0  0  0  0  0  0  0  0  0  0
    0.0234   -3.2638    0.7255 H   0  0  0  0  0  0  0  0  0  0  0  0
    0.7038   -1.4395    0.3803 H   0  0  0  0  0  0  0  0  0  0  0  0
    2.0654    3.4667   -1.0703 H   0  0  0  0  0  0  0  0  0  0  0  0
    2.4168    3.4548    0.6749 H   0  0  0  0  0  0  0  0  0  0  0  0
    4.3908    2.4399    0.3357 H   0  0  0  0  0  0  0  0  0  0  0  0
    4.1049    2.6101   -1.3919 H   0  0  0  0  0  0  0  0  0  0  0  0
    5.7108    0.6045   -1.1443 H   0  0  0  0  0  0  0  0  0  0  0  0
    1.7590   -2.1254   -0.3337 H   0  0  0  0  0  0  0  0  0  0  0  0
    0.4554    3.8143    0.4120 H   0  0  0  0  0  0  0  0  0  0  0  0
   -2.6647    4.3659   -0.0457 H   0  0  0  0  0  0  0  0  0  0  0  0
   -2.3167    4.0400    1.6625 H   0  0  0  0  0  0  0  0  0  0  0  0
   -0.5338    5.1480    1.6685 H   0  0  0  0  0  0  0  0  0  0  0  0
   -3.1969    2.0731    0.2562 H   0  0  0  0  0  0  0  0  0  0  0  0
  1  2  1  0
  2  3  1  0
  3  4  2  0
  4  5  1  0
  5  6  1  0
  5  7  2  0
  7  8  1  0
  8  9  2  0
  9 10  1  0
 10 11  2  0
 11 12  1  0
 12 13  2  0
 13 14  1  0
 14 15  1  0
 15 16  1  0
 16 17  2  0
 17 18  1  0
 18 19  1  0
 18 20  2  0
 20 21  1  0
 21 22  2  0
 20 23  1  0
 23 24  3  0
 13 25  1  0
 25 26  2  0
 26 27  1  0
 27 28  1  0
 26 29  1  0
 29 30  2  0
 30  2  1  0
  9  3  1  0
 30 10  1  0
 22 12  1  0
 22 16  1  0
  1 31  1  0
  1 32  1  0
  1 33  1  0
  2 34  1  1
  4 35  1  0
  7 36  1  0
  8 37  1  0
 11 38  1  0
 14 39  1  0
 14 40  1  0
 15 41  1  0
 15 42  1  0
 17 43  1  0
 21 44  1  0
 25 45  1  0
 27 46  1  0
 27 47  1  0
 28 48  1  0
 29 49  1  0
M  END
$$$$
[H]Oc1c([H])c([H])c(C([H])([H])[C@]([H])(C(=O)N2C([H])([H])C([H])([H])[C@@]2([H])C(=O)N([H])[C@]([H])(C([H])=O)C([H])([H])C([H])([H])C([H])([H])N=C(N([H])[H])N([H])[H])N([H])C(=O)C([H])([H])OC([H])(c2c([H])c([H])c([H])c([H])c2[H])c2nnnn2[H])c([H])c1[H]
     RDKit          3D

 81 84  0  0  0  0  0  0  0  0999 V2000
   10.3791   -2.0438   -0.6812 N   0  0  0  0  0  0  0  0  0  0  0  0
    9.4220   -2.3380    0.3604 C   0  0  0  0  0  0  0  0  0  0  0  0
    9.6149   -3.4337    1.2212 N   0  0  0  0  0  0  0  0  0  0  0  0
    8.4186   -1.5850    0.4429 N   0  0  0  0  0  0  0  0  0  0  0  0
    7.3808   -1.6943    1.3955 C   0  0  0  0  0  0  0  0  0  0  0  0
    6.1128   -1.2729    0.7107 C   0  0  0  0  0  0  0  0  0  0  0  0
    6.1358    0.1307    0.2272 C   0  0  0  0  0  0  0  0  0  0  0  0
    4.8358    0.5393   -0.4927 C   0  0  2  0  0  0  0  0  0  0  0  0
    3.7270    0.3499    0.4224 N   0  0  0  0  0  0  0  0  0  0  0  0
    2.8966    1.4591    0.8530 C   0  0  0  0  0  0  0  0  0  0  0  0
    3.1531    2.5862    0.4133 O   0  0  0  0  0  0  0  0  0  0  0  0
    1.8026    1.2060    1.7699 C   0  0  2  0  0  0  0  0  0  0  0  0
    1.2667   -0.2730    1.7355 C   0  0  0  0  0  0  0  0  0  0  0  0
    0.0335    0.4942    2.2976 C   0  0  0  0  0  0  0  0  0  0  0  0
    0.4806    1.5134    1.2485 N   0  0  0  0  0  0  0  0  0  0  0  0
   -0.3285    2.0518    0.2422 C   0  0  0  0  0  0  0  0  0  0  0  0
    0.0789    2.4567   -0.8356 O   0  0  0  0  0  0  0  0  0  0  0  0
   -1.7891    2.0968    0.4933 C   0  0  1  0  0  0  0  0  0  0  0  0
   -2.3468    3.5174    0.5348 C   0  0  0  0  0  0  0  0  0  0  0  0
   -2.1021    4.3308   -0.6598 C   0  0  0  0  0  0  0  0  0  0  0  0
   -1.2126    5.3844   -0.5429 C   0  0  0  0  0  0  0  0  0  0  0  0
   -0.9238    6.1550   -1.6900 C   0  0  0  0  0  0  0  0  0  0  0  0
   -1.5197    5.8613   -2.8837 C   0  0  0  0  0  0  0  0  0  0  0  0
   -1.1639    6.6749   -3.9915 O   0  0  0  0  0  0  0  0  0  0  0  0
   -2.4006    4.8177   -2.9898 C   0  0  0  0  0  0  0  0  0  0  0  0
   -2.6655    4.0878   -1.8671 C   0  0  0  0  0  0  0  0  0  0  0  0
   -2.5342    1.2232   -0.2996 N   0  0  0  0  0  0  0  0  0  0  0  0
   -3.2427    0.3781   -1.0807 C   0  0  0  0  0  0  0  0  0  0  0  0
   -2.9897   -0.0082   -2.2375 O   0  0  0  0  0  0  0  0  0  0  0  0
   -4.4910   -0.2644   -0.4969 C   0  0  0  0  0  0  0  0  0  0  0  0
   -4.3629   -1.6729   -0.4565 O   0  0  0  0  0  0  0  0  0  0  0  0
   -5.4802   -2.1013    0.2675 C   0  0  0  0  0  0  0  0  0  0  0  0
   -6.3556   -3.0374   -0.3744 C   0  0  0  0  0  0  0  0  0  0  0  0
   -6.5976   -2.9611   -1.7255 C   0  0  0  0  0  0  0  0  0  0  0  0
   -7.5385   -3.7966   -2.2867 C   0  0  0  0  0  0  0  0  0  0  0  0
   -8.2932   -4.7421   -1.5328 C   0  0  0  0  0  0  0  0  0  0  0  0
   -8.0298   -4.8013   -0.1566 C   0  0  0  0  0  0  0  0  0  0  0  0
   -7.0915   -3.9703    0.3755 C   0  0  0  0  0  0  0  0  0  0  0  0
   -5.1190   -2.3748    1.6984 C   0  0  0  0  0  0  0  0  0  0  0  0
   -5.8921   -2.0386    2.7852 N   0  0  0  0  0  0  0  0  0  0  0  0
   -5.2609   -2.3984    3.8684 N   0  0  0  0  0  0  0  0  0  0  0  0
   -4.1188   -2.9574    3.5329 N   0  0  0  0  0  0  0  0  0  0  0  0
   -4.0297   -2.9412    2.2156 N   0  0  0  0  0  0  0  0  0  0  0  0
    4.6310   -0.1697   -1.6924 C   0  0  0  0  0  0  0  0  0  0  0  0
    4.2644   -1.1713   -2.1941 O   0  0  0  0  0  0  0  0  0  0  0  0
   11.1131   -1.3409   -0.4478 H   0  0  0  0  0  0  0  0  0  0  0  0
   10.3164   -2.5139   -1.5756 H   0  0  0  0  0  0  0  0  0  0  0  0
    9.5305   -4.3691    0.8017 H   0  0  0  0  0  0  0  0  0  0  0  0
    9.8296   -3.3312    2.2195 H   0  0  0  0  0  0  0  0  0  0  0  0
    7.2502   -2.7481    1.6815 H   0  0  0  0  0  0  0  0  0  0  0  0
    7.5373   -1.0450    2.2890 H   0  0  0  0  0  0  0  0  0  0  0  0
    5.9812   -1.9365   -0.2119 H   0  0  0  0  0  0  0  0  0  0  0  0
    5.2304   -1.4953    1.3343 H   0  0  0  0  0  0  0  0  0  0  0  0
    6.2477    0.7932    1.1601 H   0  0  0  0  0  0  0  0  0  0  0  0
    6.9515    0.3067   -0.4587 H   0  0  0  0  0  0  0  0  0  0  0  0
    4.8937    1.6628   -0.6086 H   0  0  0  0  0  0  0  0  0  0  0  0
    3.4650   -0.5787    0.7875 H   0  0  0  0  0  0  0  0  0  0  0  0
    1.8752    1.4942    2.8247 H   0  0  0  0  0  0  0  0  0  0  0  0
    1.0581   -0.5999    0.7073 H   0  0  0  0  0  0  0  0  0  0  0  0
    1.7369   -0.9382    2.4346 H   0  0  0  0  0  0  0  0  0  0  0  0
    0.2267    0.9042    3.2613 H   0  0  0  0  0  0  0  0  0  0  0  0
   -0.9071    0.0025    2.0634 H   0  0  0  0  0  0  0  0  0  0  0  0
   -1.8616    1.7441    1.5802 H   0  0  0  0  0  0  0  0  0  0  0  0
   -3.4653    3.3337    0.7275 H   0  0  0  0  0  0  0  0  0  0  0  0
   -2.0115    3.9625    1.4764 H   0  0  0  0  0  0  0  0  0  0  0  0
   -0.7188    5.7007    0.3794 H   0  0  0  0  0  0  0  0  0  0  0  0
   -0.2243    6.9876   -1.6057 H   0  0  0  0  0  0  0  0  0  0  0  0
   -0.4030    6.4227   -4.5767 H   0  0  0  0  0  0  0  0  0  0  0  0
   -2.8633    4.6566   -3.9967 H   0  0  0  0  0  0  0  0  0  0  0  0
   -3.3987    3.2745   -2.0304 H   0  0  0  0  0  0  0  0  0  0  0  0
   -1.4887    1.1442   -1.1559 H   0  0  0  0  0  0  0  0  0  0  0  0
   -5.3384    0.0352   -1.1321 H   0  0  0  0  0  0  0  0  0  0  0  0
   -4.6365    0.0246    0.5319 H   0  0  0  0  0  0  0  0  0  0  0  0
   -6.1228   -1.1286    0.4179 H   0  0  0  0  0  0  0  0  0  0  0  0
   -6.0474   -2.2661   -2.3805 H   0  0  0  0  0  0  0  0  0  0  0  0
   -7.7448   -3.7539   -3.3288 H   0  0  0  0  0  0  0  0  0  0  0  0
   -9.0120   -5.3542   -2.0111 H   0  0  0  0  0  0  0  0  0  0  0  0
   -8.5903   -5.4967    0.4363 H   0  0  0  0  0  0  0  0  0  0  0  0
   -6.8849   -4.0512    1.4442 H   0  0  0  0  0  0  0  0  0  0  0  0
   -3.2103   -3.3140    1.6872 H   0  0  0  0  0  0  0  0  0  0  0  0
    4.9317    0.5446   -2.6693 H   0  0  0  0  0  0  0  0  0  0  0  0
  1  2  1  0
  2  3  1  0
  2  4  2  3
  4  5  1  0
  5  6  1  0
  6  7  1  0
  7  8  1  0
  8  9  1  0
  9 10  1  0
 10 11  2  0
 10 12  1  0
 12 13  1  0
 13 14  1  0
 14 15  1  0
 15 16  1  0
 16 17  2  0
 16 18  1  0
 18 19  1  0
 19 20  1  0
 20 21  2  0
 21 22  1  0
 22 23  2  0
 23 24  1  0
 23 25  1  0
 25 26  2  0
 18 27  1  0
 27 28  1  0
 28 29  2  0
 28 30  1  0
 30 31  1  0
 31 32  1  0
 32 33  1  0
 33 34  2  0
 34 35  1  0
 35 36  2  0
 36 37  1  0
 37 38  2  0
 32 39  1  0
 39 40  2  0
 40 41  1  0
 41 42  2  0
 42 43  1  0
  8 44  1  0
 44 45  2  0
 15 12  1  0
 26 20  1  0
 38 33  1  0
 43 39  1  0
  1 46  1  0
  1 47  1  0
  3 48  1  0
  3 49  1  0
  5 50  1  0
  5 51  1  0
  6 52  1  0
  6 53  1  0
  7 54  1  0
  7 55  1  0
  8 56  1  6
  9 57  1  0
 12 58  1  1
 13 59  1  0
 13 60  1  0
 14 61  1  0
 14 62  1  0
 18 63  1  1
 19 64  1  0
 19 65  1  0
 21 66  1  0
 22 67  1  0
 24 68  1  0
 25 69  1  0
 26 70  1  0
 27 71  1  0
 30 72  1  0
 30 73  1  0
 32 74  1  0
 34 75  1  0
 35 76  1  0
 36 77  1  0
 37 78  1  0
 38 79  1  0
 43 80  1  0
 44 81  1  0
M  END
$$$$
[H]N=C(c1c([H])c([H])c(OC(=O)c2c([H])c([H])c3c([H])c(C([H])([H])C([H])([H])N=C(N([H])[H])N([H])[H])c([H])c([H])c3c2[H])c(F)c1[H])N([H])[H]
     RDKit          3D

 49 51  0  0  0  0  0  0  0  0999 V2000
   -6.3022   -0.5747    2.3512 N   0  0  0  0  0  0  0  0  0  0  0  0
   -6.7142   -0.2105    1.0456 C   0  0  0  0  0  0  0  0  0  0  0  0
   -7.9275   -0.6671    0.4878 N   0  0  0  0  0  0  0  0  0  0  0  0
   -5.9407    0.5649    0.3601 N   0  0  0  0  0  0  0  0  0  0  0  0
   -6.3077    0.9738   -0.9846 C   0  0  0  0  0  0  0  0  0  0  0  0
   -5.5219    0.1262   -1.9746 C   0  0  0  0  0  0  0  0  0  0  0  0
   -4.0621    0.3037   -1.7941 C   0  0  0  0  0  0  0  0  0  0  0  0
   -3.3277    1.2647   -2.4568 C   0  0  0  0  0  0  0  0  0  0  0  0
   -1.9680    1.4309   -2.2894 C   0  0  0  0  0  0  0  0  0  0  0  0
   -1.2995    0.5944   -1.4134 C   0  0  0  0  0  0  0  0  0  0  0  0
    0.0649    0.7237   -1.2131 C   0  0  0  0  0  0  0  0  0  0  0  0
    0.7042   -0.1193   -0.3382 C   0  0  0  0  0  0  0  0  0  0  0  0
   -0.0415   -1.0726    0.3153 C   0  0  0  0  0  0  0  0  0  0  0  0
   -1.3903   -1.2289    0.1419 C   0  0  0  0  0  0  0  0  0  0  0  0
   -2.0279   -0.3796   -0.7381 C   0  0  0  0  0  0  0  0  0  0  0  0
   -3.3847   -0.5260   -0.9219 C   0  0  0  0  0  0  0  0  0  0  0  0
    2.1370    0.0370   -0.1454 C   0  0  0  0  0  0  0  0  0  0  0  0
    2.7833    0.9209   -0.7617 O   0  0  0  0  0  0  0  0  0  0  0  0
    2.8727   -0.7652    0.7163 O   0  0  0  0  0  0  0  0  0  0  0  0
    4.2421   -0.5887    0.8770 C   0  0  0  0  0  0  0  0  0  0  0  0
    5.1166   -1.2831    0.0528 C   0  0  0  0  0  0  0  0  0  0  0  0
    6.4788   -1.1153    0.2036 C   0  0  0  0  0  0  0  0  0  0  0  0
    6.9738   -0.2550    1.1763 C   0  0  0  0  0  0  0  0  0  0  0  0
    6.1066    0.4351    1.9953 C   0  0  0  0  0  0  0  0  0  0  0  0
    4.7470    0.2625    1.8389 C   0  0  0  0  0  0  0  0  0  0  0  0
    3.8399    0.9119    2.6125 F   0  0  0  0  0  0  0  0  0  0  0  0
    8.3963   -0.0972    1.3138 C   0  0  0  0  0  0  0  0  0  0  0  0
    9.3086   -0.8107    0.4666 N   0  0  0  0  0  0  0  0  0  0  0  0
    8.8695    0.6950    2.2089 N   0  0  0  0  0  0  0  0  0  0  0  0
   -6.9932   -0.7432    3.1212 H   0  0  0  0  0  0  0  0  0  0  0  0
   -5.2697   -0.6818    2.5637 H   0  0  0  0  0  0  0  0  0  0  0  0
   -7.9248   -1.5025   -0.1286 H   0  0  0  0  0  0  0  0  0  0  0  0
   -8.8041   -0.1671    0.6977 H   0  0  0  0  0  0  0  0  0  0  0  0
   -6.0075    2.0271   -1.1662 H   0  0  0  0  0  0  0  0  0  0  0  0
   -7.3801    0.8377   -1.1642 H   0  0  0  0  0  0  0  0  0  0  0  0
   -5.7802    0.5239   -2.9932 H   0  0  0  0  0  0  0  0  0  0  0  0
   -5.7596   -0.9381   -1.8970 H   0  0  0  0  0  0  0  0  0  0  0  0
   -3.8452    1.9247   -3.1456 H   0  0  0  0  0  0  0  0  0  0  0  0
   -1.3972    2.1933   -2.8178 H   0  0  0  0  0  0  0  0  0  0  0  0
    0.5979    1.5064   -1.7676 H   0  0  0  0  0  0  0  0  0  0  0  0
    0.4461   -1.7614    1.0223 H   0  0  0  0  0  0  0  0  0  0  0  0
   -1.9405   -1.9911    0.6749 H   0  0  0  0  0  0  0  0  0  0  0  0
   -3.9226   -1.2784   -0.3947 H   0  0  0  0  0  0  0  0  0  0  0  0
    4.7503   -1.9573   -0.7102 H   0  0  0  0  0  0  0  0  0  0  0  0
    7.1445   -1.6719   -0.4560 H   0  0  0  0  0  0  0  0  0  0  0  0
    6.4348    1.1148    2.7658 H   0  0  0  0  0  0  0  0  0  0  0  0
   10.2261   -1.1019    0.8606 H   0  0  0  0  0  0  0  0  0  0  0  0
    9.0943   -1.0498   -0.5230 H   0  0  0  0  0  0  0  0  0  0  0  0
    9.9051    0.8241    2.3253 H   0  0  0  0  0  0  0  0  0  0  0  0
  1  2  1  0
  2  3  1  0
  2  4  2  3
  4  5  1  0
  5  6  1  0
  6  7  1  0
  7  8  2  0
  8  9  1  0
  9 10  2  0
 10 11  1  0
 11 12  2  0
 12 13  1  0
 13 14  2  0
 14 15  1  0
 15 16  2  0
 12 17  1  0
 17 18  2  0
 17 19  1  0
 19 20  1  0
 20 21  2  0
 21 22  1  0
 22 23  2  0
 23 24  1  0
 24 25  2  0
 25 26  1  0
 23 27  1  0
 27 28  1  0
 27 29  2  3
 16  7  1  0
 25 20  1  0
 15 10  1  0
  1 30  1  0
  1 31  1  0
  3 32  1  0
  3 33  1  0
  5 34  1  0
  5 35  1  0
  6 36  1  0
  6 37  1  0
  8 38  1  0
  9 39  1  0
 11 40  1  0
 13 41  1  0
 14 42  1  0
 16 43  1  0
 21 44  1  0
 22 45  1  0
 24 46  1  0
 28 47  1  0
 28 48  1  0
 29 49  1  0
M  END
$$$$
[H]OC(=O)c1nc(-c2nc3c(c([H])c2[H])c2c([H])c([H])c([H])c([H])c2n3C([H])([H])c2c([H])c([H])c([H])c([H])c2C(F)(F)F)c([H])c([H])c1[H]
     RDKit          3D

 49 53  0  0  0  0  0  0  0  0999 V2000
    3.5866    4.7893    2.7930 O   0  0  0  0  0  0  0  0  0  0  0  0
    2.7595    3.7701    2.3655 C   0  0  0  0  0  0  0  0  0  0  0  0
    1.5057    3.8550    2.4035 O   0  0  0  0  0  0  0  0  0  0  0  0
    3.3586    2.5519    1.8516 C   0  0  0  0  0  0  0  0  0  0  0  0
    4.7307    2.4396    1.8018 C   0  0  0  0  0  0  0  0  0  0  0  0
    5.3134    1.3014    1.3216 C   0  0  0  0  0  0  0  0  0  0  0  0
    4.4689    0.2856    0.8956 C   0  0  0  0  0  0  0  0  0  0  0  0
    3.1081    0.3874    0.9410 C   0  0  0  0  0  0  0  0  0  0  0  0
    2.5822    1.5269    1.4217 N   0  0  0  0  0  0  0  0  0  0  0  0
    2.1972   -0.6600    0.5001 C   0  0  0  0  0  0  0  0  0  0  0  0
    2.6047   -1.8733   -0.0112 C   0  0  0  0  0  0  0  0  0  0  0  0
    1.7185   -2.8460   -0.4203 C   0  0  0  0  0  0  0  0  0  0  0  0
    0.3706   -2.5910   -0.3121 C   0  0  0  0  0  0  0  0  0  0  0  0
   -0.7718   -3.3130   -0.6147 C   0  0  0  0  0  0  0  0  0  0  0  0
   -0.8846   -4.5900   -1.1189 C   0  0  0  0  0  0  0  0  0  0  0  0
   -2.1441   -5.1266   -1.3066 C   0  0  0  0  0  0  0  0  0  0  0  0
   -3.2266   -4.3382   -0.9720 C   0  0  0  0  0  0  0  0  0  0  0  0
   -3.1140   -3.0747   -0.4734 C   0  0  0  0  0  0  0  0  0  0  0  0
   -1.8459   -2.5127   -0.2773 C   0  0  0  0  0  0  0  0  0  0  0  0
   -1.4144   -1.3458    0.2110 N   0  0  0  0  0  0  0  0  0  0  0  0
   -2.1628   -0.2039    0.6080 C   0  0  0  0  0  0  0  0  0  0  0  0
   -2.1542    1.0343   -0.1290 C   0  0  0  0  0  0  0  0  0  0  0  0
   -1.3089    2.0385    0.4346 C   0  0  0  0  0  0  0  0  0  0  0  0
   -1.1746    3.2874   -0.1040 C   0  0  0  0  0  0  0  0  0  0  0  0
   -1.8586    3.6331   -1.2264 C   0  0  0  0  0  0  0  0  0  0  0  0
   -2.6742    2.6752   -1.7747 C   0  0  0  0  0  0  0  0  0  0  0  0
   -2.8341    1.3821   -1.2458 C   0  0  0  0  0  0  0  0  0  0  0  0
   -3.7426    0.4914   -1.9652 C   0  0  0  0  0  0  0  0  0  0  0  0
   -4.3710    1.2655   -2.9946 F   0  0  0  0  0  0  0  0  0  0  0  0
   -4.8024   -0.0014   -1.3025 F   0  0  0  0  0  0  0  0  0  0  0  0
   -3.0731   -0.4277   -2.7985 F   0  0  0  0  0  0  0  0  0  0  0  0
   -0.0494   -1.3909    0.1934 C   0  0  0  0  0  0  0  0  0  0  0  0
    0.8493   -0.4958    0.5700 N   0  0  0  0  0  0  0  0  0  0  0  0
    3.7876    5.6288    2.2511 H   0  0  0  0  0  0  0  0  0  0  0  0
    5.3663    3.2673    2.1486 H   0  0  0  0  0  0  0  0  0  0  0  0
    6.3924    1.2074    1.2802 H   0  0  0  0  0  0  0  0  0  0  0  0
    4.9272   -0.6087    0.5186 H   0  0  0  0  0  0  0  0  0  0  0  0
    3.6829   -2.0631   -0.0917 H   0  0  0  0  0  0  0  0  0  0  0  0
    2.0411   -3.7984   -0.8216 H   0  0  0  0  0  0  0  0  0  0  0  0
    0.0222   -5.1368   -1.3543 H   0  0  0  0  0  0  0  0  0  0  0  0
   -2.2251   -6.1294   -1.7034 H   0  0  0  0  0  0  0  0  0  0  0  0
   -4.2131   -4.7430   -1.1123 H   0  0  0  0  0  0  0  0  0  0  0  0
   -3.9800   -2.4930   -0.2121 H   0  0  0  0  0  0  0  0  0  0  0  0
   -3.2477   -0.5401    0.8270 H   0  0  0  0  0  0  0  0  0  0  0  0
   -1.8503   -0.0195    1.6875 H   0  0  0  0  0  0  0  0  0  0  0  0
   -0.7455    1.8504    1.3381 H   0  0  0  0  0  0  0  0  0  0  0  0
   -0.5209    4.0494    0.3386 H   0  0  0  0  0  0  0  0  0  0  0  0
   -1.7654    4.6227   -1.6721 H   0  0  0  0  0  0  0  0  0  0  0  0
   -3.2185    2.9824   -2.6874 H   0  0  0  0  0  0  0  0  0  0  0  0
  1  2  1  0
  2  3  2  0
  2  4  1  0
  4  5  2  0
  5  6  1  0
  6  7  2  0
  7  8  1  0
  8  9  2  0
  8 10  1  0
 10 11  2  0
 11 12  1  0
 12 13  2  0
 13 14  1  0
 14 15  2  0
 15 16  1  0
 16 17  2  0
 17 18  1  0
 18 19  2  0
 19 20  1  0
 20 21  1  0
 21 22  1  0
 22 23  2  0
 23 24  1  0
 24 25  2  0
 25 26  1  0
 26 27  2  0
 27 28  1  0
 28 29  1  0
 28 30  1  0
 28 31  1  0
 20 32  1  0
 32 33  2  0
  9  4  1  0
 33 10  1  0
 32 13  1  0
 19 14  1  0
 27 22  1  0
  1 34  1  0
  5 35  1  0
  6 36  1  0
  7 37  1  0
 11 38  1  0
 12 39  1  0
 15 40  1  0
 16 41  1  0
 17 42  1  0
 18 43  1  0
 21 44  1  0
 21 45  1  0
 23 46  1  0
 24 47  1  0
 25 48  1  0
 26 49  1  0
M  END
$$$$
[H]OC(=O)[C@]1([H])C([H])([H])N([H])[C@@]([H])([C@]2([H])C([H])([H])C([H])([H])[C@@]([H])(OC([H])([H])C([H])([H])OC([H])([H])[C@@]3([H])[C@@]4([H])C([H])([H])C([H])([H])[C@@]([H])(O[H])[C@]5([H])C([H])([H])[C@@]([H])(O[H])[C@]5([H])C([H])([H])C([H])([H])[C@@]43[H])C([H])([H])C2([H])[H])C([H])([H])[C@]1([H])O[H]
     RDKit          3D

 80 84  0  0  0  0  0  0  0  0999 V2000
   10.5135    0.2145   -0.0194 O   0  0  0  0  0  0  0  0  0  0  0  0
    9.4302    0.4851    0.8026 C   0  0  0  0  0  0  0  0  0  0  0  0
    9.3047   -0.1567    1.8703 O   0  0  0  0  0  0  0  0  0  0  0  0
    8.4543    1.5112    0.4125 C   0  0  2  0  0  0  0  0  0  0  0  0
    7.3559    1.6485    1.4408 C   0  0  0  0  0  0  0  0  0  0  0  0
    6.5373    0.4759    1.5332 N   0  0  0  0  0  0  0  0  0  0  0  0
    6.2824   -0.1295    0.2343 C   0  0  2  0  0  0  0  0  0  0  0  0
    6.4340    0.8807   -0.8520 C   0  0  0  0  0  0  0  0  0  0  0  0
    7.9107    1.2543   -0.9583 C   0  0  2  0  0  0  0  0  0  0  0  0
    8.6515    0.2439   -1.5640 O   0  0  0  0  0  0  0  0  0  0  0  0
    4.9645   -0.8349    0.2714 C   0  0  1  0  0  0  0  0  0  0  0  0
    3.8216    0.1062    0.5798 C   0  0  0  0  0  0  0  0  0  0  0  0
    2.5932   -0.7890    0.7564 C   0  0  0  0  0  0  0  0  0  0  0  0
    2.3222   -1.4499   -0.5736 C   0  0  1  0  0  0  0  0  0  0  0  0
    3.4393   -2.3714   -0.9716 C   0  0  0  0  0  0  0  0  0  0  0  0
    4.7033   -1.5076   -1.0341 C   0  0  0  0  0  0  0  0  0  0  0  0
    1.0882   -1.9972   -0.5565 O   0  0  0  0  0  0  0  0  0  0  0  0
    0.1572   -1.4555   -1.4091 C   0  0  0  0  0  0  0  0  0  0  0  0
   -1.1764   -2.1630   -1.2852 C   0  0  0  0  0  0  0  0  0  0  0  0
   -1.7092   -2.0877   -0.0129 O   0  0  0  0  0  0  0  0  0  0  0  0
   -1.9425   -0.7889    0.4210 C   0  0  0  0  0  0  0  0  0  0  0  0
   -2.9013   -0.0408   -0.4472 C   0  0  1  0  0  0  0  0  0  0  0  0
   -4.2804   -0.4827   -0.6720 C   0  0  1  0  0  0  0  0  0  0  0  0
   -4.8647   -1.7120   -0.0416 C   0  0  0  0  0  0  0  0  0  0  0  0
   -5.8981   -1.4040    1.0199 C   0  0  0  0  0  0  0  0  0  0  0  0
   -7.1289   -0.7208    0.4184 C   0  0  1  0  0  0  0  0  0  0  0  0
   -8.2196   -1.5982    0.6335 O   0  0  0  0  0  0  0  0  0  0  0  0
   -7.4230    0.5280    1.1393 C   0  0  2  0  0  0  0  0  0  0  0  0
   -8.8432    1.0465    1.0500 C   0  0  0  0  0  0  0  0  0  0  0  0
   -8.2979    2.2920    0.3886 C   0  0  1  0  0  0  0  0  0  0  0  0
   -8.6024    3.4832    1.0163 O   0  0  0  0  0  0  0  0  0  0  0  0
   -6.8712    1.7946    0.6634 C   0  0  2  0  0  0  0  0  0  0  0  0
   -6.0805    1.8333   -0.5846 C   0  0  0  0  0  0  0  0  0  0  0  0
   -4.5703    1.9103   -0.3147 C   0  0  0  0  0  0  0  0  0  0  0  0
   -4.0356    0.6345    0.2406 C   0  0  2  0  0  0  0  0  0  0  0  0
   10.8816    0.9203   -0.6419 H   0  0  0  0  0  0  0  0  0  0  0  0
    8.9872    2.4868    0.3886 H   0  0  0  0  0  0  0  0  0  0  0  0
    6.7300    2.5360    1.2532 H   0  0  0  0  0  0  0  0  0  0  0  0
    7.8652    1.7810    2.4256 H   0  0  0  0  0  0  0  0  0  0  0  0
    6.8227   -0.2027    2.2467 H   0  0  0  0  0  0  0  0  0  0  0  0
    7.0932   -0.8877    0.0980 H   0  0  0  0  0  0  0  0  0  0  0  0
    6.1068    0.5159   -1.8237 H   0  0  0  0  0  0  0  0  0  0  0  0
    5.9149    1.8232   -0.5407 H   0  0  0  0  0  0  0  0  0  0  0  0
    8.0192    2.1589   -1.6227 H   0  0  0  0  0  0  0  0  0  0  0  0
    8.3185    0.0181   -2.4672 H   0  0  0  0  0  0  0  0  0  0  0  0
    5.0076   -1.6414    1.0652 H   0  0  0  0  0  0  0  0  0  0  0  0
    3.7016    0.7752   -0.2809 H   0  0  0  0  0  0  0  0  0  0  0  0
    4.0148    0.6933    1.4771 H   0  0  0  0  0  0  0  0  0  0  0  0
    1.7506   -0.1168    1.0114 H   0  0  0  0  0  0  0  0  0  0  0  0
    2.8275   -1.5119    1.5472 H   0  0  0  0  0  0  0  0  0  0  0  0
    2.3232   -0.6130   -1.3326 H   0  0  0  0  0  0  0  0  0  0  0  0
    3.6138   -3.1620   -0.2432 H   0  0  0  0  0  0  0  0  0  0  0  0
    3.2676   -2.7217   -2.0087 H   0  0  0  0  0  0  0  0  0  0  0  0
    4.5391   -0.7261   -1.8208 H   0  0  0  0  0  0  0  0  0  0  0  0
    5.5441   -2.1704   -1.3027 H   0  0  0  0  0  0  0  0  0  0  0  0
    0.0467   -0.3804   -1.1568 H   0  0  0  0  0  0  0  0  0  0  0  0
    0.4394   -1.4980   -2.4764 H   0  0  0  0  0  0  0  0  0  0  0  0
   -0.9866   -3.2400   -1.4898 H   0  0  0  0  0  0  0  0  0  0  0  0
   -1.9029   -1.8256   -2.0298 H   0  0  0  0  0  0  0  0  0  0  0  0
   -2.3860   -0.8948    1.4469 H   0  0  0  0  0  0  0  0  0  0  0  0
   -1.0081   -0.2081    0.5780 H   0  0  0  0  0  0  0  0  0  0  0  0
   -2.4474    0.5687   -1.2831 H   0  0  0  0  0  0  0  0  0  0  0  0
   -4.7684   -0.2357   -1.6608 H   0  0  0  0  0  0  0  0  0  0  0  0
   -5.3882   -2.3541   -0.7976 H   0  0  0  0  0  0  0  0  0  0  0  0
   -4.1144   -2.3754    0.4322 H   0  0  0  0  0  0  0  0  0  0  0  0
   -5.4885   -0.8162    1.8642 H   0  0  0  0  0  0  0  0  0  0  0  0
   -6.1673   -2.4013    1.4712 H   0  0  0  0  0  0  0  0  0  0  0  0
   -6.9743   -0.6834   -0.6515 H   0  0  0  0  0  0  0  0  0  0  0  0
   -7.9812   -2.5285    0.4432 H   0  0  0  0  0  0  0  0  0  0  0  0
   -7.1862    0.3856    2.2386 H   0  0  0  0  0  0  0  0  0  0  0  0
   -9.3560    1.2316    2.0126 H   0  0  0  0  0  0  0  0  0  0  0  0
   -9.4881    0.4198    0.4092 H   0  0  0  0  0  0  0  0  0  0  0  0
   -8.5617    2.2882   -0.6863 H   0  0  0  0  0  0  0  0  0  0  0  0
   -9.1677    4.0654    0.4518 H   0  0  0  0  0  0  0  0  0  0  0  0
   -6.4054    2.4444    1.4370 H   0  0  0  0  0  0  0  0  0  0  0  0
   -6.3018    2.8333   -1.0743 H   0  0  0  0  0  0  0  0  0  0  0  0
   -6.3150    1.0981   -1.3527 H   0  0  0  0  0  0  0  0  0  0  0  0
   -4.3853    2.7366    0.4021 H   0  0  0  0  0  0  0  0  0  0  0  0
   -4.0714    2.2002   -1.2668 H   0  0  0  0  0  0  0  0  0  0  0  0
   -4.0824    0.5621    1.3449 H   0  0  0  0  0  0  0  0  0  0  0  0
  1  2  1  0
  2  3  2  0
  2  4  1  0
  4  5  1  0
  5  6  1  0
  6  7  1  0
  7  8  1  0
  8  9  1  0
  9 10  1  0
  7 11  1  0
 11 12  1  0
 12 13  1  0
 13 14  1  0
 14 15  1  0
 15 16  1  0
 14 17  1  0
 17 18  1  0
 18 19  1  0
 19 20  1  0
 20 21  1  0
 21 22  1  0
 22 23  1  0
 23 24  1  0
 24 25  1  0
 25 26  1  0
 26 27  1  0
 26 28  1  0
 28 29  1  0
 29 30  1  0
 30 31  1  0
 30 32  1  0
 32 33  1  0
 33 34  1  0
 34 35  1  0
  9  4  1  0
 16 11  1  0
 35 22  1  0
 35 23  1  0
 32 28  1  0
  1 36  1  0
  4 37  1  6
  5 38  1  0
  5 39  1  0
  6 40  1  0
  7 41  1  6
  8 42  1  0
  8 43  1  0
  9 44  1  6
 10 45  1  0
 11 46  1  1
 12 47  1  0
 12 48  1  0
 13 49  1  0
 13 50  1  0
 14 51  1  6
 15 52  1  0
 15 53  1  0
 16 54  1  0
 16 55  1  0
 18 56  1  0
 18 57  1  0
 19 58  1  0
 19 59  1  0
 21 60  1  0
 21 61  1  0
 22 62  1  6
 23 63  1  6
 24 64  1  0
 24 65  1  0
 25 66  1  0
 25 67  1  0
 26 68  1  6
 27 69  1  0
 28 70  1  1
 29 71  1  0
 29 72  1  0
 30 73  1  6
 31 74  1  0
 32 75  1  1
 33 76  1  0
 33 77  1  0
 34 78  1  0
 34 79  1  0
 35 80  1  1
M  END
$$$$
[H]OC([H])([H])c1c([H])c([H])c([H])c(C(=O)N([H])[C@]([H])(C(=O)N([H])[C@]([H])(C(=O)N([H])C([H])([H])c2c([H])c([H])c([H])c([H])c2[H])C([H])([H])C([H])([H])C(=O)N([H])[H])C([H])([H])C([H])([H])c2c([H])c([H])c([H])c([H])c2[H])c1[H]
     RDKit          3D

 73 75  0  0  0  0  0  0  0  0999 V2000
   -6.0183    1.6814   -3.8113 O   0  0  0  0  0  0  0  0  0  0  0  0
   -6.5184    2.9441   -3.5383 C   0  0  0  0  0  0  0  0  0  0  0  0
   -6.0078    3.4425   -2.2303 C   0  0  0  0  0  0  0  0  0  0  0  0
   -6.4513    4.7054   -1.8280 C   0  0  0  0  0  0  0  0  0  0  0  0
   -5.9885    5.1900   -0.6256 C   0  0  0  0  0  0  0  0  0  0  0  0
   -5.1202    4.4194    0.1185 C   0  0  0  0  0  0  0  0  0  0  0  0
   -4.6791    3.1725   -0.2733 C   0  0  0  0  0  0  0  0  0  0  0  0
   -5.1385    2.6948   -1.4637 C   0  0  0  0  0  0  0  0  0  0  0  0
   -3.7473    2.4425    0.5912 C   0  0  0  0  0  0  0  0  0  0  0  0
   -3.2743    3.0536    1.6078 O   0  0  0  0  0  0  0  0  0  0  0  0
   -3.3608    1.1308    0.3564 N   0  0  0  0  0  0  0  0  0  0  0  0
   -2.3859    0.5030    1.3347 C   0  0  1  0  0  0  0  0  0  0  0  0
   -3.1474   -0.6461    1.8429 C   0  0  0  0  0  0  0  0  0  0  0  0
   -2.6420   -1.5357    2.8504 C   0  0  0  0  0  0  0  0  0  0  0  0
   -1.4391   -2.3460    2.6457 C   0  0  0  0  0  0  0  0  0  0  0  0
   -0.2295   -2.1184    3.2613 C   0  0  0  0  0  0  0  0  0  0  0  0
    0.9009   -2.9012    3.0604 C   0  0  0  0  0  0  0  0  0  0  0  0
    0.8333   -3.9749    2.1984 C   0  0  0  0  0  0  0  0  0  0  0  0
   -0.3707   -4.2173    1.5728 C   0  0  0  0  0  0  0  0  0  0  0  0
   -1.4833   -3.4494    1.7687 C   0  0  0  0  0  0  0  0  0  0  0  0
   -1.2181    0.1106    0.5171 C   0  0  0  0  0  0  0  0  0  0  0  0
   -1.4426   -0.5505   -0.5259 O   0  0  0  0  0  0  0  0  0  0  0  0
    0.1165    0.4464    0.8286 N   0  0  0  0  0  0  0  0  0  0  0  0
    1.2048    0.0132   -0.0655 C   0  0  1  0  0  0  0  0  0  0  0  0
    1.4320    1.1639   -1.0617 C   0  0  0  0  0  0  0  0  0  0  0  0
    2.5321    0.8104   -2.0035 C   0  0  0  0  0  0  0  0  0  0  0  0
    2.6616    1.9265   -3.0010 C   0  0  0  0  0  0  0  0  0  0  0  0
    3.6318    1.8325   -4.0010 N   0  0  0  0  0  0  0  0  0  0  0  0
    1.8874    2.9180   -2.9061 O   0  0  0  0  0  0  0  0  0  0  0  0
    2.3626   -0.2218    0.7588 C   0  0  0  0  0  0  0  0  0  0  0  0
    2.4102    0.2521    1.9568 O   0  0  0  0  0  0  0  0  0  0  0  0
    3.5078   -0.9693    0.3559 N   0  0  0  0  0  0  0  0  0  0  0  0
    4.5983   -1.1219    1.2874 C   0  0  0  0  0  0  0  0  0  0  0  0
    5.6686   -1.9378    0.6851 C   0  0  0  0  0  0  0  0  0  0  0  0
    6.4472   -2.7464    1.5113 C   0  0  0  0  0  0  0  0  0  0  0  0
    7.4407   -3.4807    0.9265 C   0  0  0  0  0  0  0  0  0  0  0  0
    7.6647   -3.4253   -0.4277 C   0  0  0  0  0  0  0  0  0  0  0  0
    6.8985   -2.6320   -1.2286 C   0  0  0  0  0  0  0  0  0  0  0  0
    5.8853   -1.8751   -0.6697 C   0  0  0  0  0  0  0  0  0  0  0  0
   -6.6469    0.9992   -3.4799 H   0  0  0  0  0  0  0  0  0  0  0  0
   -6.1950    3.6596   -4.3342 H   0  0  0  0  0  0  0  0  0  0  0  0
   -7.6206    2.9038   -3.5320 H   0  0  0  0  0  0  0  0  0  0  0  0
   -7.1319    5.2862   -2.4354 H   0  0  0  0  0  0  0  0  0  0  0  0
   -6.3199    6.1774   -0.2841 H   0  0  0  0  0  0  0  0  0  0  0  0
   -4.7747    4.8441    1.0733 H   0  0  0  0  0  0  0  0  0  0  0  0
   -4.7982    1.7152   -1.7833 H   0  0  0  0  0  0  0  0  0  0  0  0
   -3.6624    0.5299   -0.4146 H   0  0  0  0  0  0  0  0  0  0  0  0
   -2.0860    1.2758    2.0414 H   0  0  0  0  0  0  0  0  0  0  0  0
   -3.5320   -1.2813    0.9349 H   0  0  0  0  0  0  0  0  0  0  0  0
   -4.1907   -0.2388    2.1811 H   0  0  0  0  0  0  0  0  0  0  0  0
   -2.4226   -0.9816    3.8490 H   0  0  0  0  0  0  0  0  0  0  0  0
   -3.4714   -2.2395    3.2125 H   0  0  0  0  0  0  0  0  0  0  0  0
   -0.1748   -1.2616    3.9509 H   0  0  0  0  0  0  0  0  0  0  0  0
    1.8295   -2.6482    3.5977 H   0  0  0  0  0  0  0  0  0  0  0  0
    1.7112   -4.5946    2.0329 H   0  0  0  0  0  0  0  0  0  0  0  0
   -0.4294   -5.0649    0.8879 H   0  0  0  0  0  0  0  0  0  0  0  0
   -2.4216   -3.6557    1.2682 H   0  0  0  0  0  0  0  0  0  0  0  0
    0.3639    0.9855    1.6572 H   0  0  0  0  0  0  0  0  0  0  0  0
    0.8151   -0.7973   -0.6756 H   0  0  0  0  0  0  0  0  0  0  0  0
    1.6242    2.1168   -0.5438 H   0  0  0  0  0  0  0  0  0  0  0  0
    0.4946    1.2271   -1.6945 H   0  0  0  0  0  0  0  0  0  0  0  0
    3.5260    0.7774   -1.4646 H   0  0  0  0  0  0  0  0  0  0  0  0
    2.3407   -0.1593   -2.4899 H   0  0  0  0  0  0  0  0  0  0  0  0
    3.6960    2.5871   -4.7453 H   0  0  0  0  0  0  0  0  0  0  0  0
    4.2880    1.0331   -4.0248 H   0  0  0  0  0  0  0  0  0  0  0  0
    3.4704   -1.3813   -0.6016 H   0  0  0  0  0  0  0  0  0  0  0  0
    4.9773   -0.1440    1.6620 H   0  0  0  0  0  0  0  0  0  0  0  0
    4.2499   -1.7017    2.1973 H   0  0  0  0  0  0  0  0  0  0  0  0
    6.2294   -2.7529    2.5647 H   0  0  0  0  0  0  0  0  0  0  0  0
    8.0524   -4.1089    1.5643 H   0  0  0  0  0  0  0  0  0  0  0  0
    8.4443   -4.0024   -0.8908 H   0  0  0  0  0  0  0  0  0  0  0  0
    7.0475   -2.5624   -2.3086 H   0  0  0  0  0  0  0  0  0  0  0  0
    5.2967   -1.2456   -1.3477 H   0  0  0  0  0  0  0  0  0  0  0  0
  1  2  1  0
  2  3  1  0
  3  4  2  0
  4  5  1  0
  5  6  2  0
  6  7  1  0
  7  8  2  0
  7  9  1  0
  9 10  2  0
  9 11  1  0
 11 12  1  0
 12 13  1  0
 13 14  1  0
 14 15  1  0
 15 16  2  0
 16 17  1  0
 17 18  2  0
 18 19  1  0
 19 20  2  0
 12 21  1  0
 21 22  2  0
 21 23  1  0
 23 24  1  0
 24 25  1  0
 25 26  1  0
 26 27  1  0
 27 28  1  0
 27 29  2  0
 24 30  1  0
 30 31  2  0
 30 32  1  0
 32 33  1  0
 33 34  1  0
 34 35  2  0
 35 36  1  0
 36 37  2  0
 37 38  1  0
 38 39  2  0
  8  3  1  0
 20 15  1  0
 39 34  1  0
  1 40  1  0
  2 41  1  0
  2 42  1  0
  4 43  1  0
  5 44  1  0
  6 45  1  0
  8 46  1  0
 11 47  1  0
 12 48  1  1
 13 49  1  0
 13 50  1  0
 14 51  1  0
 14 52  1  0
 16 53  1  0
 17 54  1  0
 18 55  1  0
 19 56  1  0
 20 57  1  0
 23 58  1  0
 24 59  1  6
 25 60  1  0
 25 61  1  0
 26 62  1  0
 26 63  1  0
 28 64  1  0
 28 65  1  0
 32 66  1  0
 33 67  1  0
 33 68  1  0
 35 69  1  0
 36 70  1  0
 37 71  1  0
 38 72  1  0
 39 73  1  0
M  END
$$$$
[H]OC(=O)c1c([H])c([H])c(/C([H])=C(\[H])[C@]2([H])C(=O)N([H])c3c([H])c(C(=O)N([H])c4c([H])c([H])c(O[H])c([H])c4Cl)c([H])c([H])c3C([H])([H])C2([H])[H])c([H])c1[H]
     RDKit          3D

 55 58  0  0  0  0  0  0  0  0999 V2000
   10.9223    1.4571    0.2415 O   0  0  0  0  0  0  0  0  0  0  0  0
    9.5495    1.3035    0.2176 C   0  0  0  0  0  0  0  0  0  0  0  0
    8.9083    0.1486    0.6209 C   0  0  0  0  0  0  0  0  0  0  0  0
    7.5457    0.0472    0.5775 C   0  0  0  0  0  0  0  0  0  0  0  0
    6.7777    1.0868    0.1335 C   0  0  0  0  0  0  0  0  0  0  0  0
    5.3593    1.0686    0.0546 N   0  0  0  0  0  0  0  0  0  0  0  0
    4.4854    0.0301    0.4020 C   0  0  0  0  0  0  0  0  0  0  0  0
    4.8507   -1.0863    0.8506 O   0  0  0  0  0  0  0  0  0  0  0  0
    3.0239    0.2139    0.2461 C   0  0  0  0  0  0  0  0  0  0  0  0
    2.5204    1.4856    0.3099 C   0  0  0  0  0  0  0  0  0  0  0  0
    1.1493    1.6572    0.1518 C   0  0  0  0  0  0  0  0  0  0  0  0
    0.3616    0.5655   -0.0587 C   0  0  0  0  0  0  0  0  0  0  0  0
   -1.1112    0.8620   -0.2188 C   0  0  0  0  0  0  0  0  0  0  0  0
   -1.6460    0.2398   -1.4725 C   0  0  0  0  0  0  0  0  0  0  0  0
   -1.9990   -1.1724   -1.4706 C   0  0  2  0  0  0  0  0  0  0  0  0
   -3.4223   -1.4643   -1.1330 C   0  0  0  0  0  0  0  0  0  0  0  0
   -4.1882   -0.5478   -0.5814 C   0  0  0  0  0  0  0  0  0  0  0  0
   -5.5973   -0.7592   -0.2208 C   0  0  0  0  0  0  0  0  0  0  0  0
   -6.2636   -1.9289   -0.4173 C   0  0  0  0  0  0  0  0  0  0  0  0
   -7.5880   -2.0240   -0.0436 C   0  0  0  0  0  0  0  0  0  0  0  0
   -8.2807   -0.9778    0.5276 C   0  0  0  0  0  0  0  0  0  0  0  0
   -7.5989    0.2153    0.7273 C   0  0  0  0  0  0  0  0  0  0  0  0
   -6.2805    0.3022    0.3527 C   0  0  0  0  0  0  0  0  0  0  0  0
   -9.6607   -1.1421    0.8946 C   0  0  0  0  0  0  0  0  0  0  0  0
  -10.3795   -0.0976    1.4722 O   0  0  0  0  0  0  0  0  0  0  0  0
  -10.2449   -2.2166    0.7063 O   0  0  0  0  0  0  0  0  0  0  0  0
   -1.1697   -2.1022   -0.7170 C   0  0  0  0  0  0  0  0  0  0  0  0
   -1.7191   -3.1823   -0.3437 O   0  0  0  0  0  0  0  0  0  0  0  0
    0.1892   -1.9693   -0.3349 N   0  0  0  0  0  0  0  0  0  0  0  0
    0.8567   -0.7279   -0.1255 C   0  0  0  0  0  0  0  0  0  0  0  0
    2.2315   -0.9193    0.0309 C   0  0  0  0  0  0  0  0  0  0  0  0
    7.4148    2.2600   -0.2771 C   0  0  0  0  0  0  0  0  0  0  0  0
    6.5047    3.6488   -0.8630 Cl  0  0  0  0  0  0  0  0  0  0  0  0
    8.7792    2.3378   -0.2246 C   0  0  0  0  0  0  0  0  0  0  0  0
   11.3990    1.8271    1.0637 H   0  0  0  0  0  0  0  0  0  0  0  0
    9.5030   -0.6770    0.9726 H   0  0  0  0  0  0  0  0  0  0  0  0
    7.1111   -0.8641    0.8998 H   0  0  0  0  0  0  0  0  0  0  0  0
    4.9093    1.9647   -0.3266 H   0  0  0  0  0  0  0  0  0  0  0  0
    3.1542    2.3535    0.4852 H   0  0  0  0  0  0  0  0  0  0  0  0
    0.7078    2.6206    0.1924 H   0  0  0  0  0  0  0  0  0  0  0  0
   -1.6508    0.5181    0.6871 H   0  0  0  0  0  0  0  0  0  0  0  0
   -1.2033    1.9442   -0.2890 H   0  0  0  0  0  0  0  0  0  0  0  0
   -2.4904    0.8635   -1.8199 H   0  0  0  0  0  0  0  0  0  0  0  0
   -0.8437    0.4548   -2.2564 H   0  0  0  0  0  0  0  0  0  0  0  0
   -1.9239   -1.5333   -2.5547 H   0  0  0  0  0  0  0  0  0  0  0  0
   -3.8564   -2.4381   -1.3352 H   0  0  0  0  0  0  0  0  0  0  0  0
   -3.7679    0.4383   -0.3676 H   0  0  0  0  0  0  0  0  0  0  0  0
   -5.7419   -2.7678   -0.8650 H   0  0  0  0  0  0  0  0  0  0  0  0
   -8.1003   -2.9830   -0.2151 H   0  0  0  0  0  0  0  0  0  0  0  0
   -8.1230    1.0579    1.1769 H   0  0  0  0  0  0  0  0  0  0  0  0
   -5.7787    1.2613    0.5275 H   0  0  0  0  0  0  0  0  0  0  0  0
  -10.2384    0.8502    1.1110 H   0  0  0  0  0  0  0  0  0  0  0  0
    0.7512   -2.8614   -0.1939 H   0  0  0  0  0  0  0  0  0  0  0  0
    2.6343   -1.9028   -0.0166 H   0  0  0  0  0  0  0  0  0  0  0  0
    9.2683    3.2610   -0.5483 H   0  0  0  0  0  0  0  0  0  0  0  0
  1  2  1  0
  2  3  2  0
  3  4  1  0
  4  5  2  0
  5  6  1  0
  6  7  1  0
  7  8  2  0
  7  9  1  0
  9 10  2  0
 10 11  1  0
 11 12  2  0
 12 13  1  0
 13 14  1  0
 14 15  1  0
 15 16  1  0
 16 17  2  0
 17 18  1  0
 18 19  2  0
 19 20  1  0
 20 21  2  0
 21 22  1  0
 22 23  2  0
 21 24  1  0
 24 25  1  0
 24 26  2  0
 15 27  1  0
 27 28  2  0
 27 29  1  0
 29 30  1  0
 30 31  2  0
  5 32  1  0
 32 33  1  0
 32 34  2  0
 34  2  1  0
 31  9  1  0
 30 12  1  0
 23 18  1  0
  1 35  1  0
  3 36  1  0
  4 37  1  0
  6 38  1  0
 10 39  1  0
 11 40  1  0
 13 41  1  0
 13 42  1  0
 14 43  1  0
 14 44  1  0
 15 45  1  6
 16 46  1  0
 17 47  1  0
 19 48  1  0
 20 49  1  0
 22 50  1  0
 23 51  1  0
 25 52  1  0
 29 53  1  0
 31 54  1  0
 34 55  1  0
M  END
$$$$
[H]ON([H])C(=O)C([H])([H])N(C([H])([H])c1c([H])c([H])c(C#N)c([H])c1[H])S(=O)(=O)c1c([H])c([H])c(OC([H])([H])[H])c([H])c1[H]
     RDKit          3D

 43 44  0  0  0  0  0  0  0  0999 V2000
    6.2818    0.8342    1.5725 C   0  0  0  0  0  0  0  0  0  0  0  0
    5.2840    1.5780    0.9069 O   0  0  0  0  0  0  0  0  0  0  0  0
    4.1162    0.9998    0.4251 C   0  0  0  0  0  0  0  0  0  0  0  0
    3.1803    1.7797   -0.2161 C   0  0  0  0  0  0  0  0  0  0  0  0
    2.0274    1.1832   -0.6865 C   0  0  0  0  0  0  0  0  0  0  0  0
    1.8076   -0.1606   -0.5239 C   0  0  0  0  0  0  0  0  0  0  0  0
    2.7556   -0.9149    0.1182 C   0  0  0  0  0  0  0  0  0  0  0  0
    3.9295   -0.3543    0.6068 C   0  0  0  0  0  0  0  0  0  0  0  0
    0.3327   -0.8558   -1.1406 S   0  0  0  0  0  0  0  0  0  0  0  0
    0.6076   -2.2965   -1.4989 O   0  0  0  0  0  0  0  0  0  0  0  0
   -0.0433   -0.0720   -2.3640 O   0  0  0  0  0  0  0  0  0  0  0  0
   -0.8888   -0.8044    0.0585 N   0  0  0  0  0  0  0  0  0  0  0  0
   -0.5890   -1.5427    1.2321 C   0  0  0  0  0  0  0  0  0  0  0  0
   -1.0594   -2.9207    1.2753 C   0  0  0  0  0  0  0  0  0  0  0  0
   -0.8085   -3.6137    2.2913 O   0  0  0  0  0  0  0  0  0  0  0  0
   -1.7910   -3.5274    0.2256 N   0  0  0  0  0  0  0  0  0  0  0  0
   -2.2062   -4.8195    0.3166 O   0  0  0  0  0  0  0  0  0  0  0  0
   -1.2693    0.5360    0.4133 C   0  0  0  0  0  0  0  0  0  0  0  0
   -2.3883    1.0717   -0.4046 C   0  0  0  0  0  0  0  0  0  0  0  0
   -3.6375    0.5559   -0.1288 C   0  0  0  0  0  0  0  0  0  0  0  0
   -4.7417    0.9779   -0.8151 C   0  0  0  0  0  0  0  0  0  0  0  0
   -4.5778    1.9362   -1.7948 C   0  0  0  0  0  0  0  0  0  0  0  0
   -3.3246    2.4603   -2.0785 C   0  0  0  0  0  0  0  0  0  0  0  0
   -2.2373    2.0237   -1.3802 C   0  0  0  0  0  0  0  0  0  0  0  0
   -5.6984    2.4262   -2.5568 C   0  0  0  0  0  0  0  0  0  0  0  0
   -6.6007    2.8139   -3.1761 N   0  0  0  0  0  0  0  0  0  0  0  0
    6.9888    1.5965    2.0106 H   0  0  0  0  0  0  0  0  0  0  0  0
    6.8205    0.1664    0.8652 H   0  0  0  0  0  0  0  0  0  0  0  0
    5.8328    0.2768    2.4020 H   0  0  0  0  0  0  0  0  0  0  0  0
    3.3637    2.8476   -0.3407 H   0  0  0  0  0  0  0  0  0  0  0  0
    1.3232    1.8432   -1.1843 H   0  0  0  0  0  0  0  0  0  0  0  0
    2.6088   -1.9778    0.2607 H   0  0  0  0  0  0  0  0  0  0  0  0
    4.6888   -0.9187    1.1129 H   0  0  0  0  0  0  0  0  0  0  0  0
   -1.0530   -1.0123    2.1157 H   0  0  0  0  0  0  0  0  0  0  0  0
    0.5072   -1.4986    1.4420 H   0  0  0  0  0  0  0  0  0  0  0  0
   -2.0496   -3.0272   -0.6565 H   0  0  0  0  0  0  0  0  0  0  0  0
   -1.5613   -5.4059   -0.1526 H   0  0  0  0  0  0  0  0  0  0  0  0
   -1.5549    0.5546    1.5068 H   0  0  0  0  0  0  0  0  0  0  0  0
   -0.4443    1.2726    0.3330 H   0  0  0  0  0  0  0  0  0  0  0  0
   -3.7696   -0.2112    0.6552 H   0  0  0  0  0  0  0  0  0  0  0  0
   -5.7322    0.5710   -0.5986 H   0  0  0  0  0  0  0  0  0  0  0  0
   -3.1685    3.2109   -2.8398 H   0  0  0  0  0  0  0  0  0  0  0  0
   -1.2609    2.4179   -1.5811 H   0  0  0  0  0  0  0  0  0  0  0  0
  1  2  1  0
  2  3  1  0
  3  4  2  0
  4  5  1  0
  5  6  2  0
  6  7  1  0
  7  8  2  0
  6  9  1  0
  9 10  2  0
  9 11  2  0
  9 12  1  0
 12 13  1  0
 13 14  1  0
 14 15  2  0
 14 16  1  0
 16 17  1  0
 12 18  1  0
 18 19  1  0
 19 20  2  0
 20 21  1  0
 21 22  2  0
 22 23  1  0
 23 24  2  0
 22 25  1  0
 25 26  3  0
  8  3  1  0
 24 19  1  0
  1 27  1  0
  1 28  1  0
  1 29  1  0
  4 30  1  0
  5 31  1  0
  7 32  1  0
  8 33  1  0
 13 34  1  0
 13 35  1  0
 16 36  1  0
 17 37  1  0
 18 38  1  0
 18 39  1  0
 20 40  1  0
 21 41  1  0
 23 42  1  0
 24 43  1  0
M  END
$$$$
[H]c1nc(N([H])c2c([H])c([H])c(N3C([H])([H])C([H])([H])N(C([H])([H])[H])C([H])([H])C3([H])[H])c([H])c2Cl)c2c([H])c(-c3c([H])c([H])c(OC([H])([H])C([H])([H])N(C([H])([H])C([H])([H])[H])C([H])([H])C([H])([H])[H])c([H])c3[H])oc2n1
     RDKit          3D

 73 77  0  0  0  0  0  0  0  0999 V2000
  -10.1954    2.2395   -0.0137 C   0  0  0  0  0  0  0  0  0  0  0  0
   -8.7603    2.1772   -0.4013 C   0  0  0  0  0  0  0  0  0  0  0  0
   -8.2880    0.9682   -0.9616 N   0  0  0  0  0  0  0  0  0  0  0  0
   -8.7663    0.6034   -2.2496 C   0  0  0  0  0  0  0  0  0  0  0  0
  -10.2119    0.2292   -2.3317 C   0  0  0  0  0  0  0  0  0  0  0  0
   -8.3622   -0.0907    0.0260 C   0  0  0  0  0  0  0  0  0  0  0  0
   -7.8596   -1.4007   -0.5179 C   0  0  0  0  0  0  0  0  0  0  0  0
   -6.5412   -1.3862   -0.9409 O   0  0  0  0  0  0  0  0  0  0  0  0
   -5.3770   -1.1913   -0.2825 C   0  0  0  0  0  0  0  0  0  0  0  0
   -5.2601   -0.9731    1.0696 C   0  0  0  0  0  0  0  0  0  0  0  0
   -4.0260   -0.7725    1.7043 C   0  0  0  0  0  0  0  0  0  0  0  0
   -2.8719   -0.7885    0.9804 C   0  0  0  0  0  0  0  0  0  0  0  0
   -2.9714   -1.0052   -0.3671 C   0  0  0  0  0  0  0  0  0  0  0  0
   -4.1698   -1.2029   -1.0031 C   0  0  0  0  0  0  0  0  0  0  0  0
   -1.5923   -0.5783    1.6474 C   0  0  0  0  0  0  0  0  0  0  0  0
   -0.3382   -0.5641    1.0551 C   0  0  0  0  0  0  0  0  0  0  0  0
    0.5626   -0.3340    2.0588 C   0  0  0  0  0  0  0  0  0  0  0  0
    1.9601   -0.2215    2.0359 C   0  0  0  0  0  0  0  0  0  0  0  0
    2.6279   -0.3518    0.8123 N   0  0  0  0  0  0  0  0  0  0  0  0
    4.0007   -0.2865    0.5416 C   0  0  0  0  0  0  0  0  0  0  0  0
    4.9744   -0.0916    1.4668 C   0  0  0  0  0  0  0  0  0  0  0  0
    6.3302   -0.0479    1.1020 C   0  0  0  0  0  0  0  0  0  0  0  0
    6.7111   -0.2020   -0.2072 C   0  0  0  0  0  0  0  0  0  0  0  0
    5.7440   -0.3999   -1.1590 C   0  0  0  0  0  0  0  0  0  0  0  0
    4.4259   -0.4385   -0.7767 C   0  0  0  0  0  0  0  0  0  0  0  0
    3.2322   -0.6953   -2.0499 Cl  0  0  0  0  0  0  0  0  0  0  0  0
    8.1171   -0.1467   -0.5350 N   0  0  0  0  0  0  0  0  0  0  0  0
    8.5006   -0.4373   -1.8880 C   0  0  0  0  0  0  0  0  0  0  0  0
    9.9130   -0.9131   -1.9238 C   0  0  0  0  0  0  0  0  0  0  0  0
   10.8229    0.0252   -1.2912 N   0  0  0  0  0  0  0  0  0  0  0  0
   10.9406    1.2498   -2.0642 C   0  0  0  0  0  0  0  0  0  0  0  0
   10.4974    0.2607    0.0770 C   0  0  0  0  0  0  0  0  0  0  0  0
    9.0772    0.1928    0.4629 C   0  0  0  0  0  0  0  0  0  0  0  0
    2.5455    0.0099    3.2246 N   0  0  0  0  0  0  0  0  0  0  0  0
    1.8450    0.1264    4.3580 C   0  0  0  0  0  0  0  0  0  0  0  0
    0.5073    0.0166    4.3656 N   0  0  0  0  0  0  0  0  0  0  0  0
   -0.1538   -0.2145    3.2227 C   0  0  0  0  0  0  0  0  0  0  0  0
   -1.4207   -0.3684    2.9137 O   0  0  0  0  0  0  0  0  0  0  0  0
  -10.3219    3.2090    0.5583 H   0  0  0  0  0  0  0  0  0  0  0  0
  -10.5199    1.4656    0.7093 H   0  0  0  0  0  0  0  0  0  0  0  0
  -10.8999    2.3422   -0.8636 H   0  0  0  0  0  0  0  0  0  0  0  0
   -8.1525    2.4387    0.4919 H   0  0  0  0  0  0  0  0  0  0  0  0
   -8.5895    3.0234   -1.1293 H   0  0  0  0  0  0  0  0  0  0  0  0
   -8.1821   -0.3182   -2.5498 H   0  0  0  0  0  0  0  0  0  0  0  0
   -8.4757    1.3492   -3.0381 H   0  0  0  0  0  0  0  0  0  0  0  0
  -10.6843   -0.0134   -1.3590 H   0  0  0  0  0  0  0  0  0  0  0  0
  -10.8116    1.0082   -2.8788 H   0  0  0  0  0  0  0  0  0  0  0  0
  -10.3733   -0.7061   -2.9464 H   0  0  0  0  0  0  0  0  0  0  0  0
   -9.4688   -0.2039    0.2558 H   0  0  0  0  0  0  0  0  0  0  0  0
   -7.9046    0.2716    0.9322 H   0  0  0  0  0  0  0  0  0  0  0  0
   -8.5583   -1.8509   -1.2451 H   0  0  0  0  0  0  0  0  0  0  0  0
   -7.8964   -2.1156    0.3646 H   0  0  0  0  0  0  0  0  0  0  0  0
   -6.1571   -0.9701    1.6843 H   0  0  0  0  0  0  0  0  0  0  0  0
   -4.0057   -0.6041    2.7879 H   0  0  0  0  0  0  0  0  0  0  0  0
   -2.0521   -1.0167   -0.9370 H   0  0  0  0  0  0  0  0  0  0  0  0
   -4.2523   -1.3729   -2.0593 H   0  0  0  0  0  0  0  0  0  0  0  0
   -0.1220   -0.7072    0.0061 H   0  0  0  0  0  0  0  0  0  0  0  0
    1.9815   -0.5275   -0.0314 H   0  0  0  0  0  0  0  0  0  0  0  0
    4.7825    0.0391    2.5128 H   0  0  0  0  0  0  0  0  0  0  0  0
    7.0723    0.1083    1.8648 H   0  0  0  0  0  0  0  0  0  0  0  0
    6.0068   -0.5234   -2.2062 H   0  0  0  0  0  0  0  0  0  0  0  0
    7.8737   -1.2646   -2.2896 H   0  0  0  0  0  0  0  0  0  0  0  0
    8.3857    0.4888   -2.5186 H   0  0  0  0  0  0  0  0  0  0  0  0
   10.2262   -0.9717   -3.0006 H   0  0  0  0  0  0  0  0  0  0  0  0
    9.9802   -1.8911   -1.4437 H   0  0  0  0  0  0  0  0  0  0  0  0
   11.8370    1.8144   -1.7498 H   0  0  0  0  0  0  0  0  0  0  0  0
   11.0921    0.9375   -3.1175 H   0  0  0  0  0  0  0  0  0  0  0  0
   10.0059    1.8421   -2.0408 H   0  0  0  0  0  0  0  0  0  0  0  0
   10.8546    1.3139    0.3104 H   0  0  0  0  0  0  0  0  0  0  0  0
   11.1188   -0.4232    0.7045 H   0  0  0  0  0  0  0  0  0  0  0  0
    8.7172    1.1185    0.9934 H   0  0  0  0  0  0  0  0  0  0  0  0
    8.9728   -0.6038    1.2665 H   0  0  0  0  0  0  0  0  0  0  0  0
    2.3509    0.3176    5.3191 H   0  0  0  0  0  0  0  0  0  0  0  0
  1  2  1  0
  2  3  1  0
  3  4  1  0
  4  5  1  0
  3  6  1  0
  6  7  1  0
  7  8  1  0
  8  9  1  0
  9 10  2  0
 10 11  1  0
 11 12  2  0
 12 13  1  0
 13 14  2  0
 12 15  1  0
 15 16  2  0
 16 17  1  0
 17 18  2  0
 18 19  1  0
 19 20  1  0
 20 21  2  0
 21 22  1  0
 22 23  2  0
 23 24  1  0
 24 25  2  0
 25 26  1  0
 23 27  1  0
 27 28  1  0
 28 29  1  0
 29 30  1  0
 30 31  1  0
 30 32  1  0
 32 33  1  0
 18 34  1  0
 34 35  2  0
 35 36  1  0
 36 37  2  0
 37 38  1  0
 14  9  1  0
 38 15  1  0
 37 17  1  0
 25 20  1  0
 33 27  1  0
  1 39  1  0
  1 40  1  0
  1 41  1  0
  2 42  1  0
  2 43  1  0
  4 44  1  0
  4 45  1  0
  5 46  1  0
  5 47  1  0
  5 48  1  0
  6 49  1  0
  6 50  1  0
  7 51  1  0
  7 52  1  0
 10 53  1  0
 11 54  1  0
 13 55  1  0
 14 56  1  0
 16 57  1  0
 19 58  1  0
 21 59  1  0
 22 60  1  0
 24 61  1  0
 28 62  1  0
 28 63  1  0
 29 64  1  0
 29 65  1  0
 31 66  1  0
 31 67  1  0
 31 68  1  0
 32 69  1  0
 32 70  1  0
 33 71  1  0
 33 72  1  0
 35 73  1  0
M  END
$$$$
[H]OC1(c2c([H])c([H])c(Cl)c(Cl)c2[H])C([H])([H])C([H])([H])N(C([H])([H])c2nc3c([H])c([H])c(C#N)c([H])c3n2C([H])([H])[H])C([H])([H])C1([H])[H]
     RDKit          3D

 48 51  0  0  0  0  0  0  0  0999 V2000
   -2.8059   -1.7265   -1.0284 C   0  0  0  0  0  0  0  0  0  0  0  0
   -2.9191   -0.6838   -0.0482 N   0  0  0  0  0  0  0  0  0  0  0  0
   -2.0304   -0.3601    0.8611 C   0  0  0  0  0  0  0  0  0  0  0  0
   -0.6907   -0.8352    1.1646 C   0  0  0  0  0  0  0  0  0  0  0  0
    0.0521   -1.4514    0.1248 N   0  0  0  0  0  0  0  0  0  0  0  0
    0.3114   -0.6208   -1.0002 C   0  0  0  0  0  0  0  0  0  0  0  0
    1.6165    0.1143   -0.9909 C   0  0  0  0  0  0  0  0  0  0  0  0
    2.7794   -0.6913   -0.5207 C   0  0  0  0  0  0  0  0  0  0  0  0
    3.1556   -1.5753   -1.5424 O   0  0  0  0  0  0  0  0  0  0  0  0
    2.4511   -1.4484    0.7249 C   0  0  0  0  0  0  0  0  0  0  0  0
    1.1461   -2.2243    0.6046 C   0  0  0  0  0  0  0  0  0  0  0  0
    3.8846    0.2753   -0.2378 C   0  0  0  0  0  0  0  0  0  0  0  0
    4.9647   -0.1511    0.5273 C   0  0  0  0  0  0  0  0  0  0  0  0
    5.9759    0.7369    0.7976 C   0  0  0  0  0  0  0  0  0  0  0  0
    5.9241    2.0253    0.3212 C   0  0  0  0  0  0  0  0  0  0  0  0
    7.2247    3.1214    0.7001 Cl  0  0  0  0  0  0  0  0  0  0  0  0
    4.8729    2.4764   -0.4388 C   0  0  0  0  0  0  0  0  0  0  0  0
    4.7876    4.1194   -1.0657 Cl  0  0  0  0  0  0  0  0  0  0  0  0
    3.8615    1.5777   -0.7055 C   0  0  0  0  0  0  0  0  0  0  0  0
   -2.5716    0.6775    1.5839 N   0  0  0  0  0  0  0  0  0  0  0  0
   -3.7888    0.9847    1.1110 C   0  0  0  0  0  0  0  0  0  0  0  0
   -4.7427    1.9351    1.4435 C   0  0  0  0  0  0  0  0  0  0  0  0
   -5.8943    1.9610    0.6956 C   0  0  0  0  0  0  0  0  0  0  0  0
   -6.1247    1.0973   -0.3497 C   0  0  0  0  0  0  0  0  0  0  0  0
   -5.1814    0.1517   -0.6834 C   0  0  0  0  0  0  0  0  0  0  0  0
   -4.0259    0.1194    0.0633 C   0  0  0  0  0  0  0  0  0  0  0  0
   -7.3626    1.2002   -1.0868 C   0  0  0  0  0  0  0  0  0  0  0  0
   -8.3378    1.2660   -1.6889 N   0  0  0  0  0  0  0  0  0  0  0  0
   -2.1572   -2.5523   -0.7250 H   0  0  0  0  0  0  0  0  0  0  0  0
   -3.8323   -2.1817   -1.1427 H   0  0  0  0  0  0  0  0  0  0  0  0
   -2.5659   -1.3400   -2.0559 H   0  0  0  0  0  0  0  0  0  0  0  0
   -0.7414   -1.5171    2.0428 H   0  0  0  0  0  0  0  0  0  0  0  0
   -0.0237    0.0306    1.5256 H   0  0  0  0  0  0  0  0  0  0  0  0
   -0.4757    0.2161   -0.9607 H   0  0  0  0  0  0  0  0  0  0  0  0
    0.2446   -1.2139   -1.9116 H   0  0  0  0  0  0  0  0  0  0  0  0
    1.5236    1.0951   -0.4158 H   0  0  0  0  0  0  0  0  0  0  0  0
    1.8122    0.3977   -2.0514 H   0  0  0  0  0  0  0  0  0  0  0  0
    3.5599   -2.3499   -1.1190 H   0  0  0  0  0  0  0  0  0  0  0  0
    2.3319   -0.7291    1.5804 H   0  0  0  0  0  0  0  0  0  0  0  0
    3.2556   -2.1756    0.9155 H   0  0  0  0  0  0  0  0  0  0  0  0
    1.2704   -3.1585    0.0149 H   0  0  0  0  0  0  0  0  0  0  0  0
    0.8927   -2.5346    1.6483 H   0  0  0  0  0  0  0  0  0  0  0  0
    4.9986   -1.1872    0.8941 H   0  0  0  0  0  0  0  0  0  0  0  0
    6.8139    0.4139    1.3981 H   0  0  0  0  0  0  0  0  0  0  0  0
    3.0524    1.9423   -1.3083 H   0  0  0  0  0  0  0  0  0  0  0  0
   -4.5226    2.5897    2.2762 H   0  0  0  0  0  0  0  0  0  0  0  0
   -6.6570    2.7251    0.9600 H   0  0  0  0  0  0  0  0  0  0  0  0
   -5.3120   -0.5420   -1.4891 H   0  0  0  0  0  0  0  0  0  0  0  0
  1  2  1  0
  2  3  1  0
  3  4  1  0
  4  5  1  0
  5  6  1  0
  6  7  1  0
  7  8  1  0
  8  9  1  0
  8 10  1  0
 10 11  1  0
  8 12  1  0
 12 13  2  0
 13 14  1  0
 14 15  2  0
 15 16  1  0
 15 17  1  0
 17 18  1  0
 17 19  2  0
  3 20  2  0
 20 21  1  0
 21 22  2  0
 22 23  1  0
 23 24  2  0
 24 25  1  0
 25 26  2  0
 24 27  1  0
 27 28  3  0
 26  2  1  0
 11  5  1  0
 19 12  1  0
 26 21  1  0
  1 29  1  0
  1 30  1  0
  1 31  1  0
  4 32  1  0
  4 33  1  0
  6 34  1  0
  6 35  1  0
  7 36  1  0
  7 37  1  0
  9 38  1  0
 10 39  1  0
 10 40  1  0
 11 41  1  0
 11 42  1  0
 13 43  1  0
 14 44  1  0
 19 45  1  0
 22 46  1  0
 23 47  1  0
 25 48  1  0
M  END
$$$$
[H]N=C(c1c([H])c([H])c(C([H])([H])[C@@]([H])(C(=O)N([H])[C@]([H])(C(=O)N([H])[C@]([H])(C(=O)c2c([H])c([H])c([H])c(C(=N[H])N([H])[H])c2[H])C([H])([H])C([H])([H])C([H])([H])N([H])C(=N[H])N([H])[H])C([H])([H])c2c([H])c([H])c(OC([H])([H])[H])c([H])c2[H])N([H])C(=O)C([H])([H])C([H])([H])C(=O)O[H])c([H])c1[H])N([H])[H]
     RDKit          3D

100102  0  0  0  0  0  0  0  0999 V2000
    2.1840    8.3094    2.0829 C   0  0  0  0  0  0  0  0  0  0  0  0
    2.5889    7.4306    1.0875 O   0  0  0  0  0  0  0  0  0  0  0  0
    1.9159    6.2817    0.6868 C   0  0  0  0  0  0  0  0  0  0  0  0
    0.7271    5.8993    1.2777 C   0  0  0  0  0  0  0  0  0  0  0  0
    0.0691    4.7624    0.8749 C   0  0  0  0  0  0  0  0  0  0  0  0
    0.5582    3.9230   -0.1541 C   0  0  0  0  0  0  0  0  0  0  0  0
   -0.2769    2.7809   -0.5252 C   0  0  0  0  0  0  0  0  0  0  0  0
   -0.2801    1.5765    0.2984 C   0  0  2  0  0  0  0  0  0  0  0  0
    0.8519    0.7547    0.4693 N   0  0  0  0  0  0  0  0  0  0  0  0
    1.9720    0.4863   -0.2797 C   0  0  0  0  0  0  0  0  0  0  0  0
    2.2336    0.9860   -1.3887 O   0  0  0  0  0  0  0  0  0  0  0  0
    3.0238   -0.5087    0.2329 C   0  0  2  0  0  0  0  0  0  0  0  0
    3.3462   -0.3051    1.6587 C   0  0  0  0  0  0  0  0  0  0  0  0
    4.3756   -1.2681    2.1813 C   0  0  0  0  0  0  0  0  0  0  0  0
    3.9888   -2.4872    2.7048 C   0  0  0  0  0  0  0  0  0  0  0  0
    4.9007   -3.3679    3.1893 C   0  0  0  0  0  0  0  0  0  0  0  0
    6.2740   -3.0773    3.1791 C   0  0  0  0  0  0  0  0  0  0  0  0
    6.6594   -1.8675    2.6598 C   0  0  0  0  0  0  0  0  0  0  0  0
    5.7134   -0.9681    2.1635 C   0  0  0  0  0  0  0  0  0  0  0  0
    7.1939   -4.0584    3.7095 C   0  0  0  0  0  0  0  0  0  0  0  0
    6.7091   -5.2954    4.2309 N   0  0  0  0  0  0  0  0  0  0  0  0
    8.4539   -3.8674    3.7373 N   0  0  0  0  0  0  0  0  0  0  0  0
    4.1109   -0.5886   -0.6583 N   0  0  0  0  0  0  0  0  0  0  0  0
    4.0574   -1.1517   -1.9792 C   0  0  0  0  0  0  0  0  0  0  0  0
    2.9732   -1.6201   -2.4030 O   0  0  0  0  0  0  0  0  0  0  0  0
    5.2362   -1.2023   -2.8715 C   0  0  0  0  0  0  0  0  0  0  0  0
    4.8950   -1.8286   -4.1828 C   0  0  0  0  0  0  0  0  0  0  0  0
    6.0690   -1.8769   -5.0834 C   0  0  0  0  0  0  0  0  0  0  0  0
    7.2999   -1.3914   -4.7048 O   0  0  0  0  0  0  0  0  0  0  0  0
    5.9287   -2.3726   -6.2162 O   0  0  0  0  0  0  0  0  0  0  0  0
   -1.4455    0.6992   -0.0654 C   0  0  0  0  0  0  0  0  0  0  0  0
   -1.1406   -0.5233   -0.1940 O   0  0  0  0  0  0  0  0  0  0  0  0
   -2.7356    1.1470   -0.2441 N   0  0  0  0  0  0  0  0  0  0  0  0
   -3.9072    0.3716   -0.5908 C   0  0  1  0  0  0  0  0  0  0  0  0
   -3.6305   -0.6710   -1.6610 C   0  0  0  0  0  0  0  0  0  0  0  0
   -3.0675   -0.1925   -2.9221 C   0  0  0  0  0  0  0  0  0  0  0  0
   -3.7472    0.7671   -3.7950 C   0  0  0  0  0  0  0  0  0  0  0  0
   -4.9924    0.4301   -4.3983 N   0  0  0  0  0  0  0  0  0  0  0  0
   -6.2239    0.3130   -3.7405 C   0  0  0  0  0  0  0  0  0  0  0  0
   -6.8275    1.4095   -3.0428 N   0  0  0  0  0  0  0  0  0  0  0  0
   -6.8679   -0.8017   -3.7601 N   0  0  0  0  0  0  0  0  0  0  0  0
   -4.2185   -0.3548    0.7080 C   0  0  0  0  0  0  0  0  0  0  0  0
   -3.3769   -0.2758    1.6690 O   0  0  0  0  0  0  0  0  0  0  0  0
   -5.4101   -1.1340    0.9210 C   0  0  0  0  0  0  0  0  0  0  0  0
   -6.4737   -1.1573    0.0737 C   0  0  0  0  0  0  0  0  0  0  0  0
   -7.5562   -1.9664    0.3071 C   0  0  0  0  0  0  0  0  0  0  0  0
   -7.5570   -2.7570    1.4110 C   0  0  0  0  0  0  0  0  0  0  0  0
   -6.4952   -2.7866    2.3319 C   0  0  0  0  0  0  0  0  0  0  0  0
   -5.4419   -1.9626    2.0531 C   0  0  0  0  0  0  0  0  0  0  0  0
   -6.5760   -3.6612    3.4881 C   0  0  0  0  0  0  0  0  0  0  0  0
   -7.7266   -4.4518    3.7102 N   0  0  0  0  0  0  0  0  0  0  0  0
   -5.6238   -3.7353    4.3257 N   0  0  0  0  0  0  0  0  0  0  0  0
    1.7212    4.3306   -0.7054 C   0  0  0  0  0  0  0  0  0  0  0  0
    2.4133    5.4838   -0.3153 C   0  0  0  0  0  0  0  0  0  0  0  0
    1.5121    9.0659    1.5897 H   0  0  0  0  0  0  0  0  0  0  0  0
    1.6124    7.8579    2.9095 H   0  0  0  0  0  0  0  0  0  0  0  0
    3.0405    8.9173    2.4912 H   0  0  0  0  0  0  0  0  0  0  0  0
    0.3401    6.5388    2.0695 H   0  0  0  0  0  0  0  0  0  0  0  0
   -0.8633    4.4750    1.3473 H   0  0  0  0  0  0  0  0  0  0  0  0
   -0.0889    2.4605   -1.5932 H   0  0  0  0  0  0  0  0  0  0  0  0
   -1.3445    3.1634   -0.5880 H   0  0  0  0  0  0  0  0  0  0  0  0
   -0.5355    1.9749    1.4082 H   0  0  0  0  0  0  0  0  0  0  0  0
    0.8324    0.1839    1.4225 H   0  0  0  0  0  0  0  0  0  0  0  0
    2.3958   -1.4712    0.1427 H   0  0  0  0  0  0  0  0  0  0  0  0
    3.8177    0.7097    1.7906 H   0  0  0  0  0  0  0  0  0  0  0  0
    2.4911   -0.3934    2.3522 H   0  0  0  0  0  0  0  0  0  0  0  0
    2.9265   -2.7207    2.7169 H   0  0  0  0  0  0  0  0  0  0  0  0
    4.5835   -4.3226    3.5974 H   0  0  0  0  0  0  0  0  0  0  0  0
    7.7053   -1.6183    2.6389 H   0  0  0  0  0  0  0  0  0  0  0  0
    6.0695   -0.0431    1.7765 H   0  0  0  0  0  0  0  0  0  0  0  0
    6.7959   -5.4759    5.2466 H   0  0  0  0  0  0  0  0  0  0  0  0
    6.2814   -5.9841    3.5805 H   0  0  0  0  0  0  0  0  0  0  0  0
    8.8732   -3.0018    3.3803 H   0  0  0  0  0  0  0  0  0  0  0  0
    5.0565   -0.2139   -0.3683 H   0  0  0  0  0  0  0  0  0  0  0  0
    5.5267   -0.1463   -3.0715 H   0  0  0  0  0  0  0  0  0  0  0  0
    6.0867   -1.7145   -2.3647 H   0  0  0  0  0  0  0  0  0  0  0  0
    4.0660   -1.2386   -4.6262 H   0  0  0  0  0  0  0  0  0  0  0  0
    4.5116   -2.8530   -4.0178 H   0  0  0  0  0  0  0  0  0  0  0  0
    7.4392   -0.4574   -4.3555 H   0  0  0  0  0  0  0  0  0  0  0  0
   -2.9321    2.1845   -0.1007 H   0  0  0  0  0  0  0  0  0  0  0  0
   -4.7089    1.0212   -0.9041 H   0  0  0  0  0  0  0  0  0  0  0  0
   -4.5757   -1.2463   -1.8826 H   0  0  0  0  0  0  0  0  0  0  0  0
   -2.9702   -1.4462   -1.2290 H   0  0  0  0  0  0  0  0  0  0  0  0
   -2.8063   -1.0963   -3.6020 H   0  0  0  0  0  0  0  0  0  0  0  0
   -2.0058    0.2248   -2.7770 H   0  0  0  0  0  0  0  0  0  0  0  0
   -3.8973    1.7785   -3.3003 H   0  0  0  0  0  0  0  0  0  0  0  0
   -3.0369    1.0471   -4.6504 H   0  0  0  0  0  0  0  0  0  0  0  0
   -5.0475    0.2333   -5.4601 H   0  0  0  0  0  0  0  0  0  0  0  0
   -7.4268    1.1986   -2.2322 H   0  0  0  0  0  0  0  0  0  0  0  0
   -6.6777    2.3913   -3.3263 H   0  0  0  0  0  0  0  0  0  0  0  0
   -6.4676   -1.6032   -4.2638 H   0  0  0  0  0  0  0  0  0  0  0  0
   -6.4924   -0.5310   -0.7784 H   0  0  0  0  0  0  0  0  0  0  0  0
   -8.4113   -1.9758   -0.3880 H   0  0  0  0  0  0  0  0  0  0  0  0
   -8.3874   -3.4106    1.6311 H   0  0  0  0  0  0  0  0  0  0  0  0
   -4.5914   -1.9372    2.7235 H   0  0  0  0  0  0  0  0  0  0  0  0
   -8.6620   -4.0464    3.5410 H   0  0  0  0  0  0  0  0  0  0  0  0
   -7.6084   -5.4263    4.0409 H   0  0  0  0  0  0  0  0  0  0  0  0
   -4.7552   -3.1845    4.2288 H   0  0  0  0  0  0  0  0  0  0  0  0
    2.1464    3.7484   -1.5093 H   0  0  0  0  0  0  0  0  0  0  0  0
    3.3372    5.7760   -0.7780 H   0  0  0  0  0  0  0  0  0  0  0  0
  1  2  1  0
  2  3  1  0
  3  4  2  0
  4  5  1  0
  5  6  2  0
  6  7  1  0
  7  8  1  0
  8  9  1  0
  9 10  1  0
 10 11  2  0
 10 12  1  0
 12 13  1  0
 13 14  1  0
 14 15  2  0
 15 16  1  0
 16 17  2  0
 17 18  1  0
 18 19  2  0
 17 20  1  0
 20 21  1  0
 20 22  2  3
 12 23  1  0
 23 24  1  0
 24 25  2  0
 24 26  1  0
 26 27  1  0
 27 28  1  0
 28 29  1  0
 28 30  2  0
  8 31  1  0
 31 32  2  0
 31 33  1  0
 33 34  1  0
 34 35  1  0
 35 36  1  0
 36 37  1  0
 37 38  1  0
 38 39  1  0
 39 40  1  0
 39 41  2  3
 34 42  1  0
 42 43  2  0
 42 44  1  0
 44 45  2  0
 45 46  1  0
 46 47  2  0
 47 48  1  0
 48 49  2  0
 48 50  1  0
 50 51  1  0
 50 52  2  3
  6 53  1  0
 53 54  2  0
 54  3  1  0
 19 14  1  0
 49 44  1  0
  1 55  1  0
  1 56  1  0
  1 57  1  0
  4 58  1  0
  5 59  1  0
  7 60  1  0
  7 61  1  0
  8 62  1  1
  9 63  1  0
 12 64  1  1
 13 65  1  0
 13 66  1  0
 15 67  1  0
 16 68  1  0
 18 69  1  0
 19 70  1  0
 21 71  1  0
 21 72  1  0
 22 73  1  0
 23 74  1  0
 26 75  1  0
 26 76  1  0
 27 77  1  0
 27 78  1  0
 29 79  1  0
 33 80  1  0
 34 81  1  6
 35 82  1  0
 35 83  1  0
 36 84  1  0
 36 85  1  0
 37 86  1  0
 37 87  1  0
 38 88  1  0
 40 89  1  0
 40 90  1  0
 41 91  1  0
 45 92  1  0
 46 93  1  0
 47 94  1  0
 49 95  1  0
 51 96  1  0
 51 97  1  0
 52 98  1  0
 53 99  1  0
 54100  1  0
M  END
$$$$
[H]Oc1c([H])c(C(=O)N2C([H])([H])C([H])([H])C([H])([H])C([H])([H])C2([H])[H])c([H])c(N([H])C(=O)N([H])c2c([H])nc([H])c([H])c2[H])c1OC([H])([H])C([H])([H])C([H])([H])[H]
     RDKit          3D

 55 57  0  0  0  0  0  0  0  0999 V2000
   -1.9559    5.3688   -1.2692 C   0  0  0  0  0  0  0  0  0  0  0  0
   -1.1139    4.4706   -0.3392 C   0  0  0  0  0  0  0  0  0  0  0  0
   -2.1000    3.5192    0.2914 C   0  0  0  0  0  0  0  0  0  0  0  0
   -1.4594    2.6471    1.1472 O   0  0  0  0  0  0  0  0  0  0  0  0
   -0.4732    1.7324    0.8939 C   0  0  0  0  0  0  0  0  0  0  0  0
    0.8601    1.9967    0.9938 C   0  0  0  0  0  0  0  0  0  0  0  0
    1.2110    3.2970    1.3890 O   0  0  0  0  0  0  0  0  0  0  0  0
    1.8507    1.0738    0.7345 C   0  0  0  0  0  0  0  0  0  0  0  0
    1.5188   -0.1924    0.3544 C   0  0  0  0  0  0  0  0  0  0  0  0
    0.1431   -0.4805    0.2469 C   0  0  0  0  0  0  0  0  0  0  0  0
   -0.8535    0.4326    0.5022 C   0  0  0  0  0  0  0  0  0  0  0  0
   -2.2332    0.1699    0.4199 N   0  0  0  0  0  0  0  0  0  0  0  0
   -2.9100   -0.9969    0.0250 C   0  0  0  0  0  0  0  0  0  0  0  0
   -2.2859   -2.0063   -0.3243 O   0  0  0  0  0  0  0  0  0  0  0  0
   -4.3265   -1.0204    0.0261 N   0  0  0  0  0  0  0  0  0  0  0  0
   -5.1865   -2.0596   -0.3280 C   0  0  0  0  0  0  0  0  0  0  0  0
   -4.8431   -3.2250   -0.9679 C   0  0  0  0  0  0  0  0  0  0  0  0
   -5.8148   -4.1987   -1.2483 C   0  0  0  0  0  0  0  0  0  0  0  0
   -7.1355   -4.0324   -0.9005 C   0  0  0  0  0  0  0  0  0  0  0  0
   -7.4505   -2.8856   -0.2758 N   0  0  0  0  0  0  0  0  0  0  0  0
   -6.5410   -1.9426    0.0023 C   0  0  0  0  0  0  0  0  0  0  0  0
    2.4710   -1.2438    0.1221 C   0  0  0  0  0  0  0  0  0  0  0  0
    1.9141   -2.2902   -0.4828 O   0  0  0  0  0  0  0  0  0  0  0  0
    3.8165   -1.4003    0.3892 N   0  0  0  0  0  0  0  0  0  0  0  0
    4.6962   -0.5145    1.0618 C   0  0  0  0  0  0  0  0  0  0  0  0
    5.5328    0.1203   -0.0630 C   0  0  0  0  0  0  0  0  0  0  0  0
    6.3466   -0.9679   -0.6615 C   0  0  0  0  0  0  0  0  0  0  0  0
    5.9059   -2.3599   -0.4793 C   0  0  0  0  0  0  0  0  0  0  0  0
    4.4991   -2.6238   -0.0918 C   0  0  0  0  0  0  0  0  0  0  0  0
   -2.4123    6.1980   -0.7082 H   0  0  0  0  0  0  0  0  0  0  0  0
   -2.7210    4.7076   -1.7255 H   0  0  0  0  0  0  0  0  0  0  0  0
   -1.3076    5.7070   -2.1112 H   0  0  0  0  0  0  0  0  0  0  0  0
   -0.3512    3.9666   -0.9258 H   0  0  0  0  0  0  0  0  0  0  0  0
   -0.7226    5.1611    0.4470 H   0  0  0  0  0  0  0  0  0  0  0  0
   -2.7296    3.0134   -0.4742 H   0  0  0  0  0  0  0  0  0  0  0  0
   -2.7631    4.1758    0.9336 H   0  0  0  0  0  0  0  0  0  0  0  0
    2.1911    3.5060    1.4669 H   0  0  0  0  0  0  0  0  0  0  0  0
    2.8937    1.4112    0.8144 H   0  0  0  0  0  0  0  0  0  0  0  0
   -0.1352   -1.4917   -0.0526 H   0  0  0  0  0  0  0  0  0  0  0  0
   -2.8935    0.9639    0.7027 H   0  0  0  0  0  0  0  0  0  0  0  0
   -4.7817   -0.1020    0.3408 H   0  0  0  0  0  0  0  0  0  0  0  0
   -3.8319   -3.3981   -1.2660 H   0  0  0  0  0  0  0  0  0  0  0  0
   -5.5048   -5.1146   -1.7589 H   0  0  0  0  0  0  0  0  0  0  0  0
   -7.8474   -4.8102   -1.1374 H   0  0  0  0  0  0  0  0  0  0  0  0
   -6.8606   -1.0273    0.5158 H   0  0  0  0  0  0  0  0  0  0  0  0
    4.3108    0.1766    1.7890 H   0  0  0  0  0  0  0  0  0  0  0  0
    5.5145   -1.1560    1.6017 H   0  0  0  0  0  0  0  0  0  0  0  0
    4.8243    0.5086   -0.8519 H   0  0  0  0  0  0  0  0  0  0  0  0
    6.1539    0.9319    0.3128 H   0  0  0  0  0  0  0  0  0  0  0  0
    7.4048   -0.8296   -0.2801 H   0  0  0  0  0  0  0  0  0  0  0  0
    6.4613   -0.7263   -1.7620 H   0  0  0  0  0  0  0  0  0  0  0  0
    6.5866   -2.8556    0.2716 H   0  0  0  0  0  0  0  0  0  0  0  0
    6.1142   -2.9294   -1.4337 H   0  0  0  0  0  0  0  0  0  0  0  0
    3.8878   -3.0502   -0.9051 H   0  0  0  0  0  0  0  0  0  0  0  0
    4.4365   -3.3242    0.7608 H   0  0  0  0  0  0  0  0  0  0  0  0
  1  2  1  0
  2  3  1  0
  3  4  1  0
  4  5  1  0
  5  6  2  0
  6  7  1  0
  6  8  1  0
  8  9  2  0
  9 10  1  0
 10 11  2  0
 11 12  1  0
 12 13  1  0
 13 14  2  0
 13 15  1  0
 15 16  1  0
 16 17  2  0
 17 18  1  0
 18 19  2  0
 19 20  1  0
 20 21  2  0
  9 22  1  0
 22 23  2  0
 22 24  1  0
 24 25  1  0
 25 26  1  0
 26 27  1  0
 27 28  1  0
 28 29  1  0
 11  5  1  0
 21 16  1  0
 29 24  1  0
  1 30  1  0
  1 31  1  0
  1 32  1  0
  2 33  1  0
  2 34  1  0
  3 35  1  0
  3 36  1  0
  7 37  1  0
  8 38  1  0
 10 39  1  0
 12 40  1  0
 15 41  1  0
 17 42  1  0
 18 43  1  0
 19 44  1  0
 21 45  1  0
 25 46  1  0
 25 47  1  0
 26 48  1  0
 26 49  1  0
 27 50  1  0
 27 51  1  0
 28 52  1  0
 28 53  1  0
 29 54  1  0
 29 55  1  0
M  END
$$$$
[H]c1nc2c([H])c(-c3nnn(C([H])([H])[H])n3)sc2c(-c2c([H])c([H])c(N([H])C(=O)N([H])c3c([H])c([H])c([H])c(C([H])([H])[H])c3[H])c([H])c2[H])c1[H]
     RDKit          3D

 51 55  0  0  0  0  0  0  0  0999 V2000
   -7.9116    3.9074   -0.3093 C   0  0  0  0  0  0  0  0  0  0  0  0
   -7.0691    2.7098   -0.5735 C   0  0  0  0  0  0  0  0  0  0  0  0
   -7.2472    2.0420   -1.7765 C   0  0  0  0  0  0  0  0  0  0  0  0
   -6.4812    0.9325   -2.0466 C   0  0  0  0  0  0  0  0  0  0  0  0
   -5.5281    0.4695   -1.1283 C   0  0  0  0  0  0  0  0  0  0  0  0
   -5.3459    1.1146    0.0482 C   0  0  0  0  0  0  0  0  0  0  0  0
   -4.3911    0.7210    0.9971 N   0  0  0  0  0  0  0  0  0  0  0  0
   -3.1786    0.0713    0.6178 C   0  0  0  0  0  0  0  0  0  0  0  0
   -2.9199   -0.1607   -0.5932 O   0  0  0  0  0  0  0  0  0  0  0  0
   -2.3044   -0.2891    1.6527 N   0  0  0  0  0  0  0  0  0  0  0  0
   -1.0728   -0.9206    1.4748 C   0  0  0  0  0  0  0  0  0  0  0  0
   -0.3525   -0.8858    0.3262 C   0  0  0  0  0  0  0  0  0  0  0  0
    0.8652   -1.5696    0.2211 C   0  0  0  0  0  0  0  0  0  0  0  0
    1.3943   -2.3018    1.2539 C   0  0  0  0  0  0  0  0  0  0  0  0
    0.6490   -2.3257    2.4148 C   0  0  0  0  0  0  0  0  0  0  0  0
   -0.5442   -1.6628    2.5343 C   0  0  0  0  0  0  0  0  0  0  0  0
    2.6433   -2.9919    1.1300 C   0  0  0  0  0  0  0  0  0  0  0  0
    2.8486   -4.2954    1.5321 C   0  0  0  0  0  0  0  0  0  0  0  0
    4.1189   -4.7805    1.3260 C   0  0  0  0  0  0  0  0  0  0  0  0
    5.1121   -4.0929    0.7855 N   0  0  0  0  0  0  0  0  0  0  0  0
    4.9486   -2.7965    0.3734 C   0  0  0  0  0  0  0  0  0  0  0  0
    5.8896   -1.9989   -0.1897 C   0  0  0  0  0  0  0  0  0  0  0  0
    5.5057   -0.7335   -0.5243 C   0  0  0  0  0  0  0  0  0  0  0  0
    3.8709   -0.6807   -0.0562 S   0  0  0  0  0  0  0  0  0  0  0  0
    3.7091   -2.2707    0.5559 C   0  0  0  0  0  0  0  0  0  0  0  0
    6.3179    0.3265   -1.1447 C   0  0  0  0  0  0  0  0  0  0  0  0
    7.6028    0.2178   -1.4927 N   0  0  0  0  0  0  0  0  0  0  0  0
    7.9345    1.4015   -2.0134 N   0  0  0  0  0  0  0  0  0  0  0  0
    6.8912    2.2090   -1.9864 N   0  0  0  0  0  0  0  0  0  0  0  0
    6.8725    3.5817   -2.4681 C   0  0  0  0  0  0  0  0  0  0  0  0
    5.8676    1.5691   -1.4508 N   0  0  0  0  0  0  0  0  0  0  0  0
   -6.1431    2.2410    0.2918 C   0  0  0  0  0  0  0  0  0  0  0  0
   -7.2518    4.7691   -0.0084 H   0  0  0  0  0  0  0  0  0  0  0  0
   -8.6088    3.7702    0.5387 H   0  0  0  0  0  0  0  0  0  0  0  0
   -8.4631    4.2114   -1.1985 H   0  0  0  0  0  0  0  0  0  0  0  0
   -7.9784    2.4082   -2.4663 H   0  0  0  0  0  0  0  0  0  0  0  0
   -6.6301    0.4218   -2.9871 H   0  0  0  0  0  0  0  0  0  0  0  0
   -5.0062   -0.4164   -1.4392 H   0  0  0  0  0  0  0  0  0  0  0  0
   -4.5554    0.9034    2.0411 H   0  0  0  0  0  0  0  0  0  0  0  0
   -2.5932   -0.0645    2.6494 H   0  0  0  0  0  0  0  0  0  0  0  0
   -0.6707   -0.3227   -0.5426 H   0  0  0  0  0  0  0  0  0  0  0  0
    1.3762   -1.4940   -0.7268 H   0  0  0  0  0  0  0  0  0  0  0  0
    0.9833   -2.8797    3.2954 H   0  0  0  0  0  0  0  0  0  0  0  0
   -1.1238   -1.6849    3.4462 H   0  0  0  0  0  0  0  0  0  0  0  0
    2.0215   -4.8190    1.9646 H   0  0  0  0  0  0  0  0  0  0  0  0
    4.3118   -5.8167    1.6367 H   0  0  0  0  0  0  0  0  0  0  0  0
    6.9465   -2.3145   -0.3925 H   0  0  0  0  0  0  0  0  0  0  0  0
    6.1773    4.2150   -1.8721 H   0  0  0  0  0  0  0  0  0  0  0  0
    6.6078    3.6123   -3.5561 H   0  0  0  0  0  0  0  0  0  0  0  0
    7.9017    3.9921   -2.3870 H   0  0  0  0  0  0  0  0  0  0  0  0
   -5.9968    2.7514    1.2285 H   0  0  0  0  0  0  0  0  0  0  0  0
  1  2  1  0
  2  3  2  0
  3  4  1  0
  4  5  2  0
  5  6  1  0
  6  7  1  0
  7  8  1  0
  8  9  2  0
  8 10  1  0
 10 11  1  0
 11 12  2  0
 12 13  1  0
 13 14  2  0
 14 15  1  0
 15 16  2  0
 14 17  1  0
 17 18  2  0
 18 19  1  0
 19 20  2  0
 20 21  1  0
 21 22  1  0
 22 23  2  0
 23 24  1  0
 24 25  1  0
 23 26  1  0
 26 27  1  0
 27 28  2  0
 28 29  1  0
 29 30  1  0
 29 31  1  0
  6 32  2  0
 32  2  1  0
 16 11  1  0
 25 17  1  0
 31 26  2  0
 25 21  2  0
  1 33  1  0
  1 34  1  0
  1 35  1  0
  3 36  1  0
  4 37  1  0
  5 38  1  0
  7 39  1  0
 10 40  1  0
 12 41  1  0
 13 42  1  0
 15 43  1  0
 16 44  1  0
 18 45  1  0
 19 46  1  0
 22 47  1  0
 30 48  1  0
 30 49  1  0
 30 50  1  0
 32 51  1  0
M  END
$$$$
[H]c1c([H])c([H])c(Oc2c([H])c(N3C([H])([H])C([H])([H])N(C([H])([H])C4=C(c5c([H])c([H])c(Cl)c([H])c5[H])C([H])([H])C(C([H])([H])[H])(C([H])([H])[H])C([H])([H])C4([H])[H])C([H])([H])C3([H])[H])c([H])c([H])c2C(=O)N([H])S(=O)(=O)c2c([H])c([H])c(N([H])C3([H])C([H])([H])C([H])([H])N(C([H])([H])[H])C([H])([H])C3([H])[H])c([N+](=O)[O-])c2[H])c(Cl)c1[H]
     RDKit          3D

109115  0  0  0  0  0  0  0  0999 V2000
   13.8873    0.8120   -2.7308 C   0  0  0  0  0  0  0  0  0  0  0  0
   13.0155    0.0853   -1.8341 N   0  0  0  0  0  0  0  0  0  0  0  0
   13.1003    0.7033   -0.5314 C   0  0  0  0  0  0  0  0  0  0  0  0
   11.7961    1.2418   -0.0399 C   0  0  0  0  0  0  0  0  0  0  0  0
   10.7223    0.1443   -0.0963 C   0  0  0  0  0  0  0  0  0  0  0  0
   10.6604   -0.4671   -1.4605 C   0  0  0  0  0  0  0  0  0  0  0  0
   11.6658    0.1966   -2.3769 C   0  0  0  0  0  0  0  0  0  0  0  0
    9.4747    0.7553    0.3344 N   0  0  0  0  0  0  0  0  0  0  0  0
    8.3147    0.0332    0.6637 C   0  0  0  0  0  0  0  0  0  0  0  0
    8.2544   -1.3602    0.5111 C   0  0  0  0  0  0  0  0  0  0  0  0
    7.1385   -2.0954    0.8159 C   0  0  0  0  0  0  0  0  0  0  0  0
    5.9805   -1.4991    1.3043 C   0  0  0  0  0  0  0  0  0  0  0  0
    6.0394   -0.1378    1.4531 C   0  0  0  0  0  0  0  0  0  0  0  0
    7.1678    0.6354    1.1477 C   0  0  0  0  0  0  0  0  0  0  0  0
    7.0586    2.0316    1.3535 N   0  0  0  0  0  0  0  0  0  0  0  0
    8.0223    2.9234    1.6846 O   0  0  0  0  0  0  0  0  0  0  0  0
    5.8763    2.5111    1.2031 O   0  0  0  0  0  0  0  0  0  0  0  0
    4.5766   -2.4324    1.6893 S   0  0  0  0  0  0  0  0  0  0  0  0
    4.4899   -3.7041    0.8894 O   0  0  0  0  0  0  0  0  0  0  0  0
    4.6032   -2.8399    3.1490 O   0  0  0  0  0  0  0  0  0  0  0  0
    3.1063   -1.5434    1.3657 N   0  0  0  0  0  0  0  0  0  0  0  0
    2.3070   -1.8143    0.2727 C   0  0  0  0  0  0  0  0  0  0  0  0
    2.7691   -2.7615   -0.4892 O   0  0  0  0  0  0  0  0  0  0  0  0
    1.0579   -1.2091   -0.1132 C   0  0  0  0  0  0  0  0  0  0  0  0
    0.3837   -1.8339   -1.1888 C   0  0  0  0  0  0  0  0  0  0  0  0
   -0.8527   -1.4920   -1.6173 C   0  0  0  0  0  0  0  0  0  0  0  0
   -1.5096   -0.4751   -0.9820 C   0  0  0  0  0  0  0  0  0  0  0  0
   -0.9118    0.1657    0.0497 C   0  0  0  0  0  0  0  0  0  0  0  0
    0.4011   -0.1838    0.5265 C   0  0  0  0  0  0  0  0  0  0  0  0
    0.7902    0.5207    1.5130 O   0  0  0  0  0  0  0  0  0  0  0  0
    1.1856    1.2334    2.5161 C   0  0  0  0  0  0  0  0  0  0  0  0
    2.2987    2.0805    2.5548 C   0  0  0  0  0  0  0  0  0  0  0  0
    2.6377    2.7923    3.6805 C   0  0  0  0  0  0  0  0  0  0  0  0
    1.8810    2.6908    4.8215 C   0  0  0  0  0  0  0  0  0  0  0  0
    0.7594    1.8679    4.8553 C   0  0  0  0  0  0  0  0  0  0  0  0
    0.4415    1.1753    3.7365 C   0  0  0  0  0  0  0  0  0  0  0  0
   -0.9788    0.1390    3.7062 Cl  0  0  0  0  0  0  0  0  0  0  0  0
   -2.8517   -0.1932   -1.3027 N   0  0  0  0  0  0  0  0  0  0  0  0
   -3.7624   -1.3683   -1.2239 C   0  0  0  0  0  0  0  0  0  0  0  0
   -4.8501   -0.9557   -0.2166 C   0  0  0  0  0  0  0  0  0  0  0  0
   -5.6068    0.1255   -0.6374 N   0  0  0  0  0  0  0  0  0  0  0  0
   -6.7159    0.0650   -1.4942 C   0  0  0  0  0  0  0  0  0  0  0  0
   -7.8906   -0.6611   -0.9130 C   0  0  0  0  0  0  0  0  0  0  0  0
   -9.0117   -0.0738   -0.5895 C   0  0  0  0  0  0  0  0  0  0  0  0
  -10.2045   -0.7756    0.0053 C   0  0  0  0  0  0  0  0  0  0  0  0
  -10.0685   -2.2248    0.1173 C   0  0  0  0  0  0  0  0  0  0  0  0
  -10.9022   -2.8033    1.2479 C   0  0  0  0  0  0  0  0  0  0  0  0
  -10.5462   -2.8734   -1.1733 C   0  0  0  0  0  0  0  0  0  0  0  0
   -8.6139   -2.6098    0.3846 C   0  0  0  0  0  0  0  0  0  0  0  0
   -7.8232   -2.1701   -0.8014 C   0  0  0  0  0  0  0  0  0  0  0  0
   -9.1989    1.3838   -0.8634 C   0  0  0  0  0  0  0  0  0  0  0  0
   -9.1773    1.9409   -2.1119 C   0  0  0  0  0  0  0  0  0  0  0  0
   -9.3325    3.3073   -2.3158 C   0  0  0  0  0  0  0  0  0  0  0  0
   -9.5142    4.1440   -1.2466 C   0  0  0  0  0  0  0  0  0  0  0  0
   -9.7083    5.8774   -1.5243 Cl  0  0  0  0  0  0  0  0  0  0  0  0
   -9.5360    3.5918    0.0187 C   0  0  0  0  0  0  0  0  0  0  0  0
   -9.3815    2.2339    0.2098 C   0  0  0  0  0  0  0  0  0  0  0  0
   -4.7646    1.2791   -0.9028 C   0  0  0  0  0  0  0  0  0  0  0  0
   -3.4977    1.0156   -1.6520 C   0  0  0  0  0  0  0  0  0  0  0  0
   13.7709    0.5185   -3.7984 H   0  0  0  0  0  0  0  0  0  0  0  0
   14.9430    0.7955   -2.4066 H   0  0  0  0  0  0  0  0  0  0  0  0
   13.5547    1.8880   -2.6724 H   0  0  0  0  0  0  0  0  0  0  0  0
   13.5014    0.0134    0.2457 H   0  0  0  0  0  0  0  0  0  0  0  0
   13.8665    1.5447   -0.5480 H   0  0  0  0  0  0  0  0  0  0  0  0
   11.4602    2.1414   -0.6046 H   0  0  0  0  0  0  0  0  0  0  0  0
   11.9274    1.4409    1.0469 H   0  0  0  0  0  0  0  0  0  0  0  0
   10.9941   -0.6309    0.6344 H   0  0  0  0  0  0  0  0  0  0  0  0
   10.8444   -1.5683   -1.4818 H   0  0  0  0  0  0  0  0  0  0  0  0
    9.6642   -0.2831   -1.8803 H   0  0  0  0  0  0  0  0  0  0  0  0
   11.6523   -0.3543   -3.3376 H   0  0  0  0  0  0  0  0  0  0  0  0
   11.4260    1.2408   -2.5778 H   0  0  0  0  0  0  0  0  0  0  0  0
    9.4435    1.7873    0.3783 H   0  0  0  0  0  0  0  0  0  0  0  0
    9.1686   -1.8381    0.1419 H   0  0  0  0  0  0  0  0  0  0  0  0
    7.1067   -3.1705    0.6903 H   0  0  0  0  0  0  0  0  0  0  0  0
    5.1466    0.3702    1.8323 H   0  0  0  0  0  0  0  0  0  0  0  0
    2.8688   -0.8172    2.0545 H   0  0  0  0  0  0  0  0  0  0  0  0
    0.9160   -2.6530   -1.7021 H   0  0  0  0  0  0  0  0  0  0  0  0
   -1.2922   -2.0369   -2.4508 H   0  0  0  0  0  0  0  0  0  0  0  0
   -1.3779    0.9887    0.5747 H   0  0  0  0  0  0  0  0  0  0  0  0
    2.9159    2.1653    1.6444 H   0  0  0  0  0  0  0  0  0  0  0  0
    3.5189    3.4495    3.6934 H   0  0  0  0  0  0  0  0  0  0  0  0
    2.1366    3.2384    5.7135 H   0  0  0  0  0  0  0  0  0  0  0  0
    0.1955    1.8199    5.7843 H   0  0  0  0  0  0  0  0  0  0  0  0
   -3.2760   -2.2518   -0.8310 H   0  0  0  0  0  0  0  0  0  0  0  0
   -4.2127   -1.5252   -2.1991 H   0  0  0  0  0  0  0  0  0  0  0  0
   -5.2587   -1.8311    0.2455 H   0  0  0  0  0  0  0  0  0  0  0  0
   -4.1747   -0.5139    0.6441 H   0  0  0  0  0  0  0  0  0  0  0  0
   -6.4072   -0.5732   -2.3836 H   0  0  0  0  0  0  0  0  0  0  0  0
   -6.9194    1.0494   -1.8856 H   0  0  0  0  0  0  0  0  0  0  0  0
  -10.4180   -0.3252    1.0281 H   0  0  0  0  0  0  0  0  0  0  0  0
  -11.0908   -0.4772   -0.6058 H   0  0  0  0  0  0  0  0  0  0  0  0
  -11.1194   -3.8751    0.9580 H   0  0  0  0  0  0  0  0  0  0  0  0
  -11.8765   -2.2953    1.3535 H   0  0  0  0  0  0  0  0  0  0  0  0
  -10.3065   -2.8405    2.1588 H   0  0  0  0  0  0  0  0  0  0  0  0
  -11.6455   -3.0855   -1.0243 H   0  0  0  0  0  0  0  0  0  0  0  0
  -10.4673   -2.1339   -1.9683 H   0  0  0  0  0  0  0  0  0  0  0  0
  -10.0071   -3.8196   -1.3897 H   0  0  0  0  0  0  0  0  0  0  0  0
   -8.3101   -2.0299    1.2603 H   0  0  0  0  0  0  0  0  0  0  0  0
   -8.5287   -3.6746    0.5391 H   0  0  0  0  0  0  0  0  0  0  0  0
   -6.8689   -2.6122   -0.9140 H   0  0  0  0  0  0  0  0  0  0  0  0
   -8.4307   -2.5512   -1.7017 H   0  0  0  0  0  0  0  0  0  0  0  0
   -9.0394    1.3086   -2.9684 H   0  0  0  0  0  0  0  0  0  0  0  0
   -9.3212    3.7448   -3.2970 H   0  0  0  0  0  0  0  0  0  0  0  0
   -9.6768    4.2659    0.8522 H   0  0  0  0  0  0  0  0  0  0  0  0
   -9.4020    1.8086    1.2044 H   0  0  0  0  0  0  0  0  0  0  0  0
   -4.4474    1.6478    0.1192 H   0  0  0  0  0  0  0  0  0  0  0  0
   -5.3319    2.1207   -1.3558 H   0  0  0  0  0  0  0  0  0  0  0  0
   -2.8025    1.8741   -1.4020 H   0  0  0  0  0  0  0  0  0  0  0  0
   -3.6647    1.0893   -2.7627 H   0  0  0  0  0  0  0  0  0  0  0  0
  1  2  1  0
  2  3  1  0
  3  4  1  0
  4  5  1  0
  5  6  1  0
  6  7  1  0
  5  8  1  0
  8  9  1  0
  9 10  2  0
 10 11  1  0
 11 12  2  0
 12 13  1  0
 13 14  2  0
 14 15  1  0
 15 16  1  0
 15 17  2  0
 12 18  1  0
 18 19  2  0
 18 20  2  0
 18 21  1  0
 21 22  1  0
 22 23  2  0
 22 24  1  0
 24 25  2  0
 25 26  1  0
 26 27  2  0
 27 28  1  0
 28 29  2  0
 29 30  1  0
 30 31  1  0
 31 32  2  0
 32 33  1  0
 33 34  2  0
 34 35  1  0
 35 36  2  0
 36 37  1  0
 27 38  1  0
 38 39  1  0
 39 40  1  0
 40 41  1  0
 41 42  1  0
 42 43  1  0
 43 44  2  0
 44 45  1  0
 45 46  1  0
 46 47  1  0
 46 48  1  0
 46 49  1  0
 49 50  1  0
 44 51  1  0
 51 52  2  0
 52 53  1  0
 53 54  2  0
 54 55  1  0
 54 56  1  0
 56 57  2  0
 41 58  1  0
 58 59  1  0
  7  2  1  0
 14  9  1  0
 29 24  1  0
 36 31  1  0
 59 38  1  0
 50 43  1  0
 57 51  1  0
  1 60  1  0
  1 61  1  0
  1 62  1  0
  3 63  1  0
  3 64  1  0
  4 65  1  0
  4 66  1  0
  5 67  1  0
  6 68  1  0
  6 69  1  0
  7 70  1  0
  7 71  1  0
  8 72  1  0
 10 73  1  0
 11 74  1  0
 13 75  1  0
 21 76  1  0
 25 77  1  0
 26 78  1  0
 28 79  1  0
 32 80  1  0
 33 81  1  0
 34 82  1  0
 35 83  1  0
 39 84  1  0
 39 85  1  0
 40 86  1  0
 40 87  1  0
 42 88  1  0
 42 89  1  0
 45 90  1  0
 45 91  1  0
 47 92  1  0
 47 93  1  0
 47 94  1  0
 48 95  1  0
 48 96  1  0
 48 97  1  0
 49 98  1  0
 49 99  1  0
 50100  1  0
 50101  1  0
 52102  1  0
 53103  1  0
 56104  1  0
 57105  1  0
 58106  1  0
 58107  1  0
 59108  1  0
 59109  1  0
M  CHG  2  15   1  16  -1
M  END
$$$$
[H]C1=C(c2c([H])n([H])c3c([H])c([H])c(N([H])C(=O)C4([H])C([H])([H])C([H])([H])C([H])([H])C4([H])[H])c([H])c23)C([H])([H])C([H])([H])OC1([H])[H]
     RDKit          3D

 45 48  0  0  0  0  0  0  0  0999 V2000
   -3.4001   -1.2001    1.2751 O   0  0  0  0  0  0  0  0  0  0  0  0
   -3.0759   -0.5749    0.2406 C   0  0  0  0  0  0  0  0  0  0  0  0
   -1.7389   -0.5529   -0.1978 N   0  0  0  0  0  0  0  0  0  0  0  0
   -0.6332   -1.1823    0.3972 C   0  0  0  0  0  0  0  0  0  0  0  0
   -0.7071   -2.1850    1.3234 C   0  0  0  0  0  0  0  0  0  0  0  0
    0.4249   -2.7505    1.8891 C   0  0  0  0  0  0  0  0  0  0  0  0
    1.6429   -2.2609    1.4791 C   0  0  0  0  0  0  0  0  0  0  0  0
    2.8682   -2.6373    1.8868 N   0  0  0  0  0  0  0  0  0  0  0  0
    3.7959   -1.9125    1.2559 C   0  0  0  0  0  0  0  0  0  0  0  0
    3.1157   -1.0293    0.4016 C   0  0  0  0  0  0  0  0  0  0  0  0
    3.8165   -0.0897   -0.4041 C   0  0  0  0  0  0  0  0  0  0  0  0
    3.3490    0.6825   -1.3545 C   0  0  0  0  0  0  0  0  0  0  0  0
    4.3560    1.5793   -2.0261 C   0  0  0  0  0  0  0  0  0  0  0  0
    5.0519    2.3460   -1.1020 O   0  0  0  0  0  0  0  0  0  0  0  0
    5.4593    1.6281    0.0019 C   0  0  0  0  0  0  0  0  0  0  0  0
    5.3117    0.1321   -0.1905 C   0  0  0  0  0  0  0  0  0  0  0  0
    1.7685   -1.2447    0.5404 C   0  0  0  0  0  0  0  0  0  0  0  0
    0.6220   -0.7176    0.0114 C   0  0  0  0  0  0  0  0  0  0  0  0
   -4.1610    0.1484   -0.5137 C   0  0  0  0  0  0  0  0  0  0  0  0
   -5.4885   -0.0288    0.1544 C   0  0  0  0  0  0  0  0  0  0  0  0
   -6.2821    1.1648   -0.3746 C   0  0  0  0  0  0  0  0  0  0  0  0
   -5.2695    2.2684   -0.3416 C   0  0  0  0  0  0  0  0  0  0  0  0
   -3.9155    1.6297   -0.5550 C   0  0  0  0  0  0  0  0  0  0  0  0
   -1.5813    0.0175   -1.1009 H   0  0  0  0  0  0  0  0  0  0  0  0
   -1.6525   -2.5986    1.6537 H   0  0  0  0  0  0  0  0  0  0  0  0
    0.3621   -3.5379    2.6173 H   0  0  0  0  0  0  0  0  0  0  0  0
    3.1060   -3.3845    2.5930 H   0  0  0  0  0  0  0  0  0  0  0  0
    4.8780   -2.0132    1.3954 H   0  0  0  0  0  0  0  0  0  0  0  0
    2.3554    0.7035   -1.6823 H   0  0  0  0  0  0  0  0  0  0  0  0
    5.0041    0.9943   -2.6829 H   0  0  0  0  0  0  0  0  0  0  0  0
    3.7889    2.2901   -2.6572 H   0  0  0  0  0  0  0  0  0  0  0  0
    6.5159    1.8386    0.2961 H   0  0  0  0  0  0  0  0  0  0  0  0
    4.8236    1.9009    0.8698 H   0  0  0  0  0  0  0  0  0  0  0  0
    5.8809   -0.1820   -1.0716 H   0  0  0  0  0  0  0  0  0  0  0  0
    5.6720   -0.3415    0.7168 H   0  0  0  0  0  0  0  0  0  0  0  0
    0.6988    0.0869   -0.7096 H   0  0  0  0  0  0  0  0  0  0  0  0
   -4.2345   -0.2123   -1.5589 H   0  0  0  0  0  0  0  0  0  0  0  0
   -5.4395    0.0782    1.2540 H   0  0  0  0  0  0  0  0  0  0  0  0
   -5.9797   -0.9817   -0.1530 H   0  0  0  0  0  0  0  0  0  0  0  0
   -6.5910    0.9852   -1.4354 H   0  0  0  0  0  0  0  0  0  0  0  0
   -7.1309    1.4118    0.2774 H   0  0  0  0  0  0  0  0  0  0  0  0
   -5.2771    2.8224    0.6157 H   0  0  0  0  0  0  0  0  0  0  0  0
   -5.4476    3.0037   -1.1597 H   0  0  0  0  0  0  0  0  0  0  0  0
   -3.4774    1.9386   -1.5381 H   0  0  0  0  0  0  0  0  0  0  0  0
   -3.1850    1.9674    0.2134 H   0  0  0  0  0  0  0  0  0  0  0  0
  1  2  2  0
  2  3  1  0
  3  4  1  0
  4  5  2  0
  5  6  1  0
  6  7  2  0
  7  8  1  0
  8  9  1  0
  9 10  2  0
 10 11  1  0
 11 12  2  0
 12 13  1  0
 13 14  1  0
 14 15  1  0
 15 16  1  0
 10 17  1  0
 17 18  2  0
  2 19  1  0
 19 20  1  0
 20 21  1  0
 21 22  1  0
 22 23  1  0
 18  4  1  0
 23 19  1  0
 17  7  1  0
 16 11  1  0
  3 24  1  0
  5 25  1  0
  6 26  1  0
  8 27  1  0
  9 28  1  0
 12 29  1  0
 13 30  1  0
 13 31  1  0
 15 32  1  0
 15 33  1  0
 16 34  1  0
 16 35  1  0
 18 36  1  0
 19 37  1  0
 20 38  1  0
 20 39  1  0
 21 40  1  0
 21 41  1  0
 22 42  1  0
 22 43  1  0
 23 44  1  0
 23 45  1  0
M  END
$$$$
[H]c1c([H])c([H])c(C([H])([H])[H])c(Sc2c([H])c([H])c(Br)c([H])c2N([H])S(=O)(=O)C([H])([H])[H])c1[H]
     RDKit          3D

 34 35  0  0  0  0  0  0  0  0999 V2000
   -2.9893    0.4325   -2.4317 C   0  0  0  0  0  0  0  0  0  0  0  0
   -3.3094   -0.2417   -1.1482 C   0  0  0  0  0  0  0  0  0  0  0  0
   -4.5642   -0.7106   -0.8565 C   0  0  0  0  0  0  0  0  0  0  0  0
   -4.8341   -1.3260    0.3272 C   0  0  0  0  0  0  0  0  0  0  0  0
   -3.8737   -1.5153    1.2962 C   0  0  0  0  0  0  0  0  0  0  0  0
   -2.6048   -1.0417    1.0003 C   0  0  0  0  0  0  0  0  0  0  0  0
   -2.2905   -0.4086   -0.1921 C   0  0  0  0  0  0  0  0  0  0  0  0
   -0.7277    0.2631   -0.6110 S   0  0  0  0  0  0  0  0  0  0  0  0
    0.4227    0.5766    0.6581 C   0  0  0  0  0  0  0  0  0  0  0  0
    0.1418    0.7003    1.9813 C   0  0  0  0  0  0  0  0  0  0  0  0
    1.1659    0.9011    2.9035 C   0  0  0  0  0  0  0  0  0  0  0  0
    2.4833    0.9821    2.5121 C   0  0  0  0  0  0  0  0  0  0  0  0
    3.8161    1.2589    3.8509 Br  0  0  0  0  0  0  0  0  0  0  0  0
    2.7929    0.8617    1.1791 C   0  0  0  0  0  0  0  0  0  0  0  0
    1.7769    0.6633    0.2787 C   0  0  0  0  0  0  0  0  0  0  0  0
    2.0820    0.5376   -1.1240 N   0  0  0  0  0  0  0  0  0  0  0  0
    3.7008    0.5541   -1.6474 S   0  0  0  0  0  0  0  0  0  0  0  0
    4.6552   -0.7990   -0.9716 C   0  0  0  0  0  0  0  0  0  0  0  0
    4.4169    1.8458   -1.3137 O   0  0  0  0  0  0  0  0  0  0  0  0
    3.7247    0.4187   -3.1658 O   0  0  0  0  0  0  0  0  0  0  0  0
   -2.1925    1.1862   -2.1898 H   0  0  0  0  0  0  0  0  0  0  0  0
   -2.4914   -0.2749   -3.1537 H   0  0  0  0  0  0  0  0  0  0  0  0
   -3.8747    0.8838   -2.8913 H   0  0  0  0  0  0  0  0  0  0  0  0
   -5.3334   -0.5589   -1.6344 H   0  0  0  0  0  0  0  0  0  0  0  0
   -5.8379   -1.6797    0.5153 H   0  0  0  0  0  0  0  0  0  0  0  0
   -4.0826   -2.0065    2.2445 H   0  0  0  0  0  0  0  0  0  0  0  0
   -1.8293   -1.2143    1.7380 H   0  0  0  0  0  0  0  0  0  0  0  0
   -0.8926    0.6752    2.3181 H   0  0  0  0  0  0  0  0  0  0  0  0
    0.8908    0.9918    3.9423 H   0  0  0  0  0  0  0  0  0  0  0  0
    3.8283    0.9263    0.8700 H   0  0  0  0  0  0  0  0  0  0  0  0
    1.3270    0.4371   -1.8280 H   0  0  0  0  0  0  0  0  0  0  0  0
    4.9592   -1.5096   -1.7788 H   0  0  0  0  0  0  0  0  0  0  0  0
    5.5253   -0.4195   -0.3998 H   0  0  0  0  0  0  0  0  0  0  0  0
    4.0180   -1.3902   -0.2780 H   0  0  0  0  0  0  0  0  0  0  0  0
  1  2  1  0
  2  3  2  0
  3  4  1  0
  4  5  2  0
  5  6  1  0
  6  7  2  0
  7  8  1  0
  8  9  1  0
  9 10  2  0
 10 11  1  0
 11 12  2  0
 12 13  1  0
 12 14  1  0
 14 15  2  0
 15 16  1  0
 16 17  1  0
 17 18  1  0
 17 19  2  0
 17 20  2  0
  7  2  1  0
 15  9  1  0
  1 21  1  0
  1 22  1  0
  1 23  1  0
  3 24  1  0
  4 25  1  0
  5 26  1  0
  6 27  1  0
 10 28  1  0
 11 29  1  0
 14 30  1  0
 16 31  1  0
 18 32  1  0
 18 33  1  0
 18 34  1  0
M  END
$$$$
[H]N=C(c1c([H])c([H])c(C([H])([H])N([H])C(=O)[C@@]2([H])N(C(=O)[C@]([H])(N([H])C(=O)[C@]([H])(N([H])C(=O)c3c([H])c([H])c([H])c(C(=N[H])N([H])[H])c3[H])C([H])([H])N([H])[H])C([H])([H])c3c([H])c([H])c([H])c([H])c3[H])C([H])([H])C([H])([H])C2([H])[H])c([H])c1[H])N([H])[H]
     RDKit          3D

 85 88  0  0  0  0  0  0  0  0999 V2000
    3.3078   -0.1970   -3.0957 N   0  0  0  0  0  0  0  0  0  0  0  0
    4.0167   -1.1726   -2.3162 C   0  0  0  0  0  0  0  0  0  0  0  0
    3.7688   -1.0336   -0.8492 C   0  0  1  0  0  0  0  0  0  0  0  0
    4.2119    0.2995   -0.4588 N   0  0  0  0  0  0  0  0  0  0  0  0
    5.2284    0.5854    0.4494 C   0  0  0  0  0  0  0  0  0  0  0  0
    5.8554   -0.3385    1.0099 O   0  0  0  0  0  0  0  0  0  0  0  0
    5.5768    1.9541    0.7590 C   0  0  0  0  0  0  0  0  0  0  0  0
    4.6793    2.9582    0.5137 C   0  0  0  0  0  0  0  0  0  0  0  0
    5.0408    4.2723    0.8088 C   0  0  0  0  0  0  0  0  0  0  0  0
    6.2852    4.5620    1.3418 C   0  0  0  0  0  0  0  0  0  0  0  0
    7.1887    3.5486    1.5887 C   0  0  0  0  0  0  0  0  0  0  0  0
    6.8100    2.2500    1.2883 C   0  0  0  0  0  0  0  0  0  0  0  0
    8.5075    3.8222    2.1438 C   0  0  0  0  0  0  0  0  0  0  0  0
    9.3987    2.7508    2.3859 N   0  0  0  0  0  0  0  0  0  0  0  0
    8.8798    5.0054    2.4168 N   0  0  0  0  0  0  0  0  0  0  0  0
    2.3794   -1.1996   -0.4186 C   0  0  0  0  0  0  0  0  0  0  0  0
    1.8235   -0.2861    0.2422 O   0  0  0  0  0  0  0  0  0  0  0  0
    1.5889   -2.3435   -0.6999 N   0  0  0  0  0  0  0  0  0  0  0  0
    0.2121   -2.4780   -0.2553 C   0  0  2  0  0  0  0  0  0  0  0  0
    0.0587   -3.8777    0.2291 C   0  0  0  0  0  0  0  0  0  0  0  0
    0.9727   -4.1996    1.3528 C   0  0  0  0  0  0  0  0  0  0  0  0
    0.5673   -3.9620    2.6458 C   0  0  0  0  0  0  0  0  0  0  0  0
    1.3448   -4.2421    3.7405 C   0  0  0  0  0  0  0  0  0  0  0  0
    2.5764   -4.7801    3.5552 C   0  0  0  0  0  0  0  0  0  0  0  0
    3.0388   -5.0404    2.2861 C   0  0  0  0  0  0  0  0  0  0  0  0
    2.2222   -4.7432    1.1927 C   0  0  0  0  0  0  0  0  0  0  0  0
   -0.7341   -2.0478   -1.3025 C   0  0  0  0  0  0  0  0  0  0  0  0
   -0.1925   -1.7321   -2.4179 O   0  0  0  0  0  0  0  0  0  0  0  0
   -2.1423   -1.9473   -1.1869 N   0  0  0  0  0  0  0  0  0  0  0  0
   -3.0601   -2.2519   -0.1274 C   0  0  0  0  0  0  0  0  0  0  0  0
   -4.4741   -2.0348   -0.6636 C   0  0  0  0  0  0  0  0  0  0  0  0
   -4.2334   -2.1516   -2.1725 C   0  0  0  0  0  0  0  0  0  0  0  0
   -2.9502   -1.3797   -2.2826 C   0  0  1  0  0  0  0  0  0  0  0  0
   -3.2483    0.0494   -1.9881 C   0  0  0  0  0  0  0  0  0  0  0  0
   -2.8653    0.5397   -0.8666 O   0  0  0  0  0  0  0  0  0  0  0  0
   -3.9292    0.9297   -2.8553 N   0  0  0  0  0  0  0  0  0  0  0  0
   -4.1962    2.2981   -2.5358 C   0  0  0  0  0  0  0  0  0  0  0  0
   -5.3354    2.4621   -1.5745 C   0  0  0  0  0  0  0  0  0  0  0  0
   -6.2858    1.4818   -1.4804 C   0  0  0  0  0  0  0  0  0  0  0  0
   -7.3295    1.6245   -0.5952 C   0  0  0  0  0  0  0  0  0  0  0  0
   -7.4305    2.7414    0.1976 C   0  0  0  0  0  0  0  0  0  0  0  0
   -6.4836    3.7574    0.1290 C   0  0  0  0  0  0  0  0  0  0  0  0
   -5.4425    3.5739   -0.7806 C   0  0  0  0  0  0  0  0  0  0  0  0
   -8.5642    2.8569    1.1225 C   0  0  0  0  0  0  0  0  0  0  0  0
   -9.5307    1.7846    1.1316 N   0  0  0  0  0  0  0  0  0  0  0  0
   -8.7172    3.8585    1.8998 N   0  0  0  0  0  0  0  0  0  0  0  0
    3.0457   -0.5775   -4.0313 H   0  0  0  0  0  0  0  0  0  0  0  0
    2.5239    0.2460   -2.5783 H   0  0  0  0  0  0  0  0  0  0  0  0
    3.8715   -2.2096   -2.6887 H   0  0  0  0  0  0  0  0  0  0  0  0
    5.1177   -0.9627   -2.4617 H   0  0  0  0  0  0  0  0  0  0  0  0
    4.4235   -1.7404   -0.2870 H   0  0  0  0  0  0  0  0  0  0  0  0
    3.6851    1.0793   -0.9435 H   0  0  0  0  0  0  0  0  0  0  0  0
    3.6795    2.7818    0.0960 H   0  0  0  0  0  0  0  0  0  0  0  0
    4.3150    5.0469    0.6062 H   0  0  0  0  0  0  0  0  0  0  0  0
    6.5028    5.5953    1.5482 H   0  0  0  0  0  0  0  0  0  0  0  0
    7.5554    1.4853    1.4993 H   0  0  0  0  0  0  0  0  0  0  0  0
    9.5260    2.4102    3.3727 H   0  0  0  0  0  0  0  0  0  0  0  0
    9.9422    2.2714    1.6505 H   0  0  0  0  0  0  0  0  0  0  0  0
    8.3546    5.8776    2.2990 H   0  0  0  0  0  0  0  0  0  0  0  0
    2.0084   -3.1156   -1.2431 H   0  0  0  0  0  0  0  0  0  0  0  0
    0.0888   -1.7679    0.5690 H   0  0  0  0  0  0  0  0  0  0  0  0
   -0.9699   -4.1270    0.4693 H   0  0  0  0  0  0  0  0  0  0  0  0
    0.3366   -4.6058   -0.6067 H   0  0  0  0  0  0  0  0  0  0  0  0
   -0.4097   -3.5337    2.8124 H   0  0  0  0  0  0  0  0  0  0  0  0
    0.9702   -4.0327    4.7270 H   0  0  0  0  0  0  0  0  0  0  0  0
    3.1939   -5.0019    4.4384 H   0  0  0  0  0  0  0  0  0  0  0  0
    4.0259   -5.4715    2.1572 H   0  0  0  0  0  0  0  0  0  0  0  0
    2.5883   -4.9474    0.2127 H   0  0  0  0  0  0  0  0  0  0  0  0
   -3.0551   -3.2915    0.2322 H   0  0  0  0  0  0  0  0  0  0  0  0
   -2.8708   -1.6149    0.7629 H   0  0  0  0  0  0  0  0  0  0  0  0
   -4.8820   -1.0781   -0.3532 H   0  0  0  0  0  0  0  0  0  0  0  0
   -5.1681   -2.8484   -0.3824 H   0  0  0  0  0  0  0  0  0  0  0  0
   -4.0022   -3.2103   -2.3946 H   0  0  0  0  0  0  0  0  0  0  0  0
   -5.0713   -1.7597   -2.7487 H   0  0  0  0  0  0  0  0  0  0  0  0
   -2.4365   -1.5021   -3.2605 H   0  0  0  0  0  0  0  0  0  0  0  0
   -4.2461    0.5243   -3.7812 H   0  0  0  0  0  0  0  0  0  0  0  0
   -3.3005    2.7094   -2.0197 H   0  0  0  0  0  0  0  0  0  0  0  0
   -4.3284    2.8863   -3.4563 H   0  0  0  0  0  0  0  0  0  0  0  0
   -6.2485    0.5796   -2.0869 H   0  0  0  0  0  0  0  0  0  0  0  0
   -8.1039    0.8351   -0.5103 H   0  0  0  0  0  0  0  0  0  0  0  0
   -6.5457    4.6434    0.7445 H   0  0  0  0  0  0  0  0  0  0  0  0
   -4.7068    4.3898   -0.8176 H   0  0  0  0  0  0  0  0  0  0  0  0
   -9.4679    1.1444    1.9626 H   0  0  0  0  0  0  0  0  0  0  0  0
  -10.2134    1.6874    0.3628 H   0  0  0  0  0  0  0  0  0  0  0  0
   -8.1237    4.6778    1.9989 H   0  0  0  0  0  0  0  0  0  0  0  0
  1  2  1  0
  2  3  1  0
  3  4  1  0
  4  5  1  0
  5  6  2  0
  5  7  1  0
  7  8  2  0
  8  9  1  0
  9 10  2  0
 10 11  1  0
 11 12  2  0
 11 13  1  0
 13 14  1  0
 13 15  2  3
  3 16  1  0
 16 17  2  0
 16 18  1  0
 18 19  1  0
 19 20  1  0
 20 21  1  0
 21 22  2  0
 22 23  1  0
 23 24  2  0
 24 25  1  0
 25 26  2  0
 19 27  1  0
 27 28  2  0
 27 29  1  0
 29 30  1  0
 30 31  1  0
 31 32  1  0
 32 33  1  0
 33 34  1  0
 34 35  2  0
 34 36  1  0
 36 37  1  0
 37 38  1  0
 38 39  2  0
 39 40  1  0
 40 41  2  0
 41 42  1  0
 42 43  2  0
 41 44  1  0
 44 45  1  0
 44 46  2  3
 12  7  1  0
 26 21  1  0
 33 29  1  0
 43 38  1  0
  1 47  1  0
  1 48  1  0
  2 49  1  0
  2 50  1  0
  3 51  1  1
  4 52  1  0
  8 53  1  0
  9 54  1  0
 10 55  1  0
 12 56  1  0
 14 57  1  0
 14 58  1  0
 15 59  1  0
 18 60  1  0
 19 61  1  1
 20 62  1  0
 20 63  1  0
 22 64  1  0
 23 65  1  0
 24 66  1  0
 25 67  1  0
 26 68  1  0
 30 69  1  0
 30 70  1  0
 31 71  1  0
 31 72  1  0
 32 73  1  0
 32 74  1  0
 33 75  1  6
 36 76  1  0
 37 77  1  0
 37 78  1  0
 39 79  1  0
 40 80  1  0
 42 81  1  0
 43 82  1  0
 45 83  1  0
 45 84  1  0
 46 85  1  0
M  END
$$$$
[H]c1c([H])c([H])c2c(c1[H])c(C([H])([H])[C@@]1([H])C(=O)N([H])C([H])([H])C([H])([H])C([H])([H])C([H])([H])[C@]([H])(C(=O)N([H])[H])C(=O)N([H])[C@@]([H])(C([H])([H])C(=O)N([H])[H])C(=O)N([H])[C@]([H])(C([H])([H])c3c([H])n([H])c4c([H])c([H])c([H])c([H])c34)C(=O)N([H])[C@@]([H])(C([H])([H])C([H])(C([H])([H])[H])C([H])([H])[H])C(=O)N1[H])c([H])n2[H]
     RDKit          3D

104108  0  0  0  0  0  0  0  0999 V2000
    1.9948   -5.6914   -2.0524 C   0  0  0  0  0  0  0  0  0  0  0  0
    1.0072   -4.4662   -2.0445 C   0  0  0  0  0  0  0  0  0  0  0  0
    1.4645   -3.6666   -3.2347 C   0  0  0  0  0  0  0  0  0  0  0  0
    1.2669   -3.8208   -0.7374 C   0  0  0  0  0  0  0  0  0  0  0  0
    0.4701   -2.6399   -0.3126 C   0  0  2  0  0  0  0  0  0  0  0  0
   -0.9445   -3.0281   -0.2361 N   0  0  0  0  0  0  0  0  0  0  0  0
   -2.1091   -2.4506   -0.6290 C   0  0  0  0  0  0  0  0  0  0  0  0
   -2.7424   -3.0497   -1.5921 O   0  0  0  0  0  0  0  0  0  0  0  0
   -2.8636   -1.2401   -0.1940 C   0  0  1  0  0  0  0  0  0  0  0  0
   -4.2886   -1.6254    0.1752 C   0  0  0  0  0  0  0  0  0  0  0  0
   -4.4102   -2.5872    1.2581 C   0  0  0  0  0  0  0  0  0  0  0  0
   -3.4824   -2.9389    2.2066 C   0  0  0  0  0  0  0  0  0  0  0  0
   -4.0155   -3.8647    3.0206 N   0  0  0  0  0  0  0  0  0  0  0  0
   -5.2647   -4.1155    2.6159 C   0  0  0  0  0  0  0  0  0  0  0  0
   -6.2417   -4.9862    3.1133 C   0  0  0  0  0  0  0  0  0  0  0  0
   -7.4827   -5.0763    2.5206 C   0  0  0  0  0  0  0  0  0  0  0  0
   -7.7555   -4.2919    1.4213 C   0  0  0  0  0  0  0  0  0  0  0  0
   -6.7916   -3.4418    0.9414 C   0  0  0  0  0  0  0  0  0  0  0  0
   -5.5322   -3.3390    1.5291 C   0  0  0  0  0  0  0  0  0  0  0  0
   -2.2277   -0.4445    0.7980 N   0  0  0  0  0  0  0  0  0  0  0  0
   -2.5299    0.7303    1.4401 C   0  0  0  0  0  0  0  0  0  0  0  0
   -2.5878    0.5787    2.7588 O   0  0  0  0  0  0  0  0  0  0  0  0
   -2.8099    2.1312    1.1110 C   0  0  2  0  0  0  0  0  0  0  0  0
   -3.3453    2.5020   -0.2030 C   0  0  0  0  0  0  0  0  0  0  0  0
   -2.5680    2.2568   -1.4083 C   0  0  0  0  0  0  0  0  0  0  0  0
   -3.2107    2.5859   -2.6577 N   0  0  0  0  0  0  0  0  0  0  0  0
   -1.4332    1.8027   -1.4641 O   0  0  0  0  0  0  0  0  0  0  0  0
   -1.6173    2.9380    1.3812 N   0  0  0  0  0  0  0  0  0  0  0  0
   -1.3624    4.2812    1.4350 C   0  0  0  0  0  0  0  0  0  0  0  0
   -1.0526    4.7893    2.6094 O   0  0  0  0  0  0  0  0  0  0  0  0
   -1.3593    5.3291    0.3957 C   0  0  2  0  0  0  0  0  0  0  0  0
    0.0396    5.8259    0.0848 C   0  0  0  0  0  0  0  0  0  0  0  0
    1.1262    4.8463    0.3425 C   0  0  0  0  0  0  0  0  0  0  0  0
    1.6363    4.1538   -0.9289 C   0  0  0  0  0  0  0  0  0  0  0  0
    2.5806    3.0205   -0.4980 C   0  0  0  0  0  0  0  0  0  0  0  0
    3.2268    2.3867   -1.6007 N   0  0  0  0  0  0  0  0  0  0  0  0
    3.2545    1.0373   -1.9505 C   0  0  0  0  0  0  0  0  0  0  0  0
    3.5303    0.7203   -3.1364 O   0  0  0  0  0  0  0  0  0  0  0  0
    2.9691   -0.1046   -0.9819 C   0  0  2  0  0  0  0  0  0  0  0  0
    4.0007   -1.1455   -1.0829 C   0  0  0  0  0  0  0  0  0  0  0  0
    5.3461   -0.5499   -0.7612 C   0  0  0  0  0  0  0  0  0  0  0  0
    6.2907   -0.2222   -1.6985 C   0  0  0  0  0  0  0  0  0  0  0  0
    7.3459    0.2810   -1.0318 N   0  0  0  0  0  0  0  0  0  0  0  0
    7.1382    0.2984    0.2960 C   0  0  0  0  0  0  0  0  0  0  0  0
    7.8815    0.7021    1.3986 C   0  0  0  0  0  0  0  0  0  0  0  0
    7.3748    0.5872    2.6792 C   0  0  0  0  0  0  0  0  0  0  0  0
    6.0947    0.0565    2.8663 C   0  0  0  0  0  0  0  0  0  0  0  0
    5.3706   -0.3390    1.7636 C   0  0  0  0  0  0  0  0  0  0  0  0
    5.8646   -0.2300    0.4761 C   0  0  0  0  0  0  0  0  0  0  0  0
    1.6003   -0.3833   -1.0013 N   0  0  0  0  0  0  0  0  0  0  0  0
    0.7003   -1.4297   -1.0897 C   0  0  0  0  0  0  0  0  0  0  0  0
   -0.1571   -1.3359   -2.0794 O   0  0  0  0  0  0  0  0  0  0  0  0
   -2.1401    6.4887    0.9553 C   0  0  0  0  0  0  0  0  0  0  0  0
   -2.3066    7.6566    0.1703 N   0  0  0  0  0  0  0  0  0  0  0  0
   -2.6601    6.4760    2.0977 O   0  0  0  0  0  0  0  0  0  0  0  0
    1.7622   -6.3039   -1.1590 H   0  0  0  0  0  0  0  0  0  0  0  0
    1.8291   -6.2555   -2.9922 H   0  0  0  0  0  0  0  0  0  0  0  0
    3.0104   -5.2941   -1.9433 H   0  0  0  0  0  0  0  0  0  0  0  0
    0.0280   -4.9136   -2.1700 H   0  0  0  0  0  0  0  0  0  0  0  0
    2.0794   -2.8213   -2.9045 H   0  0  0  0  0  0  0  0  0  0  0  0
    2.0460   -4.3457   -3.9203 H   0  0  0  0  0  0  0  0  0  0  0  0
    0.6517   -3.2884   -3.8784 H   0  0  0  0  0  0  0  0  0  0  0  0
    1.0453   -4.5992    0.1090 H   0  0  0  0  0  0  0  0  0  0  0  0
    2.3417   -3.6338   -0.5431 H   0  0  0  0  0  0  0  0  0  0  0  0
    0.7128   -2.4559    0.7939 H   0  0  0  0  0  0  0  0  0  0  0  0
   -1.0219   -3.9979    0.2433 H   0  0  0  0  0  0  0  0  0  0  0  0
   -2.9828   -0.6475   -1.1253 H   0  0  0  0  0  0  0  0  0  0  0  0
   -4.9255   -0.7271    0.3120 H   0  0  0  0  0  0  0  0  0  0  0  0
   -4.6873   -2.1256   -0.7576 H   0  0  0  0  0  0  0  0  0  0  0  0
   -2.4716   -2.5833    2.3518 H   0  0  0  0  0  0  0  0  0  0  0  0
   -3.5857   -4.3488    3.8466 H   0  0  0  0  0  0  0  0  0  0  0  0
   -6.0320   -5.6030    3.9762 H   0  0  0  0  0  0  0  0  0  0  0  0
   -8.2501   -5.7600    2.9118 H   0  0  0  0  0  0  0  0  0  0  0  0
   -8.7313   -4.3729    0.9676 H   0  0  0  0  0  0  0  0  0  0  0  0
   -7.0114   -2.8404    0.0921 H   0  0  0  0  0  0  0  0  0  0  0  0
   -1.2876   -0.9199    1.1144 H   0  0  0  0  0  0  0  0  0  0  0  0
   -3.6547    2.4309    1.8361 H   0  0  0  0  0  0  0  0  0  0  0  0
   -4.4107    2.1239   -0.3510 H   0  0  0  0  0  0  0  0  0  0  0  0
   -3.5432    3.6168   -0.1587 H   0  0  0  0  0  0  0  0  0  0  0  0
   -3.8145    3.4447   -2.7315 H   0  0  0  0  0  0  0  0  0  0  0  0
   -3.1100    2.0122   -3.5064 H   0  0  0  0  0  0  0  0  0  0  0  0
   -0.7575    2.3074    1.5916 H   0  0  0  0  0  0  0  0  0  0  0  0
   -1.8177    5.0974   -0.5513 H   0  0  0  0  0  0  0  0  0  0  0  0
    0.2474    6.7468    0.6823 H   0  0  0  0  0  0  0  0  0  0  0  0
    0.1273    6.1425   -0.9952 H   0  0  0  0  0  0  0  0  0  0  0  0
    2.0214    5.3200    0.8164 H   0  0  0  0  0  0  0  0  0  0  0  0
    0.7727    4.0217    0.9919 H   0  0  0  0  0  0  0  0  0  0  0  0
    2.1727    4.8774   -1.5729 H   0  0  0  0  0  0  0  0  0  0  0  0
    0.8208    3.7147   -1.5157 H   0  0  0  0  0  0  0  0  0  0  0  0
    2.1092    2.3642    0.2393 H   0  0  0  0  0  0  0  0  0  0  0  0
    3.4001    3.5487    0.0786 H   0  0  0  0  0  0  0  0  0  0  0  0
    3.7659    3.0494   -2.2485 H   0  0  0  0  0  0  0  0  0  0  0  0
    3.1804    0.4075    0.0187 H   0  0  0  0  0  0  0  0  0  0  0  0
    4.1060   -1.6836   -2.0128 H   0  0  0  0  0  0  0  0  0  0  0  0
    3.8879   -1.9331   -0.2723 H   0  0  0  0  0  0  0  0  0  0  0  0
    6.2326   -0.3352   -2.7930 H   0  0  0  0  0  0  0  0  0  0  0  0
    8.2348    0.6237   -1.4902 H   0  0  0  0  0  0  0  0  0  0  0  0
    8.8656    1.1050    1.1944 H   0  0  0  0  0  0  0  0  0  0  0  0
    7.9720    0.9074    3.5257 H   0  0  0  0  0  0  0  0  0  0  0  0
    5.7328   -0.0184    3.8828 H   0  0  0  0  0  0  0  0  0  0  0  0
    4.3836   -0.7466    1.9250 H   0  0  0  0  0  0  0  0  0  0  0  0
    1.0434    0.5853   -0.9200 H   0  0  0  0  0  0  0  0  0  0  0  0
   -3.1914    7.7535   -0.3706 H   0  0  0  0  0  0  0  0  0  0  0  0
   -1.5792    8.3959    0.1280 H   0  0  0  0  0  0  0  0  0  0  0  0
  1  2  1  0
  2  3  1  0
  2  4  1  0
  4  5  1  0
  5  6  1  0
  6  7  1  0
  7  8  2  0
  7  9  1  0
  9 10  1  0
 10 11  1  0
 11 12  2  0
 12 13  1  0
 13 14  1  0
 14 15  2  0
 15 16  1  0
 16 17  2  0
 17 18  1  0
 18 19  2  0
  9 20  1  0
 20 21  1  0
 21 22  2  0
 21 23  1  0
 23 24  1  0
 24 25  1  0
 25 26  1  0
 25 27  2  0
 23 28  1  0
 28 29  1  0
 29 30  2  0
 29 31  1  0
 31 32  1  0
 32 33  1  0
 33 34  1  0
 34 35  1  0
 35 36  1  0
 36 37  1  0
 37 38  2  0
 37 39  1  0
 39 40  1  0
 40 41  1  0
 41 42  2  0
 42 43  1  0
 43 44  1  0
 44 45  2  0
 45 46  1  0
 46 47  2  0
 47 48  1  0
 48 49  2  0
 39 50  1  0
 50 51  1  0
 51 52  2  0
 31 53  1  0
 53 54  1  0
 53 55  2  0
 51  5  1  0
 19 11  1  0
 49 41  1  0
 19 14  1  0
 49 44  1  0
  1 56  1  0
  1 57  1  0
  1 58  1  0
  2 59  1  0
  3 60  1  0
  3 61  1  0
  3 62  1  0
  4 63  1  0
  4 64  1  0
  5 65  1  1
  6 66  1  0
  9 67  1  6
 10 68  1  0
 10 69  1  0
 12 70  1  0
 13 71  1  0
 15 72  1  0
 16 73  1  0
 17 74  1  0
 18 75  1  0
 20 76  1  0
 23 77  1  1
 24 78  1  0
 24 79  1  0
 26 80  1  0
 26 81  1  0
 28 82  1  0
 31 83  1  6
 32 84  1  0
 32 85  1  0
 33 86  1  0
 33 87  1  0
 34 88  1  0
 34 89  1  0
 35 90  1  0
 35 91  1  0
 36 92  1  0
 39 93  1  1
 40 94  1  0
 40 95  1  0
 42 96  1  0
 43 97  1  0
 45 98  1  0
 46 99  1  0
 47100  1  0
 48101  1  0
 50102  1  0
 54103  1  0
 54104  1  0
M  END
$$$$
[H]N=C(N([H])[H])N([H])C([H])([H])C([H])([H])C([H])([H])[C@@]([H])(C(=O)N([H])[C@]([H])(C(=O)c1nc2c([H])c([H])c([H])c([H])c2s1)C([H])([H])c1c([H])c([H])c([H])c([H])c1[H])N([H])C(=O)[C@@]([H])(N([H])C(=O)[C@@]([H])(N([H])C(=O)[C@]([H])(N([H])C(=O)[C@]([H])(N([H])C(=O)[C@]([H])(N([H])C(=O)C([H])([H])C([H])([H])C(=N[H])N([H])[H])C([H])([H])c1c([H])c([H])c([H])c([H])c1[H])C([H])([H])O[H])C([H])([H])O[H])C([H])([H])C([H])([H])C(=O)N([H])[H])C([H])([H])C([H])([H])C(=O)N([H])[H]
     RDKit          3D

146149  0  0  0  0  0  0  0  0999 V2000
   -9.7600    5.0028    4.0566 N   0  0  0  0  0  0  0  0  0  0  0  0
   -9.1301    3.7463    4.3253 C   0  0  0  0  0  0  0  0  0  0  0  0
   -9.3824    3.1602    5.4398 N   0  0  0  0  0  0  0  0  0  0  0  0
   -8.2894    3.1984    3.3713 N   0  0  0  0  0  0  0  0  0  0  0  0
   -7.5950    1.9065    3.5037 C   0  0  0  0  0  0  0  0  0  0  0  0
   -6.9366    1.6096    2.2018 C   0  0  0  0  0  0  0  0  0  0  0  0
   -6.1950    0.3294    2.1147 C   0  0  0  0  0  0  0  0  0  0  0  0
   -5.6487    0.0668    0.7232 C   0  0  2  0  0  0  0  0  0  0  0  0
   -4.7508    1.1082    0.3467 N   0  0  0  0  0  0  0  0  0  0  0  0
   -3.3672    0.9729    0.0877 C   0  0  0  0  0  0  0  0  0  0  0  0
   -2.9131   -0.2135    0.2312 O   0  0  0  0  0  0  0  0  0  0  0  0
   -2.4627    2.0257   -0.3040 C   0  0  2  0  0  0  0  0  0  0  0  0
   -2.4793    2.3668   -1.8006 C   0  0  0  0  0  0  0  0  0  0  0  0
   -3.8149    2.9123   -2.2622 C   0  0  0  0  0  0  0  0  0  0  0  0
   -4.1227    4.2166   -1.6039 C   0  0  0  0  0  0  0  0  0  0  0  0
   -5.4316    4.7259   -1.4156 N   0  0  0  0  0  0  0  0  0  0  0  0
   -3.1690    4.9071   -1.1964 O   0  0  0  0  0  0  0  0  0  0  0  0
   -1.0840    1.8957    0.0731 N   0  0  0  0  0  0  0  0  0  0  0  0
    0.0221    1.8265   -0.7286 C   0  0  0  0  0  0  0  0  0  0  0  0
   -0.0025    1.7744   -1.9834 O   0  0  0  0  0  0  0  0  0  0  0  0
    1.3735    1.8183   -0.1230 C   0  0  2  0  0  0  0  0  0  0  0  0
    2.0257    3.1915   -0.4785 C   0  0  0  0  0  0  0  0  0  0  0  0
    3.4060    3.1810    0.1291 C   0  0  0  0  0  0  0  0  0  0  0  0
    4.1323    4.4472   -0.2118 C   0  0  0  0  0  0  0  0  0  0  0  0
    5.4669    4.6285    0.1544 N   0  0  0  0  0  0  0  0  0  0  0  0
    3.5300    5.3497   -0.8434 O   0  0  0  0  0  0  0  0  0  0  0  0
    2.2151    0.8065   -0.7780 N   0  0  0  0  0  0  0  0  0  0  0  0
    3.0084   -0.0604   -0.0139 C   0  0  0  0  0  0  0  0  0  0  0  0
    2.9056    0.0851    1.2643 O   0  0  0  0  0  0  0  0  0  0  0  0
    3.9238   -1.0672   -0.5021 C   0  0  1  0  0  0  0  0  0  0  0  0
    4.2464   -0.8726   -1.9808 C   0  0  0  0  0  0  0  0  0  0  0  0
    3.0690   -0.9866   -2.7609 O   0  0  0  0  0  0  0  0  0  0  0  0
    5.1318   -0.9354    0.3369 N   0  0  0  0  0  0  0  0  0  0  0  0
    6.3957   -1.2738   -0.0441 C   0  0  0  0  0  0  0  0  0  0  0  0
    6.7278   -1.7323   -1.1600 O   0  0  0  0  0  0  0  0  0  0  0  0
    7.5558   -1.1037    0.9085 C   0  0  1  0  0  0  0  0  0  0  0  0
    7.4963   -2.2351    1.9479 C   0  0  0  0  0  0  0  0  0  0  0  0
    6.3549   -2.1301    2.7078 O   0  0  0  0  0  0  0  0  0  0  0  0
    8.7537   -1.2380    0.1444 N   0  0  0  0  0  0  0  0  0  0  0  0
    9.9959   -0.6135    0.3414 C   0  0  0  0  0  0  0  0  0  0  0  0
   10.1974    0.1864    1.3146 O   0  0  0  0  0  0  0  0  0  0  0  0
   11.1196   -0.8914   -0.6190 C   0  0  1  0  0  0  0  0  0  0  0  0
   11.1932    0.1635   -1.6553 C   0  0  0  0  0  0  0  0  0  0  0  0
   11.4365    1.5437   -1.1707 C   0  0  0  0  0  0  0  0  0  0  0  0
   12.7138    2.0449   -1.0566 C   0  0  0  0  0  0  0  0  0  0  0  0
   12.8843    3.3392   -0.6042 C   0  0  0  0  0  0  0  0  0  0  0  0
   11.8562    4.1834   -0.2516 C   0  0  0  0  0  0  0  0  0  0  0  0
   10.5754    3.6409   -0.3793 C   0  0  0  0  0  0  0  0  0  0  0  0
   10.3860    2.3697   -0.8231 C   0  0  0  0  0  0  0  0  0  0  0  0
   12.3503   -1.0220    0.1428 N   0  0  0  0  0  0  0  0  0  0  0  0
   12.7659   -2.3096    0.4815 C   0  0  0  0  0  0  0  0  0  0  0  0
   12.0451   -3.3214    0.1133 O   0  0  0  0  0  0  0  0  0  0  0  0
   14.0026   -2.6512    1.2538 C   0  0  0  0  0  0  0  0  0  0  0  0
   14.0412   -4.1458    1.5212 C   0  0  0  0  0  0  0  0  0  0  0  0
   14.1003   -4.9219    0.2661 C   0  0  0  0  0  0  0  0  0  0  0  0
   13.5636   -6.2396    0.3066 N   0  0  0  0  0  0  0  0  0  0  0  0
   14.6247   -4.4066   -0.7935 N   0  0  0  0  0  0  0  0  0  0  0  0
   -6.8078   -0.0876   -0.2386 C   0  0  0  0  0  0  0  0  0  0  0  0
   -6.7517    0.7564   -1.1796 O   0  0  0  0  0  0  0  0  0  0  0  0
   -7.7864   -1.0331   -0.0836 N   0  0  0  0  0  0  0  0  0  0  0  0
   -8.7853   -1.9803    0.0539 C   0  0  1  0  0  0  0  0  0  0  0  0
  -10.0063   -1.6864    0.8210 C   0  0  0  0  0  0  0  0  0  0  0  0
  -10.8721   -0.6031    0.3930 C   0  0  0  0  0  0  0  0  0  0  0  0
  -11.9250   -0.6952   -0.4841 C   0  0  0  0  0  0  0  0  0  0  0  0
  -12.6916    0.3937   -0.8182 C   0  0  0  0  0  0  0  0  0  0  0  0
  -12.4465    1.6348   -0.2958 C   0  0  0  0  0  0  0  0  0  0  0  0
  -11.4007    1.7708    0.5855 C   0  0  0  0  0  0  0  0  0  0  0  0
  -10.6460    0.6645    0.9071 C   0  0  0  0  0  0  0  0  0  0  0  0
   -9.0315   -2.6558   -1.2704 C   0  0  0  0  0  0  0  0  0  0  0  0
   -8.3554   -2.2468   -2.2386 O   0  0  0  0  0  0  0  0  0  0  0  0
   -9.9695   -3.7331   -1.5130 C   0  0  0  0  0  0  0  0  0  0  0  0
  -10.8112   -4.3703   -0.7323 N   0  0  0  0  0  0  0  0  0  0  0  0
  -11.5628   -5.3339   -1.2014 C   0  0  0  0  0  0  0  0  0  0  0  0
  -12.4937   -6.0788   -0.4401 C   0  0  0  0  0  0  0  0  0  0  0  0
  -13.2389   -7.0723   -1.0081 C   0  0  0  0  0  0  0  0  0  0  0  0
  -13.1142   -7.3929   -2.3511 C   0  0  0  0  0  0  0  0  0  0  0  0
  -12.2056   -6.6720   -3.1037 C   0  0  0  0  0  0  0  0  0  0  0  0
  -11.4492   -5.6598   -2.5093 C   0  0  0  0  0  0  0  0  0  0  0  0
  -10.2486   -4.5464   -3.0263 S   0  0  0  0  0  0  0  0  0  0  0  0
   -9.7770    5.3988    3.0825 H   0  0  0  0  0  0  0  0  0  0  0  0
  -10.2076    5.5694    4.7987 H   0  0  0  0  0  0  0  0  0  0  0  0
  -10.0263    3.6059    6.1173 H   0  0  0  0  0  0  0  0  0  0  0  0
   -8.0996    3.7099    2.4616 H   0  0  0  0  0  0  0  0  0  0  0  0
   -8.3498    1.1498    3.7920 H   0  0  0  0  0  0  0  0  0  0  0  0
   -6.8691    1.9631    4.3505 H   0  0  0  0  0  0  0  0  0  0  0  0
   -7.6313    1.7092    1.3449 H   0  0  0  0  0  0  0  0  0  0  0  0
   -6.1562    2.4310    2.0477 H   0  0  0  0  0  0  0  0  0  0  0  0
   -5.2925    0.3001    2.7915 H   0  0  0  0  0  0  0  0  0  0  0  0
   -6.8348   -0.4896    2.4908 H   0  0  0  0  0  0  0  0  0  0  0  0
   -5.1383   -0.8959    0.7448 H   0  0  0  0  0  0  0  0  0  0  0  0
   -5.1696    2.0686    0.2695 H   0  0  0  0  0  0  0  0  0  0  0  0
   -2.7579    3.0304    0.2202 H   0  0  0  0  0  0  0  0  0  0  0  0
   -1.7631    3.1734   -2.0039 H   0  0  0  0  0  0  0  0  0  0  0  0
   -2.3138    1.4339   -2.3649 H   0  0  0  0  0  0  0  0  0  0  0  0
   -3.7513    3.1109   -3.3407 H   0  0  0  0  0  0  0  0  0  0  0  0
   -4.6061    2.2031   -2.0022 H   0  0  0  0  0  0  0  0  0  0  0  0
   -6.1680    4.1647   -0.9532 H   0  0  0  0  0  0  0  0  0  0  0  0
   -5.7090    5.6996   -1.7421 H   0  0  0  0  0  0  0  0  0  0  0  0
   -0.8779    1.8410    1.1464 H   0  0  0  0  0  0  0  0  0  0  0  0
    1.3456    1.6281    0.9288 H   0  0  0  0  0  0  0  0  0  0  0  0
    1.4013    4.0249   -0.1422 H   0  0  0  0  0  0  0  0  0  0  0  0
    2.1569    3.2395   -1.5943 H   0  0  0  0  0  0  0  0  0  0  0  0
    3.3777    3.1218    1.2398 H   0  0  0  0  0  0  0  0  0  0  0  0
    3.9545    2.3103   -0.2881 H   0  0  0  0  0  0  0  0  0  0  0  0
    6.1533    4.8908   -0.6014 H   0  0  0  0  0  0  0  0  0  0  0  0
    5.8723    4.5353    1.0998 H   0  0  0  0  0  0  0  0  0  0  0  0
    2.2019    0.7929   -1.7938 H   0  0  0  0  0  0  0  0  0  0  0  0
    3.5234   -2.1035   -0.4691 H   0  0  0  0  0  0  0  0  0  0  0  0
    4.8689   -1.7440   -2.3537 H   0  0  0  0  0  0  0  0  0  0  0  0
    4.7253    0.0810   -2.2176 H   0  0  0  0  0  0  0  0  0  0  0  0
    2.7349   -1.9308   -2.6437 H   0  0  0  0  0  0  0  0  0  0  0  0
    4.9197   -0.5484    1.3262 H   0  0  0  0  0  0  0  0  0  0  0  0
    7.4322   -0.1834    1.4769 H   0  0  0  0  0  0  0  0  0  0  0  0
    8.3693   -2.0783    2.5891 H   0  0  0  0  0  0  0  0  0  0  0  0
    7.5460   -3.2304    1.4247 H   0  0  0  0  0  0  0  0  0  0  0  0
    6.3881   -1.5182    3.4624 H   0  0  0  0  0  0  0  0  0  0  0  0
    8.6911   -1.9297   -0.6790 H   0  0  0  0  0  0  0  0  0  0  0  0
   10.8297   -1.8980   -1.0563 H   0  0  0  0  0  0  0  0  0  0  0  0
   11.9504   -0.0698   -2.4141 H   0  0  0  0  0  0  0  0  0  0  0  0
   10.2254    0.2096   -2.2356 H   0  0  0  0  0  0  0  0  0  0  0  0
   13.5597    1.4005   -1.3360 H   0  0  0  0  0  0  0  0  0  0  0  0
   13.8832    3.7109   -0.5353 H   0  0  0  0  0  0  0  0  0  0  0  0
   11.9869    5.2000    0.0951 H   0  0  0  0  0  0  0  0  0  0  0  0
    9.7292    4.2738   -0.1048 H   0  0  0  0  0  0  0  0  0  0  0  0
    9.3627    1.9975   -0.8860 H   0  0  0  0  0  0  0  0  0  0  0  0
   12.8727   -0.1975    0.4106 H   0  0  0  0  0  0  0  0  0  0  0  0
   14.8954   -2.2928    0.6833 H   0  0  0  0  0  0  0  0  0  0  0  0
   13.9726   -2.0847    2.1977 H   0  0  0  0  0  0  0  0  0  0  0  0
   13.0899   -4.3884    2.0183 H   0  0  0  0  0  0  0  0  0  0  0  0
   14.8642   -4.4120    2.2037 H   0  0  0  0  0  0  0  0  0  0  0  0
   14.1421   -7.0424    0.0899 H   0  0  0  0  0  0  0  0  0  0  0  0
   12.5583   -6.4095    0.5621 H   0  0  0  0  0  0  0  0  0  0  0  0
   14.6369   -5.0319   -1.6548 H   0  0  0  0  0  0  0  0  0  0  0  0
   -8.4764   -0.4814   -1.1154 H   0  0  0  0  0  0  0  0  0  0  0  0
   -8.2887   -2.8682    0.6136 H   0  0  0  0  0  0  0  0  0  0  0  0
  -10.6267   -2.5957    0.9537 H   0  0  0  0  0  0  0  0  0  0  0  0
   -9.6617   -1.4831    1.9048 H   0  0  0  0  0  0  0  0  0  0  0  0
  -12.1587   -1.6371   -0.9222 H   0  0  0  0  0  0  0  0  0  0  0  0
  -13.5158    0.3017   -1.5084 H   0  0  0  0  0  0  0  0  0  0  0  0
  -13.0545    2.4860   -0.5546 H   0  0  0  0  0  0  0  0  0  0  0  0
  -11.1760    2.7460    1.0201 H   0  0  0  0  0  0  0  0  0  0  0  0
   -9.8443    0.8392    1.5989 H   0  0  0  0  0  0  0  0  0  0  0  0
  -12.6489   -5.8670    0.6092 H   0  0  0  0  0  0  0  0  0  0  0  0
  -13.9574   -7.6445   -0.3997 H   0  0  0  0  0  0  0  0  0  0  0  0
  -13.7327   -8.1757   -2.7408 H   0  0  0  0  0  0  0  0  0  0  0  0
  -12.0388   -6.8528   -4.1452 H   0  0  0  0  0  0  0  0  0  0  0  0
  1  2  1  0
  2  3  2  3
  2  4  1  0
  4  5  1  0
  5  6  1  0
  6  7  1  0
  7  8  1  0
  8  9  1  0
  9 10  1  0
 10 11  2  0
 10 12  1  0
 12 13  1  0
 13 14  1  0
 14 15  1  0
 15 16  1  0
 15 17  2  0
 12 18  1  0
 18 19  1  0
 19 20  2  0
 19 21  1  0
 21 22  1  0
 22 23  1  0
 23 24  1  0
 24 25  1  0
 24 26  2  0
 21 27  1  0
 27 28  1  0
 28 29  2  0
 28 30  1  0
 30 31  1  0
 31 32  1  0
 30 33  1  0
 33 34  1  0
 34 35  2  0
 34 36  1  0
 36 37  1  0
 37 38  1  0
 36 39  1  0
 39 40  1  0
 40 41  2  0
 40 42  1  0
 42 43  1  0
 43 44  1  0
 44 45  2  0
 45 46  1  0
 46 47  2  0
 47 48  1  0
 48 49  2  0
 42 50  1  0
 50 51  1  0
 51 52  2  0
 51 53  1  0
 53 54  1  0
 54 55  1  0
 55 56  1  0
 55 57  2  3
  8 58  1  0
 58 59  2  0
 58 60  1  0
 60 61  1  0
 61 62  1  0
 62 63  1  0
 63 64  2  0
 64 65  1  0
 65 66  2  0
 66 67  1  0
 67 68  2  0
 61 69  1  0
 69 70  2  0
 69 71  1  0
 71 72  2  0
 72 73  1  0
 73 74  2  0
 74 75  1  0
 75 76  2  0
 76 77  1  0
 77 78  2  0
 78 79  1  0
 49 44  1  0
 68 63  1  0
 79 71  1  0
 78 73  1  0
  1 80  1  0
  1 81  1  0
  3 82  1  0
  4 83  1  0
  5 84  1  0
  5 85  1  0
  6 86  1  0
  6 87  1  0
  7 88  1  0
  7 89  1  0
  8 90  1  1
  9 91  1  0
 12 92  1  1
 13 93  1  0
 13 94  1  0
 14 95  1  0
 14 96  1  0
 16 97  1  0
 16 98  1  0
 18 99  1  0
 21100  1  1
 22101  1  0
 22102  1  0
 23103  1  0
 23104  1  0
 25105  1  0
 25106  1  0
 27107  1  0
 30108  1  6
 31109  1  0
 31110  1  0
 32111  1  0
 33112  1  0
 36113  1  1
 37114  1  0
 37115  1  0
 38116  1  0
 39117  1  0
 42118  1  6
 43119  1  0
 43120  1  0
 45121  1  0
 46122  1  0
 47123  1  0
 48124  1  0
 49125  1  0
 50126  1  0
 53127  1  0
 53128  1  0
 54129  1  0
 54130  1  0
 56131  1  0
 56132  1  0
 57133  1  0
 60134  1  0
 61135  1  1
 62136  1  0
 62137  1  0
 64138  1  0
 65139  1  0
 66140  1  0
 67141  1  0
 68142  1  0
 74143  1  0
 75144  1  0
 76145  1  0
 77146  1  0
M  END
$$$$
[H]c1nc(N([H])c2c([H])c([H])c(N3C([H])([H])C([H])([H])C([H])(N4C([H])([H])C([H])([H])N(C([H])([H])[H])C([H])([H])C([H])([H])C4([H])[H])C([H])([H])C3([H])[H])c([H])c2OC([H])([H])[H])nc(N([H])c2c([H])c([H])c([H])c([H])c2S(=O)(=O)C([H])(C([H])([H])[H])C([H])([H])[H])c1Cl
     RDKit          3D

 85 89  0  0  0  0  0  0  0  0999 V2000
   -0.0606   -0.9681    3.3932 C   0  0  0  0  0  0  0  0  0  0  0  0
    0.7152   -0.6915    2.2205 O   0  0  0  0  0  0  0  0  0  0  0  0
    0.0983   -0.1007    1.1505 C   0  0  0  0  0  0  0  0  0  0  0  0
   -1.2147    0.2307    1.1617 C   0  0  0  0  0  0  0  0  0  0  0  0
   -1.8650    0.8303    0.0907 C   0  0  0  0  0  0  0  0  0  0  0  0
   -1.0982    1.0825   -1.0178 C   0  0  0  0  0  0  0  0  0  0  0  0
    0.2736    0.7575   -1.0823 C   0  0  0  0  0  0  0  0  0  0  0  0
    0.8670    0.1668    0.0030 C   0  0  0  0  0  0  0  0  0  0  0  0
    2.2408   -0.1819    0.0167 N   0  0  0  0  0  0  0  0  0  0  0  0
    3.1753   -0.0377   -1.0172 C   0  0  0  0  0  0  0  0  0  0  0  0
    3.0055    0.4455   -2.2340 N   0  0  0  0  0  0  0  0  0  0  0  0
    3.9542    0.5492   -3.1663 C   0  0  0  0  0  0  0  0  0  0  0  0
    5.2121    0.1216   -2.8443 C   0  0  0  0  0  0  0  0  0  0  0  0
    6.5347    0.2024   -3.9688 Cl  0  0  0  0  0  0  0  0  0  0  0  0
    5.4785   -0.4090   -1.5619 C   0  0  0  0  0  0  0  0  0  0  0  0
    6.7659   -0.8215   -1.2452 N   0  0  0  0  0  0  0  0  0  0  0  0
    7.2264   -1.3812   -0.0512 C   0  0  0  0  0  0  0  0  0  0  0  0
    6.4018   -1.8353    0.9645 C   0  0  0  0  0  0  0  0  0  0  0  0
    6.8846   -2.4384    2.1338 C   0  0  0  0  0  0  0  0  0  0  0  0
    8.2416   -2.5764    2.2580 C   0  0  0  0  0  0  0  0  0  0  0  0
    9.0770   -2.1355    1.2677 C   0  0  0  0  0  0  0  0  0  0  0  0
    8.6142   -1.5427    0.1194 C   0  0  0  0  0  0  0  0  0  0  0  0
    9.7499   -0.9731   -1.0729 S   0  0  0  0  0  0  0  0  0  0  0  0
   11.1611   -1.3689   -0.5745 O   0  0  0  0  0  0  0  0  0  0  0  0
    9.5664   -1.6791   -2.3850 O   0  0  0  0  0  0  0  0  0  0  0  0
    9.7208    0.7699   -1.3105 C   0  0  0  0  0  0  0  0  0  0  0  0
   10.7993    1.0977   -2.3372 C   0  0  0  0  0  0  0  0  0  0  0  0
   10.1532    1.4682   -0.0125 C   0  0  0  0  0  0  0  0  0  0  0  0
    4.4524   -0.4589   -0.7256 N   0  0  0  0  0  0  0  0  0  0  0  0
   -3.2421    1.1656    0.1295 N   0  0  0  0  0  0  0  0  0  0  0  0
   -3.9880    1.8505   -0.8686 C   0  0  0  0  0  0  0  0  0  0  0  0
   -5.1781    1.0316   -1.3838 C   0  0  0  0  0  0  0  0  0  0  0  0
   -5.7764    0.3342   -0.2123 C   0  0  0  0  0  0  0  0  0  0  0  0
   -5.4261    1.0256    1.0899 C   0  0  0  0  0  0  0  0  0  0  0  0
   -3.9597    0.7464    1.3479 C   0  0  0  0  0  0  0  0  0  0  0  0
   -7.2001    0.1149   -0.3356 N   0  0  0  0  0  0  0  0  0  0  0  0
   -7.5267   -0.7331   -1.4430 C   0  0  0  0  0  0  0  0  0  0  0  0
   -8.6246   -1.6664   -1.0388 C   0  0  0  0  0  0  0  0  0  0  0  0
   -9.2742   -1.3046    0.2719 C   0  0  0  0  0  0  0  0  0  0  0  0
   -9.9415   -0.0528    0.2813 N   0  0  0  0  0  0  0  0  0  0  0  0
  -10.9177    0.1514   -0.7316 C   0  0  0  0  0  0  0  0  0  0  0  0
   -9.1573    1.0772    0.6363 C   0  0  0  0  0  0  0  0  0  0  0  0
   -7.9820    1.3154   -0.2805 C   0  0  0  0  0  0  0  0  0  0  0  0
   -0.6289   -0.0818    3.7289 H   0  0  0  0  0  0  0  0  0  0  0  0
   -0.8389   -1.7459    3.1545 H   0  0  0  0  0  0  0  0  0  0  0  0
    0.5704   -1.3395    4.2148 H   0  0  0  0  0  0  0  0  0  0  0  0
   -1.8336    0.0301    2.0476 H   0  0  0  0  0  0  0  0  0  0  0  0
   -1.4896    1.5436   -1.9130 H   0  0  0  0  0  0  0  0  0  0  0  0
    0.7868    0.9989   -1.9991 H   0  0  0  0  0  0  0  0  0  0  0  0
    2.6245   -0.6145    0.9402 H   0  0  0  0  0  0  0  0  0  0  0  0
    3.7619    0.9570   -4.1594 H   0  0  0  0  0  0  0  0  0  0  0  0
    7.4893   -0.7123   -2.0271 H   0  0  0  0  0  0  0  0  0  0  0  0
    5.3477   -1.7530    0.8902 H   0  0  0  0  0  0  0  0  0  0  0  0
    6.1838   -2.7626    2.8737 H   0  0  0  0  0  0  0  0  0  0  0  0
    8.6542   -3.0404    3.1522 H   0  0  0  0  0  0  0  0  0  0  0  0
   10.1512   -2.2793    1.4353 H   0  0  0  0  0  0  0  0  0  0  0  0
    8.7460    1.1238   -1.6239 H   0  0  0  0  0  0  0  0  0  0  0  0
   10.4327    1.9541   -2.9737 H   0  0  0  0  0  0  0  0  0  0  0  0
   11.7253    1.4695   -1.8518 H   0  0  0  0  0  0  0  0  0  0  0  0
   10.9801    0.2329   -3.0079 H   0  0  0  0  0  0  0  0  0  0  0  0
   10.0159    2.5654   -0.2127 H   0  0  0  0  0  0  0  0  0  0  0  0
    9.4983    1.2019    0.8339 H   0  0  0  0  0  0  0  0  0  0  0  0
   11.2026    1.2514    0.2206 H   0  0  0  0  0  0  0  0  0  0  0  0
   -3.3618    2.1187   -1.7310 H   0  0  0  0  0  0  0  0  0  0  0  0
   -4.4063    2.8073   -0.4870 H   0  0  0  0  0  0  0  0  0  0  0  0
   -4.7509    0.2797   -2.0752 H   0  0  0  0  0  0  0  0  0  0  0  0
   -5.8859    1.7005   -1.9145 H   0  0  0  0  0  0  0  0  0  0  0  0
   -5.3152   -0.6833   -0.1389 H   0  0  0  0  0  0  0  0  0  0  0  0
   -6.0585    0.5867    1.8974 H   0  0  0  0  0  0  0  0  0  0  0  0
   -5.5411    2.1151    1.0568 H   0  0  0  0  0  0  0  0  0  0  0  0
   -3.8155   -0.3306    1.4498 H   0  0  0  0  0  0  0  0  0  0  0  0
   -3.6562    1.3445    2.2202 H   0  0  0  0  0  0  0  0  0  0  0  0
   -6.5858   -1.2789   -1.7397 H   0  0  0  0  0  0  0  0  0  0  0  0
   -7.7864   -0.1195   -2.3353 H   0  0  0  0  0  0  0  0  0  0  0  0
   -9.3677   -1.8349   -1.8318 H   0  0  0  0  0  0  0  0  0  0  0  0
   -8.1391   -2.6731   -0.8711 H   0  0  0  0  0  0  0  0  0  0  0  0
  -10.0584   -2.1001    0.4452 H   0  0  0  0  0  0  0  0  0  0  0  0
   -8.5904   -1.3720    1.1173 H   0  0  0  0  0  0  0  0  0  0  0  0
  -11.0317   -0.7162   -1.4286 H   0  0  0  0  0  0  0  0  0  0  0  0
  -11.9203    0.2242   -0.2176 H   0  0  0  0  0  0  0  0  0  0  0  0
  -10.8204    1.1184   -1.2802 H   0  0  0  0  0  0  0  0  0  0  0  0
   -8.7467    0.9257    1.6552 H   0  0  0  0  0  0  0  0  0  0  0  0
   -9.8267    1.9617    0.6929 H   0  0  0  0  0  0  0  0  0  0  0  0
   -8.2795    1.6256   -1.2974 H   0  0  0  0  0  0  0  0  0  0  0  0
   -7.3718    2.1225    0.1718 H   0  0  0  0  0  0  0  0  0  0  0  0
  1  2  1  0
  2  3  1  0
  3  4  2  0
  4  5  1  0
  5  6  2  0
  6  7  1  0
  7  8  2  0
  8  9  1  0
  9 10  1  0
 10 11  2  0
 11 12  1  0
 12 13  2  0
 13 14  1  0
 13 15  1  0
 15 16  1  0
 16 17  1  0
 17 18  2  0
 18 19  1  0
 19 20  2  0
 20 21  1  0
 21 22  2  0
 22 23  1  0
 23 24  2  0
 23 25  2  0
 23 26  1  0
 26 27  1  0
 26 28  1  0
 15 29  2  0
  5 30  1  0
 30 31  1  0
 31 32  1  0
 32 33  1  0
 33 34  1  0
 34 35  1  0
 33 36  1  0
 36 37  1  0
 37 38  1  0
 38 39  1  0
 39 40  1  0
 40 41  1  0
 40 42  1  0
 42 43  1  0
  8  3  1  0
 29 10  1  0
 35 30  1  0
 43 36  1  0
 22 17  1  0
  1 44  1  0
  1 45  1  0
  1 46  1  0
  4 47  1  0
  6 48  1  0
  7 49  1  0
  9 50  1  0
 12 51  1  0
 16 52  1  0
 18 53  1  0
 19 54  1  0
 20 55  1  0
 21 56  1  0
 26 57  1  0
 27 58  1  0
 27 59  1  0
 27 60  1  0
 28 61  1  0
 28 62  1  0
 28 63  1  0
 31 64  1  0
 31 65  1  0
 32 66  1  0
 32 67  1  0
 33 68  1  0
 34 69  1  0
 34 70  1  0
 35 71  1  0
 35 72  1  0
 37 73  1  0
 37 74  1  0
 38 75  1  0
 38 76  1  0
 39 77  1  0
 39 78  1  0
 41 79  1  0
 41 80  1  0
 41 81  1  0
 42 82  1  0
 42 83  1  0
 43 84  1  0
 43 85  1  0
M  END
$$$$
[H]c1c([H])c([H])c(-c2c([H])c3c([H])c(N([H])S(=O)(=O)C([H])(C([H])([H])[H])C([H])([H])[H])c([H])c([H])c3n2[H])c([H])c1[H]
     RDKit          3D

 40 42  0  0  0  0  0  0  0  0999 V2000
   -4.8856    2.1249    0.5962 C   0  0  0  0  0  0  0  0  0  0  0  0
   -4.1767    0.8668    0.1601 C   0  0  0  0  0  0  0  0  0  0  0  0
   -4.9785    0.1457   -0.8896 C   0  0  0  0  0  0  0  0  0  0  0  0
   -3.8928   -0.1425    1.5914 S   0  0  0  0  0  0  0  0  0  0  0  0
   -5.2133   -0.5358    2.2379 O   0  0  0  0  0  0  0  0  0  0  0  0
   -3.1703    0.6748    2.6153 O   0  0  0  0  0  0  0  0  0  0  0  0
   -3.0071   -1.5612    1.2124 N   0  0  0  0  0  0  0  0  0  0  0  0
   -1.6970   -1.4727    0.6797 C   0  0  0  0  0  0  0  0  0  0  0  0
   -1.3857   -2.2814   -0.4270 C   0  0  0  0  0  0  0  0  0  0  0  0
   -0.1429   -2.2471   -0.9961 C   0  0  0  0  0  0  0  0  0  0  0  0
    0.8340   -1.4107   -0.4884 C   0  0  0  0  0  0  0  0  0  0  0  0
    2.1100   -1.1544   -0.8121 N   0  0  0  0  0  0  0  0  0  0  0  0
    2.6755   -0.2405   -0.0112 C   0  0  0  0  0  0  0  0  0  0  0  0
    1.6944    0.1225    0.8983 C   0  0  0  0  0  0  0  0  0  0  0  0
    0.5592   -0.5964    0.6070 C   0  0  0  0  0  0  0  0  0  0  0  0
   -0.7065   -0.6498    1.1648 C   0  0  0  0  0  0  0  0  0  0  0  0
    4.0413    0.2755   -0.0725 C   0  0  0  0  0  0  0  0  0  0  0  0
    4.5188    1.2183    0.8055 C   0  0  0  0  0  0  0  0  0  0  0  0
    5.8304    1.6951    0.7247 C   0  0  0  0  0  0  0  0  0  0  0  0
    6.6638    1.2006   -0.2677 C   0  0  0  0  0  0  0  0  0  0  0  0
    6.1935    0.2559   -1.1515 C   0  0  0  0  0  0  0  0  0  0  0  0
    4.8957   -0.1934   -1.0449 C   0  0  0  0  0  0  0  0  0  0  0  0
   -5.9146    2.1858    0.1575 H   0  0  0  0  0  0  0  0  0  0  0  0
   -4.3544    3.0242    0.2092 H   0  0  0  0  0  0  0  0  0  0  0  0
   -4.9180    2.1968    1.7041 H   0  0  0  0  0  0  0  0  0  0  0  0
   -3.1866    1.1468   -0.2396 H   0  0  0  0  0  0  0  0  0  0  0  0
   -4.4667    0.1549   -1.8722 H   0  0  0  0  0  0  0  0  0  0  0  0
   -5.9586    0.6644   -1.0510 H   0  0  0  0  0  0  0  0  0  0  0  0
   -5.1579   -0.9264   -0.6198 H   0  0  0  0  0  0  0  0  0  0  0  0
   -3.4273   -2.5062    1.3716 H   0  0  0  0  0  0  0  0  0  0  0  0
   -2.1666   -2.9320   -0.8115 H   0  0  0  0  0  0  0  0  0  0  0  0
    0.0746   -2.8713   -1.8390 H   0  0  0  0  0  0  0  0  0  0  0  0
    2.6122   -1.6262   -1.6151 H   0  0  0  0  0  0  0  0  0  0  0  0
    1.8399    0.8494    1.6844 H   0  0  0  0  0  0  0  0  0  0  0  0
   -0.9236   -0.0244    2.0134 H   0  0  0  0  0  0  0  0  0  0  0  0
    3.8811    1.6086    1.5789 H   0  0  0  0  0  0  0  0  0  0  0  0
    6.1994    2.4400    1.4225 H   0  0  0  0  0  0  0  0  0  0  0  0
    7.6898    1.5597   -0.3473 H   0  0  0  0  0  0  0  0  0  0  0  0
    6.8642   -0.1062   -1.9077 H   0  0  0  0  0  0  0  0  0  0  0  0
    4.5531   -0.9323   -1.7485 H   0  0  0  0  0  0  0  0  0  0  0  0
  1  2  1  0
  2  3  1  0
  2  4  1  0
  4  5  2  0
  4  6  2  0
  4  7  1  0
  7  8  1  0
  8  9  2  0
  9 10  1  0
 10 11  2  0
 11 12  1  0
 12 13  1  0
 13 14  2  0
 14 15  1  0
 15 16  2  0
 13 17  1  0
 17 18  2  0
 18 19  1  0
 19 20  2  0
 20 21  1  0
 21 22  2  0
 16  8  1  0
 22 17  1  0
 15 11  1  0
  1 23  1  0
  1 24  1  0
  1 25  1  0
  2 26  1  0
  3 27  1  0
  3 28  1  0
  3 29  1  0
  7 30  1  0
  9 31  1  0
 10 32  1  0
 12 33  1  0
 14 34  1  0
 16 35  1  0
 18 36  1  0
 19 37  1  0
 20 38  1  0
 21 39  1  0
 22 40  1  0
M  END
$$$$
[H]c1c([H])c(C([H])([H])C([H])(C([H])([H])[H])C([H])([H])[H])c(Cl)c([H])c1Oc1c([H])c2c(c([H])c1OC([H])([H])C([H])([H])OC([H])([H])C([H])([H])[H])N([H])[C@@]([H])(C1([H])C([H])([H])C([H])([H])C([H])([H])C1([H])[H])C(=O)N([H])[C@]2([H])C([H])([H])OC([H])([H])[H]
     RDKit          3D

 79 82  0  0  0  0  0  0  0  0999 V2000
    0.2348    5.5206    3.6346 C   0  0  0  0  0  0  0  0  0  0  0  0
   -0.3863    5.5124    2.2746 C   0  0  0  0  0  0  0  0  0  0  0  0
    0.4714    4.9534    1.3013 O   0  0  0  0  0  0  0  0  0  0  0  0
   -0.2548    5.0346    0.0916 C   0  0  0  0  0  0  0  0  0  0  0  0
    0.5416    4.4691   -1.0350 C   0  0  0  0  0  0  0  0  0  0  0  0
    0.9261    3.1583   -0.9546 O   0  0  0  0  0  0  0  0  0  0  0  0
    0.2405    1.9845   -0.8887 C   0  0  0  0  0  0  0  0  0  0  0  0
   -1.1327    1.8775   -0.9080 C   0  0  0  0  0  0  0  0  0  0  0  0
   -1.7630    0.6268   -0.8331 C   0  0  0  0  0  0  0  0  0  0  0  0
   -3.1827    0.7763   -0.8652 N   0  0  0  0  0  0  0  0  0  0  0  0
   -4.1485   -0.1385   -0.3568 C   0  0  1  0  0  0  0  0  0  0  0  0
   -5.5329    0.4028   -0.3770 C   0  0  0  0  0  0  0  0  0  0  0  0
   -6.1033    0.7787   -1.6885 C   0  0  0  0  0  0  0  0  0  0  0  0
   -7.5485    1.1178   -1.2897 C   0  0  0  0  0  0  0  0  0  0  0  0
   -7.8533    0.2536   -0.0816 C   0  0  0  0  0  0  0  0  0  0  0  0
   -6.5477   -0.4538    0.2810 C   0  0  0  0  0  0  0  0  0  0  0  0
   -3.9567   -1.4237   -1.0377 C   0  0  0  0  0  0  0  0  0  0  0  0
   -4.8682   -1.9590   -1.7076 O   0  0  0  0  0  0  0  0  0  0  0  0
   -2.7545   -2.1855   -1.0177 N   0  0  0  0  0  0  0  0  0  0  0  0
   -1.4062   -1.9160   -0.6517 C   0  0  2  0  0  0  0  0  0  0  0  0
   -1.0535   -2.5539    0.6771 C   0  0  0  0  0  0  0  0  0  0  0  0
   -1.8468   -2.1004    1.7042 O   0  0  0  0  0  0  0  0  0  0  0  0
   -1.4570   -2.7269    2.8825 C   0  0  0  0  0  0  0  0  0  0  0  0
   -0.9815   -0.5094   -0.7396 C   0  0  0  0  0  0  0  0  0  0  0  0
    0.4025   -0.4371   -0.7181 C   0  0  0  0  0  0  0  0  0  0  0  0
    0.9871    0.7988   -0.7923 C   0  0  0  0  0  0  0  0  0  0  0  0
    2.3890    0.9495   -0.7749 O   0  0  0  0  0  0  0  0  0  0  0  0
    3.2269   -0.1515   -0.6744 C   0  0  0  0  0  0  0  0  0  0  0  0
    3.5987   -0.5858    0.5763 C   0  0  0  0  0  0  0  0  0  0  0  0
    4.4226   -1.6639    0.7309 C   0  0  0  0  0  0  0  0  0  0  0  0
    4.9207   -2.3688   -0.3789 C   0  0  0  0  0  0  0  0  0  0  0  0
    5.8479   -3.4646   -0.0698 C   0  0  0  0  0  0  0  0  0  0  0  0
    7.2737   -3.0784    0.0069 C   0  0  0  0  0  0  0  0  0  0  0  0
    8.0902   -4.3419    0.3284 C   0  0  0  0  0  0  0  0  0  0  0  0
    7.8402   -2.3848   -1.1911 C   0  0  0  0  0  0  0  0  0  0  0  0
    4.5558   -1.9472   -1.6257 C   0  0  0  0  0  0  0  0  0  0  0  0
    5.0735   -2.8270   -3.0564 Cl  0  0  0  0  0  0  0  0  0  0  0  0
    3.7181   -0.8481   -1.7535 C   0  0  0  0  0  0  0  0  0  0  0  0
   -0.5200    5.1387    4.3742 H   0  0  0  0  0  0  0  0  0  0  0  0
    0.4704    6.5681    3.9229 H   0  0  0  0  0  0  0  0  0  0  0  0
    1.1622    4.9326    3.6498 H   0  0  0  0  0  0  0  0  0  0  0  0
   -1.3168    4.8749    2.2839 H   0  0  0  0  0  0  0  0  0  0  0  0
   -0.7130    6.5147    2.0097 H   0  0  0  0  0  0  0  0  0  0  0  0
   -0.3002    6.1557   -0.0965 H   0  0  0  0  0  0  0  0  0  0  0  0
   -1.2813    4.7003    0.1732 H   0  0  0  0  0  0  0  0  0  0  0  0
   -0.0244    4.7236   -1.9744 H   0  0  0  0  0  0  0  0  0  0  0  0
    1.4885    5.0860   -1.1273 H   0  0  0  0  0  0  0  0  0  0  0  0
   -1.7474    2.7542   -0.9909 H   0  0  0  0  0  0  0  0  0  0  0  0
   -3.4782    1.6676   -1.3213 H   0  0  0  0  0  0  0  0  0  0  0  0
   -3.9126   -0.3226    0.7283 H   0  0  0  0  0  0  0  0  0  0  0  0
   -5.4882    1.3613    0.2279 H   0  0  0  0  0  0  0  0  0  0  0  0
   -6.2034   -0.0303   -2.4272 H   0  0  0  0  0  0  0  0  0  0  0  0
   -5.6042    1.6117   -2.1930 H   0  0  0  0  0  0  0  0  0  0  0  0
   -8.2674    0.8401   -2.0760 H   0  0  0  0  0  0  0  0  0  0  0  0
   -7.6369    2.1973   -1.0379 H   0  0  0  0  0  0  0  0  0  0  0  0
   -8.2045    0.9251    0.7331 H   0  0  0  0  0  0  0  0  0  0  0  0
   -8.6456   -0.4845   -0.2723 H   0  0  0  0  0  0  0  0  0  0  0  0
   -6.4451   -0.3072    1.3968 H   0  0  0  0  0  0  0  0  0  0  0  0
   -6.5662   -1.5092    0.0061 H   0  0  0  0  0  0  0  0  0  0  0  0
   -2.9027   -3.1869   -1.3540 H   0  0  0  0  0  0  0  0  0  0  0  0
   -0.7582   -2.4650   -1.4013 H   0  0  0  0  0  0  0  0  0  0  0  0
    0.0054   -2.3857    0.9474 H   0  0  0  0  0  0  0  0  0  0  0  0
   -1.1652   -3.6641    0.5113 H   0  0  0  0  0  0  0  0  0  0  0  0
   -1.5513   -3.8269    2.8418 H   0  0  0  0  0  0  0  0  0  0  0  0
   -0.3894   -2.5153    3.1134 H   0  0  0  0  0  0  0  0  0  0  0  0
   -2.0611   -2.3668    3.7546 H   0  0  0  0  0  0  0  0  0  0  0  0
    0.9670   -1.3413   -0.6455 H   0  0  0  0  0  0  0  0  0  0  0  0
    3.2175   -0.0453    1.4458 H   0  0  0  0  0  0  0  0  0  0  0  0
    4.7222   -2.0155    1.7149 H   0  0  0  0  0  0  0  0  0  0  0  0
    5.7310   -4.2139   -0.8993 H   0  0  0  0  0  0  0  0  0  0  0  0
    5.5711   -3.9752    0.8845 H   0  0  0  0  0  0  0  0  0  0  0  0
    7.4450   -2.3819    0.8964 H   0  0  0  0  0  0  0  0  0  0  0  0
    7.7257   -5.1876   -0.2906 H   0  0  0  0  0  0  0  0  0  0  0  0
    9.1444   -4.1482    0.0598 H   0  0  0  0  0  0  0  0  0  0  0  0
    7.9595   -4.6329    1.3968 H   0  0  0  0  0  0  0  0  0  0  0  0
    7.2915   -1.4695   -1.4293 H   0  0  0  0  0  0  0  0  0  0  0  0
    8.9085   -2.0951   -0.9325 H   0  0  0  0  0  0  0  0  0  0  0  0
    7.9465   -3.0984   -2.0090 H   0  0  0  0  0  0  0  0  0  0  0  0
    3.4436   -0.5307   -2.7466 H   0  0  0  0  0  0  0  0  0  0  0  0
  1  2  1  0
  2  3  1  0
  3  4  1  0
  4  5  1  0
  5  6  1  0
  6  7  1  0
  7  8  2  0
  8  9  1  0
  9 10  1  0
 10 11  1  0
 11 12  1  0
 12 13  1  0
 13 14  1  0
 14 15  1  0
 15 16  1  0
 11 17  1  0
 17 18  2  0
 17 19  1  0
 19 20  1  0
 20 21  1  0
 21 22  1  0
 22 23  1  0
 20 24  1  0
 24 25  1  0
 25 26  2  0
 26 27  1  0
 27 28  1  0
 28 29  2  0
 29 30  1  0
 30 31  2  0
 31 32  1  0
 32 33  1  0
 33 34  1  0
 33 35  1  0
 31 36  1  0
 36 37  1  0
 36 38  2  0
 26  7  1  0
 38 28  1  0
 24  9  2  0
 16 12  1  0
  1 39  1  0
  1 40  1  0
  1 41  1  0
  2 42  1  0
  2 43  1  0
  4 44  1  0
  4 45  1  0
  5 46  1  0
  5 47  1  0
  8 48  1  0
 10 49  1  0
 11 50  1  1
 12 51  1  0
 13 52  1  0
 13 53  1  0
 14 54  1  0
 14 55  1  0
 15 56  1  0
 15 57  1  0
 16 58  1  0
 16 59  1  0
 19 60  1  0
 20 61  1  6
 21 62  1  0
 21 63  1  0
 23 64  1  0
 23 65  1  0
 23 66  1  0
 25 67  1  0
 29 68  1  0
 30 69  1  0
 32 70  1  0
 32 71  1  0
 33 72  1  0
 34 73  1  0
 34 74  1  0
 34 75  1  0
 35 76  1  0
 35 77  1  0
 35 78  1  0
 38 79  1  0
M  END
$$$$
[H]c1nc(N2C([H])([H])C([H])([H])C([H])([H])[C@]([H])(N([H])C(=O)c3sc(C([H])([H])N([H])C([H])([H])C([H])([H])[H])c([H])c3[H])C2([H])[H])c2c([H])c([H])c([H])c(N([H])[H])c2n1
     RDKit          3D

 55 58  0  0  0  0  0  0  0  0999 V2000
    9.2607    1.6206    0.4729 C   0  0  0  0  0  0  0  0  0  0  0  0
    8.7262    0.5197    1.3622 C   0  0  0  0  0  0  0  0  0  0  0  0
    7.3119    0.2967    1.1501 N   0  0  0  0  0  0  0  0  0  0  0  0
    7.0639   -0.2711   -0.1757 C   0  0  0  0  0  0  0  0  0  0  0  0
    5.5787   -0.4828   -0.3438 C   0  0  0  0  0  0  0  0  0  0  0  0
    4.8526   -1.6032   -0.0267 C   0  0  0  0  0  0  0  0  0  0  0  0
    3.5337   -1.5672   -0.2626 C   0  0  0  0  0  0  0  0  0  0  0  0
    3.0221   -0.4237   -0.7968 C   0  0  0  0  0  0  0  0  0  0  0  0
    4.3872    0.5750   -0.9589 S   0  0  0  0  0  0  0  0  0  0  0  0
    1.6449   -0.0569   -1.1703 C   0  0  0  0  0  0  0  0  0  0  0  0
    1.4066    1.0890   -1.6578 O   0  0  0  0  0  0  0  0  0  0  0  0
    0.5667   -0.9468   -1.0028 N   0  0  0  0  0  0  0  0  0  0  0  0
   -0.7586   -0.5303   -1.3855 C   0  0  1  0  0  0  0  0  0  0  0  0
   -1.2277   -1.5004   -2.4604 C   0  0  0  0  0  0  0  0  0  0  0  0
   -2.7129   -1.7740   -2.3234 C   0  0  0  0  0  0  0  0  0  0  0  0
   -3.3677   -0.4400   -2.0299 C   0  0  0  0  0  0  0  0  0  0  0  0
   -2.9715    0.0188   -0.7183 N   0  0  0  0  0  0  0  0  0  0  0  0
   -1.7076   -0.4922   -0.2068 C   0  0  0  0  0  0  0  0  0  0  0  0
   -3.8117    0.9142   -0.0215 C   0  0  0  0  0  0  0  0  0  0  0  0
   -3.4424    2.2170    0.1189 N   0  0  0  0  0  0  0  0  0  0  0  0
   -4.2160    3.1212    0.7478 C   0  0  0  0  0  0  0  0  0  0  0  0
   -5.3920    2.7255    1.2542 N   0  0  0  0  0  0  0  0  0  0  0  0
   -5.8480    1.4538    1.1671 C   0  0  0  0  0  0  0  0  0  0  0  0
   -7.0645    1.1064    1.7163 C   0  0  0  0  0  0  0  0  0  0  0  0
   -7.8761    2.0534    2.3735 N   0  0  0  0  0  0  0  0  0  0  0  0
   -7.5035   -0.1955    1.6238 C   0  0  0  0  0  0  0  0  0  0  0  0
   -6.7005   -1.1071    0.9798 C   0  0  0  0  0  0  0  0  0  0  0  0
   -5.4822   -0.7479    0.4322 C   0  0  0  0  0  0  0  0  0  0  0  0
   -5.0230    0.5469    0.5112 C   0  0  0  0  0  0  0  0  0  0  0  0
    9.2449    1.3526   -0.5828 H   0  0  0  0  0  0  0  0  0  0  0  0
   10.2883    1.8634    0.7767 H   0  0  0  0  0  0  0  0  0  0  0  0
    8.6421    2.5266    0.7048 H   0  0  0  0  0  0  0  0  0  0  0  0
    9.2643   -0.4325    1.2541 H   0  0  0  0  0  0  0  0  0  0  0  0
    8.8386    0.8749    2.4075 H   0  0  0  0  0  0  0  0  0  0  0  0
    7.0003   -0.3764    1.8856 H   0  0  0  0  0  0  0  0  0  0  0  0
    7.5650   -1.2365   -0.2193 H   0  0  0  0  0  0  0  0  0  0  0  0
    7.4385    0.3902   -0.9562 H   0  0  0  0  0  0  0  0  0  0  0  0
    5.3700   -2.4907    0.4081 H   0  0  0  0  0  0  0  0  0  0  0  0
    2.8510   -2.4190   -0.0435 H   0  0  0  0  0  0  0  0  0  0  0  0
    0.7801   -1.8880   -0.6003 H   0  0  0  0  0  0  0  0  0  0  0  0
   -0.7133    0.4991   -1.7758 H   0  0  0  0  0  0  0  0  0  0  0  0
   -0.7068   -2.4753   -2.3949 H   0  0  0  0  0  0  0  0  0  0  0  0
   -1.0413   -0.9799   -3.4405 H   0  0  0  0  0  0  0  0  0  0  0  0
   -2.8546   -2.4779   -1.4902 H   0  0  0  0  0  0  0  0  0  0  0  0
   -3.1435   -2.1532   -3.2543 H   0  0  0  0  0  0  0  0  0  0  0  0
   -2.9053    0.2709   -2.7863 H   0  0  0  0  0  0  0  0  0  0  0  0
   -4.4458   -0.4836   -2.1500 H   0  0  0  0  0  0  0  0  0  0  0  0
   -1.8932   -1.5087    0.1781 H   0  0  0  0  0  0  0  0  0  0  0  0
   -1.2976    0.1940    0.5333 H   0  0  0  0  0  0  0  0  0  0  0  0
   -3.8643    4.1558    0.8291 H   0  0  0  0  0  0  0  0  0  0  0  0
   -7.6047    2.4257    3.2926 H   0  0  0  0  0  0  0  0  0  0  0  0
   -8.7501    2.3734    1.9243 H   0  0  0  0  0  0  0  0  0  0  0  0
   -8.4601   -0.5064    2.0459 H   0  0  0  0  0  0  0  0  0  0  0  0
   -7.0025   -2.1347    0.8844 H   0  0  0  0  0  0  0  0  0  0  0  0
   -4.8494   -1.4834   -0.0665 H   0  0  0  0  0  0  0  0  0  0  0  0
  1  2  1  0
  2  3  1  0
  3  4  1  0
  4  5  1  0
  5  6  2  0
  6  7  1  0
  7  8  2  0
  8  9  1  0
  8 10  1  0
 10 11  2  0
 10 12  1  0
 12 13  1  0
 13 14  1  0
 14 15  1  0
 15 16  1  0
 16 17  1  0
 17 18  1  0
 17 19  1  0
 19 20  2  0
 20 21  1  0
 21 22  2  0
 22 23  1  0
 23 24  2  0
 24 25  1  0
 24 26  1  0
 26 27  2  0
 27 28  1  0
 28 29  2  0
  9  5  1  0
 18 13  1  0
 29 19  1  0
 29 23  1  0
  1 30  1  0
  1 31  1  0
  1 32  1  0
  2 33  1  0
  2 34  1  0
  3 35  1  0
  4 36  1  0
  4 37  1  0
  6 38  1  0
  7 39  1  0
 12 40  1  0
 13 41  1  6
 14 42  1  0
 14 43  1  0
 15 44  1  0
 15 45  1  0
 16 46  1  0
 16 47  1  0
 18 48  1  0
 18 49  1  0
 21 50  1  0
 25 51  1  0
 25 52  1  0
 26 53  1  0
 27 54  1  0
 28 55  1  0
M  END
$$$$
