[H]C(=C1C(=O)C([H])([H])C([H])([H])C1=O)/C(=N\C([H])([H])[H])N1C([H])([H])C([H])([H])C([H])([H])C1([H])[H]
     RDKit          3D

 32 33  0  0  0  0  0  0  0  0999 V2000
    0.4605    2.6115   -1.2887 C   0  0  0  0  0  0  0  0  0  0  0  0
   -0.4684    1.7678   -0.7055 N   0  0  0  0  0  0  0  0  0  0  0  0
   -0.4720    0.6298   -0.2362 C   0  0  0  0  0  0  0  0  0  0  0  0
    0.5989   -0.2766   -0.1415 C   0  0  0  0  0  0  0  0  0  0  0  0
    1.8306   -0.5043   -0.4308 C   0  0  0  0  0  0  0  0  0  0  0  0
    2.5154   -1.7962   -0.0031 C   0  0  0  0  0  0  0  0  0  0  0  0
    1.9784   -2.8843    0.2961 O   0  0  0  0  0  0  0  0  0  0  0  0
    3.9587   -1.5126   -0.0092 C   0  0  0  0  0  0  0  0  0  0  0  0
    4.0944   -0.0362   -0.2670 C   0  0  0  0  0  0  0  0  0  0  0  0
    2.8917    0.1405   -1.1882 C   0  0  0  0  0  0  0  0  0  0  0  0
    2.8825    0.6924   -2.2860 O   0  0  0  0  0  0  0  0  0  0  0  0
   -1.7796    0.1786    0.2825 N   0  0  0  0  0  0  0  0  0  0  0  0
   -2.0447   -0.1314    1.6564 C   0  0  0  0  0  0  0  0  0  0  0  0
   -3.5370   -0.3781    1.7421 C   0  0  0  0  0  0  0  0  0  0  0  0
   -4.0238   -0.5059    0.3215 C   0  0  0  0  0  0  0  0  0  0  0  0
   -2.9081    0.0126   -0.5638 C   0  0  0  0  0  0  0  0  0  0  0  0
    0.6229    2.3676   -2.3509 H   0  0  0  0  0  0  0  0  0  0  0  0
    1.4599    2.7222   -0.7698 H   0  0  0  0  0  0  0  0  0  0  0  0
   -0.0178    3.6523   -1.2506 H   0  0  0  0  0  0  0  0  0  0  0  0
    0.1466   -1.2018    0.4584 H   0  0  0  0  0  0  0  0  0  0  0  0
    4.4313   -1.8012    0.9591 H   0  0  0  0  0  0  0  0  0  0  0  0
    4.4785   -2.0241   -0.8537 H   0  0  0  0  0  0  0  0  0  0  0  0
    5.0244    0.2235   -0.7974 H   0  0  0  0  0  0  0  0  0  0  0  0
    3.9511    0.5181    0.6555 H   0  0  0  0  0  0  0  0  0  0  0  0
   -1.4696   -1.0244    1.9434 H   0  0  0  0  0  0  0  0  0  0  0  0
   -1.7336    0.7239    2.2913 H   0  0  0  0  0  0  0  0  0  0  0  0
   -3.6831   -1.3248    2.3082 H   0  0  0  0  0  0  0  0  0  0  0  0
   -4.0655    0.4368    2.2964 H   0  0  0  0  0  0  0  0  0  0  0  0
   -4.9224    0.1295    0.2181 H   0  0  0  0  0  0  0  0  0  0  0  0
   -4.2805   -1.5608    0.1119 H   0  0  0  0  0  0  0  0  0  0  0  0
   -3.2480    0.9299   -1.0756 H   0  0  0  0  0  0  0  0  0  0  0  0
   -2.6717   -0.7742   -1.3230 H   0  0  0  0  0  0  0  0  0  0  0  0
  1  2  1  0
  2  3  2  0
  3  4  1  0
  4  5  2  0
  5  6  1  0
  6  7  2  0
  6  8  1  0
  8  9  1  0
  9 10  1  0
 10 11  2  0
  3 12  1  0
 12 13  1  0
 13 14  1  0
 14 15  1  0
 15 16  1  0
 10  5  1  0
 16 12  1  0
  1 17  1  0
  1 18  1  0
  1 19  1  0
  4 20  1  0
  8 21  1  0
  8 22  1  0
  9 23  1  0
  9 24  1  0
 13 25  1  0
 13 26  1  0
 14 27  1  0
 14 28  1  0
 15 29  1  0
 15 30  1  0
 16 31  1  0
 16 32  1  0
M  END
$$$$
[H]OC1(C(F)(F)F)C([H])([H])C([H])([H])N(C([H])([H])C(=O)N([H])[C@@]([H])(c2c([H])c(F)c(-c3c([H])c([H])c(Cl)c([H])c3[H])c([H])[n+]2[O-])C([H])([H])[H])C([H])([H])C1([H])[H]
     RDKit          3D

 54 56  0  0  0  0  0  0  0  0999 V2000
    0.7864    2.6671   -1.7892 C   0  0  0  0  0  0  0  0  0  0  0  0
    0.8185    1.6088   -0.6882 C   0  0  1  0  0  0  0  0  0  0  0  0
   -0.2588    0.6799   -0.8220 N   0  0  0  0  0  0  0  0  0  0  0  0
   -1.2947    0.5896    0.1794 C   0  0  0  0  0  0  0  0  0  0  0  0
   -1.2061    1.3572    1.1585 O   0  0  0  0  0  0  0  0  0  0  0  0
   -2.4088   -0.3642    0.0563 C   0  0  0  0  0  0  0  0  0  0  0  0
   -3.3285   -0.2260    1.1669 N   0  0  0  0  0  0  0  0  0  0  0  0
   -4.2711   -1.3386    1.1918 C   0  0  0  0  0  0  0  0  0  0  0  0
   -5.5772   -1.0053    1.8621 C   0  0  0  0  0  0  0  0  0  0  0  0
   -6.3349    0.0582    1.0907 C   0  0  0  0  0  0  0  0  0  0  0  0
   -7.1149    0.7527    2.0101 O   0  0  0  0  0  0  0  0  0  0  0  0
   -5.3557    0.9632    0.3663 C   0  0  0  0  0  0  0  0  0  0  0  0
   -4.0388    1.0394    1.1100 C   0  0  0  0  0  0  0  0  0  0  0  0
   -7.2571   -0.5369    0.0581 C   0  0  0  0  0  0  0  0  0  0  0  0
   -7.8946    0.5027   -0.5878 F   0  0  0  0  0  0  0  0  0  0  0  0
   -8.2339   -1.3231    0.6470 F   0  0  0  0  0  0  0  0  0  0  0  0
   -6.5918   -1.2646   -0.9031 F   0  0  0  0  0  0  0  0  0  0  0  0
    2.1642    1.0243   -0.6297 C   0  0  0  0  0  0  0  0  0  0  0  0
    3.0097    1.4421    0.3827 C   0  0  0  0  0  0  0  0  0  0  0  0
    4.2781    0.9174    0.4655 C   0  0  0  0  0  0  0  0  0  0  0  0
    5.1426    1.3114    1.4514 F   0  0  0  0  0  0  0  0  0  0  0  0
    4.7173   -0.0225   -0.4510 C   0  0  0  0  0  0  0  0  0  0  0  0
    3.8257   -0.3943   -1.4340 C   0  0  0  0  0  0  0  0  0  0  0  0
    2.5753    0.1152   -1.5257 N   0  0  0  0  0  0  0  0  0  0  0  0
    1.7670   -0.3300   -2.5726 O   0  0  0  0  0  0  0  0  0  0  0  0
    6.0567   -0.5825   -0.3628 C   0  0  0  0  0  0  0  0  0  0  0  0
    6.6467   -1.0234    0.7974 C   0  0  0  0  0  0  0  0  0  0  0  0
    7.9184   -1.5517    0.8695 C   0  0  0  0  0  0  0  0  0  0  0  0
    8.6715   -1.6544   -0.2989 C   0  0  0  0  0  0  0  0  0  0  0  0
   10.2928   -2.3229   -0.2415 Cl  0  0  0  0  0  0  0  0  0  0  0  0
    8.1082   -1.2209   -1.4796 C   0  0  0  0  0  0  0  0  0  0  0  0
    6.8241   -0.6925   -1.5236 C   0  0  0  0  0  0  0  0  0  0  0  0
    0.0064    2.3537   -2.4933 H   0  0  0  0  0  0  0  0  0  0  0  0
    1.7780    2.7496   -2.2548 H   0  0  0  0  0  0  0  0  0  0  0  0
    0.5569    3.6823   -1.3794 H   0  0  0  0  0  0  0  0  0  0  0  0
    0.6368    2.1771    0.2686 H   0  0  0  0  0  0  0  0  0  0  0  0
   -0.3933    0.0147   -1.6209 H   0  0  0  0  0  0  0  0  0  0  0  0
   -2.0241   -1.3714   -0.0865 H   0  0  0  0  0  0  0  0  0  0  0  0
   -2.9882   -0.0628   -0.8498 H   0  0  0  0  0  0  0  0  0  0  0  0
   -3.7812   -2.1162    1.8128 H   0  0  0  0  0  0  0  0  0  0  0  0
   -4.4159   -1.7637    0.1862 H   0  0  0  0  0  0  0  0  0  0  0  0
   -6.1974   -1.9169    1.8763 H   0  0  0  0  0  0  0  0  0  0  0  0
   -5.4033   -0.6526    2.8896 H   0  0  0  0  0  0  0  0  0  0  0  0
   -8.0383    0.3699    2.1000 H   0  0  0  0  0  0  0  0  0  0  0  0
   -5.7736    1.9908    0.3791 H   0  0  0  0  0  0  0  0  0  0  0  0
   -5.2078    0.6893   -0.6964 H   0  0  0  0  0  0  0  0  0  0  0  0
   -4.1962    1.4294    2.1277 H   0  0  0  0  0  0  0  0  0  0  0  0
   -3.4219    1.7529    0.5324 H   0  0  0  0  0  0  0  0  0  0  0  0
    2.6879    2.1797    1.1179 H   0  0  0  0  0  0  0  0  0  0  0  0
    4.1673   -1.1391   -2.1634 H   0  0  0  0  0  0  0  0  0  0  0  0
    6.0879   -0.9581    1.7201 H   0  0  0  0  0  0  0  0  0  0  0  0
    8.3486   -1.8900    1.8115 H   0  0  0  0  0  0  0  0  0  0  0  0
    8.7201   -1.3145   -2.3754 H   0  0  0  0  0  0  0  0  0  0  0  0
    6.4148   -0.3647   -2.4565 H   0  0  0  0  0  0  0  0  0  0  0  0
  1  2  1  0
  2  3  1  0
  3  4  1  0
  4  5  2  0
  4  6  1  0
  6  7  1  0
  7  8  1  0
  8  9  1  0
  9 10  1  0
 10 11  1  0
 10 12  1  0
 12 13  1  0
 10 14  1  0
 14 15  1  0
 14 16  1  0
 14 17  1  0
  2 18  1  0
 18 19  2  0
 19 20  1  0
 20 21  1  0
 20 22  2  0
 22 23  1  0
 23 24  2  0
 24 25  1  0
 22 26  1  0
 26 27  2  0
 27 28  1  0
 28 29  2  0
 29 30  1  0
 29 31  1  0
 31 32  2  0
 13  7  1  0
 24 18  1  0
 32 26  1  0
  1 33  1  0
  1 34  1  0
  1 35  1  0
  2 36  1  1
  3 37  1  0
  6 38  1  0
  6 39  1  0
  8 40  1  0
  8 41  1  0
  9 42  1  0
  9 43  1  0
 11 44  1  0
 12 45  1  0
 12 46  1  0
 13 47  1  0
 13 48  1  0
 19 49  1  0
 23 50  1  0
 27 51  1  0
 28 52  1  0
 31 53  1  0
 32 54  1  0
M  CHG  2  24   1  25  -1
M  END
$$$$
[H]On1nc([H])c(-c2c([H])c(N([H])[H])c3nc(-c4c([H])c([H])c(OC([H])([H])[H])c([H])c4[H])n([H])c3c2[H])c1[H]
     RDKit          3D

 39 42  0  0  0  0  0  0  0  0999 V2000
    7.5699    0.6636    0.5691 C   0  0  0  0  0  0  0  0  0  0  0  0
    6.7780    0.6294   -0.6146 O   0  0  0  0  0  0  0  0  0  0  0  0
    5.3926    0.4903   -0.4578 C   0  0  0  0  0  0  0  0  0  0  0  0
    4.8110    0.3899    0.7939 C   0  0  0  0  0  0  0  0  0  0  0  0
    3.4463    0.2536    0.9321 C   0  0  0  0  0  0  0  0  0  0  0  0
    2.6071    0.2123   -0.1786 C   0  0  0  0  0  0  0  0  0  0  0  0
    3.1766    0.3106   -1.4061 C   0  0  0  0  0  0  0  0  0  0  0  0
    4.5475    0.4476   -1.5471 C   0  0  0  0  0  0  0  0  0  0  0  0
    1.1534    0.0655    0.0088 C   0  0  0  0  0  0  0  0  0  0  0  0
    0.5104   -0.0382    1.1846 N   0  0  0  0  0  0  0  0  0  0  0  0
   -0.8213   -0.1603    1.0004 C   0  0  0  0  0  0  0  0  0  0  0  0
   -1.9071   -0.2949    1.8336 C   0  0  0  0  0  0  0  0  0  0  0  0
   -1.6946   -0.3225    3.2228 N   0  0  0  0  0  0  0  0  0  0  0  0
   -3.1727   -0.3990    1.3116 C   0  0  0  0  0  0  0  0  0  0  0  0
   -3.4128   -0.3738   -0.0594 C   0  0  0  0  0  0  0  0  0  0  0  0
   -2.3065   -0.2378   -0.8743 C   0  0  0  0  0  0  0  0  0  0  0  0
   -1.0133   -0.1306   -0.3652 C   0  0  0  0  0  0  0  0  0  0  0  0
    0.2076    0.0077   -0.9385 N   0  0  0  0  0  0  0  0  0  0  0  0
   -4.7728   -0.4872   -0.5903 C   0  0  0  0  0  0  0  0  0  0  0  0
   -5.7658   -1.2243    0.0353 C   0  0  0  0  0  0  0  0  0  0  0  0
   -6.9079   -1.1330   -0.6982 N   0  0  0  0  0  0  0  0  0  0  0  0
   -6.6367   -0.3606   -1.7527 N   0  0  0  0  0  0  0  0  0  0  0  0
   -7.5739   -0.0455   -2.7260 O   0  0  0  0  0  0  0  0  0  0  0  0
   -5.3429    0.0414   -1.7039 C   0  0  0  0  0  0  0  0  0  0  0  0
    7.2463    1.5300    1.2168 H   0  0  0  0  0  0  0  0  0  0  0  0
    8.6348    0.6997    0.3450 H   0  0  0  0  0  0  0  0  0  0  0  0
    7.3385   -0.2456    1.1864 H   0  0  0  0  0  0  0  0  0  0  0  0
    5.4373    0.4191    1.6694 H   0  0  0  0  0  0  0  0  0  0  0  0
    3.0043    0.1756    1.9329 H   0  0  0  0  0  0  0  0  0  0  0  0
    2.5349    0.2805   -2.2954 H   0  0  0  0  0  0  0  0  0  0  0  0
    4.9836    0.5244   -2.5276 H   0  0  0  0  0  0  0  0  0  0  0  0
   -1.4323   -1.2033    3.6907 H   0  0  0  0  0  0  0  0  0  0  0  0
   -1.8008    0.5399    3.7781 H   0  0  0  0  0  0  0  0  0  0  0  0
   -4.0115   -0.5031    1.9608 H   0  0  0  0  0  0  0  0  0  0  0  0
   -2.4494   -0.2146   -1.9324 H   0  0  0  0  0  0  0  0  0  0  0  0
    0.3869    0.0614   -1.9661 H   0  0  0  0  0  0  0  0  0  0  0  0
   -5.7221   -1.7998    0.9488 H   0  0  0  0  0  0  0  0  0  0  0  0
   -8.1968    0.7522   -2.5893 H   0  0  0  0  0  0  0  0  0  0  0  0
   -4.8259    0.6794   -2.4232 H   0  0  0  0  0  0  0  0  0  0  0  0
  1  2  1  0
  2  3  1  0
  3  4  2  0
  4  5  1  0
  5  6  2  0
  6  7  1  0
  7  8  2  0
  6  9  1  0
  9 10  2  0
 10 11  1  0
 11 12  2  0
 12 13  1  0
 12 14  1  0
 14 15  2  0
 15 16  1  0
 16 17  2  0
 17 18  1  0
 15 19  1  0
 19 20  1  0
 20 21  2  0
 21 22  1  0
 22 23  1  0
 22 24  1  0
  8  3  1  0
 18  9  1  0
 24 19  2  0
 17 11  1  0
  1 25  1  0
  1 26  1  0
  1 27  1  0
  4 28  1  0
  5 29  1  0
  7 30  1  0
  8 31  1  0
 13 32  1  0
 13 33  1  0
 14 34  1  0
 16 35  1  0
 18 36  1  0
 20 37  1  0
 23 38  1  0
 24 39  1  0
M  END
$$$$
[H]C1=C(C(=O)N([H])[H])c2c([H])c([H])c([H])c(C(=O)OC([H])([H])[H])c2N2C([H])([H])C([H])([H])C([H])(C(N([H])c3c([H])c([H])c4c(c3[H])C([H])([H])C([H])([H])N4N([H])C(=O)N(C([H])([H])[H])C([H])([H])[H])=N1)C([H])([H])C2([H])[H]
     RDKit          3D

 72 76  0  0  0  0  0  0  0  0999 V2000
   -8.2435   -2.4362    2.1593 C   0  0  0  0  0  0  0  0  0  0  0  0
   -7.8566   -1.1654    1.6489 O   0  0  0  0  0  0  0  0  0  0  0  0
   -6.7030   -1.0617    0.9540 C   0  0  0  0  0  0  0  0  0  0  0  0
   -5.9950   -2.0798    0.7701 O   0  0  0  0  0  0  0  0  0  0  0  0
   -6.1939    0.2153    0.3725 C   0  0  0  0  0  0  0  0  0  0  0  0
   -7.1402    1.2007    0.3367 C   0  0  0  0  0  0  0  0  0  0  0  0
   -6.8340    2.3875   -0.2666 C   0  0  0  0  0  0  0  0  0  0  0  0
   -5.5817    2.5269   -0.8127 C   0  0  0  0  0  0  0  0  0  0  0  0
   -4.6096    1.5400   -0.7887 C   0  0  0  0  0  0  0  0  0  0  0  0
   -3.4012    1.8522   -1.5629 C   0  0  0  0  0  0  0  0  0  0  0  0
   -2.1424    1.7073   -1.3059 C   0  0  0  0  0  0  0  0  0  0  0  0
   -1.3552    1.2359   -0.2867 N   0  0  0  0  0  0  0  0  0  0  0  0
   -0.8666    0.2330    0.1984 C   0  0  0  0  0  0  0  0  0  0  0  0
   -0.0387    0.2995    1.3805 N   0  0  0  0  0  0  0  0  0  0  0  0
    1.3828    0.2090    1.2355 C   0  0  0  0  0  0  0  0  0  0  0  0
    2.0023    0.1019    0.0139 C   0  0  0  0  0  0  0  0  0  0  0  0
    3.3878    0.0114   -0.1036 C   0  0  0  0  0  0  0  0  0  0  0  0
    4.1867    0.0275    1.0264 C   0  0  0  0  0  0  0  0  0  0  0  0
    5.6017   -0.0493    1.2008 N   0  0  0  0  0  0  0  0  0  0  0  0
    5.8747    0.4040    2.5495 C   0  0  0  0  0  0  0  0  0  0  0  0
    4.5934    0.1348    3.3185 C   0  0  0  0  0  0  0  0  0  0  0  0
    3.5532    0.1356    2.2474 C   0  0  0  0  0  0  0  0  0  0  0  0
    2.1762    0.2249    2.3540 C   0  0  0  0  0  0  0  0  0  0  0  0
    6.5094   -0.4745    0.2601 N   0  0  0  0  0  0  0  0  0  0  0  0
    7.5644    0.3426   -0.2263 C   0  0  0  0  0  0  0  0  0  0  0  0
    7.6796    1.5101    0.2196 O   0  0  0  0  0  0  0  0  0  0  0  0
    8.4921   -0.1136   -1.1975 N   0  0  0  0  0  0  0  0  0  0  0  0
    9.5480    0.7497   -1.6638 C   0  0  0  0  0  0  0  0  0  0  0  0
    8.4135   -1.4597   -1.7548 C   0  0  0  0  0  0  0  0  0  0  0  0
   -1.0511   -1.1264   -0.3331 C   0  0  0  0  0  0  0  0  0  0  0  0
   -1.9060   -1.2866   -1.5305 C   0  0  0  0  0  0  0  0  0  0  0  0
   -3.3616   -1.4399   -1.2708 C   0  0  0  0  0  0  0  0  0  0  0  0
   -3.8462   -0.6547   -0.0945 N   0  0  0  0  0  0  0  0  0  0  0  0
   -2.9798   -0.9669    1.0545 C   0  0  0  0  0  0  0  0  0  0  0  0
   -1.8766   -1.9150    0.7117 C   0  0  0  0  0  0  0  0  0  0  0  0
   -4.8950    0.2907   -0.1577 C   0  0  0  0  0  0  0  0  0  0  0  0
   -3.6560    2.4489   -2.9492 C   0  0  0  0  0  0  0  0  0  0  0  0
   -2.5979    2.7961   -3.8114 N   0  0  0  0  0  0  0  0  0  0  0  0
   -4.8158    2.6462   -3.3617 O   0  0  0  0  0  0  0  0  0  0  0  0
   -9.3534   -2.4420    2.1972 H   0  0  0  0  0  0  0  0  0  0  0  0
   -7.8542   -3.2246    1.4721 H   0  0  0  0  0  0  0  0  0  0  0  0
   -7.8439   -2.5693    3.1928 H   0  0  0  0  0  0  0  0  0  0  0  0
   -8.1219    1.0257    0.7896 H   0  0  0  0  0  0  0  0  0  0  0  0
   -7.5667    3.1804   -0.3027 H   0  0  0  0  0  0  0  0  0  0  0  0
   -5.4227    3.5245   -1.2645 H   0  0  0  0  0  0  0  0  0  0  0  0
   -1.4772    2.0901   -2.1737 H   0  0  0  0  0  0  0  0  0  0  0  0
   -0.4623    0.4117    2.2917 H   0  0  0  0  0  0  0  0  0  0  0  0
    1.3931    0.0907   -0.8661 H   0  0  0  0  0  0  0  0  0  0  0  0
    3.8670   -0.0739   -1.0879 H   0  0  0  0  0  0  0  0  0  0  0  0
    6.0494    1.4880    2.5309 H   0  0  0  0  0  0  0  0  0  0  0  0
    6.6859   -0.1500    3.0255 H   0  0  0  0  0  0  0  0  0  0  0  0
    4.5778   -0.8351    3.8120 H   0  0  0  0  0  0  0  0  0  0  0  0
    4.3452    0.9800    4.0036 H   0  0  0  0  0  0  0  0  0  0  0  0
    1.7135    0.3082    3.3240 H   0  0  0  0  0  0  0  0  0  0  0  0
    6.3922   -1.4644   -0.1024 H   0  0  0  0  0  0  0  0  0  0  0  0
   10.4726    0.1601   -1.8505 H   0  0  0  0  0  0  0  0  0  0  0  0
    9.2766    1.2925   -2.5908 H   0  0  0  0  0  0  0  0  0  0  0  0
    9.8308    1.5208   -0.9046 H   0  0  0  0  0  0  0  0  0  0  0  0
    7.6402   -1.4397   -2.5401 H   0  0  0  0  0  0  0  0  0  0  0  0
    9.3665   -1.7605   -2.2246 H   0  0  0  0  0  0  0  0  0  0  0  0
    8.1155   -2.1943   -0.9665 H   0  0  0  0  0  0  0  0  0  0  0  0
   -0.1008   -1.7051   -0.3752 H   0  0  0  0  0  0  0  0  0  0  0  0
   -1.6178   -0.6174   -2.3559 H   0  0  0  0  0  0  0  0  0  0  0  0
   -1.5916   -2.3037   -1.9552 H   0  0  0  0  0  0  0  0  0  0  0  0
   -3.8562   -1.1759   -2.2124 H   0  0  0  0  0  0  0  0  0  0  0  0
   -3.6443   -2.4777   -1.0262 H   0  0  0  0  0  0  0  0  0  0  0  0
   -3.4954   -1.5295    1.8873 H   0  0  0  0  0  0  0  0  0  0  0  0
   -2.5824   -0.0735    1.5216 H   0  0  0  0  0  0  0  0  0  0  0  0
   -1.2272   -2.0100    1.5791 H   0  0  0  0  0  0  0  0  0  0  0  0
   -2.1748   -2.8817    0.3197 H   0  0  0  0  0  0  0  0  0  0  0  0
   -2.1276    2.0881   -4.4328 H   0  0  0  0  0  0  0  0  0  0  0  0
   -2.2244    3.7657   -3.8821 H   0  0  0  0  0  0  0  0  0  0  0  0
  1  2  1  0
  2  3  1  0
  3  4  2  0
  3  5  1  0
  5  6  2  0
  6  7  1  0
  7  8  2  0
  8  9  1  0
  9 10  1  0
 10 11  2  0
 11 12  1  0
 12 13  2  0
 13 14  1  0
 14 15  1  0
 15 16  2  0
 16 17  1  0
 17 18  2  0
 18 19  1  0
 19 20  1  0
 20 21  1  0
 21 22  1  0
 22 23  2  0
 19 24  1  0
 24 25  1  0
 25 26  2  0
 25 27  1  0
 27 28  1  0
 27 29  1  0
 13 30  1  0
 30 31  1  0
 31 32  1  0
 32 33  1  0
 33 34  1  0
 34 35  1  0
 33 36  1  0
 10 37  1  0
 37 38  1  0
 37 39  2  0
 36  5  1  0
 36  9  2  0
 23 15  1  0
 35 30  1  0
 22 18  1  0
  1 40  1  0
  1 41  1  0
  1 42  1  0
  6 43  1  0
  7 44  1  0
  8 45  1  0
 11 46  1  0
 14 47  1  0
 16 48  1  0
 17 49  1  0
 20 50  1  0
 20 51  1  0
 21 52  1  0
 21 53  1  0
 23 54  1  0
 24 55  1  0
 28 56  1  0
 28 57  1  0
 28 58  1  0
 29 59  1  0
 29 60  1  0
 29 61  1  0
 30 62  1  0
 31 63  1  0
 31 64  1  0
 32 65  1  0
 32 66  1  0
 34 67  1  0
 34 68  1  0
 35 69  1  0
 35 70  1  0
 38 71  1  0
 38 72  1  0
M  END
$$$$
[H]Oc1c([H])c([H])c(-c2c(OC([H])([H])[H])nc(N([H])[H])nc2N([H])[H])c([H])c1[H]
     RDKit          3D

 29 30  0  0  0  0  0  0  0  0999 V2000
   -1.7768   -2.2899   -1.8746 C   0  0  0  0  0  0  0  0  0  0  0  0
   -0.8615   -1.5174   -1.1257 O   0  0  0  0  0  0  0  0  0  0  0  0
   -1.3182   -0.2872   -0.6789 C   0  0  0  0  0  0  0  0  0  0  0  0
   -2.5541    0.1895   -0.9264 N   0  0  0  0  0  0  0  0  0  0  0  0
   -2.9676    1.3873   -0.4802 C   0  0  0  0  0  0  0  0  0  0  0  0
   -4.2810    1.8554   -0.7627 N   0  0  0  0  0  0  0  0  0  0  0  0
   -2.1086    2.1316    0.2401 N   0  0  0  0  0  0  0  0  0  0  0  0
   -0.8460    1.6956    0.5190 C   0  0  0  0  0  0  0  0  0  0  0  0
    0.0720    2.4678    1.2762 N   0  0  0  0  0  0  0  0  0  0  0  0
   -0.4382    0.4707    0.0564 C   0  0  0  0  0  0  0  0  0  0  0  0
    0.8804   -0.0358    0.3328 C   0  0  0  0  0  0  0  0  0  0  0  0
    1.8942    0.0099   -0.6126 C   0  0  0  0  0  0  0  0  0  0  0  0
    3.1504   -0.4730   -0.3781 C   0  0  0  0  0  0  0  0  0  0  0  0
    3.4670   -1.0308    0.8184 C   0  0  0  0  0  0  0  0  0  0  0  0
    4.7107   -1.5403    1.1330 O   0  0  0  0  0  0  0  0  0  0  0  0
    2.4747   -1.0900    1.7830 C   0  0  0  0  0  0  0  0  0  0  0  0
    1.2142   -0.6043    1.5439 C   0  0  0  0  0  0  0  0  0  0  0  0
   -2.2597   -3.0571   -1.1960 H   0  0  0  0  0  0  0  0  0  0  0  0
   -1.2768   -2.9019   -2.6508 H   0  0  0  0  0  0  0  0  0  0  0  0
   -2.6084   -1.7169   -2.2988 H   0  0  0  0  0  0  0  0  0  0  0  0
   -4.8935    1.3705   -1.4421 H   0  0  0  0  0  0  0  0  0  0  0  0
   -4.6674    2.6978   -0.2976 H   0  0  0  0  0  0  0  0  0  0  0  0
    0.5797    3.2867    0.9130 H   0  0  0  0  0  0  0  0  0  0  0  0
    0.2348    2.1799    2.2626 H   0  0  0  0  0  0  0  0  0  0  0  0
    1.6492    0.4503   -1.5589 H   0  0  0  0  0  0  0  0  0  0  0  0
    3.9117   -0.4122   -1.1644 H   0  0  0  0  0  0  0  0  0  0  0  0
    5.4791   -1.0614    1.5414 H   0  0  0  0  0  0  0  0  0  0  0  0
    2.7076   -1.5287    2.7378 H   0  0  0  0  0  0  0  0  0  0  0  0
    0.4319   -0.6461    2.2901 H   0  0  0  0  0  0  0  0  0  0  0  0
  1  2  1  0
  2  3  1  0
  3  4  2  0
  4  5  1  0
  5  6  1  0
  5  7  2  0
  7  8  1  0
  8  9  1  0
  8 10  2  0
 10 11  1  0
 11 12  2  0
 12 13  1  0
 13 14  2  0
 14 15  1  0
 14 16  1  0
 16 17  2  0
 10  3  1  0
 17 11  1  0
  1 18  1  0
  1 19  1  0
  1 20  1  0
  6 21  1  0
  6 22  1  0
  9 23  1  0
  9 24  1  0
 12 25  1  0
 13 26  1  0
 15 27  1  0
 16 28  1  0
 17 29  1  0
M  END
$$$$
[H]C(=C([H])C1([H])SC([H])(C(=O)N([H])[H])C2([H])C([H])([H])C([H])([H])C1([H])C2([H])C(=O)N1C([H])([H])C([H])([H])C([H])(OC([H])([H])[H])C1([H])[H])C(F)(F)F
     RDKit          3D

 49 51  0  0  0  0  0  0  0  0999 V2000
    5.9986    2.0556    0.3508 C   0  0  0  0  0  0  0  0  0  0  0  0
    4.6614    1.9770    0.7201 O   0  0  0  0  0  0  0  0  0  0  0  0
    4.0081    1.0852   -0.1021 C   0  0  0  0  0  0  0  0  0  0  0  0
    2.9117    1.8152   -0.8241 C   0  0  0  0  0  0  0  0  0  0  0  0
    1.6258    1.3106   -0.1917 C   0  0  0  0  0  0  0  0  0  0  0  0
    1.9724   -0.0245    0.2800 N   0  0  0  0  0  0  0  0  0  0  0  0
    3.3576   -0.0433    0.6741 C   0  0  0  0  0  0  0  0  0  0  0  0
    1.0706   -1.1120    0.3279 C   0  0  0  0  0  0  0  0  0  0  0  0
    1.5290   -2.2218    0.7632 O   0  0  0  0  0  0  0  0  0  0  0  0
   -0.3437   -1.0003   -0.0987 C   0  0  0  0  0  0  0  0  0  0  0  0
   -1.1691   -0.0808    0.7505 C   0  0  0  0  0  0  0  0  0  0  0  0
   -1.6258   -0.9971    1.8727 C   0  0  0  0  0  0  0  0  0  0  0  0
   -1.7978   -2.3347    1.2348 C   0  0  0  0  0  0  0  0  0  0  0  0
   -1.0505   -2.3377   -0.0716 C   0  0  0  0  0  0  0  0  0  0  0  0
   -1.9853   -2.3585   -1.2591 C   0  0  0  0  0  0  0  0  0  0  0  0
   -2.7640   -0.7511   -1.4045 S   0  0  0  0  0  0  0  0  0  0  0  0
   -2.4203    0.3343    0.0027 C   0  0  0  0  0  0  0  0  0  0  0  0
   -2.3303    1.7550   -0.4639 C   0  0  0  0  0  0  0  0  0  0  0  0
   -3.4250    2.4807   -0.6661 C   0  0  0  0  0  0  0  0  0  0  0  0
   -3.3488    3.8917   -1.1291 C   0  0  0  0  0  0  0  0  0  0  0  0
   -2.1149    4.4165   -0.7946 F   0  0  0  0  0  0  0  0  0  0  0  0
   -3.4663    3.9972   -2.5041 F   0  0  0  0  0  0  0  0  0  0  0  0
   -4.3341    4.6483   -0.5344 F   0  0  0  0  0  0  0  0  0  0  0  0
   -2.9652   -3.4678   -1.1942 C   0  0  0  0  0  0  0  0  0  0  0  0
   -2.6294   -4.8249   -1.1506 N   0  0  0  0  0  0  0  0  0  0  0  0
   -4.1864   -3.1526   -1.1777 O   0  0  0  0  0  0  0  0  0  0  0  0
    6.5019    1.0641    0.4338 H   0  0  0  0  0  0  0  0  0  0  0  0
    6.5500    2.7530    1.0211 H   0  0  0  0  0  0  0  0  0  0  0  0
    6.1191    2.3816   -0.7117 H   0  0  0  0  0  0  0  0  0  0  0  0
    4.7119    0.6593   -0.8455 H   0  0  0  0  0  0  0  0  0  0  0  0
    2.8833    1.5474   -1.9032 H   0  0  0  0  0  0  0  0  0  0  0  0
    2.9536    2.9048   -0.6971 H   0  0  0  0  0  0  0  0  0  0  0  0
    0.8017    1.2416   -0.8989 H   0  0  0  0  0  0  0  0  0  0  0  0
    1.3754    1.9861    0.6429 H   0  0  0  0  0  0  0  0  0  0  0  0
    3.4963    0.1693    1.7613 H   0  0  0  0  0  0  0  0  0  0  0  0
    3.8678   -0.9961    0.4465 H   0  0  0  0  0  0  0  0  0  0  0  0
   -0.3421   -0.5632   -1.1334 H   0  0  0  0  0  0  0  0  0  0  0  0
   -0.6320    0.7930    1.1228 H   0  0  0  0  0  0  0  0  0  0  0  0
   -2.6040   -0.5835    2.2346 H   0  0  0  0  0  0  0  0  0  0  0  0
   -0.9439   -0.9866    2.7339 H   0  0  0  0  0  0  0  0  0  0  0  0
   -2.8610   -2.5598    1.1387 H   0  0  0  0  0  0  0  0  0  0  0  0
   -1.2714   -3.0821    1.8972 H   0  0  0  0  0  0  0  0  0  0  0  0
   -0.2996   -3.1350   -0.1367 H   0  0  0  0  0  0  0  0  0  0  0  0
   -1.3524   -2.5270   -2.1577 H   0  0  0  0  0  0  0  0  0  0  0  0
   -3.2966    0.2855    0.6814 H   0  0  0  0  0  0  0  0  0  0  0  0
   -1.3740    2.2280   -0.6485 H   0  0  0  0  0  0  0  0  0  0  0  0
   -4.4221    2.0730   -0.5015 H   0  0  0  0  0  0  0  0  0  0  0  0
   -3.2041   -5.4669   -0.5615 H   0  0  0  0  0  0  0  0  0  0  0  0
   -1.8360   -5.2466   -1.6712 H   0  0  0  0  0  0  0  0  0  0  0  0
  1  2  1  0
  2  3  1  0
  3  4  1  0
  4  5  1  0
  5  6  1  0
  6  7  1  0
  6  8  1  0
  8  9  2  0
  8 10  1  0
 10 11  1  0
 11 12  1  0
 12 13  1  0
 13 14  1  0
 14 15  1  0
 15 16  1  0
 16 17  1  0
 17 18  1  0
 18 19  2  3
 19 20  1  0
 20 21  1  0
 20 22  1  0
 20 23  1  0
 15 24  1  0
 24 25  1  0
 24 26  2  0
  7  3  1  0
 14 10  1  0
 17 11  1  0
  1 27  1  0
  1 28  1  0
  1 29  1  0
  3 30  1  0
  4 31  1  0
  4 32  1  0
  5 33  1  0
  5 34  1  0
  7 35  1  0
  7 36  1  0
 10 37  1  0
 11 38  1  0
 12 39  1  0
 12 40  1  0
 13 41  1  0
 13 42  1  0
 14 43  1  0
 15 44  1  0
 17 45  1  0
 18 46  1  0
 19 47  1  0
 25 48  1  0
 25 49  1  0
M  END
$$$$
[H]c1nc([H])n(-c2c([H])c([H])c(C(=O)N3C([H])([H])C([H])([H])[C@]([H])(c4c([H])nc([H])c([H])c4[H])C3([H])[H])c([H])c2[H])n1
     RDKit          3D

 41 44  0  0  0  0  0  0  0  0999 V2000
    0.6317   -3.1505    0.4379 O   0  0  0  0  0  0  0  0  0  0  0  0
    0.4382   -1.8747    0.3104 C   0  0  0  0  0  0  0  0  0  0  0  0
   -0.8997   -1.4098    0.3275 N   0  0  0  0  0  0  0  0  0  0  0  0
   -2.0139   -2.3548    0.4144 C   0  0  0  0  0  0  0  0  0  0  0  0
   -3.0663   -1.6271    1.1721 C   0  0  0  0  0  0  0  0  0  0  0  0
   -2.8188   -0.1890    0.8464 C   0  0  1  0  0  0  0  0  0  0  0  0
   -1.4188   -0.0973    0.3151 C   0  0  0  0  0  0  0  0  0  0  0  0
   -3.7685    0.3972   -0.1118 C   0  0  0  0  0  0  0  0  0  0  0  0
   -4.6435    1.4044    0.2952 C   0  0  0  0  0  0  0  0  0  0  0  0
   -5.5414    1.9781   -0.5761 C   0  0  0  0  0  0  0  0  0  0  0  0
   -5.5934    1.5657   -1.8759 C   0  0  0  0  0  0  0  0  0  0  0  0
   -4.7567    0.6030   -2.2641 N   0  0  0  0  0  0  0  0  0  0  0  0
   -3.8575    0.0175   -1.4227 C   0  0  0  0  0  0  0  0  0  0  0  0
    1.6245   -1.0860    0.1675 C   0  0  0  0  0  0  0  0  0  0  0  0
    2.8574   -1.7148    0.4346 C   0  0  0  0  0  0  0  0  0  0  0  0
    4.0395   -1.0456    0.2748 C   0  0  0  0  0  0  0  0  0  0  0  0
    4.1070    0.2614   -0.1489 C   0  0  0  0  0  0  0  0  0  0  0  0
    2.9082    0.8684   -0.4079 C   0  0  0  0  0  0  0  0  0  0  0  0
    1.6841    0.2072   -0.2537 C   0  0  0  0  0  0  0  0  0  0  0  0
    5.3500    0.9329   -0.3055 N   0  0  0  0  0  0  0  0  0  0  0  0
    5.5000    2.2674   -0.3883 C   0  0  0  0  0  0  0  0  0  0  0  0
    6.8198    2.4733   -0.5288 N   0  0  0  0  0  0  0  0  0  0  0  0
    7.4613    1.3083   -0.5327 C   0  0  0  0  0  0  0  0  0  0  0  0
    6.5324    0.3448   -0.3921 N   0  0  0  0  0  0  0  0  0  0  0  0
   -1.6786   -3.2902    0.9363 H   0  0  0  0  0  0  0  0  0  0  0  0
   -2.2932   -2.6031   -0.6435 H   0  0  0  0  0  0  0  0  0  0  0  0
   -2.8782   -1.7899    2.2646 H   0  0  0  0  0  0  0  0  0  0  0  0
   -4.0860   -1.9698    0.8957 H   0  0  0  0  0  0  0  0  0  0  0  0
   -2.8868    0.4249    1.7907 H   0  0  0  0  0  0  0  0  0  0  0  0
   -1.4808    0.2450   -0.7371 H   0  0  0  0  0  0  0  0  0  0  0  0
   -0.8155    0.6069    0.9644 H   0  0  0  0  0  0  0  0  0  0  0  0
   -4.6032    1.7324    1.3261 H   0  0  0  0  0  0  0  0  0  0  0  0
   -6.2130    2.7576   -0.2456 H   0  0  0  0  0  0  0  0  0  0  0  0
   -6.3013    2.0132   -2.5761 H   0  0  0  0  0  0  0  0  0  0  0  0
   -3.2026   -0.7577   -1.8006 H   0  0  0  0  0  0  0  0  0  0  0  0
    2.8562   -2.7484    0.7755 H   0  0  0  0  0  0  0  0  0  0  0  0
    5.0021   -1.5349    0.4828 H   0  0  0  0  0  0  0  0  0  0  0  0
    2.9128    1.8873   -0.7406 H   0  0  0  0  0  0  0  0  0  0  0  0
    0.8160    0.7683   -0.5156 H   0  0  0  0  0  0  0  0  0  0  0  0
    4.7421    3.0287   -0.3523 H   0  0  0  0  0  0  0  0  0  0  0  0
    8.5347    1.1500   -0.6304 H   0  0  0  0  0  0  0  0  0  0  0  0
  1  2  2  0
  2  3  1  0
  3  4  1  0
  4  5  1  0
  5  6  1  0
  6  7  1  0
  6  8  1  0
  8  9  2  0
  9 10  1  0
 10 11  2  0
 11 12  1  0
 12 13  2  0
  2 14  1  0
 14 15  2  0
 15 16  1  0
 16 17  2  0
 17 18  1  0
 18 19  2  0
 17 20  1  0
 20 21  1  0
 21 22  2  0
 22 23  1  0
 23 24  2  0
  7  3  1  0
 13  8  1  0
 19 14  1  0
 24 20  1  0
  4 25  1  0
  4 26  1  0
  5 27  1  0
  5 28  1  0
  6 29  1  1
  7 30  1  0
  7 31  1  0
  9 32  1  0
 10 33  1  0
 11 34  1  0
 13 35  1  0
 15 36  1  0
 16 37  1  0
 18 38  1  0
 19 39  1  0
 21 40  1  0
 23 41  1  0
M  END
$$$$
[H]c1nc([H])c([H])c(-c2c([H])c([H])c(N([H])C(=O)c3oc(C#N)c([H])c3[H])c(C([H])([H])[H])c2[H])c1[H]
     RDKit          3D

 36 38  0  0  0  0  0  0  0  0999 V2000
    0.0398    2.2959   -0.4373 C   0  0  0  0  0  0  0  0  0  0  0  0
   -0.5252    0.9544   -0.1822 C   0  0  0  0  0  0  0  0  0  0  0  0
   -1.8961    0.7741   -0.1487 C   0  0  0  0  0  0  0  0  0  0  0  0
   -2.4465   -0.4631    0.0836 C   0  0  0  0  0  0  0  0  0  0  0  0
   -1.5922   -1.5200    0.2822 C   0  0  0  0  0  0  0  0  0  0  0  0
   -0.1946   -1.3329    0.2475 C   0  0  0  0  0  0  0  0  0  0  0  0
    0.3657   -0.1086    0.0178 C   0  0  0  0  0  0  0  0  0  0  0  0
    1.7578    0.1553   -0.0293 N   0  0  0  0  0  0  0  0  0  0  0  0
    2.8202   -0.7179    0.1328 C   0  0  0  0  0  0  0  0  0  0  0  0
    2.6926   -1.9240    0.3544 O   0  0  0  0  0  0  0  0  0  0  0  0
    4.2022   -0.2091    0.0414 C   0  0  0  0  0  0  0  0  0  0  0  0
    4.5532    1.0947   -0.1939 C   0  0  0  0  0  0  0  0  0  0  0  0
    5.9254    1.1560   -0.2044 C   0  0  0  0  0  0  0  0  0  0  0  0
    6.3442   -0.1297    0.0278 C   0  0  0  0  0  0  0  0  0  0  0  0
    5.3014   -0.8899    0.1646 O   0  0  0  0  0  0  0  0  0  0  0  0
    7.7343   -0.5623    0.1064 C   0  0  0  0  0  0  0  0  0  0  0  0
    8.8375   -0.9077    0.1535 N   0  0  0  0  0  0  0  0  0  0  0  0
   -3.8990   -0.6296    0.1160 C   0  0  0  0  0  0  0  0  0  0  0  0
   -4.7026    0.4007    0.5684 C   0  0  0  0  0  0  0  0  0  0  0  0
   -6.0697    0.2555    0.6014 C   0  0  0  0  0  0  0  0  0  0  0  0
   -6.5972   -0.9072    0.1845 N   0  0  0  0  0  0  0  0  0  0  0  0
   -5.8287   -1.9294   -0.2624 C   0  0  0  0  0  0  0  0  0  0  0  0
   -4.4569   -1.8097   -0.3056 C   0  0  0  0  0  0  0  0  0  0  0  0
    0.7381    2.2920   -1.3174 H   0  0  0  0  0  0  0  0  0  0  0  0
    0.5154    2.7170    0.4683 H   0  0  0  0  0  0  0  0  0  0  0  0
   -0.7857    2.9712   -0.7336 H   0  0  0  0  0  0  0  0  0  0  0  0
   -2.5710    1.6111   -0.3065 H   0  0  0  0  0  0  0  0  0  0  0  0
   -1.9960   -2.5012    0.4662 H   0  0  0  0  0  0  0  0  0  0  0  0
    0.4396   -2.1901    0.4088 H   0  0  0  0  0  0  0  0  0  0  0  0
    2.0472    1.1850   -0.2181 H   0  0  0  0  0  0  0  0  0  0  0  0
    3.8873    1.9362   -0.3460 H   0  0  0  0  0  0  0  0  0  0  0  0
    6.5804    2.0036   -0.3569 H   0  0  0  0  0  0  0  0  0  0  0  0
   -4.2999    1.3491    0.9099 H   0  0  0  0  0  0  0  0  0  0  0  0
   -6.7330    1.0492    0.9530 H   0  0  0  0  0  0  0  0  0  0  0  0
   -6.3207   -2.8337   -0.5817 H   0  0  0  0  0  0  0  0  0  0  0  0
   -3.8674   -2.6350   -0.6642 H   0  0  0  0  0  0  0  0  0  0  0  0
  1  2  1  0
  2  3  2  0
  3  4  1  0
  4  5  2  0
  5  6  1  0
  6  7  2  0
  7  8  1  0
  8  9  1  0
  9 10  2  0
  9 11  1  0
 11 12  2  0
 12 13  1  0
 13 14  2  0
 14 15  1  0
 14 16  1  0
 16 17  3  0
  4 18  1  0
 18 19  2  0
 19 20  1  0
 20 21  2  0
 21 22  1  0
 22 23  2  0
  7  2  1  0
 15 11  1  0
 23 18  1  0
  1 24  1  0
  1 25  1  0
  1 26  1  0
  3 27  1  0
  5 28  1  0
  6 29  1  0
  8 30  1  0
 12 31  1  0
 13 32  1  0
 19 33  1  0
 20 34  1  0
 22 35  1  0
 23 36  1  0
M  END
$$$$
[H]OC([H])([H])c1c([H])c([H])c([H])c(/C([H])=C(\N([H])C(=[Se])N([H])c2c([H])c([H])c(S(=O)(=O)N([H])[H])c([H])c2[H])C(F)(F)F)c1[H]
     RDKit          3D

 44 45  0  0  0  0  0  0  0  0999 V2000
    5.9256   -3.2548    0.6964 N   0  0  0  0  0  0  0  0  0  0  0  0
    5.9234   -2.3864   -0.7811 S   0  0  0  0  0  0  0  0  0  0  0  0
    7.2484   -1.6833   -0.9086 O   0  0  0  0  0  0  0  0  0  0  0  0
    5.7247   -3.3412   -1.9203 O   0  0  0  0  0  0  0  0  0  0  0  0
    4.6487   -1.1608   -0.7542 C   0  0  0  0  0  0  0  0  0  0  0  0
    4.9328    0.1071   -0.3206 C   0  0  0  0  0  0  0  0  0  0  0  0
    3.9489    1.0686   -0.2914 C   0  0  0  0  0  0  0  0  0  0  0  0
    2.6554    0.8107   -0.6889 C   0  0  0  0  0  0  0  0  0  0  0  0
    1.6295    1.7767   -0.6676 N   0  0  0  0  0  0  0  0  0  0  0  0
    0.3023    1.5447   -1.0713 C   0  0  0  0  0  0  0  0  0  0  0  0
   -0.2241    1.3461   -2.8813 Se  0  0  0  0  0  2  0  0  0  0  0  0
   -0.6925    1.4568   -0.0415 N   0  0  0  0  0  0  0  0  0  0  0  0
   -1.6278    2.4926    0.0867 C   0  0  0  0  0  0  0  0  0  0  0  0
   -2.8980    2.2272    0.1952 C   0  0  0  0  0  0  0  0  0  0  0  0
   -3.5643    0.9388    0.2098 C   0  0  0  0  0  0  0  0  0  0  0  0
   -4.6552    0.8171   -0.6730 C   0  0  0  0  0  0  0  0  0  0  0  0
   -5.4192   -0.3168   -0.7642 C   0  0  0  0  0  0  0  0  0  0  0  0
   -5.0588   -1.3567    0.0705 C   0  0  0  0  0  0  0  0  0  0  0  0
   -4.0081   -1.2764    0.9391 C   0  0  0  0  0  0  0  0  0  0  0  0
   -3.6127   -2.3945    1.8437 C   0  0  0  0  0  0  0  0  0  0  0  0
   -3.7143   -2.0520    3.1805 O   0  0  0  0  0  0  0  0  0  0  0  0
   -3.2580   -0.1200    1.0076 C   0  0  0  0  0  0  0  0  0  0  0  0
   -1.1333    3.9340    0.0957 C   0  0  0  0  0  0  0  0  0  0  0  0
   -0.5055    4.1730   -1.1110 F   0  0  0  0  0  0  0  0  0  0  0  0
   -2.2154    4.7647    0.3042 F   0  0  0  0  0  0  0  0  0  0  0  0
   -0.2401    4.1569    1.0963 F   0  0  0  0  0  0  0  0  0  0  0  0
    2.3723   -0.4627   -1.1241 C   0  0  0  0  0  0  0  0  0  0  0  0
    3.3655   -1.4506   -1.1582 C   0  0  0  0  0  0  0  0  0  0  0  0
    5.2714   -4.0711    0.6250 H   0  0  0  0  0  0  0  0  0  0  0  0
    5.6129   -2.6181    1.4842 H   0  0  0  0  0  0  0  0  0  0  0  0
    5.9190    0.3570   -0.0034 H   0  0  0  0  0  0  0  0  0  0  0  0
    4.1482    2.0904    0.0516 H   0  0  0  0  0  0  0  0  0  0  0  0
    1.9063    2.7417   -0.3156 H   0  0  0  0  0  0  0  0  0  0  0  0
   -0.6171    0.6120    0.5309 H   0  0  0  0  0  0  0  0  0  0  0  0
   -3.5577    3.1120    0.2897 H   0  0  0  0  0  0  0  0  0  0  0  0
   -4.9312    1.6539   -1.3318 H   0  0  0  0  0  0  0  0  0  0  0  0
   -6.2611   -0.4399   -1.4311 H   0  0  0  0  0  0  0  0  0  0  0  0
   -5.6320   -2.2698    0.0353 H   0  0  0  0  0  0  0  0  0  0  0  0
   -2.5984   -2.7212    1.5324 H   0  0  0  0  0  0  0  0  0  0  0  0
   -4.2993   -3.2509    1.5843 H   0  0  0  0  0  0  0  0  0  0  0  0
   -2.8729   -2.3120    3.6357 H   0  0  0  0  0  0  0  0  0  0  0  0
   -2.4362   -0.0357    1.7077 H   0  0  0  0  0  0  0  0  0  0  0  0
    1.3708   -0.7467   -1.4569 H   0  0  0  0  0  0  0  0  0  0  0  0
    3.1274   -2.4606   -1.5063 H   0  0  0  0  0  0  0  0  0  0  0  0
  1  2  1  0
  2  3  2  0
  2  4  2  0
  2  5  1  0
  5  6  2  0
  6  7  1  0
  7  8  2  0
  8  9  1  0
  9 10  1  0
 10 11  2  0
 10 12  1  0
 12 13  1  0
 13 14  2  0
 14 15  1  0
 15 16  2  0
 16 17  1  0
 17 18  2  0
 18 19  1  0
 19 20  1  0
 20 21  1  0
 19 22  2  0
 13 23  1  0
 23 24  1  0
 23 25  1  0
 23 26  1  0
  8 27  1  0
 27 28  2  0
 28  5  1  0
 22 15  1  0
  1 29  1  0
  1 30  1  0
  6 31  1  0
  7 32  1  0
  9 33  1  0
 12 34  1  0
 14 35  1  0
 16 36  1  0
 17 37  1  0
 18 38  1  0
 20 39  1  0
 20 40  1  0
 21 41  1  0
 22 42  1  0
 27 43  1  0
 28 44  1  0
M  END
$$$$
[H]c1nc(-c2nc([H])n3c([H])c(C(=O)OC([H])(C([H])([H])[H])C([H])([H])[H])c([H])c([H])c23)c([H])c(Oc2c([H])nc(C([H])(C([H])([H])[H])C([H])([H])C([H])([H])C([H])(C([H])([H])[H])C([H])([H])[H])c([H])c2[H])c1[H]
     RDKit          3D

 67 70  0  0  0  0  0  0  0  0999 V2000
   -8.2746    1.7149    1.5160 C   0  0  0  0  0  0  0  0  0  0  0  0
   -8.8243    1.1594    0.2282 C   0  0  0  0  0  0  0  0  0  0  0  0
   -8.8668    2.2615   -0.7908 C   0  0  0  0  0  0  0  0  0  0  0  0
   -7.8692    0.0617   -0.2644 C   0  0  0  0  0  0  0  0  0  0  0  0
   -7.8258   -0.9763    0.8025 C   0  0  0  0  0  0  0  0  0  0  0  0
   -6.9394   -2.1571    0.5076 C   0  0  0  0  0  0  0  0  0  0  0  0
   -7.3303   -2.9138   -0.7180 C   0  0  0  0  0  0  0  0  0  0  0  0
   -5.5062   -1.8076    0.4365 C   0  0  0  0  0  0  0  0  0  0  0  0
   -4.9517   -1.2311   -0.6749 C   0  0  0  0  0  0  0  0  0  0  0  0
   -3.6137   -0.8924   -0.7522 C   0  0  0  0  0  0  0  0  0  0  0  0
   -2.7767   -1.1357    0.3285 C   0  0  0  0  0  0  0  0  0  0  0  0
   -1.4838   -0.8587    0.3867 O   0  0  0  0  0  0  0  0  0  0  0  0
   -0.4756   -0.2216   -0.1792 C   0  0  0  0  0  0  0  0  0  0  0  0
   -0.6188    0.7318   -1.1544 C   0  0  0  0  0  0  0  0  0  0  0  0
    0.5059    1.3512   -1.6991 C   0  0  0  0  0  0  0  0  0  0  0  0
    1.7138    1.0107   -1.2652 N   0  0  0  0  0  0  0  0  0  0  0  0
    1.9376    0.0957   -0.3213 C   0  0  0  0  0  0  0  0  0  0  0  0
    0.8513   -0.5242    0.2259 C   0  0  0  0  0  0  0  0  0  0  0  0
    3.2572   -0.2933    0.1786 C   0  0  0  0  0  0  0  0  0  0  0  0
    3.5182   -1.2192    1.1352 N   0  0  0  0  0  0  0  0  0  0  0  0
    4.8163   -1.2984    1.3302 C   0  0  0  0  0  0  0  0  0  0  0  0
    5.4015   -0.4054    0.4816 N   0  0  0  0  0  0  0  0  0  0  0  0
    6.6763   -0.0944    0.2813 C   0  0  0  0  0  0  0  0  0  0  0  0
    7.1142    0.8406   -0.6234 C   0  0  0  0  0  0  0  0  0  0  0  0
    6.1818    1.5053   -1.3774 C   0  0  0  0  0  0  0  0  0  0  0  0
    4.8378    1.1832   -1.1715 C   0  0  0  0  0  0  0  0  0  0  0  0
    4.4541    0.2338   -0.2470 C   0  0  0  0  0  0  0  0  0  0  0  0
    8.5456    1.0856   -0.7367 C   0  0  0  0  0  0  0  0  0  0  0  0
    8.9384    1.9444   -1.5818 O   0  0  0  0  0  0  0  0  0  0  0  0
    9.4980    0.4520    0.0077 O   0  0  0  0  0  0  0  0  0  0  0  0
   10.8766    0.6487   -0.0621 C   0  0  0  0  0  0  0  0  0  0  0  0
   11.4665    1.2003    1.2139 C   0  0  0  0  0  0  0  0  0  0  0  0
   11.6302   -0.5943   -0.5169 C   0  0  0  0  0  0  0  0  0  0  0  0
   -3.3875   -1.7289    1.4476 C   0  0  0  0  0  0  0  0  0  0  0  0
   -4.6758   -2.0334    1.4671 N   0  0  0  0  0  0  0  0  0  0  0  0
   -8.6142    2.7606    1.5988 H   0  0  0  0  0  0  0  0  0  0  0  0
   -8.6139    1.1448    2.4066 H   0  0  0  0  0  0  0  0  0  0  0  0
   -7.1574    1.7409    1.4502 H   0  0  0  0  0  0  0  0  0  0  0  0
   -9.8315    0.7525    0.4273 H   0  0  0  0  0  0  0  0  0  0  0  0
   -9.6679    2.0837   -1.5653 H   0  0  0  0  0  0  0  0  0  0  0  0
   -7.8963    2.3568   -1.3173 H   0  0  0  0  0  0  0  0  0  0  0  0
   -9.0791    3.2489   -0.3027 H   0  0  0  0  0  0  0  0  0  0  0  0
   -8.2716   -0.3049   -1.2061 H   0  0  0  0  0  0  0  0  0  0  0  0
   -6.8986    0.5806   -0.4191 H   0  0  0  0  0  0  0  0  0  0  0  0
   -8.8539   -1.3680    0.9387 H   0  0  0  0  0  0  0  0  0  0  0  0
   -7.5084   -0.5393    1.7655 H   0  0  0  0  0  0  0  0  0  0  0  0
   -7.1018   -2.8514    1.3950 H   0  0  0  0  0  0  0  0  0  0  0  0
   -6.4246   -3.3799   -1.2006 H   0  0  0  0  0  0  0  0  0  0  0  0
   -8.0194   -3.7622   -0.5189 H   0  0  0  0  0  0  0  0  0  0  0  0
   -7.8420   -2.2759   -1.4805 H   0  0  0  0  0  0  0  0  0  0  0  0
   -5.5536   -1.0110   -1.5703 H   0  0  0  0  0  0  0  0  0  0  0  0
   -3.2227   -0.4601   -1.6472 H   0  0  0  0  0  0  0  0  0  0  0  0
   -1.5945    1.0585   -1.5334 H   0  0  0  0  0  0  0  0  0  0  0  0
    0.3230    2.0955   -2.4668 H   0  0  0  0  0  0  0  0  0  0  0  0
    0.9583   -1.2737    0.9928 H   0  0  0  0  0  0  0  0  0  0  0  0
    5.3354   -1.9300    2.0134 H   0  0  0  0  0  0  0  0  0  0  0  0
    7.4186   -0.6319    0.8919 H   0  0  0  0  0  0  0  0  0  0  0  0
    6.4896    2.2512   -2.1033 H   0  0  0  0  0  0  0  0  0  0  0  0
    4.1013    1.6870   -1.7440 H   0  0  0  0  0  0  0  0  0  0  0  0
   11.0680    1.4215   -0.8478 H   0  0  0  0  0  0  0  0  0  0  0  0
   12.5693    0.9714    1.1641 H   0  0  0  0  0  0  0  0  0  0  0  0
   11.3704    2.3138    1.2891 H   0  0  0  0  0  0  0  0  0  0  0  0
   11.0542    0.7710    2.1260 H   0  0  0  0  0  0  0  0  0  0  0  0
   11.3382   -0.7857   -1.5681 H   0  0  0  0  0  0  0  0  0  0  0  0
   12.7114   -0.3665   -0.4907 H   0  0  0  0  0  0  0  0  0  0  0  0
   11.3552   -1.4689    0.0972 H   0  0  0  0  0  0  0  0  0  0  0  0
   -2.7422   -1.9241    2.2978 H   0  0  0  0  0  0  0  0  0  0  0  0
  1  2  1  0
  2  3  1  0
  2  4  1  0
  4  5  1  0
  5  6  1  0
  6  7  1  0
  6  8  1  0
  8  9  2  0
  9 10  1  0
 10 11  2  0
 11 12  1  0
 12 13  1  0
 13 14  2  0
 14 15  1  0
 15 16  2  0
 16 17  1  0
 17 18  2  0
 17 19  1  0
 19 20  1  0
 20 21  2  0
 21 22  1  0
 22 23  1  0
 23 24  2  0
 24 25  1  0
 25 26  2  0
 26 27  1  0
 24 28  1  0
 28 29  2  0
 28 30  1  0
 30 31  1  0
 31 32  1  0
 31 33  1  0
 11 34  1  0
 34 35  2  0
 35  8  1  0
 18 13  1  0
 27 19  2  0
 27 22  1  0
  1 36  1  0
  1 37  1  0
  1 38  1  0
  2 39  1  0
  3 40  1  0
  3 41  1  0
  3 42  1  0
  4 43  1  0
  4 44  1  0
  5 45  1  0
  5 46  1  0
  6 47  1  0
  7 48  1  0
  7 49  1  0
  7 50  1  0
  9 51  1  0
 10 52  1  0
 14 53  1  0
 15 54  1  0
 18 55  1  0
 21 56  1  0
 23 57  1  0
 25 58  1  0
 26 59  1  0
 31 60  1  0
 32 61  1  0
 32 62  1  0
 32 63  1  0
 33 64  1  0
 33 65  1  0
 33 66  1  0
 34 67  1  0
M  END
$$$$
[H]c1c([H])c(N([H])C(=O)N([H])C([H])([H])C([H])([H])[H])c([H])c(-n2c([H])c(C(=O)N([H])[H])c([H])c2C(=O)N([H])c2c([H])c([H])c([H])c(C(F)(F)F)c2[H])c1[H]
     RDKit          3D

 53 55  0  0  0  0  0  0  0  0999 V2000
    7.8313    1.4376    0.4886 C   0  0  0  0  0  0  0  0  0  0  0  0
    7.1080    2.7828    0.5036 C   0  0  0  0  0  0  0  0  0  0  0  0
    5.6994    2.5658    0.8287 N   0  0  0  0  0  0  0  0  0  0  0  0
    4.8998    1.7532   -0.0207 C   0  0  0  0  0  0  0  0  0  0  0  0
    5.4170    1.2560   -1.0335 O   0  0  0  0  0  0  0  0  0  0  0  0
    3.5383    1.4980    0.2578 N   0  0  0  0  0  0  0  0  0  0  0  0
    2.6778    0.7126   -0.5299 C   0  0  0  0  0  0  0  0  0  0  0  0
    2.7876    0.7284   -1.8970 C   0  0  0  0  0  0  0  0  0  0  0  0
    1.9983   -0.0869   -2.6913 C   0  0  0  0  0  0  0  0  0  0  0  0
    1.0967   -0.9177   -2.0911 C   0  0  0  0  0  0  0  0  0  0  0  0
    0.9378   -0.9793   -0.7092 C   0  0  0  0  0  0  0  0  0  0  0  0
    1.7463   -0.1468    0.0351 C   0  0  0  0  0  0  0  0  0  0  0  0
    0.0144   -1.9084   -0.1532 N   0  0  0  0  0  0  0  0  0  0  0  0
    0.4116   -3.1501    0.2520 C   0  0  0  0  0  0  0  0  0  0  0  0
   -0.6630   -3.8645    0.7324 C   0  0  0  0  0  0  0  0  0  0  0  0
   -1.7473   -2.9891    0.6000 C   0  0  0  0  0  0  0  0  0  0  0  0
   -1.2996   -1.8107    0.0606 C   0  0  0  0  0  0  0  0  0  0  0  0
   -2.1469   -0.6374   -0.2035 C   0  0  0  0  0  0  0  0  0  0  0  0
   -1.5921    0.4158   -0.6120 O   0  0  0  0  0  0  0  0  0  0  0  0
   -3.5243   -0.7321    0.0030 N   0  0  0  0  0  0  0  0  0  0  0  0
   -4.5118    0.2566   -0.1715 C   0  0  0  0  0  0  0  0  0  0  0  0
   -5.8261   -0.0354    0.2117 C   0  0  0  0  0  0  0  0  0  0  0  0
   -6.8538    0.8537    0.1050 C   0  0  0  0  0  0  0  0  0  0  0  0
   -6.6535    2.1188   -0.3942 C   0  0  0  0  0  0  0  0  0  0  0  0
   -5.3723    2.4309   -0.7770 C   0  0  0  0  0  0  0  0  0  0  0  0
   -4.3230    1.5208   -0.6689 C   0  0  0  0  0  0  0  0  0  0  0  0
   -5.1569    3.8037   -1.3162 C   0  0  0  0  0  0  0  0  0  0  0  0
   -5.4659    4.6783   -0.2703 F   0  0  0  0  0  0  0  0  0  0  0  0
   -6.0263    4.0880   -2.3486 F   0  0  0  0  0  0  0  0  0  0  0  0
   -3.8708    4.0259   -1.7117 F   0  0  0  0  0  0  0  0  0  0  0  0
   -0.6674   -5.2218    1.2683 C   0  0  0  0  0  0  0  0  0  0  0  0
   -1.6599   -6.1196    0.8478 N   0  0  0  0  0  0  0  0  0  0  0  0
    0.2006   -5.5830    2.0899 O   0  0  0  0  0  0  0  0  0  0  0  0
    7.1054    0.5965    0.6185 H   0  0  0  0  0  0  0  0  0  0  0  0
    8.5555    1.3449    1.3506 H   0  0  0  0  0  0  0  0  0  0  0  0
    8.4127    1.2830   -0.4400 H   0  0  0  0  0  0  0  0  0  0  0  0
    7.2284    3.3186   -0.4766 H   0  0  0  0  0  0  0  0  0  0  0  0
    7.5769    3.3768    1.3098 H   0  0  0  0  0  0  0  0  0  0  0  0
    5.2870    3.0007    1.6810 H   0  0  0  0  0  0  0  0  0  0  0  0
    3.1270    1.9225    1.1303 H   0  0  0  0  0  0  0  0  0  0  0  0
    3.4745    1.3771   -2.4381 H   0  0  0  0  0  0  0  0  0  0  0  0
    2.1180   -0.0426   -3.7824 H   0  0  0  0  0  0  0  0  0  0  0  0
    0.4797   -1.5547   -2.6892 H   0  0  0  0  0  0  0  0  0  0  0  0
    1.6383   -0.1719    1.1106 H   0  0  0  0  0  0  0  0  0  0  0  0
    1.4214   -3.5377    0.2123 H   0  0  0  0  0  0  0  0  0  0  0  0
   -2.7503   -3.3048    0.9058 H   0  0  0  0  0  0  0  0  0  0  0  0
   -3.8600   -1.6875    0.3426 H   0  0  0  0  0  0  0  0  0  0  0  0
   -6.0579   -1.0279    0.6171 H   0  0  0  0  0  0  0  0  0  0  0  0
   -7.8809    0.6194    0.4056 H   0  0  0  0  0  0  0  0  0  0  0  0
   -7.4765    2.8270   -0.4673 H   0  0  0  0  0  0  0  0  0  0  0  0
   -3.3524    1.8223   -0.9791 H   0  0  0  0  0  0  0  0  0  0  0  0
   -1.6843   -6.4369   -0.1412 H   0  0  0  0  0  0  0  0  0  0  0  0
   -2.3663   -6.4688    1.5151 H   0  0  0  0  0  0  0  0  0  0  0  0
  1  2  1  0
  2  3  1  0
  3  4  1  0
  4  5  2  0
  4  6  1  0
  6  7  1  0
  7  8  2  0
  8  9  1  0
  9 10  2  0
 10 11  1  0
 11 12  2  0
 11 13  1  0
 13 14  1  0
 14 15  2  0
 15 16  1  0
 16 17  2  0
 17 18  1  0
 18 19  2  0
 18 20  1  0
 20 21  1  0
 21 22  2  0
 22 23  1  0
 23 24  2  0
 24 25  1  0
 25 26  2  0
 25 27  1  0
 27 28  1  0
 27 29  1  0
 27 30  1  0
 15 31  1  0
 31 32  1  0
 31 33  2  0
 12  7  1  0
 17 13  1  0
 26 21  1  0
  1 34  1  0
  1 35  1  0
  1 36  1  0
  2 37  1  0
  2 38  1  0
  3 39  1  0
  6 40  1  0
  8 41  1  0
  9 42  1  0
 10 43  1  0
 12 44  1  0
 14 45  1  0
 16 46  1  0
 20 47  1  0
 22 48  1  0
 23 49  1  0
 24 50  1  0
 26 51  1  0
 32 52  1  0
 32 53  1  0
M  END
$$$$
[H]c1nc([H])n(C([H])([H])C(=O)N2C([H])([H])C([H])([H])C([H])(N([H])S(=O)(=O)c3c([H])c([H])c(OC([H])([H])[H])c([H])c3[H])C([H])([H])C2([H])[H])n1
     RDKit          3D

 47 49  0  0  0  0  0  0  0  0999 V2000
    6.5985    2.1594   -1.0569 C   0  0  0  0  0  0  0  0  0  0  0  0
    5.9985    0.9482   -1.4777 O   0  0  0  0  0  0  0  0  0  0  0  0
    5.0676    0.3389   -0.6474 C   0  0  0  0  0  0  0  0  0  0  0  0
    4.7205    0.8893    0.5701 C   0  0  0  0  0  0  0  0  0  0  0  0
    3.7909    0.2792    1.3975 C   0  0  0  0  0  0  0  0  0  0  0  0
    3.1673   -0.9099    1.0422 C   0  0  0  0  0  0  0  0  0  0  0  0
    3.5205   -1.4516   -0.1752 C   0  0  0  0  0  0  0  0  0  0  0  0
    4.4488   -0.8405   -0.9994 C   0  0  0  0  0  0  0  0  0  0  0  0
    1.9955   -1.6617    2.1119 S   0  0  0  0  0  0  0  0  0  0  0  0
    1.9622   -3.1530    1.9075 O   0  0  0  0  0  0  0  0  0  0  0  0
    2.3740   -1.3139    3.5212 O   0  0  0  0  0  0  0  0  0  0  0  0
    0.4501   -1.0346    1.7639 N   0  0  0  0  0  0  0  0  0  0  0  0
   -0.0006   -1.3029    0.4133 C   0  0  0  0  0  0  0  0  0  0  0  0
   -0.1666    0.0624   -0.2645 C   0  0  0  0  0  0  0  0  0  0  0  0
   -1.1331   -0.0400   -1.4222 C   0  0  0  0  0  0  0  0  0  0  0  0
   -2.4406   -0.3480   -0.8634 N   0  0  0  0  0  0  0  0  0  0  0  0
   -2.4679   -0.9604    0.4283 C   0  0  0  0  0  0  0  0  0  0  0  0
   -1.3496   -2.0081    0.4972 C   0  0  0  0  0  0  0  0  0  0  0  0
   -3.5804   -0.0199   -1.6339 C   0  0  0  0  0  0  0  0  0  0  0  0
   -3.4555    0.5231   -2.7675 O   0  0  0  0  0  0  0  0  0  0  0  0
   -4.9353   -0.2999   -1.1393 C   0  0  0  0  0  0  0  0  0  0  0  0
   -5.4333    0.8299   -0.3766 N   0  0  0  0  0  0  0  0  0  0  0  0
   -6.1157    1.8595   -0.8669 C   0  0  0  0  0  0  0  0  0  0  0  0
   -6.3909    2.6839    0.1481 N   0  0  0  0  0  0  0  0  0  0  0  0
   -5.8712    2.1489    1.2593 C   0  0  0  0  0  0  0  0  0  0  0  0
   -5.2869    1.0121    0.9226 N   0  0  0  0  0  0  0  0  0  0  0  0
    7.4012    2.4690   -1.7582 H   0  0  0  0  0  0  0  0  0  0  0  0
    5.7734    2.9191   -1.0165 H   0  0  0  0  0  0  0  0  0  0  0  0
    6.9986    2.0887   -0.0241 H   0  0  0  0  0  0  0  0  0  0  0  0
    5.1907    1.8211    0.8792 H   0  0  0  0  0  0  0  0  0  0  0  0
    3.5118    0.7107    2.3628 H   0  0  0  0  0  0  0  0  0  0  0  0
    3.0498   -2.3793   -0.4752 H   0  0  0  0  0  0  0  0  0  0  0  0
    4.7260   -1.2721   -1.9628 H   0  0  0  0  0  0  0  0  0  0  0  0
    0.2904   -0.0717    2.0746 H   0  0  0  0  0  0  0  0  0  0  0  0
    0.7365   -1.8706   -0.1570 H   0  0  0  0  0  0  0  0  0  0  0  0
    0.8443    0.3549   -0.6148 H   0  0  0  0  0  0  0  0  0  0  0  0
   -0.5096    0.7923    0.4862 H   0  0  0  0  0  0  0  0  0  0  0  0
   -1.1750    0.9358   -1.9150 H   0  0  0  0  0  0  0  0  0  0  0  0
   -0.7877   -0.8078   -2.1179 H   0  0  0  0  0  0  0  0  0  0  0  0
   -2.2626   -0.2008    1.2298 H   0  0  0  0  0  0  0  0  0  0  0  0
   -3.4173   -1.4501    0.6279 H   0  0  0  0  0  0  0  0  0  0  0  0
   -1.4406   -2.6197    1.4066 H   0  0  0  0  0  0  0  0  0  0  0  0
   -1.4608   -2.6989   -0.3768 H   0  0  0  0  0  0  0  0  0  0  0  0
   -5.0477   -1.2104   -0.5484 H   0  0  0  0  0  0  0  0  0  0  0  0
   -5.6017   -0.4269   -2.0413 H   0  0  0  0  0  0  0  0  0  0  0  0
   -6.3966    2.0015   -1.9041 H   0  0  0  0  0  0  0  0  0  0  0  0
   -5.8898    2.5250    2.2783 H   0  0  0  0  0  0  0  0  0  0  0  0
  1  2  1  0
  2  3  1  0
  3  4  2  0
  4  5  1  0
  5  6  2  0
  6  7  1  0
  7  8  2  0
  6  9  1  0
  9 10  2  0
  9 11  2  0
  9 12  1  0
 12 13  1  0
 13 14  1  0
 14 15  1  0
 15 16  1  0
 16 17  1  0
 17 18  1  0
 16 19  1  0
 19 20  2  0
 19 21  1  0
 21 22  1  0
 22 23  1  0
 23 24  2  0
 24 25  1  0
 25 26  2  0
  8  3  1  0
 18 13  1  0
 26 22  1  0
  1 27  1  0
  1 28  1  0
  1 29  1  0
  4 30  1  0
  5 31  1  0
  7 32  1  0
  8 33  1  0
 12 34  1  0
 13 35  1  0
 14 36  1  0
 14 37  1  0
 15 38  1  0
 15 39  1  0
 17 40  1  0
 17 41  1  0
 18 42  1  0
 18 43  1  0
 21 44  1  0
 21 45  1  0
 23 46  1  0
 25 47  1  0
M  END
$$$$
[H]c1c([H])c(-c2c([H])c([H])c(Cl)c(S(=O)(=O)c3c([H])c([H])c4c(c3[H])C([H])([H])C([H])([H])C([H])([H])C([H])([H])C4([H])[H])c2[H])c([H])c([H])c1F
     RDKit          3D

 48 51  0  0  0  0  0  0  0  0999 V2000
    7.8559   -3.0678    0.3353 F   0  0  0  0  0  0  0  0  0  0  0  0
    6.8008   -2.2380    0.1625 C   0  0  0  0  0  0  0  0  0  0  0  0
    5.5656   -2.4558    0.7287 C   0  0  0  0  0  0  0  0  0  0  0  0
    4.4970   -1.6078    0.5488 C   0  0  0  0  0  0  0  0  0  0  0  0
    4.6752   -0.4863   -0.2374 C   0  0  0  0  0  0  0  0  0  0  0  0
    5.9054   -0.2532   -0.8118 C   0  0  0  0  0  0  0  0  0  0  0  0
    6.9687   -1.1200   -0.6178 C   0  0  0  0  0  0  0  0  0  0  0  0
    3.6100    0.4725   -0.4859 C   0  0  0  0  0  0  0  0  0  0  0  0
    3.5956    1.1381   -1.6908 C   0  0  0  0  0  0  0  0  0  0  0  0
    2.5980    2.0481   -1.9385 C   0  0  0  0  0  0  0  0  0  0  0  0
    1.6073    2.3080   -0.9992 C   0  0  0  0  0  0  0  0  0  0  0  0
    0.3623    3.4786   -1.3588 Cl  0  0  0  0  0  0  0  0  0  0  0  0
    1.5963    1.6659    0.1983 C   0  0  0  0  0  0  0  0  0  0  0  0
    2.6181    0.7508    0.4211 C   0  0  0  0  0  0  0  0  0  0  0  0
    0.4181    1.8883    1.4589 S   0  0  0  0  0  0  0  0  0  0  0  0
    0.8542    1.1154    2.6718 O   0  0  0  0  0  0  0  0  0  0  0  0
    0.5061    3.3623    1.8529 O   0  0  0  0  0  0  0  0  0  0  0  0
   -1.2048    1.4855    0.9875 C   0  0  0  0  0  0  0  0  0  0  0  0
   -2.1238    2.4616    0.6884 C   0  0  0  0  0  0  0  0  0  0  0  0
   -3.4285    2.1188    0.2942 C   0  0  0  0  0  0  0  0  0  0  0  0
   -3.7883    0.7833    0.2079 C   0  0  0  0  0  0  0  0  0  0  0  0
   -5.1803    0.6974   -0.2183 C   0  0  0  0  0  0  0  0  0  0  0  0
   -5.8466   -0.6172   -0.0331 C   0  0  0  0  0  0  0  0  0  0  0  0
   -5.0593   -1.6157   -0.8932 C   0  0  0  0  0  0  0  0  0  0  0  0
   -4.1552   -2.3345    0.0315 C   0  0  0  0  0  0  0  0  0  0  0  0
   -2.9548   -1.6467    0.5095 C   0  0  0  0  0  0  0  0  0  0  0  0
   -2.8997   -0.1974    0.4985 C   0  0  0  0  0  0  0  0  0  0  0  0
   -1.5975    0.1717    0.8911 C   0  0  0  0  0  0  0  0  0  0  0  0
    5.4480   -3.3484    1.3462 H   0  0  0  0  0  0  0  0  0  0  0  0
    3.5439   -1.7993    1.0008 H   0  0  0  0  0  0  0  0  0  0  0  0
    6.0956    0.6251   -1.4429 H   0  0  0  0  0  0  0  0  0  0  0  0
    7.9203   -0.8798   -1.1008 H   0  0  0  0  0  0  0  0  0  0  0  0
    4.3691    0.9485   -2.4528 H   0  0  0  0  0  0  0  0  0  0  0  0
    2.6119    2.5556   -2.8928 H   0  0  0  0  0  0  0  0  0  0  0  0
    2.6698    0.1991    1.3624 H   0  0  0  0  0  0  0  0  0  0  0  0
   -1.9046    3.5133    0.7500 H   0  0  0  0  0  0  0  0  0  0  0  0
   -4.1368    2.8969    0.0626 H   0  0  0  0  0  0  0  0  0  0  0  0
   -5.1942    0.9156   -1.3281 H   0  0  0  0  0  0  0  0  0  0  0  0
   -5.8169    1.5251    0.2092 H   0  0  0  0  0  0  0  0  0  0  0  0
   -6.8945   -0.5555   -0.3851 H   0  0  0  0  0  0  0  0  0  0  0  0
   -5.8460   -0.9282    1.0386 H   0  0  0  0  0  0  0  0  0  0  0  0
   -5.8151   -2.3267   -1.2776 H   0  0  0  0  0  0  0  0  0  0  0  0
   -4.5685   -1.1186   -1.7378 H   0  0  0  0  0  0  0  0  0  0  0  0
   -4.7707   -2.6364    0.9303 H   0  0  0  0  0  0  0  0  0  0  0  0
   -3.9106   -3.3268   -0.4521 H   0  0  0  0  0  0  0  0  0  0  0  0
   -2.0785   -2.0127   -0.1080 H   0  0  0  0  0  0  0  0  0  0  0  0
   -2.6671   -1.9743    1.5545 H   0  0  0  0  0  0  0  0  0  0  0  0
   -0.8510   -0.5781    1.1338 H   0  0  0  0  0  0  0  0  0  0  0  0
  1  2  1  0
  2  3  2  0
  3  4  1  0
  4  5  2  0
  5  6  1  0
  6  7  2  0
  5  8  1  0
  8  9  2  0
  9 10  1  0
 10 11  2  0
 11 12  1  0
 11 13  1  0
 13 14  2  0
 13 15  1  0
 15 16  2  0
 15 17  2  0
 15 18  1  0
 18 19  2  0
 19 20  1  0
 20 21  2  0
 21 22  1  0
 22 23  1  0
 23 24  1  0
 24 25  1  0
 25 26  1  0
 26 27  1  0
 27 28  2  0
  7  2  1  0
 14  8  1  0
 28 18  1  0
 27 21  1  0
  3 29  1  0
  4 30  1  0
  6 31  1  0
  7 32  1  0
  9 33  1  0
 10 34  1  0
 14 35  1  0
 19 36  1  0
 20 37  1  0
 22 38  1  0
 22 39  1  0
 23 40  1  0
 23 41  1  0
 24 42  1  0
 24 43  1  0
 25 44  1  0
 25 45  1  0
 26 46  1  0
 26 47  1  0
 28 48  1  0
M  END
$$$$
[H]c1nc(N([H])C(=O)C2(n3nnc(C(=O)N([H])[C@@]([H])(C([H])([H])[H])C(F)(F)F)c3[H])C([H])([H])C2([H])[H])c([H])c(C#N)c1[H]
     RDKit          3D

 42 44  0  0  0  0  0  0  0  0999 V2000
    6.3278   -1.8688   -0.6468 C   0  0  0  0  0  0  0  0  0  0  0  0
    5.9465   -0.6552    0.1880 C   0  0  2  0  0  0  0  0  0  0  0  0
    4.5179   -0.4483    0.1327 N   0  0  0  0  0  0  0  0  0  0  0  0
    3.6796   -0.5213    1.2669 C   0  0  0  0  0  0  0  0  0  0  0  0
    4.2176   -0.7807    2.3782 O   0  0  0  0  0  0  0  0  0  0  0  0
    2.2587   -0.3105    1.1836 C   0  0  0  0  0  0  0  0  0  0  0  0
    1.4985   -0.0201    0.0611 C   0  0  0  0  0  0  0  0  0  0  0  0
    0.2288    0.0951    0.4395 N   0  0  0  0  0  0  0  0  0  0  0  0
    0.1820   -0.1111    1.7350 N   0  0  0  0  0  0  0  0  0  0  0  0
    1.3803   -0.3570    2.2139 N   0  0  0  0  0  0  0  0  0  0  0  0
   -0.9201    0.3942   -0.3980 C   0  0  0  0  0  0  0  0  0  0  0  0
   -0.6554    1.5463   -1.3415 C   0  0  0  0  0  0  0  0  0  0  0  0
   -0.8370    0.1530   -1.8564 C   0  0  0  0  0  0  0  0  0  0  0  0
   -2.2104    0.3559    0.3195 C   0  0  0  0  0  0  0  0  0  0  0  0
   -2.2575    0.3869    1.5968 O   0  0  0  0  0  0  0  0  0  0  0  0
   -3.4339    0.2845   -0.3677 N   0  0  0  0  0  0  0  0  0  0  0  0
   -4.6942    0.2459    0.3211 C   0  0  0  0  0  0  0  0  0  0  0  0
   -5.8864    0.1761   -0.3666 C   0  0  0  0  0  0  0  0  0  0  0  0
   -7.1104    0.1385    0.2931 C   0  0  0  0  0  0  0  0  0  0  0  0
   -7.0746    0.1748    1.6755 C   0  0  0  0  0  0  0  0  0  0  0  0
   -5.8678    0.2452    2.3621 C   0  0  0  0  0  0  0  0  0  0  0  0
   -4.7175    0.2786    1.6625 N   0  0  0  0  0  0  0  0  0  0  0  0
   -8.3532    0.0647   -0.4414 C   0  0  0  0  0  0  0  0  0  0  0  0
   -9.3517   -0.0130   -1.0237 N   0  0  0  0  0  0  0  0  0  0  0  0
    6.7061    0.5705   -0.2567 C   0  0  0  0  0  0  0  0  0  0  0  0
    6.3607    1.6580    0.4950 F   0  0  0  0  0  0  0  0  0  0  0  0
    6.4665    0.8727   -1.5763 F   0  0  0  0  0  0  0  0  0  0  0  0
    8.0643    0.3766   -0.0999 F   0  0  0  0  0  0  0  0  0  0  0  0
    5.7482   -2.7580   -0.3483 H   0  0  0  0  0  0  0  0  0  0  0  0
    6.1471   -1.7016   -1.7155 H   0  0  0  0  0  0  0  0  0  0  0  0
    7.3916   -2.1187   -0.5303 H   0  0  0  0  0  0  0  0  0  0  0  0
    6.2236   -0.8708    1.2368 H   0  0  0  0  0  0  0  0  0  0  0  0
    4.0931   -0.2354   -0.7936 H   0  0  0  0  0  0  0  0  0  0  0  0
    1.8921    0.0911   -0.9508 H   0  0  0  0  0  0  0  0  0  0  0  0
   -1.4556    2.2988   -1.5091 H   0  0  0  0  0  0  0  0  0  0  0  0
    0.3538    1.9509   -1.4431 H   0  0  0  0  0  0  0  0  0  0  0  0
   -1.7373   -0.0125   -2.4402 H   0  0  0  0  0  0  0  0  0  0  0  0
    0.0745   -0.4013   -2.1918 H   0  0  0  0  0  0  0  0  0  0  0  0
   -3.4277    0.2576   -1.4226 H   0  0  0  0  0  0  0  0  0  0  0  0
   -5.8917    0.1490   -1.4330 H   0  0  0  0  0  0  0  0  0  0  0  0
   -8.0294    0.1460    2.2097 H   0  0  0  0  0  0  0  0  0  0  0  0
   -5.8473    0.2734    3.4403 H   0  0  0  0  0  0  0  0  0  0  0  0
  1  2  1  0
  2  3  1  0
  3  4  1  0
  4  5  2  0
  4  6  1  0
  6  7  2  0
  7  8  1  0
  8  9  1  0
  9 10  2  0
  8 11  1  0
 11 12  1  0
 12 13  1  0
 11 14  1  0
 14 15  2  0
 14 16  1  0
 16 17  1  0
 17 18  2  0
 18 19  1  0
 19 20  2  0
 20 21  1  0
 21 22  2  0
 19 23  1  0
 23 24  3  0
  2 25  1  0
 25 26  1  0
 25 27  1  0
 25 28  1  0
 10  6  1  0
 13 11  1  0
 22 17  1  0
  1 29  1  0
  1 30  1  0
  1 31  1  0
  2 32  1  1
  3 33  1  0
  7 34  1  0
 12 35  1  0
 12 36  1  0
 13 37  1  0
 13 38  1  0
 16 39  1  0
 18 40  1  0
 20 41  1  0
 21 42  1  0
M  END
$$$$
[H]OC([H])([H])C(N([H])C(=O)c1c([H])nc(-c2c([H])nc(N([H])[H])nc2-c2c([H])c([H])c([H])c(C#N)c2[H])nc1[H])(C([H])([H])[H])C([H])([H])[H]
     RDKit          3D

 48 50  0  0  0  0  0  0  0  0999 V2000
   -5.3045    0.6492   -1.4239 C   0  0  0  0  0  0  0  0  0  0  0  0
   -4.7192    1.0021   -0.0897 C   0  0  0  0  0  0  0  0  0  0  0  0
   -5.4817    0.2389    0.9686 C   0  0  0  0  0  0  0  0  0  0  0  0
   -4.8834    2.4779    0.1908 C   0  0  0  0  0  0  0  0  0  0  0  0
   -4.2174    3.2231   -0.8100 O   0  0  0  0  0  0  0  0  0  0  0  0
   -3.3094    0.6618   -0.0881 N   0  0  0  0  0  0  0  0  0  0  0  0
   -2.8309   -0.6426   -0.2945 C   0  0  0  0  0  0  0  0  0  0  0  0
   -3.6899   -1.5657   -0.4922 O   0  0  0  0  0  0  0  0  0  0  0  0
   -1.4140   -0.9503   -0.2869 C   0  0  0  0  0  0  0  0  0  0  0  0
   -0.9794   -2.2621   -0.4816 C   0  0  0  0  0  0  0  0  0  0  0  0
    0.3268   -2.5542   -0.4763 N   0  0  0  0  0  0  0  0  0  0  0  0
    1.3075   -1.6179   -0.2854 C   0  0  0  0  0  0  0  0  0  0  0  0
    0.8807   -0.3790   -0.1022 N   0  0  0  0  0  0  0  0  0  0  0  0
   -0.4333   -0.0121   -0.0957 C   0  0  0  0  0  0  0  0  0  0  0  0
    2.6741   -2.0868   -0.3026 C   0  0  0  0  0  0  0  0  0  0  0  0
    2.9349   -3.4623   -0.4960 C   0  0  0  0  0  0  0  0  0  0  0  0
    4.2009   -3.8910   -0.5080 N   0  0  0  0  0  0  0  0  0  0  0  0
    5.2573   -3.0792   -0.3445 C   0  0  0  0  0  0  0  0  0  0  0  0
    6.5854   -3.5895   -0.3658 N   0  0  0  0  0  0  0  0  0  0  0  0
    4.9985   -1.7797   -0.1624 N   0  0  0  0  0  0  0  0  0  0  0  0
    3.7285   -1.2586   -0.1370 C   0  0  0  0  0  0  0  0  0  0  0  0
    3.5668    0.1652    0.0603 C   0  0  0  0  0  0  0  0  0  0  0  0
    3.5194    1.0676   -0.9979 C   0  0  0  0  0  0  0  0  0  0  0  0
    3.3895    2.3923   -0.6980 C   0  0  0  0  0  0  0  0  0  0  0  0
    3.3061    2.8413    0.6045 C   0  0  0  0  0  0  0  0  0  0  0  0
    3.3522    1.9518    1.6611 C   0  0  0  0  0  0  0  0  0  0  0  0
    3.4832    0.6068    1.3888 C   0  0  0  0  0  0  0  0  0  0  0  0
    3.2614    2.4642    3.0134 C   0  0  0  0  0  0  0  0  0  0  0  0
    3.1755    2.8868    4.0861 N   0  0  0  0  0  0  0  0  0  0  0  0
   -6.1761    1.2889   -1.6711 H   0  0  0  0  0  0  0  0  0  0  0  0
   -5.6714   -0.3930   -1.3718 H   0  0  0  0  0  0  0  0  0  0  0  0
   -4.5097    0.7290   -2.1786 H   0  0  0  0  0  0  0  0  0  0  0  0
   -5.8209   -0.7547    0.6057 H   0  0  0  0  0  0  0  0  0  0  0  0
   -6.3890    0.7912    1.2908 H   0  0  0  0  0  0  0  0  0  0  0  0
   -4.8372    0.1351    1.8635 H   0  0  0  0  0  0  0  0  0  0  0  0
   -5.9501    2.7659    0.1028 H   0  0  0  0  0  0  0  0  0  0  0  0
   -4.4738    2.7196    1.1917 H   0  0  0  0  0  0  0  0  0  0  0  0
   -3.6686    3.9514   -0.4066 H   0  0  0  0  0  0  0  0  0  0  0  0
   -2.6280    1.4297    0.0751 H   0  0  0  0  0  0  0  0  0  0  0  0
   -1.7554   -2.9965   -0.6316 H   0  0  0  0  0  0  0  0  0  0  0  0
   -0.6883    1.0365    0.0635 H   0  0  0  0  0  0  0  0  0  0  0  0
    2.0917   -4.1317   -0.6297 H   0  0  0  0  0  0  0  0  0  0  0  0
    6.7327   -4.5002   -0.8728 H   0  0  0  0  0  0  0  0  0  0  0  0
    7.3925   -3.1331    0.0740 H   0  0  0  0  0  0  0  0  0  0  0  0
    3.5902    0.6444   -1.9894 H   0  0  0  0  0  0  0  0  0  0  0  0
    3.3521    3.1011   -1.5225 H   0  0  0  0  0  0  0  0  0  0  0  0
    3.2044    3.9075    0.7569 H   0  0  0  0  0  0  0  0  0  0  0  0
    3.5193   -0.0894    2.2151 H   0  0  0  0  0  0  0  0  0  0  0  0
  1  2  1  0
  2  3  1  0
  2  4  1  0
  4  5  1  0
  2  6  1  0
  6  7  1  0
  7  8  2  0
  7  9  1  0
  9 10  2  0
 10 11  1  0
 11 12  2  0
 12 13  1  0
 13 14  2  0
 12 15  1  0
 15 16  2  0
 16 17  1  0
 17 18  2  0
 18 19  1  0
 18 20  1  0
 20 21  2  0
 21 22  1  0
 22 23  2  0
 23 24  1  0
 24 25  2  0
 25 26  1  0
 26 27  2  0
 26 28  1  0
 28 29  3  0
 14  9  1  0
 21 15  1  0
 27 22  1  0
  1 30  1  0
  1 31  1  0
  1 32  1  0
  3 33  1  0
  3 34  1  0
  3 35  1  0
  4 36  1  0
  4 37  1  0
  5 38  1  0
  6 39  1  0
 10 40  1  0
 14 41  1  0
 16 42  1  0
 19 43  1  0
 19 44  1  0
 23 45  1  0
 24 46  1  0
 25 47  1  0
 27 48  1  0
M  END
$$$$
[H]Oc1c([H])c([H])c(/C([H])=C(\[H])C(=O)[C@@]([H])(C([H])([H])N(c2c([H])c([H])c([H])c([H])c2[H])C([H])([H])[H])C2([H])C([H])([H])C([H])([H])C([H])([H])C([H])([H])C2([H])[H])c([H])c1[H]
     RDKit          3D

 56 58  0  0  0  0  0  0  0  0999 V2000
   -3.4819    0.3278    1.0613 C   0  0  0  0  0  0  0  0  0  0  0  0
   -2.9985   -0.1998   -0.1991 N   0  0  0  0  0  0  0  0  0  0  0  0
   -2.1650    0.4129   -1.1377 C   0  0  0  0  0  0  0  0  0  0  0  0
   -0.7424    0.7736   -0.8412 C   0  0  1  0  0  0  0  0  0  0  0  0
   -0.6722    1.7718    0.2466 C   0  0  0  0  0  0  0  0  0  0  0  0
   -1.3827    3.0333   -0.2013 C   0  0  0  0  0  0  0  0  0  0  0  0
   -0.4464    4.2498   -0.1988 C   0  0  0  0  0  0  0  0  0  0  0  0
    0.0519    4.4976    1.1967 C   0  0  0  0  0  0  0  0  0  0  0  0
    0.4469    3.2157    1.8356 C   0  0  0  0  0  0  0  0  0  0  0  0
    0.6963    2.1898    0.7150 C   0  0  0  0  0  0  0  0  0  0  0  0
    0.0965   -0.3991   -0.7183 C   0  0  0  0  0  0  0  0  0  0  0  0
   -0.4291   -1.5285   -0.6488 O   0  0  0  0  0  0  0  0  0  0  0  0
    1.5606   -0.4165   -0.6584 C   0  0  0  0  0  0  0  0  0  0  0  0
    2.2651   -1.5248   -0.5280 C   0  0  0  0  0  0  0  0  0  0  0  0
    3.7142   -1.5844   -0.4648 C   0  0  0  0  0  0  0  0  0  0  0  0
    4.2913   -2.8440   -0.3255 C   0  0  0  0  0  0  0  0  0  0  0  0
    5.6396   -3.0197   -0.2562 C   0  0  0  0  0  0  0  0  0  0  0  0
    6.4621   -1.9188   -0.3258 C   0  0  0  0  0  0  0  0  0  0  0  0
    7.8331   -2.1102   -0.2540 O   0  0  0  0  0  0  0  0  0  0  0  0
    5.8949   -0.6829   -0.4625 C   0  0  0  0  0  0  0  0  0  0  0  0
    4.5285   -0.4779   -0.5352 C   0  0  0  0  0  0  0  0  0  0  0  0
   -3.5219   -1.5268   -0.4620 C   0  0  0  0  0  0  0  0  0  0  0  0
   -3.6766   -2.0764   -1.7036 C   0  0  0  0  0  0  0  0  0  0  0  0
   -4.1678   -3.3708   -1.8875 C   0  0  0  0  0  0  0  0  0  0  0  0
   -4.5156   -4.1417   -0.8149 C   0  0  0  0  0  0  0  0  0  0  0  0
   -4.3764   -3.6299    0.4379 C   0  0  0  0  0  0  0  0  0  0  0  0
   -3.8970   -2.3695    0.5972 C   0  0  0  0  0  0  0  0  0  0  0  0
   -4.5439   -0.0587    1.2043 H   0  0  0  0  0  0  0  0  0  0  0  0
   -2.8357   -0.0734    1.8734 H   0  0  0  0  0  0  0  0  0  0  0  0
   -3.5623    1.3936    1.1549 H   0  0  0  0  0  0  0  0  0  0  0  0
   -2.1061   -0.2241   -2.0734 H   0  0  0  0  0  0  0  0  0  0  0  0
   -2.7327    1.3222   -1.5468 H   0  0  0  0  0  0  0  0  0  0  0  0
   -0.3264    1.3272   -1.7638 H   0  0  0  0  0  0  0  0  0  0  0  0
   -1.1961    1.4720    1.2025 H   0  0  0  0  0  0  0  0  0  0  0  0
   -2.2483    3.3007    0.4244 H   0  0  0  0  0  0  0  0  0  0  0  0
   -1.7372    2.9690   -1.2628 H   0  0  0  0  0  0  0  0  0  0  0  0
   -1.0881    5.0986   -0.5486 H   0  0  0  0  0  0  0  0  0  0  0  0
    0.3383    4.1519   -0.9578 H   0  0  0  0  0  0  0  0  0  0  0  0
   -0.7405    5.0476    1.7429 H   0  0  0  0  0  0  0  0  0  0  0  0
    0.9388    5.1633    1.1464 H   0  0  0  0  0  0  0  0  0  0  0  0
   -0.4344    2.8434    2.4368 H   0  0  0  0  0  0  0  0  0  0  0  0
    1.2992    3.2663    2.5230 H   0  0  0  0  0  0  0  0  0  0  0  0
    1.1869    1.3456    1.2883 H   0  0  0  0  0  0  0  0  0  0  0  0
    1.3274    2.6754   -0.0112 H   0  0  0  0  0  0  0  0  0  0  0  0
    2.0808    0.5229   -0.7406 H   0  0  0  0  0  0  0  0  0  0  0  0
    1.7006   -2.4382   -0.4663 H   0  0  0  0  0  0  0  0  0  0  0  0
    3.6657   -3.7492   -0.2664 H   0  0  0  0  0  0  0  0  0  0  0  0
    6.0753   -4.0051   -0.1474 H   0  0  0  0  0  0  0  0  0  0  0  0
    8.3368   -2.1070    0.6208 H   0  0  0  0  0  0  0  0  0  0  0  0
    6.5274    0.1849   -0.5181 H   0  0  0  0  0  0  0  0  0  0  0  0
    4.0851    0.4892   -0.6419 H   0  0  0  0  0  0  0  0  0  0  0  0
   -3.4279   -1.5065   -2.5821 H   0  0  0  0  0  0  0  0  0  0  0  0
   -4.2711   -3.7583   -2.8825 H   0  0  0  0  0  0  0  0  0  0  0  0
   -4.8947   -5.1430   -0.9604 H   0  0  0  0  0  0  0  0  0  0  0  0
   -4.6367   -4.1962    1.3210 H   0  0  0  0  0  0  0  0  0  0  0  0
   -3.7875   -1.9651    1.5990 H   0  0  0  0  0  0  0  0  0  0  0  0
  1  2  1  0
  2  3  1  0
  3  4  1  0
  4  5  1  0
  5  6  1  0
  6  7  1  0
  7  8  1  0
  8  9  1  0
  9 10  1  0
  4 11  1  0
 11 12  2  0
 11 13  1  0
 13 14  2  0
 14 15  1  0
 15 16  2  0
 16 17  1  0
 17 18  2  0
 18 19  1  0
 18 20  1  0
 20 21  2  0
  2 22  1  0
 22 23  2  0
 23 24  1  0
 24 25  2  0
 25 26  1  0
 26 27  2  0
 10  5  1  0
 21 15  1  0
 27 22  1  0
  1 28  1  0
  1 29  1  0
  1 30  1  0
  3 31  1  0
  3 32  1  0
  4 33  1  6
  5 34  1  0
  6 35  1  0
  6 36  1  0
  7 37  1  0
  7 38  1  0
  8 39  1  0
  8 40  1  0
  9 41  1  0
  9 42  1  0
 10 43  1  0
 10 44  1  0
 13 45  1  0
 14 46  1  0
 16 47  1  0
 17 48  1  0
 19 49  1  0
 20 50  1  0
 21 51  1  0
 23 52  1  0
 24 53  1  0
 25 54  1  0
 26 55  1  0
 27 56  1  0
M  END
$$$$
[H]Oc1c([H])c([H])c2c(c1[H])c(C([H])([H])[C@@]1([H])N(C([H])([H])[H])C([H])([H])C([H])([H])C1([H])[H])c([H])n2[H]
     RDKit          3D

 35 37  0  0  0  0  0  0  0  0999 V2000
   -2.7487    0.5450    1.2596 C   0  0  0  0  0  0  0  0  0  0  0  0
   -1.8383   -0.4223    0.6675 N   0  0  0  0  0  0  0  0  0  0  0  0
   -2.7137   -1.5095    0.1939 C   0  0  0  0  0  0  0  0  0  0  0  0
   -3.3983   -0.8990   -0.9913 C   0  0  0  0  0  0  0  0  0  0  0  0
   -2.4340    0.1908   -1.4744 C   0  0  0  0  0  0  0  0  0  0  0  0
   -1.2684    0.0326   -0.5673 C   0  0  1  0  0  0  0  0  0  0  0  0
   -0.4533    1.2723   -0.4685 C   0  0  0  0  0  0  0  0  0  0  0  0
    0.7047    1.1151    0.4500 C   0  0  0  0  0  0  0  0  0  0  0  0
    0.8626    1.5900    1.7304 C   0  0  0  0  0  0  0  0  0  0  0  0
    2.0737    1.1908    2.1428 N   0  0  0  0  0  0  0  0  0  0  0  0
    2.6889    0.4839    1.1787 C   0  0  0  0  0  0  0  0  0  0  0  0
    3.9140   -0.1361    1.0922 C   0  0  0  0  0  0  0  0  0  0  0  0
    4.2823   -0.8065   -0.0609 C   0  0  0  0  0  0  0  0  0  0  0  0
    3.4538   -0.8845   -1.1605 C   0  0  0  0  0  0  0  0  0  0  0  0
    3.8372   -1.5595   -2.3076 O   0  0  0  0  0  0  0  0  0  0  0  0
    2.2284   -0.2612   -1.0665 C   0  0  0  0  0  0  0  0  0  0  0  0
    1.8404    0.4217    0.0939 C   0  0  0  0  0  0  0  0  0  0  0  0
   -2.2686    1.3114    1.8594 H   0  0  0  0  0  0  0  0  0  0  0  0
   -3.3878   -0.0539    1.9746 H   0  0  0  0  0  0  0  0  0  0  0  0
   -3.4526    0.9758    0.5215 H   0  0  0  0  0  0  0  0  0  0  0  0
   -2.1737   -2.4280   -0.0013 H   0  0  0  0  0  0  0  0  0  0  0  0
   -3.4987   -1.6812    0.9888 H   0  0  0  0  0  0  0  0  0  0  0  0
   -3.6009   -1.6484   -1.7597 H   0  0  0  0  0  0  0  0  0  0  0  0
   -4.3702   -0.4267   -0.6876 H   0  0  0  0  0  0  0  0  0  0  0  0
   -2.8949    1.1771   -1.5018 H   0  0  0  0  0  0  0  0  0  0  0  0
   -2.1768   -0.0802   -2.5284 H   0  0  0  0  0  0  0  0  0  0  0  0
   -0.6420   -0.7964   -0.9597 H   0  0  0  0  0  0  0  0  0  0  0  0
   -1.1065    2.0898   -0.0993 H   0  0  0  0  0  0  0  0  0  0  0  0
   -0.1417    1.5643   -1.4910 H   0  0  0  0  0  0  0  0  0  0  0  0
    0.1297    2.1675    2.2630 H   0  0  0  0  0  0  0  0  0  0  0  0
    2.4778    1.4081    3.0954 H   0  0  0  0  0  0  0  0  0  0  0  0
    4.5604   -0.0695    1.9627 H   0  0  0  0  0  0  0  0  0  0  0  0
    5.2557   -1.2772   -0.0787 H   0  0  0  0  0  0  0  0  0  0  0  0
    4.7294   -2.0118   -2.3725 H   0  0  0  0  0  0  0  0  0  0  0  0
    1.5302   -0.2855   -1.8972 H   0  0  0  0  0  0  0  0  0  0  0  0
  1  2  1  0
  2  3  1  0
  3  4  1  0
  4  5  1  0
  5  6  1  0
  6  7  1  0
  7  8  1  0
  8  9  2  0
  9 10  1  0
 10 11  1  0
 11 12  2  0
 12 13  1  0
 13 14  2  0
 14 15  1  0
 14 16  1  0
 16 17  2  0
  6  2  1  0
 17  8  1  0
 17 11  1  0
  1 18  1  0
  1 19  1  0
  1 20  1  0
  3 21  1  0
  3 22  1  0
  4 23  1  0
  4 24  1  0
  5 25  1  0
  5 26  1  0
  6 27  1  6
  7 28  1  0
  7 29  1  0
  9 30  1  0
 10 31  1  0
 12 32  1  0
 13 33  1  0
 15 34  1  0
 16 35  1  0
M  END
$$$$
[H]c1nc(N([H])C([H])(C([H])([H])[H])C([H])([H])[H])c2c([H])c(-n3c([H])nc4c(N([H])[H])nc(N([H])[H])nc43)c([H])c([H])c2n1
     RDKit          3D

 42 45  0  0  0  0  0  0  0  0999 V2000
    5.3188   -0.2283    0.6370 C   0  0  0  0  0  0  0  0  0  0  0  0
    4.5093   -0.6070   -0.5840 C   0  0  0  0  0  0  0  0  0  0  0  0
    4.8311   -2.0309   -0.9299 C   0  0  0  0  0  0  0  0  0  0  0  0
    3.0755   -0.4089   -0.2861 N   0  0  0  0  0  0  0  0  0  0  0  0
    2.6918    0.9042    0.0543 C   0  0  0  0  0  0  0  0  0  0  0  0
    3.5713    1.9079    0.1037 N   0  0  0  0  0  0  0  0  0  0  0  0
    3.2167    3.1592    0.4257 C   0  0  0  0  0  0  0  0  0  0  0  0
    1.9436    3.4641    0.7173 N   0  0  0  0  0  0  0  0  0  0  0  0
    1.0183    2.4923    0.6827 C   0  0  0  0  0  0  0  0  0  0  0  0
   -0.3066    2.7303    0.9697 C   0  0  0  0  0  0  0  0  0  0  0  0
   -1.2373    1.7173    0.9276 C   0  0  0  0  0  0  0  0  0  0  0  0
   -0.9093    0.4228    0.6014 C   0  0  0  0  0  0  0  0  0  0  0  0
    0.4326    0.1741    0.3091 C   0  0  0  0  0  0  0  0  0  0  0  0
    1.3733    1.1794    0.3478 C   0  0  0  0  0  0  0  0  0  0  0  0
   -1.9009   -0.5963    0.5690 N   0  0  0  0  0  0  0  0  0  0  0  0
   -1.7999   -1.8699    0.9817 C   0  0  0  0  0  0  0  0  0  0  0  0
   -2.9615   -2.5280    0.7845 N   0  0  0  0  0  0  0  0  0  0  0  0
   -3.8293   -1.6744    0.2372 C   0  0  0  0  0  0  0  0  0  0  0  0
   -5.1396   -1.7336   -0.1883 C   0  0  0  0  0  0  0  0  0  0  0  0
   -5.8240   -2.9641   -0.0540 N   0  0  0  0  0  0  0  0  0  0  0  0
   -5.7433   -0.6363   -0.7186 N   0  0  0  0  0  0  0  0  0  0  0  0
   -5.0818    0.5330   -0.8425 C   0  0  0  0  0  0  0  0  0  0  0  0
   -5.7662    1.6324   -1.4008 N   0  0  0  0  0  0  0  0  0  0  0  0
   -3.8120    0.5575   -0.4203 N   0  0  0  0  0  0  0  0  0  0  0  0
   -3.1674   -0.4812    0.1064 C   0  0  0  0  0  0  0  0  0  0  0  0
    5.8444    0.7151    0.4462 H   0  0  0  0  0  0  0  0  0  0  0  0
    4.6223   -0.1030    1.5100 H   0  0  0  0  0  0  0  0  0  0  0  0
    6.0944   -0.9919    0.8717 H   0  0  0  0  0  0  0  0  0  0  0  0
    4.8273    0.0270   -1.4174 H   0  0  0  0  0  0  0  0  0  0  0  0
    5.6761   -2.0754   -1.6572 H   0  0  0  0  0  0  0  0  0  0  0  0
    5.1670   -2.5814   -0.0325 H   0  0  0  0  0  0  0  0  0  0  0  0
    3.9803   -2.5563   -1.4097 H   0  0  0  0  0  0  0  0  0  0  0  0
    2.5239   -1.2452   -0.3603 H   0  0  0  0  0  0  0  0  0  0  0  0
    4.0081    3.9268    0.4422 H   0  0  0  0  0  0  0  0  0  0  0  0
   -0.5801    3.7434    1.2280 H   0  0  0  0  0  0  0  0  0  0  0  0
   -2.2788    1.9282    1.1582 H   0  0  0  0  0  0  0  0  0  0  0  0
    0.7058   -0.8306    0.0526 H   0  0  0  0  0  0  0  0  0  0  0  0
   -0.9163   -2.3012    1.4088 H   0  0  0  0  0  0  0  0  0  0  0  0
   -5.6499   -3.7358   -0.7255 H   0  0  0  0  0  0  0  0  0  0  0  0
   -6.4948   -3.0921    0.7113 H   0  0  0  0  0  0  0  0  0  0  0  0
   -6.6925    1.8910   -1.0278 H   0  0  0  0  0  0  0  0  0  0  0  0
   -5.3404    2.1658   -2.1710 H   0  0  0  0  0  0  0  0  0  0  0  0
  1  2  1  0
  2  3  1  0
  2  4  1  0
  4  5  1  0
  5  6  2  0
  6  7  1  0
  7  8  2  0
  8  9  1  0
  9 10  2  0
 10 11  1  0
 11 12  2  0
 12 13  1  0
 13 14  2  0
 12 15  1  0
 15 16  1  0
 16 17  2  0
 17 18  1  0
 18 19  2  0
 19 20  1  0
 19 21  1  0
 21 22  2  0
 22 23  1  0
 22 24  1  0
 24 25  2  0
 14  5  1  0
 25 15  1  0
 14  9  1  0
 25 18  1  0
  1 26  1  0
  1 27  1  0
  1 28  1  0
  2 29  1  0
  3 30  1  0
  3 31  1  0
  3 32  1  0
  4 33  1  0
  7 34  1  0
 10 35  1  0
 11 36  1  0
 13 37  1  0
 16 38  1  0
 20 39  1  0
 20 40  1  0
 23 41  1  0
 23 42  1  0
M  END
$$$$
[H]OC(=O)C([H])([H])C([H])([H])[C@]1([H])C([H])([H])[C@@]2([H])N(S(=O)(=O)c3c([H])c([H])c([H])c(C(F)(F)F)c3[H])C([H])([H])[C@]1([H])C([H])([H])[C@@]2([H])OC([H])([H])C([H])([H])C([H])([H])c1c([H])c([H])c([H])c([H])c1[H]
     RDKit          3D

 66 69  0  0  0  0  0  0  0  0999 V2000
   -1.5588    6.4306    1.3072 O   0  0  0  0  0  0  0  0  0  0  0  0
   -1.4397    5.2357    2.0118 C   0  0  0  0  0  0  0  0  0  0  0  0
   -1.8025    5.2187    3.1936 O   0  0  0  0  0  0  0  0  0  0  0  0
   -0.8824    4.0338    1.3067 C   0  0  0  0  0  0  0  0  0  0  0  0
   -2.0470    3.1205    1.1016 C   0  0  0  0  0  0  0  0  0  0  0  0
   -1.8289    1.8533    0.3961 C   0  0  2  0  0  0  0  0  0  0  0  0
   -0.8847    0.8496    0.9656 C   0  0  0  0  0  0  0  0  0  0  0  0
   -0.8008   -0.2532   -0.1040 C   0  0  2  0  0  0  0  0  0  0  0  0
    0.3784    0.2469   -0.9986 C   0  0  2  0  0  0  0  0  0  0  0  0
    1.6195   -0.0836   -0.5783 O   0  0  0  0  0  0  0  0  0  0  0  0
    2.1985   -0.9117   -1.5842 C   0  0  0  0  0  0  0  0  0  0  0  0
    3.6139   -1.2222   -1.1479 C   0  0  0  0  0  0  0  0  0  0  0  0
    4.3054    0.1328   -1.0318 C   0  0  0  0  0  0  0  0  0  0  0  0
    5.6986   -0.0687   -0.5740 C   0  0  0  0  0  0  0  0  0  0  0  0
    6.7280   -0.2350   -1.4641 C   0  0  0  0  0  0  0  0  0  0  0  0
    8.0245   -0.4157   -1.0358 C   0  0  0  0  0  0  0  0  0  0  0  0
    8.2491   -0.4233    0.3371 C   0  0  0  0  0  0  0  0  0  0  0  0
    7.2387   -0.2572    1.2349 C   0  0  0  0  0  0  0  0  0  0  0  0
    5.9419   -0.0777    0.7748 C   0  0  0  0  0  0  0  0  0  0  0  0
    0.1336    1.7402   -1.1763 C   0  0  0  0  0  0  0  0  0  0  0  0
   -1.3538    2.0510   -1.0445 C   0  0  1  0  0  0  0  0  0  0  0  0
   -2.0463    0.9189   -1.8322 C   0  0  0  0  0  0  0  0  0  0  0  0
   -1.9086   -0.2196   -1.0059 N   0  0  0  0  0  0  0  0  0  0  0  0
   -2.5884   -1.6288   -1.5044 S   0  0  0  0  0  0  0  0  0  0  0  0
   -1.4332   -2.5668   -2.0307 O   0  0  0  0  0  0  0  0  0  0  0  0
   -3.4338   -1.5050   -2.7607 O   0  0  0  0  0  0  0  0  0  0  0  0
   -3.4061   -2.6441   -0.3569 C   0  0  0  0  0  0  0  0  0  0  0  0
   -2.7946   -3.6556    0.3246 C   0  0  0  0  0  0  0  0  0  0  0  0
   -3.5444   -4.4787    1.1772 C   0  0  0  0  0  0  0  0  0  0  0  0
   -4.9146   -4.2992    1.3633 C   0  0  0  0  0  0  0  0  0  0  0  0
   -5.5262   -3.2689    0.6733 C   0  0  0  0  0  0  0  0  0  0  0  0
   -4.7749   -2.4851   -0.1493 C   0  0  0  0  0  0  0  0  0  0  0  0
   -6.9840   -3.0565    0.8309 C   0  0  0  0  0  0  0  0  0  0  0  0
   -7.3833   -1.8723    0.2248 F   0  0  0  0  0  0  0  0  0  0  0  0
   -7.3697   -3.1100    2.1373 F   0  0  0  0  0  0  0  0  0  0  0  0
   -7.6482   -4.0469    0.1062 F   0  0  0  0  0  0  0  0  0  0  0  0
   -1.7372    7.3051    1.7639 H   0  0  0  0  0  0  0  0  0  0  0  0
   -0.5075    4.3517    0.3064 H   0  0  0  0  0  0  0  0  0  0  0  0
   -0.0965    3.6716    1.9824 H   0  0  0  0  0  0  0  0  0  0  0  0
   -2.4040    2.8610    2.1389 H   0  0  0  0  0  0  0  0  0  0  0  0
   -2.8865    3.6571    0.6356 H   0  0  0  0  0  0  0  0  0  0  0  0
   -2.8383    1.3560    0.3329 H   0  0  0  0  0  0  0  0  0  0  0  0
   -1.2928    0.3674    1.8639 H   0  0  0  0  0  0  0  0  0  0  0  0
    0.1364    1.2723    1.1471 H   0  0  0  0  0  0  0  0  0  0  0  0
   -0.6345   -1.2333    0.3054 H   0  0  0  0  0  0  0  0  0  0  0  0
    0.1790   -0.2660   -1.9970 H   0  0  0  0  0  0  0  0  0  0  0  0
    2.1798   -0.3553   -2.5247 H   0  0  0  0  0  0  0  0  0  0  0  0
    1.6715   -1.8849   -1.6530 H   0  0  0  0  0  0  0  0  0  0  0  0
    4.0947   -1.8070   -1.9906 H   0  0  0  0  0  0  0  0  0  0  0  0
    3.5828   -1.7792   -0.2092 H   0  0  0  0  0  0  0  0  0  0  0  0
    3.7625    0.7768   -0.3184 H   0  0  0  0  0  0  0  0  0  0  0  0
    4.2901    0.6340   -2.0363 H   0  0  0  0  0  0  0  0  0  0  0  0
    6.5367   -0.2194   -2.5146 H   0  0  0  0  0  0  0  0  0  0  0  0
    8.8811   -0.5513   -1.6752 H   0  0  0  0  0  0  0  0  0  0  0  0
    9.2455   -0.5692    0.7514 H   0  0  0  0  0  0  0  0  0  0  0  0
    7.4387   -0.2672    2.3040 H   0  0  0  0  0  0  0  0  0  0  0  0
    5.1453    0.0634    1.4899 H   0  0  0  0  0  0  0  0  0  0  0  0
    0.3864    1.9706   -2.2410 H   0  0  0  0  0  0  0  0  0  0  0  0
    0.7667    2.3469   -0.5210 H   0  0  0  0  0  0  0  0  0  0  0  0
   -1.5680    3.0358   -1.4156 H   0  0  0  0  0  0  0  0  0  0  0  0
   -1.5128    0.7780   -2.7710 H   0  0  0  0  0  0  0  0  0  0  0  0
   -3.1097    1.2049   -2.0016 H   0  0  0  0  0  0  0  0  0  0  0  0
   -1.7392   -3.8626    0.2563 H   0  0  0  0  0  0  0  0  0  0  0  0
   -3.0650   -5.2910    1.7224 H   0  0  0  0  0  0  0  0  0  0  0  0
   -5.4435   -4.9466    2.0299 H   0  0  0  0  0  0  0  0  0  0  0  0
   -5.2365   -1.6656   -0.6918 H   0  0  0  0  0  0  0  0  0  0  0  0
  1  2  1  0
  2  3  2  0
  2  4  1  0
  4  5  1  0
  5  6  1  0
  6  7  1  0
  7  8  1  0
  8  9  1  0
  9 10  1  0
 10 11  1  0
 11 12  1  0
 12 13  1  0
 13 14  1  0
 14 15  2  0
 15 16  1  0
 16 17  2  0
 17 18  1  0
 18 19  2  0
  9 20  1  0
 20 21  1  0
 21 22  1  0
 22 23  1  0
 23 24  1  0
 24 25  2  0
 24 26  2  0
 24 27  1  0
 27 28  2  0
 28 29  1  0
 29 30  2  0
 30 31  1  0
 31 32  2  0
 31 33  1  0
 33 34  1  0
 33 35  1  0
 33 36  1  0
 21  6  1  0
 32 27  1  0
 23  8  1  0
 19 14  1  0
  1 37  1  0
  4 38  1  0
  4 39  1  0
  5 40  1  0
  5 41  1  0
  6 42  1  6
  7 43  1  0
  7 44  1  0
  8 45  1  1
  9 46  1  6
 11 47  1  0
 11 48  1  0
 12 49  1  0
 12 50  1  0
 13 51  1  0
 13 52  1  0
 15 53  1  0
 16 54  1  0
 17 55  1  0
 18 56  1  0
 19 57  1  0
 20 58  1  0
 20 59  1  0
 21 60  1  6
 22 61  1  0
 22 62  1  0
 28 63  1  0
 29 64  1  0
 30 65  1  0
 32 66  1  0
M  END
$$$$
[H]c1nc(-c2c([H])c([H])c(OC([H])([H])[H])c([H])c2[H])c([H])c([H])c1C([H])([H])c1c([H])nn([H])c1[H]
     RDKit          3D

 35 37  0  0  0  0  0  0  0  0999 V2000
    6.3291   -0.8504    2.0448 C   0  0  0  0  0  0  0  0  0  0  0  0
    5.7885    0.2906    1.4210 O   0  0  0  0  0  0  0  0  0  0  0  0
    4.4851    0.2354    0.9599 C   0  0  0  0  0  0  0  0  0  0  0  0
    3.8927    1.3198    0.3381 C   0  0  0  0  0  0  0  0  0  0  0  0
    2.5895    1.2608   -0.1215 C   0  0  0  0  0  0  0  0  0  0  0  0
    1.8224    0.1277    0.0162 C   0  0  0  0  0  0  0  0  0  0  0  0
    2.4368   -0.9491    0.6434 C   0  0  0  0  0  0  0  0  0  0  0  0
    3.7293   -0.9060    1.1049 C   0  0  0  0  0  0  0  0  0  0  0  0
    0.4440    0.0254   -0.4550 C   0  0  0  0  0  0  0  0  0  0  0  0
   -0.2207    1.0513   -1.0820 C   0  0  0  0  0  0  0  0  0  0  0  0
   -1.5423    0.9313   -1.5257 C   0  0  0  0  0  0  0  0  0  0  0  0
   -2.1767   -0.2628   -1.3163 C   0  0  0  0  0  0  0  0  0  0  0  0
   -3.5841   -0.4420   -1.7696 C   0  0  0  0  0  0  0  0  0  0  0  0
   -4.5614   -0.0575   -0.7241 C   0  0  0  0  0  0  0  0  0  0  0  0
   -5.1012   -0.8788    0.2487 C   0  0  0  0  0  0  0  0  0  0  0  0
   -5.9311   -0.0978    0.9625 N   0  0  0  0  0  0  0  0  0  0  0  0
   -5.9433    1.1275    0.5087 N   0  0  0  0  0  0  0  0  0  0  0  0
   -5.0981    1.2001   -0.5503 C   0  0  0  0  0  0  0  0  0  0  0  0
   -1.5230   -1.2816   -0.6960 C   0  0  0  0  0  0  0  0  0  0  0  0
   -0.2601   -1.1224   -0.2885 N   0  0  0  0  0  0  0  0  0  0  0  0
    5.6658   -1.0810    2.9253 H   0  0  0  0  0  0  0  0  0  0  0  0
    6.2543   -1.7093    1.3423 H   0  0  0  0  0  0  0  0  0  0  0  0
    7.3603   -0.6659    2.3677 H   0  0  0  0  0  0  0  0  0  0  0  0
    4.5037    2.2087    0.2335 H   0  0  0  0  0  0  0  0  0  0  0  0
    2.1883    2.1420   -0.5972 H   0  0  0  0  0  0  0  0  0  0  0  0
    1.8507   -1.8497    0.7615 H   0  0  0  0  0  0  0  0  0  0  0  0
    4.1970   -1.7534    1.5926 H   0  0  0  0  0  0  0  0  0  0  0  0
    0.2881    1.9917   -1.2436 H   0  0  0  0  0  0  0  0  0  0  0  0
   -2.0631    1.7398   -2.0186 H   0  0  0  0  0  0  0  0  0  0  0  0
   -3.7599   -1.4925   -2.0337 H   0  0  0  0  0  0  0  0  0  0  0  0
   -3.7389    0.1991   -2.6597 H   0  0  0  0  0  0  0  0  0  0  0  0
   -4.8855   -1.9402    0.3915 H   0  0  0  0  0  0  0  0  0  0  0  0
   -6.5022    1.9315    0.8831 H   0  0  0  0  0  0  0  0  0  0  0  0
   -4.8998    2.0965   -1.1353 H   0  0  0  0  0  0  0  0  0  0  0  0
   -2.0342   -2.2398   -0.5287 H   0  0  0  0  0  0  0  0  0  0  0  0
  1  2  1  0
  2  3  1  0
  3  4  2  0
  4  5  1  0
  5  6  2  0
  6  7  1  0
  7  8  2  0
  6  9  1  0
  9 10  2  0
 10 11  1  0
 11 12  2  0
 12 13  1  0
 13 14  1  0
 14 15  1  0
 15 16  2  0
 16 17  1  0
 17 18  1  0
 12 19  1  0
 19 20  2  0
  8  3  1  0
 20  9  1  0
 18 14  2  0
  1 21  1  0
  1 22  1  0
  1 23  1  0
  4 24  1  0
  5 25  1  0
  7 26  1  0
  8 27  1  0
 10 28  1  0
 11 29  1  0
 13 30  1  0
 13 31  1  0
 15 32  1  0
 17 33  1  0
 18 34  1  0
 19 35  1  0
M  END
$$$$
[H]c1sc(-c2c([H])c([H])c(C(F)(F)F)c([H])c2[H])nc1C(=O)N([H])c1sc(C(=O)N([H])[H])c([H])c1F
     RDKit          3D

 36 38  0  0  0  0  0  0  0  0999 V2000
   -8.4659    0.8259   -0.3076 N   0  0  0  0  0  0  0  0  0  0  0  0
   -7.9406   -0.4777   -0.1338 C   0  0  0  0  0  0  0  0  0  0  0  0
   -8.6694   -1.4580   -0.0140 O   0  0  0  0  0  0  0  0  0  0  0  0
   -6.4795   -0.6103   -0.1029 C   0  0  0  0  0  0  0  0  0  0  0  0
   -5.6973   -1.7077   -0.0375 C   0  0  0  0  0  0  0  0  0  0  0  0
   -4.3605   -1.5689   -0.0024 C   0  0  0  0  0  0  0  0  0  0  0  0
   -3.5302   -2.6851    0.0547 F   0  0  0  0  0  0  0  0  0  0  0  0
   -3.8539   -0.3141   -0.0387 C   0  0  0  0  0  0  0  0  0  0  0  0
   -2.5689    0.2766   -0.0177 N   0  0  0  0  0  0  0  0  0  0  0  0
   -1.3168   -0.2881    0.1276 C   0  0  0  0  0  0  0  0  0  0  0  0
   -1.1730   -1.5220    0.2995 O   0  0  0  0  0  0  0  0  0  0  0  0
   -0.0817    0.5691    0.0815 C   0  0  0  0  0  0  0  0  0  0  0  0
   -0.1574    1.9148   -0.2024 C   0  0  0  0  0  0  0  0  0  0  0  0
    1.4935    2.3576   -0.1907 S   0  0  0  0  0  0  0  0  0  0  0  0
    2.1618    0.8385    0.1680 C   0  0  0  0  0  0  0  0  0  0  0  0
    1.0889    0.0602    0.2620 N   0  0  0  0  0  0  0  0  0  0  0  0
    3.5819    0.4394    0.2706 C   0  0  0  0  0  0  0  0  0  0  0  0
    4.0388   -0.7401    0.7184 C   0  0  0  0  0  0  0  0  0  0  0  0
    5.4076   -1.0421    0.6951 C   0  0  0  0  0  0  0  0  0  0  0  0
    6.3300   -0.1384    0.2144 C   0  0  0  0  0  0  0  0  0  0  0  0
    5.8647    1.0907   -0.2488 C   0  0  0  0  0  0  0  0  0  0  0  0
    4.5056    1.3681   -0.2173 C   0  0  0  0  0  0  0  0  0  0  0  0
    7.7642   -0.5029    0.1694 C   0  0  0  0  0  0  0  0  0  0  0  0
    7.9849   -1.7584    0.7061 F   0  0  0  0  0  0  0  0  0  0  0  0
    8.5634    0.4205    0.8075 F   0  0  0  0  0  0  0  0  0  0  0  0
    8.1423   -0.4749   -1.1872 F   0  0  0  0  0  0  0  0  0  0  0  0
   -5.2979    0.6598   -0.1216 S   0  0  0  0  0  0  0  0  0  0  0  0
   -8.9604    1.3142    0.4593 H   0  0  0  0  0  0  0  0  0  0  0  0
   -8.3399    1.2981   -1.2239 H   0  0  0  0  0  0  0  0  0  0  0  0
   -6.2111   -2.7174   -0.0178 H   0  0  0  0  0  0  0  0  0  0  0  0
   -2.5395    1.3647   -0.1417 H   0  0  0  0  0  0  0  0  0  0  0  0
   -1.0474    2.5478   -0.3875 H   0  0  0  0  0  0  0  0  0  0  0  0
    3.3182   -1.4546    1.1009 H   0  0  0  0  0  0  0  0  0  0  0  0
    5.7576   -1.9906    1.0588 H   0  0  0  0  0  0  0  0  0  0  0  0
    6.5794    1.7956   -0.6271 H   0  0  0  0  0  0  0  0  0  0  0  0
    4.1085    2.3097   -0.5735 H   0  0  0  0  0  0  0  0  0  0  0  0
  1  2  1  0
  2  3  2  0
  2  4  1  0
  4  5  2  0
  5  6  1  0
  6  7  1  0
  6  8  2  0
  8  9  1  0
  9 10  1  0
 10 11  2  0
 10 12  1  0
 12 13  2  0
 13 14  1  0
 14 15  1  0
 15 16  2  0
 15 17  1  0
 17 18  2  0
 18 19  1  0
 19 20  2  0
 20 21  1  0
 21 22  2  0
 20 23  1  0
 23 24  1  0
 23 25  1  0
 23 26  1  0
  8 27  1  0
 27  4  1  0
 16 12  1  0
 22 17  1  0
  1 28  1  0
  1 29  1  0
  5 30  1  0
  9 31  1  0
 13 32  1  0
 18 33  1  0
 19 34  1  0
 21 35  1  0
 22 36  1  0
M  END
$$$$
[H]c1c(C(=O)N([H])C2([H])C([H])([H])C2([H])[H])nc(-c2c([H])c([H])c(Cl)c([H])c2[H])nc1[C@]([H])(C#N)C([H])([H])[H]
     RDKit          3D

 38 40  0  0  0  0  0  0  0  0999 V2000
   -1.5039    4.2327    1.1354 C   0  0  0  0  0  0  0  0  0  0  0  0
   -1.6808    3.5329   -0.1769 C   0  0  2  0  0  0  0  0  0  0  0  0
   -1.0546    2.1735   -0.1600 C   0  0  0  0  0  0  0  0  0  0  0  0
    0.2910    2.0292    0.1029 C   0  0  0  0  0  0  0  0  0  0  0  0
    0.8295    0.7736    0.1103 C   0  0  0  0  0  0  0  0  0  0  0  0
    0.0172   -0.2741   -0.1411 N   0  0  0  0  0  0  0  0  0  0  0  0
   -1.2963   -0.1609   -0.4000 C   0  0  0  0  0  0  0  0  0  0  0  0
   -1.7882    1.0885   -0.3984 N   0  0  0  0  0  0  0  0  0  0  0  0
   -2.1544   -1.3075   -0.6689 C   0  0  0  0  0  0  0  0  0  0  0  0
   -3.4802   -1.1050   -0.9230 C   0  0  0  0  0  0  0  0  0  0  0  0
   -4.3190   -2.1844   -1.1825 C   0  0  0  0  0  0  0  0  0  0  0  0
   -3.7643   -3.4481   -1.1725 C   0  0  0  0  0  0  0  0  0  0  0  0
   -4.7590   -4.8454   -1.4897 Cl  0  0  0  0  0  0  0  0  0  0  0  0
   -2.4231   -3.6622   -0.9162 C   0  0  0  0  0  0  0  0  0  0  0  0
   -1.6183   -2.5782   -0.6633 C   0  0  0  0  0  0  0  0  0  0  0  0
    2.2468    0.5944    0.3850 C   0  0  0  0  0  0  0  0  0  0  0  0
    2.9299    1.6419    0.6102 O   0  0  0  0  0  0  0  0  0  0  0  0
    2.8321   -0.6939    0.3991 N   0  0  0  0  0  0  0  0  0  0  0  0
    4.2346   -0.8280    0.6745 C   0  0  0  0  0  0  0  0  0  0  0  0
    4.5349   -1.9069    1.7189 C   0  0  0  0  0  0  0  0  0  0  0  0
    4.9752   -2.0612    0.3093 C   0  0  0  0  0  0  0  0  0  0  0  0
   -0.9880    4.2914   -1.2185 C   0  0  0  0  0  0  0  0  0  0  0  0
   -0.4583    4.8938   -2.0398 N   0  0  0  0  0  0  0  0  0  0  0  0
   -0.6093    4.8963    1.1490 H   0  0  0  0  0  0  0  0  0  0  0  0
   -2.3957    4.8872    1.3276 H   0  0  0  0  0  0  0  0  0  0  0  0
   -1.4370    3.5494    2.0026 H   0  0  0  0  0  0  0  0  0  0  0  0
   -2.7453    3.4187   -0.4035 H   0  0  0  0  0  0  0  0  0  0  0  0
    0.8956    2.9117    0.2985 H   0  0  0  0  0  0  0  0  0  0  0  0
   -3.9383   -0.1281   -0.9367 H   0  0  0  0  0  0  0  0  0  0  0  0
   -5.3548   -2.0667   -1.3843 H   0  0  0  0  0  0  0  0  0  0  0  0
   -1.9679   -4.6375   -0.9030 H   0  0  0  0  0  0  0  0  0  0  0  0
   -0.5639   -2.7021   -0.4582 H   0  0  0  0  0  0  0  0  0  0  0  0
    2.2664   -1.5364    0.2146 H   0  0  0  0  0  0  0  0  0  0  0  0
    4.7700    0.1208    0.8615 H   0  0  0  0  0  0  0  0  0  0  0  0
    3.7121   -2.5657    2.0554 H   0  0  0  0  0  0  0  0  0  0  0  0
    5.2442   -1.6611    2.5230 H   0  0  0  0  0  0  0  0  0  0  0  0
    6.0631   -1.9118    0.1117 H   0  0  0  0  0  0  0  0  0  0  0  0
    4.4582   -2.7711   -0.3533 H   0  0  0  0  0  0  0  0  0  0  0  0
  1  2  1  0
  2  3  1  0
  3  4  2  0
  4  5  1  0
  5  6  2  0
  6  7  1  0
  7  8  2  0
  7  9  1  0
  9 10  2  0
 10 11  1  0
 11 12  2  0
 12 13  1  0
 12 14  1  0
 14 15  2  0
  5 16  1  0
 16 17  2  0
 16 18  1  0
 18 19  1  0
 19 20  1  0
 20 21  1  0
  2 22  1  0
 22 23  3  0
  8  3  1  0
 15  9  1  0
 21 19  1  0
  1 24  1  0
  1 25  1  0
  1 26  1  0
  2 27  1  6
  4 28  1  0
 10 29  1  0
 11 30  1  0
 14 31  1  0
 15 32  1  0
 18 33  1  0
 19 34  1  0
 20 35  1  0
 20 36  1  0
 21 37  1  0
 21 38  1  0
M  END
$$$$
[H]c1c([H])c([H])c(C([H])([H])C([H])(C([H])([H])[H])C([H])([H])c2c([H])c(C([H])([H])c3nn([H])c(C(F)(F)F)c3[H])c([H])c([H])c2OC([H])([H])[H])c(C(=O)N2C([H])([H])C([H])([H])C([H])(N([H])C(=O)C([H])([H])[H])C([H])([H])C2([H])[H])c1[H]
     RDKit          3D

 75 78  0  0  0  0  0  0  0  0999 V2000
    3.7861   -2.5924   -3.7667 C   0  0  0  0  0  0  0  0  0  0  0  0
    2.9447   -2.3069   -2.6958 O   0  0  0  0  0  0  0  0  0  0  0  0
    3.3405   -1.7403   -1.4842 C   0  0  0  0  0  0  0  0  0  0  0  0
    4.6658   -1.4280   -1.2913 C   0  0  0  0  0  0  0  0  0  0  0  0
    5.0763   -0.8722   -0.0967 C   0  0  0  0  0  0  0  0  0  0  0  0
    4.2120   -0.6079    0.9374 C   0  0  0  0  0  0  0  0  0  0  0  0
    4.6507    0.0173    2.2157 C   0  0  0  0  0  0  0  0  0  0  0  0
    6.1221    0.0856    2.2391 C   0  0  0  0  0  0  0  0  0  0  0  0
    6.8783    1.1269    1.7536 C   0  0  0  0  0  0  0  0  0  0  0  0
    8.1997    0.8070    1.9471 C   0  0  0  0  0  0  0  0  0  0  0  0
    8.2370   -0.3963    2.5370 N   0  0  0  0  0  0  0  0  0  0  0  0
    6.9765   -0.8268    2.7101 N   0  0  0  0  0  0  0  0  0  0  0  0
    9.3682    1.6396    1.5499 C   0  0  0  0  0  0  0  0  0  0  0  0
   10.5522    1.0745    1.9831 F   0  0  0  0  0  0  0  0  0  0  0  0
    9.2235    2.9121    2.0239 F   0  0  0  0  0  0  0  0  0  0  0  0
    9.3838    1.7541    0.1521 F   0  0  0  0  0  0  0  0  0  0  0  0
    2.8799   -0.9373    0.7048 C   0  0  0  0  0  0  0  0  0  0  0  0
    2.4348   -1.4908   -0.4715 C   0  0  0  0  0  0  0  0  0  0  0  0
    1.0140   -1.8021   -0.7548 C   0  0  0  0  0  0  0  0  0  0  0  0
    0.2139   -0.6927   -1.3647 C   0  0  0  0  0  0  0  0  0  0  0  0
    0.7571   -0.1745   -2.6264 C   0  0  0  0  0  0  0  0  0  0  0  0
   -0.2955    0.2840   -0.3646 C   0  0  0  0  0  0  0  0  0  0  0  0
   -1.0479    1.4395   -0.8495 C   0  0  0  0  0  0  0  0  0  0  0  0
   -0.4075    2.7047   -0.8632 C   0  0  0  0  0  0  0  0  0  0  0  0
   -1.0005    3.8478   -1.2627 C   0  0  0  0  0  0  0  0  0  0  0  0
   -2.3144    3.7687   -1.6830 C   0  0  0  0  0  0  0  0  0  0  0  0
   -2.9545    2.5667   -1.6813 C   0  0  0  0  0  0  0  0  0  0  0  0
   -2.3480    1.3539   -1.2652 C   0  0  0  0  0  0  0  0  0  0  0  0
   -3.1468    0.1510   -1.3481 C   0  0  0  0  0  0  0  0  0  0  0  0
   -3.2950   -0.5911   -2.3419 O   0  0  0  0  0  0  0  0  0  0  0  0
   -3.8801   -0.2707   -0.1589 N   0  0  0  0  0  0  0  0  0  0  0  0
   -3.7938    0.4735    1.0488 C   0  0  0  0  0  0  0  0  0  0  0  0
   -4.9323    0.4332    1.9898 C   0  0  0  0  0  0  0  0  0  0  0  0
   -5.9487   -0.6332    1.6479 C   0  0  0  0  0  0  0  0  0  0  0  0
   -5.2541   -1.8481    1.0635 C   0  0  0  0  0  0  0  0  0  0  0  0
   -4.7042   -1.4513   -0.2618 C   0  0  0  0  0  0  0  0  0  0  0  0
   -6.9606   -0.1462    0.7521 N   0  0  0  0  0  0  0  0  0  0  0  0
   -8.3285   -0.2940    1.0687 C   0  0  0  0  0  0  0  0  0  0  0  0
   -9.3793    0.2042    0.1673 C   0  0  0  0  0  0  0  0  0  0  0  0
   -8.6418   -0.8649    2.1497 O   0  0  0  0  0  0  0  0  0  0  0  0
    3.2323   -3.0853   -4.6147 H   0  0  0  0  0  0  0  0  0  0  0  0
    4.2495   -1.6737   -4.2118 H   0  0  0  0  0  0  0  0  0  0  0  0
    4.6019   -3.2609   -3.3966 H   0  0  0  0  0  0  0  0  0  0  0  0
    5.3884   -1.6308   -2.0986 H   0  0  0  0  0  0  0  0  0  0  0  0
    6.1388   -0.6479    0.0338 H   0  0  0  0  0  0  0  0  0  0  0  0
    4.2327    1.0272    2.3768 H   0  0  0  0  0  0  0  0  0  0  0  0
    4.3530   -0.6620    3.0436 H   0  0  0  0  0  0  0  0  0  0  0  0
    6.5434    2.0539    1.2914 H   0  0  0  0  0  0  0  0  0  0  0  0
    9.1241   -0.8884    2.8009 H   0  0  0  0  0  0  0  0  0  0  0  0
    2.1701   -0.7476    1.4997 H   0  0  0  0  0  0  0  0  0  0  0  0
    0.9474   -2.6865   -1.4515 H   0  0  0  0  0  0  0  0  0  0  0  0
    0.5730   -2.1732    0.1938 H   0  0  0  0  0  0  0  0  0  0  0  0
   -0.7545   -1.2573   -1.6921 H   0  0  0  0  0  0  0  0  0  0  0  0
    1.7733    0.2634   -2.5747 H   0  0  0  0  0  0  0  0  0  0  0  0
    0.1413    0.7144   -3.0096 H   0  0  0  0  0  0  0  0  0  0  0  0
    0.6099   -0.9173   -3.4374 H   0  0  0  0  0  0  0  0  0  0  0  0
    0.6168    0.6750    0.1747 H   0  0  0  0  0  0  0  0  0  0  0  0
   -0.8285   -0.2511    0.4900 H   0  0  0  0  0  0  0  0  0  0  0  0
    0.6305    2.7390   -0.5226 H   0  0  0  0  0  0  0  0  0  0  0  0
   -0.4369    4.7727   -1.2418 H   0  0  0  0  0  0  0  0  0  0  0  0
   -2.7687    4.6991   -2.0030 H   0  0  0  0  0  0  0  0  0  0  0  0
   -3.9993    2.4959   -2.0120 H   0  0  0  0  0  0  0  0  0  0  0  0
   -2.8468    0.2458    1.6106 H   0  0  0  0  0  0  0  0  0  0  0  0
   -3.6647    1.5589    0.7196 H   0  0  0  0  0  0  0  0  0  0  0  0
   -5.4660    1.4069    2.0007 H   0  0  0  0  0  0  0  0  0  0  0  0
   -4.5596    0.2973    3.0373 H   0  0  0  0  0  0  0  0  0  0  0  0
   -6.4312   -0.9789    2.5750 H   0  0  0  0  0  0  0  0  0  0  0  0
   -6.0480   -2.6215    0.9545 H   0  0  0  0  0  0  0  0  0  0  0  0
   -4.4453   -2.1504    1.7486 H   0  0  0  0  0  0  0  0  0  0  0  0
   -5.5484   -1.1900   -0.9751 H   0  0  0  0  0  0  0  0  0  0  0  0
   -4.1390   -2.2793   -0.7596 H   0  0  0  0  0  0  0  0  0  0  0  0
   -6.7069    0.3243   -0.1398 H   0  0  0  0  0  0  0  0  0  0  0  0
   -8.9607    0.3268   -0.8342 H   0  0  0  0  0  0  0  0  0  0  0  0
   -9.6942    1.2119    0.5617 H   0  0  0  0  0  0  0  0  0  0  0  0
  -10.3112   -0.3870    0.1668 H   0  0  0  0  0  0  0  0  0  0  0  0
  1  2  1  0
  2  3  1  0
  3  4  2  0
  4  5  1  0
  5  6  2  0
  6  7  1  0
  7  8  1  0
  8  9  1  0
  9 10  2  0
 10 11  1  0
 11 12  1  0
 10 13  1  0
 13 14  1  0
 13 15  1  0
 13 16  1  0
  6 17  1  0
 17 18  2  0
 18 19  1  0
 19 20  1  0
 20 21  1  0
 20 22  1  0
 22 23  1  0
 23 24  2  0
 24 25  1  0
 25 26  2  0
 26 27  1  0
 27 28  2  0
 28 29  1  0
 29 30  2  0
 29 31  1  0
 31 32  1  0
 32 33  1  0
 33 34  1  0
 34 35  1  0
 35 36  1  0
 34 37  1  0
 37 38  1  0
 38 39  1  0
 38 40  2  0
 18  3  1  0
 28 23  1  0
 36 31  1  0
 12  8  2  0
  1 41  1  0
  1 42  1  0
  1 43  1  0
  4 44  1  0
  5 45  1  0
  7 46  1  0
  7 47  1  0
  9 48  1  0
 11 49  1  0
 17 50  1  0
 19 51  1  0
 19 52  1  0
 20 53  1  0
 21 54  1  0
 21 55  1  0
 21 56  1  0
 22 57  1  0
 22 58  1  0
 24 59  1  0
 25 60  1  0
 26 61  1  0
 27 62  1  0
 32 63  1  0
 32 64  1  0
 33 65  1  0
 33 66  1  0
 34 67  1  0
 35 68  1  0
 35 69  1  0
 36 70  1  0
 36 71  1  0
 37 72  1  0
 39 73  1  0
 39 74  1  0
 39 75  1  0
M  END
$$$$
[H]c1nc(-c2c([H])c([H])c([H])c(C(=O)N([H])c3c([H])c([H])c([H])c([H])c3C(F)(F)F)c2[H])c2c([H])c(C#N)n([H])c2n1
     RDKit          3D

 42 45  0  0  0  0  0  0  0  0999 V2000
   -4.3112   -0.6940    2.7560 F   0  0  0  0  0  0  0  0  0  0  0  0
   -5.0822   -1.0804    1.6790 C   0  0  0  0  0  0  0  0  0  0  0  0
   -6.3522   -1.3011    2.2161 F   0  0  0  0  0  0  0  0  0  0  0  0
   -4.5921   -2.2721    1.1706 F   0  0  0  0  0  0  0  0  0  0  0  0
   -5.1678    0.0001    0.6798 C   0  0  0  0  0  0  0  0  0  0  0  0
   -6.4350    0.4838    0.4023 C   0  0  0  0  0  0  0  0  0  0  0  0
   -6.6205    1.4905   -0.5054 C   0  0  0  0  0  0  0  0  0  0  0  0
   -5.5468    2.0220   -1.1423 C   0  0  0  0  0  0  0  0  0  0  0  0
   -4.2761    1.5295   -0.8573 C   0  0  0  0  0  0  0  0  0  0  0  0
   -4.0259    0.5221    0.0422 C   0  0  0  0  0  0  0  0  0  0  0  0
   -2.7415    0.0213    0.3175 N   0  0  0  0  0  0  0  0  0  0  0  0
   -1.5091    0.4510   -0.1997 C   0  0  0  0  0  0  0  0  0  0  0  0
   -1.4044    1.3823   -1.0136 O   0  0  0  0  0  0  0  0  0  0  0  0
   -0.2570   -0.2065    0.2149 C   0  0  0  0  0  0  0  0  0  0  0  0
   -0.1967   -0.9954    1.3353 C   0  0  0  0  0  0  0  0  0  0  0  0
    0.9974   -1.6217    1.7153 C   0  0  0  0  0  0  0  0  0  0  0  0
    2.1035   -1.4153    0.9240 C   0  0  0  0  0  0  0  0  0  0  0  0
    2.0959   -0.6380   -0.2020 C   0  0  0  0  0  0  0  0  0  0  0  0
    0.8901   -0.0429   -0.5319 C   0  0  0  0  0  0  0  0  0  0  0  0
    3.2854   -0.4246   -1.0302 C   0  0  0  0  0  0  0  0  0  0  0  0
    3.1772   -0.5383   -2.3636 N   0  0  0  0  0  0  0  0  0  0  0  0
    4.2359   -0.3506   -3.1781 C   0  0  0  0  0  0  0  0  0  0  0  0
    5.4375   -0.0421   -2.6719 N   0  0  0  0  0  0  0  0  0  0  0  0
    5.6282    0.0904   -1.3406 C   0  0  0  0  0  0  0  0  0  0  0  0
    6.7051    0.3893   -0.5916 N   0  0  0  0  0  0  0  0  0  0  0  0
    6.2958    0.3834    0.6908 C   0  0  0  0  0  0  0  0  0  0  0  0
    4.9561    0.0804    0.7614 C   0  0  0  0  0  0  0  0  0  0  0  0
    4.5187   -0.1077   -0.5097 C   0  0  0  0  0  0  0  0  0  0  0  0
    7.1339    0.6534    1.8182 C   0  0  0  0  0  0  0  0  0  0  0  0
    7.8210    0.8647    2.7410 N   0  0  0  0  0  0  0  0  0  0  0  0
   -7.3211    0.0695    0.9046 H   0  0  0  0  0  0  0  0  0  0  0  0
   -7.6141    1.8598   -0.7138 H   0  0  0  0  0  0  0  0  0  0  0  0
   -5.6842    2.8167   -1.8598 H   0  0  0  0  0  0  0  0  0  0  0  0
   -3.4897    2.0039   -1.4052 H   0  0  0  0  0  0  0  0  0  0  0  0
   -2.7368   -0.8042    1.0110 H   0  0  0  0  0  0  0  0  0  0  0  0
   -1.0658   -1.1713    1.9861 H   0  0  0  0  0  0  0  0  0  0  0  0
    1.0281   -2.2474    2.6111 H   0  0  0  0  0  0  0  0  0  0  0  0
    3.0460   -1.8982    1.1990 H   0  0  0  0  0  0  0  0  0  0  0  0
    0.8715    0.5823   -1.4324 H   0  0  0  0  0  0  0  0  0  0  0  0
    4.1667   -0.4383   -4.2558 H   0  0  0  0  0  0  0  0  0  0  0  0
    7.6543    0.5810   -0.9751 H   0  0  0  0  0  0  0  0  0  0  0  0
    4.3821    0.0128    1.6618 H   0  0  0  0  0  0  0  0  0  0  0  0
  1  2  1  0
  2  3  1  0
  2  4  1  0
  2  5  1  0
  5  6  2  0
  6  7  1  0
  7  8  2  0
  8  9  1  0
  9 10  2  0
 10 11  1  0
 11 12  1  0
 12 13  2  0
 12 14  1  0
 14 15  2  0
 15 16  1  0
 16 17  2  0
 17 18  1  0
 18 19  2  0
 18 20  1  0
 20 21  2  0
 21 22  1  0
 22 23  2  0
 23 24  1  0
 24 25  1  0
 25 26  1  0
 26 27  2  0
 27 28  1  0
 26 29  1  0
 29 30  3  0
 10  5  1  0
 19 14  1  0
 28 20  1  0
 28 24  2  0
  6 31  1  0
  7 32  1  0
  8 33  1  0
  9 34  1  0
 11 35  1  0
 15 36  1  0
 16 37  1  0
 17 38  1  0
 19 39  1  0
 22 40  1  0
 25 41  1  0
 27 42  1  0
M  END
$$$$
[H]c1nc2c(c(N([H])[H])n1)C([H])([H])C([H])([H])N(S(=O)(=O)c1c([H])c([H])c(C(F)(F)F)c([H])c1[H])c1c([H])c([H])c([H])c([H])c1-2
     RDKit          3D

 44 47  0  0  0  0  0  0  0  0999 V2000
    5.3207    2.6121   -2.5743 F   0  0  0  0  0  0  0  0  0  0  0  0
    5.8034    1.7028   -1.6598 C   0  0  0  0  0  0  0  0  0  0  0  0
    6.7566    2.3275   -0.8862 F   0  0  0  0  0  0  0  0  0  0  0  0
    6.4421    0.6409   -2.2685 F   0  0  0  0  0  0  0  0  0  0  0  0
    4.6649    1.2157   -0.7988 C   0  0  0  0  0  0  0  0  0  0  0  0
    4.1401    1.9993    0.2022 C   0  0  0  0  0  0  0  0  0  0  0  0
    3.0938    1.5613    0.9784 C   0  0  0  0  0  0  0  0  0  0  0  0
    2.5114    0.3187    0.8051 C   0  0  0  0  0  0  0  0  0  0  0  0
    3.0705   -0.4505   -0.2181 C   0  0  0  0  0  0  0  0  0  0  0  0
    4.1143   -0.0203   -0.9999 C   0  0  0  0  0  0  0  0  0  0  0  0
    1.1384   -0.2297    1.7579 S   0  0  0  0  0  0  0  0  0  0  0  0
    1.6183   -1.3864    2.4936 O   0  0  0  0  0  0  0  0  0  0  0  0
    0.9182    0.9483    2.7308 O   0  0  0  0  0  0  0  0  0  0  0  0
   -0.1736   -0.3308    0.6895 N   0  0  0  0  0  0  0  0  0  0  0  0
   -0.5840    0.9284    0.0193 C   0  0  0  0  0  0  0  0  0  0  0  0
   -1.8866    1.4600    0.5132 C   0  0  0  0  0  0  0  0  0  0  0  0
   -3.0737    0.6578    0.1130 C   0  0  0  0  0  0  0  0  0  0  0  0
   -4.1810    1.4484   -0.1436 C   0  0  0  0  0  0  0  0  0  0  0  0
   -3.9900    2.8508    0.0086 N   0  0  0  0  0  0  0  0  0  0  0  0
   -5.3632    0.9065   -0.5195 N   0  0  0  0  0  0  0  0  0  0  0  0
   -5.4863   -0.4090   -0.6509 C   0  0  0  0  0  0  0  0  0  0  0  0
   -4.4196   -1.1949   -0.4037 N   0  0  0  0  0  0  0  0  0  0  0  0
   -3.2398   -0.7011   -0.0317 C   0  0  0  0  0  0  0  0  0  0  0  0
   -2.2320   -1.7281    0.1824 C   0  0  0  0  0  0  0  0  0  0  0  0
   -2.7138   -3.0079    0.0548 C   0  0  0  0  0  0  0  0  0  0  0  0
   -1.8700   -4.0843    0.2310 C   0  0  0  0  0  0  0  0  0  0  0  0
   -0.5300   -3.8951    0.5360 C   0  0  0  0  0  0  0  0  0  0  0  0
   -0.0233   -2.6161    0.6675 C   0  0  0  0  0  0  0  0  0  0  0  0
   -0.8716   -1.5503    0.4921 C   0  0  0  0  0  0  0  0  0  0  0  0
    4.6078    2.9733    0.3484 H   0  0  0  0  0  0  0  0  0  0  0  0
    2.6968    2.1927    1.7637 H   0  0  0  0  0  0  0  0  0  0  0  0
    2.6690   -1.4529   -0.4350 H   0  0  0  0  0  0  0  0  0  0  0  0
    4.4976   -0.6612   -1.7683 H   0  0  0  0  0  0  0  0  0  0  0  0
    0.1925    1.6745    0.1769 H   0  0  0  0  0  0  0  0  0  0  0  0
   -0.6570    0.7622   -1.0776 H   0  0  0  0  0  0  0  0  0  0  0  0
   -1.8216    1.5891    1.6007 H   0  0  0  0  0  0  0  0  0  0  0  0
   -1.9975    2.4743    0.0608 H   0  0  0  0  0  0  0  0  0  0  0  0
   -4.0347    3.4131   -0.8635 H   0  0  0  0  0  0  0  0  0  0  0  0
   -3.8175    3.2057    0.9491 H   0  0  0  0  0  0  0  0  0  0  0  0
   -6.4522   -0.8070   -0.9592 H   0  0  0  0  0  0  0  0  0  0  0  0
   -3.7770   -3.1494   -0.1845 H   0  0  0  0  0  0  0  0  0  0  0  0
   -2.2245   -5.0903    0.1416 H   0  0  0  0  0  0  0  0  0  0  0  0
    0.1647   -4.6908    0.6777 H   0  0  0  0  0  0  0  0  0  0  0  0
    0.9995   -2.4072    0.8856 H   0  0  0  0  0  0  0  0  0  0  0  0
  1  2  1  0
  2  3  1  0
  2  4  1  0
  2  5  1  0
  5  6  2  0
  6  7  1  0
  7  8  2  0
  8  9  1  0
  9 10  2  0
  8 11  1  0
 11 12  2  0
 11 13  2  0
 11 14  1  0
 14 15  1  0
 15 16  1  0
 16 17  1  0
 17 18  2  0
 18 19  1  0
 18 20  1  0
 20 21  2  0
 21 22  1  0
 22 23  2  0
 23 24  1  0
 24 25  2  0
 25 26  1  0
 26 27  2  0
 27 28  1  0
 28 29  2  0
 10  5  1  0
 29 14  1  0
 23 17  1  0
 29 24  1  0
  6 30  1  0
  7 31  1  0
  9 32  1  0
 10 33  1  0
 15 34  1  0
 15 35  1  0
 16 36  1  0
 16 37  1  0
 19 38  1  0
 19 39  1  0
 21 40  1  0
 25 41  1  0
 26 42  1  0
 27 43  1  0
 28 44  1  0
M  END
$$$$
[H]c1nc(N([H])[H])c([H])c(-c2c([H])c3c(N([H])[H])nc(N([H])C(=O)N4C([H])([H])C([H])([H])OC([H])(C([H])([H])[H])C4([H])[H])c([H])c3n2[H])c1[H]
     RDKit          3D

 48 51  0  0  0  0  0  0  0  0999 V2000
    7.2917    1.4425    1.5863 C   0  0  0  0  0  0  0  0  0  0  0  0
    6.1942    1.5119    0.5175 C   0  0  0  0  0  0  0  0  0  0  0  0
    4.8611    1.1094    1.0699 C   0  0  0  0  0  0  0  0  0  0  0  0
    4.1297    0.2107    0.2282 N   0  0  0  0  0  0  0  0  0  0  0  0
    4.7854   -0.7339   -0.6510 C   0  0  0  0  0  0  0  0  0  0  0  0
    6.2680   -0.5706   -0.4756 C   0  0  0  0  0  0  0  0  0  0  0  0
    6.5684    0.7807   -0.6031 O   0  0  0  0  0  0  0  0  0  0  0  0
    2.6973    0.2203    0.2317 C   0  0  0  0  0  0  0  0  0  0  0  0
    2.1618    1.0486    1.0029 O   0  0  0  0  0  0  0  0  0  0  0  0
    1.9713   -0.6564   -0.5894 N   0  0  0  0  0  0  0  0  0  0  0  0
    0.5681   -0.7815   -0.7116 C   0  0  0  0  0  0  0  0  0  0  0  0
   -0.3622   -0.0576   -0.0393 C   0  0  0  0  0  0  0  0  0  0  0  0
   -1.7257   -0.2615   -0.2349 C   0  0  0  0  0  0  0  0  0  0  0  0
   -2.8388    0.2860    0.2719 N   0  0  0  0  0  0  0  0  0  0  0  0
   -3.9446   -0.2592   -0.2412 C   0  0  0  0  0  0  0  0  0  0  0  0
   -3.5029   -1.2153   -1.1320 C   0  0  0  0  0  0  0  0  0  0  0  0
   -2.1420   -1.2180   -1.1293 C   0  0  0  0  0  0  0  0  0  0  0  0
   -1.1870   -1.9590   -1.8173 C   0  0  0  0  0  0  0  0  0  0  0  0
   -1.6516   -2.9384   -2.7333 N   0  0  0  0  0  0  0  0  0  0  0  0
    0.1043   -1.7225   -1.5916 N   0  0  0  0  0  0  0  0  0  0  0  0
   -5.3460    0.0381    0.0311 C   0  0  0  0  0  0  0  0  0  0  0  0
   -6.3509   -0.6491   -0.6142 C   0  0  0  0  0  0  0  0  0  0  0  0
   -7.6962   -0.3872   -0.3749 C   0  0  0  0  0  0  0  0  0  0  0  0
   -8.0290    0.5643    0.5121 N   0  0  0  0  0  0  0  0  0  0  0  0
   -7.0902    1.2665    1.1710 C   0  0  0  0  0  0  0  0  0  0  0  0
   -7.5095    2.2503    2.0877 N   0  0  0  0  0  0  0  0  0  0  0  0
   -5.7382    1.0061    0.9331 C   0  0  0  0  0  0  0  0  0  0  0  0
    7.2082    2.3124    2.2418 H   0  0  0  0  0  0  0  0  0  0  0  0
    7.2526    0.4729    2.1275 H   0  0  0  0  0  0  0  0  0  0  0  0
    8.2787    1.4863    1.0865 H   0  0  0  0  0  0  0  0  0  0  0  0
    6.1416    2.5763    0.2076 H   0  0  0  0  0  0  0  0  0  0  0  0
    5.0551    0.6674    2.0893 H   0  0  0  0  0  0  0  0  0  0  0  0
    4.2440    2.0278    1.2946 H   0  0  0  0  0  0  0  0  0  0  0  0
    4.5467   -0.4486   -1.7065 H   0  0  0  0  0  0  0  0  0  0  0  0
    4.4341   -1.7570   -0.4115 H   0  0  0  0  0  0  0  0  0  0  0  0
    6.6307   -1.0159    0.4631 H   0  0  0  0  0  0  0  0  0  0  0  0
    6.7570   -1.0807   -1.3467 H   0  0  0  0  0  0  0  0  0  0  0  0
    2.6004   -1.3017   -1.1894 H   0  0  0  0  0  0  0  0  0  0  0  0
   -0.0885    0.7010    0.6698 H   0  0  0  0  0  0  0  0  0  0  0  0
   -2.8390    1.0463    0.9817 H   0  0  0  0  0  0  0  0  0  0  0  0
   -4.1333   -1.8604   -1.7365 H   0  0  0  0  0  0  0  0  0  0  0  0
   -1.8777   -3.8937   -2.4069 H   0  0  0  0  0  0  0  0  0  0  0  0
   -1.7638   -2.6927   -3.7329 H   0  0  0  0  0  0  0  0  0  0  0  0
   -6.1252   -1.4149   -1.3281 H   0  0  0  0  0  0  0  0  0  0  0  0
   -8.4906   -0.9266   -0.8813 H   0  0  0  0  0  0  0  0  0  0  0  0
   -8.0119    3.0833    1.7459 H   0  0  0  0  0  0  0  0  0  0  0  0
   -7.3160    2.1388    3.0919 H   0  0  0  0  0  0  0  0  0  0  0  0
   -4.9899    1.5545    1.4478 H   0  0  0  0  0  0  0  0  0  0  0  0
  1  2  1  0
  2  3  1  0
  3  4  1  0
  4  5  1  0
  5  6  1  0
  6  7  1  0
  4  8  1  0
  8  9  2  0
  8 10  1  0
 10 11  1  0
 11 12  2  0
 12 13  1  0
 13 14  1  0
 14 15  1  0
 15 16  2  0
 16 17  1  0
 17 18  1  0
 18 19  1  0
 18 20  2  0
 15 21  1  0
 21 22  2  0
 22 23  1  0
 23 24  2  0
 24 25  1  0
 25 26  1  0
 25 27  2  0
  7  2  1  0
 20 11  1  0
 27 21  1  0
 17 13  2  0
  1 28  1  0
  1 29  1  0
  1 30  1  0
  2 31  1  0
  3 32  1  0
  3 33  1  0
  5 34  1  0
  5 35  1  0
  6 36  1  0
  6 37  1  0
 10 38  1  0
 12 39  1  0
 14 40  1  0
 16 41  1  0
 19 42  1  0
 19 43  1  0
 22 44  1  0
 23 45  1  0
 26 46  1  0
 26 47  1  0
 27 48  1  0
M  END
$$$$
[H]c1nc([C@@]([H])(C(=O)N([H])C([H])([H])c2c([H])c([H])c([H])c(C(F)(F)F)c2[H])N([H])C(=O)[C@@]([H])(N2C([H])([H])C([H])([H])C([H])(S(=O)(=O)C([H])([H])[H])C([H])([H])C2([H])[H])C([H])([H])c2c([H])nc(C(F)(F)F)nc2[H])c([H])c([H])c1F
     RDKit          3D

 76 79  0  0  0  0  0  0  0  0999 V2000
    9.5609    1.2576   -1.4734 F   0  0  0  0  0  0  0  0  0  0  0  0
    9.1398    0.5859   -0.3126 C   0  0  0  0  0  0  0  0  0  0  0  0
   10.2054    0.5966    0.5445 F   0  0  0  0  0  0  0  0  0  0  0  0
    8.7444   -0.6835   -0.6150 F   0  0  0  0  0  0  0  0  0  0  0  0
    7.9532    1.3000    0.2423 C   0  0  0  0  0  0  0  0  0  0  0  0
    7.9984    1.8759    1.4808 C   0  0  0  0  0  0  0  0  0  0  0  0
    6.8438    2.5440    1.9069 C   0  0  0  0  0  0  0  0  0  0  0  0
    5.6937    2.6285    1.1238 C   0  0  0  0  0  0  0  0  0  0  0  0
    5.6614    2.0446   -0.1121 C   0  0  0  0  0  0  0  0  0  0  0  0
    4.4722    2.0430   -1.0320 C   0  0  0  0  0  0  0  0  0  0  0  0
    3.5969    0.9129   -0.7753 N   0  0  0  0  0  0  0  0  0  0  0  0
    2.6156    0.9072    0.2260 C   0  0  0  0  0  0  0  0  0  0  0  0
    2.4607    1.9401    0.9643 O   0  0  0  0  0  0  0  0  0  0  0  0
    1.7436   -0.2680    0.4379 C   0  0  1  0  0  0  0  0  0  0  0  0
    0.4288    0.1150    0.8336 N   0  0  0  0  0  0  0  0  0  0  0  0
   -0.7270   -0.6867    0.7258 C   0  0  0  0  0  0  0  0  0  0  0  0
   -0.6587   -1.8173    0.2167 O   0  0  0  0  0  0  0  0  0  0  0  0
   -2.0522   -0.1388    1.2385 C   0  0  2  0  0  0  0  0  0  0  0  0
   -2.6499   -0.9606    2.3412 C   0  0  0  0  0  0  0  0  0  0  0  0
   -2.9904   -2.3336    2.0844 C   0  0  0  0  0  0  0  0  0  0  0  0
   -2.1786   -3.4338    2.1625 C   0  0  0  0  0  0  0  0  0  0  0  0
   -2.6254   -4.6701    1.8690 N   0  0  0  0  0  0  0  0  0  0  0  0
   -3.8872   -4.8813    1.4898 C   0  0  0  0  0  0  0  0  0  0  0  0
   -4.7386   -3.8326    1.3949 N   0  0  0  0  0  0  0  0  0  0  0  0
   -4.3054   -2.6056    1.6831 C   0  0  0  0  0  0  0  0  0  0  0  0
   -4.3908   -6.2648    1.1340 C   0  0  0  0  0  0  0  0  0  0  0  0
   -5.7610   -6.2461    0.9541 F   0  0  0  0  0  0  0  0  0  0  0  0
   -3.9944   -7.1621    2.0894 F   0  0  0  0  0  0  0  0  0  0  0  0
   -3.8286   -6.6626   -0.0794 F   0  0  0  0  0  0  0  0  0  0  0  0
   -2.8675    0.4446    0.2924 N   0  0  0  0  0  0  0  0  0  0  0  0
   -2.2469    1.6631   -0.2805 C   0  0  0  0  0  0  0  0  0  0  0  0
   -3.3621    2.6084   -0.6811 C   0  0  0  0  0  0  0  0  0  0  0  0
   -4.6192    1.9886   -1.1420 C   0  0  0  0  0  0  0  0  0  0  0  0
   -4.8633    0.5543   -0.9014 C   0  0  0  0  0  0  0  0  0  0  0  0
   -3.4798   -0.1678   -0.8010 C   0  0  0  0  0  0  0  0  0  0  0  0
   -5.9244    2.9905   -0.3672 S   0  0  0  0  0  0  0  0  0  0  0  0
   -5.6053    4.6474   -0.8877 C   0  0  0  0  0  0  0  0  0  0  0  0
   -7.2721    2.4966   -0.7123 O   0  0  0  0  0  0  0  0  0  0  0  0
   -5.6174    2.9200    1.1066 O   0  0  0  0  0  0  0  0  0  0  0  0
    1.7087   -1.1916   -0.7151 C   0  0  0  0  0  0  0  0  0  0  0  0
    1.2341   -0.9078   -1.9629 C   0  0  0  0  0  0  0  0  0  0  0  0
    1.2350   -1.8822   -2.9690 C   0  0  0  0  0  0  0  0  0  0  0  0
    1.7135   -3.1485   -2.7183 C   0  0  0  0  0  0  0  0  0  0  0  0
    1.7142   -4.1385   -3.6614 F   0  0  0  0  0  0  0  0  0  0  0  0
    2.1876   -3.4086   -1.4450 C   0  0  0  0  0  0  0  0  0  0  0  0
    2.1736   -2.4617   -0.5210 N   0  0  0  0  0  0  0  0  0  0  0  0
    6.8192    1.3797   -0.5336 C   0  0  0  0  0  0  0  0  0  0  0  0
    8.8649    1.8437    2.1147 H   0  0  0  0  0  0  0  0  0  0  0  0
    6.9042    2.9870    2.8895 H   0  0  0  0  0  0  0  0  0  0  0  0
    4.8693    3.1668    1.5336 H   0  0  0  0  0  0  0  0  0  0  0  0
    4.8756    2.0504   -2.0822 H   0  0  0  0  0  0  0  0  0  0  0  0
    3.9068    3.0032   -0.9139 H   0  0  0  0  0  0  0  0  0  0  0  0
    3.7056    0.0792   -1.3875 H   0  0  0  0  0  0  0  0  0  0  0  0
    2.2060   -0.9081    1.2992 H   0  0  0  0  0  0  0  0  0  0  0  0
    0.2836    1.0742    1.2769 H   0  0  0  0  0  0  0  0  0  0  0  0
   -1.6660    0.7881    1.8444 H   0  0  0  0  0  0  0  0  0  0  0  0
   -3.6038   -0.3567    2.6043 H   0  0  0  0  0  0  0  0  0  0  0  0
   -2.0616   -0.8542    3.2537 H   0  0  0  0  0  0  0  0  0  0  0  0
   -1.1479   -3.3430    2.4880 H   0  0  0  0  0  0  0  0  0  0  0  0
   -5.0444   -1.7888    1.5957 H   0  0  0  0  0  0  0  0  0  0  0  0
   -1.5766    2.1636    0.4111 H   0  0  0  0  0  0  0  0  0  0  0  0
   -1.7152    1.3043   -1.1801 H   0  0  0  0  0  0  0  0  0  0  0  0
   -3.4867    3.2924    0.1905 H   0  0  0  0  0  0  0  0  0  0  0  0
   -2.9439    3.2478   -1.5179 H   0  0  0  0  0  0  0  0  0  0  0  0
   -4.7693    2.1697   -2.2490 H   0  0  0  0  0  0  0  0  0  0  0  0
   -5.4749    0.1279   -1.6840 H   0  0  0  0  0  0  0  0  0  0  0  0
   -5.2761    0.4202    0.1378 H   0  0  0  0  0  0  0  0  0  0  0  0
   -3.6898   -1.2123   -0.8482 H   0  0  0  0  0  0  0  0  0  0  0  0
   -2.9700    0.1496   -1.7674 H   0  0  0  0  0  0  0  0  0  0  0  0
   -6.5071    5.1355   -1.3340 H   0  0  0  0  0  0  0  0  0  0  0  0
   -5.2280    5.2700   -0.0354 H   0  0  0  0  0  0  0  0  0  0  0  0
   -4.8203    4.7048   -1.6699 H   0  0  0  0  0  0  0  0  0  0  0  0
    0.8619    0.1125   -2.1530 H   0  0  0  0  0  0  0  0  0  0  0  0
    0.8605   -1.6446   -3.9609 H   0  0  0  0  0  0  0  0  0  0  0  0
    2.5719   -4.4021   -1.1821 H   0  0  0  0  0  0  0  0  0  0  0  0
    6.8129    0.9285   -1.5174 H   0  0  0  0  0  0  0  0  0  0  0  0
  1  2  1  0
  2  3  1  0
  2  4  1  0
  2  5  1  0
  5  6  2  0
  6  7  1  0
  7  8  2  0
  8  9  1  0
  9 10  1  0
 10 11  1  0
 11 12  1  0
 12 13  2  0
 12 14  1  0
 14 15  1  0
 15 16  1  0
 16 17  2  0
 16 18  1  0
 18 19  1  0
 19 20  1  0
 20 21  2  0
 21 22  1  0
 22 23  2  0
 23 24  1  0
 24 25  2  0
 23 26  1  0
 26 27  1  0
 26 28  1  0
 26 29  1  0
 18 30  1  0
 30 31  1  0
 31 32  1  0
 32 33  1  0
 33 34  1  0
 34 35  1  0
 33 36  1  0
 36 37  1  0
 36 38  2  0
 36 39  2  0
 14 40  1  0
 40 41  2  0
 41 42  1  0
 42 43  2  0
 43 44  1  0
 43 45  1  0
 45 46  2  0
  9 47  2  0
 47  5  1  0
 25 20  1  0
 35 30  1  0
 46 40  1  0
  6 48  1  0
  7 49  1  0
  8 50  1  0
 10 51  1  0
 10 52  1  0
 11 53  1  0
 14 54  1  1
 15 55  1  0
 18 56  1  1
 19 57  1  0
 19 58  1  0
 21 59  1  0
 25 60  1  0
 31 61  1  0
 31 62  1  0
 32 63  1  0
 32 64  1  0
 33 65  1  0
 34 66  1  0
 34 67  1  0
 35 68  1  0
 35 69  1  0
 37 70  1  0
 37 71  1  0
 37 72  1  0
 41 73  1  0
 42 74  1  0
 45 75  1  0
 47 76  1  0
M  END
$$$$
[H]c1nc(C([H])([H])N2C([H])([H])C([H])([H])C(c3c([H])c([H])c(F)c(Cl)c3[H])(C([H])([H])[H])C([H])([H])C2([H])[H])c2c(n1)c(-c1c([H])c([H])c(OC([H])([H])[H])c([H])c1[H])c([H])n2[H]
     RDKit          3D

 59 63  0  0  0  0  0  0  0  0999 V2000
   -9.2982    2.5934   -0.0197 C   0  0  0  0  0  0  0  0  0  0  0  0
   -9.0558    1.2001    0.0183 O   0  0  0  0  0  0  0  0  0  0  0  0
   -7.7742    0.7102    0.1073 C   0  0  0  0  0  0  0  0  0  0  0  0
   -6.7023    1.6090    0.1586 C   0  0  0  0  0  0  0  0  0  0  0  0
   -5.4352    1.1265    0.2466 C   0  0  0  0  0  0  0  0  0  0  0  0
   -5.2195   -0.2288    0.2848 C   0  0  0  0  0  0  0  0  0  0  0  0
   -6.2817   -1.1012    0.2337 C   0  0  0  0  0  0  0  0  0  0  0  0
   -7.5767   -0.6455    0.1442 C   0  0  0  0  0  0  0  0  0  0  0  0
   -3.8743   -0.7339    0.3786 C   0  0  0  0  0  0  0  0  0  0  0  0
   -3.3772   -1.7182    1.2416 C   0  0  0  0  0  0  0  0  0  0  0  0
   -2.0837   -1.8639    0.9902 N   0  0  0  0  0  0  0  0  0  0  0  0
   -1.7356   -1.0184    0.0079 C   0  0  0  0  0  0  0  0  0  0  0  0
   -0.5173   -0.7856   -0.6165 C   0  0  0  0  0  0  0  0  0  0  0  0
    0.6262   -1.6007   -0.1669 C   0  0  0  0  0  0  0  0  0  0  0  0
    1.8479   -1.2685   -0.8428 N   0  0  0  0  0  0  0  0  0  0  0  0
    2.8987   -2.2387   -0.5321 C   0  0  0  0  0  0  0  0  0  0  0  0
    4.2855   -1.6641   -0.6186 C   0  0  0  0  0  0  0  0  0  0  0  0
    4.4991   -0.6110    0.4660 C   0  0  0  0  0  0  0  0  0  0  0  0
    5.2109   -1.1837    1.6723 C   0  0  0  0  0  0  0  0  0  0  0  0
    3.1146   -0.2196    0.9061 C   0  0  0  0  0  0  0  0  0  0  0  0
    2.2961    0.0311   -0.3423 C   0  0  0  0  0  0  0  0  0  0  0  0
    5.3132    0.5243   -0.0100 C   0  0  0  0  0  0  0  0  0  0  0  0
    4.8728    1.8129   -0.0078 C   0  0  0  0  0  0  0  0  0  0  0  0
    5.7195    2.7999   -0.4790 C   0  0  0  0  0  0  0  0  0  0  0  0
    6.9866    2.5087   -0.9457 C   0  0  0  0  0  0  0  0  0  0  0  0
    7.7996    3.5136   -1.4062 F   0  0  0  0  0  0  0  0  0  0  0  0
    7.4464    1.2129   -0.9543 C   0  0  0  0  0  0  0  0  0  0  0  0
    9.0568    0.8326   -1.5443 Cl  0  0  0  0  0  0  0  0  0  0  0  0
    6.5976    0.2417   -0.4846 C   0  0  0  0  0  0  0  0  0  0  0  0
   -0.4027    0.1210   -1.5949 N   0  0  0  0  0  0  0  0  0  0  0  0
   -1.4906    0.8123   -1.9717 C   0  0  0  0  0  0  0  0  0  0  0  0
   -2.6819    0.6029   -1.3797 N   0  0  0  0  0  0  0  0  0  0  0  0
   -2.8274   -0.2941   -0.4018 C   0  0  0  0  0  0  0  0  0  0  0  0
  -10.3769    2.8194   -0.1696 H   0  0  0  0  0  0  0  0  0  0  0  0
   -9.0047    2.9944    0.9936 H   0  0  0  0  0  0  0  0  0  0  0  0
   -8.6534    3.0314   -0.7824 H   0  0  0  0  0  0  0  0  0  0  0  0
   -6.8627    2.6733    0.1303 H   0  0  0  0  0  0  0  0  0  0  0  0
   -4.5820    1.7815    0.2881 H   0  0  0  0  0  0  0  0  0  0  0  0
   -6.1418   -2.1838    0.2610 H   0  0  0  0  0  0  0  0  0  0  0  0
   -8.4131   -1.3097    0.1039 H   0  0  0  0  0  0  0  0  0  0  0  0
   -4.0077   -2.2242    1.9610 H   0  0  0  0  0  0  0  0  0  0  0  0
   -1.4410   -2.5420    1.4911 H   0  0  0  0  0  0  0  0  0  0  0  0
    0.7051   -1.4149    0.9479 H   0  0  0  0  0  0  0  0  0  0  0  0
    0.4170   -2.6951   -0.2660 H   0  0  0  0  0  0  0  0  0  0  0  0
    2.7006   -2.7598    0.4013 H   0  0  0  0  0  0  0  0  0  0  0  0
    2.8345   -2.9824   -1.3826 H   0  0  0  0  0  0  0  0  0  0  0  0
    4.9851   -2.5086   -0.4476 H   0  0  0  0  0  0  0  0  0  0  0  0
    4.4841   -1.2747   -1.6319 H   0  0  0  0  0  0  0  0  0  0  0  0
    5.9067   -1.9820    1.3971 H   0  0  0  0  0  0  0  0  0  0  0  0
    4.4562   -1.5709    2.4078 H   0  0  0  0  0  0  0  0  0  0  0  0
    5.7001   -0.3289    2.2033 H   0  0  0  0  0  0  0  0  0  0  0  0
    2.6904   -1.0591    1.4893 H   0  0  0  0  0  0  0  0  0  0  0  0
    3.1078    0.6512    1.5925 H   0  0  0  0  0  0  0  0  0  0  0  0
    2.9184    0.4462   -1.1879 H   0  0  0  0  0  0  0  0  0  0  0  0
    1.4788    0.7206   -0.1687 H   0  0  0  0  0  0  0  0  0  0  0  0
    3.8843    2.0593    0.3543 H   0  0  0  0  0  0  0  0  0  0  0  0
    5.3684    3.8277   -0.4782 H   0  0  0  0  0  0  0  0  0  0  0  0
    6.9676   -0.7785   -0.4944 H   0  0  0  0  0  0  0  0  0  0  0  0
   -1.3590    1.5325   -2.7615 H   0  0  0  0  0  0  0  0  0  0  0  0
  1  2  1  0
  2  3  1  0
  3  4  2  0
  4  5  1  0
  5  6  2  0
  6  7  1  0
  7  8  2  0
  6  9  1  0
  9 10  2  0
 10 11  1  0
 11 12  1  0
 12 13  2  0
 13 14  1  0
 14 15  1  0
 15 16  1  0
 16 17  1  0
 17 18  1  0
 18 19  1  0
 18 20  1  0
 20 21  1  0
 18 22  1  0
 22 23  2  0
 23 24  1  0
 24 25  2  0
 25 26  1  0
 25 27  1  0
 27 28  1  0
 27 29  2  0
 13 30  1  0
 30 31  2  0
 31 32  1  0
 32 33  2  0
  8  3  1  0
 33  9  1  0
 33 12  1  0
 21 15  1  0
 29 22  1  0
  1 34  1  0
  1 35  1  0
  1 36  1  0
  4 37  1  0
  5 38  1  0
  7 39  1  0
  8 40  1  0
 10 41  1  0
 11 42  1  0
 14 43  1  0
 14 44  1  0
 16 45  1  0
 16 46  1  0
 17 47  1  0
 17 48  1  0
 19 49  1  0
 19 50  1  0
 19 51  1  0
 20 52  1  0
 20 53  1  0
 21 54  1  0
 21 55  1  0
 23 56  1  0
 24 57  1  0
 29 58  1  0
 31 59  1  0
M  END
$$$$
[H]c1c([H])c([H])c(C([H])([H])N2C([H])([H])C([H])([H])N(C(=O)c3c([H])c([H])c(Oc4c([H])c(C(F)(F)F)nc(C([H])(C(=O)N([H])c5c([H])c([H])c([H])c([N+](=O)[O-])c5[H])C([H])([H])C([H])([H])[H])c4[H])c([H])c3[H])C([H])([H])C2([H])[H])c([H])c1[H]
     RDKit          3D

 79 83  0  0  0  0  0  0  0  0999 V2000
   -6.1187    1.2991    2.1769 C   0  0  0  0  0  0  0  0  0  0  0  0
   -5.2286    1.9082    1.1550 C   0  0  0  0  0  0  0  0  0  0  0  0
   -4.9898    1.0153   -0.0717 C   0  0  0  0  0  0  0  0  0  0  0  0
   -6.2473    0.7576   -0.7548 C   0  0  0  0  0  0  0  0  0  0  0  0
   -6.3753    1.3349   -1.9109 O   0  0  0  0  0  0  0  0  0  0  0  0
   -7.3333   -0.0078   -0.3405 N   0  0  0  0  0  0  0  0  0  0  0  0
   -8.5723   -0.2164   -1.0110 C   0  0  0  0  0  0  0  0  0  0  0  0
   -8.8025   -0.0321   -2.3377 C   0  0  0  0  0  0  0  0  0  0  0  0
  -10.0653   -0.1789   -2.8780 C   0  0  0  0  0  0  0  0  0  0  0  0
  -11.1441   -0.5212   -2.0977 C   0  0  0  0  0  0  0  0  0  0  0  0
  -10.9375   -0.7161   -0.7615 C   0  0  0  0  0  0  0  0  0  0  0  0
   -9.6827   -0.5675   -0.2231 C   0  0  0  0  0  0  0  0  0  0  0  0
  -12.0330   -1.0656    0.1151 N   0  0  0  0  0  0  0  0  0  0  0  0
  -11.8067   -1.2510    1.4482 O   0  0  0  0  0  0  0  0  0  0  0  0
  -13.1976   -1.2046   -0.2944 O   0  0  0  0  0  0  0  0  0  0  0  0
   -4.1677   -0.1527    0.3109 C   0  0  0  0  0  0  0  0  0  0  0  0
   -3.0672    0.1564    1.1252 C   0  0  0  0  0  0  0  0  0  0  0  0
   -2.2204   -0.8637    1.5214 C   0  0  0  0  0  0  0  0  0  0  0  0
   -1.1408   -0.5088    2.3372 O   0  0  0  0  0  0  0  0  0  0  0  0
    0.0442   -0.1870    1.6939 C   0  0  0  0  0  0  0  0  0  0  0  0
    1.1881   -0.9160    1.9248 C   0  0  0  0  0  0  0  0  0  0  0  0
    2.3981   -0.6304    1.2917 C   0  0  0  0  0  0  0  0  0  0  0  0
    2.5116    0.4010    0.4001 C   0  0  0  0  0  0  0  0  0  0  0  0
    1.3234    1.1374    0.1854 C   0  0  0  0  0  0  0  0  0  0  0  0
    0.1352    0.8531    0.8083 C   0  0  0  0  0  0  0  0  0  0  0  0
    3.6950    0.7994   -0.3317 C   0  0  0  0  0  0  0  0  0  0  0  0
    3.4734    1.6650   -1.2877 O   0  0  0  0  0  0  0  0  0  0  0  0
    4.9911    0.3906   -0.1542 N   0  0  0  0  0  0  0  0  0  0  0  0
    5.9863    0.8932   -1.1409 C   0  0  0  0  0  0  0  0  0  0  0  0
    6.9068    1.8247   -0.3725 C   0  0  0  0  0  0  0  0  0  0  0  0
    7.5135    1.1642    0.7345 N   0  0  0  0  0  0  0  0  0  0  0  0
    8.9274    1.2854    0.7454 C   0  0  0  0  0  0  0  0  0  0  0  0
    9.7294    0.6049   -0.2651 C   0  0  0  0  0  0  0  0  0  0  0  0
   10.2258   -0.6517    0.0693 C   0  0  0  0  0  0  0  0  0  0  0  0
   11.0080   -1.3463   -0.8100 C   0  0  0  0  0  0  0  0  0  0  0  0
   11.3180   -0.8059   -2.0475 C   0  0  0  0  0  0  0  0  0  0  0  0
   10.8392    0.4133   -2.3673 C   0  0  0  0  0  0  0  0  0  0  0  0
   10.0381    1.1193   -1.4642 C   0  0  0  0  0  0  0  0  0  0  0  0
    7.1108   -0.1962    0.8768 C   0  0  0  0  0  0  0  0  0  0  0  0
    5.5727   -0.3903    0.8793 C   0  0  0  0  0  0  0  0  0  0  0  0
   -2.4753   -2.1224    1.1130 C   0  0  0  0  0  0  0  0  0  0  0  0
   -3.5746   -2.4169    0.2982 C   0  0  0  0  0  0  0  0  0  0  0  0
   -4.3710   -1.4129   -0.0634 N   0  0  0  0  0  0  0  0  0  0  0  0
   -3.8550   -3.7899   -0.1713 C   0  0  0  0  0  0  0  0  0  0  0  0
   -3.0005   -4.6658    0.4902 F   0  0  0  0  0  0  0  0  0  0  0  0
   -3.4592   -3.8630   -1.5087 F   0  0  0  0  0  0  0  0  0  0  0  0
   -5.1334   -4.2093    0.0105 F   0  0  0  0  0  0  0  0  0  0  0  0
   -5.9734    1.8888    3.1389 H   0  0  0  0  0  0  0  0  0  0  0  0
   -5.8753    0.2406    2.3912 H   0  0  0  0  0  0  0  0  0  0  0  0
   -7.1841    1.4302    1.9184 H   0  0  0  0  0  0  0  0  0  0  0  0
   -5.7499    2.8190    0.7004 H   0  0  0  0  0  0  0  0  0  0  0  0
   -4.2853    2.3242    1.4861 H   0  0  0  0  0  0  0  0  0  0  0  0
   -4.3214    1.6275   -0.7803 H   0  0  0  0  0  0  0  0  0  0  0  0
   -7.2192   -0.5224    0.5975 H   0  0  0  0  0  0  0  0  0  0  0  0
   -8.0098    0.2257   -3.0050 H   0  0  0  0  0  0  0  0  0  0  0  0
  -10.2066   -0.0153   -3.9359 H   0  0  0  0  0  0  0  0  0  0  0  0
  -12.1413   -0.6333   -2.5091 H   0  0  0  0  0  0  0  0  0  0  0  0
   -9.5060   -0.7245    0.8404 H   0  0  0  0  0  0  0  0  0  0  0  0
   -2.8688    1.1642    1.4510 H   0  0  0  0  0  0  0  0  0  0  0  0
    1.1859   -1.7415    2.6003 H   0  0  0  0  0  0  0  0  0  0  0  0
    3.2489   -1.2474    1.5029 H   0  0  0  0  0  0  0  0  0  0  0  0
    1.3761    1.9652   -0.5088 H   0  0  0  0  0  0  0  0  0  0  0  0
   -0.7337    1.4596    0.5830 H   0  0  0  0  0  0  0  0  0  0  0  0
    5.4357    1.4656   -1.8884 H   0  0  0  0  0  0  0  0  0  0  0  0
    6.5203    0.0478   -1.5797 H   0  0  0  0  0  0  0  0  0  0  0  0
    7.6391    2.2472   -1.0423 H   0  0  0  0  0  0  0  0  0  0  0  0
    6.3087    2.6903    0.0429 H   0  0  0  0  0  0  0  0  0  0  0  0
    9.3532    1.0136    1.7772 H   0  0  0  0  0  0  0  0  0  0  0  0
    9.2424    2.3914    0.6610 H   0  0  0  0  0  0  0  0  0  0  0  0
    9.9732   -1.0678    1.0374 H   0  0  0  0  0  0  0  0  0  0  0  0
   11.3709   -2.3213   -0.4736 H   0  0  0  0  0  0  0  0  0  0  0  0
   11.9596   -1.3879   -2.7194 H   0  0  0  0  0  0  0  0  0  0  0  0
   11.0721    0.8535   -3.3291 H   0  0  0  0  0  0  0  0  0  0  0  0
    9.7055    2.1076   -1.7902 H   0  0  0  0  0  0  0  0  0  0  0  0
    7.4615   -0.6735    1.8106 H   0  0  0  0  0  0  0  0  0  0  0  0
    7.4842   -0.8046    0.0268 H   0  0  0  0  0  0  0  0  0  0  0  0
    5.2323   -0.0818    1.8911 H   0  0  0  0  0  0  0  0  0  0  0  0
    5.4106   -1.4680    0.6726 H   0  0  0  0  0  0  0  0  0  0  0  0
   -1.8418   -2.9633    1.3865 H   0  0  0  0  0  0  0  0  0  0  0  0
  1  2  1  0
  2  3  1  0
  3  4  1  0
  4  5  2  0
  4  6  1  0
  6  7  1  0
  7  8  2  0
  8  9  1  0
  9 10  2  0
 10 11  1  0
 11 12  2  0
 11 13  1  0
 13 14  1  0
 13 15  2  0
  3 16  1  0
 16 17  2  0
 17 18  1  0
 18 19  1  0
 19 20  1  0
 20 21  2  0
 21 22  1  0
 22 23  2  0
 23 24  1  0
 24 25  2  0
 23 26  1  0
 26 27  2  0
 26 28  1  0
 28 29  1  0
 29 30  1  0
 30 31  1  0
 31 32  1  0
 32 33  1  0
 33 34  2  0
 34 35  1  0
 35 36  2  0
 36 37  1  0
 37 38  2  0
 31 39  1  0
 39 40  1  0
 18 41  2  0
 41 42  1  0
 42 43  2  0
 42 44  1  0
 44 45  1  0
 44 46  1  0
 44 47  1  0
 12  7  1  0
 43 16  1  0
 25 20  1  0
 40 28  1  0
 38 33  1  0
  1 48  1  0
  1 49  1  0
  1 50  1  0
  2 51  1  0
  2 52  1  0
  3 53  1  0
  6 54  1  0
  8 55  1  0
  9 56  1  0
 10 57  1  0
 12 58  1  0
 17 59  1  0
 21 60  1  0
 22 61  1  0
 24 62  1  0
 25 63  1  0
 29 64  1  0
 29 65  1  0
 30 66  1  0
 30 67  1  0
 32 68  1  0
 32 69  1  0
 34 70  1  0
 35 71  1  0
 36 72  1  0
 37 73  1  0
 38 74  1  0
 39 75  1  0
 39 76  1  0
 40 77  1  0
 40 78  1  0
 41 79  1  0
M  CHG  2  13   1  14  -1
M  END
$$$$
[H]c1c([H])c(-c2c([H])c([H])n([H])c2[H])c([H])c([H])c1OC([H])([H])C([H])([H])C([H])([H])N1C(C([H])([H])[H])(C([H])([H])[H])C([H])([H])C([H])([H])N(C([H])([H])C(=O)N([H])[H])C([H])([H])C([H])([H])C12C([H])([H])C([H])([H])N([H])C([H])([H])C2([H])[H]
     RDKit          3D

 75 78  0  0  0  0  0  0  0  0999 V2000
   -0.7801    2.3213   -0.6732 C   0  0  0  0  0  0  0  0  0  0  0  0
   -1.6525    1.4819    0.2451 C   0  0  0  0  0  0  0  0  0  0  0  0
   -1.2990    1.9883    1.6774 C   0  0  0  0  0  0  0  0  0  0  0  0
   -1.3343    0.1342    0.2458 N   0  0  0  0  0  0  0  0  0  0  0  0
   -0.1788   -0.2449    0.9453 C   0  0  0  0  0  0  0  0  0  0  0  0
    1.1868    0.0747    0.5031 C   0  0  0  0  0  0  0  0  0  0  0  0
    1.6741   -0.4769   -0.7936 C   0  0  0  0  0  0  0  0  0  0  0  0
    2.9444   -0.0533   -1.0745 O   0  0  0  0  0  0  0  0  0  0  0  0
    4.1792   -0.1322   -0.6015 C   0  0  0  0  0  0  0  0  0  0  0  0
    5.1741    0.5549   -1.3259 C   0  0  0  0  0  0  0  0  0  0  0  0
    6.4923    0.5551   -0.9497 C   0  0  0  0  0  0  0  0  0  0  0  0
    6.9201   -0.1319    0.1808 C   0  0  0  0  0  0  0  0  0  0  0  0
    5.9635   -0.8093    0.9018 C   0  0  0  0  0  0  0  0  0  0  0  0
    4.6170   -0.8065    0.5127 C   0  0  0  0  0  0  0  0  0  0  0  0
    8.3145   -0.1409    0.5827 C   0  0  0  0  0  0  0  0  0  0  0  0
    9.3974   -0.0823   -0.2620 C   0  0  0  0  0  0  0  0  0  0  0  0
   10.5556   -0.1166    0.4970 C   0  0  0  0  0  0  0  0  0  0  0  0
   10.1878   -0.1950    1.7836 N   0  0  0  0  0  0  0  0  0  0  0  0
    8.8287   -0.2109    1.8544 C   0  0  0  0  0  0  0  0  0  0  0  0
   -2.2255   -0.8963   -0.1994 C   0  0  0  0  0  0  0  0  0  0  0  0
   -2.9844   -1.6215    0.8609 C   0  0  0  0  0  0  0  0  0  0  0  0
   -2.5142   -3.0353    1.1912 C   0  0  0  0  0  0  0  0  0  0  0  0
   -2.5261   -3.9548    0.1087 N   0  0  0  0  0  0  0  0  0  0  0  0
   -2.5430   -3.1543   -1.1268 C   0  0  0  0  0  0  0  0  0  0  0  0
   -1.4902   -2.0632   -0.8939 C   0  0  0  0  0  0  0  0  0  0  0  0
   -3.0600   -0.3677   -1.3492 C   0  0  0  0  0  0  0  0  0  0  0  0
   -4.3959    0.1480   -1.1034 C   0  0  0  0  0  0  0  0  0  0  0  0
   -4.8552    0.5836    0.1321 N   0  0  0  0  0  0  0  0  0  0  0  0
   -6.2718    0.7389    0.1859 C   0  0  0  0  0  0  0  0  0  0  0  0
   -6.8316    1.8416   -0.6083 C   0  0  0  0  0  0  0  0  0  0  0  0
   -8.2513    2.0096   -0.5785 N   0  0  0  0  0  0  0  0  0  0  0  0
   -6.1952    2.6573   -1.3150 O   0  0  0  0  0  0  0  0  0  0  0  0
   -4.1366    1.5675    0.8455 C   0  0  0  0  0  0  0  0  0  0  0  0
   -3.0069    2.0406    0.0542 C   0  0  0  0  0  0  0  0  0  0  0  0
    0.0425    2.8596   -0.1156 H   0  0  0  0  0  0  0  0  0  0  0  0
   -1.3280    3.2155   -1.1151 H   0  0  0  0  0  0  0  0  0  0  0  0
   -0.4418    1.7974   -1.5650 H   0  0  0  0  0  0  0  0  0  0  0  0
   -0.2350    2.1415    1.8075 H   0  0  0  0  0  0  0  0  0  0  0  0
   -1.8016    1.3535    2.4245 H   0  0  0  0  0  0  0  0  0  0  0  0
   -1.7441    3.0186    1.8292 H   0  0  0  0  0  0  0  0  0  0  0  0
   -0.2298    0.1214    2.0242 H   0  0  0  0  0  0  0  0  0  0  0  0
   -0.1264   -1.3581    1.1685 H   0  0  0  0  0  0  0  0  0  0  0  0
    1.8507   -0.3904    1.2889 H   0  0  0  0  0  0  0  0  0  0  0  0
    1.5046    1.1323    0.5424 H   0  0  0  0  0  0  0  0  0  0  0  0
    1.5747   -1.6047   -0.8267 H   0  0  0  0  0  0  0  0  0  0  0  0
    1.0263   -0.0433   -1.6145 H   0  0  0  0  0  0  0  0  0  0  0  0
    4.8738    1.1016   -2.2148 H   0  0  0  0  0  0  0  0  0  0  0  0
    7.2652    1.0839   -1.5072 H   0  0  0  0  0  0  0  0  0  0  0  0
    6.2920   -1.3394    1.7750 H   0  0  0  0  0  0  0  0  0  0  0  0
    3.9033   -1.3627    1.1011 H   0  0  0  0  0  0  0  0  0  0  0  0
    9.4053   -0.0196   -1.3436 H   0  0  0  0  0  0  0  0  0  0  0  0
   11.5692   -0.0871    0.1406 H   0  0  0  0  0  0  0  0  0  0  0  0
   10.7818   -0.2412    2.6455 H   0  0  0  0  0  0  0  0  0  0  0  0
    8.2491   -0.2696    2.7652 H   0  0  0  0  0  0  0  0  0  0  0  0
   -2.9439   -1.1257    1.8748 H   0  0  0  0  0  0  0  0  0  0  0  0
   -4.0480   -1.8094    0.5374 H   0  0  0  0  0  0  0  0  0  0  0  0
   -1.6162   -3.0741    1.8271 H   0  0  0  0  0  0  0  0  0  0  0  0
   -3.3162   -3.4148    1.9061 H   0  0  0  0  0  0  0  0  0  0  0  0
   -1.6419   -4.5221    0.1367 H   0  0  0  0  0  0  0  0  0  0  0  0
   -2.2894   -3.7887   -1.9767 H   0  0  0  0  0  0  0  0  0  0  0  0
   -3.5637   -2.7912   -1.1832 H   0  0  0  0  0  0  0  0  0  0  0  0
   -1.1490   -1.7499   -1.9115 H   0  0  0  0  0  0  0  0  0  0  0  0
   -0.6926   -2.5124   -0.3601 H   0  0  0  0  0  0  0  0  0  0  0  0
   -3.1659   -1.1101   -2.2081 H   0  0  0  0  0  0  0  0  0  0  0  0
   -2.3380    0.3248   -1.8984 H   0  0  0  0  0  0  0  0  0  0  0  0
   -5.1786   -0.6221   -1.4281 H   0  0  0  0  0  0  0  0  0  0  0  0
   -4.5820    0.9502   -1.8834 H   0  0  0  0  0  0  0  0  0  0  0  0
   -6.8021   -0.2068   -0.0922 H   0  0  0  0  0  0  0  0  0  0  0  0
   -6.5559    0.9494    1.2574 H   0  0  0  0  0  0  0  0  0  0  0  0
   -8.8221    2.0922   -1.4464 H   0  0  0  0  0  0  0  0  0  0  0  0
   -8.7432    2.0529    0.3278 H   0  0  0  0  0  0  0  0  0  0  0  0
   -3.8027    1.2412    1.8520 H   0  0  0  0  0  0  0  0  0  0  0  0
   -4.8795    2.3919    1.0760 H   0  0  0  0  0  0  0  0  0  0  0  0
   -3.3069    2.2680   -1.0137 H   0  0  0  0  0  0  0  0  0  0  0  0
   -2.8966    3.1440    0.3674 H   0  0  0  0  0  0  0  0  0  0  0  0
  1  2  1  0
  2  3  1  0
  2  4  1  0
  4  5  1  0
  5  6  1  0
  6  7  1  0
  7  8  1  0
  8  9  1  0
  9 10  2  0
 10 11  1  0
 11 12  2  0
 12 13  1  0
 13 14  2  0
 12 15  1  0
 15 16  1  0
 16 17  2  0
 17 18  1  0
 18 19  1  0
  4 20  1  0
 20 21  1  0
 21 22  1  0
 22 23  1  0
 23 24  1  0
 24 25  1  0
 20 26  1  0
 26 27  1  0
 27 28  1  0
 28 29  1  0
 29 30  1  0
 30 31  1  0
 30 32  2  0
 28 33  1  0
 33 34  1  0
 34  2  1  0
 14  9  1  0
 19 15  2  0
 25 20  1  0
  1 35  1  0
  1 36  1  0
  1 37  1  0
  3 38  1  0
  3 39  1  0
  3 40  1  0
  5 41  1  0
  5 42  1  0
  6 43  1  0
  6 44  1  0
  7 45  1  0
  7 46  1  0
 10 47  1  0
 11 48  1  0
 13 49  1  0
 14 50  1  0
 16 51  1  0
 17 52  1  0
 18 53  1  0
 19 54  1  0
 21 55  1  0
 21 56  1  0
 22 57  1  0
 22 58  1  0
 23 59  1  0
 24 60  1  0
 24 61  1  0
 25 62  1  0
 25 63  1  0
 26 64  1  0
 26 65  1  0
 27 66  1  0
 27 67  1  0
 29 68  1  0
 29 69  1  0
 31 70  1  0
 31 71  1  0
 33 72  1  0
 33 73  1  0
 34 74  1  0
 34 75  1  0
M  END
$$$$
[H]/C(C(=O)N1C([H])([H])C([H])([H])C([H])(Oc2c([H])c([H])c(C(C([H])([H])[H])(C([H])([H])[H])C([H])([H])C([H])([H])n3c([H])c([H])c(=O)n([H])c3=O)c([H])c2[H])C([H])([H])C1([H])[H])=C(/[H])c1nc([H])c([H])c([H])c1[H]
     RDKit          3D

 68 71  0  0  0  0  0  0  0  0999 V2000
   -5.0105   -1.2869   -0.6505 C   0  0  0  0  0  0  0  0  0  0  0  0
   -4.5896    0.1055   -1.0031 C   0  0  0  0  0  0  0  0  0  0  0  0
   -4.7860    0.2485   -2.5199 C   0  0  0  0  0  0  0  0  0  0  0  0
   -5.2273    1.1641   -0.2299 C   0  0  0  0  0  0  0  0  0  0  0  0
   -6.6460    1.4620   -0.1854 C   0  0  0  0  0  0  0  0  0  0  0  0
   -7.6146    0.5243    0.2818 N   0  0  0  0  0  0  0  0  0  0  0  0
   -7.7856    0.4054    1.6323 C   0  0  0  0  0  0  0  0  0  0  0  0
   -8.6676   -0.4618    2.1778 C   0  0  0  0  0  0  0  0  0  0  0  0
   -9.4310   -1.2651    1.3550 C   0  0  0  0  0  0  0  0  0  0  0  0
  -10.2440   -2.0656    1.8587 O   0  0  0  0  0  0  0  0  0  0  0  0
   -9.2611   -1.1449    0.0514 N   0  0  0  0  0  0  0  0  0  0  0  0
   -8.3700   -0.2660   -0.4622 C   0  0  0  0  0  0  0  0  0  0  0  0
   -8.2776   -0.2096   -1.7185 O   0  0  0  0  0  0  0  0  0  0  0  0
   -3.1030    0.2054   -0.7365 C   0  0  0  0  0  0  0  0  0  0  0  0
   -2.6517   -0.0747    0.5175 C   0  0  0  0  0  0  0  0  0  0  0  0
   -1.2855   -0.0071    0.7698 C   0  0  0  0  0  0  0  0  0  0  0  0
   -0.3937    0.3367   -0.2264 C   0  0  0  0  0  0  0  0  0  0  0  0
    0.9716    0.3835    0.0918 O   0  0  0  0  0  0  0  0  0  0  0  0
    1.9620    0.7649   -0.8216 C   0  0  0  0  0  0  0  0  0  0  0  0
    2.5236   -0.4944   -1.4450 C   0  0  0  0  0  0  0  0  0  0  0  0
    3.0343   -1.3736   -0.2893 C   0  0  0  0  0  0  0  0  0  0  0  0
    4.1528   -0.5774    0.2459 N   0  0  0  0  0  0  0  0  0  0  0  0
    3.8204    0.6929    0.8083 C   0  0  0  0  0  0  0  0  0  0  0  0
    3.0289    1.5468   -0.1496 C   0  0  0  0  0  0  0  0  0  0  0  0
    5.4390   -1.0900    0.1640 C   0  0  0  0  0  0  0  0  0  0  0  0
    5.6398   -2.2510   -0.2944 O   0  0  0  0  0  0  0  0  0  0  0  0
    6.6211   -0.3142    0.5961 C   0  0  0  0  0  0  0  0  0  0  0  0
    7.8194   -0.8334    0.4951 C   0  0  0  0  0  0  0  0  0  0  0  0
    9.0597   -0.1587    0.8865 C   0  0  0  0  0  0  0  0  0  0  0  0
   10.2753   -0.8121    0.7461 C   0  0  0  0  0  0  0  0  0  0  0  0
   11.4140   -0.1386    1.1191 C   0  0  0  0  0  0  0  0  0  0  0  0
   11.4083    1.1396    1.6213 C   0  0  0  0  0  0  0  0  0  0  0  0
   10.1496    1.7293    1.7326 C   0  0  0  0  0  0  0  0  0  0  0  0
    9.0393    1.0772    1.3699 N   0  0  0  0  0  0  0  0  0  0  0  0
   -0.8625    0.6129   -1.4700 C   0  0  0  0  0  0  0  0  0  0  0  0
   -2.2320    0.5459   -1.7225 C   0  0  0  0  0  0  0  0  0  0  0  0
   -5.5748   -1.3020    0.2855 H   0  0  0  0  0  0  0  0  0  0  0  0
   -4.0707   -1.8846   -0.4196 H   0  0  0  0  0  0  0  0  0  0  0  0
   -5.5441   -1.8074   -1.4938 H   0  0  0  0  0  0  0  0  0  0  0  0
   -5.7834   -0.0940   -2.8125 H   0  0  0  0  0  0  0  0  0  0  0  0
   -4.5124    1.2255   -2.8999 H   0  0  0  0  0  0  0  0  0  0  0  0
   -4.0862   -0.5123   -2.9818 H   0  0  0  0  0  0  0  0  0  0  0  0
   -4.8703    1.0171    0.8617 H   0  0  0  0  0  0  0  0  0  0  0  0
   -4.6411    2.1503   -0.4552 H   0  0  0  0  0  0  0  0  0  0  0  0
   -7.0588    1.8795   -1.1578 H   0  0  0  0  0  0  0  0  0  0  0  0
   -6.7769    2.3709    0.5139 H   0  0  0  0  0  0  0  0  0  0  0  0
   -7.1999    1.0264    2.3185 H   0  0  0  0  0  0  0  0  0  0  0  0
   -8.8161   -0.5672    3.2457 H   0  0  0  0  0  0  0  0  0  0  0  0
   -9.8131   -1.7280   -0.6182 H   0  0  0  0  0  0  0  0  0  0  0  0
   -3.3354   -0.3477    1.3268 H   0  0  0  0  0  0  0  0  0  0  0  0
   -0.9574   -0.2407    1.7887 H   0  0  0  0  0  0  0  0  0  0  0  0
    1.4952    1.3857   -1.6629 H   0  0  0  0  0  0  0  0  0  0  0  0
    1.7877   -1.0575   -2.0355 H   0  0  0  0  0  0  0  0  0  0  0  0
    3.4582   -0.2669   -2.0320 H   0  0  0  0  0  0  0  0  0  0  0  0
    2.2318   -1.5026    0.4261 H   0  0  0  0  0  0  0  0  0  0  0  0
    3.3547   -2.3094   -0.7247 H   0  0  0  0  0  0  0  0  0  0  0  0
    4.6572    1.2841    1.1685 H   0  0  0  0  0  0  0  0  0  0  0  0
    3.1601    0.5226    1.7153 H   0  0  0  0  0  0  0  0  0  0  0  0
    3.7388    2.0119   -0.8885 H   0  0  0  0  0  0  0  0  0  0  0  0
    2.5332    2.3483    0.4523 H   0  0  0  0  0  0  0  0  0  0  0  0
    6.5355    0.6735    0.9881 H   0  0  0  0  0  0  0  0  0  0  0  0
    7.8801   -1.8467    0.0815 H   0  0  0  0  0  0  0  0  0  0  0  0
   10.2781   -1.8091    0.3503 H   0  0  0  0  0  0  0  0  0  0  0  0
   12.3825   -0.6280    1.0256 H   0  0  0  0  0  0  0  0  0  0  0  0
   12.3011    1.6798    1.9150 H   0  0  0  0  0  0  0  0  0  0  0  0
   10.0889    2.7511    2.1269 H   0  0  0  0  0  0  0  0  0  0  0  0
   -0.1918    0.8816   -2.2865 H   0  0  0  0  0  0  0  0  0  0  0  0
   -2.5703    0.7752   -2.7178 H   0  0  0  0  0  0  0  0  0  0  0  0
  1  2  1  0
  2  3  1  0
  2  4  1  0
  4  5  1  0
  5  6  1  0
  6  7  1  0
  7  8  2  0
  8  9  1  0
  9 10  2  0
  9 11  1  0
 11 12  1  0
 12 13  2  0
  2 14  1  0
 14 15  2  0
 15 16  1  0
 16 17  2  0
 17 18  1  0
 18 19  1  0
 19 20  1  0
 20 21  1  0
 21 22  1  0
 22 23  1  0
 23 24  1  0
 22 25  1  0
 25 26  2  0
 25 27  1  0
 27 28  2  0
 28 29  1  0
 29 30  2  0
 30 31  1  0
 31 32  2  0
 32 33  1  0
 33 34  2  0
 17 35  1  0
 35 36  2  0
 12  6  1  0
 36 14  1  0
 24 19  1  0
 34 29  1  0
  1 37  1  0
  1 38  1  0
  1 39  1  0
  3 40  1  0
  3 41  1  0
  3 42  1  0
  4 43  1  0
  4 44  1  0
  5 45  1  0
  5 46  1  0
  7 47  1  0
  8 48  1  0
 11 49  1  0
 15 50  1  0
 16 51  1  0
 19 52  1  0
 20 53  1  0
 20 54  1  0
 21 55  1  0
 21 56  1  0
 23 57  1  0
 23 58  1  0
 24 59  1  0
 24 60  1  0
 27 61  1  0
 28 62  1  0
 30 63  1  0
 31 64  1  0
 32 65  1  0
 33 66  1  0
 35 67  1  0
 36 68  1  0
M  END
$$$$
[H]c1nc(N([H])c2c([H])c([H])c(F)c([H])c2[H])c2c([H])c(OC([H])([H])C([H])([H])C([H])([H])N3C([H])([H])C([H])([H])C([H])(C([H])([H])[H])C([H])([H])C3([H])[H])c(OC([H])([H])[H])c([H])c2n1
     RDKit          3D

 60 63  0  0  0  0  0  0  0  0999 V2000
   -1.1239   -6.4774    0.2686 C   0  0  0  0  0  0  0  0  0  0  0  0
   -0.7637   -5.1572    0.6962 O   0  0  0  0  0  0  0  0  0  0  0  0
   -1.4517   -4.0778    0.1734 C   0  0  0  0  0  0  0  0  0  0  0  0
   -2.4589   -4.2179   -0.7317 C   0  0  0  0  0  0  0  0  0  0  0  0
   -3.1478   -3.1311   -1.2549 C   0  0  0  0  0  0  0  0  0  0  0  0
   -4.1417   -3.3422   -2.1518 N   0  0  0  0  0  0  0  0  0  0  0  0
   -4.8076   -2.2892   -2.6547 C   0  0  0  0  0  0  0  0  0  0  0  0
   -4.4699   -1.0607   -2.2553 N   0  0  0  0  0  0  0  0  0  0  0  0
   -3.4852   -0.7866   -1.3617 C   0  0  0  0  0  0  0  0  0  0  0  0
   -3.1449    0.5170   -0.9958 N   0  0  0  0  0  0  0  0  0  0  0  0
   -3.7940    1.7118   -1.4319 C   0  0  0  0  0  0  0  0  0  0  0  0
   -3.0313    2.8943   -1.3859 C   0  0  0  0  0  0  0  0  0  0  0  0
   -3.5776    4.0962   -1.7640 C   0  0  0  0  0  0  0  0  0  0  0  0
   -4.8748    4.2193   -2.2018 C   0  0  0  0  0  0  0  0  0  0  0  0
   -5.3691    5.4200   -2.5637 F   0  0  0  0  0  0  0  0  0  0  0  0
   -5.6174    3.0670   -2.2459 C   0  0  0  0  0  0  0  0  0  0  0  0
   -5.0737    1.8298   -1.8623 C   0  0  0  0  0  0  0  0  0  0  0  0
   -2.7792   -1.8664   -0.8249 C   0  0  0  0  0  0  0  0  0  0  0  0
   -1.7599   -1.7326    0.0910 C   0  0  0  0  0  0  0  0  0  0  0  0
   -1.0712   -2.8242    0.6126 C   0  0  0  0  0  0  0  0  0  0  0  0
   -0.0780   -2.6252    1.5062 O   0  0  0  0  0  0  0  0  0  0  0  0
    0.5156   -1.5526    2.0828 C   0  0  0  0  0  0  0  0  0  0  0  0
    1.2505   -0.5893    1.1770 C   0  0  0  0  0  0  0  0  0  0  0  0
    1.8478    0.5560    1.9609 C   0  0  0  0  0  0  0  0  0  0  0  0
    2.5362    1.5230    1.2053 N   0  0  0  0  0  0  0  0  0  0  0  0
    3.1128    2.5938    1.9714 C   0  0  0  0  0  0  0  0  0  0  0  0
    4.5775    2.3661    2.2746 C   0  0  0  0  0  0  0  0  0  0  0  0
    5.3022    2.2591    0.9505 C   0  0  0  0  0  0  0  0  0  0  0  0
    6.7823    2.0817    1.1079 C   0  0  0  0  0  0  0  0  0  0  0  0
    4.7395    1.0464    0.2374 C   0  0  0  0  0  0  0  0  0  0  0  0
    3.2455    1.1522    0.0553 C   0  0  0  0  0  0  0  0  0  0  0  0
   -2.1002   -6.7530    0.7239 H   0  0  0  0  0  0  0  0  0  0  0  0
   -0.3755   -7.1935    0.6657 H   0  0  0  0  0  0  0  0  0  0  0  0
   -1.1919   -6.5407   -0.8222 H   0  0  0  0  0  0  0  0  0  0  0  0
   -2.7745   -5.1950   -1.0909 H   0  0  0  0  0  0  0  0  0  0  0  0
   -5.6080   -2.3768   -3.3700 H   0  0  0  0  0  0  0  0  0  0  0  0
   -2.3308    0.6602   -0.3312 H   0  0  0  0  0  0  0  0  0  0  0  0
   -2.0068    2.8511   -1.0498 H   0  0  0  0  0  0  0  0  0  0  0  0
   -2.9932    5.0265   -1.7329 H   0  0  0  0  0  0  0  0  0  0  0  0
   -6.6357    3.1108   -2.5806 H   0  0  0  0  0  0  0  0  0  0  0  0
   -5.7085    0.9597   -1.9004 H   0  0  0  0  0  0  0  0  0  0  0  0
   -1.4994   -0.7304    0.4299 H   0  0  0  0  0  0  0  0  0  0  0  0
    1.1608   -1.8133    2.9698 H   0  0  0  0  0  0  0  0  0  0  0  0
   -0.2983   -0.9218    2.5575 H   0  0  0  0  0  0  0  0  0  0  0  0
    0.7488   -0.2950    0.2744 H   0  0  0  0  0  0  0  0  0  0  0  0
    2.1632   -1.1881    0.8365 H   0  0  0  0  0  0  0  0  0  0  0  0
    2.4958    0.1428    2.7736 H   0  0  0  0  0  0  0  0  0  0  0  0
    0.9627    1.0712    2.4421 H   0  0  0  0  0  0  0  0  0  0  0  0
    2.5809    2.6783    2.9375 H   0  0  0  0  0  0  0  0  0  0  0  0
    3.0277    3.5779    1.4713 H   0  0  0  0  0  0  0  0  0  0  0  0
    4.7484    1.4348    2.8314 H   0  0  0  0  0  0  0  0  0  0  0  0
    4.9264    3.2290    2.8798 H   0  0  0  0  0  0  0  0  0  0  0  0
    5.1308    3.1663    0.3288 H   0  0  0  0  0  0  0  0  0  0  0  0
    7.3160    3.0711    1.0387 H   0  0  0  0  0  0  0  0  0  0  0  0
    7.0709    1.6547    2.0744 H   0  0  0  0  0  0  0  0  0  0  0  0
    7.2224    1.4701    0.2810 H   0  0  0  0  0  0  0  0  0  0  0  0
    5.2012    1.0113   -0.7642 H   0  0  0  0  0  0  0  0  0  0  0  0
    4.9520    0.1613    0.8640 H   0  0  0  0  0  0  0  0  0  0  0  0
    2.8790    0.2077   -0.3681 H   0  0  0  0  0  0  0  0  0  0  0  0
    3.0472    1.9197   -0.7540 H   0  0  0  0  0  0  0  0  0  0  0  0
  1  2  1  0
  2  3  1  0
  3  4  2  0
  4  5  1  0
  5  6  2  0
  6  7  1  0
  7  8  2  0
  8  9  1  0
  9 10  1  0
 10 11  1  0
 11 12  2  0
 12 13  1  0
 13 14  2  0
 14 15  1  0
 14 16  1  0
 16 17  2  0
  9 18  2  0
 18 19  1  0
 19 20  2  0
 20 21  1  0
 21 22  1  0
 22 23  1  0
 23 24  1  0
 24 25  1  0
 25 26  1  0
 26 27  1  0
 27 28  1  0
 28 29  1  0
 28 30  1  0
 30 31  1  0
 20  3  1  0
 31 25  1  0
 18  5  1  0
 17 11  1  0
  1 32  1  0
  1 33  1  0
  1 34  1  0
  4 35  1  0
  7 36  1  0
 10 37  1  0
 12 38  1  0
 13 39  1  0
 16 40  1  0
 17 41  1  0
 19 42  1  0
 22 43  1  0
 22 44  1  0
 23 45  1  0
 23 46  1  0
 24 47  1  0
 24 48  1  0
 26 49  1  0
 26 50  1  0
 27 51  1  0
 27 52  1  0
 28 53  1  0
 29 54  1  0
 29 55  1  0
 29 56  1  0
 30 57  1  0
 30 58  1  0
 31 59  1  0
 31 60  1  0
M  END
$$$$
[H]c1c([H])c([H])c(-c2nc(N([H])c3c([H])c([H])c([H])c([H])c3[H])nc(C3([H])C(=O)C([H])([H])C([H])([H])C([H])([H])N3C([H])([H])C([H])([H])C([H])([H])c3c([H])c([H])c([H])c([H])c3[H])n2)c([H])c1[H]
     RDKit          3D

 64 68  0  0  0  0  0  0  0  0999 V2000
   -0.5972    2.8977    2.0938 O   0  0  0  0  0  0  0  0  0  0  0  0
    0.4482    2.2949    2.1707 C   0  0  0  0  0  0  0  0  0  0  0  0
    1.5686    2.8633    2.9513 C   0  0  0  0  0  0  0  0  0  0  0  0
    2.8414    2.4174    2.2692 C   0  0  0  0  0  0  0  0  0  0  0  0
    2.6341    2.1131    0.8202 C   0  0  0  0  0  0  0  0  0  0  0  0
    1.6668    1.1789    0.4632 N   0  0  0  0  0  0  0  0  0  0  0  0
    1.9505   -0.0475   -0.1633 C   0  0  0  0  0  0  0  0  0  0  0  0
    2.5263   -1.1831    0.5285 C   0  0  0  0  0  0  0  0  0  0  0  0
    3.8914   -1.2051    1.0793 C   0  0  0  0  0  0  0  0  0  0  0  0
    5.0112   -1.1243    0.1431 C   0  0  0  0  0  0  0  0  0  0  0  0
    5.3811   -2.2935   -0.5480 C   0  0  0  0  0  0  0  0  0  0  0  0
    6.4440   -2.3353   -1.4144 C   0  0  0  0  0  0  0  0  0  0  0  0
    7.1941   -1.2014   -1.6324 C   0  0  0  0  0  0  0  0  0  0  0  0
    6.8595   -0.0587   -0.9769 C   0  0  0  0  0  0  0  0  0  0  0  0
    5.7802   -0.0364   -0.1039 C   0  0  0  0  0  0  0  0  0  0  0  0
    0.6290    0.9969    1.4990 C   0  0  0  0  0  0  0  0  0  0  0  0
   -0.6759    0.6251    0.8421 C   0  0  0  0  0  0  0  0  0  0  0  0
   -1.2307   -0.5452    1.1402 N   0  0  0  0  0  0  0  0  0  0  0  0
   -2.4432   -0.9244    0.5739 C   0  0  0  0  0  0  0  0  0  0  0  0
   -2.9208   -2.1782    0.9570 N   0  0  0  0  0  0  0  0  0  0  0  0
   -4.0939   -2.8069    0.5469 C   0  0  0  0  0  0  0  0  0  0  0  0
   -4.3484   -4.1042    1.0263 C   0  0  0  0  0  0  0  0  0  0  0  0
   -5.4780   -4.7970    0.6722 C   0  0  0  0  0  0  0  0  0  0  0  0
   -6.4130   -4.2431   -0.1725 C   0  0  0  0  0  0  0  0  0  0  0  0
   -6.1757   -2.9777   -0.6471 C   0  0  0  0  0  0  0  0  0  0  0  0
   -5.0312   -2.2704   -0.2912 C   0  0  0  0  0  0  0  0  0  0  0  0
   -2.9913   -0.0621   -0.2583 N   0  0  0  0  0  0  0  0  0  0  0  0
   -2.4704    1.1224   -0.5846 C   0  0  0  0  0  0  0  0  0  0  0  0
   -1.2858    1.4584   -0.0136 N   0  0  0  0  0  0  0  0  0  0  0  0
   -3.1498    2.0369   -1.5003 C   0  0  0  0  0  0  0  0  0  0  0  0
   -2.6182    3.2700   -1.8047 C   0  0  0  0  0  0  0  0  0  0  0  0
   -3.2664    4.1310   -2.6539 C   0  0  0  0  0  0  0  0  0  0  0  0
   -4.4720    3.8210   -3.2467 C   0  0  0  0  0  0  0  0  0  0  0  0
   -4.9985    2.5728   -2.9327 C   0  0  0  0  0  0  0  0  0  0  0  0
   -4.3529    1.6916   -2.0748 C   0  0  0  0  0  0  0  0  0  0  0  0
    1.5774    2.4686    3.9828 H   0  0  0  0  0  0  0  0  0  0  0  0
    1.4964    3.9656    3.0504 H   0  0  0  0  0  0  0  0  0  0  0  0
    3.5173    3.3248    2.2931 H   0  0  0  0  0  0  0  0  0  0  0  0
    3.3994    1.6506    2.8254 H   0  0  0  0  0  0  0  0  0  0  0  0
    3.6128    2.0413    0.3283 H   0  0  0  0  0  0  0  0  0  0  0  0
    2.2528    3.1333    0.3815 H   0  0  0  0  0  0  0  0  0  0  0  0
    0.9684   -0.4059   -0.6381 H   0  0  0  0  0  0  0  0  0  0  0  0
    2.5344    0.2270   -1.1111 H   0  0  0  0  0  0  0  0  0  0  0  0
    1.8383   -1.5590    1.3718 H   0  0  0  0  0  0  0  0  0  0  0  0
    2.4840   -2.1228   -0.1659 H   0  0  0  0  0  0  0  0  0  0  0  0
    3.9825   -0.4249    1.8770 H   0  0  0  0  0  0  0  0  0  0  0  0
    4.0222   -2.1693    1.6862 H   0  0  0  0  0  0  0  0  0  0  0  0
    4.7963   -3.1960   -0.3871 H   0  0  0  0  0  0  0  0  0  0  0  0
    6.7393   -3.2219   -1.9524 H   0  0  0  0  0  0  0  0  0  0  0  0
    8.0423   -1.2214   -2.3188 H   0  0  0  0  0  0  0  0  0  0  0  0
    7.4394    0.8329   -1.1388 H   0  0  0  0  0  0  0  0  0  0  0  0
    5.5718    0.8787    0.3964 H   0  0  0  0  0  0  0  0  0  0  0  0
    0.8986    0.2237    2.2188 H   0  0  0  0  0  0  0  0  0  0  0  0
   -2.3292   -2.7530    1.6622 H   0  0  0  0  0  0  0  0  0  0  0  0
   -3.6519   -4.5920    1.6911 H   0  0  0  0  0  0  0  0  0  0  0  0
   -5.6434   -5.8033    1.0666 H   0  0  0  0  0  0  0  0  0  0  0  0
   -7.2836   -4.8290   -0.4161 H   0  0  0  0  0  0  0  0  0  0  0  0
   -6.9021   -2.5335   -1.3101 H   0  0  0  0  0  0  0  0  0  0  0  0
   -4.9401   -1.2854   -0.7128 H   0  0  0  0  0  0  0  0  0  0  0  0
   -1.6809    3.5775   -1.3727 H   0  0  0  0  0  0  0  0  0  0  0  0
   -2.8289    5.1089   -2.8803 H   0  0  0  0  0  0  0  0  0  0  0  0
   -4.9606    4.5178   -3.9099 H   0  0  0  0  0  0  0  0  0  0  0  0
   -5.9483    2.3301   -3.4003 H   0  0  0  0  0  0  0  0  0  0  0  0
   -4.8177    0.7396   -1.8753 H   0  0  0  0  0  0  0  0  0  0  0  0
  1  2  2  0
  2  3  1  0
  3  4  1  0
  4  5  1  0
  5  6  1  0
  6  7  1  0
  7  8  1  0
  8  9  1  0
  9 10  1  0
 10 11  2  0
 11 12  1  0
 12 13  2  0
 13 14  1  0
 14 15  2  0
  6 16  1  0
 16 17  1  0
 17 18  2  0
 18 19  1  0
 19 20  1  0
 20 21  1  0
 21 22  2  0
 22 23  1  0
 23 24  2  0
 24 25  1  0
 25 26  2  0
 19 27  2  0
 27 28  1  0
 28 29  2  0
 28 30  1  0
 30 31  2  0
 31 32  1  0
 32 33  2  0
 33 34  1  0
 34 35  2  0
 16  2  1  0
 29 17  1  0
 35 30  1  0
 15 10  1  0
 26 21  1  0
  3 36  1  0
  3 37  1  0
  4 38  1  0
  4 39  1  0
  5 40  1  0
  5 41  1  0
  7 42  1  0
  7 43  1  0
  8 44  1  0
  8 45  1  0
  9 46  1  0
  9 47  1  0
 11 48  1  0
 12 49  1  0
 13 50  1  0
 14 51  1  0
 15 52  1  0
 16 53  1  0
 20 54  1  0
 22 55  1  0
 23 56  1  0
 24 57  1  0
 25 58  1  0
 26 59  1  0
 31 60  1  0
 32 61  1  0
 33 62  1  0
 34 63  1  0
 35 64  1  0
M  END
$$$$
[H]c1nc(C([H])(c2c([H])c([H])c(C([H])([H])N([H])C(=O)c3sc(N4C([H])([H])C([H])([H])OC([H])([H])C4([H])[H])nc3C([H])([H])[H])c([H])c2Cl)N([H])[H])c([H])c([H])c1C(F)(F)F
     RDKit          3D

 58 61  0  0  0  0  0  0  0  0999 V2000
    4.3765    2.9885   -1.0826 N   0  0  0  0  0  0  0  0  0  0  0  0
    4.5236    1.9855   -0.0433 C   0  0  0  0  0  0  0  0  0  0  0  0
    3.4914    0.9242   -0.1058 C   0  0  0  0  0  0  0  0  0  0  0  0
    2.6706    0.6603    1.0007 C   0  0  0  0  0  0  0  0  0  0  0  0
    1.7111   -0.3610    0.9715 C   0  0  0  0  0  0  0  0  0  0  0  0
    1.5281   -1.1405   -0.1233 C   0  0  0  0  0  0  0  0  0  0  0  0
    0.5664   -2.2624   -0.2976 C   0  0  0  0  0  0  0  0  0  0  0  0
   -0.7724   -1.7659   -0.6766 N   0  0  0  0  0  0  0  0  0  0  0  0
   -1.8332   -1.7752    0.2007 C   0  0  0  0  0  0  0  0  0  0  0  0
   -1.5809   -2.3144    1.3842 O   0  0  0  0  0  0  0  0  0  0  0  0
   -3.2013   -1.3051    0.0294 C   0  0  0  0  0  0  0  0  0  0  0  0
   -4.5382   -1.6666    1.1239 S   0  0  0  0  0  0  0  0  0  0  0  0
   -5.7510   -0.7556    0.3709 C   0  0  0  0  0  0  0  0  0  0  0  0
   -5.1154   -0.2270   -0.6447 N   0  0  0  0  0  0  0  0  0  0  0  0
   -3.8446   -0.4785   -0.8436 C   0  0  0  0  0  0  0  0  0  0  0  0
   -3.1383    0.2195   -2.0042 C   0  0  0  0  0  0  0  0  0  0  0  0
   -7.1309   -0.5906    0.7031 N   0  0  0  0  0  0  0  0  0  0  0  0
   -8.1302   -1.5539    0.2940 C   0  0  0  0  0  0  0  0  0  0  0  0
   -9.0969   -0.7440   -0.5858 C   0  0  0  0  0  0  0  0  0  0  0  0
   -9.5623    0.2879    0.1987 O   0  0  0  0  0  0  0  0  0  0  0  0
   -8.6247    1.2285    0.5561 C   0  0  0  0  0  0  0  0  0  0  0  0
   -7.5615    0.5739    1.4343 C   0  0  0  0  0  0  0  0  0  0  0  0
    2.3619   -0.8685   -1.2384 C   0  0  0  0  0  0  0  0  0  0  0  0
    3.3049    0.1345   -1.2156 C   0  0  0  0  0  0  0  0  0  0  0  0
    4.2548    0.4295   -2.6831 Cl  0  0  0  0  0  0  0  0  0  0  0  0
    5.9155    1.4702    0.0196 C   0  0  0  0  0  0  0  0  0  0  0  0
    6.5130    1.1042    1.1974 C   0  0  0  0  0  0  0  0  0  0  0  0
    7.8195    0.6200    1.2657 C   0  0  0  0  0  0  0  0  0  0  0  0
    8.5723    0.4907    0.1273 C   0  0  0  0  0  0  0  0  0  0  0  0
    7.9470    0.8681   -1.0657 C   0  0  0  0  0  0  0  0  0  0  0  0
    6.7001    1.3237   -1.0844 N   0  0  0  0  0  0  0  0  0  0  0  0
    9.9551   -0.0352    0.0674 C   0  0  0  0  0  0  0  0  0  0  0  0
   10.4164   -0.4362    1.2888 F   0  0  0  0  0  0  0  0  0  0  0  0
    9.9889   -1.1602   -0.7627 F   0  0  0  0  0  0  0  0  0  0  0  0
   10.8631    0.8591   -0.4644 F   0  0  0  0  0  0  0  0  0  0  0  0
    5.1719    3.0350   -1.7457 H   0  0  0  0  0  0  0  0  0  0  0  0
    3.4356    2.8782   -1.5044 H   0  0  0  0  0  0  0  0  0  0  0  0
    4.3069    2.5810    0.9121 H   0  0  0  0  0  0  0  0  0  0  0  0
    2.7902    1.2665    1.8756 H   0  0  0  0  0  0  0  0  0  0  0  0
    1.0897   -0.5351    1.8544 H   0  0  0  0  0  0  0  0  0  0  0  0
    0.9142   -2.9593   -1.0498 H   0  0  0  0  0  0  0  0  0  0  0  0
    0.4784   -2.8332    0.6651 H   0  0  0  0  0  0  0  0  0  0  0  0
   -0.8433   -1.4225   -1.6761 H   0  0  0  0  0  0  0  0  0  0  0  0
   -3.5945    1.2760   -2.0848 H   0  0  0  0  0  0  0  0  0  0  0  0
   -3.3119   -0.2572   -2.9547 H   0  0  0  0  0  0  0  0  0  0  0  0
   -2.0828    0.3742   -1.7857 H   0  0  0  0  0  0  0  0  0  0  0  0
   -8.6338   -2.0222    1.1440 H   0  0  0  0  0  0  0  0  0  0  0  0
   -7.6577   -2.3148   -0.3411 H   0  0  0  0  0  0  0  0  0  0  0  0
   -8.4759   -0.4037   -1.4643 H   0  0  0  0  0  0  0  0  0  0  0  0
   -9.9275   -1.3347   -0.9690 H   0  0  0  0  0  0  0  0  0  0  0  0
   -9.1732    1.9636    1.2119 H   0  0  0  0  0  0  0  0  0  0  0  0
   -8.1671    1.7244   -0.3184 H   0  0  0  0  0  0  0  0  0  0  0  0
   -8.1056    0.1719    2.3376 H   0  0  0  0  0  0  0  0  0  0  0  0
   -6.7403    1.2615    1.6978 H   0  0  0  0  0  0  0  0  0  0  0  0
    2.2256   -1.4939   -2.1047 H   0  0  0  0  0  0  0  0  0  0  0  0
    5.9131    1.2094    2.1103 H   0  0  0  0  0  0  0  0  0  0  0  0
    8.2409    0.3526    2.2093 H   0  0  0  0  0  0  0  0  0  0  0  0
    8.5485    0.7546   -1.9723 H   0  0  0  0  0  0  0  0  0  0  0  0
  1  2  1  0
  2  3  1  0
  3  4  2  0
  4  5  1  0
  5  6  2  0
  6  7  1  0
  7  8  1  0
  8  9  1  0
  9 10  2  0
  9 11  1  0
 11 12  1  0
 12 13  1  0
 13 14  2  0
 14 15  1  0
 15 16  1  0
 13 17  1  0
 17 18  1  0
 18 19  1  0
 19 20  1  0
 20 21  1  0
 21 22  1  0
  6 23  1  0
 23 24  2  0
 24 25  1  0
  2 26  1  0
 26 27  2  0
 27 28  1  0
 28 29  2  0
 29 30  1  0
 30 31  2  0
 29 32  1  0
 32 33  1  0
 32 34  1  0
 32 35  1  0
 24  3  1  0
 31 26  1  0
 15 11  2  0
 22 17  1  0
  1 36  1  0
  1 37  1  0
  2 38  1  0
  4 39  1  0
  5 40  1  0
  7 41  1  0
  7 42  1  0
  8 43  1  0
 16 44  1  0
 16 45  1  0
 16 46  1  0
 18 47  1  0
 18 48  1  0
 19 49  1  0
 19 50  1  0
 21 51  1  0
 21 52  1  0
 22 53  1  0
 22 54  1  0
 23 55  1  0
 27 56  1  0
 28 57  1  0
 30 58  1  0
M  END
$$$$
[H]c1nc2c([H])c(c1[H])-c1c([H])c(N([H])C(=O)c3c([H])c([H])c(F)c([H])c3[H])nn1C([H])([H])[C@@]([H])(C([H])([H])[H])N([H])C2=O
     RDKit          2D

 43 46  0  0  0  0  0  0  0  0999 V2000
   -4.4434    3.3559    0.0000 C   0  0  0  0  0  0  0  0  0  0  0  0
   -3.1273    2.6363    0.0000 C   0  0  0  0  0  0  0  0  0  0  0  0
   -2.8154    4.1036    0.0000 N   0  0  0  0  0  0  0  0  0  0  0  0
   -1.6334    5.0270    0.0000 C   0  0  0  0  0  0  0  0  0  0  0  0
   -2.0969    6.4536    0.0000 O   0  0  0  0  0  0  0  0  0  0  0  0
   -0.1343    4.9747    0.0000 C   0  0  0  0  0  0  0  0  0  0  0  0
    0.9804    3.9710    0.0000 C   0  0  0  0  0  0  0  0  0  0  0  0
    1.1892    2.4856    0.0000 C   0  0  0  0  0  0  0  0  0  0  0  0
    2.4098    3.3849    0.0000 C   0  0  0  0  0  0  0  0  0  0  0  0
    2.4622    4.8840    0.0000 C   0  0  0  0  0  0  0  0  0  0  0  0
    1.1901    5.6789    0.0000 N   0  0  0  0  0  0  0  0  0  0  0  0
    0.3943    1.2135    0.0000 C   0  0  0  0  0  0  0  0  0  0  0  0
    1.2760    0.0000    0.0000 C   0  0  0  0  0  0  0  0  0  0  0  0
    0.3943   -1.2135    0.0000 C   0  0  0  0  0  0  0  0  0  0  0  0
    0.8578   -2.6401    0.0000 N   0  0  0  0  0  0  0  0  0  0  0  0
   -0.1459   -3.7548    0.0000 C   0  0  0  0  0  0  0  0  0  0  0  0
   -1.6131   -3.4430    0.0000 O   0  0  0  0  0  0  0  0  0  0  0  0
    0.3177   -5.1814    0.0000 C   0  0  0  0  0  0  0  0  0  0  0  0
   -0.6860   -6.2961    0.0000 C   0  0  0  0  0  0  0  0  0  0  0  0
   -0.2225   -7.7227    0.0000 C   0  0  0  0  0  0  0  0  0  0  0  0
    1.2447   -8.0346    0.0000 C   0  0  0  0  0  0  0  0  0  0  0  0
    1.7082   -9.4612    0.0000 F   0  0  0  0  0  0  0  0  0  0  0  0
    2.2484   -6.9199    0.0000 C   0  0  0  0  0  0  0  0  0  0  0  0
    1.7849   -5.4933    0.0000 C   0  0  0  0  0  0  0  0  0  0  0  0
   -1.0323   -0.7500    0.0000 N   0  0  0  0  0  0  0  0  0  0  0  0
   -1.0323    0.7500    0.0000 N   0  0  0  0  0  0  0  0  0  0  0  0
   -2.4231    1.3119    0.0000 C   0  0  0  0  0  0  0  0  0  0  0  0
   -5.7595    4.0755    0.0000 H   0  0  0  0  0  0  0  0  0  0  0  0
   -5.0910    2.1714    0.0000 H   0  0  0  0  0  0  0  0  0  0  0  0
   -4.1164    4.1791    0.0000 H   0  0  0  0  0  0  0  0  0  0  0  0
   -4.1959    1.8114    0.0000 H   0  0  0  0  0  0  0  0  0  0  0  0
   -3.4349    4.6052    0.0000 H   0  0  0  0  0  0  0  0  0  0  0  0
    2.0951    4.9748    0.0000 H   0  0  0  0  0  0  0  0  0  0  0  0
    3.6819    2.5901    0.0000 H   0  0  0  0  0  0  0  0  0  0  0  0
    3.7866    5.5882    0.0000 H   0  0  0  0  0  0  0  0  0  0  0  0
    2.7760    0.0000    0.0000 H   0  0  0  0  0  0  0  0  0  0  0  0
    2.3250   -2.9520    0.0000 H   0  0  0  0  0  0  0  0  0  0  0  0
   -2.1533   -5.9843    0.0000 H   0  0  0  0  0  0  0  0  0  0  0  0
   -1.2262   -8.8374    0.0000 H   0  0  0  0  0  0  0  0  0  0  0  0
    3.7156   -7.2317    0.0000 H   0  0  0  0  0  0  0  0  0  0  0  0
    2.7886   -4.3786    0.0000 H   0  0  0  0  0  0  0  0  0  0  0  0
   -3.8469    0.8401    0.0000 H   0  0  0  0  0  0  0  0  0  0  0  0
   -2.5625   -0.1816    0.0000 H   0  0  0  0  0  0  0  0  0  0  0  0
  1  2  1  0
  2  3  1  0
  3  4  1  0
  4  5  2  0
  4  6  1  0
  6  7  2  0
  7  8  1  0
  8  9  2  0
  9 10  1  0
 10 11  2  0
  8 12  1  0
 12 13  2  0
 13 14  1  0
 14 15  1  0
 15 16  1  0
 16 17  2  0
 16 18  1  0
 18 19  2  0
 19 20  1  0
 20 21  2  0
 21 22  1  0
 21 23  1  0
 23 24  2  0
 14 25  2  0
 25 26  1  0
 26 27  1  0
 27  2  1  0
 11  6  1  0
 26 12  1  0
 24 18  1  0
  1 28  1  0
  1 29  1  0
  1 30  1  0
  2 31  1  6
  3 32  1  0
  7 33  1  0
  9 34  1  0
 10 35  1  0
 13 36  1  0
 15 37  1  0
 19 38  1  0
 20 39  1  0
 23 40  1  0
 24 41  1  0
 27 42  1  0
 27 43  1  0
M  END
$$$$
[H]c1c(-c2c([H])c([H])c(OC([H])([H])[H])c([H])c2[H])nc(-c2c(C([H])([H])[H])c(C([H])([H])[H])c([H])c([H])c2C([H])([H])C(=O)N([H])C([H])([H])[H])nc1C([H])([H])C([H])(C([H])([H])[H])C([H])([H])[H]
     RDKit          3D

 62 64  0  0  0  0  0  0  0  0999 V2000
    4.6970    5.8694    1.3711 C   0  0  0  0  0  0  0  0  0  0  0  0
    3.3275    5.6731    1.1363 O   0  0  0  0  0  0  0  0  0  0  0  0
    2.7652    4.3951    1.0527 C   0  0  0  0  0  0  0  0  0  0  0  0
    1.4176    4.2614    0.8208 C   0  0  0  0  0  0  0  0  0  0  0  0
    0.8478    2.9912    0.7358 C   0  0  0  0  0  0  0  0  0  0  0  0
    1.5943    1.8416    0.8773 C   0  0  0  0  0  0  0  0  0  0  0  0
    2.9389    1.9926    1.1086 C   0  0  0  0  0  0  0  0  0  0  0  0
    3.5251    3.2592    1.1965 C   0  0  0  0  0  0  0  0  0  0  0  0
    0.9578    0.5198    0.7809 C   0  0  0  0  0  0  0  0  0  0  0  0
    1.6491   -0.6567    0.9203 C   0  0  0  0  0  0  0  0  0  0  0  0
    1.0187   -1.8977    0.8260 C   0  0  0  0  0  0  0  0  0  0  0  0
    1.8424   -3.1151    0.9896 C   0  0  0  0  0  0  0  0  0  0  0  0
    2.4137   -3.6379   -0.2859 C   0  0  0  0  0  0  0  0  0  0  0  0
    1.3800   -4.0105   -1.3050 C   0  0  0  0  0  0  0  0  0  0  0  0
    3.4022   -2.7006   -0.9172 C   0  0  0  0  0  0  0  0  0  0  0  0
   -0.2870   -1.8967    0.5943 N   0  0  0  0  0  0  0  0  0  0  0  0
   -1.0180   -0.7459    0.4481 C   0  0  0  0  0  0  0  0  0  0  0  0
   -0.3687    0.4170    0.5468 N   0  0  0  0  0  0  0  0  0  0  0  0
   -2.4310   -0.9314    0.2229 C   0  0  0  0  0  0  0  0  0  0  0  0
   -2.9260   -1.1912   -1.0254 C   0  0  0  0  0  0  0  0  0  0  0  0
   -2.0044   -1.2232   -2.1801 C   0  0  0  0  0  0  0  0  0  0  0  0
   -1.7761    0.1594   -2.6605 C   0  0  0  0  0  0  0  0  0  0  0  0
   -2.3748    1.1633   -2.1519 O   0  0  0  0  0  0  0  0  0  0  0  0
   -0.8679    0.4476   -3.7263 N   0  0  0  0  0  0  0  0  0  0  0  0
   -0.6255    1.7788   -4.2150 C   0  0  0  0  0  0  0  0  0  0  0  0
   -4.3076   -1.3982   -1.2094 C   0  0  0  0  0  0  0  0  0  0  0  0
   -5.1496   -1.3339   -0.1178 C   0  0  0  0  0  0  0  0  0  0  0  0
   -4.6793   -1.0728    1.1517 C   0  0  0  0  0  0  0  0  0  0  0  0
   -5.5975   -1.0044    2.3264 C   0  0  0  0  0  0  0  0  0  0  0  0
   -3.3249   -0.8757    1.2999 C   0  0  0  0  0  0  0  0  0  0  0  0
   -2.7396   -0.5891    2.6436 C   0  0  0  0  0  0  0  0  0  0  0  0
    4.9666    5.6863    2.4482 H   0  0  0  0  0  0  0  0  0  0  0  0
    5.3029    5.2407    0.7008 H   0  0  0  0  0  0  0  0  0  0  0  0
    4.9390    6.9230    1.1718 H   0  0  0  0  0  0  0  0  0  0  0  0
    0.8299    5.1526    0.7096 H   0  0  0  0  0  0  0  0  0  0  0  0
   -0.2098    2.9451    0.5531 H   0  0  0  0  0  0  0  0  0  0  0  0
    3.5981    1.1565    1.2319 H   0  0  0  0  0  0  0  0  0  0  0  0
    4.5835    3.3638    1.3784 H   0  0  0  0  0  0  0  0  0  0  0  0
    2.7015   -0.6387    1.1084 H   0  0  0  0  0  0  0  0  0  0  0  0
    1.2442   -3.9249    1.4729 H   0  0  0  0  0  0  0  0  0  0  0  0
    2.7032   -2.9503    1.6906 H   0  0  0  0  0  0  0  0  0  0  0  0
    2.9801   -4.5905   -0.0637 H   0  0  0  0  0  0  0  0  0  0  0  0
    1.1459   -3.1118   -1.9067 H   0  0  0  0  0  0  0  0  0  0  0  0
    1.8562   -4.7308   -2.0146 H   0  0  0  0  0  0  0  0  0  0  0  0
    0.4990   -4.5222   -0.8947 H   0  0  0  0  0  0  0  0  0  0  0  0
    2.9022   -1.9489   -1.5613 H   0  0  0  0  0  0  0  0  0  0  0  0
    3.9978   -2.2295   -0.1175 H   0  0  0  0  0  0  0  0  0  0  0  0
    4.1258   -3.3078   -1.5148 H   0  0  0  0  0  0  0  0  0  0  0  0
   -1.0125   -1.6457   -1.9216 H   0  0  0  0  0  0  0  0  0  0  0  0
   -2.4231   -1.7998   -3.0312 H   0  0  0  0  0  0  0  0  0  0  0  0
   -0.3679   -0.3530   -4.1571 H   0  0  0  0  0  0  0  0  0  0  0  0
    0.4340    2.0893   -4.1137 H   0  0  0  0  0  0  0  0  0  0  0  0
   -1.2615    2.5396   -3.7222 H   0  0  0  0  0  0  0  0  0  0  0  0
   -0.8599    1.8789   -5.3162 H   0  0  0  0  0  0  0  0  0  0  0  0
   -4.6740   -1.6035   -2.2092 H   0  0  0  0  0  0  0  0  0  0  0  0
   -6.2001   -1.4937   -0.2771 H   0  0  0  0  0  0  0  0  0  0  0  0
   -5.5066   -0.0415    2.8546 H   0  0  0  0  0  0  0  0  0  0  0  0
   -5.3134   -1.8131    3.0576 H   0  0  0  0  0  0  0  0  0  0  0  0
   -6.6281   -1.1420    1.9946 H   0  0  0  0  0  0  0  0  0  0  0  0
   -1.8805   -1.3095    2.7589 H   0  0  0  0  0  0  0  0  0  0  0  0
   -2.2872    0.4198    2.6639 H   0  0  0  0  0  0  0  0  0  0  0  0
   -3.4848   -0.7268    3.4387 H   0  0  0  0  0  0  0  0  0  0  0  0
  1  2  1  0
  2  3  1  0
  3  4  2  0
  4  5  1  0
  5  6  2  0
  6  7  1  0
  7  8  2  0
  6  9  1  0
  9 10  2  0
 10 11  1  0
 11 12  1  0
 12 13  1  0
 13 14  1  0
 13 15  1  0
 11 16  2  0
 16 17  1  0
 17 18  2  0
 17 19  1  0
 19 20  2  0
 20 21  1  0
 21 22  1  0
 22 23  2  0
 22 24  1  0
 24 25  1  0
 20 26  1  0
 26 27  2  0
 27 28  1  0
 28 29  1  0
 28 30  2  0
 30 31  1  0
  8  3  1  0
 18  9  1  0
 30 19  1  0
  1 32  1  0
  1 33  1  0
  1 34  1  0
  4 35  1  0
  5 36  1  0
  7 37  1  0
  8 38  1  0
 10 39  1  0
 12 40  1  0
 12 41  1  0
 13 42  1  0
 14 43  1  0
 14 44  1  0
 14 45  1  0
 15 46  1  0
 15 47  1  0
 15 48  1  0
 21 49  1  0
 21 50  1  0
 24 51  1  0
 25 52  1  0
 25 53  1  0
 25 54  1  0
 26 55  1  0
 27 56  1  0
 29 57  1  0
 29 58  1  0
 29 59  1  0
 31 60  1  0
 31 61  1  0
 31 62  1  0
M  END
$$$$
[H]c1c([H])c([H])c2c(c1[H])-c1oc3c(c1[H])C(=O)[C@@]([H])(S3)[C@@]([H])(C(=O)N1C([H])([H])C([H])([H])N(C([H])([H])[H])C([H])([H])C1([H])[H])C2([H])[H]
     RDKit          2D

 46 50  0  0  0  0  0  0  0  0999 V2000
   -1.1302    8.0131    0.0000 C   0  0  0  0  0  0  0  0  0  0  0  0
   -1.4250    6.5423    0.0000 N   0  0  0  0  0  0  0  0  0  0  0  0
   -0.2987    5.5516    0.0000 C   0  0  0  0  0  0  0  0  0  0  0  0
   -0.5935    4.0809    0.0000 C   0  0  0  0  0  0  0  0  0  0  0  0
   -2.0146    3.6008    0.0000 N   0  0  0  0  0  0  0  0  0  0  0  0
   -3.1409    4.5915    0.0000 C   0  0  0  0  0  0  0  0  0  0  0  0
   -2.8461    6.0622    0.0000 C   0  0  0  0  0  0  0  0  0  0  0  0
   -2.3093    2.1301    0.0000 C   0  0  0  0  0  0  0  0  0  0  0  0
   -3.4992    1.8844    0.0000 O   0  0  0  0  0  0  0  0  0  0  0  0
   -0.2698    0.7779    0.0000 C   0  0  0  0  0  0  0  0  0  0  0  0
    0.3943    1.2135    0.0000 C   0  0  0  0  0  0  0  0  0  0  0  0
    1.2760    0.0000    0.0000 S   0  0  0  0  0  0  0  0  0  0  0  0
    0.3943   -1.2135    0.0000 C   0  0  0  0  0  0  0  0  0  0  0  0
    0.3943   -2.7135    0.0000 O   0  0  0  0  0  0  0  0  0  0  0  0
   -1.0323   -3.1771    0.0000 C   0  0  0  0  0  0  0  0  0  0  0  0
   -1.2140   -1.9635    0.0000 C   0  0  0  0  0  0  0  0  0  0  0  0
   -1.0323   -0.7500    0.0000 C   0  0  0  0  0  0  0  0  0  0  0  0
   -1.0323    0.7500    0.0000 C   0  0  0  0  0  0  0  0  0  0  0  0
   -2.0950    1.3390    0.0000 O   0  0  0  0  0  0  0  0  0  0  0  0
   -2.3567   -2.4728    0.0000 C   0  0  0  0  0  0  0  0  0  0  0  0
   -3.2802   -3.6549    0.0000 C   0  0  0  0  0  0  0  0  0  0  0  0
   -4.7656   -3.4461    0.0000 C   0  0  0  0  0  0  0  0  0  0  0  0
   -5.3275   -2.0553    0.0000 C   0  0  0  0  0  0  0  0  0  0  0  0
   -4.4040   -0.8733    0.0000 C   0  0  0  0  0  0  0  0  0  0  0  0
   -2.9186   -1.0821    0.0000 C   0  0  0  0  0  0  0  0  0  0  0  0
   -1.9401   -0.7855    0.0000 C   0  0  0  0  0  0  0  0  0  0  0  0
   -0.8355    9.4838    0.0000 H   0  0  0  0  0  0  0  0  0  0  0  0
    0.3655    7.8998    0.0000 H   0  0  0  0  0  0  0  0  0  0  0  0
   -2.5541    8.4849    0.0000 H   0  0  0  0  0  0  0  0  0  0  0  0
    0.6317    6.7282    0.0000 H   0  0  0  0  0  0  0  0  0  0  0  0
    1.0985    5.0060    0.0000 H   0  0  0  0  0  0  0  0  0  0  0  0
    0.9061    4.0460    0.0000 H   0  0  0  0  0  0  0  0  0  0  0  0
   -0.2982    3.0280    0.0000 H   0  0  0  0  0  0  0  0  0  0  0  0
   -3.9209    3.3102    0.0000 H   0  0  0  0  0  0  0  0  0  0  0  0
   -4.5381    5.1372    0.0000 H   0  0  0  0  0  0  0  0  0  0  0  0
   -4.3457    6.0971    0.0000 H   0  0  0  0  0  0  0  0  0  0  0  0
   -3.2512    7.5065    0.0000 H   0  0  0  0  0  0  0  0  0  0  0  0
   -0.3615    1.9721    0.0000 H   0  0  0  0  0  0  0  0  0  0  0  0
    0.8578    2.6401    0.0000 H   0  0  0  0  0  0  0  0  0  0  0  0
   -3.4140   -1.9635    0.0000 H   0  0  0  0  0  0  0  0  0  0  0  0
   -2.7183   -5.0456    0.0000 H   0  0  0  0  0  0  0  0  0  0  0  0
   -5.6891   -4.6281    0.0000 H   0  0  0  0  0  0  0  0  0  0  0  0
   -6.8129   -1.8466    0.0000 H   0  0  0  0  0  0  0  0  0  0  0  0
   -4.9659    0.5175    0.0000 H   0  0  0  0  0  0  0  0  0  0  0  0
   -3.9547    0.3794    0.0000 H   0  0  0  0  0  0  0  0  0  0  0  0
   -3.1911    1.0135    0.0000 H   0  0  0  0  0  0  0  0  0  0  0  0
  1  2  1  0
  2  3  1  0
  3  4  1  0
  4  5  1  0
  5  6  1  0
  6  7  1  0
  5  8  1  0
  8  9  2  0
  8 10  1  0
 10 11  1  0
 11 12  1  0
 12 13  1  0
 13 14  1  0
 14 15  1  0
 15 16  2  0
 16 17  1  0
 17 18  1  0
 18 19  2  0
 15 20  1  0
 20 21  2  0
 21 22  1  0
 22 23  2  0
 23 24  1  0
 24 25  2  0
 25 26  1  0
  7  2  1  0
 26 10  1  0
 18 11  1  0
 25 20  1  0
 17 13  2  0
  1 27  1  0
  1 28  1  0
  1 29  1  0
  3 30  1  0
  3 31  1  0
  4 32  1  0
  4 33  1  0
  6 34  1  0
  6 35  1  0
  7 36  1  0
  7 37  1  0
 10 38  1  1
 11 39  1  6
 16 40  1  0
 21 41  1  0
 22 42  1  0
 23 43  1  0
 24 44  1  0
 26 45  1  0
 26 46  1  0
M  END
$$$$
[H]C1=C(C(C([H])([H])[H])(C([H])([H])[H])C([H])([H])OC([H])([H])[H])C(=O)N([C@]([H])(c2c([H])c([H])c([H])c([H])c2[H])C([H])([H])[H])C([H])([H])C([H])([H])C1=NN(C(=O)N(C([H])([H])[H])C([H])([H])[H])c1c([H])c([H])c(Cl)c([H])c1[H]
     RDKit          3D

 71 73  0  0  0  0  0  0  0  0999 V2000
   -1.0476   -5.6038   -2.7989 C   0  0  0  0  0  0  0  0  0  0  0  0
   -1.9181   -4.5715   -2.6774 O   0  0  0  0  0  0  0  0  0  0  0  0
   -1.5304   -3.4000   -2.1610 C   0  0  0  0  0  0  0  0  0  0  0  0
   -1.1032   -3.3610   -0.7492 C   0  0  0  0  0  0  0  0  0  0  0  0
    0.0718   -4.2211   -0.4531 C   0  0  0  0  0  0  0  0  0  0  0  0
   -2.2544   -3.8755    0.1298 C   0  0  0  0  0  0  0  0  0  0  0  0
   -0.7831   -1.9398   -0.3251 C   0  0  0  0  0  0  0  0  0  0  0  0
    0.4843   -1.5823   -0.2080 C   0  0  0  0  0  0  0  0  0  0  0  0
    1.1035   -0.3111    0.1797 C   0  0  0  0  0  0  0  0  0  0  0  0
    2.3979   -0.3301    0.0794 N   0  0  0  0  0  0  0  0  0  0  0  0
    3.2415    0.7150    0.3789 N   0  0  0  0  0  0  0  0  0  0  0  0
    3.7095    1.6131   -0.5854 C   0  0  0  0  0  0  0  0  0  0  0  0
    4.4533    2.5878   -0.1563 O   0  0  0  0  0  0  0  0  0  0  0  0
    3.4736    1.5888   -1.9593 N   0  0  0  0  0  0  0  0  0  0  0  0
    2.7057    0.6022   -2.6630 C   0  0  0  0  0  0  0  0  0  0  0  0
    4.0394    2.6604   -2.8199 C   0  0  0  0  0  0  0  0  0  0  0  0
    3.6616    0.8993    1.7416 C   0  0  0  0  0  0  0  0  0  0  0  0
    3.4491    2.0807    2.3832 C   0  0  0  0  0  0  0  0  0  0  0  0
    3.8554    2.2368    3.6978 C   0  0  0  0  0  0  0  0  0  0  0  0
    4.4737    1.2011    4.3588 C   0  0  0  0  0  0  0  0  0  0  0  0
    4.9690    1.4553    6.0334 Cl  0  0  0  0  0  0  0  0  0  0  0  0
    4.6807    0.0241    3.7069 C   0  0  0  0  0  0  0  0  0  0  0  0
    4.2746   -0.1327    2.3914 C   0  0  0  0  0  0  0  0  0  0  0  0
    0.4894    0.9406    0.6381 C   0  0  0  0  0  0  0  0  0  0  0  0
   -0.8219    1.2851    0.0232 C   0  0  0  0  0  0  0  0  0  0  0  0
   -1.8889    0.3724    0.2389 N   0  0  0  0  0  0  0  0  0  0  0  0
   -3.1032    0.8241    0.8903 C   0  0  1  0  0  0  0  0  0  0  0  0
   -2.6744    1.0658    2.3590 C   0  0  0  0  0  0  0  0  0  0  0  0
   -3.6783    2.0371    0.3168 C   0  0  0  0  0  0  0  0  0  0  0  0
   -3.7678    2.2994   -1.0287 C   0  0  0  0  0  0  0  0  0  0  0  0
   -4.3340    3.4835   -1.4348 C   0  0  0  0  0  0  0  0  0  0  0  0
   -4.8133    4.4129   -0.5379 C   0  0  0  0  0  0  0  0  0  0  0  0
   -4.7260    4.1544    0.8192 C   0  0  0  0  0  0  0  0  0  0  0  0
   -4.1615    2.9751    1.2023 C   0  0  0  0  0  0  0  0  0  0  0  0
   -1.9154   -1.0217   -0.1390 C   0  0  0  0  0  0  0  0  0  0  0  0
   -3.0235   -1.5211   -0.3341 O   0  0  0  0  0  0  0  0  0  0  0  0
   -0.1317   -5.3232   -3.4034 H   0  0  0  0  0  0  0  0  0  0  0  0
   -1.5041   -6.3976   -3.5273 H   0  0  0  0  0  0  0  0  0  0  0  0
   -0.8070   -6.2116   -1.9325 H   0  0  0  0  0  0  0  0  0  0  0  0
   -0.6641   -3.0404   -2.8448 H   0  0  0  0  0  0  0  0  0  0  0  0
   -2.2934   -2.5896   -2.3947 H   0  0  0  0  0  0  0  0  0  0  0  0
    0.7707   -4.3595   -1.2731 H   0  0  0  0  0  0  0  0  0  0  0  0
   -0.2885   -5.2241   -0.0295 H   0  0  0  0  0  0  0  0  0  0  0  0
    0.5701   -3.8014    0.4937 H   0  0  0  0  0  0  0  0  0  0  0  0
   -3.2078   -3.9439   -0.4317 H   0  0  0  0  0  0  0  0  0  0  0  0
   -2.0119   -4.9419    0.3782 H   0  0  0  0  0  0  0  0  0  0  0  0
   -2.3123   -3.3650    1.0978 H   0  0  0  0  0  0  0  0  0  0  0  0
    1.2081   -2.3575   -0.4725 H   0  0  0  0  0  0  0  0  0  0  0  0
    2.9300    0.6297   -3.7742 H   0  0  0  0  0  0  0  0  0  0  0  0
    1.6294    0.8358   -2.6163 H   0  0  0  0  0  0  0  0  0  0  0  0
    2.9648   -0.4266   -2.3517 H   0  0  0  0  0  0  0  0  0  0  0  0
    5.0683    2.8140   -2.3854 H   0  0  0  0  0  0  0  0  0  0  0  0
    3.4239    3.5699   -2.7787 H   0  0  0  0  0  0  0  0  0  0  0  0
    4.2001    2.2531   -3.8160 H   0  0  0  0  0  0  0  0  0  0  0  0
    2.9621    2.9370    1.9075 H   0  0  0  0  0  0  0  0  0  0  0  0
    3.6951    3.1569    4.2166 H   0  0  0  0  0  0  0  0  0  0  0  0
    5.1623   -0.7804    4.2226 H   0  0  0  0  0  0  0  0  0  0  0  0
    4.4702   -1.0875    1.9386 H   0  0  0  0  0  0  0  0  0  0  0  0
    0.4972    1.0276    1.7481 H   0  0  0  0  0  0  0  0  0  0  0  0
    1.1943    1.7614    0.3074 H   0  0  0  0  0  0  0  0  0  0  0  0
   -1.1260    2.2759    0.4447 H   0  0  0  0  0  0  0  0  0  0  0  0
   -0.6450    1.4019   -1.0728 H   0  0  0  0  0  0  0  0  0  0  0  0
   -3.8484    0.0305    0.9606 H   0  0  0  0  0  0  0  0  0  0  0  0
   -2.0739    1.9756    2.4378 H   0  0  0  0  0  0  0  0  0  0  0  0
   -3.5294    1.0052    3.0395 H   0  0  0  0  0  0  0  0  0  0  0  0
   -2.0108    0.2091    2.6146 H   0  0  0  0  0  0  0  0  0  0  0  0
   -3.3873    1.5634   -1.7497 H   0  0  0  0  0  0  0  0  0  0  0  0
   -4.4134    3.7130   -2.4896 H   0  0  0  0  0  0  0  0  0  0  0  0
   -5.2671    5.3599   -0.8205 H   0  0  0  0  0  0  0  0  0  0  0  0
   -5.1008    4.8777    1.5257 H   0  0  0  0  0  0  0  0  0  0  0  0
   -4.1126    2.8093    2.2934 H   0  0  0  0  0  0  0  0  0  0  0  0
  1  2  1  0
  2  3  1  0
  3  4  1  0
  4  5  1  0
  4  6  1  0
  4  7  1  0
  7  8  2  0
  8  9  1  0
  9 10  2  3
 10 11  1  0
 11 12  1  0
 12 13  2  0
 12 14  1  0
 14 15  1  0
 14 16  1  0
 11 17  1  0
 17 18  2  0
 18 19  1  0
 19 20  2  0
 20 21  1  0
 20 22  1  0
 22 23  2  0
  9 24  1  0
 24 25  1  0
 25 26  1  0
 26 27  1  0
 27 28  1  0
 27 29  1  0
 29 30  2  0
 30 31  1  0
 31 32  2  0
 32 33  1  0
 33 34  2  0
 26 35  1  0
 35 36  2  0
 35  7  1  0
 23 17  1  0
 34 29  1  0
  1 37  1  0
  1 38  1  0
  1 39  1  0
  3 40  1  0
  3 41  1  0
  5 42  1  0
  5 43  1  0
  5 44  1  0
  6 45  1  0
  6 46  1  0
  6 47  1  0
  8 48  1  0
 15 49  1  0
 15 50  1  0
 15 51  1  0
 16 52  1  0
 16 53  1  0
 16 54  1  0
 18 55  1  0
 19 56  1  0
 22 57  1  0
 23 58  1  0
 24 59  1  0
 24 60  1  0
 25 61  1  0
 25 62  1  0
 27 63  1  1
 28 64  1  0
 28 65  1  0
 28 66  1  0
 30 67  1  0
 31 68  1  0
 32 69  1  0
 33 70  1  0
 34 71  1  0
M  END
$$$$
[H]OC(=O)C(N([H])C(=O)c1c([H])c([H])c(OC([H])([H])[H])c([H])c1[H])(C([H])([H])[H])C([H])([H])[H]
     RDKit          3D

 32 32  0  0  0  0  0  0  0  0999 V2000
    5.7261   -0.5286   -0.1903 C   0  0  0  0  0  0  0  0  0  0  0  0
    4.9801    0.6746    0.0262 O   0  0  0  0  0  0  0  0  0  0  0  0
    3.5853    0.6409    0.0474 C   0  0  0  0  0  0  0  0  0  0  0  0
    2.9324    1.8341    0.2604 C   0  0  0  0  0  0  0  0  0  0  0  0
    1.5605    1.8307    0.2863 C   0  0  0  0  0  0  0  0  0  0  0  0
    0.8428    0.6664    0.1045 C   0  0  0  0  0  0  0  0  0  0  0  0
    1.5079   -0.5184   -0.1072 C   0  0  0  0  0  0  0  0  0  0  0  0
    2.9072   -0.5415   -0.1381 C   0  0  0  0  0  0  0  0  0  0  0  0
   -0.6053    0.6593    0.1314 C   0  0  0  0  0  0  0  0  0  0  0  0
   -1.1803    1.7826    0.3357 O   0  0  0  0  0  0  0  0  0  0  0  0
   -1.4167   -0.4835   -0.0494 N   0  0  0  0  0  0  0  0  0  0  0  0
   -2.8508   -0.4172   -0.0105 C   0  0  0  0  0  0  0  0  0  0  0  0
   -3.3676    0.0986    1.3188 C   0  0  0  0  0  0  0  0  0  0  0  0
   -3.2993    0.5695   -1.0663 C   0  0  0  0  0  0  0  0  0  0  0  0
   -3.4389   -1.7519   -0.2078 C   0  0  0  0  0  0  0  0  0  0  0  0
   -4.7908   -2.0137   -0.2220 O   0  0  0  0  0  0  0  0  0  0  0  0
   -2.6615   -2.7246   -0.3756 O   0  0  0  0  0  0  0  0  0  0  0  0
    5.4154   -0.9852   -1.1530 H   0  0  0  0  0  0  0  0  0  0  0  0
    5.5146   -1.1748    0.6822 H   0  0  0  0  0  0  0  0  0  0  0  0
    6.7912   -0.2212   -0.2356 H   0  0  0  0  0  0  0  0  0  0  0  0
    3.4469    2.7820    0.4097 H   0  0  0  0  0  0  0  0  0  0  0  0
    0.9801    2.7486    0.4516 H   0  0  0  0  0  0  0  0  0  0  0  0
    1.0259   -1.4732   -0.2583 H   0  0  0  0  0  0  0  0  0  0  0  0
    3.4707   -1.4383   -0.2996 H   0  0  0  0  0  0  0  0  0  0  0  0
   -0.9614   -1.3940   -0.2145 H   0  0  0  0  0  0  0  0  0  0  0  0
   -3.4225    1.2157    1.2899 H   0  0  0  0  0  0  0  0  0  0  0  0
   -4.4230   -0.2430    1.3941 H   0  0  0  0  0  0  0  0  0  0  0  0
   -2.8068   -0.2890    2.1764 H   0  0  0  0  0  0  0  0  0  0  0  0
   -4.2279    0.2023   -1.5651 H   0  0  0  0  0  0  0  0  0  0  0  0
   -2.5263    0.5670   -1.8606 H   0  0  0  0  0  0  0  0  0  0  0  0
   -3.4032    1.5982   -0.6963 H   0  0  0  0  0  0  0  0  0  0  0  0
   -5.3047   -1.6723   -1.0482 H   0  0  0  0  0  0  0  0  0  0  0  0
  1  2  1  0
  2  3  1  0
  3  4  2  0
  4  5  1  0
  5  6  2  0
  6  7  1  0
  7  8  2  0
  6  9  1  0
  9 10  2  0
  9 11  1  0
 11 12  1  0
 12 13  1  0
 12 14  1  0
 12 15  1  0
 15 16  1  0
 15 17  2  0
  8  3  1  0
  1 18  1  0
  1 19  1  0
  1 20  1  0
  4 21  1  0
  5 22  1  0
  7 23  1  0
  8 24  1  0
 11 25  1  0
 13 26  1  0
 13 27  1  0
 13 28  1  0
 14 29  1  0
 14 30  1  0
 14 31  1  0
 16 32  1  0
M  END
$$$$
[H]c1nc([H])c2c(-c3c([H])c([H])c([H])c(C([H])([H])[H])c3[H])c([H])c(-c3nn(C([H])([H])[H])c4c3C([H])([H])C([H])([H])C4([H])[H])nc2c1[H]
     RDKit          3D

 46 50  0  0  0  0  0  0  0  0999 V2000
    5.6961   -1.7310    1.0015 C   0  0  0  0  0  0  0  0  0  0  0  0
    4.5340   -1.5829    0.0527 C   0  0  0  0  0  0  0  0  0  0  0  0
    4.4034   -2.3900   -1.0488 C   0  0  0  0  0  0  0  0  0  0  0  0
    3.3369   -2.2391   -1.9013 C   0  0  0  0  0  0  0  0  0  0  0  0
    2.3771   -1.2734   -1.6661 C   0  0  0  0  0  0  0  0  0  0  0  0
    2.4698   -0.4253   -0.5518 C   0  0  0  0  0  0  0  0  0  0  0  0
    3.5625   -0.6354    0.2546 C   0  0  0  0  0  0  0  0  0  0  0  0
    1.4185    0.5532   -0.3083 C   0  0  0  0  0  0  0  0  0  0  0  0
    0.0941    0.1385   -0.1654 C   0  0  0  0  0  0  0  0  0  0  0  0
   -0.8855    1.0581    0.1007 C   0  0  0  0  0  0  0  0  0  0  0  0
   -0.5736    2.3779    0.2268 N   0  0  0  0  0  0  0  0  0  0  0  0
    0.6704    2.8150    0.0979 C   0  0  0  0  0  0  0  0  0  0  0  0
    0.9046    4.1699    0.2293 C   0  0  0  0  0  0  0  0  0  0  0  0
    2.2015    4.5993    0.0795 C   0  0  0  0  0  0  0  0  0  0  0  0
    3.1752    3.7308   -0.1811 N   0  0  0  0  0  0  0  0  0  0  0  0
    2.9505    2.3993   -0.3108 C   0  0  0  0  0  0  0  0  0  0  0  0
    1.6814    1.8926   -0.1736 C   0  0  0  0  0  0  0  0  0  0  0  0
   -2.2863    0.6633    0.2592 C   0  0  0  0  0  0  0  0  0  0  0  0
   -3.3038    1.5269    0.5256 N   0  0  0  0  0  0  0  0  0  0  0  0
   -4.4561    0.8947    0.6159 N   0  0  0  0  0  0  0  0  0  0  0  0
   -5.7146    1.5620    0.8927 C   0  0  0  0  0  0  0  0  0  0  0  0
   -4.2257   -0.4285    0.4075 C   0  0  0  0  0  0  0  0  0  0  0  0
   -4.9367   -1.7438    0.3435 C   0  0  0  0  0  0  0  0  0  0  0  0
   -3.8814   -2.7037   -0.1379 C   0  0  0  0  0  0  0  0  0  0  0  0
   -2.5565   -2.0119   -0.0536 C   0  0  0  0  0  0  0  0  0  0  0  0
   -2.8797   -0.5778    0.1853 C   0  0  0  0  0  0  0  0  0  0  0  0
    6.2583   -2.6153    0.7038 H   0  0  0  0  0  0  0  0  0  0  0  0
    5.2769   -1.7875    2.0299 H   0  0  0  0  0  0  0  0  0  0  0  0
    6.3067   -0.7861    0.9882 H   0  0  0  0  0  0  0  0  0  0  0  0
    5.1484   -3.1401   -1.2320 H   0  0  0  0  0  0  0  0  0  0  0  0
    3.2684   -2.8935   -2.7582 H   0  0  0  0  0  0  0  0  0  0  0  0
    1.5544   -1.1607   -2.3282 H   0  0  0  0  0  0  0  0  0  0  0  0
    3.6709    0.0073    1.1361 H   0  0  0  0  0  0  0  0  0  0  0  0
   -0.1617   -0.8908   -0.2611 H   0  0  0  0  0  0  0  0  0  0  0  0
    0.0821    4.8503    0.4426 H   0  0  0  0  0  0  0  0  0  0  0  0
    2.3711    5.6655    0.1855 H   0  0  0  0  0  0  0  0  0  0  0  0
    3.7628    1.7394   -0.5343 H   0  0  0  0  0  0  0  0  0  0  0  0
   -5.8554    1.7119    1.9998 H   0  0  0  0  0  0  0  0  0  0  0  0
   -5.7392    2.5846    0.4538 H   0  0  0  0  0  0  0  0  0  0  0  0
   -6.5763    1.0222    0.4503 H   0  0  0  0  0  0  0  0  0  0  0  0
   -5.3192   -2.0257    1.3583 H   0  0  0  0  0  0  0  0  0  0  0  0
   -5.7830   -1.6856   -0.3721 H   0  0  0  0  0  0  0  0  0  0  0  0
   -3.8995   -3.6627    0.4403 H   0  0  0  0  0  0  0  0  0  0  0  0
   -4.1241   -2.9657   -1.1992 H   0  0  0  0  0  0  0  0  0  0  0  0
   -2.0362   -2.1429   -1.0485 H   0  0  0  0  0  0  0  0  0  0  0  0
   -1.9816   -2.4635    0.7711 H   0  0  0  0  0  0  0  0  0  0  0  0
  1  2  1  0
  2  3  2  0
  3  4  1  0
  4  5  2  0
  5  6  1  0
  6  7  2  0
  6  8  1  0
  8  9  2  0
  9 10  1  0
 10 11  2  0
 11 12  1  0
 12 13  2  0
 13 14  1  0
 14 15  2  0
 15 16  1  0
 16 17  2  0
 10 18  1  0
 18 19  2  0
 19 20  1  0
 20 21  1  0
 20 22  1  0
 22 23  1  0
 23 24  1  0
 24 25  1  0
 25 26  1  0
  7  2  1  0
 17  8  1  0
 26 18  1  0
 17 12  1  0
 26 22  2  0
  1 27  1  0
  1 28  1  0
  1 29  1  0
  3 30  1  0
  4 31  1  0
  5 32  1  0
  7 33  1  0
  9 34  1  0
 13 35  1  0
 14 36  1  0
 16 37  1  0
 21 38  1  0
 21 39  1  0
 21 40  1  0
 23 41  1  0
 23 42  1  0
 24 43  1  0
 24 44  1  0
 25 45  1  0
 25 46  1  0
M  END
$$$$
[H]c1c([H])c([H])c2c(c1[H])c(C([H])([H])[H])c([H])n2[H]
     RDKit          3D

 19 20  0  0  0  0  0  0  0  0999 V2000
   -2.2612   -1.4964   -0.2749 C   0  0  0  0  0  0  0  0  0  0  0  0
   -1.3895   -0.2823   -0.2717 C   0  0  0  0  0  0  0  0  0  0  0  0
   -1.7538    1.0170   -0.5536 C   0  0  0  0  0  0  0  0  0  0  0  0
   -0.6801    1.8166   -0.4417 N   0  0  0  0  0  0  0  0  0  0  0  0
    0.4209    1.0930   -0.0873 C   0  0  0  0  0  0  0  0  0  0  0  0
    1.7262    1.4399    0.1458 C   0  0  0  0  0  0  0  0  0  0  0  0
    2.6311    0.4761    0.4945 C   0  0  0  0  0  0  0  0  0  0  0  0
    2.1914   -0.8356    0.6015 C   0  0  0  0  0  0  0  0  0  0  0  0
    0.8889   -1.1740    0.3677 C   0  0  0  0  0  0  0  0  0  0  0  0
   -0.0412   -0.2067    0.0130 C   0  0  0  0  0  0  0  0  0  0  0  0
   -2.8558   -1.5836   -1.1987 H   0  0  0  0  0  0  0  0  0  0  0  0
   -2.9734   -1.3877    0.5951 H   0  0  0  0  0  0  0  0  0  0  0  0
   -1.6603   -2.3878   -0.0496 H   0  0  0  0  0  0  0  0  0  0  0  0
   -2.7600    1.3016   -0.8191 H   0  0  0  0  0  0  0  0  0  0  0  0
   -0.6233    2.8514   -0.5900 H   0  0  0  0  0  0  0  0  0  0  0  0
    2.0500    2.4559    0.0592 H   0  0  0  0  0  0  0  0  0  0  0  0
    3.6936    0.7163    0.6908 H   0  0  0  0  0  0  0  0  0  0  0  0
    2.8920   -1.6196    0.8773 H   0  0  0  0  0  0  0  0  0  0  0  0
    0.5046   -2.1942    0.4417 H   0  0  0  0  0  0  0  0  0  0  0  0
  1  2  1  0
  2  3  2  0
  3  4  1  0
  4  5  1  0
  5  6  2  0
  6  7  1  0
  7  8  2  0
  8  9  1  0
  9 10  2  0
 10  2  1  0
 10  5  1  0
  1 11  1  0
  1 12  1  0
  1 13  1  0
  3 14  1  0
  4 15  1  0
  6 16  1  0
  7 17  1  0
  8 18  1  0
  9 19  1  0
M  END
$$$$
[H]c1nc(-c2c([H])c([H])c3c([H])c([H])c(N([H])c4nc5nc([H])c([H])c([H])c5n4C([H])([H])C([H])([H])C([H])([H])[H])c([H])c3c2[H])c([H])c([H])c1[H]
     RDKit          3D

 50 54  0  0  0  0  0  0  0  0999 V2000
   -4.6799   -2.8111   -1.8820 C   0  0  0  0  0  0  0  0  0  0  0  0
   -4.4189   -1.8310   -0.7554 C   0  0  0  0  0  0  0  0  0  0  0  0
   -4.0377   -0.4684   -1.3179 C   0  0  0  0  0  0  0  0  0  0  0  0
   -3.7944    0.4457   -0.2335 N   0  0  0  0  0  0  0  0  0  0  0  0
   -2.5668    0.6199    0.3483 C   0  0  0  0  0  0  0  0  0  0  0  0
   -1.3725   -0.0479   -0.0391 N   0  0  0  0  0  0  0  0  0  0  0  0
   -0.1514    0.1388    0.6191 C   0  0  0  0  0  0  0  0  0  0  0  0
   -0.0351    0.5932    1.8913 C   0  0  0  0  0  0  0  0  0  0  0  0
    1.2453    0.7626    2.4323 C   0  0  0  0  0  0  0  0  0  0  0  0
    2.3792    0.4859    1.7250 C   0  0  0  0  0  0  0  0  0  0  0  0
    3.6483    0.6645    2.2916 C   0  0  0  0  0  0  0  0  0  0  0  0
    4.7334    0.3596    1.5038 C   0  0  0  0  0  0  0  0  0  0  0  0
    4.6359   -0.1078    0.1991 C   0  0  0  0  0  0  0  0  0  0  0  0
    3.3672   -0.2762   -0.3391 C   0  0  0  0  0  0  0  0  0  0  0  0
    2.2502    0.0254    0.4377 C   0  0  0  0  0  0  0  0  0  0  0  0
    1.0199   -0.1479   -0.1125 C   0  0  0  0  0  0  0  0  0  0  0  0
    5.8658   -0.3871   -0.5096 C   0  0  0  0  0  0  0  0  0  0  0  0
    5.8625   -0.8512   -1.7999 C   0  0  0  0  0  0  0  0  0  0  0  0
    7.0565   -1.1165   -2.4718 C   0  0  0  0  0  0  0  0  0  0  0  0
    8.2268   -0.8940   -1.7889 C   0  0  0  0  0  0  0  0  0  0  0  0
    8.2290   -0.4241   -0.4824 C   0  0  0  0  0  0  0  0  0  0  0  0
    7.0503   -0.1964    0.0857 N   0  0  0  0  0  0  0  0  0  0  0  0
   -2.7676    1.5402    1.2966 N   0  0  0  0  0  0  0  0  0  0  0  0
   -4.0504    1.9245    1.3114 C   0  0  0  0  0  0  0  0  0  0  0  0
   -4.7619    2.8121    2.0614 N   0  0  0  0  0  0  0  0  0  0  0  0
   -6.0763    3.0248    1.8775 C   0  0  0  0  0  0  0  0  0  0  0  0
   -6.7874    2.3462    0.9051 C   0  0  0  0  0  0  0  0  0  0  0  0
   -6.0751    1.4457    0.1413 C   0  0  0  0  0  0  0  0  0  0  0  0
   -4.7191    1.2260    0.3307 C   0  0  0  0  0  0  0  0  0  0  0  0
   -5.1419   -2.2527   -2.7330 H   0  0  0  0  0  0  0  0  0  0  0  0
   -5.4810   -3.5390   -1.5622 H   0  0  0  0  0  0  0  0  0  0  0  0
   -3.7511   -3.3247   -2.1747 H   0  0  0  0  0  0  0  0  0  0  0  0
   -5.3323   -1.7803   -0.1551 H   0  0  0  0  0  0  0  0  0  0  0  0
   -3.6141   -2.2038   -0.0806 H   0  0  0  0  0  0  0  0  0  0  0  0
   -4.8676   -0.1158   -1.9655 H   0  0  0  0  0  0  0  0  0  0  0  0
   -3.1437   -0.5619   -1.9477 H   0  0  0  0  0  0  0  0  0  0  0  0
   -1.4283   -0.7257   -0.8767 H   0  0  0  0  0  0  0  0  0  0  0  0
   -0.8575    0.8253    2.5448 H   0  0  0  0  0  0  0  0  0  0  0  0
    1.3503    1.1299    3.4592 H   0  0  0  0  0  0  0  0  0  0  0  0
    3.7457    1.0287    3.3096 H   0  0  0  0  0  0  0  0  0  0  0  0
    5.7185    0.4935    1.9303 H   0  0  0  0  0  0  0  0  0  0  0  0
    3.2839   -0.6356   -1.3427 H   0  0  0  0  0  0  0  0  0  0  0  0
    0.9069   -0.5078   -1.1192 H   0  0  0  0  0  0  0  0  0  0  0  0
    4.9699   -1.0286   -2.3423 H   0  0  0  0  0  0  0  0  0  0  0  0
    7.0801   -1.4829   -3.4890 H   0  0  0  0  0  0  0  0  0  0  0  0
    9.1763   -1.0784   -2.2490 H   0  0  0  0  0  0  0  0  0  0  0  0
    9.1332   -0.2507    0.0494 H   0  0  0  0  0  0  0  0  0  0  0  0
   -6.5987    3.7398    2.4977 H   0  0  0  0  0  0  0  0  0  0  0  0
   -7.8505    2.5330    0.7726 H   0  0  0  0  0  0  0  0  0  0  0  0
   -6.5739    0.8826   -0.6366 H   0  0  0  0  0  0  0  0  0  0  0  0
  1  2  1  0
  2  3  1  0
  3  4  1  0
  4  5  1  0
  5  6  1  0
  6  7  1  0
  7  8  2  0
  8  9  1  0
  9 10  2  0
 10 11  1  0
 11 12  2  0
 12 13  1  0
 13 14  2  0
 14 15  1  0
 15 16  2  0
 13 17  1  0
 17 18  2  0
 18 19  1  0
 19 20  2  0
 20 21  1  0
 21 22  2  0
  5 23  2  0
 23 24  1  0
 24 25  2  0
 25 26  1  0
 26 27  2  0
 27 28  1  0
 28 29  2  0
 29  4  1  0
 16  7  1  0
 22 17  1  0
 29 24  1  0
 15 10  1  0
  1 30  1  0
  1 31  1  0
  1 32  1  0
  2 33  1  0
  2 34  1  0
  3 35  1  0
  3 36  1  0
  6 37  1  0
  8 38  1  0
  9 39  1  0
 11 40  1  0
 12 41  1  0
 14 42  1  0
 16 43  1  0
 18 44  1  0
 19 45  1  0
 20 46  1  0
 21 47  1  0
 26 48  1  0
 27 49  1  0
 28 50  1  0
M  END
$$$$
[H]OC(=O)C([H])(C(=O)C([H])([H])[H])N([H])C#Cc1c([H])c([H])c(-c2nc([H])c([H])n2[H])c(N([H])C([H])([H])C([H])([H])N2C([H])([H])C([H])([H])OC([H])([H])C2([H])[H])c1[H]
     RDKit          3D

 55 57  0  0  0  0  0  0  0  0999 V2000
   -6.9193    2.5203   -0.6955 O   0  0  0  0  0  0  0  0  0  0  0  0
   -5.5484    2.5306   -0.5786 C   0  0  0  0  0  0  0  0  0  0  0  0
   -5.0020    2.2252    0.4961 O   0  0  0  0  0  0  0  0  0  0  0  0
   -4.7331    2.9085   -1.7431 C   0  0  0  0  0  0  0  0  0  0  0  0
   -3.3123    2.8750   -1.4697 N   0  0  0  0  0  0  0  0  0  0  0  0
   -2.6061    1.7408   -1.0686 C   0  0  0  0  0  0  0  0  0  0  0  0
   -2.0064    0.7530   -0.7202 C   0  0  0  0  0  0  0  0  0  0  0  0
   -1.2692   -0.4232   -0.2836 C   0  0  0  0  0  0  0  0  0  0  0  0
   -1.8390   -1.3728    0.5285 C   0  0  0  0  0  0  0  0  0  0  0  0
   -1.1742   -2.4838    0.9571 C   0  0  0  0  0  0  0  0  0  0  0  0
    0.1558   -2.6955    0.5675 C   0  0  0  0  0  0  0  0  0  0  0  0
    0.7291   -1.7565   -0.2410 C   0  0  0  0  0  0  0  0  0  0  0  0
    2.0680   -1.8876   -0.7524 N   0  0  0  0  0  0  0  0  0  0  0  0
    2.7561   -0.8528   -1.4511 C   0  0  0  0  0  0  0  0  0  0  0  0
    3.2599    0.3179   -0.7010 C   0  0  0  0  0  0  0  0  0  0  0  0
    4.2577    0.1354    0.2835 N   0  0  0  0  0  0  0  0  0  0  0  0
    3.8246   -0.5378    1.4506 C   0  0  0  0  0  0  0  0  0  0  0  0
    2.8215    0.3106    2.2549 C   0  0  0  0  0  0  0  0  0  0  0  0
    3.4285    1.4866    2.6201 O   0  0  0  0  0  0  0  0  0  0  0  0
    4.6856    1.6979    2.1181 C   0  0  0  0  0  0  0  0  0  0  0  0
    4.8124    1.4419    0.6263 C   0  0  0  0  0  0  0  0  0  0  0  0
    0.0207   -0.6189   -0.6687 C   0  0  0  0  0  0  0  0  0  0  0  0
    0.8423   -3.8914    1.0589 C   0  0  0  0  0  0  0  0  0  0  0  0
    2.0915   -4.2587    0.9109 N   0  0  0  0  0  0  0  0  0  0  0  0
    2.3312   -5.4170    1.5391 C   0  0  0  0  0  0  0  0  0  0  0  0
    1.1356   -5.7828    2.1140 C   0  0  0  0  0  0  0  0  0  0  0  0
    0.2474   -4.8328    1.8034 N   0  0  0  0  0  0  0  0  0  0  0  0
   -5.1522    4.2011   -2.3357 C   0  0  0  0  0  0  0  0  0  0  0  0
   -6.5491    4.4615   -2.6976 C   0  0  0  0  0  0  0  0  0  0  0  0
   -4.3101    5.0767   -2.5289 O   0  0  0  0  0  0  0  0  0  0  0  0
   -7.4231    1.7982   -1.2150 H   0  0  0  0  0  0  0  0  0  0  0  0
   -4.9143    2.1058   -2.5183 H   0  0  0  0  0  0  0  0  0  0  0  0
   -2.7806    3.7612   -1.5810 H   0  0  0  0  0  0  0  0  0  0  0  0
   -2.8815   -1.2496    0.8602 H   0  0  0  0  0  0  0  0  0  0  0  0
   -1.6307   -3.2311    1.6010 H   0  0  0  0  0  0  0  0  0  0  0  0
    2.5508   -2.7846   -0.6261 H   0  0  0  0  0  0  0  0  0  0  0  0
    2.0713   -0.4459   -2.2585 H   0  0  0  0  0  0  0  0  0  0  0  0
    3.6303   -1.3623   -1.9991 H   0  0  0  0  0  0  0  0  0  0  0  0
    3.6229    1.0664   -1.4920 H   0  0  0  0  0  0  0  0  0  0  0  0
    2.3729    0.8906   -0.2718 H   0  0  0  0  0  0  0  0  0  0  0  0
    4.7032   -0.7091    2.1500 H   0  0  0  0  0  0  0  0  0  0  0  0
    3.3775   -1.5294    1.3359 H   0  0  0  0  0  0  0  0  0  0  0  0
    2.6586   -0.2896    3.1968 H   0  0  0  0  0  0  0  0  0  0  0  0
    1.9060    0.4354    1.6733 H   0  0  0  0  0  0  0  0  0  0  0  0
    5.4748    1.1171    2.6804 H   0  0  0  0  0  0  0  0  0  0  0  0
    4.9690    2.7626    2.2691 H   0  0  0  0  0  0  0  0  0  0  0  0
    4.2345    2.2302    0.1116 H   0  0  0  0  0  0  0  0  0  0  0  0
    5.8723    1.5161    0.3749 H   0  0  0  0  0  0  0  0  0  0  0  0
    0.4537    0.1155   -1.3056 H   0  0  0  0  0  0  0  0  0  0  0  0
    3.2554   -5.9861    1.6086 H   0  0  0  0  0  0  0  0  0  0  0  0
    0.9516   -6.6925    2.7178 H   0  0  0  0  0  0  0  0  0  0  0  0
   -0.7523   -4.9083    2.1433 H   0  0  0  0  0  0  0  0  0  0  0  0
   -7.1626    4.7791   -1.8358 H   0  0  0  0  0  0  0  0  0  0  0  0
   -6.6203    5.2414   -3.4866 H   0  0  0  0  0  0  0  0  0  0  0  0
   -6.9861    3.4974   -3.0630 H   0  0  0  0  0  0  0  0  0  0  0  0
  1  2  1  0
  2  3  2  0
  2  4  1  0
  4  5  1  0
  5  6  1  0
  6  7  3  0
  7  8  1  0
  8  9  2  0
  9 10  1  0
 10 11  2  0
 11 12  1  0
 12 13  1  0
 13 14  1  0
 14 15  1  0
 15 16  1  0
 16 17  1  0
 17 18  1  0
 18 19  1  0
 19 20  1  0
 20 21  1  0
 12 22  2  0
 11 23  1  0
 23 24  2  0
 24 25  1  0
 25 26  2  0
 26 27  1  0
  4 28  1  0
 28 29  1  0
 28 30  2  0
 22  8  1  0
 27 23  1  0
 21 16  1  0
  1 31  1  0
  4 32  1  0
  5 33  1  0
  9 34  1  0
 10 35  1  0
 13 36  1  0
 14 37  1  0
 14 38  1  0
 15 39  1  0
 15 40  1  0
 17 41  1  0
 17 42  1  0
 18 43  1  0
 18 44  1  0
 20 45  1  0
 20 46  1  0
 21 47  1  0
 21 48  1  0
 22 49  1  0
 25 50  1  0
 26 51  1  0
 27 52  1  0
 29 53  1  0
 29 54  1  0
 29 55  1  0
M  END
$$$$
[H]c1c([H])c(C(=O)N2C([H])([H])C([H])([H])N([C@@]3([H])C([H])([H])C([H])([H])C([H])([H])C([H])([H])[C@]3([H])C(=O)OC([H])([H])[H])C([H])([H])C2([H])[H])c([H])c([H])c1Cl
     RDKit          3D

 50 52  0  0  0  0  0  0  0  0999 V2000
   -5.2189   -2.5343    0.8459 C   0  0  0  0  0  0  0  0  0  0  0  0
   -4.4205   -1.4344    0.3800 O   0  0  0  0  0  0  0  0  0  0  0  0
   -3.1265   -1.6271   -0.0762 C   0  0  0  0  0  0  0  0  0  0  0  0
   -2.6893   -2.8075   -0.0620 O   0  0  0  0  0  0  0  0  0  0  0  0
   -2.2680   -0.5151   -0.5659 C   0  0  1  0  0  0  0  0  0  0  0  0
   -2.9000    0.1596   -1.7647 C   0  0  0  0  0  0  0  0  0  0  0  0
   -4.1603    0.8974   -1.4460 C   0  0  0  0  0  0  0  0  0  0  0  0
   -3.9979    1.7318   -0.2218 C   0  0  0  0  0  0  0  0  0  0  0  0
   -2.5157    1.8234    0.1028 C   0  0  0  0  0  0  0  0  0  0  0  0
   -1.9358    0.4841    0.4965 C   0  0  2  0  0  0  0  0  0  0  0  0
   -0.5753    0.5993    0.8296 N   0  0  0  0  0  0  0  0  0  0  0  0
    0.0946   -0.4930    1.3683 C   0  0  0  0  0  0  0  0  0  0  0  0
    1.5106   -0.6265    0.7903 C   0  0  0  0  0  0  0  0  0  0  0  0
    2.1797    0.6328    0.7695 N   0  0  0  0  0  0  0  0  0  0  0  0
    1.4188    1.7817    1.3337 C   0  0  0  0  0  0  0  0  0  0  0  0
    0.1137    1.7688    0.5259 C   0  0  0  0  0  0  0  0  0  0  0  0
    3.4392    0.8966    0.2867 C   0  0  0  0  0  0  0  0  0  0  0  0
    3.7799    2.1716    0.4138 O   0  0  0  0  0  0  0  0  0  0  0  0
    4.4609    0.0858   -0.3242 C   0  0  0  0  0  0  0  0  0  0  0  0
    5.6860    0.6619   -0.7093 C   0  0  0  0  0  0  0  0  0  0  0  0
    6.6981   -0.0499   -1.2966 C   0  0  0  0  0  0  0  0  0  0  0  0
    6.5673   -1.3925   -1.5460 C   0  0  0  0  0  0  0  0  0  0  0  0
    7.8627   -2.3169   -2.3003 Cl  0  0  0  0  0  0  0  0  0  0  0  0
    5.3954   -1.9886   -1.1879 C   0  0  0  0  0  0  0  0  0  0  0  0
    4.3559   -1.2488   -0.5827 C   0  0  0  0  0  0  0  0  0  0  0  0
   -4.6396   -3.4798    0.8511 H   0  0  0  0  0  0  0  0  0  0  0  0
   -5.6708   -2.2825    1.8121 H   0  0  0  0  0  0  0  0  0  0  0  0
   -6.0480   -2.6309    0.1118 H   0  0  0  0  0  0  0  0  0  0  0  0
   -1.2977   -0.9352   -0.9392 H   0  0  0  0  0  0  0  0  0  0  0  0
   -3.1913   -0.6828   -2.4590 H   0  0  0  0  0  0  0  0  0  0  0  0
   -2.1983    0.7984   -2.3096 H   0  0  0  0  0  0  0  0  0  0  0  0
   -4.3984    1.5202   -2.3536 H   0  0  0  0  0  0  0  0  0  0  0  0
   -5.0329    0.2236   -1.3310 H   0  0  0  0  0  0  0  0  0  0  0  0
   -4.6139    1.4468    0.6297 H   0  0  0  0  0  0  0  0  0  0  0  0
   -4.2991    2.7861   -0.4907 H   0  0  0  0  0  0  0  0  0  0  0  0
   -2.4518    2.5599    0.9482 H   0  0  0  0  0  0  0  0  0  0  0  0
   -2.0065    2.1894   -0.8127 H   0  0  0  0  0  0  0  0  0  0  0  0
   -2.5014    0.1715    1.4228 H   0  0  0  0  0  0  0  0  0  0  0  0
    0.2312   -0.4955    2.4718 H   0  0  0  0  0  0  0  0  0  0  0  0
   -0.4177   -1.4400    1.1042 H   0  0  0  0  0  0  0  0  0  0  0  0
    2.0472   -1.4156    1.3845 H   0  0  0  0  0  0  0  0  0  0  0  0
    1.3502   -0.9756   -0.2449 H   0  0  0  0  0  0  0  0  0  0  0  0
    1.9610    2.7194    1.2449 H   0  0  0  0  0  0  0  0  0  0  0  0
    1.1793    1.5983    2.3877 H   0  0  0  0  0  0  0  0  0  0  0  0
   -0.4280    2.6799    0.7595 H   0  0  0  0  0  0  0  0  0  0  0  0
    0.4619    1.7221   -0.5477 H   0  0  0  0  0  0  0  0  0  0  0  0
    5.8107    1.7128   -0.5233 H   0  0  0  0  0  0  0  0  0  0  0  0
    7.6425    0.4044   -1.5912 H   0  0  0  0  0  0  0  0  0  0  0  0
    5.2777   -3.0453   -1.3780 H   0  0  0  0  0  0  0  0  0  0  0  0
    3.4790   -1.8101   -0.3429 H   0  0  0  0  0  0  0  0  0  0  0  0
  1  2  1  0
  2  3  1  0
  3  4  2  0
  3  5  1  0
  5  6  1  0
  6  7  1  0
  7  8  1  0
  8  9  1  0
  9 10  1  0
 10 11  1  0
 11 12  1  0
 12 13  1  0
 13 14  1  0
 14 15  1  0
 15 16  1  0
 14 17  1  0
 17 18  2  0
 17 19  1  0
 19 20  2  0
 20 21  1  0
 21 22  2  0
 22 23  1  0
 22 24  1  0
 24 25  2  0
 10  5  1  0
 16 11  1  0
 25 19  1  0
  1 26  1  0
  1 27  1  0
  1 28  1  0
  5 29  1  6
  6 30  1  0
  6 31  1  0
  7 32  1  0
  7 33  1  0
  8 34  1  0
  8 35  1  0
  9 36  1  0
  9 37  1  0
 10 38  1  1
 12 39  1  0
 12 40  1  0
 13 41  1  0
 13 42  1  0
 15 43  1  0
 15 44  1  0
 16 45  1  0
 16 46  1  0
 20 47  1  0
 21 48  1  0
 24 49  1  0
 25 50  1  0
M  END
$$$$
[H]c1c(C([H])([H])[H])nc(C([H])([H])[H])c(Oc2c([H])c([H])c(N([H])C(=O)C([H])([H])C([H])([H])[C@]3([H])C(=O)[C@@]([H])(N4C([H])([H])C([H])([H])N(C([H])([H])[H])C([H])([H])C4([H])[H])C3([H])[H])c([H])c2F)c1[H]
     RDKit          3D

 64 67  0  0  0  0  0  0  0  0999 V2000
   -9.9557    0.5782    1.1798 C   0  0  0  0  0  0  0  0  0  0  0  0
   -8.7989    1.4206    0.9589 N   0  0  0  0  0  0  0  0  0  0  0  0
   -8.3369    1.2383   -0.3813 C   0  0  0  0  0  0  0  0  0  0  0  0
   -7.3086    0.1123   -0.5067 C   0  0  0  0  0  0  0  0  0  0  0  0
   -6.2129    0.3736    0.3132 N   0  0  0  0  0  0  0  0  0  0  0  0
   -5.0543   -0.3912    0.2047 C   0  0  1  0  0  0  0  0  0  0  0  0
   -4.2842   -0.3755   -1.0888 C   0  0  0  0  0  0  0  0  0  0  0  0
   -3.5443    0.8088   -0.5216 C   0  0  2  0  0  0  0  0  0  0  0  0
   -2.0962    0.9226   -0.8582 C   0  0  0  0  0  0  0  0  0  0  0  0
   -1.3136   -0.2541   -0.3821 C   0  0  0  0  0  0  0  0  0  0  0  0
    0.1409   -0.0709   -0.7538 C   0  0  0  0  0  0  0  0  0  0  0  0
    0.4644    0.9625   -1.3578 O   0  0  0  0  0  0  0  0  0  0  0  0
    1.0404   -1.0730   -0.3979 N   0  0  0  0  0  0  0  0  0  0  0  0
    2.4125   -1.0473   -0.6627 C   0  0  0  0  0  0  0  0  0  0  0  0
    3.0875   -2.2771   -0.5997 C   0  0  0  0  0  0  0  0  0  0  0  0
    4.4303   -2.3439   -0.8243 C   0  0  0  0  0  0  0  0  0  0  0  0
    5.1570   -1.1999   -1.1195 C   0  0  0  0  0  0  0  0  0  0  0  0
    6.5189   -1.2675   -1.3496 O   0  0  0  0  0  0  0  0  0  0  0  0
    7.4998   -0.6825   -0.6067 C   0  0  0  0  0  0  0  0  0  0  0  0
    7.2989    0.0423    0.5414 C   0  0  0  0  0  0  0  0  0  0  0  0
    8.3705    0.6005    1.2236 C   0  0  0  0  0  0  0  0  0  0  0  0
    9.6312    0.4254    0.7480 C   0  0  0  0  0  0  0  0  0  0  0  0
   10.7839    1.0199    1.4732 C   0  0  0  0  0  0  0  0  0  0  0  0
    9.8524   -0.2775   -0.3686 N   0  0  0  0  0  0  0  0  0  0  0  0
    8.8172   -0.8196   -1.0329 C   0  0  0  0  0  0  0  0  0  0  0  0
    9.0927   -1.5863   -2.2572 C   0  0  0  0  0  0  0  0  0  0  0  0
    4.5355    0.0101   -1.1895 C   0  0  0  0  0  0  0  0  0  0  0  0
    5.2101    1.1586   -1.4970 F   0  0  0  0  0  0  0  0  0  0  0  0
    3.1589    0.0620   -0.9560 C   0  0  0  0  0  0  0  0  0  0  0  0
   -3.8493    0.2597    0.8422 C   0  0  0  0  0  0  0  0  0  0  0  0
   -3.3552    0.3161    1.9390 O   0  0  0  0  0  0  0  0  0  0  0  0
   -6.4028    1.1584    1.4692 C   0  0  0  0  0  0  0  0  0  0  0  0
   -7.8136    1.2250    1.9742 C   0  0  0  0  0  0  0  0  0  0  0  0
  -10.3742    0.1668    0.2295 H   0  0  0  0  0  0  0  0  0  0  0  0
  -10.7680    1.2241    1.6251 H   0  0  0  0  0  0  0  0  0  0  0  0
   -9.7561   -0.2801    1.8406 H   0  0  0  0  0  0  0  0  0  0  0  0
   -9.2119    0.9252   -0.9996 H   0  0  0  0  0  0  0  0  0  0  0  0
   -7.9111    2.1594   -0.8305 H   0  0  0  0  0  0  0  0  0  0  0  0
   -7.1065    0.0118   -1.5885 H   0  0  0  0  0  0  0  0  0  0  0  0
   -7.8083   -0.8331   -0.1967 H   0  0  0  0  0  0  0  0  0  0  0  0
   -5.1846   -1.4345    0.5587 H   0  0  0  0  0  0  0  0  0  0  0  0
   -4.8497   -0.0981   -1.9933 H   0  0  0  0  0  0  0  0  0  0  0  0
   -3.7091   -1.2894   -1.2582 H   0  0  0  0  0  0  0  0  0  0  0  0
   -4.1045    1.7520   -0.6759 H   0  0  0  0  0  0  0  0  0  0  0  0
   -2.0153    1.0302   -1.9604 H   0  0  0  0  0  0  0  0  0  0  0  0
   -1.7293    1.8752   -0.4069 H   0  0  0  0  0  0  0  0  0  0  0  0
   -1.3491   -0.4098    0.6982 H   0  0  0  0  0  0  0  0  0  0  0  0
   -1.7139   -1.1686   -0.8607 H   0  0  0  0  0  0  0  0  0  0  0  0
    0.6473   -1.9264    0.1241 H   0  0  0  0  0  0  0  0  0  0  0  0
    2.5404   -3.1927   -0.3698 H   0  0  0  0  0  0  0  0  0  0  0  0
    4.9897   -3.2937   -0.7823 H   0  0  0  0  0  0  0  0  0  0  0  0
    6.3293    0.1894    0.9466 H   0  0  0  0  0  0  0  0  0  0  0  0
    8.1767    1.1649    2.1235 H   0  0  0  0  0  0  0  0  0  0  0  0
   11.0203    0.3685    2.3392 H   0  0  0  0  0  0  0  0  0  0  0  0
   10.5121    2.0228    1.8350 H   0  0  0  0  0  0  0  0  0  0  0  0
   11.6485    1.0908    0.7743 H   0  0  0  0  0  0  0  0  0  0  0  0
    9.2490   -0.9260   -3.1461 H   0  0  0  0  0  0  0  0  0  0  0  0
   10.0109   -2.1995   -2.1609 H   0  0  0  0  0  0  0  0  0  0  0  0
    8.2592   -2.2918   -2.4695 H   0  0  0  0  0  0  0  0  0  0  0  0
    2.7042    1.0481   -1.0067 H   0  0  0  0  0  0  0  0  0  0  0  0
   -5.7890    0.7060    2.3028 H   0  0  0  0  0  0  0  0  0  0  0  0
   -5.9641    2.1824    1.3395 H   0  0  0  0  0  0  0  0  0  0  0  0
   -7.8828    2.0954    2.6779 H   0  0  0  0  0  0  0  0  0  0  0  0
   -8.0366    0.3019    2.5484 H   0  0  0  0  0  0  0  0  0  0  0  0
  1  2  1  0
  2  3  1  0
  3  4  1  0
  4  5  1  0
  5  6  1  0
  6  7  1  0
  7  8  1  0
  8  9  1  0
  9 10  1  0
 10 11  1  0
 11 12  2  0
 11 13  1  0
 13 14  1  0
 14 15  2  0
 15 16  1  0
 16 17  2  0
 17 18  1  0
 18 19  1  0
 19 20  2  0
 20 21  1  0
 21 22  2  0
 22 23  1  0
 22 24  1  0
 24 25  2  0
 25 26  1  0
 17 27  1  0
 27 28  1  0
 27 29  2  0
  6 30  1  0
 30 31  2  0
  5 32  1  0
 32 33  1  0
 33  2  1  0
 30  8  1  0
 29 14  1  0
 25 19  1  0
  1 34  1  0
  1 35  1  0
  1 36  1  0
  3 37  1  0
  3 38  1  0
  4 39  1  0
  4 40  1  0
  6 41  1  1
  7 42  1  0
  7 43  1  0
  8 44  1  1
  9 45  1  0
  9 46  1  0
 10 47  1  0
 10 48  1  0
 13 49  1  0
 15 50  1  0
 16 51  1  0
 20 52  1  0
 21 53  1  0
 23 54  1  0
 23 55  1  0
 23 56  1  0
 26 57  1  0
 26 58  1  0
 26 59  1  0
 29 60  1  0
 32 61  1  0
 32 62  1  0
 33 63  1  0
 33 64  1  0
M  END
$$$$
[H]c1nc([H])c([H])c(-c2nc(N3C([H])([H])C([H])([H])C([H])(c4c([H])c(F)c([H])c([H])c4C([H])([H])C(=O)N([H])C([H])([H])[H])C([H])([H])C3([H])[H])n([H])c2[H])c1[H]
     RDKit          3D

 53 56  0  0  0  0  0  0  0  0999 V2000
   -6.2126    2.2013    2.5220 C   0  0  0  0  0  0  0  0  0  0  0  0
   -5.5153    1.0676    2.0293 N   0  0  0  0  0  0  0  0  0  0  0  0
   -5.0498    0.9578    0.6508 C   0  0  0  0  0  0  0  0  0  0  0  0
   -5.2352    1.9034   -0.1360 O   0  0  0  0  0  0  0  0  0  0  0  0
   -4.3843   -0.3115    0.2832 C   0  0  0  0  0  0  0  0  0  0  0  0
   -3.9095   -0.3707   -1.0851 C   0  0  0  0  0  0  0  0  0  0  0  0
   -4.8729   -0.4320   -2.1217 C   0  0  0  0  0  0  0  0  0  0  0  0
   -4.5038   -0.6144   -3.4304 C   0  0  0  0  0  0  0  0  0  0  0  0
   -3.1881   -0.7323   -3.7424 C   0  0  0  0  0  0  0  0  0  0  0  0
   -2.7725   -0.9077   -5.0385 F   0  0  0  0  0  0  0  0  0  0  0  0
   -2.2610   -0.6695   -2.7409 C   0  0  0  0  0  0  0  0  0  0  0  0
   -2.5976   -0.4813   -1.3543 C   0  0  0  0  0  0  0  0  0  0  0  0
   -1.4442   -0.3402   -0.5011 C   0  0  0  0  0  0  0  0  0  0  0  0
   -0.6502   -1.6434   -0.4348 C   0  0  0  0  0  0  0  0  0  0  0  0
    0.7646   -1.4187   -0.1948 C   0  0  0  0  0  0  0  0  0  0  0  0
    1.1325   -0.1454    0.4507 N   0  0  0  0  0  0  0  0  0  0  0  0
    0.2420    0.8971    0.7347 C   0  0  0  0  0  0  0  0  0  0  0  0
   -1.2591    0.4849    0.6755 C   0  0  0  0  0  0  0  0  0  0  0  0
    2.5141   -0.1312    0.7494 C   0  0  0  0  0  0  0  0  0  0  0  0
    3.5913    0.3168    0.1035 N   0  0  0  0  0  0  0  0  0  0  0  0
    4.7119   -0.0050    0.7069 C   0  0  0  0  0  0  0  0  0  0  0  0
    4.3290   -0.7112    1.8309 C   0  0  0  0  0  0  0  0  0  0  0  0
    3.0088   -0.7715    1.8329 N   0  0  0  0  0  0  0  0  0  0  0  0
    6.1009    0.1652    0.3022 C   0  0  0  0  0  0  0  0  0  0  0  0
    7.1880   -0.0703    1.1355 C   0  0  0  0  0  0  0  0  0  0  0  0
    8.4895   -0.0005    0.7017 C   0  0  0  0  0  0  0  0  0  0  0  0
    8.6986    0.3085   -0.5801 N   0  0  0  0  0  0  0  0  0  0  0  0
    7.7079    0.5482   -1.4357 C   0  0  0  0  0  0  0  0  0  0  0  0
    6.3745    0.4839   -1.0142 C   0  0  0  0  0  0  0  0  0  0  0  0
   -6.6388    2.8319    1.7210 H   0  0  0  0  0  0  0  0  0  0  0  0
   -7.1378    1.8902    3.1200 H   0  0  0  0  0  0  0  0  0  0  0  0
   -5.5823    2.9010    3.1718 H   0  0  0  0  0  0  0  0  0  0  0  0
   -5.3298    0.2734    2.6982 H   0  0  0  0  0  0  0  0  0  0  0  0
   -5.1351   -1.1510    0.5101 H   0  0  0  0  0  0  0  0  0  0  0  0
   -3.5623   -0.4017    1.0501 H   0  0  0  0  0  0  0  0  0  0  0  0
   -5.9022   -0.3311   -1.8226 H   0  0  0  0  0  0  0  0  0  0  0  0
   -5.2462   -0.6718   -4.2020 H   0  0  0  0  0  0  0  0  0  0  0  0
   -1.2245   -0.7765   -3.0512 H   0  0  0  0  0  0  0  0  0  0  0  0
   -0.6874    0.2451   -1.2669 H   0  0  0  0  0  0  0  0  0  0  0  0
   -0.8113   -2.2859   -1.3190 H   0  0  0  0  0  0  0  0  0  0  0  0
   -1.0160   -2.2213    0.5105 H   0  0  0  0  0  0  0  0  0  0  0  0
    1.4358   -1.5840   -1.0738 H   0  0  0  0  0  0  0  0  0  0  0  0
    1.1786   -2.1893    0.5473 H   0  0  0  0  0  0  0  0  0  0  0  0
    0.3453    1.6982   -0.0169 H   0  0  0  0  0  0  0  0  0  0  0  0
    0.4381    1.3643    1.7312 H   0  0  0  0  0  0  0  0  0  0  0  0
   -1.4510   -0.0668    1.6582 H   0  0  0  0  0  0  0  0  0  0  0  0
   -1.8747    1.4069    0.6200 H   0  0  0  0  0  0  0  0  0  0  0  0
    5.0133   -1.1354    2.5586 H   0  0  0  0  0  0  0  0  0  0  0  0
    2.4351   -1.2469    2.5818 H   0  0  0  0  0  0  0  0  0  0  0  0
    6.9808   -0.3095    2.1545 H   0  0  0  0  0  0  0  0  0  0  0  0
    9.3174   -0.1903    1.3801 H   0  0  0  0  0  0  0  0  0  0  0  0
    7.9275    0.7789   -2.4636 H   0  0  0  0  0  0  0  0  0  0  0  0
    5.5304    0.6977   -1.6966 H   0  0  0  0  0  0  0  0  0  0  0  0
  1  2  1  0
  2  3  1  0
  3  4  2  0
  3  5  1  0
  5  6  1  0
  6  7  2  0
  7  8  1  0
  8  9  2  0
  9 10  1  0
  9 11  1  0
 11 12  2  0
 12 13  1  0
 13 14  1  0
 14 15  1  0
 15 16  1  0
 16 17  1  0
 17 18  1  0
 16 19  1  0
 19 20  2  0
 20 21  1  0
 21 22  2  0
 22 23  1  0
 21 24  1  0
 24 25  2  0
 25 26  1  0
 26 27  2  0
 27 28  1  0
 28 29  2  0
 12  6  1  0
 18 13  1  0
 23 19  1  0
 29 24  1  0
  1 30  1  0
  1 31  1  0
  1 32  1  0
  2 33  1  0
  5 34  1  0
  5 35  1  0
  7 36  1  0
  8 37  1  0
 11 38  1  0
 13 39  1  0
 14 40  1  0
 14 41  1  0
 15 42  1  0
 15 43  1  0
 17 44  1  0
 17 45  1  0
 18 46  1  0
 18 47  1  0
 22 48  1  0
 23 49  1  0
 25 50  1  0
 26 51  1  0
 28 52  1  0
 29 53  1  0
M  END
$$$$
[H]c1c(C(=O)N([H])c2c([H])c([H])c(C(F)(F)F)c([H])c2[H])noc1-c1c([H])c([H])c([H])c([H])c1[H]
     RDKit          3D

 35 37  0  0  0  0  0  0  0  0999 V2000
    7.4192    0.4562    1.8041 F   0  0  0  0  0  0  0  0  0  0  0  0
    7.2045   -0.0704    0.5545 C   0  0  0  0  0  0  0  0  0  0  0  0
    7.7197   -1.3412    0.4132 F   0  0  0  0  0  0  0  0  0  0  0  0
    7.7852    0.7838   -0.3798 F   0  0  0  0  0  0  0  0  0  0  0  0
    5.7512   -0.1136    0.2535 C   0  0  0  0  0  0  0  0  0  0  0  0
    5.2506   -0.8913   -0.7770 C   0  0  0  0  0  0  0  0  0  0  0  0
    3.8959   -0.8890   -0.9991 C   0  0  0  0  0  0  0  0  0  0  0  0
    2.9989   -0.1399   -0.2328 C   0  0  0  0  0  0  0  0  0  0  0  0
    1.6243   -0.2310   -0.5983 N   0  0  0  0  0  0  0  0  0  0  0  0
    0.5251    0.1150    0.2023 C   0  0  0  0  0  0  0  0  0  0  0  0
    0.6232    0.5543    1.3963 O   0  0  0  0  0  0  0  0  0  0  0  0
   -0.8301   -0.0425   -0.3749 C   0  0  0  0  0  0  0  0  0  0  0  0
   -2.0192    0.1687    0.2786 C   0  0  0  0  0  0  0  0  0  0  0  0
   -3.0419   -0.0816   -0.6126 C   0  0  0  0  0  0  0  0  0  0  0  0
   -2.4774   -0.4264   -1.7407 O   0  0  0  0  0  0  0  0  0  0  0  0
   -1.1633   -0.4080   -1.6169 N   0  0  0  0  0  0  0  0  0  0  0  0
   -4.4583    0.0369   -0.2909 C   0  0  0  0  0  0  0  0  0  0  0  0
   -4.8773    0.3992    0.9754 C   0  0  0  0  0  0  0  0  0  0  0  0
   -6.1989    0.5247    1.3374 C   0  0  0  0  0  0  0  0  0  0  0  0
   -7.1571    0.2847    0.3990 C   0  0  0  0  0  0  0  0  0  0  0  0
   -6.7833   -0.0855   -0.8915 C   0  0  0  0  0  0  0  0  0  0  0  0
   -5.4485   -0.2026   -1.2162 C   0  0  0  0  0  0  0  0  0  0  0  0
    3.4944    0.6221    0.7801 C   0  0  0  0  0  0  0  0  0  0  0  0
    4.8772    0.6210    1.0061 C   0  0  0  0  0  0  0  0  0  0  0  0
    5.9270   -1.5055   -1.4021 H   0  0  0  0  0  0  0  0  0  0  0  0
    3.5126   -1.4972   -1.8045 H   0  0  0  0  0  0  0  0  0  0  0  0
    1.3908   -0.5940   -1.5776 H   0  0  0  0  0  0  0  0  0  0  0  0
   -2.1370    0.4757    1.3024 H   0  0  0  0  0  0  0  0  0  0  0  0
   -4.1208    0.5910    1.7111 H   0  0  0  0  0  0  0  0  0  0  0  0
   -6.4432    0.8053    2.3613 H   0  0  0  0  0  0  0  0  0  0  0  0
   -8.2038    0.3757    0.6712 H   0  0  0  0  0  0  0  0  0  0  0  0
   -7.5501   -0.2739   -1.6209 H   0  0  0  0  0  0  0  0  0  0  0  0
   -5.1710   -0.4852   -2.2300 H   0  0  0  0  0  0  0  0  0  0  0  0
    2.8510    1.2277    1.3963 H   0  0  0  0  0  0  0  0  0  0  0  0
    5.2305    1.2370    1.8220 H   0  0  0  0  0  0  0  0  0  0  0  0
  1  2  1  0
  2  3  1  0
  2  4  1  0
  2  5  1  0
  5  6  2  0
  6  7  1  0
  7  8  2  0
  8  9  1  0
  9 10  1  0
 10 11  2  0
 10 12  1  0
 12 13  1  0
 13 14  2  0
 14 15  1  0
 15 16  1  0
 14 17  1  0
 17 18  2  0
 18 19  1  0
 19 20  2  0
 20 21  1  0
 21 22  2  0
  8 23  1  0
 23 24  2  0
 24  5  1  0
 16 12  2  0
 22 17  1  0
  6 25  1  0
  7 26  1  0
  9 27  1  0
 13 28  1  0
 18 29  1  0
 19 30  1  0
 20 31  1  0
 21 32  1  0
 22 33  1  0
 23 34  1  0
 24 35  1  0
M  END
$$$$
[H]c1nc(N2C([H])([H])C([H])([H])N(C([H])([H])C([H])([H])C(=O)N([H])C3([H])C([H])([H])C([H])([H])N(C(=O)C([H])([H])C([H])([H])[H])C([H])([H])C3([H])[H])C([H])([H])C2([H])[H])c2c([H])c([H])n([H])c2n1
     RDKit          3D

 61 64  0  0  0  0  0  0  0  0999 V2000
   -8.2597   -1.8369    1.6468 C   0  0  0  0  0  0  0  0  0  0  0  0
   -8.1012   -0.6830    0.6837 C   0  0  0  0  0  0  0  0  0  0  0  0
   -7.0545   -1.0552   -0.3058 C   0  0  0  0  0  0  0  0  0  0  0  0
   -7.3138   -1.9438   -1.1825 O   0  0  0  0  0  0  0  0  0  0  0  0
   -5.7678   -0.4637   -0.3247 N   0  0  0  0  0  0  0  0  0  0  0  0
   -4.8233   -0.8735   -1.3315 C   0  0  0  0  0  0  0  0  0  0  0  0
   -3.9198    0.3511   -1.5629 C   0  0  0  0  0  0  0  0  0  0  0  0
   -3.1268    0.4685   -0.2479 C   0  0  0  0  0  0  0  0  0  0  0  0
   -4.0636    0.9441    0.8003 C   0  0  0  0  0  0  0  0  0  0  0  0
   -5.4819    0.5259    0.6841 C   0  0  0  0  0  0  0  0  0  0  0  0
   -2.0649    1.4201   -0.3883 N   0  0  0  0  0  0  0  0  0  0  0  0
   -0.6892    0.9528   -0.4830 C   0  0  0  0  0  0  0  0  0  0  0  0
   -0.5612   -0.2777   -0.4370 O   0  0  0  0  0  0  0  0  0  0  0  0
    0.3398    1.9846   -0.6184 C   0  0  0  0  0  0  0  0  0  0  0  0
    1.7639    1.5952   -0.6254 C   0  0  0  0  0  0  0  0  0  0  0  0
    2.2917    1.0269    0.5040 N   0  0  0  0  0  0  0  0  0  0  0  0
    2.0957   -0.2129    1.0443 C   0  0  0  0  0  0  0  0  0  0  0  0
    3.3493   -0.6827    1.8170 C   0  0  0  0  0  0  0  0  0  0  0  0
    4.5047   -0.1331    1.0855 N   0  0  0  0  0  0  0  0  0  0  0  0
    4.6151    1.2902    1.1422 C   0  0  0  0  0  0  0  0  0  0  0  0
    3.1822    1.8783    1.2258 C   0  0  0  0  0  0  0  0  0  0  0  0
    5.3238   -1.0303    0.3946 C   0  0  0  0  0  0  0  0  0  0  0  0
    4.8485   -2.2565    0.0181 N   0  0  0  0  0  0  0  0  0  0  0  0
    5.5417   -3.1556   -0.6827 C   0  0  0  0  0  0  0  0  0  0  0  0
    6.7906   -2.8375   -1.0441 N   0  0  0  0  0  0  0  0  0  0  0  0
    7.3154   -1.6246   -0.6923 C   0  0  0  0  0  0  0  0  0  0  0  0
    8.5350   -1.0984   -0.9300 N   0  0  0  0  0  0  0  0  0  0  0  0
    8.6349    0.1178   -0.3936 C   0  0  0  0  0  0  0  0  0  0  0  0
    7.4329    0.3904    0.2155 C   0  0  0  0  0  0  0  0  0  0  0  0
    6.6104   -0.6888    0.0309 C   0  0  0  0  0  0  0  0  0  0  0  0
   -7.3608   -1.9635    2.2907 H   0  0  0  0  0  0  0  0  0  0  0  0
   -9.0994   -1.6486    2.3516 H   0  0  0  0  0  0  0  0  0  0  0  0
   -8.4474   -2.7944    1.0802 H   0  0  0  0  0  0  0  0  0  0  0  0
   -9.0490   -0.6015    0.1142 H   0  0  0  0  0  0  0  0  0  0  0  0
   -7.8700    0.2301    1.2364 H   0  0  0  0  0  0  0  0  0  0  0  0
   -4.1296   -1.6752   -0.9688 H   0  0  0  0  0  0  0  0  0  0  0  0
   -5.3106   -1.1409   -2.2744 H   0  0  0  0  0  0  0  0  0  0  0  0
   -3.2660    0.2146   -2.4348 H   0  0  0  0  0  0  0  0  0  0  0  0
   -4.5821    1.2275   -1.5966 H   0  0  0  0  0  0  0  0  0  0  0  0
   -2.7398   -0.5608   -0.0822 H   0  0  0  0  0  0  0  0  0  0  0  0
   -3.6782    0.6371    1.8169 H   0  0  0  0  0  0  0  0  0  0  0  0
   -3.9785    2.0739    0.8234 H   0  0  0  0  0  0  0  0  0  0  0  0
   -6.0913    1.4325    0.3945 H   0  0  0  0  0  0  0  0  0  0  0  0
   -5.8857    0.2304    1.6933 H   0  0  0  0  0  0  0  0  0  0  0  0
   -2.3164    2.4165   -0.4189 H   0  0  0  0  0  0  0  0  0  0  0  0
    0.1519    2.6899    0.2719 H   0  0  0  0  0  0  0  0  0  0  0  0
    0.1022    2.6377   -1.5224 H   0  0  0  0  0  0  0  0  0  0  0  0
    1.8864    0.8833   -1.5342 H   0  0  0  0  0  0  0  0  0  0  0  0
    2.3476    2.5382   -0.9349 H   0  0  0  0  0  0  0  0  0  0  0  0
    1.2111   -0.3310    1.7272 H   0  0  0  0  0  0  0  0  0  0  0  0
    2.0487   -0.9905    0.2117 H   0  0  0  0  0  0  0  0  0  0  0  0
    3.3869   -1.7799    1.8635 H   0  0  0  0  0  0  0  0  0  0  0  0
    3.2668   -0.2424    2.8327 H   0  0  0  0  0  0  0  0  0  0  0  0
    5.0004    1.7173    0.1996 H   0  0  0  0  0  0  0  0  0  0  0  0
    5.2210    1.6482    1.9798 H   0  0  0  0  0  0  0  0  0  0  0  0
    3.1806    2.8833    0.8190 H   0  0  0  0  0  0  0  0  0  0  0  0
    2.9302    1.8259    2.3007 H   0  0  0  0  0  0  0  0  0  0  0  0
    5.0980   -4.1290   -0.9566 H   0  0  0  0  0  0  0  0  0  0  0  0
    9.3054   -1.5934   -1.4722 H   0  0  0  0  0  0  0  0  0  0  0  0
    9.5220    0.7746   -0.4352 H   0  0  0  0  0  0  0  0  0  0  0  0
    7.1974    1.2984    0.7523 H   0  0  0  0  0  0  0  0  0  0  0  0
  1  2  1  0
  2  3  1  0
  3  4  2  0
  3  5  1  0
  5  6  1  0
  6  7  1  0
  7  8  1  0
  8  9  1  0
  9 10  1  0
  8 11  1  0
 11 12  1  0
 12 13  2  0
 12 14  1  0
 14 15  1  0
 15 16  1  0
 16 17  1  0
 17 18  1  0
 18 19  1  0
 19 20  1  0
 20 21  1  0
 19 22  1  0
 22 23  2  0
 23 24  1  0
 24 25  2  0
 25 26  1  0
 26 27  1  0
 27 28  1  0
 28 29  2  0
 29 30  1  0
 10  5  1  0
 21 16  1  0
 30 22  1  0
 30 26  2  0
  1 31  1  0
  1 32  1  0
  1 33  1  0
  2 34  1  0
  2 35  1  0
  6 36  1  0
  6 37  1  0
  7 38  1  0
  7 39  1  0
  8 40  1  0
  9 41  1  0
  9 42  1  0
 10 43  1  0
 10 44  1  0
 11 45  1  0
 14 46  1  0
 14 47  1  0
 15 48  1  0
 15 49  1  0
 17 50  1  0
 17 51  1  0
 18 52  1  0
 18 53  1  0
 20 54  1  0
 20 55  1  0
 21 56  1  0
 21 57  1  0
 24 58  1  0
 27 59  1  0
 28 60  1  0
 29 61  1  0
M  END
$$$$
[H]c1nn(C([H])([H])[H])c([H])c1-c1c([H])c([H])c2c(c1[H])c1c([H])c([H])nc([H])c1n2C([H])([H])C(=O)c1c([H])c(F)c([H])c([H])c1C([H])([H])N(C([H])([H])[H])C([H])([H])[H]
     RDKit          3D

 57 61  0  0  0  0  0  0  0  0999 V2000
   -5.2468    0.2412   -2.8503 C   0  0  0  0  0  0  0  0  0  0  0  0
   -5.1574   -0.4502   -1.6038 N   0  0  0  0  0  0  0  0  0  0  0  0
   -5.1279   -1.8775   -1.8526 C   0  0  0  0  0  0  0  0  0  0  0  0
   -4.0529   -0.1122   -0.7666 C   0  0  0  0  0  0  0  0  0  0  0  0
   -4.0249    1.2343   -0.1979 C   0  0  0  0  0  0  0  0  0  0  0  0
   -5.0732    2.1110   -0.4210 C   0  0  0  0  0  0  0  0  0  0  0  0
   -4.9977    3.3649    0.1643 C   0  0  0  0  0  0  0  0  0  0  0  0
   -3.9378    3.7497    0.9400 C   0  0  0  0  0  0  0  0  0  0  0  0
   -3.8764    4.9798    1.5077 F   0  0  0  0  0  0  0  0  0  0  0  0
   -2.9078    2.8548    1.1457 C   0  0  0  0  0  0  0  0  0  0  0  0
   -2.9205    1.5865    0.5898 C   0  0  0  0  0  0  0  0  0  0  0  0
   -1.7985    0.7145    0.8571 C   0  0  0  0  0  0  0  0  0  0  0  0
   -1.6873   -0.4647    0.4172 O   0  0  0  0  0  0  0  0  0  0  0  0
   -0.6831    1.2552    1.7234 C   0  0  0  0  0  0  0  0  0  0  0  0
    0.3532    0.2682    1.8706 N   0  0  0  0  0  0  0  0  0  0  0  0
    0.4638   -0.6810    2.8153 C   0  0  0  0  0  0  0  0  0  0  0  0
   -0.3238   -1.0202    3.8992 C   0  0  0  0  0  0  0  0  0  0  0  0
    0.0543   -2.0323    4.6712 N   0  0  0  0  0  0  0  0  0  0  0  0
    1.1691   -2.7642    4.4704 C   0  0  0  0  0  0  0  0  0  0  0  0
    1.9869   -2.4612    3.3990 C   0  0  0  0  0  0  0  0  0  0  0  0
    1.6189   -1.4160    2.5814 C   0  0  0  0  0  0  0  0  0  0  0  0
    2.2025   -0.8737    1.4579 C   0  0  0  0  0  0  0  0  0  0  0  0
    3.3656   -1.2243    0.7944 C   0  0  0  0  0  0  0  0  0  0  0  0
    3.7459   -0.5161   -0.3278 C   0  0  0  0  0  0  0  0  0  0  0  0
    2.9581    0.5257   -0.7630 C   0  0  0  0  0  0  0  0  0  0  0  0
    1.8114    0.8576   -0.0937 C   0  0  0  0  0  0  0  0  0  0  0  0
    1.4115    0.1672    1.0263 C   0  0  0  0  0  0  0  0  0  0  0  0
    4.9698   -0.8502   -1.0651 C   0  0  0  0  0  0  0  0  0  0  0  0
    5.5015   -2.1087   -1.1886 C   0  0  0  0  0  0  0  0  0  0  0  0
    6.6312   -1.9875   -1.9453 N   0  0  0  0  0  0  0  0  0  0  0  0
    6.8208   -0.7366   -2.2903 N   0  0  0  0  0  0  0  0  0  0  0  0
    7.8752   -0.1317   -3.0838 C   0  0  0  0  0  0  0  0  0  0  0  0
    5.8133   -0.0146   -1.7620 C   0  0  0  0  0  0  0  0  0  0  0  0
   -6.2806    0.6414   -3.0679 H   0  0  0  0  0  0  0  0  0  0  0  0
   -4.5155    1.0501   -2.9936 H   0  0  0  0  0  0  0  0  0  0  0  0
   -5.0667   -0.4735   -3.7072 H   0  0  0  0  0  0  0  0  0  0  0  0
   -4.2562   -2.1986   -2.4453 H   0  0  0  0  0  0  0  0  0  0  0  0
   -5.1440   -2.4659   -0.9128 H   0  0  0  0  0  0  0  0  0  0  0  0
   -6.0376   -2.2067   -2.4336 H   0  0  0  0  0  0  0  0  0  0  0  0
   -3.9942   -0.8917    0.0243 H   0  0  0  0  0  0  0  0  0  0  0  0
   -3.1397   -0.1859   -1.4338 H   0  0  0  0  0  0  0  0  0  0  0  0
   -5.9535    1.8462   -1.0234 H   0  0  0  0  0  0  0  0  0  0  0  0
   -5.8219    4.0528   -0.0126 H   0  0  0  0  0  0  0  0  0  0  0  0
   -2.0610    3.1513    1.7624 H   0  0  0  0  0  0  0  0  0  0  0  0
   -1.1354    1.5018    2.7140 H   0  0  0  0  0  0  0  0  0  0  0  0
   -0.2941    2.2147    1.3180 H   0  0  0  0  0  0  0  0  0  0  0  0
   -1.2476   -0.4597    4.1167 H   0  0  0  0  0  0  0  0  0  0  0  0
    1.4043   -3.5791    5.1541 H   0  0  0  0  0  0  0  0  0  0  0  0
    2.8828   -2.9972    3.1805 H   0  0  0  0  0  0  0  0  0  0  0  0
    3.9797   -2.0523    1.1517 H   0  0  0  0  0  0  0  0  0  0  0  0
    3.2945    1.0615   -1.6554 H   0  0  0  0  0  0  0  0  0  0  0  0
    1.1909    1.6725   -0.4301 H   0  0  0  0  0  0  0  0  0  0  0  0
    5.1321   -3.0411   -0.7831 H   0  0  0  0  0  0  0  0  0  0  0  0
    7.5044    0.7923   -3.5848 H   0  0  0  0  0  0  0  0  0  0  0  0
    8.7542    0.1516   -2.4680 H   0  0  0  0  0  0  0  0  0  0  0  0
    8.2087   -0.8177   -3.8727 H   0  0  0  0  0  0  0  0  0  0  0  0
    5.6596    1.0456   -1.8496 H   0  0  0  0  0  0  0  0  0  0  0  0
  1  2  1  0
  2  3  1  0
  2  4  1  0
  4  5  1  0
  5  6  2  0
  6  7  1  0
  7  8  2  0
  8  9  1  0
  8 10  1  0
 10 11  2  0
 11 12  1  0
 12 13  2  0
 12 14  1  0
 14 15  1  0
 15 16  1  0
 16 17  2  0
 17 18  1  0
 18 19  2  0
 19 20  1  0
 20 21  2  0
 21 22  1  0
 22 23  2  0
 23 24  1  0
 24 25  2  0
 25 26  1  0
 26 27  2  0
 24 28  1  0
 28 29  1  0
 29 30  2  0
 30 31  1  0
 31 32  1  0
 31 33  1  0
 11  5  1  0
 27 15  1  0
 33 28  2  0
 21 16  1  0
 27 22  1  0
  1 34  1  0
  1 35  1  0
  1 36  1  0
  3 37  1  0
  3 38  1  0
  3 39  1  0
  4 40  1  0
  4 41  1  0
  6 42  1  0
  7 43  1  0
 10 44  1  0
 14 45  1  0
 14 46  1  0
 17 47  1  0
 19 48  1  0
 20 49  1  0
 23 50  1  0
 25 51  1  0
 26 52  1  0
 29 53  1  0
 32 54  1  0
 32 55  1  0
 32 56  1  0
 33 57  1  0
M  END
$$$$
[H]c1nc(C([H])([H])OC(=O)N([H])[C@]([H])(C(=O)N([H])[C@@]([H])(C(=O)C(F)(F)F)C([H])([H])C(=O)N([H])[H])C([H])([H])c2c([H])c([H])c([H])c([H])c2[H])sc1[H]
     RDKit          3D

 51 52  0  0  0  0  0  0  0  0999 V2000
   -3.9487   -1.4164   -0.1121 N   0  0  0  0  0  0  0  0  0  0  0  0
   -4.6607   -0.2582   -0.4612 C   0  0  0  0  0  0  0  0  0  0  0  0
   -5.7341   -0.3248   -1.1022 O   0  0  0  0  0  0  0  0  0  0  0  0
   -4.1489    1.0727   -0.0731 C   0  0  0  0  0  0  0  0  0  0  0  0
   -2.8621    1.0736    0.6760 C   0  0  1  0  0  0  0  0  0  0  0  0
   -1.8139    0.4382   -0.1464 N   0  0  0  0  0  0  0  0  0  0  0  0
   -0.6109   -0.0269    0.4502 C   0  0  0  0  0  0  0  0  0  0  0  0
   -0.3987    0.0771    1.6889 O   0  0  0  0  0  0  0  0  0  0  0  0
    0.4302   -0.6371   -0.3886 C   0  0  2  0  0  0  0  0  0  0  0  0
    0.7247   -2.0776   -0.1647 C   0  0  0  0  0  0  0  0  0  0  0  0
   -0.3329   -3.0560   -0.3313 C   0  0  0  0  0  0  0  0  0  0  0  0
   -0.6748   -3.5911   -1.5524 C   0  0  0  0  0  0  0  0  0  0  0  0
   -1.6478   -4.5643   -1.6856 C   0  0  0  0  0  0  0  0  0  0  0  0
   -2.3121   -5.0310   -0.5754 C   0  0  0  0  0  0  0  0  0  0  0  0
   -1.9952   -4.5140    0.6813 C   0  0  0  0  0  0  0  0  0  0  0  0
   -1.0137   -3.5382    0.7788 C   0  0  0  0  0  0  0  0  0  0  0  0
    1.6863    0.0302    0.1058 N   0  0  0  0  0  0  0  0  0  0  0  0
    2.4911    0.7881   -0.7515 C   0  0  0  0  0  0  0  0  0  0  0  0
    2.1810    0.9282   -1.9561 O   0  0  0  0  0  0  0  0  0  0  0  0
    3.6380    1.3924   -0.2839 O   0  0  0  0  0  0  0  0  0  0  0  0
    4.4684    2.1700   -1.1536 C   0  0  0  0  0  0  0  0  0  0  0  0
    5.6423    2.7053   -0.3730 C   0  0  0  0  0  0  0  0  0  0  0  0
    6.8133    2.1117   -0.1998 N   0  0  0  0  0  0  0  0  0  0  0  0
    7.7331    2.6947    0.4992 C   0  0  0  0  0  0  0  0  0  0  0  0
    7.4426    3.9242    1.0367 C   0  0  0  0  0  0  0  0  0  0  0  0
    5.8377    4.1633    0.4911 S   0  0  0  0  0  0  0  0  0  0  0  0
   -2.4819    2.5505    0.8127 C   0  0  0  0  0  0  0  0  0  0  0  0
   -1.4661    2.8888    0.2448 O   0  0  0  0  0  0  0  0  0  0  0  0
   -3.2851    3.4980    1.5766 C   0  0  0  0  0  0  0  0  0  0  0  0
   -2.5344    4.6742    1.7354 F   0  0  0  0  0  0  0  0  0  0  0  0
   -3.6521    3.0826    2.8270 F   0  0  0  0  0  0  0  0  0  0  0  0
   -4.4349    3.9401    0.9296 F   0  0  0  0  0  0  0  0  0  0  0  0
   -3.2112   -1.8512   -0.7291 H   0  0  0  0  0  0  0  0  0  0  0  0
   -4.1434   -1.8849    0.7960 H   0  0  0  0  0  0  0  0  0  0  0  0
   -4.9508    1.6547    0.4640 H   0  0  0  0  0  0  0  0  0  0  0  0
   -4.0371    1.6502   -1.0395 H   0  0  0  0  0  0  0  0  0  0  0  0
   -2.8908    0.6726    1.6951 H   0  0  0  0  0  0  0  0  0  0  0  0
   -1.9293    0.3167   -1.1717 H   0  0  0  0  0  0  0  0  0  0  0  0
    0.3515   -0.3772   -1.4627 H   0  0  0  0  0  0  0  0  0  0  0  0
    1.2497   -2.1900    0.8445 H   0  0  0  0  0  0  0  0  0  0  0  0
    1.5767   -2.3285   -0.8809 H   0  0  0  0  0  0  0  0  0  0  0  0
   -0.1864   -3.2635   -2.4605 H   0  0  0  0  0  0  0  0  0  0  0  0
   -1.9120   -4.9797   -2.6428 H   0  0  0  0  0  0  0  0  0  0  0  0
   -3.0843   -5.7929   -0.6134 H   0  0  0  0  0  0  0  0  0  0  0  0
   -2.5261   -4.8909    1.5439 H   0  0  0  0  0  0  0  0  0  0  0  0
   -0.7966   -3.1623    1.7662 H   0  0  0  0  0  0  0  0  0  0  0  0
    1.8922   -0.1143    1.0873 H   0  0  0  0  0  0  0  0  0  0  0  0
    4.8162    1.5629   -2.0087 H   0  0  0  0  0  0  0  0  0  0  0  0
    3.8720    3.0222   -1.4779 H   0  0  0  0  0  0  0  0  0  0  0  0
    8.7284    2.2258    0.6652 H   0  0  0  0  0  0  0  0  0  0  0  0
    8.1017    4.5617    1.6551 H   0  0  0  0  0  0  0  0  0  0  0  0
  1  2  1  0
  2  3  2  0
  2  4  1  0
  4  5  1  0
  5  6  1  0
  6  7  1  0
  7  8  2  0
  7  9  1  0
  9 10  1  0
 10 11  1  0
 11 12  2  0
 12 13  1  0
 13 14  2  0
 14 15  1  0
 15 16  2  0
  9 17  1  0
 17 18  1  0
 18 19  2  0
 18 20  1  0
 20 21  1  0
 21 22  1  0
 22 23  2  0
 23 24  1  0
 24 25  2  0
 25 26  1  0
  5 27  1  0
 27 28  2  0
 27 29  1  0
 29 30  1  0
 29 31  1  0
 29 32  1  0
 16 11  1  0
 26 22  1  0
  1 33  1  0
  1 34  1  0
  4 35  1  0
  4 36  1  0
  5 37  1  1
  6 38  1  0
  9 39  1  6
 10 40  1  0
 10 41  1  0
 12 42  1  0
 13 43  1  0
 14 44  1  0
 15 45  1  0
 16 46  1  0
 17 47  1  0
 21 48  1  0
 21 49  1  0
 24 50  1  0
 25 51  1  0
M  END
$$$$
[H]c1nn([C@]2([H])C([H])([H])C([H])([H])[C@@]([H])(C([H])(C([H])([H])[H])C([H])([H])[H])C([H])([H])C2([H])[H])c([H])c1C(=O)N([H])[C@]([H])(C(=O)N([H])c1c([H])c([H])c(C(F)(F)F)c([H])c1OC([H])([H])C([H])([H])[H])c1c([H])c([H])c(Cl)c([H])c1[H]
     RDKit          3D

 75 78  0  0  0  0  0  0  0  0999 V2000
   -5.6563    4.4613   -1.3069 C   0  0  0  0  0  0  0  0  0  0  0  0
   -4.6811    3.7873   -0.3973 C   0  0  0  0  0  0  0  0  0  0  0  0
   -4.6489    2.4144   -0.4086 O   0  0  0  0  0  0  0  0  0  0  0  0
   -5.6362    1.5363   -0.0706 C   0  0  0  0  0  0  0  0  0  0  0  0
   -6.8743    1.9475    0.3043 C   0  0  0  0  0  0  0  0  0  0  0  0
   -7.8884    1.0281    0.6574 C   0  0  0  0  0  0  0  0  0  0  0  0
   -7.5622   -0.3166    0.6139 C   0  0  0  0  0  0  0  0  0  0  0  0
   -6.3253   -0.7303    0.2433 C   0  0  0  0  0  0  0  0  0  0  0  0
   -5.3616    0.1976   -0.1066 C   0  0  0  0  0  0  0  0  0  0  0  0
   -4.2345   -0.3308   -0.7923 N   0  0  0  0  0  0  0  0  0  0  0  0
   -3.3996   -1.2162   -0.0524 C   0  0  0  0  0  0  0  0  0  0  0  0
   -3.6962   -1.3685    1.2083 O   0  0  0  0  0  0  0  0  0  0  0  0
   -2.2357   -1.9823   -0.5509 C   0  0  1  0  0  0  0  0  0  0  0  0
   -1.0717   -1.6963    0.2625 N   0  0  0  0  0  0  0  0  0  0  0  0
    0.0950   -1.1660   -0.3725 C   0  0  0  0  0  0  0  0  0  0  0  0
    0.0332   -0.9819   -1.6326 O   0  0  0  0  0  0  0  0  0  0  0  0
    1.3138   -0.8232    0.2912 C   0  0  0  0  0  0  0  0  0  0  0  0
    1.4874   -0.4567    1.5961 C   0  0  0  0  0  0  0  0  0  0  0  0
    2.7710   -0.2307    1.7660 N   0  0  0  0  0  0  0  0  0  0  0  0
    3.4845   -0.4129    0.6769 N   0  0  0  0  0  0  0  0  0  0  0  0
    2.5919   -0.7905   -0.2825 C   0  0  0  0  0  0  0  0  0  0  0  0
    4.9266   -0.2648    0.5463 C   0  0  1  0  0  0  0  0  0  0  0  0
    5.4545   -0.1713   -0.8290 C   0  0  0  0  0  0  0  0  0  0  0  0
    6.0604    1.1255   -1.2503 C   0  0  0  0  0  0  0  0  0  0  0  0
    6.9644    1.7696   -0.2531 C   0  0  1  0  0  0  0  0  0  0  0  0
    6.0701    1.9688    0.9722 C   0  0  0  0  0  0  0  0  0  0  0  0
    5.4841    0.7305    1.5108 C   0  0  0  0  0  0  0  0  0  0  0  0
    8.2607    1.1524    0.0195 C   0  0  0  0  0  0  0  0  0  0  0  0
    9.0045    1.9890    1.0266 C   0  0  0  0  0  0  0  0  0  0  0  0
    9.1496    0.9422   -1.1518 C   0  0  0  0  0  0  0  0  0  0  0  0
   -2.6611   -3.4294   -0.3862 C   0  0  0  0  0  0  0  0  0  0  0  0
   -2.9405   -4.1333   -1.5390 C   0  0  0  0  0  0  0  0  0  0  0  0
   -3.4309   -5.4272   -1.4349 C   0  0  0  0  0  0  0  0  0  0  0  0
   -3.6238   -5.9787   -0.1977 C   0  0  0  0  0  0  0  0  0  0  0  0
   -4.2911   -7.6018    0.0004 Cl  0  0  0  0  0  0  0  0  0  0  0  0
   -3.3409   -5.2796    0.9528 C   0  0  0  0  0  0  0  0  0  0  0  0
   -2.8528   -3.9934    0.8296 C   0  0  0  0  0  0  0  0  0  0  0  0
   -9.2734    1.4541    0.9923 C   0  0  0  0  0  0  0  0  0  0  0  0
  -10.1387    1.0740   -0.0495 F   0  0  0  0  0  0  0  0  0  0  0  0
   -9.3111    2.8470    1.0030 F   0  0  0  0  0  0  0  0  0  0  0  0
   -9.7068    0.9679    2.2021 F   0  0  0  0  0  0  0  0  0  0  0  0
   -5.1450    5.2826   -1.8817 H   0  0  0  0  0  0  0  0  0  0  0  0
   -6.4738    4.9579   -0.7508 H   0  0  0  0  0  0  0  0  0  0  0  0
   -6.0706    3.7408   -2.0319 H   0  0  0  0  0  0  0  0  0  0  0  0
   -4.9582    4.1331    0.6695 H   0  0  0  0  0  0  0  0  0  0  0  0
   -3.6559    4.2322   -0.5655 H   0  0  0  0  0  0  0  0  0  0  0  0
   -7.1914    2.9917    0.3714 H   0  0  0  0  0  0  0  0  0  0  0  0
   -8.3192   -1.0513    0.8726 H   0  0  0  0  0  0  0  0  0  0  0  0
   -6.0482   -1.7642    0.1981 H   0  0  0  0  0  0  0  0  0  0  0  0
   -4.0445   -0.1024   -1.7859 H   0  0  0  0  0  0  0  0  0  0  0  0
   -2.1103   -1.7668   -1.6119 H   0  0  0  0  0  0  0  0  0  0  0  0
   -1.0819   -1.8658    1.2688 H   0  0  0  0  0  0  0  0  0  0  0  0
    0.7321   -0.3581    2.3865 H   0  0  0  0  0  0  0  0  0  0  0  0
    2.7587   -1.0355   -1.3195 H   0  0  0  0  0  0  0  0  0  0  0  0
    5.3035   -1.2654    0.9601 H   0  0  0  0  0  0  0  0  0  0  0  0
    6.1531   -1.0315   -1.0654 H   0  0  0  0  0  0  0  0  0  0  0  0
    4.6140   -0.3523   -1.5306 H   0  0  0  0  0  0  0  0  0  0  0  0
    5.2172    1.8235   -1.4257 H   0  0  0  0  0  0  0  0  0  0  0  0
    6.5262    0.9685   -2.2548 H   0  0  0  0  0  0  0  0  0  0  0  0
    7.1389    2.8253   -0.6474 H   0  0  0  0  0  0  0  0  0  0  0  0
    5.2832    2.7377    0.6591 H   0  0  0  0  0  0  0  0  0  0  0  0
    6.6533    2.4706    1.7679 H   0  0  0  0  0  0  0  0  0  0  0  0
    6.2356    0.2837    2.2165 H   0  0  0  0  0  0  0  0  0  0  0  0
    4.6350    1.0439    2.1959 H   0  0  0  0  0  0  0  0  0  0  0  0
    8.0977    0.1568    0.5381 H   0  0  0  0  0  0  0  0  0  0  0  0
   10.1120    1.7799    0.9840 H   0  0  0  0  0  0  0  0  0  0  0  0
    8.5958    2.0040    2.0322 H   0  0  0  0  0  0  0  0  0  0  0  0
    8.9412    3.0510    0.6355 H   0  0  0  0  0  0  0  0  0  0  0  0
    9.7047   -0.0521   -1.0148 H   0  0  0  0  0  0  0  0  0  0  0  0
    9.9875    1.6714   -1.2400 H   0  0  0  0  0  0  0  0  0  0  0  0
    8.6733    0.8702   -2.1242 H   0  0  0  0  0  0  0  0  0  0  0  0
   -2.8093   -3.7680   -2.5379 H   0  0  0  0  0  0  0  0  0  0  0  0
   -3.6561   -6.0153   -2.3339 H   0  0  0  0  0  0  0  0  0  0  0  0
   -3.4908   -5.7468    1.9324 H   0  0  0  0  0  0  0  0  0  0  0  0
   -2.6164   -3.4604    1.7352 H   0  0  0  0  0  0  0  0  0  0  0  0
  1  2  1  0
  2  3  1  0
  3  4  1  0
  4  5  2  0
  5  6  1  0
  6  7  2  0
  7  8  1  0
  8  9  2  0
  9 10  1  0
 10 11  1  0
 11 12  2  0
 11 13  1  0
 13 14  1  0
 14 15  1  0
 15 16  2  0
 15 17  1  0
 17 18  1  0
 18 19  2  0
 19 20  1  0
 20 21  1  0
 20 22  1  0
 22 23  1  0
 23 24  1  0
 24 25  1  0
 25 26  1  0
 26 27  1  0
 25 28  1  0
 28 29  1  0
 28 30  1  0
 13 31  1  0
 31 32  2  0
 32 33  1  0
 33 34  2  0
 34 35  1  0
 34 36  1  0
 36 37  2  0
  6 38  1  0
 38 39  1  0
 38 40  1  0
 38 41  1  0
  9  4  1  0
 21 17  2  0
 27 22  1  0
 37 31  1  0
  1 42  1  0
  1 43  1  0
  1 44  1  0
  2 45  1  0
  2 46  1  0
  5 47  1  0
  7 48  1  0
  8 49  1  0
 10 50  1  0
 13 51  1  6
 14 52  1  0
 18 53  1  0
 21 54  1  0
 22 55  1  1
 23 56  1  0
 23 57  1  0
 24 58  1  0
 24 59  1  0
 25 60  1  6
 26 61  1  0
 26 62  1  0
 27 63  1  0
 27 64  1  0
 28 65  1  0
 29 66  1  0
 29 67  1  0
 29 68  1  0
 30 69  1  0
 30 70  1  0
 30 71  1  0
 32 72  1  0
 33 73  1  0
 36 74  1  0
 37 75  1  0
M  END
$$$$
[H]c1nc(C([H])([H])N(c2c([H])nc([H])c([H])c2C([H])([H])[H])S(=O)(=O)c2c([H])c([H])c(OC([H])(C([H])([H])[H])C([H])([H])[H])c([H])c2[H])c([H])c([H])c1[H]
     RDKit          3D

 51 53  0  0  0  0  0  0  0  0999 V2000
    6.9162   -1.1647    0.8439 C   0  0  0  0  0  0  0  0  0  0  0  0
    5.7222   -1.0448   -0.1146 C   0  0  0  0  0  0  0  0  0  0  0  0
    6.2711   -0.7654   -1.5166 C   0  0  0  0  0  0  0  0  0  0  0  0
    4.9744    0.0464    0.2713 O   0  0  0  0  0  0  0  0  0  0  0  0
    3.6241    0.0864    0.6046 C   0  0  0  0  0  0  0  0  0  0  0  0
    3.0330    1.2917    0.9742 C   0  0  0  0  0  0  0  0  0  0  0  0
    1.7023    1.3692    1.3098 C   0  0  0  0  0  0  0  0  0  0  0  0
    0.8785    0.2639    1.3004 C   0  0  0  0  0  0  0  0  0  0  0  0
    1.4549   -0.9293    0.9367 C   0  0  0  0  0  0  0  0  0  0  0  0
    2.8047   -1.0186    0.5942 C   0  0  0  0  0  0  0  0  0  0  0  0
   -0.8360    0.3479    1.7298 S   0  0  0  0  0  0  0  0  0  0  0  0
   -0.9405    1.4486    2.7515 O   0  0  0  0  0  0  0  0  0  0  0  0
   -1.2576   -0.9596    2.3144 O   0  0  0  0  0  0  0  0  0  0  0  0
   -1.7918    0.6671    0.3323 N   0  0  0  0  0  0  0  0  0  0  0  0
   -1.8187   -0.2308   -0.7525 C   0  0  0  0  0  0  0  0  0  0  0  0
   -2.6741   -1.3867   -0.8400 C   0  0  0  0  0  0  0  0  0  0  0  0
   -3.5058   -1.9496    0.0780 C   0  0  0  0  0  0  0  0  0  0  0  0
   -4.2593   -3.0993   -0.1919 C   0  0  0  0  0  0  0  0  0  0  0  0
   -4.1758   -3.7050   -1.4248 C   0  0  0  0  0  0  0  0  0  0  0  0
   -3.3287   -3.1215   -2.3433 C   0  0  0  0  0  0  0  0  0  0  0  0
   -2.6344   -2.0410   -2.0579 N   0  0  0  0  0  0  0  0  0  0  0  0
   -2.4068    1.9603    0.2636 C   0  0  0  0  0  0  0  0  0  0  0  0
   -1.7077    2.9864   -0.4026 C   0  0  0  0  0  0  0  0  0  0  0  0
   -2.1996    4.2170   -0.5568 N   0  0  0  0  0  0  0  0  0  0  0  0
   -3.4170    4.5605   -0.0763 C   0  0  0  0  0  0  0  0  0  0  0  0
   -4.1028    3.5663    0.5742 C   0  0  0  0  0  0  0  0  0  0  0  0
   -3.6241    2.2721    0.7559 C   0  0  0  0  0  0  0  0  0  0  0  0
   -4.4916    1.3639    1.5125 C   0  0  0  0  0  0  0  0  0  0  0  0
    6.9951   -0.2533    1.4817 H   0  0  0  0  0  0  0  0  0  0  0  0
    7.8474   -1.3541    0.2964 H   0  0  0  0  0  0  0  0  0  0  0  0
    6.6777   -2.0150    1.5267 H   0  0  0  0  0  0  0  0  0  0  0  0
    5.1806   -1.9839   -0.1603 H   0  0  0  0  0  0  0  0  0  0  0  0
    6.8532    0.1796   -1.5308 H   0  0  0  0  0  0  0  0  0  0  0  0
    5.4393   -0.6937   -2.2216 H   0  0  0  0  0  0  0  0  0  0  0  0
    6.9217   -1.5965   -1.8381 H   0  0  0  0  0  0  0  0  0  0  0  0
    3.6544    2.1660    0.9890 H   0  0  0  0  0  0  0  0  0  0  0  0
    1.2269    2.3104    1.6018 H   0  0  0  0  0  0  0  0  0  0  0  0
    0.8519   -1.8141    0.9155 H   0  0  0  0  0  0  0  0  0  0  0  0
    3.2411   -1.9665    0.3104 H   0  0  0  0  0  0  0  0  0  0  0  0
   -1.9729    0.3420   -1.7389 H   0  0  0  0  0  0  0  0  0  0  0  0
   -0.7281   -0.6122   -0.8835 H   0  0  0  0  0  0  0  0  0  0  0  0
   -3.6413   -1.5431    1.0673 H   0  0  0  0  0  0  0  0  0  0  0  0
   -4.9161   -3.5387    0.5424 H   0  0  0  0  0  0  0  0  0  0  0  0
   -4.7189   -4.5838   -1.7058 H   0  0  0  0  0  0  0  0  0  0  0  0
   -3.2333   -3.5762   -3.3435 H   0  0  0  0  0  0  0  0  0  0  0  0
   -0.7390    2.7660   -0.8019 H   0  0  0  0  0  0  0  0  0  0  0  0
   -3.8002    5.5622   -0.2108 H   0  0  0  0  0  0  0  0  0  0  0  0
   -5.0916    3.8195    0.9726 H   0  0  0  0  0  0  0  0  0  0  0  0
   -3.9227    0.5940    2.0792 H   0  0  0  0  0  0  0  0  0  0  0  0
   -5.1189    1.9556    2.2079 H   0  0  0  0  0  0  0  0  0  0  0  0
   -5.2155    0.8042    0.8590 H   0  0  0  0  0  0  0  0  0  0  0  0
  1  2  1  0
  2  3  1  0
  2  4  1  0
  4  5  1  0
  5  6  2  0
  6  7  1  0
  7  8  2  0
  8  9  1  0
  9 10  2  0
  8 11  1  0
 11 12  2  0
 11 13  2  0
 11 14  1  0
 14 15  1  0
 15 16  1  0
 16 17  2  0
 17 18  1  0
 18 19  2  0
 19 20  1  0
 20 21  2  0
 14 22  1  0
 22 23  2  0
 23 24  1  0
 24 25  2  0
 25 26  1  0
 26 27  2  0
 27 28  1  0
 10  5  1  0
 21 16  1  0
 27 22  1  0
  1 29  1  0
  1 30  1  0
  1 31  1  0
  2 32  1  0
  3 33  1  0
  3 34  1  0
  3 35  1  0
  6 36  1  0
  7 37  1  0
  9 38  1  0
 10 39  1  0
 15 40  1  0
 15 41  1  0
 17 42  1  0
 18 43  1  0
 19 44  1  0
 20 45  1  0
 23 46  1  0
 25 47  1  0
 26 48  1  0
 28 49  1  0
 28 50  1  0
 28 51  1  0
M  END
$$$$
[H]c1c([H])c(N([H])C(=O)N([H])c2c([H])c(Cl)c(C(=O)N([H])C3([H])C([H])([H])C([H])([H])N(C([H])([H])C([H])([H])N4C([H])([H])C([H])([H])OC([H])([H])C4([H])[H])C([H])([H])C3([H])[H])c([H])c2OC([H])([H])[H])c([H])c([H])c1Cl
     RDKit          3D

 70 73  0  0  0  0  0  0  0  0999 V2000
    4.4492   -1.8655    2.4077 C   0  0  0  0  0  0  0  0  0  0  0  0
    4.6981   -1.5086    1.0824 O   0  0  0  0  0  0  0  0  0  0  0  0
    3.8432   -0.9164    0.2113 C   0  0  0  0  0  0  0  0  0  0  0  0
    2.5049   -0.4990    0.5795 C   0  0  0  0  0  0  0  0  0  0  0  0
    1.8031    0.1067   -0.4253 C   0  0  0  0  0  0  0  0  0  0  0  0
    0.3556    0.4313   -0.1920 C   0  0  0  0  0  0  0  0  0  0  0  0
    0.0987    1.6406   -0.0721 O   0  0  0  0  0  0  0  0  0  0  0  0
   -0.5014   -0.6426   -0.1443 N   0  0  0  0  0  0  0  0  0  0  0  0
   -1.9212   -0.5472   -0.0394 C   0  0  0  0  0  0  0  0  0  0  0  0
   -2.4252    0.3545    1.0211 C   0  0  0  0  0  0  0  0  0  0  0  0
   -3.7036   -0.0043    1.6404 C   0  0  0  0  0  0  0  0  0  0  0  0
   -4.5495   -0.9555    0.8862 N   0  0  0  0  0  0  0  0  0  0  0  0
   -5.0172   -0.3697   -0.3562 C   0  0  0  0  0  0  0  0  0  0  0  0
   -6.0314    0.7021   -0.2033 C   0  0  0  0  0  0  0  0  0  0  0  0
   -7.3810    0.2595    0.0837 N   0  0  0  0  0  0  0  0  0  0  0  0
   -8.0294   -0.2412   -1.1108 C   0  0  0  0  0  0  0  0  0  0  0  0
   -8.7532    0.9171   -1.7745 C   0  0  0  0  0  0  0  0  0  0  0  0
   -9.7095    1.4813   -0.9035 O   0  0  0  0  0  0  0  0  0  0  0  0
   -9.5998    1.0483    0.3932 C   0  0  0  0  0  0  0  0  0  0  0  0
   -8.1580    1.0991    0.8982 C   0  0  0  0  0  0  0  0  0  0  0  0
   -3.7561   -2.0959    0.6724 C   0  0  0  0  0  0  0  0  0  0  0  0
   -2.4956   -1.8942   -0.0976 C   0  0  0  0  0  0  0  0  0  0  0  0
    2.3156    0.3057   -1.6843 C   0  0  0  0  0  0  0  0  0  0  0  0
    1.2252    1.0760   -2.8716 Cl  0  0  0  0  0  0  0  0  0  0  0  0
    3.5625   -0.0811   -2.0363 C   0  0  0  0  0  0  0  0  0  0  0  0
    4.3228   -0.7046   -1.0649 C   0  0  0  0  0  0  0  0  0  0  0  0
    5.5668   -1.2858   -1.3681 N   0  0  0  0  0  0  0  0  0  0  0  0
    6.3696    0.0611   -0.6239 C   0  0  0  0  0  0  0  0  0  0  0  0
    5.6432    0.8487   -0.1589 O   0  0  0  0  0  0  0  0  0  0  0  0
    7.6873   -0.1630   -0.7548 N   0  0  0  0  0  0  0  0  0  0  0  0
    8.7620    0.5895   -0.2554 C   0  0  0  0  0  0  0  0  0  0  0  0
    9.5821    1.1795   -1.2100 C   0  0  0  0  0  0  0  0  0  0  0  0
   10.6894    1.8881   -0.8457 C   0  0  0  0  0  0  0  0  0  0  0  0
   11.0164    2.0059    0.5067 C   0  0  0  0  0  0  0  0  0  0  0  0
   12.4070    2.9837    0.8761 Cl  0  0  0  0  0  0  0  0  0  0  0  0
   10.2188    1.4007    1.4679 C   0  0  0  0  0  0  0  0  0  0  0  0
    9.0756    0.6955    1.0762 C   0  0  0  0  0  0  0  0  0  0  0  0
    3.4863   -2.3616    2.4735 H   0  0  0  0  0  0  0  0  0  0  0  0
    5.2703   -2.5378    2.7471 H   0  0  0  0  0  0  0  0  0  0  0  0
    4.5148   -0.9501    3.0512 H   0  0  0  0  0  0  0  0  0  0  0  0
    2.1285   -0.6805    1.5647 H   0  0  0  0  0  0  0  0  0  0  0  0
   -0.0631   -1.6327   -0.1468 H   0  0  0  0  0  0  0  0  0  0  0  0
   -2.2105    0.0154   -1.0144 H   0  0  0  0  0  0  0  0  0  0  0  0
   -2.5317    1.4252    0.5734 H   0  0  0  0  0  0  0  0  0  0  0  0
   -1.6460    0.5150    1.7888 H   0  0  0  0  0  0  0  0  0  0  0  0
   -4.3471    0.8619    1.9177 H   0  0  0  0  0  0  0  0  0  0  0  0
   -3.5121   -0.5248    2.6244 H   0  0  0  0  0  0  0  0  0  0  0  0
   -4.3263   -0.1001   -1.1133 H   0  0  0  0  0  0  0  0  0  0  0  0
   -5.5949   -1.2456   -0.8113 H   0  0  0  0  0  0  0  0  0  0  0  0
   -5.7834    1.4327    0.6017 H   0  0  0  0  0  0  0  0  0  0  0  0
   -6.1124    1.3195   -1.1345 H   0  0  0  0  0  0  0  0  0  0  0  0
   -7.1885   -0.4824   -1.8400 H   0  0  0  0  0  0  0  0  0  0  0  0
   -8.6306   -1.1283   -0.9851 H   0  0  0  0  0  0  0  0  0  0  0  0
   -9.3202    0.5122   -2.6284 H   0  0  0  0  0  0  0  0  0  0  0  0
   -8.0726    1.6852   -2.1149 H   0  0  0  0  0  0  0  0  0  0  0  0
   -9.9827    0.0199    0.5595 H   0  0  0  0  0  0  0  0  0  0  0  0
  -10.1832    1.7210    1.0460 H   0  0  0  0  0  0  0  0  0  0  0  0
   -8.1885    0.6366    1.9326 H   0  0  0  0  0  0  0  0  0  0  0  0
   -7.8188    2.1213    1.0781 H   0  0  0  0  0  0  0  0  0  0  0  0
   -3.4107   -2.4468    1.7111 H   0  0  0  0  0  0  0  0  0  0  0  0
   -4.2864   -2.9524    0.2290 H   0  0  0  0  0  0  0  0  0  0  0  0
   -1.7592   -2.7019    0.3111 H   0  0  0  0  0  0  0  0  0  0  0  0
   -2.6412   -2.2546   -1.1371 H   0  0  0  0  0  0  0  0  0  0  0  0
    4.0111    0.0437   -3.0073 H   0  0  0  0  0  0  0  0  0  0  0  0
    6.4183   -1.6792   -1.5732 H   0  0  0  0  0  0  0  0  0  0  0  0
    8.0778   -1.0245   -1.3191 H   0  0  0  0  0  0  0  0  0  0  0  0
    9.3132    1.0390   -2.2678 H   0  0  0  0  0  0  0  0  0  0  0  0
   11.3406    2.3472   -1.5877 H   0  0  0  0  0  0  0  0  0  0  0  0
   10.4588    1.4914    2.5160 H   0  0  0  0  0  0  0  0  0  0  0  0
    8.4255    0.2155    1.7751 H   0  0  0  0  0  0  0  0  0  0  0  0
  1  2  1  0
  2  3  1  0
  3  4  2  0
  4  5  1  0
  5  6  1  0
  6  7  2  0
  6  8  1  0
  8  9  1  0
  9 10  1  0
 10 11  1  0
 11 12  1  0
 12 13  1  0
 13 14  1  0
 14 15  1  0
 15 16  1  0
 16 17  1  0
 17 18  1  0
 18 19  1  0
 19 20  1  0
 12 21  1  0
 21 22  1  0
  5 23  2  0
 23 24  1  0
 23 25  1  0
 25 26  2  0
 26 27  1  0
 27 28  1  0
 28 29  2  0
 28 30  1  0
 30 31  1  0
 31 32  2  0
 32 33  1  0
 33 34  2  0
 34 35  1  0
 34 36  1  0
 36 37  2  0
 26  3  1  0
 37 31  1  0
 22  9  1  0
 20 15  1  0
  1 38  1  0
  1 39  1  0
  1 40  1  0
  4 41  1  0
  8 42  1  0
  9 43  1  0
 10 44  1  0
 10 45  1  0
 11 46  1  0
 11 47  1  0
 13 48  1  0
 13 49  1  0
 14 50  1  0
 14 51  1  0
 16 52  1  0
 16 53  1  0
 17 54  1  0
 17 55  1  0
 19 56  1  0
 19 57  1  0
 20 58  1  0
 20 59  1  0
 21 60  1  0
 21 61  1  0
 22 62  1  0
 22 63  1  0
 25 64  1  0
 27 65  1  0
 30 66  1  0
 32 67  1  0
 33 68  1  0
 36 69  1  0
 37 70  1  0
M  END
$$$$
[H]Oc1nc([C@@]([H])(N([H])C(=O)c2oc3c([H])c([H])c([H])c([H])c3c2[H])C([H])([H])c2c([H])c([H])c(O[H])c([H])c2[H])c([H])s1
     RDKit          3D

 43 46  0  0  0  0  0  0  0  0999 V2000
   -1.4277   -1.5314    4.5190 O   0  0  0  0  0  0  0  0  0  0  0  0
   -1.6421   -0.5928    3.4792 C   0  0  0  0  0  0  0  0  0  0  0  0
   -1.1394   -0.6033    2.2585 N   0  0  0  0  0  0  0  0  0  0  0  0
   -1.4406    0.3426    1.4205 C   0  0  0  0  0  0  0  0  0  0  0  0
   -2.2919    1.3264    1.8740 C   0  0  0  0  0  0  0  0  0  0  0  0
   -2.5994    0.8202    3.4766 S   0  0  0  0  0  0  0  0  0  0  0  0
   -0.9210    0.4335   -0.0074 C   0  0  2  0  0  0  0  0  0  0  0  0
   -1.6872   -0.5064   -0.9036 C   0  0  0  0  0  0  0  0  0  0  0  0
   -3.1301   -0.1905   -0.9277 C   0  0  0  0  0  0  0  0  0  0  0  0
   -3.9980   -0.7739   -0.0305 C   0  0  0  0  0  0  0  0  0  0  0  0
   -5.3521   -0.4914   -0.0361 C   0  0  0  0  0  0  0  0  0  0  0  0
   -5.8809    0.3907   -0.9477 C   0  0  0  0  0  0  0  0  0  0  0  0
   -7.2575    0.6881   -0.9655 O   0  0  0  0  0  0  0  0  0  0  0  0
   -5.0230    0.9838   -1.8539 C   0  0  0  0  0  0  0  0  0  0  0  0
   -3.6656    0.6898   -1.8356 C   0  0  0  0  0  0  0  0  0  0  0  0
    0.4930    0.1454   -0.0545 N   0  0  0  0  0  0  0  0  0  0  0  0
    1.4817    1.0036   -0.5145 C   0  0  0  0  0  0  0  0  0  0  0  0
    1.1970    2.1391   -0.9393 O   0  0  0  0  0  0  0  0  0  0  0  0
    2.8781    0.6022   -0.5140 C   0  0  0  0  0  0  0  0  0  0  0  0
    3.4041   -0.6196   -0.0822 C   0  0  0  0  0  0  0  0  0  0  0  0
    4.7656   -0.5947   -0.2495 C   0  0  0  0  0  0  0  0  0  0  0  0
    5.8114   -1.4932   -0.0081 C   0  0  0  0  0  0  0  0  0  0  0  0
    7.1072   -1.1541   -0.2944 C   0  0  0  0  0  0  0  0  0  0  0  0
    7.3671    0.0854   -0.8241 C   0  0  0  0  0  0  0  0  0  0  0  0
    6.3559    0.9834   -1.0693 C   0  0  0  0  0  0  0  0  0  0  0  0
    5.0343    0.6475   -0.7813 C   0  0  0  0  0  0  0  0  0  0  0  0
    3.9126    1.2985   -0.9141 O   0  0  0  0  0  0  0  0  0  0  0  0
   -2.1702   -1.6142    5.2042 H   0  0  0  0  0  0  0  0  0  0  0  0
   -2.6716    2.2117    1.3304 H   0  0  0  0  0  0  0  0  0  0  0  0
   -1.0435    1.4563   -0.4055 H   0  0  0  0  0  0  0  0  0  0  0  0
   -1.2615   -0.5750   -1.9094 H   0  0  0  0  0  0  0  0  0  0  0  0
   -1.5864   -1.5207   -0.4422 H   0  0  0  0  0  0  0  0  0  0  0  0
   -3.6082   -1.4710    0.6963 H   0  0  0  0  0  0  0  0  0  0  0  0
   -6.0135   -0.9565    0.6718 H   0  0  0  0  0  0  0  0  0  0  0  0
   -7.5918    1.3416   -1.6547 H   0  0  0  0  0  0  0  0  0  0  0  0
   -5.4298    1.6828   -2.5793 H   0  0  0  0  0  0  0  0  0  0  0  0
   -3.0178    1.1593   -2.5453 H   0  0  0  0  0  0  0  0  0  0  0  0
    0.7664   -0.8092    0.2987 H   0  0  0  0  0  0  0  0  0  0  0  0
    2.8304   -1.4390    0.3143 H   0  0  0  0  0  0  0  0  0  0  0  0
    5.5693   -2.4600    0.4096 H   0  0  0  0  0  0  0  0  0  0  0  0
    7.9278   -1.8223   -0.1198 H   0  0  0  0  0  0  0  0  0  0  0  0
    8.3779    0.3720   -1.0563 H   0  0  0  0  0  0  0  0  0  0  0  0
    6.5711    1.9589   -1.4874 H   0  0  0  0  0  0  0  0  0  0  0  0
  1  2  1  0
  2  3  2  0
  3  4  1  0
  4  5  2  0
  5  6  1  0
  4  7  1  0
  7  8  1  0
  8  9  1  0
  9 10  2  0
 10 11  1  0
 11 12  2  0
 12 13  1  0
 12 14  1  0
 14 15  2  0
  7 16  1  0
 16 17  1  0
 17 18  2  0
 17 19  1  0
 19 20  2  0
 20 21  1  0
 21 22  2  0
 22 23  1  0
 23 24  2  0
 24 25  1  0
 25 26  2  0
 26 27  1  0
  6  2  1  0
 15  9  1  0
 27 19  1  0
 26 21  1  0
  1 28  1  0
  5 29  1  0
  7 30  1  6
  8 31  1  0
  8 32  1  0
 10 33  1  0
 11 34  1  0
 13 35  1  0
 14 36  1  0
 15 37  1  0
 16 38  1  0
 20 39  1  0
 22 40  1  0
 23 41  1  0
 24 42  1  0
 25 43  1  0
M  END
$$$$
