[H]c1nc2c(c([H])c1-c1c([H])c([H])c(N3C([H])([H])C([H])([H])N(C([H])([H])[H])C([H])([H])C3([H])[H])c([H])c1[H])c([H])c([H])n2[H]
     RDKit          3D

 42 45  0  0  0  0  0  0  0  0999 V2000
   -6.0046   -0.1617   -0.7406 C   0  0  0  0  0  0  0  0  0  0  0  0
   -5.2750    0.1524    0.4729 N   0  0  0  0  0  0  0  0  0  0  0  0
   -4.5028    1.3474    0.3623 C   0  0  0  0  0  0  0  0  0  0  0  0
   -3.3485    1.2844   -0.5856 C   0  0  0  0  0  0  0  0  0  0  0  0
   -2.5680    0.0803   -0.3857 N   0  0  0  0  0  0  0  0  0  0  0  0
   -3.3614   -1.1486   -0.2582 C   0  0  0  0  0  0  0  0  0  0  0  0
   -4.3671   -0.9183    0.8473 C   0  0  0  0  0  0  0  0  0  0  0  0
   -1.1440    0.0667   -0.3358 C   0  0  0  0  0  0  0  0  0  0  0  0
   -0.4414    1.1357   -0.8440 C   0  0  0  0  0  0  0  0  0  0  0  0
    0.9593    1.1670   -0.8040 C   0  0  0  0  0  0  0  0  0  0  0  0
    1.6854    0.1479   -0.2647 C   0  0  0  0  0  0  0  0  0  0  0  0
    0.9957   -0.9286    0.2476 C   0  0  0  0  0  0  0  0  0  0  0  0
   -0.4039   -0.9586    0.2075 C   0  0  0  0  0  0  0  0  0  0  0  0
    3.1509    0.1549   -0.2118 C   0  0  0  0  0  0  0  0  0  0  0  0
    3.8482    0.7847   -1.2099 C   0  0  0  0  0  0  0  0  0  0  0  0
    5.1799    0.7971   -1.1740 N   0  0  0  0  0  0  0  0  0  0  0  0
    5.8564    0.1909   -0.1561 C   0  0  0  0  0  0  0  0  0  0  0  0
    7.1733    0.0844    0.0734 N   0  0  0  0  0  0  0  0  0  0  0  0
    7.3837   -0.6039    1.2056 C   0  0  0  0  0  0  0  0  0  0  0  0
    6.1482   -0.9442    1.7087 C   0  0  0  0  0  0  0  0  0  0  0  0
    5.1862   -0.4490    0.8598 C   0  0  0  0  0  0  0  0  0  0  0  0
    3.7993   -0.4734    0.8410 C   0  0  0  0  0  0  0  0  0  0  0  0
   -6.9651    0.4076   -0.7273 H   0  0  0  0  0  0  0  0  0  0  0  0
   -6.2561   -1.2418   -0.7047 H   0  0  0  0  0  0  0  0  0  0  0  0
   -5.4023    0.0921   -1.6459 H   0  0  0  0  0  0  0  0  0  0  0  0
   -4.1200    1.5936    1.3851 H   0  0  0  0  0  0  0  0  0  0  0  0
   -5.1707    2.1879    0.0834 H   0  0  0  0  0  0  0  0  0  0  0  0
   -3.6593    1.3961   -1.6442 H   0  0  0  0  0  0  0  0  0  0  0  0
   -2.6836    2.1510   -0.3444 H   0  0  0  0  0  0  0  0  0  0  0  0
   -3.9723   -1.2933   -1.1860 H   0  0  0  0  0  0  0  0  0  0  0  0
   -2.7720   -2.0434   -0.0873 H   0  0  0  0  0  0  0  0  0  0  0  0
   -4.9446   -1.8152    1.0962 H   0  0  0  0  0  0  0  0  0  0  0  0
   -3.8235   -0.5854    1.7415 H   0  0  0  0  0  0  0  0  0  0  0  0
   -0.9614    1.9790   -1.2953 H   0  0  0  0  0  0  0  0  0  0  0  0
    1.4325    2.0239   -1.2142 H   0  0  0  0  0  0  0  0  0  0  0  0
    1.4953   -1.7715    0.6895 H   0  0  0  0  0  0  0  0  0  0  0  0
   -0.9251   -1.8136    0.6200 H   0  0  0  0  0  0  0  0  0  0  0  0
    3.2703    1.2621   -2.0133 H   0  0  0  0  0  0  0  0  0  0  0  0
    7.9397    0.4731   -0.5276 H   0  0  0  0  0  0  0  0  0  0  0  0
    8.3524   -0.8578    1.6609 H   0  0  0  0  0  0  0  0  0  0  0  0
    5.9316   -1.5092    2.6218 H   0  0  0  0  0  0  0  0  0  0  0  0
    3.2845   -0.9742    1.6359 H   0  0  0  0  0  0  0  0  0  0  0  0
  1  2  1  0
  2  3  1  0
  3  4  1  0
  4  5  1  0
  5  6  1  0
  6  7  1  0
  5  8  1  0
  8  9  2  0
  9 10  1  0
 10 11  2  0
 11 12  1  0
 12 13  2  0
 11 14  1  0
 14 15  2  0
 15 16  1  0
 16 17  2  0
 17 18  1  0
 18 19  1  0
 19 20  2  0
 20 21  1  0
 21 22  2  0
  7  2  1  0
 13  8  1  0
 22 14  1  0
 21 17  1  0
  1 23  1  0
  1 24  1  0
  1 25  1  0
  3 26  1  0
  3 27  1  0
  4 28  1  0
  4 29  1  0
  6 30  1  0
  6 31  1  0
  7 32  1  0
  7 33  1  0
  9 34  1  0
 10 35  1  0
 12 36  1  0
 13 37  1  0
 15 38  1  0
 18 39  1  0
 19 40  1  0
 20 41  1  0
 22 42  1  0
M  END
$$$$
[H]N=C(N([H])[H])N([H])C([H])([H])C([H])([H])C([H])([H])[C@@]1([H])C(=O)N([H])[C@]([H])(C([H])([H])c2c([H])c([H])c([H])c([H])c2[H])C(=O)N([H])[C@@]([H])(C([H])([H])c2c([H])c([H])c([H])c([H])c2[H])C(=O)N([H])[C@@]([H])(C([H])([H])c2c([H])c([H])c([H])c([H])c2[H])C(=O)N2C([H])([H])C([H])([H])C([H])([H])[C@@]2([H])C(=O)N([H])[C@@]([H])(C([H])([H])c2c([H])c([H])c([H])c([H])c2[H])C(=O)N([H])[C@@]([H])(C([H])([H])c2c([H])c([H])c([H])c([H])c2[H])C(=O)N1[H]
     RDKit          3D

137143  0  0  0  0  0  0  0  0999 V2000
    8.3569   -5.4658    0.8231 N   0  0  0  0  0  0  0  0  0  0  0  0
    7.0343   -5.9373    0.7037 C   0  0  0  0  0  0  0  0  0  0  0  0
    6.7944   -7.2200    0.8021 N   0  0  0  0  0  0  0  0  0  0  0  0
    5.9472   -5.0540    0.4616 N   0  0  0  0  0  0  0  0  0  0  0  0
    5.2073   -4.4494    1.5439 C   0  0  0  0  0  0  0  0  0  0  0  0
    4.0500   -3.6249    1.0302 C   0  0  0  0  0  0  0  0  0  0  0  0
    4.5467   -2.5180    0.1717 C   0  0  0  0  0  0  0  0  0  0  0  0
    3.3858   -1.6860   -0.4061 C   0  0  2  0  0  0  0  0  0  0  0  0
    3.9472   -0.6496   -1.2093 N   0  0  0  0  0  0  0  0  0  0  0  0
    3.4999    0.5495   -1.7267 C   0  0  0  0  0  0  0  0  0  0  0  0
    3.2746    0.5674   -3.0117 O   0  0  0  0  0  0  0  0  0  0  0  0
    3.1943    1.8780   -1.1874 C   0  0  2  0  0  0  0  0  0  0  0  0
    3.8477    3.0245   -1.9283 C   0  0  0  0  0  0  0  0  0  0  0  0
    5.3369    2.9885   -1.9254 C   0  0  0  0  0  0  0  0  0  0  0  0
    6.0433    2.4122   -2.9488 C   0  0  0  0  0  0  0  0  0  0  0  0
    7.4202    2.3902   -2.9180 C   0  0  0  0  0  0  0  0  0  0  0  0
    8.1354    2.9343   -1.8814 C   0  0  0  0  0  0  0  0  0  0  0  0
    7.4157    3.5121   -0.8575 C   0  0  0  0  0  0  0  0  0  0  0  0
    6.0522    3.5418   -0.8734 C   0  0  0  0  0  0  0  0  0  0  0  0
    3.4976    2.1073    0.1954 N   0  0  0  0  0  0  0  0  0  0  0  0
    2.5620    2.5698    1.1533 C   0  0  0  0  0  0  0  0  0  0  0  0
    2.8449    2.4127    2.3630 O   0  0  0  0  0  0  0  0  0  0  0  0
    1.2779    3.2182    0.8148 C   0  0  2  0  0  0  0  0  0  0  0  0
    1.1266    4.4920    1.6031 C   0  0  0  0  0  0  0  0  0  0  0  0
    2.1937    5.4911    1.3416 C   0  0  0  0  0  0  0  0  0  0  0  0
    2.1350    6.3313    0.2327 C   0  0  0  0  0  0  0  0  0  0  0  0
    3.1159    7.2764    0.0018 C   0  0  0  0  0  0  0  0  0  0  0  0
    4.1844    7.4197    0.8594 C   0  0  0  0  0  0  0  0  0  0  0  0
    4.2731    6.6115    1.9578 C   0  0  0  0  0  0  0  0  0  0  0  0
    3.2725    5.6684    2.1684 C   0  0  0  0  0  0  0  0  0  0  0  0
    0.2446    2.2540    1.0000 N   0  0  0  0  0  0  0  0  0  0  0  0
   -1.0393    2.1501    0.3999 C   0  0  0  0  0  0  0  0  0  0  0  0
   -1.2729    1.1306   -0.3632 O   0  0  0  0  0  0  0  0  0  0  0  0
   -2.1258    3.0787    0.5556 C   0  0  2  0  0  0  0  0  0  0  0  0
   -2.5917    3.3870    1.9568 C   0  0  0  0  0  0  0  0  0  0  0  0
   -3.9122    4.1355    1.7135 C   0  0  0  0  0  0  0  0  0  0  0  0
   -3.9916    4.1474    0.2017 C   0  0  0  0  0  0  0  0  0  0  0  0
   -3.3969    2.7957   -0.0624 N   0  0  0  0  0  0  0  0  0  0  0  0
   -3.8946    1.6668   -0.6861 C   0  0  0  0  0  0  0  0  0  0  0  0
   -4.0985    1.8092   -1.9670 O   0  0  0  0  0  0  0  0  0  0  0  0
   -4.2607    0.3169   -0.2465 C   0  0  2  0  0  0  0  0  0  0  0  0
   -5.7406    0.1118   -0.6118 C   0  0  0  0  0  0  0  0  0  0  0  0
   -6.6492    1.0874    0.0113 C   0  0  0  0  0  0  0  0  0  0  0  0
   -7.0554    0.9065    1.3172 C   0  0  0  0  0  0  0  0  0  0  0  0
   -7.9402    1.7726    1.9498 C   0  0  0  0  0  0  0  0  0  0  0  0
   -8.4244    2.8341    1.2638 C   0  0  0  0  0  0  0  0  0  0  0  0
   -8.0263    3.0240   -0.0397 C   0  0  0  0  0  0  0  0  0  0  0  0
   -7.1537    2.1706   -0.6643 C   0  0  0  0  0  0  0  0  0  0  0  0
   -4.1329   -0.0410    1.1105 N   0  0  0  0  0  0  0  0  0  0  0  0
   -3.6772   -1.2933    1.5921 C   0  0  0  0  0  0  0  0  0  0  0  0
   -3.8343   -1.4787    2.8508 O   0  0  0  0  0  0  0  0  0  0  0  0
   -3.0579   -2.3948    0.8652 C   0  0  2  0  0  0  0  0  0  0  0  0
   -3.8721   -3.6614    1.0127 C   0  0  0  0  0  0  0  0  0  0  0  0
   -5.2292   -3.6926    0.5538 C   0  0  0  0  0  0  0  0  0  0  0  0
   -6.2754   -3.4260    1.4300 C   0  0  0  0  0  0  0  0  0  0  0  0
   -7.6023   -3.4519    1.0524 C   0  0  0  0  0  0  0  0  0  0  0  0
   -7.9223   -3.7537   -0.2457 C   0  0  0  0  0  0  0  0  0  0  0  0
   -6.9036   -4.0244   -1.1435 C   0  0  0  0  0  0  0  0  0  0  0  0
   -5.5908   -3.9919   -0.7445 C   0  0  0  0  0  0  0  0  0  0  0  0
   -1.7654   -2.7754    1.4720 N   0  0  0  0  0  0  0  0  0  0  0  0
   -0.6078   -3.2611    0.8628 C   0  0  0  0  0  0  0  0  0  0  0  0
   -0.3006   -4.4860    1.1480 O   0  0  0  0  0  0  0  0  0  0  0  0
    0.3282   -2.5985   -0.0529 C   0  0  1  0  0  0  0  0  0  0  0  0
   -0.1220   -2.3406   -1.4397 C   0  0  0  0  0  0  0  0  0  0  0  0
   -0.4099   -3.6023   -2.1534 C   0  0  0  0  0  0  0  0  0  0  0  0
   -1.5884   -4.2416   -2.2871 C   0  0  0  0  0  0  0  0  0  0  0  0
   -1.7218   -5.4492   -2.9845 C   0  0  0  0  0  0  0  0  0  0  0  0
   -0.6068   -6.0135   -3.5612 C   0  0  0  0  0  0  0  0  0  0  0  0
    0.6208   -5.3952   -3.4514 C   0  0  0  0  0  0  0  0  0  0  0  0
    0.7041   -4.2131   -2.7582 C   0  0  0  0  0  0  0  0  0  0  0  0
    1.0392   -1.5006    0.5921 N   0  0  0  0  0  0  0  0  0  0  0  0
    2.4533   -1.3739    0.6571 C   0  0  0  0  0  0  0  0  0  0  0  0
    2.9025   -0.9511    1.7507 O   0  0  0  0  0  0  0  0  0  0  0  0
    8.8524   -5.0588    0.0011 H   0  0  0  0  0  0  0  0  0  0  0  0
    8.8744   -5.5078    1.7274 H   0  0  0  0  0  0  0  0  0  0  0  0
    5.8216   -7.5586    0.7150 H   0  0  0  0  0  0  0  0  0  0  0  0
    5.6837   -4.8456   -0.5274 H   0  0  0  0  0  0  0  0  0  0  0  0
    5.9494   -3.8032    2.0925 H   0  0  0  0  0  0  0  0  0  0  0  0
    4.8904   -5.2099    2.2817 H   0  0  0  0  0  0  0  0  0  0  0  0
    3.4746   -3.3171    1.9116 H   0  0  0  0  0  0  0  0  0  0  0  0
    3.3755   -4.3277    0.4737 H   0  0  0  0  0  0  0  0  0  0  0  0
    5.2895   -1.8700    0.6509 H   0  0  0  0  0  0  0  0  0  0  0  0
    5.0477   -2.9485   -0.7197 H   0  0  0  0  0  0  0  0  0  0  0  0
    2.8907   -2.4883   -1.0813 H   0  0  0  0  0  0  0  0  0  0  0  0
    4.9626   -0.8883   -1.4868 H   0  0  0  0  0  0  0  0  0  0  0  0
    2.0877    2.0511   -1.3877 H   0  0  0  0  0  0  0  0  0  0  0  0
    3.4735    3.0015   -2.9875 H   0  0  0  0  0  0  0  0  0  0  0  0
    3.5470    4.0003   -1.5378 H   0  0  0  0  0  0  0  0  0  0  0  0
    5.5309    1.9746   -3.8096 H   0  0  0  0  0  0  0  0  0  0  0  0
    7.9394    1.9190   -3.7586 H   0  0  0  0  0  0  0  0  0  0  0  0
    9.2252    2.8984   -1.8908 H   0  0  0  0  0  0  0  0  0  0  0  0
    7.9773    3.9413   -0.0402 H   0  0  0  0  0  0  0  0  0  0  0  0
    5.4811    3.9941   -0.0763 H   0  0  0  0  0  0  0  0  0  0  0  0
    4.4623    1.9179    0.5136 H   0  0  0  0  0  0  0  0  0  0  0  0
    1.4092    3.5628   -0.2467 H   0  0  0  0  0  0  0  0  0  0  0  0
    1.1955    4.2952    2.7153 H   0  0  0  0  0  0  0  0  0  0  0  0
    0.1127    4.9404    1.4814 H   0  0  0  0  0  0  0  0  0  0  0  0
    1.2943    6.1982   -0.4189 H   0  0  0  0  0  0  0  0  0  0  0  0
    3.0488    7.9178   -0.8669 H   0  0  0  0  0  0  0  0  0  0  0  0
    4.9701    8.1450    0.7111 H   0  0  0  0  0  0  0  0  0  0  0  0
    5.0752    6.6571    2.6807 H   0  0  0  0  0  0  0  0  0  0  0  0
    3.3584    5.0446    3.0713 H   0  0  0  0  0  0  0  0  0  0  0  0
    0.4656    1.4658    1.6971 H   0  0  0  0  0  0  0  0  0  0  0  0
   -1.7905    4.1001    0.1557 H   0  0  0  0  0  0  0  0  0  0  0  0
   -1.9129    4.1272    2.4212 H   0  0  0  0  0  0  0  0  0  0  0  0
   -2.7455    2.4873    2.5814 H   0  0  0  0  0  0  0  0  0  0  0  0
   -3.9017    5.1420    2.1442 H   0  0  0  0  0  0  0  0  0  0  0  0
   -4.7047    3.4794    2.1085 H   0  0  0  0  0  0  0  0  0  0  0  0
   -3.2711    4.9113   -0.1580 H   0  0  0  0  0  0  0  0  0  0  0  0
   -4.9438    4.3255   -0.2322 H   0  0  0  0  0  0  0  0  0  0  0  0
   -3.6617   -0.3782   -0.9302 H   0  0  0  0  0  0  0  0  0  0  0  0
   -6.0345   -0.9107   -0.3835 H   0  0  0  0  0  0  0  0  0  0  0  0
   -5.8811    0.2276   -1.7145 H   0  0  0  0  0  0  0  0  0  0  0  0
   -6.7042    0.0749    1.9223 H   0  0  0  0  0  0  0  0  0  0  0  0
   -8.2314    1.5905    2.9819 H   0  0  0  0  0  0  0  0  0  0  0  0
   -9.1186    3.5206    1.7451 H   0  0  0  0  0  0  0  0  0  0  0  0
   -8.4343    3.8851   -0.5683 H   0  0  0  0  0  0  0  0  0  0  0  0
   -6.8954    2.3811   -1.6719 H   0  0  0  0  0  0  0  0  0  0  0  0
   -4.4005    0.7063    1.8259 H   0  0  0  0  0  0  0  0  0  0  0  0
   -2.9286   -2.1987   -0.2147 H   0  0  0  0  0  0  0  0  0  0  0  0
   -3.3254   -4.5164    0.4856 H   0  0  0  0  0  0  0  0  0  0  0  0
   -3.7644   -3.9601    2.0895 H   0  0  0  0  0  0  0  0  0  0  0  0
   -6.0958   -3.1872    2.4710 H   0  0  0  0  0  0  0  0  0  0  0  0
   -8.3803   -3.2357    1.7841 H   0  0  0  0  0  0  0  0  0  0  0  0
   -8.9689   -3.7819   -0.5699 H   0  0  0  0  0  0  0  0  0  0  0  0
   -7.2062   -4.2595   -2.1611 H   0  0  0  0  0  0  0  0  0  0  0  0
   -4.7898   -4.2011   -1.4398 H   0  0  0  0  0  0  0  0  0  0  0  0
   -1.7919   -2.6516    2.5372 H   0  0  0  0  0  0  0  0  0  0  0  0
    1.1860   -3.3746   -0.2059 H   0  0  0  0  0  0  0  0  0  0  0  0
   -0.9681   -1.6204   -1.5120 H   0  0  0  0  0  0  0  0  0  0  0  0
    0.7191   -1.8374   -1.9742 H   0  0  0  0  0  0  0  0  0  0  0  0
   -2.4627   -3.7994   -1.8418 H   0  0  0  0  0  0  0  0  0  0  0  0
   -2.6955   -5.9186   -3.0607 H   0  0  0  0  0  0  0  0  0  0  0  0
   -0.6778   -6.9552   -4.1161 H   0  0  0  0  0  0  0  0  0  0  0  0
    1.4625   -5.8787   -3.9228 H   0  0  0  0  0  0  0  0  0  0  0  0
    1.6884   -3.7695   -2.7000 H   0  0  0  0  0  0  0  0  0  0  0  0
    0.3929   -0.7849    1.0251 H   0  0  0  0  0  0  0  0  0  0  0  0
  1  2  1  0
  2  3  2  3
  2  4  1  0
  4  5  1  0
  5  6  1  0
  6  7  1  0
  7  8  1  0
  8  9  1  0
  9 10  1  0
 10 11  2  0
 10 12  1  0
 12 13  1  0
 13 14  1  0
 14 15  2  0
 15 16  1  0
 16 17  2  0
 17 18  1  0
 18 19  2  0
 12 20  1  0
 20 21  1  0
 21 22  2  0
 21 23  1  0
 23 24  1  0
 24 25  1  0
 25 26  2  0
 26 27  1  0
 27 28  2  0
 28 29  1  0
 29 30  2  0
 23 31  1  0
 31 32  1  0
 32 33  2  0
 32 34  1  0
 34 35  1  0
 35 36  1  0
 36 37  1  0
 37 38  1  0
 38 39  1  0
 39 40  2  0
 39 41  1  0
 41 42  1  0
 42 43  1  0
 43 44  2  0
 44 45  1  0
 45 46  2  0
 46 47  1  0
 47 48  2  0
 41 49  1  0
 49 50  1  0
 50 51  2  0
 50 52  1  0
 52 53  1  0
 53 54  1  0
 54 55  2  0
 55 56  1  0
 56 57  2  0
 57 58  1  0
 58 59  2  0
 52 60  1  0
 60 61  1  0
 61 62  2  0
 61 63  1  0
 63 64  1  0
 64 65  1  0
 65 66  2  0
 66 67  1  0
 67 68  2  0
 68 69  1  0
 69 70  2  0
 63 71  1  0
 71 72  1  0
 72 73  2  0
 72  8  1  0
 19 14  1  0
 30 25  1  0
 38 34  1  0
 48 43  1  0
 59 54  1  0
 70 65  1  0
  1 74  1  0
  1 75  1  0
  3 76  1  0
  4 77  1  0
  5 78  1  0
  5 79  1  0
  6 80  1  0
  6 81  1  0
  7 82  1  0
  7 83  1  0
  8 84  1  6
  9 85  1  0
 12 86  1  1
 13 87  1  0
 13 88  1  0
 15 89  1  0
 16 90  1  0
 17 91  1  0
 18 92  1  0
 19 93  1  0
 20 94  1  0
 23 95  1  6
 24 96  1  0
 24 97  1  0
 26 98  1  0
 27 99  1  0
 28100  1  0
 29101  1  0
 30102  1  0
 31103  1  0
 34104  1  6
 35105  1  0
 35106  1  0
 36107  1  0
 36108  1  0
 37109  1  0
 37110  1  0
 41111  1  6
 42112  1  0
 42113  1  0
 44114  1  0
 45115  1  0
 46116  1  0
 47117  1  0
 48118  1  0
 49119  1  0
 52120  1  6
 53121  1  0
 53122  1  0
 55123  1  0
 56124  1  0
 57125  1  0
 58126  1  0
 59127  1  0
 60128  1  0
 63129  1  6
 64130  1  0
 64131  1  0
 66132  1  0
 67133  1  0
 68134  1  0
 69135  1  0
 70136  1  0
 71137  1  0
M  END
$$$$
[H]c1nc([C@@]2([H])C([H])([H])[C@]2([H])C([H])([H])Oc2nc(C([H])([H])[H])nc([H])c2-c2c([H])c([H])c(=O)n([H])c2[H])c([H])c([H])c1OC([H])([H])[H]
     RDKit          3D

 47 50  0  0  0  0  0  0  0  0999 V2000
    7.8163    0.4952   -0.5422 C   0  0  0  0  0  0  0  0  0  0  0  0
    7.1341   -0.6222   -0.0217 O   0  0  0  0  0  0  0  0  0  0  0  0
    5.7401   -0.6391    0.0259 C   0  0  0  0  0  0  0  0  0  0  0  0
    5.0185    0.4279   -0.4314 C   0  0  0  0  0  0  0  0  0  0  0  0
    3.6288    0.3947   -0.3768 C   0  0  0  0  0  0  0  0  0  0  0  0
    2.9969   -0.7163    0.1386 C   0  0  0  0  0  0  0  0  0  0  0  0
    3.7029   -1.7560    0.5841 N   0  0  0  0  0  0  0  0  0  0  0  0
    5.0466   -1.7213    0.5303 C   0  0  0  0  0  0  0  0  0  0  0  0
    1.4860   -0.6711    0.1553 C   0  0  1  0  0  0  0  0  0  0  0  0
    0.8291    0.6457    0.3712 C   0  0  0  0  0  0  0  0  0  0  0  0
    0.8240   -0.0434   -0.9844 C   0  0  2  0  0  0  0  0  0  0  0  0
   -0.5074   -0.3587   -1.5432 C   0  0  0  0  0  0  0  0  0  0  0  0
   -1.6327   -0.2587   -0.8316 O   0  0  0  0  0  0  0  0  0  0  0  0
   -2.3157   -0.6894    0.2103 C   0  0  0  0  0  0  0  0  0  0  0  0
   -1.8564   -1.6463    1.0353 N   0  0  0  0  0  0  0  0  0  0  0  0
   -2.4821   -2.1363    2.1013 C   0  0  0  0  0  0  0  0  0  0  0  0
   -1.9157   -3.1975    2.9736 C   0  0  0  0  0  0  0  0  0  0  0  0
   -3.7037   -1.6188    2.3825 N   0  0  0  0  0  0  0  0  0  0  0  0
   -4.2259   -0.6536    1.5944 C   0  0  0  0  0  0  0  0  0  0  0  0
   -3.5832   -0.1448    0.4930 C   0  0  0  0  0  0  0  0  0  0  0  0
   -4.1877    0.8974   -0.3213 C   0  0  0  0  0  0  0  0  0  0  0  0
   -3.4140    1.9784   -0.6820 C   0  0  0  0  0  0  0  0  0  0  0  0
   -3.9453    2.9930   -1.4583 C   0  0  0  0  0  0  0  0  0  0  0  0
   -5.2531    2.9519   -1.8895 C   0  0  0  0  0  0  0  0  0  0  0  0
   -5.7283    3.8917   -2.6028 O   0  0  0  0  0  0  0  0  0  0  0  0
   -5.9950    1.8914   -1.5296 N   0  0  0  0  0  0  0  0  0  0  0  0
   -5.4933    0.8790   -0.7649 C   0  0  0  0  0  0  0  0  0  0  0  0
    7.4177    1.4652   -0.1458 H   0  0  0  0  0  0  0  0  0  0  0  0
    8.8951    0.4487   -0.4027 H   0  0  0  0  0  0  0  0  0  0  0  0
    7.6087    0.5069   -1.6448 H   0  0  0  0  0  0  0  0  0  0  0  0
    5.5071    1.3055   -0.8384 H   0  0  0  0  0  0  0  0  0  0  0  0
    3.1175    1.2649   -0.7479 H   0  0  0  0  0  0  0  0  0  0  0  0
    5.6586   -2.5595    0.8881 H   0  0  0  0  0  0  0  0  0  0  0  0
    1.0891   -1.5208    0.7073 H   0  0  0  0  0  0  0  0  0  0  0  0
   -0.0935    0.7748    0.9328 H   0  0  0  0  0  0  0  0  0  0  0  0
    1.5441    1.4860    0.5360 H   0  0  0  0  0  0  0  0  0  0  0  0
    1.5422    0.4674   -1.7108 H   0  0  0  0  0  0  0  0  0  0  0  0
   -0.4439   -1.4525   -1.9019 H   0  0  0  0  0  0  0  0  0  0  0  0
   -0.5598    0.1607   -2.5665 H   0  0  0  0  0  0  0  0  0  0  0  0
   -1.2498   -2.7749    3.7689 H   0  0  0  0  0  0  0  0  0  0  0  0
   -1.3223   -3.9197    2.3518 H   0  0  0  0  0  0  0  0  0  0  0  0
   -2.6935   -3.7759    3.4938 H   0  0  0  0  0  0  0  0  0  0  0  0
   -5.2162   -0.2377    1.8267 H   0  0  0  0  0  0  0  0  0  0  0  0
   -2.3821    2.0217   -0.3452 H   0  0  0  0  0  0  0  0  0  0  0  0
   -3.3134    3.8384   -1.7312 H   0  0  0  0  0  0  0  0  0  0  0  0
   -6.9833    1.8805   -1.8671 H   0  0  0  0  0  0  0  0  0  0  0  0
   -6.1060    0.0478   -0.4937 H   0  0  0  0  0  0  0  0  0  0  0  0
  1  2  1  0
  2  3  1  0
  3  4  2  0
  4  5  1  0
  5  6  2  0
  6  7  1  0
  7  8  2  0
  6  9  1  0
  9 10  1  0
 10 11  1  0
 11 12  1  0
 12 13  1  0
 13 14  1  0
 14 15  2  0
 15 16  1  0
 16 17  1  0
 16 18  2  0
 18 19  1  0
 19 20  2  0
 20 21  1  0
 21 22  1  0
 22 23  2  0
 23 24  1  0
 24 25  2  0
 24 26  1  0
 26 27  1  0
  8  3  1  0
 11  9  1  0
 20 14  1  0
 27 21  2  0
  1 28  1  0
  1 29  1  0
  1 30  1  0
  4 31  1  0
  5 32  1  0
  8 33  1  0
  9 34  1  1
 10 35  1  0
 10 36  1  0
 11 37  1  6
 12 38  1  0
 12 39  1  0
 17 40  1  0
 17 41  1  0
 17 42  1  0
 19 43  1  0
 22 44  1  0
 23 45  1  0
 26 46  1  0
 27 47  1  0
M  END
$$$$
[H]OC(=O)[C@@]([H])(N([H])C(=O)c1c([H])c([H])c(-c2c([H])c([H])c(C(F)(F)F)c([H])c2[H])c([H])c1[H])C([H])([H])[H]
     RDKit          3D

 38 39  0  0  0  0  0  0  0  0999 V2000
   -5.6853   -0.4627    1.3626 C   0  0  0  0  0  0  0  0  0  0  0  0
   -5.1002   -0.1430    0.0072 C   0  0  2  0  0  0  0  0  0  0  0  0
   -3.6730    0.0184    0.1141 N   0  0  0  0  0  0  0  0  0  0  0  0
   -2.8067   -0.7307   -0.6923 C   0  0  0  0  0  0  0  0  0  0  0  0
   -3.2930   -1.5538   -1.5300 O   0  0  0  0  0  0  0  0  0  0  0  0
   -1.3743   -0.5744   -0.5834 C   0  0  0  0  0  0  0  0  0  0  0  0
   -0.5485   -0.5063   -1.6667 C   0  0  0  0  0  0  0  0  0  0  0  0
    0.8347   -0.3588   -1.5305 C   0  0  0  0  0  0  0  0  0  0  0  0
    1.3913   -0.2798   -0.2729 C   0  0  0  0  0  0  0  0  0  0  0  0
    0.5349   -0.3536    0.8103 C   0  0  0  0  0  0  0  0  0  0  0  0
   -0.8264   -0.4965    0.6805 C   0  0  0  0  0  0  0  0  0  0  0  0
    2.8253   -0.1065   -0.0490 C   0  0  0  0  0  0  0  0  0  0  0  0
    3.4388   -0.6606    1.0699 C   0  0  0  0  0  0  0  0  0  0  0  0
    4.7914   -0.4903    1.2959 C   0  0  0  0  0  0  0  0  0  0  0  0
    5.5923    0.2303    0.4328 C   0  0  0  0  0  0  0  0  0  0  0  0
    4.9956    0.7833   -0.6775 C   0  0  0  0  0  0  0  0  0  0  0  0
    3.6362    0.6084   -0.9001 C   0  0  0  0  0  0  0  0  0  0  0  0
    7.0463    0.4024    0.6778 C   0  0  0  0  0  0  0  0  0  0  0  0
    7.4036    0.2602    1.9961 F   0  0  0  0  0  0  0  0  0  0  0  0
    7.4190    1.6667    0.2779 F   0  0  0  0  0  0  0  0  0  0  0  0
    7.7030   -0.5694   -0.1046 F   0  0  0  0  0  0  0  0  0  0  0  0
   -5.6410    1.1607   -0.4912 C   0  0  0  0  0  0  0  0  0  0  0  0
   -7.0212    1.2514   -0.6522 O   0  0  0  0  0  0  0  0  0  0  0  0
   -4.9080    2.1237   -0.7528 O   0  0  0  0  0  0  0  0  0  0  0  0
   -6.5911    0.1447    1.5264 H   0  0  0  0  0  0  0  0  0  0  0  0
   -5.8599   -1.5510    1.4085 H   0  0  0  0  0  0  0  0  0  0  0  0
   -4.9756   -0.1769    2.1918 H   0  0  0  0  0  0  0  0  0  0  0  0
   -5.3378   -0.9474   -0.6881 H   0  0  0  0  0  0  0  0  0  0  0  0
   -3.2713    0.7239    0.8081 H   0  0  0  0  0  0  0  0  0  0  0  0
   -0.9389   -0.5635   -2.6855 H   0  0  0  0  0  0  0  0  0  0  0  0
    1.4957   -0.3137   -2.3756 H   0  0  0  0  0  0  0  0  0  0  0  0
    0.9327   -0.2949    1.8143 H   0  0  0  0  0  0  0  0  0  0  0  0
   -1.4828   -0.5548    1.5416 H   0  0  0  0  0  0  0  0  0  0  0  0
    2.7912   -1.2192    1.7321 H   0  0  0  0  0  0  0  0  0  0  0  0
    5.2718   -0.9248    2.1568 H   0  0  0  0  0  0  0  0  0  0  0  0
    5.6171    1.3513   -1.3541 H   0  0  0  0  0  0  0  0  0  0  0  0
    3.1428    1.0305   -1.7774 H   0  0  0  0  0  0  0  0  0  0  0  0
   -7.5287    2.0768   -0.4210 H   0  0  0  0  0  0  0  0  0  0  0  0
  1  2  1  0
  2  3  1  0
  3  4  1  0
  4  5  2  0
  4  6  1  0
  6  7  2  0
  7  8  1  0
  8  9  2  0
  9 10  1  0
 10 11  2  0
  9 12  1  0
 12 13  2  0
 13 14  1  0
 14 15  2  0
 15 16  1  0
 16 17  2  0
 15 18  1  0
 18 19  1  0
 18 20  1  0
 18 21  1  0
  2 22  1  0
 22 23  1  0
 22 24  2  0
 11  6  1  0
 17 12  1  0
  1 25  1  0
  1 26  1  0
  1 27  1  0
  2 28  1  6
  3 29  1  0
  7 30  1  0
  8 31  1  0
 10 32  1  0
 11 33  1  0
 13 34  1  0
 14 35  1  0
 16 36  1  0
 17 37  1  0
 23 38  1  0
M  END
$$$$
[H]c1c([H])c(OC([H])([H])[H])c([H])c(C(=O)N([H])c2c([H])c([H])c(C(=O)N([H])c3c([H])c([H])c(OC([H])([H])[H])c(OC([H])([H])[H])c3[H])c([H])c2[H])c1F
     RDKit          3D

 52 54  0  0  0  0  0  0  0  0999 V2000
    8.6896    1.1445   -2.3520 C   0  0  0  0  0  0  0  0  0  0  0  0
    9.0365    0.3999   -1.2150 O   0  0  0  0  0  0  0  0  0  0  0  0
    8.1129   -0.2870   -0.4494 C   0  0  0  0  0  0  0  0  0  0  0  0
    8.5384   -0.9937    0.6518 C   0  0  0  0  0  0  0  0  0  0  0  0
    7.6644   -1.6959    1.4494 C   0  0  0  0  0  0  0  0  0  0  0  0
    6.3008   -1.6813    1.1169 C   0  0  0  0  0  0  0  0  0  0  0  0
    5.4691   -2.3994    1.8864 F   0  0  0  0  0  0  0  0  0  0  0  0
    5.8746   -0.9843    0.0316 C   0  0  0  0  0  0  0  0  0  0  0  0
    6.7822   -0.2718   -0.7740 C   0  0  0  0  0  0  0  0  0  0  0  0
    4.4794   -0.8970   -0.3255 C   0  0  0  0  0  0  0  0  0  0  0  0
    4.2508   -0.7230   -1.5766 O   0  0  0  0  0  0  0  0  0  0  0  0
    3.4384   -0.9874    0.5976 N   0  0  0  0  0  0  0  0  0  0  0  0
    2.0709   -0.9226    0.2455 C   0  0  0  0  0  0  0  0  0  0  0  0
    1.1582   -0.4191    1.1872 C   0  0  0  0  0  0  0  0  0  0  0  0
   -0.1853   -0.3510    0.9368 C   0  0  0  0  0  0  0  0  0  0  0  0
   -0.6456   -0.7910   -0.2764 C   0  0  0  0  0  0  0  0  0  0  0  0
    0.2192   -1.2862   -1.2116 C   0  0  0  0  0  0  0  0  0  0  0  0
    1.5927   -1.3527   -0.9465 C   0  0  0  0  0  0  0  0  0  0  0  0
   -2.0828   -0.7416   -0.6206 C   0  0  0  0  0  0  0  0  0  0  0  0
   -2.4887   -1.4029   -1.6250 O   0  0  0  0  0  0  0  0  0  0  0  0
   -2.9779    0.0120    0.1350 N   0  0  0  0  0  0  0  0  0  0  0  0
   -4.3722    0.1788   -0.0283 C   0  0  0  0  0  0  0  0  0  0  0  0
   -5.1719   -0.5869   -0.8451 C   0  0  0  0  0  0  0  0  0  0  0  0
   -6.5500   -0.3667   -0.9874 C   0  0  0  0  0  0  0  0  0  0  0  0
   -7.1677    0.6446   -0.3006 C   0  0  0  0  0  0  0  0  0  0  0  0
   -8.5219    0.9163   -0.3951 O   0  0  0  0  0  0  0  0  0  0  0  0
   -9.4170    0.2034   -1.1916 C   0  0  0  0  0  0  0  0  0  0  0  0
   -6.3793    1.4241    0.5256 C   0  0  0  0  0  0  0  0  0  0  0  0
   -6.9706    2.4549    1.2349 O   0  0  0  0  0  0  0  0  0  0  0  0
   -6.1844    3.2593    2.0811 C   0  0  0  0  0  0  0  0  0  0  0  0
   -5.0330    1.2104    0.6654 C   0  0  0  0  0  0  0  0  0  0  0  0
    8.3054    0.5458   -3.1854 H   0  0  0  0  0  0  0  0  0  0  0  0
    7.9998    1.9503   -2.0236 H   0  0  0  0  0  0  0  0  0  0  0  0
    9.6285    1.6360   -2.7223 H   0  0  0  0  0  0  0  0  0  0  0  0
    9.5919   -1.0146    0.9224 H   0  0  0  0  0  0  0  0  0  0  0  0
    7.9882   -2.2548    2.3173 H   0  0  0  0  0  0  0  0  0  0  0  0
    6.3874    0.2636   -1.6226 H   0  0  0  0  0  0  0  0  0  0  0  0
    3.6208   -1.0940    1.6427 H   0  0  0  0  0  0  0  0  0  0  0  0
    1.5880   -0.0864    2.1260 H   0  0  0  0  0  0  0  0  0  0  0  0
   -0.8102    0.0458    1.7186 H   0  0  0  0  0  0  0  0  0  0  0  0
   -0.1225   -1.6323   -2.1592 H   0  0  0  0  0  0  0  0  0  0  0  0
    2.2401   -1.7756   -1.7204 H   0  0  0  0  0  0  0  0  0  0  0  0
   -2.5579    0.5410    0.9557 H   0  0  0  0  0  0  0  0  0  0  0  0
   -4.7511   -1.4033   -1.4042 H   0  0  0  0  0  0  0  0  0  0  0  0
   -7.1431   -0.9910   -1.6400 H   0  0  0  0  0  0  0  0  0  0  0  0
   -9.2636   -0.8802   -1.2126 H   0  0  0  0  0  0  0  0  0  0  0  0
   -9.3307    0.6008   -2.2398 H   0  0  0  0  0  0  0  0  0  0  0  0
  -10.4513    0.4840   -0.8617 H   0  0  0  0  0  0  0  0  0  0  0  0
   -5.2760    3.6620    1.5712 H   0  0  0  0  0  0  0  0  0  0  0  0
   -5.9559    2.6916    2.9945 H   0  0  0  0  0  0  0  0  0  0  0  0
   -6.8065    4.1732    2.3034 H   0  0  0  0  0  0  0  0  0  0  0  0
   -4.4113    1.8314    1.3206 H   0  0  0  0  0  0  0  0  0  0  0  0
  1  2  1  0
  2  3  1  0
  3  4  2  0
  4  5  1  0
  5  6  2  0
  6  7  1  0
  6  8  1  0
  8  9  2  0
  8 10  1  0
 10 11  2  0
 10 12  1  0
 12 13  1  0
 13 14  2  0
 14 15  1  0
 15 16  2  0
 16 17  1  0
 17 18  2  0
 16 19  1  0
 19 20  2  0
 19 21  1  0
 21 22  1  0
 22 23  2  0
 23 24  1  0
 24 25  2  0
 25 26  1  0
 26 27  1  0
 25 28  1  0
 28 29  1  0
 29 30  1  0
 28 31  2  0
  9  3  1  0
 18 13  1  0
 31 22  1  0
  1 32  1  0
  1 33  1  0
  1 34  1  0
  4 35  1  0
  5 36  1  0
  9 37  1  0
 12 38  1  0
 14 39  1  0
 15 40  1  0
 17 41  1  0
 18 42  1  0
 21 43  1  0
 23 44  1  0
 24 45  1  0
 27 46  1  0
 27 47  1  0
 27 48  1  0
 30 49  1  0
 30 50  1  0
 30 51  1  0
 31 52  1  0
M  END
$$$$
[H]c1c([H])c([H])c(N([H])C(=O)N([H])[C@]2([H])C([H])([H])C([H])([H])[C@]([H])(N([H])C(=O)N([H])c3c([H])c([H])c(C(F)(F)F)c([H])c3[H])C([H])([H])C2([H])[H])c(Cl)c1[H]
     RDKit          3D

 53 55  0  0  0  0  0  0  0  0999 V2000
  -10.4713    0.6599    0.2266 F   0  0  0  0  0  0  0  0  0  0  0  0
   -9.7691   -0.3995   -0.3536 C   0  0  0  0  0  0  0  0  0  0  0  0
   -9.7854   -0.2670   -1.7433 F   0  0  0  0  0  0  0  0  0  0  0  0
  -10.2167   -1.5952    0.0999 F   0  0  0  0  0  0  0  0  0  0  0  0
   -8.3392   -0.2137    0.0421 C   0  0  0  0  0  0  0  0  0  0  0  0
   -7.6834   -1.1098    0.8538 C   0  0  0  0  0  0  0  0  0  0  0  0
   -6.3723   -0.9239    1.1878 C   0  0  0  0  0  0  0  0  0  0  0  0
   -5.6710    0.1856    0.7061 C   0  0  0  0  0  0  0  0  0  0  0  0
   -4.3245    0.3478    1.0955 N   0  0  0  0  0  0  0  0  0  0  0  0
   -3.2930    0.2723    0.0821 C   0  0  0  0  0  0  0  0  0  0  0  0
   -3.6419    0.0846   -1.0971 O   0  0  0  0  0  0  0  0  0  0  0  0
   -1.9497    0.4080    0.4425 N   0  0  0  0  0  0  0  0  0  0  0  0
   -0.9237    0.2969   -0.5894 C   0  0  2  0  0  0  0  0  0  0  0  0
   -0.2195   -1.0511   -0.3940 C   0  0  0  0  0  0  0  0  0  0  0  0
    1.1533   -0.8740    0.2123 C   0  0  0  0  0  0  0  0  0  0  0  0
    2.0272   -0.0799   -0.7594 C   0  0  1  0  0  0  0  0  0  0  0  0
    1.2933    1.0698   -1.3581 C   0  0  0  0  0  0  0  0  0  0  0  0
    0.0788    1.4053   -0.5363 C   0  0  0  0  0  0  0  0  0  0  0  0
    3.2026    0.3876   -0.0731 N   0  0  0  0  0  0  0  0  0  0  0  0
    4.5008   -0.0864   -0.2745 C   0  0  0  0  0  0  0  0  0  0  0  0
    4.6600   -0.9908   -1.1452 O   0  0  0  0  0  0  0  0  0  0  0  0
    5.5976    0.4004    0.4430 N   0  0  0  0  0  0  0  0  0  0  0  0
    6.9294   -0.0136    0.2810 C   0  0  0  0  0  0  0  0  0  0  0  0
    7.4416   -0.7616   -0.7371 C   0  0  0  0  0  0  0  0  0  0  0  0
    8.7966   -1.0745   -0.8137 C   0  0  0  0  0  0  0  0  0  0  0  0
    9.6591   -0.6449    0.1333 C   0  0  0  0  0  0  0  0  0  0  0  0
    9.2159    0.1164    1.1903 C   0  0  0  0  0  0  0  0  0  0  0  0
    7.8619    0.4178    1.2484 C   0  0  0  0  0  0  0  0  0  0  0  0
    7.2809    1.3584    2.6019 Cl  0  0  0  0  0  0  0  0  0  0  0  0
   -6.3514    1.0854   -0.1164 C   0  0  0  0  0  0  0  0  0  0  0  0
   -7.6558    0.8695   -0.4261 C   0  0  0  0  0  0  0  0  0  0  0  0
   -8.2307   -1.9638    1.2094 H   0  0  0  0  0  0  0  0  0  0  0  0
   -5.8536   -1.6487    1.8306 H   0  0  0  0  0  0  0  0  0  0  0  0
   -4.0286    0.5210    2.0567 H   0  0  0  0  0  0  0  0  0  0  0  0
   -1.6282    0.5832    1.4046 H   0  0  0  0  0  0  0  0  0  0  0  0
   -1.3618    0.2470   -1.6023 H   0  0  0  0  0  0  0  0  0  0  0  0
   -0.1510   -1.6268   -1.3180 H   0  0  0  0  0  0  0  0  0  0  0  0
   -0.8187   -1.6564    0.3339 H   0  0  0  0  0  0  0  0  0  0  0  0
    1.6108   -1.8785    0.3061 H   0  0  0  0  0  0  0  0  0  0  0  0
    1.0339   -0.3847    1.1848 H   0  0  0  0  0  0  0  0  0  0  0  0
    2.3842   -0.8264   -1.5135 H   0  0  0  0  0  0  0  0  0  0  0  0
    1.9739    1.9568   -1.4706 H   0  0  0  0  0  0  0  0  0  0  0  0
    0.9380    0.7954   -2.3783 H   0  0  0  0  0  0  0  0  0  0  0  0
    0.4327    1.6364    0.4980 H   0  0  0  0  0  0  0  0  0  0  0  0
   -0.4067    2.3578   -0.9416 H   0  0  0  0  0  0  0  0  0  0  0  0
    2.9860    1.1587    0.6364 H   0  0  0  0  0  0  0  0  0  0  0  0
    5.4143    1.1498    1.1814 H   0  0  0  0  0  0  0  0  0  0  0  0
    6.8351   -1.1289   -1.5220 H   0  0  0  0  0  0  0  0  0  0  0  0
    9.1270   -1.6824   -1.6494 H   0  0  0  0  0  0  0  0  0  0  0  0
   10.7132   -0.9060    0.0416 H   0  0  0  0  0  0  0  0  0  0  0  0
    9.9108    0.4619    1.9332 H   0  0  0  0  0  0  0  0  0  0  0  0
   -5.7843    1.9392   -0.4784 H   0  0  0  0  0  0  0  0  0  0  0  0
   -8.1274    1.6156   -1.0680 H   0  0  0  0  0  0  0  0  0  0  0  0
  1  2  1  0
  2  3  1  0
  2  4  1  0
  2  5  1  0
  5  6  2  0
  6  7  1  0
  7  8  2  0
  8  9  1  0
  9 10  1  0
 10 11  2  0
 10 12  1  0
 12 13  1  0
 13 14  1  0
 14 15  1  0
 15 16  1  0
 16 17  1  0
 17 18  1  0
 16 19  1  0
 19 20  1  0
 20 21  2  0
 20 22  1  0
 22 23  1  0
 23 24  2  0
 24 25  1  0
 25 26  2  0
 26 27  1  0
 27 28  2  0
 28 29  1  0
  8 30  1  0
 30 31  2  0
 31  5  1  0
 18 13  1  0
 28 23  1  0
  6 32  1  0
  7 33  1  0
  9 34  1  0
 12 35  1  0
 13 36  1  6
 14 37  1  0
 14 38  1  0
 15 39  1  0
 15 40  1  0
 16 41  1  6
 17 42  1  0
 17 43  1  0
 18 44  1  0
 18 45  1  0
 19 46  1  0
 22 47  1  0
 24 48  1  0
 25 49  1  0
 26 50  1  0
 27 51  1  0
 30 52  1  0
 31 53  1  0
M  END
$$$$
[H]c1nc(N([H])[H])c2c(-c3c([H])c([H])c([H])c(N([H])C(=O)N([H])c4c([H])c([H])c([H])c(C(F)(F)F)c4[H])c3[H])c([H])n([C@]3([H])C([H])([H])C([H])([H])[C@@]([H])(N(C([H])([H])[H])C([H])([H])[H])C([H])([H])C3([H])[H])c2n1
     RDKit          3D

 69 73  0  0  0  0  0  0  0  0999 V2000
   -1.0295    3.0937   -0.6277 N   0  0  0  0  0  0  0  0  0  0  0  0
    0.1988    2.8635    0.0335 C   0  0  0  0  0  0  0  0  0  0  0  0
    0.7725    3.8350    0.7373 N   0  0  0  0  0  0  0  0  0  0  0  0
    1.9587    3.7116    1.3442 C   0  0  0  0  0  0  0  0  0  0  0  0
    2.6350    2.5354    1.2526 N   0  0  0  0  0  0  0  0  0  0  0  0
    2.1230    1.5145    0.5627 C   0  0  0  0  0  0  0  0  0  0  0  0
    2.6511    0.2856    0.3218 N   0  0  0  0  0  0  0  0  0  0  0  0
    1.7613   -0.3465   -0.4440 C   0  0  0  0  0  0  0  0  0  0  0  0
    0.6399    0.4946   -0.7049 C   0  0  0  0  0  0  0  0  0  0  0  0
   -0.4306    0.0735   -1.5889 C   0  0  0  0  0  0  0  0  0  0  0  0
    0.0705   -0.3860   -2.8492 C   0  0  0  0  0  0  0  0  0  0  0  0
   -0.7878   -0.8541   -3.7901 C   0  0  0  0  0  0  0  0  0  0  0  0
   -2.1334   -0.8955   -3.5512 C   0  0  0  0  0  0  0  0  0  0  0  0
   -2.6879   -0.4586   -2.3329 C   0  0  0  0  0  0  0  0  0  0  0  0
   -4.0276   -0.5440   -2.1064 N   0  0  0  0  0  0  0  0  0  0  0  0
   -4.9771   -0.2999   -1.1767 C   0  0  0  0  0  0  0  0  0  0  0  0
   -4.7756    0.1734    0.0254 O   0  0  0  0  0  0  0  0  0  0  0  0
   -6.3516   -0.5593   -1.4515 N   0  0  0  0  0  0  0  0  0  0  0  0
   -7.4703   -0.4076   -0.6774 C   0  0  0  0  0  0  0  0  0  0  0  0
   -8.7014   -0.2765   -1.3749 C   0  0  0  0  0  0  0  0  0  0  0  0
   -9.8664   -0.1496   -0.6975 C   0  0  0  0  0  0  0  0  0  0  0  0
   -9.8395   -0.1476    0.6828 C   0  0  0  0  0  0  0  0  0  0  0  0
   -8.6984   -0.2654    1.3917 C   0  0  0  0  0  0  0  0  0  0  0  0
   -7.4901   -0.3992    0.6898 C   0  0  0  0  0  0  0  0  0  0  0  0
   -8.6791   -0.2581    2.8842 C   0  0  0  0  0  0  0  0  0  0  0  0
   -7.6328    0.5096    3.3346 F   0  0  0  0  0  0  0  0  0  0  0  0
   -9.8970    0.1619    3.3737 F   0  0  0  0  0  0  0  0  0  0  0  0
   -8.4015   -1.5590    3.2799 F   0  0  0  0  0  0  0  0  0  0  0  0
   -1.7602    0.0181   -1.3957 C   0  0  0  0  0  0  0  0  0  0  0  0
    0.8939    1.6441   -0.0641 C   0  0  0  0  0  0  0  0  0  0  0  0
    3.9430   -0.2496    0.6843 C   0  0  1  0  0  0  0  0  0  0  0  0
    4.1100   -0.5479    2.1256 C   0  0  0  0  0  0  0  0  0  0  0  0
    5.4709   -1.1638    2.4107 C   0  0  0  0  0  0  0  0  0  0  0  0
    6.3576   -1.2709    1.2139 C   0  0  1  0  0  0  0  0  0  0  0  0
    5.7045   -1.7629   -0.0329 C   0  0  0  0  0  0  0  0  0  0  0  0
    4.2108   -1.5479   -0.0637 C   0  0  0  0  0  0  0  0  0  0  0  0
    7.1873   -0.0930    1.0468 N   0  0  0  0  0  0  0  0  0  0  0  0
    7.7471   -0.0040   -0.2950 C   0  0  0  0  0  0  0  0  0  0  0  0
    8.3539   -0.1442    1.9386 C   0  0  0  0  0  0  0  0  0  0  0  0
   -1.8565    3.3182   -0.0495 H   0  0  0  0  0  0  0  0  0  0  0  0
   -1.1195    3.0424   -1.6671 H   0  0  0  0  0  0  0  0  0  0  0  0
    2.3746    4.5469    1.9043 H   0  0  0  0  0  0  0  0  0  0  0  0
    1.7764   -1.3607   -0.8607 H   0  0  0  0  0  0  0  0  0  0  0  0
    1.1447   -0.3516   -3.0335 H   0  0  0  0  0  0  0  0  0  0  0  0
   -0.3966   -1.2154   -4.7552 H   0  0  0  0  0  0  0  0  0  0  0  0
   -2.8067   -1.2643   -4.3007 H   0  0  0  0  0  0  0  0  0  0  0  0
   -4.5461   -1.0014   -3.0338 H   0  0  0  0  0  0  0  0  0  0  0  0
   -6.4878   -0.9548   -2.4581 H   0  0  0  0  0  0  0  0  0  0  0  0
   -8.6950   -0.2790   -2.4688 H   0  0  0  0  0  0  0  0  0  0  0  0
  -10.7762   -0.0620   -1.2738 H   0  0  0  0  0  0  0  0  0  0  0  0
  -10.8298   -0.0395    1.1490 H   0  0  0  0  0  0  0  0  0  0  0  0
   -6.6109   -0.5137    1.3056 H   0  0  0  0  0  0  0  0  0  0  0  0
   -2.1375    0.3592   -0.4362 H   0  0  0  0  0  0  0  0  0  0  0  0
    4.7612    0.4801    0.4119 H   0  0  0  0  0  0  0  0  0  0  0  0
    3.9704    0.3253    2.8151 H   0  0  0  0  0  0  0  0  0  0  0  0
    3.3138   -1.2644    2.4447 H   0  0  0  0  0  0  0  0  0  0  0  0
    5.3084   -2.2132    2.8004 H   0  0  0  0  0  0  0  0  0  0  0  0
    5.9848   -0.6311    3.2045 H   0  0  0  0  0  0  0  0  0  0  0  0
    7.1199   -2.0789    1.4920 H   0  0  0  0  0  0  0  0  0  0  0  0
    5.8559   -2.8535   -0.1898 H   0  0  0  0  0  0  0  0  0  0  0  0
    6.0899   -1.2966   -0.9684 H   0  0  0  0  0  0  0  0  0  0  0  0
    3.8503   -1.4548   -1.1179 H   0  0  0  0  0  0  0  0  0  0  0  0
    3.7050   -2.3879    0.4436 H   0  0  0  0  0  0  0  0  0  0  0  0
    7.0292    0.4999   -0.9937 H   0  0  0  0  0  0  0  0  0  0  0  0
    8.0941   -0.9852   -0.6549 H   0  0  0  0  0  0  0  0  0  0  0  0
    8.6513    0.6525   -0.2689 H   0  0  0  0  0  0  0  0  0  0  0  0
    8.2133   -0.8445    2.7789 H   0  0  0  0  0  0  0  0  0  0  0  0
    8.6287    0.8834    2.2971 H   0  0  0  0  0  0  0  0  0  0  0  0
    9.2389   -0.5013    1.3744 H   0  0  0  0  0  0  0  0  0  0  0  0
  1  2  1  0
  2  3  2  0
  3  4  1  0
  4  5  2  0
  5  6  1  0
  6  7  1  0
  7  8  1  0
  8  9  2  0
  9 10  1  0
 10 11  2  0
 11 12  1  0
 12 13  2  0
 13 14  1  0
 14 15  1  0
 15 16  1  0
 16 17  2  0
 16 18  1  0
 18 19  1  0
 19 20  2  0
 20 21  1  0
 21 22  2  0
 22 23  1  0
 23 24  2  0
 23 25  1  0
 25 26  1  0
 25 27  1  0
 25 28  1  0
 14 29  2  0
  9 30  1  0
  7 31  1  0
 31 32  1  0
 32 33  1  0
 33 34  1  0
 34 35  1  0
 35 36  1  0
 34 37  1  0
 37 38  1  0
 37 39  1  0
 30  2  1  0
 36 31  1  0
 30  6  2  0
 29 10  1  0
 24 19  1  0
  1 40  1  0
  1 41  1  0
  4 42  1  0
  8 43  1  0
 11 44  1  0
 12 45  1  0
 13 46  1  0
 15 47  1  0
 18 48  1  0
 20 49  1  0
 21 50  1  0
 22 51  1  0
 24 52  1  0
 29 53  1  0
 31 54  1  6
 32 55  1  0
 32 56  1  0
 33 57  1  0
 33 58  1  0
 34 59  1  1
 35 60  1  0
 35 61  1  0
 36 62  1  0
 36 63  1  0
 38 64  1  0
 38 65  1  0
 38 66  1  0
 39 67  1  0
 39 68  1  0
 39 69  1  0
M  END
$$$$
[H]c1c([H])c([H])c(N2C([H])([H])C([H])([H])[C@]([H])(N([H])C(=O)c3c([H])c([H])c(N([H])C(=O)c4c([H])c([H])c(OC([H])([H])[H])c([H])c4[H])c([H])c3[H])[C@@]([H])(c3c([H])c([H])c([H])c([H])c3[H])C2([H])[H])c([H])c1[H]
     RDKit          3D

 69 73  0  0  0  0  0  0  0  0999 V2000
   11.9906    2.3036    0.3215 C   0  0  0  0  0  0  0  0  0  0  0  0
   11.2981    1.0957    0.1108 O   0  0  0  0  0  0  0  0  0  0  0  0
    9.9230    1.0116    0.2054 C   0  0  0  0  0  0  0  0  0  0  0  0
    9.3160   -0.1980   -0.0130 C   0  0  0  0  0  0  0  0  0  0  0  0
    7.9231   -0.2871    0.0819 C   0  0  0  0  0  0  0  0  0  0  0  0
    7.1724    0.8294    0.3912 C   0  0  0  0  0  0  0  0  0  0  0  0
    7.7970    2.0399    0.6084 C   0  0  0  0  0  0  0  0  0  0  0  0
    9.1764    2.1091    0.5103 C   0  0  0  0  0  0  0  0  0  0  0  0
    5.6973    0.7966    0.4954 C   0  0  0  0  0  0  0  0  0  0  0  0
    5.1702    1.7374    1.1339 O   0  0  0  0  0  0  0  0  0  0  0  0
    4.9746   -0.2374   -0.0966 N   0  0  0  0  0  0  0  0  0  0  0  0
    3.5741   -0.4394   -0.0985 C   0  0  0  0  0  0  0  0  0  0  0  0
    3.0469   -1.4584   -0.9093 C   0  0  0  0  0  0  0  0  0  0  0  0
    1.7020   -1.7087   -0.9457 C   0  0  0  0  0  0  0  0  0  0  0  0
    0.7860   -0.9939   -0.2046 C   0  0  0  0  0  0  0  0  0  0  0  0
    1.2935    0.0048    0.5912 C   0  0  0  0  0  0  0  0  0  0  0  0
    2.6742    0.2637    0.6304 C   0  0  0  0  0  0  0  0  0  0  0  0
   -0.6406   -1.2926   -0.2715 C   0  0  0  0  0  0  0  0  0  0  0  0
   -1.0216   -2.2065   -1.0706 O   0  0  0  0  0  0  0  0  0  0  0  0
   -1.6391   -0.6481    0.4813 N   0  0  0  0  0  0  0  0  0  0  0  0
   -3.0416   -0.9605    0.3979 C   0  0  1  0  0  0  0  0  0  0  0  0
   -3.5720   -1.4589    1.7287 C   0  0  0  0  0  0  0  0  0  0  0  0
   -5.0355   -1.6682    1.7082 C   0  0  0  0  0  0  0  0  0  0  0  0
   -5.7458   -1.1260    0.5716 N   0  0  0  0  0  0  0  0  0  0  0  0
   -5.1979   -0.2171   -0.4057 C   0  0  0  0  0  0  0  0  0  0  0  0
   -3.8676    0.2807    0.0935 C   0  0  2  0  0  0  0  0  0  0  0  0
   -3.1944    1.1784   -0.8485 C   0  0  0  0  0  0  0  0  0  0  0  0
   -2.9119    2.4697   -0.4646 C   0  0  0  0  0  0  0  0  0  0  0  0
   -2.2768    3.3675   -1.3041 C   0  0  0  0  0  0  0  0  0  0  0  0
   -1.9161    2.9694   -2.5523 C   0  0  0  0  0  0  0  0  0  0  0  0
   -2.1829    1.6869   -2.9690 C   0  0  0  0  0  0  0  0  0  0  0  0
   -2.8258    0.7848   -2.1133 C   0  0  0  0  0  0  0  0  0  0  0  0
   -7.1043   -1.5394    0.4277 C   0  0  0  0  0  0  0  0  0  0  0  0
   -7.8069   -1.1143   -0.6711 C   0  0  0  0  0  0  0  0  0  0  0  0
   -9.1340   -1.5006   -0.8370 C   0  0  0  0  0  0  0  0  0  0  0  0
   -9.7811   -2.3075    0.0750 C   0  0  0  0  0  0  0  0  0  0  0  0
   -9.0709   -2.7300    1.1741 C   0  0  0  0  0  0  0  0  0  0  0  0
   -7.7471   -2.3452    1.3406 C   0  0  0  0  0  0  0  0  0  0  0  0
   13.0618    2.0240    0.5002 H   0  0  0  0  0  0  0  0  0  0  0  0
   11.9362    2.9915   -0.5257 H   0  0  0  0  0  0  0  0  0  0  0  0
   11.6683    2.8053    1.2722 H   0  0  0  0  0  0  0  0  0  0  0  0
    9.8673   -1.0769   -0.2531 H   0  0  0  0  0  0  0  0  0  0  0  0
    7.4611   -1.2337   -0.0855 H   0  0  0  0  0  0  0  0  0  0  0  0
    7.2583    2.9357    0.8518 H   0  0  0  0  0  0  0  0  0  0  0  0
    9.6771    3.0383    0.6753 H   0  0  0  0  0  0  0  0  0  0  0  0
    5.5684   -0.9664   -0.6152 H   0  0  0  0  0  0  0  0  0  0  0  0
    3.7507   -2.0428   -1.5099 H   0  0  0  0  0  0  0  0  0  0  0  0
    1.3019   -2.5102   -1.5851 H   0  0  0  0  0  0  0  0  0  0  0  0
    0.6117    0.5947    1.1929 H   0  0  0  0  0  0  0  0  0  0  0  0
    2.9942    1.0563    1.2814 H   0  0  0  0  0  0  0  0  0  0  0  0
   -1.3428    0.1090    1.1463 H   0  0  0  0  0  0  0  0  0  0  0  0
   -3.2587   -1.7473   -0.3365 H   0  0  0  0  0  0  0  0  0  0  0  0
   -3.0567   -2.3557    2.0799 H   0  0  0  0  0  0  0  0  0  0  0  0
   -3.3140   -0.6406    2.4645 H   0  0  0  0  0  0  0  0  0  0  0  0
   -5.4822   -1.2186    2.6245 H   0  0  0  0  0  0  0  0  0  0  0  0
   -5.2409   -2.7747    1.8181 H   0  0  0  0  0  0  0  0  0  0  0  0
   -5.0660   -0.7327   -1.3999 H   0  0  0  0  0  0  0  0  0  0  0  0
   -5.9056    0.6252   -0.5721 H   0  0  0  0  0  0  0  0  0  0  0  0
   -4.0793    0.7939    1.0741 H   0  0  0  0  0  0  0  0  0  0  0  0
   -3.1764    2.8479    0.5242 H   0  0  0  0  0  0  0  0  0  0  0  0
   -2.0698    4.3727   -0.9726 H   0  0  0  0  0  0  0  0  0  0  0  0
   -1.4134    3.7012   -3.1968 H   0  0  0  0  0  0  0  0  0  0  0  0
   -1.8781    1.4135   -3.9696 H   0  0  0  0  0  0  0  0  0  0  0  0
   -3.0216   -0.2221   -2.4746 H   0  0  0  0  0  0  0  0  0  0  0  0
   -7.3706   -0.4699   -1.4493 H   0  0  0  0  0  0  0  0  0  0  0  0
   -9.6477   -1.1450   -1.7131 H   0  0  0  0  0  0  0  0  0  0  0  0
  -10.8308   -2.6018   -0.0747 H   0  0  0  0  0  0  0  0  0  0  0  0
   -9.5767   -3.3617    1.8882 H   0  0  0  0  0  0  0  0  0  0  0  0
   -7.2272   -2.6998    2.2193 H   0  0  0  0  0  0  0  0  0  0  0  0
  1  2  1  0
  2  3  1  0
  3  4  2  0
  4  5  1  0
  5  6  2  0
  6  7  1  0
  7  8  2  0
  6  9  1  0
  9 10  2  0
  9 11  1  0
 11 12  1  0
 12 13  2  0
 13 14  1  0
 14 15  2  0
 15 16  1  0
 16 17  2  0
 15 18  1  0
 18 19  2  0
 18 20  1  0
 20 21  1  0
 21 22  1  0
 22 23  1  0
 23 24  1  0
 24 25  1  0
 25 26  1  0
 26 27  1  0
 27 28  2  0
 28 29  1  0
 29 30  2  0
 30 31  1  0
 31 32  2  0
 24 33  1  0
 33 34  2  0
 34 35  1  0
 35 36  2  0
 36 37  1  0
 37 38  2  0
  8  3  1  0
 17 12  1  0
 26 21  1  0
 32 27  1  0
 38 33  1  0
  1 39  1  0
  1 40  1  0
  1 41  1  0
  4 42  1  0
  5 43  1  0
  7 44  1  0
  8 45  1  0
 11 46  1  0
 13 47  1  0
 14 48  1  0
 16 49  1  0
 17 50  1  0
 20 51  1  0
 21 52  1  6
 22 53  1  0
 22 54  1  0
 23 55  1  0
 23 56  1  0
 25 57  1  0
 25 58  1  0
 26 59  1  1
 28 60  1  0
 29 61  1  0
 30 62  1  0
 31 63  1  0
 32 64  1  0
 34 65  1  0
 35 66  1  0
 36 67  1  0
 37 68  1  0
 38 69  1  0
M  END
$$$$
[H]c1c([H])c([H])c(C([H])([H])OC(=O)N([H])[C@]([H])(C(=O)N([H])[C@]([H])(C(=O)N([H])[C@]([H])(C(=O)N2C([H])([H])C([H])([H])OC([H])([H])C2([H])[H])C([H])([H])c2c([H])c([H])c([H])c([H])c2[H])C([H])([H])C([H])(C([H])([H])[H])C([H])([H])[H])C([H])([H])c2c([H])c([H])c([H])c([H])c2[H])c([H])c1[H]
     RDKit          3D

 90 93  0  0  0  0  0  0  0  0999 V2000
   -2.4248    1.9228   -3.1071 C   0  0  0  0  0  0  0  0  0  0  0  0
   -1.6698    3.0669   -2.4088 C   0  0  0  0  0  0  0  0  0  0  0  0
   -1.1252    3.9003   -3.5517 C   0  0  0  0  0  0  0  0  0  0  0  0
   -0.5202    2.5703   -1.6316 C   0  0  0  0  0  0  0  0  0  0  0  0
   -0.6313    1.6974   -0.4626 C   0  0  2  0  0  0  0  0  0  0  0  0
    0.7619    1.3677   -0.1112 N   0  0  0  0  0  0  0  0  0  0  0  0
    1.2866    0.2724    0.5004 C   0  0  0  0  0  0  0  0  0  0  0  0
    0.6647   -0.7149    0.8774 O   0  0  0  0  0  0  0  0  0  0  0  0
    2.7905    0.2121    0.7628 C   0  0  2  0  0  0  0  0  0  0  0  0
    3.4267    1.4255    0.2656 C   0  0  0  0  0  0  0  0  0  0  0  0
    4.8945    1.5578    0.4717 C   0  0  0  0  0  0  0  0  0  0  0  0
    5.2764    2.1223    1.6968 C   0  0  0  0  0  0  0  0  0  0  0  0
    6.5724    2.3676    2.0068 C   0  0  0  0  0  0  0  0  0  0  0  0
    7.5573    2.0447    1.0665 C   0  0  0  0  0  0  0  0  0  0  0  0
    7.2190    1.5006   -0.1156 C   0  0  0  0  0  0  0  0  0  0  0  0
    5.8620    1.2511   -0.4177 C   0  0  0  0  0  0  0  0  0  0  0  0
    3.3362   -1.0095    0.1776 N   0  0  0  0  0  0  0  0  0  0  0  0
    3.8016   -2.1083   -0.3572 C   0  0  0  0  0  0  0  0  0  0  0  0
    3.0205   -2.9014   -1.1214 O   0  0  0  0  0  0  0  0  0  0  0  0
    4.9937   -2.6555   -0.3071 O   0  0  0  0  0  0  0  0  0  0  0  0
    5.9215   -3.5068   -0.5315 C   0  0  0  0  0  0  0  0  0  0  0  0
    7.2930   -3.1388   -0.1124 C   0  0  0  0  0  0  0  0  0  0  0  0
    8.2230   -2.8800   -1.1734 C   0  0  0  0  0  0  0  0  0  0  0  0
    9.5122   -2.5783   -0.8983 C   0  0  0  0  0  0  0  0  0  0  0  0
    9.9185   -2.5239    0.4379 C   0  0  0  0  0  0  0  0  0  0  0  0
    9.0220   -2.7751    1.4296 C   0  0  0  0  0  0  0  0  0  0  0  0
    7.6953   -3.0875    1.1757 C   0  0  0  0  0  0  0  0  0  0  0  0
   -1.5750    0.5871   -0.4219 C   0  0  0  0  0  0  0  0  0  0  0  0
   -1.4111   -0.5544   -0.9144 O   0  0  0  0  0  0  0  0  0  0  0  0
   -2.8359    0.7731    0.2645 N   0  0  0  0  0  0  0  0  0  0  0  0
   -3.8691   -0.2279    0.4407 C   0  0  1  0  0  0  0  0  0  0  0  0
   -3.7922   -1.0925    1.6162 C   0  0  0  0  0  0  0  0  0  0  0  0
   -4.7250   -2.2255    1.5758 C   0  0  0  0  0  0  0  0  0  0  0  0
   -5.8792   -2.4864    2.2198 C   0  0  0  0  0  0  0  0  0  0  0  0
   -6.6786   -3.6084    2.0316 C   0  0  0  0  0  0  0  0  0  0  0  0
   -6.2653   -4.5397    1.1147 C   0  0  0  0  0  0  0  0  0  0  0  0
   -5.0866   -4.3538    0.4046 C   0  0  0  0  0  0  0  0  0  0  0  0
   -4.3512   -3.2405    0.6290 C   0  0  0  0  0  0  0  0  0  0  0  0
   -5.1540    0.2815   -0.0565 C   0  0  0  0  0  0  0  0  0  0  0  0
   -5.3019    0.4539   -1.3480 O   0  0  0  0  0  0  0  0  0  0  0  0
   -6.3120    0.6558    0.6452 N   0  0  0  0  0  0  0  0  0  0  0  0
   -7.5696    0.8196   -0.0648 C   0  0  0  0  0  0  0  0  0  0  0  0
   -7.8672    2.3191   -0.0247 C   0  0  0  0  0  0  0  0  0  0  0  0
   -7.8930    2.8129    1.2533 O   0  0  0  0  0  0  0  0  0  0  0  0
   -7.6428    1.8583    2.2175 C   0  0  0  0  0  0  0  0  0  0  0  0
   -6.2966    1.1405    1.9990 C   0  0  0  0  0  0  0  0  0  0  0  0
   -1.7817    1.0546   -3.2922 H   0  0  0  0  0  0  0  0  0  0  0  0
   -3.3382    1.7290   -2.5645 H   0  0  0  0  0  0  0  0  0  0  0  0
   -2.7766    2.2869   -4.1214 H   0  0  0  0  0  0  0  0  0  0  0  0
   -2.3742    3.7310   -1.8578 H   0  0  0  0  0  0  0  0  0  0  0  0
   -1.7294    3.7618   -4.4678 H   0  0  0  0  0  0  0  0  0  0  0  0
   -0.0939    3.5328   -3.7618 H   0  0  0  0  0  0  0  0  0  0  0  0
   -1.0453    4.9691   -3.2623 H   0  0  0  0  0  0  0  0  0  0  0  0
    0.0961    3.5220   -1.3986 H   0  0  0  0  0  0  0  0  0  0  0  0
    0.1775    2.0743   -2.4219 H   0  0  0  0  0  0  0  0  0  0  0  0
   -0.9235    2.3144    0.4612 H   0  0  0  0  0  0  0  0  0  0  0  0
    1.4337    2.1544   -0.4165 H   0  0  0  0  0  0  0  0  0  0  0  0
    2.8438    0.1062    1.9102 H   0  0  0  0  0  0  0  0  0  0  0  0
    3.2567    1.5450   -0.8425 H   0  0  0  0  0  0  0  0  0  0  0  0
    2.9293    2.3213    0.7518 H   0  0  0  0  0  0  0  0  0  0  0  0
    4.4991    2.3656    2.4220 H   0  0  0  0  0  0  0  0  0  0  0  0
    6.8933    2.7892    2.9410 H   0  0  0  0  0  0  0  0  0  0  0  0
    8.5966    2.2629    1.3485 H   0  0  0  0  0  0  0  0  0  0  0  0
    7.9729    1.2350   -0.8555 H   0  0  0  0  0  0  0  0  0  0  0  0
    5.6175    0.8049   -1.3726 H   0  0  0  0  0  0  0  0  0  0  0  0
    2.1555   -1.1482   -0.5148 H   0  0  0  0  0  0  0  0  0  0  0  0
    5.9592   -4.0000   -1.5673 H   0  0  0  0  0  0  0  0  0  0  0  0
    5.7009   -4.4488    0.1497 H   0  0  0  0  0  0  0  0  0  0  0  0
    7.8574   -2.9488   -2.1708 H   0  0  0  0  0  0  0  0  0  0  0  0
   10.1962   -2.3781   -1.7002 H   0  0  0  0  0  0  0  0  0  0  0  0
   10.9495   -2.2678    0.6560 H   0  0  0  0  0  0  0  0  0  0  0  0
    9.3416   -2.7201    2.4875 H   0  0  0  0  0  0  0  0  0  0  0  0
    7.0516   -3.2698    2.0232 H   0  0  0  0  0  0  0  0  0  0  0  0
   -3.0649    1.7290    0.6647 H   0  0  0  0  0  0  0  0  0  0  0  0
   -3.5760   -0.9950   -0.4377 H   0  0  0  0  0  0  0  0  0  0  0  0
   -2.7409   -1.5102    1.6570 H   0  0  0  0  0  0  0  0  0  0  0  0
   -3.9415   -0.5405    2.5964 H   0  0  0  0  0  0  0  0  0  0  0  0
   -6.2313   -1.7715    2.9850 H   0  0  0  0  0  0  0  0  0  0  0  0
   -7.5648   -3.7110    2.5981 H   0  0  0  0  0  0  0  0  0  0  0  0
   -6.8252   -5.4390    0.9126 H   0  0  0  0  0  0  0  0  0  0  0  0
   -4.7974   -5.1116   -0.2981 H   0  0  0  0  0  0  0  0  0  0  0  0
   -3.4344   -3.0766    0.1022 H   0  0  0  0  0  0  0  0  0  0  0  0
   -7.5356    0.5418   -1.1223 H   0  0  0  0  0  0  0  0  0  0  0  0
   -8.4205    0.3081    0.4379 H   0  0  0  0  0  0  0  0  0  0  0  0
   -8.7575    2.6068   -0.5755 H   0  0  0  0  0  0  0  0  0  0  0  0
   -7.0095    2.8336   -0.5342 H   0  0  0  0  0  0  0  0  0  0  0  0
   -7.5760    2.4025    3.1991 H   0  0  0  0  0  0  0  0  0  0  0  0
   -8.4652    1.1147    2.2974 H   0  0  0  0  0  0  0  0  0  0  0  0
   -5.5552    2.0012    2.0475 H   0  0  0  0  0  0  0  0  0  0  0  0
   -6.1413    0.4667    2.7983 H   0  0  0  0  0  0  0  0  0  0  0  0
  1  2  1  0
  2  3  1  0
  2  4  1  0
  4  5  1  0
  5  6  1  0
  6  7  1  0
  7  8  2  0
  7  9  1  0
  9 10  1  0
 10 11  1  0
 11 12  2  0
 12 13  1  0
 13 14  2  0
 14 15  1  0
 15 16  2  0
  9 17  1  0
 17 18  1  0
 18 19  2  0
 18 20  1  0
 20 21  1  0
 21 22  1  0
 22 23  2  0
 23 24  1  0
 24 25  2  0
 25 26  1  0
 26 27  2  0
  5 28  1  0
 28 29  2  0
 28 30  1  0
 30 31  1  0
 31 32  1  0
 32 33  1  0
 33 34  2  0
 34 35  1  0
 35 36  2  0
 36 37  1  0
 37 38  2  0
 31 39  1  0
 39 40  2  0
 39 41  1  0
 41 42  1  0
 42 43  1  0
 43 44  1  0
 44 45  1  0
 45 46  1  0
 16 11  1  0
 27 22  1  0
 38 33  1  0
 46 41  1  0
  1 47  1  0
  1 48  1  0
  1 49  1  0
  2 50  1  0
  3 51  1  0
  3 52  1  0
  3 53  1  0
  4 54  1  0
  4 55  1  0
  5 56  1  1
  6 57  1  0
  9 58  1  1
 10 59  1  0
 10 60  1  0
 12 61  1  0
 13 62  1  0
 14 63  1  0
 15 64  1  0
 16 65  1  0
 17 66  1  0
 21 67  1  0
 21 68  1  0
 23 69  1  0
 24 70  1  0
 25 71  1  0
 26 72  1  0
 27 73  1  0
 30 74  1  0
 31 75  1  6
 32 76  1  0
 32 77  1  0
 34 78  1  0
 35 79  1  0
 36 80  1  0
 37 81  1  0
 38 82  1  0
 42 83  1  0
 42 84  1  0
 43 85  1  0
 43 86  1  0
 45 87  1  0
 45 88  1  0
 46 89  1  0
 46 90  1  0
M  END
$$$$
[H]c1c([H])c([H])c(-c2c([H])c([H])c3c(c2[H])c(C2([H])C([H])([H])C([H])([H])N(C([H])([H])[H])C([H])([H])C2([H])[H])c([H])n3[H])c([H])c1[H]
     RDKit          3D

 44 47  0  0  0  0  0  0  0  0999 V2000
   -4.8473    0.9537   -1.5199 C   0  0  0  0  0  0  0  0  0  0  0  0
   -4.0492   -0.2304   -1.5156 N   0  0  0  0  0  0  0  0  0  0  0  0
   -4.1975   -0.9960   -0.3225 C   0  0  0  0  0  0  0  0  0  0  0  0
   -3.3260   -0.4511    0.7840 C   0  0  0  0  0  0  0  0  0  0  0  0
   -1.8595   -0.3950    0.3312 C   0  0  0  0  0  0  0  0  0  0  0  0
   -1.8486    0.6017   -0.8084 C   0  0  0  0  0  0  0  0  0  0  0  0
   -2.6900   -0.0489   -1.9137 C   0  0  0  0  0  0  0  0  0  0  0  0
   -1.0576   -0.0037    1.4865 C   0  0  0  0  0  0  0  0  0  0  0  0
   -1.4794    0.3450    2.7715 C   0  0  0  0  0  0  0  0  0  0  0  0
   -0.4089    0.6390    3.5311 N   0  0  0  0  0  0  0  0  0  0  0  0
    0.7072    0.4961    2.7910 C   0  0  0  0  0  0  0  0  0  0  0  0
    2.0550    0.6600    3.0496 C   0  0  0  0  0  0  0  0  0  0  0  0
    3.0168    0.4398    2.0856 C   0  0  0  0  0  0  0  0  0  0  0  0
    2.6629    0.0431    0.8130 C   0  0  0  0  0  0  0  0  0  0  0  0
    1.3108   -0.1185    0.5633 C   0  0  0  0  0  0  0  0  0  0  0  0
    0.3269    0.0946    1.5078 C   0  0  0  0  0  0  0  0  0  0  0  0
    3.6680   -0.2006   -0.2313 C   0  0  0  0  0  0  0  0  0  0  0  0
    3.4003    0.0250   -1.5668 C   0  0  0  0  0  0  0  0  0  0  0  0
    4.3275   -0.2001   -2.5554 C   0  0  0  0  0  0  0  0  0  0  0  0
    5.5827   -0.6686   -2.2444 C   0  0  0  0  0  0  0  0  0  0  0  0
    5.8654   -0.8990   -0.9152 C   0  0  0  0  0  0  0  0  0  0  0  0
    4.9214   -0.6696    0.0912 C   0  0  0  0  0  0  0  0  0  0  0  0
   -5.7681    0.8078   -2.1579 H   0  0  0  0  0  0  0  0  0  0  0  0
   -4.3396    1.8398   -1.9344 H   0  0  0  0  0  0  0  0  0  0  0  0
   -5.2503    1.1495   -0.4987 H   0  0  0  0  0  0  0  0  0  0  0  0
   -5.2596   -0.8461    0.0330 H   0  0  0  0  0  0  0  0  0  0  0  0
   -4.0676   -2.0901   -0.4587 H   0  0  0  0  0  0  0  0  0  0  0  0
   -3.4250   -1.0280    1.7176 H   0  0  0  0  0  0  0  0  0  0  0  0
   -3.6369    0.5992    0.9593 H   0  0  0  0  0  0  0  0  0  0  0  0
   -1.6228   -1.3896   -0.0883 H   0  0  0  0  0  0  0  0  0  0  0  0
   -0.8697    0.7924   -1.2421 H   0  0  0  0  0  0  0  0  0  0  0  0
   -2.3262    1.5373   -0.5054 H   0  0  0  0  0  0  0  0  0  0  0  0
   -2.2500   -1.0799   -2.0475 H   0  0  0  0  0  0  0  0  0  0  0  0
   -2.5904    0.4532   -2.8738 H   0  0  0  0  0  0  0  0  0  0  0  0
   -2.5266    0.3560    3.0470 H   0  0  0  0  0  0  0  0  0  0  0  0
   -0.4278    0.9366    4.5498 H   0  0  0  0  0  0  0  0  0  0  0  0
    2.3850    0.9705    4.0339 H   0  0  0  0  0  0  0  0  0  0  0  0
    4.0863    0.5761    2.3131 H   0  0  0  0  0  0  0  0  0  0  0  0
    1.0164   -0.4274   -0.4207 H   0  0  0  0  0  0  0  0  0  0  0  0
    2.3930    0.3981   -1.7852 H   0  0  0  0  0  0  0  0  0  0  0  0
    4.0785   -0.0092   -3.6027 H   0  0  0  0  0  0  0  0  0  0  0  0
    6.2949   -0.8378   -3.0402 H   0  0  0  0  0  0  0  0  0  0  0  0
    6.8540   -1.2669   -0.6857 H   0  0  0  0  0  0  0  0  0  0  0  0
    5.1716   -0.8580    1.1121 H   0  0  0  0  0  0  0  0  0  0  0  0
  1  2  1  0
  2  3  1  0
  3  4  1  0
  4  5  1  0
  5  6  1  0
  6  7  1  0
  5  8  1  0
  8  9  2  0
  9 10  1  0
 10 11  1  0
 11 12  2  0
 12 13  1  0
 13 14  2  0
 14 15  1  0
 15 16  2  0
 14 17  1  0
 17 18  2  0
 18 19  1  0
 19 20  2  0
 20 21  1  0
 21 22  2  0
  7  2  1  0
 16  8  1  0
 22 17  1  0
 16 11  1  0
  1 23  1  0
  1 24  1  0
  1 25  1  0
  3 26  1  0
  3 27  1  0
  4 28  1  0
  4 29  1  0
  5 30  1  0
  6 31  1  0
  6 32  1  0
  7 33  1  0
  7 34  1  0
  9 35  1  0
 10 36  1  0
 12 37  1  0
 13 38  1  0
 15 39  1  0
 18 40  1  0
 19 41  1  0
 20 42  1  0
 21 43  1  0
 22 44  1  0
M  END
$$$$
[H]OC(=O)[C@@]([H])(N([H])C(=O)[C@@]([H])(N([H])C(=O)[C@@]([H])(N([H])C(=O)[C@@]([H])(N([H])C(=O)[C@@]([H])(N([H])C(=O)[C@@]([H])(N([H])[H])C([H])([H])C([H])([H])C([H])([H])N=C(N([H])[H])N([H])[H])C([H])([H])c1c([H])c([H])c([H])c([H])c1[H])C([H])([H])c1c([H])c([H])c(O[H])c([H])c1[H])[C@@]([H])(C([H])([H])[H])C([H])([H])C([H])([H])[H])C([H])([H])c1c([H])c([H])c([H])c([H])c1[H])C([H])([H])c1c([H])c([H])c([H])c([H])c1[H]
     RDKit          3D

126129  0  0  0  0  0  0  0  0999 V2000
    2.1447   -1.6527   -3.1378 C   0  0  0  0  0  0  0  0  0  0  0  0
    2.4219   -0.2306   -2.6661 C   0  0  0  0  0  0  0  0  0  0  0  0
    1.6368    0.1007   -1.4657 C   0  0  2  0  0  0  0  0  0  0  0  0
    1.8725    1.5156   -0.9688 C   0  0  0  0  0  0  0  0  0  0  0  0
    1.9275   -0.8933   -0.3150 C   0  0  2  0  0  0  0  0  0  0  0  0
    1.0361   -0.4487    0.7838 N   0  0  0  0  0  0  0  0  0  0  0  0
   -0.3502   -0.6553    0.8046 C   0  0  0  0  0  0  0  0  0  0  0  0
   -0.9229   -1.2222   -0.1252 O   0  0  0  0  0  0  0  0  0  0  0  0
   -1.1351   -0.1640    1.9893 C   0  0  2  0  0  0  0  0  0  0  0  0
   -1.1634   -1.2105    3.0693 C   0  0  0  0  0  0  0  0  0  0  0  0
   -1.7634   -2.4906    2.7037 C   0  0  0  0  0  0  0  0  0  0  0  0
   -1.0156   -3.4284    2.0295 C   0  0  0  0  0  0  0  0  0  0  0  0
   -1.5046   -4.6684    1.6675 C   0  0  0  0  0  0  0  0  0  0  0  0
   -2.8015   -4.9889    1.9939 C   0  0  0  0  0  0  0  0  0  0  0  0
   -3.2828   -6.2361    1.6245 O   0  0  0  0  0  0  0  0  0  0  0  0
   -3.5610   -4.0635    2.6678 C   0  0  0  0  0  0  0  0  0  0  0  0
   -3.0580   -2.8090    3.0306 C   0  0  0  0  0  0  0  0  0  0  0  0
   -2.3159    0.5365    1.7215 N   0  0  0  0  0  0  0  0  0  0  0  0
   -3.4416    0.3370    0.9235 C   0  0  0  0  0  0  0  0  0  0  0  0
   -3.6034   -0.6730    0.2349 O   0  0  0  0  0  0  0  0  0  0  0  0
   -4.5353    1.3692    0.8515 C   0  0  2  0  0  0  0  0  0  0  0  0
   -4.9469    2.0013    2.1056 C   0  0  0  0  0  0  0  0  0  0  0  0
   -5.5085    1.2108    3.1847 C   0  0  0  0  0  0  0  0  0  0  0  0
   -4.7388    0.7233    4.2019 C   0  0  0  0  0  0  0  0  0  0  0  0
   -5.2757   -0.0307    5.2527 C   0  0  0  0  0  0  0  0  0  0  0  0
   -6.6225   -0.2809    5.2499 C   0  0  0  0  0  0  0  0  0  0  0  0
   -7.4016    0.2092    4.2275 C   0  0  0  0  0  0  0  0  0  0  0  0
   -6.8673    0.9466    3.2016 C   0  0  0  0  0  0  0  0  0  0  0  0
   -5.6181    0.9511   -0.0022 N   0  0  0  0  0  0  0  0  0  0  0  0
   -5.7013    1.2539   -1.3849 C   0  0  0  0  0  0  0  0  0  0  0  0
   -4.7073    1.9165   -1.8580 O   0  0  0  0  0  0  0  0  0  0  0  0
   -6.7929    0.8845   -2.2934 C   0  0  1  0  0  0  0  0  0  0  0  0
   -6.2984    0.8055   -3.6385 N   0  0  0  0  0  0  0  0  0  0  0  0
   -7.5476   -0.2958   -1.8019 C   0  0  0  0  0  0  0  0  0  0  0  0
   -8.6738   -0.6928   -2.7406 C   0  0  0  0  0  0  0  0  0  0  0  0
   -9.6757    0.4346   -2.9241 C   0  0  0  0  0  0  0  0  0  0  0  0
  -10.3040    0.8394   -1.6945 N   0  0  0  0  0  0  0  0  0  0  0  0
  -10.6010    2.0947   -1.4883 C   0  0  0  0  0  0  0  0  0  0  0  0
  -11.2232    2.4395   -0.2525 N   0  0  0  0  0  0  0  0  0  0  0  0
  -10.3194    3.0958   -2.4443 N   0  0  0  0  0  0  0  0  0  0  0  0
    3.2960   -0.8516    0.1475 C   0  0  0  0  0  0  0  0  0  0  0  0
    3.4415   -0.3207    1.3443 O   0  0  0  0  0  0  0  0  0  0  0  0
    4.5128   -1.2549   -0.4094 N   0  0  0  0  0  0  0  0  0  0  0  0
    5.7495   -1.0048    0.3858 C   0  0  1  0  0  0  0  0  0  0  0  0
    6.7231   -2.0648    0.3721 C   0  0  0  0  0  0  0  0  0  0  0  0
    7.3231   -2.5277   -0.8680 C   0  0  0  0  0  0  0  0  0  0  0  0
    6.6939   -3.5080   -1.6035 C   0  0  0  0  0  0  0  0  0  0  0  0
    7.2357   -4.0058   -2.7728 C   0  0  0  0  0  0  0  0  0  0  0  0
    8.4437   -3.5305   -3.2510 C   0  0  0  0  0  0  0  0  0  0  0  0
    9.0978   -2.5342   -2.5179 C   0  0  0  0  0  0  0  0  0  0  0  0
    8.5228   -2.0559   -1.3430 C   0  0  0  0  0  0  0  0  0  0  0  0
    6.1545    0.4141    0.1737 C   0  0  0  0  0  0  0  0  0  0  0  0
    5.8927    0.8878   -0.9534 O   0  0  0  0  0  0  0  0  0  0  0  0
    6.7708    1.2034    1.1541 N   0  0  0  0  0  0  0  0  0  0  0  0
    7.1707    2.5527    1.1922 C   0  0  1  0  0  0  0  0  0  0  0  0
    8.4218    3.0180    0.5987 C   0  0  0  0  0  0  0  0  0  0  0  0
    8.7006    2.8460   -0.8097 C   0  0  0  0  0  0  0  0  0  0  0  0
    9.3839    1.7213   -1.2084 C   0  0  0  0  0  0  0  0  0  0  0  0
    9.7260    1.4390   -2.5136 C   0  0  0  0  0  0  0  0  0  0  0  0
    9.3183    2.4057   -3.4382 C   0  0  0  0  0  0  0  0  0  0  0  0
    8.6361    3.5384   -3.0783 C   0  0  0  0  0  0  0  0  0  0  0  0
    8.3255    3.7583   -1.7485 C   0  0  0  0  0  0  0  0  0  0  0  0
    6.0327    3.4524    0.7649 C   0  0  0  0  0  0  0  0  0  0  0  0
    6.1997    4.8377    0.7694 O   0  0  0  0  0  0  0  0  0  0  0  0
    4.9200    3.0389    0.4016 O   0  0  0  0  0  0  0  0  0  0  0  0
    2.8240   -1.8200   -4.0209 H   0  0  0  0  0  0  0  0  0  0  0  0
    1.0912   -1.7691   -3.4824 H   0  0  0  0  0  0  0  0  0  0  0  0
    2.4477   -2.4156   -2.4067 H   0  0  0  0  0  0  0  0  0  0  0  0
    2.0702    0.4181   -3.5300 H   0  0  0  0  0  0  0  0  0  0  0  0
    3.5071   -0.1254   -2.5433 H   0  0  0  0  0  0  0  0  0  0  0  0
    0.5560   -0.0059   -1.6746 H   0  0  0  0  0  0  0  0  0  0  0  0
    2.8476    1.8456   -1.4268 H   0  0  0  0  0  0  0  0  0  0  0  0
    1.9154    1.6026    0.1241 H   0  0  0  0  0  0  0  0  0  0  0  0
    1.1237    2.2235   -1.3648 H   0  0  0  0  0  0  0  0  0  0  0  0
    1.5648   -1.8341   -0.6786 H   0  0  0  0  0  0  0  0  0  0  0  0
    1.5070    0.0552    1.5842 H   0  0  0  0  0  0  0  0  0  0  0  0
   -0.3933    0.6416    2.4074 H   0  0  0  0  0  0  0  0  0  0  0  0
   -1.7850   -0.7860    3.9014 H   0  0  0  0  0  0  0  0  0  0  0  0
   -0.1467   -1.3102    3.5068 H   0  0  0  0  0  0  0  0  0  0  0  0
    0.0113   -3.1980    1.7654 H   0  0  0  0  0  0  0  0  0  0  0  0
   -0.8943   -5.3825    1.1382 H   0  0  0  0  0  0  0  0  0  0  0  0
   -3.1605   -6.9886    2.2710 H   0  0  0  0  0  0  0  0  0  0  0  0
   -4.5768   -4.3607    2.9045 H   0  0  0  0  0  0  0  0  0  0  0  0
   -3.7160   -2.1587    3.5538 H   0  0  0  0  0  0  0  0  0  0  0  0
   -2.3889    1.4929    2.2765 H   0  0  0  0  0  0  0  0  0  0  0  0
   -4.0235    2.2018    0.2348 H   0  0  0  0  0  0  0  0  0  0  0  0
   -5.7065    2.8058    1.8308 H   0  0  0  0  0  0  0  0  0  0  0  0
   -4.0817    2.6203    2.4760 H   0  0  0  0  0  0  0  0  0  0  0  0
   -3.6503    0.8920    4.2889 H   0  0  0  0  0  0  0  0  0  0  0  0
   -4.6436   -0.4053    6.0425 H   0  0  0  0  0  0  0  0  0  0  0  0
   -7.0640   -0.8739    6.0704 H   0  0  0  0  0  0  0  0  0  0  0  0
   -8.4610   -0.0160    4.2653 H   0  0  0  0  0  0  0  0  0  0  0  0
   -7.5274    1.3235    2.4030 H   0  0  0  0  0  0  0  0  0  0  0  0
   -6.3900    0.3917    0.4231 H   0  0  0  0  0  0  0  0  0  0  0  0
   -7.5460    1.7504   -2.2531 H   0  0  0  0  0  0  0  0  0  0  0  0
   -5.9700   -0.1651   -3.8847 H   0  0  0  0  0  0  0  0  0  0  0  0
   -7.0011    1.0440   -4.3760 H   0  0  0  0  0  0  0  0  0  0  0  0
   -7.9425   -0.0441   -0.7921 H   0  0  0  0  0  0  0  0  0  0  0  0
   -6.8690   -1.1594   -1.7058 H   0  0  0  0  0  0  0  0  0  0  0  0
   -8.3015   -0.9872   -3.7319 H   0  0  0  0  0  0  0  0  0  0  0  0
   -9.2456   -1.5455   -2.3222 H   0  0  0  0  0  0  0  0  0  0  0  0
   -9.1991    1.2938   -3.4411 H   0  0  0  0  0  0  0  0  0  0  0  0
  -10.5109    0.1039   -3.6054 H   0  0  0  0  0  0  0  0  0  0  0  0
  -12.0204    1.8598    0.1067 H   0  0  0  0  0  0  0  0  0  0  0  0
  -10.8678    3.2610    0.2664 H   0  0  0  0  0  0  0  0  0  0  0  0
  -10.9571    3.2896   -3.2320 H   0  0  0  0  0  0  0  0  0  0  0  0
   -9.4466    3.6511   -2.3493 H   0  0  0  0  0  0  0  0  0  0  0  0
    4.5868   -1.7259   -1.3099 H   0  0  0  0  0  0  0  0  0  0  0  0
    5.3365   -0.9509    1.4610 H   0  0  0  0  0  0  0  0  0  0  0  0
    7.5429   -1.8374    1.1070 H   0  0  0  0  0  0  0  0  0  0  0  0
    6.2532   -2.9978    0.8444 H   0  0  0  0  0  0  0  0  0  0  0  0
    5.7329   -3.9136   -1.2553 H   0  0  0  0  0  0  0  0  0  0  0  0
    6.7475   -4.7792   -3.3582 H   0  0  0  0  0  0  0  0  0  0  0  0
    8.8932   -3.9028   -4.1620 H   0  0  0  0  0  0  0  0  0  0  0  0
   10.0258   -2.1589   -2.8734 H   0  0  0  0  0  0  0  0  0  0  0  0
    8.9931   -1.2999   -0.7387 H   0  0  0  0  0  0  0  0  0  0  0  0
    6.9768    0.6458    2.0600 H   0  0  0  0  0  0  0  0  0  0  0  0
    7.2726    2.8652    2.3318 H   0  0  0  0  0  0  0  0  0  0  0  0
    8.5272    4.1242    0.9041 H   0  0  0  0  0  0  0  0  0  0  0  0
    9.3032    2.5649    1.1652 H   0  0  0  0  0  0  0  0  0  0  0  0
    9.7025    0.9602   -0.4724 H   0  0  0  0  0  0  0  0  0  0  0  0
   10.2659    0.5526   -2.8204 H   0  0  0  0  0  0  0  0  0  0  0  0
    9.5904    2.1777   -4.4775 H   0  0  0  0  0  0  0  0  0  0  0  0
    8.3398    4.2611   -3.8525 H   0  0  0  0  0  0  0  0  0  0  0  0
    7.7880    4.6804   -1.5277 H   0  0  0  0  0  0  0  0  0  0  0  0
    6.6889    5.3317    1.5082 H   0  0  0  0  0  0  0  0  0  0  0  0
  1  2  1  0
  2  3  1  0
  3  4  1  0
  3  5  1  0
  5  6  1  0
  6  7  1  0
  7  8  2  0
  7  9  1  0
  9 10  1  0
 10 11  1  0
 11 12  2  0
 12 13  1  0
 13 14  2  0
 14 15  1  0
 14 16  1  0
 16 17  2  0
  9 18  1  0
 18 19  1  0
 19 20  2  0
 19 21  1  0
 21 22  1  0
 22 23  1  0
 23 24  2  0
 24 25  1  0
 25 26  2  0
 26 27  1  0
 27 28  2  0
 21 29  1  0
 29 30  1  0
 30 31  2  0
 30 32  1  0
 32 33  1  0
 32 34  1  0
 34 35  1  0
 35 36  1  0
 36 37  1  0
 37 38  2  3
 38 39  1  0
 38 40  1  0
  5 41  1  0
 41 42  2  0
 41 43  1  0
 43 44  1  0
 44 45  1  0
 45 46  1  0
 46 47  2  0
 47 48  1  0
 48 49  2  0
 49 50  1  0
 50 51  2  0
 44 52  1  0
 52 53  2  0
 52 54  1  0
 54 55  1  0
 55 56  1  0
 56 57  1  0
 57 58  2  0
 58 59  1  0
 59 60  2  0
 60 61  1  0
 61 62  2  0
 55 63  1  0
 63 64  1  0
 63 65  2  0
 17 11  1  0
 28 23  1  0
 51 46  1  0
 62 57  1  0
  1 66  1  0
  1 67  1  0
  1 68  1  0
  2 69  1  0
  2 70  1  0
  3 71  1  6
  4 72  1  0
  4 73  1  0
  4 74  1  0
  5 75  1  6
  6 76  1  0
  9 77  1  1
 10 78  1  0
 10 79  1  0
 12 80  1  0
 13 81  1  0
 15 82  1  0
 16 83  1  0
 17 84  1  0
 18 85  1  0
 21 86  1  6
 22 87  1  0
 22 88  1  0
 24 89  1  0
 25 90  1  0
 26 91  1  0
 27 92  1  0
 28 93  1  0
 29 94  1  0
 32 95  1  6
 33 96  1  0
 33 97  1  0
 34 98  1  0
 34 99  1  0
 35100  1  0
 35101  1  0
 36102  1  0
 36103  1  0
 39104  1  0
 39105  1  0
 40106  1  0
 40107  1  0
 43108  1  0
 44109  1  1
 45110  1  0
 45111  1  0
 47112  1  0
 48113  1  0
 49114  1  0
 50115  1  0
 51116  1  0
 54117  1  0
 55118  1  1
 56119  1  0
 56120  1  0
 58121  1  0
 59122  1  0
 60123  1  0
 61124  1  0
 62125  1  0
 64126  1  0
M  END
$$$$
[H]c1c([H])c([H])c([C@@]2([H])N(C(=O)N([H])c3c([H])c([H])c(Cl)c(C(F)(F)F)c3[H])C([H])([H])[C@]([H])(C([H])([H])[H])C2([H])[H])c([H])c1[H]
     RDKit          3D

 44 46  0  0  0  0  0  0  0  0999 V2000
   -3.0921    3.4010   -1.1409 C   0  0  0  0  0  0  0  0  0  0  0  0
   -2.6875    2.0333   -0.6463 C   0  0  2  0  0  0  0  0  0  0  0  0
   -2.1980    2.0732    0.7827 C   0  0  0  0  0  0  0  0  0  0  0  0
   -1.4593    0.7199    0.8526 C   0  0  2  0  0  0  0  0  0  0  0  0
   -0.6684    0.8586   -0.3557 N   0  0  0  0  0  0  0  0  0  0  0  0
   -1.4821    1.4930   -1.3738 C   0  0  0  0  0  0  0  0  0  0  0  0
    0.7034    0.4553   -0.5415 C   0  0  0  0  0  0  0  0  0  0  0  0
    1.2347    0.6469   -1.6643 O   0  0  0  0  0  0  0  0  0  0  0  0
    1.4247   -0.1330    0.5002 N   0  0  0  0  0  0  0  0  0  0  0  0
    2.7316   -0.5793    0.5256 C   0  0  0  0  0  0  0  0  0  0  0  0
    3.2107   -1.2790    1.6486 C   0  0  0  0  0  0  0  0  0  0  0  0
    4.4985   -1.7419    1.7413 C   0  0  0  0  0  0  0  0  0  0  0  0
    5.3926   -1.5339    0.7132 C   0  0  0  0  0  0  0  0  0  0  0  0
    7.0340   -2.1170    0.8167 Cl  0  0  0  0  0  0  0  0  0  0  0  0
    4.9697   -0.8596   -0.3946 C   0  0  0  0  0  0  0  0  0  0  0  0
    3.6480   -0.3929   -0.4723 C   0  0  0  0  0  0  0  0  0  0  0  0
    5.9008   -0.6180   -1.5169 C   0  0  0  0  0  0  0  0  0  0  0  0
    6.3596   -1.8059   -2.0310 F   0  0  0  0  0  0  0  0  0  0  0  0
    5.2874    0.1222   -2.5165 F   0  0  0  0  0  0  0  0  0  0  0  0
    6.9543    0.1423   -1.0255 F   0  0  0  0  0  0  0  0  0  0  0  0
   -2.4450   -0.3897    0.7712 C   0  0  0  0  0  0  0  0  0  0  0  0
   -3.7277   -0.3407    1.2492 C   0  0  0  0  0  0  0  0  0  0  0  0
   -4.6227   -1.3855    1.1545 C   0  0  0  0  0  0  0  0  0  0  0  0
   -4.2434   -2.5634    0.5515 C   0  0  0  0  0  0  0  0  0  0  0  0
   -2.9569   -2.6363    0.0627 C   0  0  0  0  0  0  0  0  0  0  0  0
   -2.0638   -1.5883    0.1593 C   0  0  0  0  0  0  0  0  0  0  0  0
   -2.5089    3.7512   -1.9987 H   0  0  0  0  0  0  0  0  0  0  0  0
   -4.1699    3.3833   -1.4592 H   0  0  0  0  0  0  0  0  0  0  0  0
   -3.0345    4.1050   -0.2796 H   0  0  0  0  0  0  0  0  0  0  0  0
   -3.5047    1.3288   -0.7991 H   0  0  0  0  0  0  0  0  0  0  0  0
   -1.3907    2.8366    0.8570 H   0  0  0  0  0  0  0  0  0  0  0  0
   -2.9566    2.1951    1.5400 H   0  0  0  0  0  0  0  0  0  0  0  0
   -0.8810    0.6416    1.7707 H   0  0  0  0  0  0  0  0  0  0  0  0
   -1.7469    0.7410   -2.1303 H   0  0  0  0  0  0  0  0  0  0  0  0
   -0.9388    2.3509   -1.8547 H   0  0  0  0  0  0  0  0  0  0  0  0
    0.8795   -0.2581    1.4280 H   0  0  0  0  0  0  0  0  0  0  0  0
    2.5654   -1.4816    2.4991 H   0  0  0  0  0  0  0  0  0  0  0  0
    4.8769   -2.2812    2.6008 H   0  0  0  0  0  0  0  0  0  0  0  0
    3.4192    0.1295   -1.3829 H   0  0  0  0  0  0  0  0  0  0  0  0
   -4.0773    0.5586    1.7332 H   0  0  0  0  0  0  0  0  0  0  0  0
   -5.6260   -1.3170    1.5402 H   0  0  0  0  0  0  0  0  0  0  0  0
   -4.9045   -3.4144    0.4501 H   0  0  0  0  0  0  0  0  0  0  0  0
   -2.6489   -3.5652   -0.4159 H   0  0  0  0  0  0  0  0  0  0  0  0
   -1.0554   -1.6859   -0.2420 H   0  0  0  0  0  0  0  0  0  0  0  0
  1  2  1  0
  2  3  1  0
  3  4  1  0
  4  5  1  0
  5  6  1  0
  5  7  1  0
  7  8  2  0
  7  9  1  0
  9 10  1  0
 10 11  2  0
 11 12  1  0
 12 13  2  0
 13 14  1  0
 13 15  1  0
 15 16  2  0
 15 17  1  0
 17 18  1  0
 17 19  1  0
 17 20  1  0
  4 21  1  0
 21 22  2  0
 22 23  1  0
 23 24  2  0
 24 25  1  0
 25 26  2  0
  6  2  1  0
 16 10  1  0
 26 21  1  0
  1 27  1  0
  1 28  1  0
  1 29  1  0
  2 30  1  1
  3 31  1  0
  3 32  1  0
  4 33  1  1
  6 34  1  0
  6 35  1  0
  9 36  1  0
 11 37  1  0
 12 38  1  0
 16 39  1  0
 22 40  1  0
 23 41  1  0
 24 42  1  0
 25 43  1  0
 26 44  1  0
M  END
$$$$
[H]OC([H])([H])[C@]1([H])O[C@]([H])(n2c([H])nc3c(N([H])[H])nc([H])nc32)[C@]([H])(O[H])[C@]1([H])O[H]
     RDKit          3D

 32 34  0  0  0  0  0  0  0  0999 V2000
    5.2631   -0.6767    0.8428 N   0  0  0  0  0  0  0  0  0  0  0  0
    4.2067   -0.4874   -0.1023 C   0  0  0  0  0  0  0  0  0  0  0  0
    4.4142   -0.5163   -1.4298 N   0  0  0  0  0  0  0  0  0  0  0  0
    3.4557   -0.3441   -2.3566 C   0  0  0  0  0  0  0  0  0  0  0  0
    2.2001   -0.1276   -1.9338 N   0  0  0  0  0  0  0  0  0  0  0  0
    1.9067   -0.0836   -0.6290 C   0  0  0  0  0  0  0  0  0  0  0  0
    0.7494    0.1142    0.0758 N   0  0  0  0  0  0  0  0  0  0  0  0
    1.0420    0.0560    1.3864 C   0  0  0  0  0  0  0  0  0  0  0  0
    2.3582   -0.1741    1.5160 N   0  0  0  0  0  0  0  0  0  0  0  0
    2.9038   -0.2626    0.3094 C   0  0  0  0  0  0  0  0  0  0  0  0
   -0.5239    0.3393   -0.5310 C   0  0  1  0  0  0  0  0  0  0  0  0
   -1.3396   -0.8009   -0.4363 O   0  0  0  0  0  0  0  0  0  0  0  0
   -2.6379   -0.3127   -0.5574 C   0  0  1  0  0  0  0  0  0  0  0  0
   -3.6349   -1.3740   -0.1794 C   0  0  0  0  0  0  0  0  0  0  0  0
   -4.9201   -0.8776   -0.3037 O   0  0  0  0  0  0  0  0  0  0  0  0
   -2.6098    0.8341    0.4326 C   0  0  1  0  0  0  0  0  0  0  0  0
   -2.5696    0.2848    1.7094 O   0  0  0  0  0  0  0  0  0  0  0  0
   -1.2975    1.4853    0.0430 C   0  0  1  0  0  0  0  0  0  0  0  0
   -0.6840    2.1513    1.0599 O   0  0  0  0  0  0  0  0  0  0  0  0
    5.3887   -1.5561    1.3890 H   0  0  0  0  0  0  0  0  0  0  0  0
    5.9792    0.0734    1.0387 H   0  0  0  0  0  0  0  0  0  0  0  0
    3.6965   -0.3802   -3.4335 H   0  0  0  0  0  0  0  0  0  0  0  0
    0.2908    0.1825    2.1755 H   0  0  0  0  0  0  0  0  0  0  0  0
   -0.4093    0.5304   -1.6181 H   0  0  0  0  0  0  0  0  0  0  0  0
   -2.8833    0.0631   -1.5510 H   0  0  0  0  0  0  0  0  0  0  0  0
   -3.4424   -1.8162    0.8179 H   0  0  0  0  0  0  0  0  0  0  0  0
   -3.5233   -2.1970   -0.9157 H   0  0  0  0  0  0  0  0  0  0  0  0
   -4.9585   -0.0350   -0.8418 H   0  0  0  0  0  0  0  0  0  0  0  0
   -3.4633    1.5253    0.3010 H   0  0  0  0  0  0  0  0  0  0  0  0
   -2.0370   -0.5629    1.6614 H   0  0  0  0  0  0  0  0  0  0  0  0
   -1.5698    2.2520   -0.7411 H   0  0  0  0  0  0  0  0  0  0  0  0
   -1.3510    2.6933    1.5453 H   0  0  0  0  0  0  0  0  0  0  0  0
  1  2  1  0
  2  3  2  0
  3  4  1  0
  4  5  2  0
  5  6  1  0
  6  7  1  0
  7  8  1  0
  8  9  2  0
  9 10  1  0
  7 11  1  0
 11 12  1  0
 12 13  1  0
 13 14  1  0
 14 15  1  0
 13 16  1  0
 16 17  1  0
 16 18  1  0
 18 19  1  0
 10  2  1  0
 18 11  1  0
 10  6  2  0
  1 20  1  0
  1 21  1  0
  4 22  1  0
  8 23  1  0
 11 24  1  6
 13 25  1  6
 14 26  1  0
 14 27  1  0
 15 28  1  0
 16 29  1  1
 17 30  1  0
 18 31  1  6
 19 32  1  0
M  END
$$$$
[H]c1nc(N([H])[H])c2c(-c3c([H])c([H])c(Oc4c([H])c([H])c([H])c([H])c4[H])c([H])c3[H])c([H])n([C@@]3([H])C([H])([H])N(C(=O)N([H])c4c([H])c([H])c([H])c([H])c4[H])C([H])([H])C([H])([H])C3([H])[H])c2n1
     RDKit          3D

 66 71  0  0  0  0  0  0  0  0999 V2000
    2.0981   -3.8793   -0.1863 N   0  0  0  0  0  0  0  0  0  0  0  0
    0.8290   -3.4012   -0.5505 C   0  0  0  0  0  0  0  0  0  0  0  0
   -0.1894   -4.2678   -0.6357 N   0  0  0  0  0  0  0  0  0  0  0  0
   -1.4190   -3.8950   -0.9960 C   0  0  0  0  0  0  0  0  0  0  0  0
   -1.6292   -2.6015   -1.2810 N   0  0  0  0  0  0  0  0  0  0  0  0
   -0.6464   -1.6864   -1.2129 C   0  0  0  0  0  0  0  0  0  0  0  0
   -0.5971   -0.3558   -1.4530 N   0  0  0  0  0  0  0  0  0  0  0  0
    0.6482    0.0975   -1.2434 C   0  0  0  0  0  0  0  0  0  0  0  0
    1.4619   -0.9648   -0.8489 C   0  0  0  0  0  0  0  0  0  0  0  0
    2.8467   -0.8702   -0.4984 C   0  0  0  0  0  0  0  0  0  0  0  0
    3.7809   -0.4123   -1.4425 C   0  0  0  0  0  0  0  0  0  0  0  0
    5.1139   -0.2669   -1.1481 C   0  0  0  0  0  0  0  0  0  0  0  0
    5.6078   -0.5665    0.1027 C   0  0  0  0  0  0  0  0  0  0  0  0
    6.9671   -0.4203    0.4087 O   0  0  0  0  0  0  0  0  0  0  0  0
    7.5183    0.7284    0.9062 C   0  0  0  0  0  0  0  0  0  0  0  0
    7.5980    0.9485    2.2535 C   0  0  0  0  0  0  0  0  0  0  0  0
    8.1525    2.1057    2.7907 C   0  0  0  0  0  0  0  0  0  0  0  0
    8.6303    3.0449    1.8815 C   0  0  0  0  0  0  0  0  0  0  0  0
    8.5608    2.8451    0.5204 C   0  0  0  0  0  0  0  0  0  0  0  0
    7.9999    1.6762    0.0207 C   0  0  0  0  0  0  0  0  0  0  0  0
    4.7010   -1.0164    1.0376 C   0  0  0  0  0  0  0  0  0  0  0  0
    3.3653   -1.1627    0.7454 C   0  0  0  0  0  0  0  0  0  0  0  0
    0.6529   -2.0676   -0.8335 C   0  0  0  0  0  0  0  0  0  0  0  0
   -1.7696    0.3974   -1.8735 C   0  0  2  0  0  0  0  0  0  0  0  0
   -1.4409    1.8107   -2.2299 C   0  0  0  0  0  0  0  0  0  0  0  0
   -2.6913    2.4733   -2.7440 C   0  0  0  0  0  0  0  0  0  0  0  0
   -3.9063    1.5788   -2.6471 C   0  0  0  0  0  0  0  0  0  0  0  0
   -4.0048    1.0122   -1.3275 N   0  0  0  0  0  0  0  0  0  0  0  0
   -2.8118    0.4355   -0.7497 C   0  0  0  0  0  0  0  0  0  0  0  0
   -5.2068    0.9870   -0.5601 C   0  0  0  0  0  0  0  0  0  0  0  0
   -6.2063    1.4902   -1.0887 O   0  0  0  0  0  0  0  0  0  0  0  0
   -5.2172    0.4190    0.7102 N   0  0  0  0  0  0  0  0  0  0  0  0
   -6.3220    0.3447    1.5500 C   0  0  0  0  0  0  0  0  0  0  0  0
   -7.3902    1.1764    1.4298 C   0  0  0  0  0  0  0  0  0  0  0  0
   -8.4714    1.0233    2.2888 C   0  0  0  0  0  0  0  0  0  0  0  0
   -8.4623    0.0521    3.2412 C   0  0  0  0  0  0  0  0  0  0  0  0
   -7.3768   -0.7926    3.3640 C   0  0  0  0  0  0  0  0  0  0  0  0
   -6.2935   -0.6668    2.5300 C   0  0  0  0  0  0  0  0  0  0  0  0
    2.8724   -3.8674   -0.8677 H   0  0  0  0  0  0  0  0  0  0  0  0
    2.2646   -4.2456    0.7644 H   0  0  0  0  0  0  0  0  0  0  0  0
   -2.2275   -4.6211   -1.0565 H   0  0  0  0  0  0  0  0  0  0  0  0
    1.0059    1.1104   -1.3506 H   0  0  0  0  0  0  0  0  0  0  0  0
    3.4365   -0.1613   -2.4509 H   0  0  0  0  0  0  0  0  0  0  0  0
    5.8363    0.0912   -1.8913 H   0  0  0  0  0  0  0  0  0  0  0  0
    7.2247    0.2137    2.9324 H   0  0  0  0  0  0  0  0  0  0  0  0
    8.2204    2.2894    3.8470 H   0  0  0  0  0  0  0  0  0  0  0  0
    9.0744    3.9683    2.2316 H   0  0  0  0  0  0  0  0  0  0  0  0
    8.9333    3.5782   -0.1653 H   0  0  0  0  0  0  0  0  0  0  0  0
    7.9397    1.5082   -1.0381 H   0  0  0  0  0  0  0  0  0  0  0  0
    5.0909   -1.2539    2.0284 H   0  0  0  0  0  0  0  0  0  0  0  0
    2.7077   -1.5143    1.5427 H   0  0  0  0  0  0  0  0  0  0  0  0
   -2.2447   -0.1242   -2.7141 H   0  0  0  0  0  0  0  0  0  0  0  0
   -0.6007    1.9018   -2.9357 H   0  0  0  0  0  0  0  0  0  0  0  0
   -1.1461    2.3301   -1.2725 H   0  0  0  0  0  0  0  0  0  0  0  0
   -2.5789    2.7837   -3.7891 H   0  0  0  0  0  0  0  0  0  0  0  0
   -2.9379    3.3974   -2.1551 H   0  0  0  0  0  0  0  0  0  0  0  0
   -3.9132    0.8057   -3.4510 H   0  0  0  0  0  0  0  0  0  0  0  0
   -4.7995    2.2132   -2.8114 H   0  0  0  0  0  0  0  0  0  0  0  0
   -2.4537    1.1379    0.0338 H   0  0  0  0  0  0  0  0  0  0  0  0
   -2.9836   -0.5898   -0.3574 H   0  0  0  0  0  0  0  0  0  0  0  0
   -4.2937    0.0045    1.0884 H   0  0  0  0  0  0  0  0  0  0  0  0
   -7.4939    1.9848    0.7239 H   0  0  0  0  0  0  0  0  0  0  0  0
   -9.3404    1.6632    2.2263 H   0  0  0  0  0  0  0  0  0  0  0  0
   -9.2857   -0.0915    3.9221 H   0  0  0  0  0  0  0  0  0  0  0  0
   -7.3492   -1.5779    4.1213 H   0  0  0  0  0  0  0  0  0  0  0  0
   -5.4382   -1.3202    2.6137 H   0  0  0  0  0  0  0  0  0  0  0  0
  1  2  1  0
  2  3  2  0
  3  4  1  0
  4  5  2  0
  5  6  1  0
  6  7  1  0
  7  8  1  0
  8  9  2  0
  9 10  1  0
 10 11  2  0
 11 12  1  0
 12 13  2  0
 13 14  1  0
 14 15  1  0
 15 16  2  0
 16 17  1  0
 17 18  2  0
 18 19  1  0
 19 20  2  0
 13 21  1  0
 21 22  2  0
  9 23  1  0
  7 24  1  0
 24 25  1  0
 25 26  1  0
 26 27  1  0
 27 28  1  0
 28 29  1  0
 28 30  1  0
 30 31  2  0
 30 32  1  0
 32 33  1  0
 33 34  2  0
 34 35  1  0
 35 36  2  0
 36 37  1  0
 37 38  2  0
 23  2  1  0
 29 24  1  0
 38 33  1  0
 23  6  2  0
 22 10  1  0
 20 15  1  0
  1 39  1  0
  1 40  1  0
  4 41  1  0
  8 42  1  0
 11 43  1  0
 12 44  1  0
 16 45  1  0
 17 46  1  0
 18 47  1  0
 19 48  1  0
 20 49  1  0
 21 50  1  0
 22 51  1  0
 24 52  1  6
 25 53  1  0
 25 54  1  0
 26 55  1  0
 26 56  1  0
 27 57  1  0
 27 58  1  0
 29 59  1  0
 29 60  1  0
 32 61  1  0
 34 62  1  0
 35 63  1  0
 36 64  1  0
 37 65  1  0
 38 66  1  0
M  END
$$$$
[H]C(=O)[C@@]([H])(N([H])C(=O)[C@@]([H])(N([H])C(=O)[C@@]([H])(N([H])C(=O)OC([H])([H])c1c([H])c([H])c([H])c([H])c1[H])C([H])([H])c1c([H])c([H])c([H])c([H])c1[H])C([H])([H])C([H])(C([H])([H])[H])C([H])([H])[H])C([H])([H])C([H])(C([H])([H])[H])C([H])([H])[H]
     RDKit          3D

 76 77  0  0  0  0  0  0  0  0999 V2000
   -5.2007    2.8782   -0.3952 C   0  0  0  0  0  0  0  0  0  0  0  0
   -6.1513    2.4313    0.6534 C   0  0  0  0  0  0  0  0  0  0  0  0
   -6.3463    3.6068    1.6355 C   0  0  0  0  0  0  0  0  0  0  0  0
   -5.7634    1.2676    1.4784 C   0  0  0  0  0  0  0  0  0  0  0  0
   -5.5328   -0.0360    0.8111 C   0  0  2  0  0  0  0  0  0  0  0  0
   -4.4791    0.0073   -0.1676 N   0  0  0  0  0  0  0  0  0  0  0  0
   -3.1919   -0.5257    0.0601 C   0  0  0  0  0  0  0  0  0  0  0  0
   -2.9060   -1.0737    1.1314 O   0  0  0  0  0  0  0  0  0  0  0  0
   -2.1604   -0.4127   -1.0277 C   0  0  2  0  0  0  0  0  0  0  0  0
   -2.7315   -0.8712   -2.3114 C   0  0  0  0  0  0  0  0  0  0  0  0
   -3.2424   -2.2724   -2.3587 C   0  0  0  0  0  0  0  0  0  0  0  0
   -3.8158   -2.5017   -3.7851 C   0  0  0  0  0  0  0  0  0  0  0  0
   -2.2145   -3.3498   -2.1833 C   0  0  0  0  0  0  0  0  0  0  0  0
   -0.8877   -0.9339   -0.6590 N   0  0  0  0  0  0  0  0  0  0  0  0
    0.1562   -0.0474   -0.2321 C   0  0  0  0  0  0  0  0  0  0  0  0
   -0.1549    1.1951   -0.2038 O   0  0  0  0  0  0  0  0  0  0  0  0
    1.5153   -0.4934    0.1646 C   0  0  2  0  0  0  0  0  0  0  0  0
    1.5972   -1.8851    0.6885 C   0  0  0  0  0  0  0  0  0  0  0  0
    2.9802   -2.2586    1.0842 C   0  0  0  0  0  0  0  0  0  0  0  0
    3.8556   -2.8177    0.1824 C   0  0  0  0  0  0  0  0  0  0  0  0
    5.1547   -3.1721    0.5670 C   0  0  0  0  0  0  0  0  0  0  0  0
    5.5649   -2.9605    1.8623 C   0  0  0  0  0  0  0  0  0  0  0  0
    4.6841   -2.3993    2.7628 C   0  0  0  0  0  0  0  0  0  0  0  0
    3.3912   -2.0482    2.3743 C   0  0  0  0  0  0  0  0  0  0  0  0
    2.1754    0.5019    0.9822 N   0  0  0  0  0  0  0  0  0  0  0  0
    3.2093    1.3443    0.4982 C   0  0  0  0  0  0  0  0  0  0  0  0
    3.5943    1.2571   -0.6878 O   0  0  0  0  0  0  0  0  0  0  0  0
    3.8264    2.2856    1.3074 O   0  0  0  0  0  0  0  0  0  0  0  0
    4.8370    3.1662    0.9513 C   0  0  0  0  0  0  0  0  0  0  0  0
    6.0752    2.5574    0.4584 C   0  0  0  0  0  0  0  0  0  0  0  0
    6.9213    1.7707    1.2134 C   0  0  0  0  0  0  0  0  0  0  0  0
    8.0858    1.2243    0.7004 C   0  0  0  0  0  0  0  0  0  0  0  0
    8.4363    1.4591   -0.6101 C   0  0  0  0  0  0  0  0  0  0  0  0
    7.6060    2.2489   -1.4033 C   0  0  0  0  0  0  0  0  0  0  0  0
    6.4579    2.7733   -0.8562 C   0  0  0  0  0  0  0  0  0  0  0  0
   -6.7377   -0.7515    0.3628 C   0  0  0  0  0  0  0  0  0  0  0  0
   -6.8160   -1.2782   -0.7269 O   0  0  0  0  0  0  0  0  0  0  0  0
   -5.1747    4.0081   -0.3864 H   0  0  0  0  0  0  0  0  0  0  0  0
   -4.1415    2.5853   -0.2232 H   0  0  0  0  0  0  0  0  0  0  0  0
   -5.5264    2.6369   -1.4318 H   0  0  0  0  0  0  0  0  0  0  0  0
   -7.1497    2.3236    0.1655 H   0  0  0  0  0  0  0  0  0  0  0  0
   -5.3970    4.1685    1.7844 H   0  0  0  0  0  0  0  0  0  0  0  0
   -6.6336    3.2156    2.6386 H   0  0  0  0  0  0  0  0  0  0  0  0
   -7.1327    4.2854    1.3030 H   0  0  0  0  0  0  0  0  0  0  0  0
   -4.8478    1.5408    2.0546 H   0  0  0  0  0  0  0  0  0  0  0  0
   -6.5611    1.1488    2.2628 H   0  0  0  0  0  0  0  0  0  0  0  0
   -5.0984   -0.7054    1.6495 H   0  0  0  0  0  0  0  0  0  0  0  0
   -4.6485    0.4405   -1.1302 H   0  0  0  0  0  0  0  0  0  0  0  0
   -2.0111    0.7422   -1.1706 H   0  0  0  0  0  0  0  0  0  0  0  0
   -1.8783   -0.8284   -3.0673 H   0  0  0  0  0  0  0  0  0  0  0  0
   -3.4779   -0.1519   -2.7407 H   0  0  0  0  0  0  0  0  0  0  0  0
   -4.0747   -2.4559   -1.6372 H   0  0  0  0  0  0  0  0  0  0  0  0
   -3.1965   -3.1963   -4.3614 H   0  0  0  0  0  0  0  0  0  0  0  0
   -3.8730   -1.5582   -4.3246 H   0  0  0  0  0  0  0  0  0  0  0  0
   -4.8339   -2.9200   -3.6940 H   0  0  0  0  0  0  0  0  0  0  0  0
   -2.0989   -3.6825   -1.1229 H   0  0  0  0  0  0  0  0  0  0  0  0
   -1.2559   -3.0232   -2.6344 H   0  0  0  0  0  0  0  0  0  0  0  0
   -2.5703   -4.2428   -2.7913 H   0  0  0  0  0  0  0  0  0  0  0  0
   -0.6448   -1.9324   -0.6596 H   0  0  0  0  0  0  0  0  0  0  0  0
    2.0824   -0.5133   -0.8329 H   0  0  0  0  0  0  0  0  0  0  0  0
    1.1792   -2.6392   -0.0126 H   0  0  0  0  0  0  0  0  0  0  0  0
    0.9843   -2.0207    1.6288 H   0  0  0  0  0  0  0  0  0  0  0  0
    3.6116   -3.0161   -0.8587 H   0  0  0  0  0  0  0  0  0  0  0  0
    5.8699   -3.6140   -0.1121 H   0  0  0  0  0  0  0  0  0  0  0  0
    6.5513   -3.2163    2.2004 H   0  0  0  0  0  0  0  0  0  0  0  0
    4.9825   -2.2176    3.8091 H   0  0  0  0  0  0  0  0  0  0  0  0
    2.7636   -1.6128    3.1412 H   0  0  0  0  0  0  0  0  0  0  0  0
    1.8948    0.6364    2.0013 H   0  0  0  0  0  0  0  0  0  0  0  0
    5.1057    3.7327    1.8971 H   0  0  0  0  0  0  0  0  0  0  0  0
    4.5167    3.9644    0.2506 H   0  0  0  0  0  0  0  0  0  0  0  0
    6.6784    1.5619    2.2477 H   0  0  0  0  0  0  0  0  0  0  0  0
    8.7609    0.6005    1.2887 H   0  0  0  0  0  0  0  0  0  0  0  0
    9.3175    1.0674   -1.0695 H   0  0  0  0  0  0  0  0  0  0  0  0
    7.8915    2.4320   -2.4436 H   0  0  0  0  0  0  0  0  0  0  0  0
    5.8347    3.3856   -1.5037 H   0  0  0  0  0  0  0  0  0  0  0  0
   -7.5901   -0.8157    1.0236 H   0  0  0  0  0  0  0  0  0  0  0  0
  1  2  1  0
  2  3  1  0
  2  4  1  0
  4  5  1  0
  5  6  1  0
  6  7  1  0
  7  8  2  0
  7  9  1  0
  9 10  1  0
 10 11  1  0
 11 12  1  0
 11 13  1  0
  9 14  1  0
 14 15  1  0
 15 16  2  0
 15 17  1  0
 17 18  1  0
 18 19  1  0
 19 20  2  0
 20 21  1  0
 21 22  2  0
 22 23  1  0
 23 24  2  0
 17 25  1  0
 25 26  1  0
 26 27  2  0
 26 28  1  0
 28 29  1  0
 29 30  1  0
 30 31  2  0
 31 32  1  0
 32 33  2  0
 33 34  1  0
 34 35  2  0
  5 36  1  0
 36 37  2  0
 24 19  1  0
 35 30  1  0
  1 38  1  0
  1 39  1  0
  1 40  1  0
  2 41  1  0
  3 42  1  0
  3 43  1  0
  3 44  1  0
  4 45  1  0
  4 46  1  0
  5 47  1  1
  6 48  1  0
  9 49  1  6
 10 50  1  0
 10 51  1  0
 11 52  1  0
 12 53  1  0
 12 54  1  0
 12 55  1  0
 13 56  1  0
 13 57  1  0
 13 58  1  0
 14 59  1  0
 17 60  1  6
 18 61  1  0
 18 62  1  0
 20 63  1  0
 21 64  1  0
 22 65  1  0
 23 66  1  0
 24 67  1  0
 25 68  1  0
 29 69  1  0
 29 70  1  0
 31 71  1  0
 32 72  1  0
 33 73  1  0
 34 74  1  0
 35 75  1  0
 36 76  1  0
M  END
$$$$
[H]c1c([H])c(S(=O)(=O)N2C([H])([H])C([H])([H])N(C(=O)c3c([H])c([H])c(-c4c([H])c([H])c(C#N)c([H])c4[H])c([H])c3[H])[C@]([H])(C([H])([H])[H])C2([H])[H])c([H])c([H])c1Cl
     RDKit          3D

 55 58  0  0  0  0  0  0  0  0999 V2000
   -1.9345   -0.9978    3.0622 C   0  0  0  0  0  0  0  0  0  0  0  0
   -1.8964    0.1492    2.1495 C   0  0  2  0  0  0  0  0  0  0  0  0
   -2.9544   -0.0712    1.0745 C   0  0  0  0  0  0  0  0  0  0  0  0
   -3.1626    1.1294    0.3031 N   0  0  0  0  0  0  0  0  0  0  0  0
   -2.2408    2.1698    0.5922 C   0  0  0  0  0  0  0  0  0  0  0  0
   -0.7936    1.6853    0.6602 C   0  0  0  0  0  0  0  0  0  0  0  0
   -0.6795    0.4595    1.4396 N   0  0  0  0  0  0  0  0  0  0  0  0
    0.4536   -0.3237    1.4651 C   0  0  0  0  0  0  0  0  0  0  0  0
    0.3129   -1.4181    2.1854 O   0  0  0  0  0  0  0  0  0  0  0  0
    1.7649   -0.2282    0.8860 C   0  0  0  0  0  0  0  0  0  0  0  0
    2.2385    0.8283    0.1664 C   0  0  0  0  0  0  0  0  0  0  0  0
    3.5266    0.8448   -0.3919 C   0  0  0  0  0  0  0  0  0  0  0  0
    4.3581   -0.2281   -0.2210 C   0  0  0  0  0  0  0  0  0  0  0  0
    3.9133   -1.2933    0.4913 C   0  0  0  0  0  0  0  0  0  0  0  0
    2.6547   -1.3046    1.0340 C   0  0  0  0  0  0  0  0  0  0  0  0
    5.6815   -0.1489   -0.8256 C   0  0  0  0  0  0  0  0  0  0  0  0
    5.9250    0.5368   -2.0024 C   0  0  0  0  0  0  0  0  0  0  0  0
    7.1912    0.5992   -2.5550 C   0  0  0  0  0  0  0  0  0  0  0  0
    8.2488   -0.0302   -1.9336 C   0  0  0  0  0  0  0  0  0  0  0  0
    8.0163   -0.7112   -0.7684 C   0  0  0  0  0  0  0  0  0  0  0  0
    6.7459   -0.7740   -0.2137 C   0  0  0  0  0  0  0  0  0  0  0  0
    9.5745    0.0180   -2.4845 C   0  0  0  0  0  0  0  0  0  0  0  0
   10.6522    0.0746   -2.9236 N   0  0  0  0  0  0  0  0  0  0  0  0
   -4.7853    1.6114    0.2114 S   0  0  0  0  0  0  0  0  0  0  0  0
   -5.3050    1.7333    1.6384 O   0  0  0  0  0  0  0  0  0  0  0  0
   -4.9828    2.9420   -0.4180 O   0  0  0  0  0  0  0  0  0  0  0  0
   -5.7163    0.3604   -0.5785 C   0  0  0  0  0  0  0  0  0  0  0  0
   -6.3204   -0.6687    0.1088 C   0  0  0  0  0  0  0  0  0  0  0  0
   -7.0528   -1.6494   -0.5267 C   0  0  0  0  0  0  0  0  0  0  0  0
   -7.1793   -1.5862   -1.9149 C   0  0  0  0  0  0  0  0  0  0  0  0
   -8.1049   -2.8157   -2.7658 Cl  0  0  0  0  0  0  0  0  0  0  0  0
   -6.5711   -0.5519   -2.5969 C   0  0  0  0  0  0  0  0  0  0  0  0
   -5.8483    0.4119   -1.9482 C   0  0  0  0  0  0  0  0  0  0  0  0
   -1.9713   -2.0029    2.5750 H   0  0  0  0  0  0  0  0  0  0  0  0
   -1.2417   -0.9527    3.9340 H   0  0  0  0  0  0  0  0  0  0  0  0
   -2.9594   -0.9560    3.5782 H   0  0  0  0  0  0  0  0  0  0  0  0
   -2.1415    1.0735    2.7409 H   0  0  0  0  0  0  0  0  0  0  0  0
   -3.8933   -0.3309    1.5848 H   0  0  0  0  0  0  0  0  0  0  0  0
   -2.6203   -0.8897    0.4342 H   0  0  0  0  0  0  0  0  0  0  0  0
   -2.2841    2.9293   -0.1995 H   0  0  0  0  0  0  0  0  0  0  0  0
   -2.4748    2.6617    1.5411 H   0  0  0  0  0  0  0  0  0  0  0  0
   -0.1467    2.4612    1.0904 H   0  0  0  0  0  0  0  0  0  0  0  0
   -0.5032    1.5236   -0.3968 H   0  0  0  0  0  0  0  0  0  0  0  0
    1.6767    1.7326   -0.0179 H   0  0  0  0  0  0  0  0  0  0  0  0
    3.8340    1.7148   -0.9501 H   0  0  0  0  0  0  0  0  0  0  0  0
    4.5835   -2.1514    0.6260 H   0  0  0  0  0  0  0  0  0  0  0  0
    2.3836   -2.2063    1.5908 H   0  0  0  0  0  0  0  0  0  0  0  0
    5.0898    1.0162   -2.4654 H   0  0  0  0  0  0  0  0  0  0  0  0
    7.4001    1.1296   -3.4729 H   0  0  0  0  0  0  0  0  0  0  0  0
    8.8420   -1.2118   -0.2689 H   0  0  0  0  0  0  0  0  0  0  0  0
    6.5410   -1.3076    0.7077 H   0  0  0  0  0  0  0  0  0  0  0  0
   -6.2267   -0.7265    1.2025 H   0  0  0  0  0  0  0  0  0  0  0  0
   -7.5381   -2.4652   -0.0386 H   0  0  0  0  0  0  0  0  0  0  0  0
   -6.6885   -0.5301   -3.6825 H   0  0  0  0  0  0  0  0  0  0  0  0
   -5.3912    1.1991   -2.5122 H   0  0  0  0  0  0  0  0  0  0  0  0
  1  2  1  0
  2  3  1  0
  3  4  1  0
  4  5  1  0
  5  6  1  0
  6  7  1  0
  7  8  1  0
  8  9  2  0
  8 10  1  0
 10 11  2  0
 11 12  1  0
 12 13  2  0
 13 14  1  0
 14 15  2  0
 13 16  1  0
 16 17  2  0
 17 18  1  0
 18 19  2  0
 19 20  1  0
 20 21  2  0
 19 22  1  0
 22 23  3  0
  4 24  1  0
 24 25  2  0
 24 26  2  0
 24 27  1  0
 27 28  2  0
 28 29  1  0
 29 30  2  0
 30 31  1  0
 30 32  1  0
 32 33  2  0
  7  2  1  0
 15 10  1  0
 21 16  1  0
 33 27  1  0
  1 34  1  0
  1 35  1  0
  1 36  1  0
  2 37  1  1
  3 38  1  0
  3 39  1  0
  5 40  1  0
  5 41  1  0
  6 42  1  0
  6 43  1  0
 11 44  1  0
 12 45  1  0
 14 46  1  0
 15 47  1  0
 17 48  1  0
 18 49  1  0
 20 50  1  0
 21 51  1  0
 28 52  1  0
 29 53  1  0
 32 54  1  0
 33 55  1  0
M  END
$$$$
[H]c1c([H])c(N2C([H])([H])[C@]([H])(c3c([H])c([H])c(Cl)c(F)c3[H])[C@]([H])(C([H])([H])[H])C2([H])[H])c([H])c([H])c1F
     RDKit          3D

 37 39  0  0  0  0  0  0  0  0999 V2000
   -1.4774   -2.3178    1.1560 C   0  0  0  0  0  0  0  0  0  0  0  0
   -0.3908   -1.7336    0.2936 C   0  0  2  0  0  0  0  0  0  0  0  0
    0.6667   -1.0107    1.0717 C   0  0  0  0  0  0  0  0  0  0  0  0
    1.2235   -0.1023    0.0788 N   0  0  0  0  0  0  0  0  0  0  0  0
    0.1970    0.2071   -0.8976 C   0  0  0  0  0  0  0  0  0  0  0  0
   -0.8687   -0.8370   -0.7816 C   0  0  2  0  0  0  0  0  0  0  0  0
   -2.1540   -0.1746   -0.5356 C   0  0  0  0  0  0  0  0  0  0  0  0
   -2.4009    0.5686    0.5999 C   0  0  0  0  0  0  0  0  0  0  0  0
   -3.6236    1.1904    0.8191 C   0  0  0  0  0  0  0  0  0  0  0  0
   -4.6382    1.0835   -0.0992 C   0  0  0  0  0  0  0  0  0  0  0  0
   -6.2046    1.8644    0.1542 Cl  0  0  0  0  0  0  0  0  0  0  0  0
   -4.4140    0.3517   -1.2309 C   0  0  0  0  0  0  0  0  0  0  0  0
   -5.4376    0.2568   -2.1345 F   0  0  0  0  0  0  0  0  0  0  0  0
   -3.1915   -0.2660   -1.4431 C   0  0  0  0  0  0  0  0  0  0  0  0
    2.5381    0.4270    0.0195 C   0  0  0  0  0  0  0  0  0  0  0  0
    3.4952    0.1108    0.9639 C   0  0  0  0  0  0  0  0  0  0  0  0
    4.7784    0.6226    0.9129 C   0  0  0  0  0  0  0  0  0  0  0  0
    5.1195    1.4781   -0.1134 C   0  0  0  0  0  0  0  0  0  0  0  0
    6.3689    2.0183   -0.2220 F   0  0  0  0  0  0  0  0  0  0  0  0
    4.1850    1.8256   -1.0902 C   0  0  0  0  0  0  0  0  0  0  0  0
    2.9038    1.2792   -0.9895 C   0  0  0  0  0  0  0  0  0  0  0  0
   -1.0178   -3.2152    1.6668 H   0  0  0  0  0  0  0  0  0  0  0  0
   -2.2613   -2.7151    0.5086 H   0  0  0  0  0  0  0  0  0  0  0  0
   -1.8172   -1.6617    1.9610 H   0  0  0  0  0  0  0  0  0  0  0  0
    0.1230   -2.6147   -0.1937 H   0  0  0  0  0  0  0  0  0  0  0  0
    0.3199   -0.5128    1.9746 H   0  0  0  0  0  0  0  0  0  0  0  0
    1.4813   -1.7228    1.3692 H   0  0  0  0  0  0  0  0  0  0  0  0
    0.6943    0.2020   -1.8906 H   0  0  0  0  0  0  0  0  0  0  0  0
   -0.1757    1.2368   -0.6415 H   0  0  0  0  0  0  0  0  0  0  0  0
   -0.9138   -1.3718   -1.7608 H   0  0  0  0  0  0  0  0  0  0  0  0
   -1.6592    0.6947    1.3560 H   0  0  0  0  0  0  0  0  0  0  0  0
   -3.8143    1.7742    1.7134 H   0  0  0  0  0  0  0  0  0  0  0  0
   -3.0604   -0.8305   -2.3460 H   0  0  0  0  0  0  0  0  0  0  0  0
    3.2131   -0.5554    1.7546 H   0  0  0  0  0  0  0  0  0  0  0  0
    5.5420    0.3879    1.6417 H   0  0  0  0  0  0  0  0  0  0  0  0
    4.4721    2.4893   -1.8747 H   0  0  0  0  0  0  0  0  0  0  0  0
    2.1991    1.5730   -1.7705 H   0  0  0  0  0  0  0  0  0  0  0  0
  1  2  1  0
  2  3  1  0
  3  4  1  0
  4  5  1  0
  5  6  1  0
  6  7  1  0
  7  8  2  0
  8  9  1  0
  9 10  2  0
 10 11  1  0
 10 12  1  0
 12 13  1  0
 12 14  2  0
  4 15  1  0
 15 16  2  0
 16 17  1  0
 17 18  2  0
 18 19  1  0
 18 20  1  0
 20 21  2  0
  6  2  1  0
 14  7  1  0
 21 15  1  0
  1 22  1  0
  1 23  1  0
  1 24  1  0
  2 25  1  6
  3 26  1  0
  3 27  1  0
  5 28  1  0
  5 29  1  0
  6 30  1  6
  8 31  1  0
  9 32  1  0
 14 33  1  0
 16 34  1  0
 17 35  1  0
 20 36  1  0
 21 37  1  0
M  END
$$$$
[H]OC(=O)c1c([H])c([H])c(F)c(S(=O)(=O)N([H])c2c([H])c([H])c(C(F)(F)F)c([H])c2[H])c1[H]
     RDKit          3D

 33 34  0  0  0  0  0  0  0  0999 V2000
    5.6066    2.0831   -0.9383 O   0  0  0  0  0  0  0  0  0  0  0  0
    5.6822    0.7636   -0.4918 C   0  0  0  0  0  0  0  0  0  0  0  0
    6.7857    0.2593   -0.2501 O   0  0  0  0  0  0  0  0  0  0  0  0
    4.4445   -0.0448   -0.3101 C   0  0  0  0  0  0  0  0  0  0  0  0
    4.4820   -1.3401    0.1477 C   0  0  0  0  0  0  0  0  0  0  0  0
    3.2892   -2.0565    0.2998 C   0  0  0  0  0  0  0  0  0  0  0  0
    2.0815   -1.4807   -0.0050 C   0  0  0  0  0  0  0  0  0  0  0  0
    0.9334   -2.1673    0.1216 F   0  0  0  0  0  0  0  0  0  0  0  0
    2.0339   -0.2179   -0.4562 C   0  0  0  0  0  0  0  0  0  0  0  0
    3.2348    0.5093   -0.6152 C   0  0  0  0  0  0  0  0  0  0  0  0
    0.5912    0.7148   -0.8661 S   0  0  0  0  0  0  0  0  0  0  0  0
   -0.1363    0.0308   -2.0226 O   0  0  0  0  0  0  0  0  0  0  0  0
    0.9936    2.0726   -1.3550 O   0  0  0  0  0  0  0  0  0  0  0  0
   -0.4240    0.7852    0.5013 N   0  0  0  0  0  0  0  0  0  0  0  0
   -1.8123    0.3460    0.5046 C   0  0  0  0  0  0  0  0  0  0  0  0
   -2.2931   -0.6352   -0.2884 C   0  0  0  0  0  0  0  0  0  0  0  0
   -3.6518   -0.9197   -0.3887 C   0  0  0  0  0  0  0  0  0  0  0  0
   -4.5246   -0.1542    0.3672 C   0  0  0  0  0  0  0  0  0  0  0  0
   -4.0462    0.8454    1.1832 C   0  0  0  0  0  0  0  0  0  0  0  0
   -2.6866    1.1077    1.2592 C   0  0  0  0  0  0  0  0  0  0  0  0
   -6.0295   -0.3159    0.2757 C   0  0  0  0  0  0  0  0  0  0  0  0
   -6.6165   -0.2181    1.4978 F   0  0  0  0  0  0  0  0  0  0  0  0
   -6.2493   -1.5797   -0.2530 F   0  0  0  0  0  0  0  0  0  0  0  0
   -6.5555    0.5895   -0.6007 F   0  0  0  0  0  0  0  0  0  0  0  0
    5.6692    2.8382   -0.2564 H   0  0  0  0  0  0  0  0  0  0  0  0
    5.3871   -1.8120    0.3924 H   0  0  0  0  0  0  0  0  0  0  0  0
    3.3315   -3.0924    0.6620 H   0  0  0  0  0  0  0  0  0  0  0  0
    3.2407    1.5274   -0.9835 H   0  0  0  0  0  0  0  0  0  0  0  0
   -0.0298    1.1689    1.4133 H   0  0  0  0  0  0  0  0  0  0  0  0
   -1.6795   -1.2678   -0.8812 H   0  0  0  0  0  0  0  0  0  0  0  0
   -4.0471   -1.6841   -1.0388 H   0  0  0  0  0  0  0  0  0  0  0  0
   -4.7137    1.4639    1.7965 H   0  0  0  0  0  0  0  0  0  0  0  0
   -2.2911    1.8805    1.9059 H   0  0  0  0  0  0  0  0  0  0  0  0
  1  2  1  0
  2  3  2  0
  2  4  1  0
  4  5  2  0
  5  6  1  0
  6  7  2  0
  7  8  1  0
  7  9  1  0
  9 10  2  0
  9 11  1  0
 11 12  2  0
 11 13  2  0
 11 14  1  0
 14 15  1  0
 15 16  2  0
 16 17  1  0
 17 18  2  0
 18 19  1  0
 19 20  2  0
 18 21  1  0
 21 22  1  0
 21 23  1  0
 21 24  1  0
 10  4  1  0
 20 15  1  0
  1 25  1  0
  5 26  1  0
  6 27  1  0
 10 28  1  0
 14 29  1  0
 16 30  1  0
 17 31  1  0
 19 32  1  0
 20 33  1  0
M  END
$$$$
[H]OC(=O)C([H])([H])[C@@]([H])(C(=O)O[H])N([H])C(=O)[C@@]([H])(N([H])C(=O)[C@@]([H])(N([H])C(=O)[C@@]([H])(N([H])C(=O)[C@@]([H])(N([H])C(=O)[C@@]([H])(N([H])[H])C([H])([H])C([H])(C([H])([H])[H])C([H])([H])[H])C([H])([H])c1c([H])c([H])c([H])c([H])c1[H])C([H])([H])C(=O)O[H])C([H])([H])C([H])(C([H])([H])[H])C([H])([H])[H])C([H])([H])C(=O)O[H]
     RDKit          3D

100100  0  0  0  0  0  0  0  0999 V2000
   10.2453    0.2293   -0.1314 C   0  0  0  0  0  0  0  0  0  0  0  0
    8.8745    0.6965    0.3959 C   0  0  0  0  0  0  0  0  0  0  0  0
    9.1128    1.7541    1.4453 C   0  0  0  0  0  0  0  0  0  0  0  0
    8.1492   -0.4569    1.0144 C   0  0  0  0  0  0  0  0  0  0  0  0
    6.8140   -0.0563    1.5537 C   0  0  2  0  0  0  0  0  0  0  0  0
    6.1582   -1.2364    2.1648 N   0  0  0  0  0  0  0  0  0  0  0  0
    5.9114    0.3807    0.4786 C   0  0  0  0  0  0  0  0  0  0  0  0
    6.0936    1.4910   -0.0742 O   0  0  0  0  0  0  0  0  0  0  0  0
    4.8312   -0.4391    0.0592 N   0  0  0  0  0  0  0  0  0  0  0  0
    3.9260    0.0064   -0.9967 C   0  0  1  0  0  0  0  0  0  0  0  0
    3.8995   -0.9564   -2.1472 C   0  0  0  0  0  0  0  0  0  0  0  0
    5.2796   -1.0321   -2.6800 C   0  0  0  0  0  0  0  0  0  0  0  0
    6.2241   -1.9382   -2.2626 C   0  0  0  0  0  0  0  0  0  0  0  0
    7.5137   -1.9419   -2.8039 C   0  0  0  0  0  0  0  0  0  0  0  0
    7.8739   -1.0276   -3.7782 C   0  0  0  0  0  0  0  0  0  0  0  0
    6.9297   -0.1265   -4.1922 C   0  0  0  0  0  0  0  0  0  0  0  0
    5.6640   -0.1242   -3.6600 C   0  0  0  0  0  0  0  0  0  0  0  0
    2.6255    0.2403   -0.3578 C   0  0  0  0  0  0  0  0  0  0  0  0
    2.5009    0.0361    0.8715 O   0  0  0  0  0  0  0  0  0  0  0  0
    1.4918    0.7021   -1.1259 N   0  0  0  0  0  0  0  0  0  0  0  0
    0.2266    0.9212   -0.4530 C   0  0  1  0  0  0  0  0  0  0  0  0
    0.0234    2.4592   -0.2924 C   0  0  0  0  0  0  0  0  0  0  0  0
   -1.2485    2.7269    0.3979 C   0  0  0  0  0  0  0  0  0  0  0  0
   -2.2136    3.5355   -0.1633 O   0  0  0  0  0  0  0  0  0  0  0  0
   -1.4624    2.2102    1.5163 O   0  0  0  0  0  0  0  0  0  0  0  0
   -0.9505    0.3877   -1.1621 C   0  0  0  0  0  0  0  0  0  0  0  0
   -1.0488    0.5513   -2.3993 O   0  0  0  0  0  0  0  0  0  0  0  0
   -1.9505   -0.2925   -0.4609 N   0  0  0  0  0  0  0  0  0  0  0  0
   -3.1889   -0.8274   -1.0636 C   0  0  1  0  0  0  0  0  0  0  0  0
   -2.7498   -2.1969   -1.5764 C   0  0  0  0  0  0  0  0  0  0  0  0
   -3.8134   -2.9631   -2.2711 C   0  0  0  0  0  0  0  0  0  0  0  0
   -4.3616   -2.2445   -3.4863 C   0  0  0  0  0  0  0  0  0  0  0  0
   -3.1207   -4.2261   -2.8321 C   0  0  0  0  0  0  0  0  0  0  0  0
   -4.2398   -0.8888   -0.0623 C   0  0  0  0  0  0  0  0  0  0  0  0
   -3.9298   -1.3576    1.0866 O   0  0  0  0  0  0  0  0  0  0  0  0
   -5.5418   -0.4617   -0.2716 N   0  0  0  0  0  0  0  0  0  0  0  0
   -6.6509   -0.4487    0.6285 C   0  0  1  0  0  0  0  0  0  0  0  0
   -6.5968   -1.3950    1.8024 C   0  0  0  0  0  0  0  0  0  0  0  0
   -6.5706   -2.8081    1.3519 C   0  0  0  0  0  0  0  0  0  0  0  0
   -6.3850   -3.8399    2.2677 O   0  0  0  0  0  0  0  0  0  0  0  0
   -6.7113   -3.1445    0.1597 O   0  0  0  0  0  0  0  0  0  0  0  0
   -6.9483    0.9318    1.0238 C   0  0  0  0  0  0  0  0  0  0  0  0
   -6.9271    1.8435    0.1791 O   0  0  0  0  0  0  0  0  0  0  0  0
   -7.2457    1.1884    2.3668 N   0  0  0  0  0  0  0  0  0  0  0  0
   -7.5404    2.5920    2.7623 C   0  0  1  0  0  0  0  0  0  0  0  0
   -8.6513    2.4698    3.7620 C   0  0  0  0  0  0  0  0  0  0  0  0
   -9.1309    3.7722    4.2152 C   0  0  0  0  0  0  0  0  0  0  0  0
   -9.9694    3.7819    5.3444 O   0  0  0  0  0  0  0  0  0  0  0  0
   -8.8238    4.8409    3.6432 O   0  0  0  0  0  0  0  0  0  0  0  0
   -6.2643    3.0777    3.4078 C   0  0  0  0  0  0  0  0  0  0  0  0
   -6.1600    4.3459    3.8878 O   0  0  0  0  0  0  0  0  0  0  0  0
   -5.2985    2.3040    3.4991 O   0  0  0  0  0  0  0  0  0  0  0  0
   10.0135   -0.3845   -1.0208 H   0  0  0  0  0  0  0  0  0  0  0  0
   10.7861    1.1541   -0.4118 H   0  0  0  0  0  0  0  0  0  0  0  0
   10.7345   -0.3543    0.6496 H   0  0  0  0  0  0  0  0  0  0  0  0
    8.3559    1.1662   -0.4619 H   0  0  0  0  0  0  0  0  0  0  0  0
   10.2206    1.9820    1.5179 H   0  0  0  0  0  0  0  0  0  0  0  0
    8.7651    1.3798    2.4205 H   0  0  0  0  0  0  0  0  0  0  0  0
    8.5703    2.6901    1.1570 H   0  0  0  0  0  0  0  0  0  0  0  0
    8.7266   -0.9003    1.8645 H   0  0  0  0  0  0  0  0  0  0  0  0
    8.0464   -1.2300    0.1929 H   0  0  0  0  0  0  0  0  0  0  0  0
    6.8680    0.7665    2.2860 H   0  0  0  0  0  0  0  0  0  0  0  0
    5.1695   -0.9446    2.4037 H   0  0  0  0  0  0  0  0  0  0  0  0
    6.6896   -1.4597    3.0575 H   0  0  0  0  0  0  0  0  0  0  0  0
    4.6582   -1.3750    0.4896 H   0  0  0  0  0  0  0  0  0  0  0  0
    4.3701    0.9546   -1.3992 H   0  0  0  0  0  0  0  0  0  0  0  0
    3.5110   -1.9634   -1.8731 H   0  0  0  0  0  0  0  0  0  0  0  0
    3.2530   -0.5057   -2.9328 H   0  0  0  0  0  0  0  0  0  0  0  0
    5.9616   -2.6530   -1.5135 H   0  0  0  0  0  0  0  0  0  0  0  0
    8.2645   -2.6469   -2.4867 H   0  0  0  0  0  0  0  0  0  0  0  0
    8.8866   -1.0623   -4.1730 H   0  0  0  0  0  0  0  0  0  0  0  0
    7.1962    0.5946   -4.9539 H   0  0  0  0  0  0  0  0  0  0  0  0
    4.9275    0.6117   -4.0135 H   0  0  0  0  0  0  0  0  0  0  0  0
    1.5666    0.8729   -2.1309 H   0  0  0  0  0  0  0  0  0  0  0  0
    0.2170    0.5627    0.5837 H   0  0  0  0  0  0  0  0  0  0  0  0
    0.0263    2.8972   -1.3052 H   0  0  0  0  0  0  0  0  0  0  0  0
    0.8426    2.8167    0.3616 H   0  0  0  0  0  0  0  0  0  0  0  0
   -2.5330    3.4402   -1.1234 H   0  0  0  0  0  0  0  0  0  0  0  0
   -1.8554   -0.4694    0.5526 H   0  0  0  0  0  0  0  0  0  0  0  0
   -3.3791   -0.2339   -1.9598 H   0  0  0  0  0  0  0  0  0  0  0  0
   -1.8214   -2.0951   -2.1681 H   0  0  0  0  0  0  0  0  0  0  0  0
   -2.4461   -2.7886   -0.6730 H   0  0  0  0  0  0  0  0  0  0  0  0
   -4.5695   -3.2909   -1.5664 H   0  0  0  0  0  0  0  0  0  0  0  0
   -5.3683   -2.7097   -3.6815 H   0  0  0  0  0  0  0  0  0  0  0  0
   -4.5586   -1.1781   -3.3116 H   0  0  0  0  0  0  0  0  0  0  0  0
   -3.7300   -2.4714   -4.3457 H   0  0  0  0  0  0  0  0  0  0  0  0
   -2.2583   -3.8348   -3.4305 H   0  0  0  0  0  0  0  0  0  0  0  0
   -3.8782   -4.7012   -3.4771 H   0  0  0  0  0  0  0  0  0  0  0  0
   -2.7580   -4.8528   -2.0029 H   0  0  0  0  0  0  0  0  0  0  0  0
   -5.7533   -0.0784   -1.2501 H   0  0  0  0  0  0  0  0  0  0  0  0
   -7.5253   -0.8768    0.0187 H   0  0  0  0  0  0  0  0  0  0  0  0
   -7.6307   -1.2907    2.2796 H   0  0  0  0  0  0  0  0  0  0  0  0
   -5.8481   -1.1659    2.5541 H   0  0  0  0  0  0  0  0  0  0  0  0
   -7.0943   -4.5781    2.3569 H   0  0  0  0  0  0  0  0  0  0  0  0
   -7.2706    0.4837    3.1132 H   0  0  0  0  0  0  0  0  0  0  0  0
   -7.7071    3.2331    1.9131 H   0  0  0  0  0  0  0  0  0  0  0  0
   -8.1797    1.9673    4.6682 H   0  0  0  0  0  0  0  0  0  0  0  0
   -9.4761    1.7991    3.4146 H   0  0  0  0  0  0  0  0  0  0  0  0
  -10.0939    4.6587    5.8379 H   0  0  0  0  0  0  0  0  0  0  0  0
   -5.5670    5.0179    3.3921 H   0  0  0  0  0  0  0  0  0  0  0  0
  1  2  1  0
  2  3  1  0
  2  4  1  0
  4  5  1  0
  5  6  1  0
  5  7  1  0
  7  8  2  0
  7  9  1  0
  9 10  1  0
 10 11  1  0
 11 12  1  0
 12 13  2  0
 13 14  1  0
 14 15  2  0
 15 16  1  0
 16 17  2  0
 10 18  1  0
 18 19  2  0
 18 20  1  0
 20 21  1  0
 21 22  1  0
 22 23  1  0
 23 24  1  0
 23 25  2  0
 21 26  1  0
 26 27  2  0
 26 28  1  0
 28 29  1  0
 29 30  1  0
 30 31  1  0
 31 32  1  0
 31 33  1  0
 29 34  1  0
 34 35  2  0
 34 36  1  0
 36 37  1  0
 37 38  1  0
 38 39  1  0
 39 40  1  0
 39 41  2  0
 37 42  1  0
 42 43  2  0
 42 44  1  0
 44 45  1  0
 45 46  1  0
 46 47  1  0
 47 48  1  0
 47 49  2  0
 45 50  1  0
 50 51  1  0
 50 52  2  0
 17 12  1  0
  1 53  1  0
  1 54  1  0
  1 55  1  0
  2 56  1  0
  3 57  1  0
  3 58  1  0
  3 59  1  0
  4 60  1  0
  4 61  1  0
  5 62  1  1
  6 63  1  0
  6 64  1  0
  9 65  1  0
 10 66  1  6
 11 67  1  0
 11 68  1  0
 13 69  1  0
 14 70  1  0
 15 71  1  0
 16 72  1  0
 17 73  1  0
 20 74  1  0
 21 75  1  1
 22 76  1  0
 22 77  1  0
 24 78  1  0
 28 79  1  0
 29 80  1  6
 30 81  1  0
 30 82  1  0
 31 83  1  0
 32 84  1  0
 32 85  1  0
 32 86  1  0
 33 87  1  0
 33 88  1  0
 33 89  1  0
 36 90  1  0
 37 91  1  6
 38 92  1  0
 38 93  1  0
 40 94  1  0
 44 95  1  0
 45 96  1  6
 46 97  1  0
 46 98  1  0
 48 99  1  0
 51100  1  0
M  END
$$$$
[H]ON([H])C(=O)[C@@]1([H])N(S(=O)(=O)c2c([H])c([H])c(OC([H])([H])[H])c([H])c2[H])C([H])([H])c2c([H])c([H])c([H])c([H])c2C1([H])[H]
     RDKit          3D

 43 45  0  0  0  0  0  0  0  0999 V2000
    5.6426   -1.1770    1.7594 C   0  0  0  0  0  0  0  0  0  0  0  0
    5.4207   -0.3418    0.6454 O   0  0  0  0  0  0  0  0  0  0  0  0
    4.1937   -0.0387    0.1046 C   0  0  0  0  0  0  0  0  0  0  0  0
    4.1380    0.8050   -0.9949 C   0  0  0  0  0  0  0  0  0  0  0  0
    2.9220    1.1146   -1.5419 C   0  0  0  0  0  0  0  0  0  0  0  0
    1.7205    0.6172   -1.0451 C   0  0  0  0  0  0  0  0  0  0  0  0
    1.7811   -0.2125    0.0362 C   0  0  0  0  0  0  0  0  0  0  0  0
    3.0261   -0.5346    0.6049 C   0  0  0  0  0  0  0  0  0  0  0  0
    0.2703    1.1231   -1.8722 S   0  0  0  0  0  0  0  0  0  0  0  0
    0.2973    2.6245   -1.8757 O   0  0  0  0  0  0  0  0  0  0  0  0
    0.4915    0.7060   -3.3299 O   0  0  0  0  0  0  0  0  0  0  0  0
   -1.0938    0.3984   -1.3104 N   0  0  0  0  0  0  0  0  0  0  0  0
   -1.2395   -0.9972   -1.3896 C   0  0  0  0  0  0  0  0  0  0  0  0
   -2.0775   -1.5133   -0.2724 C   0  0  0  0  0  0  0  0  0  0  0  0
   -2.4727   -2.8603   -0.3721 C   0  0  0  0  0  0  0  0  0  0  0  0
   -3.2453   -3.4482    0.6051 C   0  0  0  0  0  0  0  0  0  0  0  0
   -3.6101   -2.6661    1.6750 C   0  0  0  0  0  0  0  0  0  0  0  0
   -3.2353   -1.3376    1.7989 C   0  0  0  0  0  0  0  0  0  0  0  0
   -2.4709   -0.7726    0.8211 C   0  0  0  0  0  0  0  0  0  0  0  0
   -2.0239    0.6795    0.8388 C   0  0  0  0  0  0  0  0  0  0  0  0
   -2.0976    1.0583   -0.6147 C   0  0  1  0  0  0  0  0  0  0  0  0
   -2.2956    2.5150   -0.8765 C   0  0  0  0  0  0  0  0  0  0  0  0
   -2.5124    2.7734   -2.0909 O   0  0  0  0  0  0  0  0  0  0  0  0
   -2.2351    3.4347    0.1204 N   0  0  0  0  0  0  0  0  0  0  0  0
   -2.1778    4.3080    1.0666 O   0  0  0  0  0  0  0  0  0  0  0  0
    4.7905   -1.0888    2.4646 H   0  0  0  0  0  0  0  0  0  0  0  0
    6.5648   -0.8709    2.3222 H   0  0  0  0  0  0  0  0  0  0  0  0
    5.7283   -2.2414    1.4565 H   0  0  0  0  0  0  0  0  0  0  0  0
    5.0508    1.2057   -1.4035 H   0  0  0  0  0  0  0  0  0  0  0  0
    2.9411    1.7855   -2.4013 H   0  0  0  0  0  0  0  0  0  0  0  0
    0.8732   -0.6083    0.4318 H   0  0  0  0  0  0  0  0  0  0  0  0
    3.0435   -1.1943    1.4612 H   0  0  0  0  0  0  0  0  0  0  0  0
   -1.7855   -1.2890   -2.3422 H   0  0  0  0  0  0  0  0  0  0  0  0
   -0.2691   -1.5543   -1.4335 H   0  0  0  0  0  0  0  0  0  0  0  0
   -2.1729   -3.4712   -1.2245 H   0  0  0  0  0  0  0  0  0  0  0  0
   -3.5407   -4.5014    0.5008 H   0  0  0  0  0  0  0  0  0  0  0  0
   -4.2150   -3.0997    2.4506 H   0  0  0  0  0  0  0  0  0  0  0  0
   -3.5263   -0.7180    2.6423 H   0  0  0  0  0  0  0  0  0  0  0  0
   -0.9938    0.6293    1.2417 H   0  0  0  0  0  0  0  0  0  0  0  0
   -2.7108    1.2795    1.4679 H   0  0  0  0  0  0  0  0  0  0  0  0
   -3.0858    0.5770   -0.9692 H   0  0  0  0  0  0  0  0  0  0  0  0
   -2.4913    4.4996   -0.7030 H   0  0  0  0  0  0  0  0  0  0  0  0
   -1.3174    4.4026    1.5473 H   0  0  0  0  0  0  0  0  0  0  0  0
  1  2  1  0
  2  3  1  0
  3  4  2  0
  4  5  1  0
  5  6  2  0
  6  7  1  0
  7  8  2  0
  6  9  1  0
  9 10  2  0
  9 11  2  0
  9 12  1  0
 12 13  1  0
 13 14  1  0
 14 15  2  0
 15 16  1  0
 16 17  2  0
 17 18  1  0
 18 19  2  0
 19 20  1  0
 20 21  1  0
 21 22  1  0
 22 23  2  0
 22 24  1  0
 24 25  1  0
  8  3  1  0
 21 12  1  0
 19 14  1  0
  1 26  1  0
  1 27  1  0
  1 28  1  0
  4 29  1  0
  5 30  1  0
  7 31  1  0
  8 32  1  0
 13 33  1  0
 13 34  1  0
 15 35  1  0
 16 36  1  0
 17 37  1  0
 18 38  1  0
 20 39  1  0
 20 40  1  0
 21 41  1  6
 24 42  1  0
 25 43  1  0
M  END
$$$$
[H]OC([H])([H])[C@]1([H])O[C@@]([H])(n2c([H])nc3c(N([H])[H])nc([H])nc32)[C@]([H])(O[H])[C@@]1([H])O[H]
     RDKit          3D

 32 34  0  0  0  0  0  0  0  0999 V2000
    5.2993    1.2493   -0.0364 N   0  0  0  0  0  0  0  0  0  0  0  0
    4.2460    0.3275   -0.2484 C   0  0  0  0  0  0  0  0  0  0  0  0
    4.4790   -0.9552   -0.5877 N   0  0  0  0  0  0  0  0  0  0  0  0
    3.4999   -1.8544   -0.7957 C   0  0  0  0  0  0  0  0  0  0  0  0
    2.2316   -1.4323   -0.6529 N   0  0  0  0  0  0  0  0  0  0  0  0
    1.9202   -0.1711   -0.3170 C   0  0  0  0  0  0  0  0  0  0  0  0
    0.7163    0.4061   -0.1355 N   0  0  0  0  0  0  0  0  0  0  0  0
    0.9940    1.6851    0.1895 C   0  0  0  0  0  0  0  0  0  0  0  0
    2.3234    1.8933    0.2088 N   0  0  0  0  0  0  0  0  0  0  0  0
    2.9172    0.7380   -0.1069 C   0  0  0  0  0  0  0  0  0  0  0  0
   -0.5647   -0.2263   -0.2663 C   0  0  2  0  0  0  0  0  0  0  0  0
   -1.5038    0.5002   -0.9388 O   0  0  0  0  0  0  0  0  0  0  0  0
   -2.7192    0.3829   -0.3189 C   0  0  1  0  0  0  0  0  0  0  0  0
   -3.8662    0.2050   -1.2858 C   0  0  0  0  0  0  0  0  0  0  0  0
   -3.9013    1.3212   -2.1162 O   0  0  0  0  0  0  0  0  0  0  0  0
   -2.6338   -0.7637    0.6663 C   0  0  2  0  0  0  0  0  0  0  0  0
   -3.4894   -0.6334    1.7258 O   0  0  0  0  0  0  0  0  0  0  0  0
   -1.1622   -0.6194    1.0797 C   0  0  1  0  0  0  0  0  0  0  0  0
   -0.6391   -1.7900    1.5636 O   0  0  0  0  0  0  0  0  0  0  0  0
    6.1955    0.9045    0.3770 H   0  0  0  0  0  0  0  0  0  0  0  0
    5.1455    2.2471   -0.3011 H   0  0  0  0  0  0  0  0  0  0  0  0
    3.7456   -2.8685   -1.0656 H   0  0  0  0  0  0  0  0  0  0  0  0
    0.2782    2.4624    0.4102 H   0  0  0  0  0  0  0  0  0  0  0  0
   -0.4279   -1.1947   -0.8247 H   0  0  0  0  0  0  0  0  0  0  0  0
   -2.9028    1.3045    0.2839 H   0  0  0  0  0  0  0  0  0  0  0  0
   -4.8005    0.1479   -0.6936 H   0  0  0  0  0  0  0  0  0  0  0  0
   -3.7117   -0.7069   -1.8913 H   0  0  0  0  0  0  0  0  0  0  0  0
   -4.2562    2.1090   -1.6255 H   0  0  0  0  0  0  0  0  0  0  0  0
   -2.7044   -1.7448    0.1399 H   0  0  0  0  0  0  0  0  0  0  0  0
   -3.5867   -1.5147    2.1686 H   0  0  0  0  0  0  0  0  0  0  0  0
   -1.0648    0.2442    1.7645 H   0  0  0  0  0  0  0  0  0  0  0  0
   -0.0571   -1.6528    2.3746 H   0  0  0  0  0  0  0  0  0  0  0  0
  1  2  1  0
  2  3  2  0
  3  4  1  0
  4  5  2  0
  5  6  1  0
  6  7  1  0
  7  8  1  0
  8  9  2  0
  9 10  1  0
  7 11  1  0
 11 12  1  0
 12 13  1  0
 13 14  1  0
 14 15  1  0
 13 16  1  0
 16 17  1  0
 16 18  1  0
 18 19  1  0
 10  2  1  0
 18 11  1  0
 10  6  2  0
  1 20  1  0
  1 21  1  0
  4 22  1  0
  8 23  1  0
 11 24  1  6
 13 25  1  1
 14 26  1  0
 14 27  1  0
 15 28  1  0
 16 29  1  6
 17 30  1  0
 18 31  1  1
 19 32  1  0
M  END
$$$$
[H]N=C(N([H])[H])N([H])C([H])([H])C([H])([H])C([H])([H])[C@@]([H])(C(=O)N([H])[C@]([H])(C(=O)N([H])[H])C([H])([H])c1c([H])n([H])c2c([H])c([H])c([H])c([H])c12)N([H])C(=O)[C@@]([H])(N([H])C(=O)OC(C([H])([H])[H])(C([H])([H])[H])C([H])([H])[H])C([H])([H])c1c([H])c([H])c([H])c([H])c1[H]
     RDKit          3D

 86 88  0  0  0  0  0  0  0  0999 V2000
    3.8119   -5.4726    1.8339 C   0  0  0  0  0  0  0  0  0  0  0  0
    3.3897   -4.3086    0.9491 C   0  0  0  0  0  0  0  0  0  0  0  0
    4.3742   -4.1968   -0.1949 C   0  0  0  0  0  0  0  0  0  0  0  0
    1.9828   -4.5588    0.5021 C   0  0  0  0  0  0  0  0  0  0  0  0
    3.4560   -3.1257    1.7655 O   0  0  0  0  0  0  0  0  0  0  0  0
    3.1437   -1.8769    1.2967 C   0  0  0  0  0  0  0  0  0  0  0  0
    2.7783   -1.7479    0.1010 O   0  0  0  0  0  0  0  0  0  0  0  0
    3.2143   -0.7140    2.1034 N   0  0  0  0  0  0  0  0  0  0  0  0
    2.9010    0.5991    1.6387 C   0  0  1  0  0  0  0  0  0  0  0  0
    3.6485    1.0918    0.4465 C   0  0  0  0  0  0  0  0  0  0  0  0
    5.1125    1.1543    0.6720 C   0  0  0  0  0  0  0  0  0  0  0  0
    5.9361    0.1412    0.2966 C   0  0  0  0  0  0  0  0  0  0  0  0
    7.3167    0.1817    0.5134 C   0  0  0  0  0  0  0  0  0  0  0  0
    7.8303    1.2948    1.1281 C   0  0  0  0  0  0  0  0  0  0  0  0
    7.0286    2.3447    1.5240 C   0  0  0  0  0  0  0  0  0  0  0  0
    5.6774    2.2762    1.2977 C   0  0  0  0  0  0  0  0  0  0  0  0
    1.4410    0.8445    1.5239 C   0  0  0  0  0  0  0  0  0  0  0  0
    0.7304    0.2158    2.3826 O   0  0  0  0  0  0  0  0  0  0  0  0
    0.8140    1.6734    0.5894 N   0  0  0  0  0  0  0  0  0  0  0  0
   -0.6229    1.8254    0.6100 C   0  0  1  0  0  0  0  0  0  0  0  0
   -1.0556    3.2702    0.5748 C   0  0  0  0  0  0  0  0  0  0  0  0
   -0.4909    3.9853    1.7719 C   0  0  0  0  0  0  0  0  0  0  0  0
   -0.8934    5.4464    1.7963 C   0  0  0  0  0  0  0  0  0  0  0  0
   -2.3241    5.6070    1.8516 N   0  0  0  0  0  0  0  0  0  0  0  0
   -3.0616    5.2355    2.9991 C   0  0  0  0  0  0  0  0  0  0  0  0
   -3.0573    6.0280    4.1925 N   0  0  0  0  0  0  0  0  0  0  0  0
   -3.7555    4.1681    2.9900 N   0  0  0  0  0  0  0  0  0  0  0  0
   -1.2053    1.0555   -0.5211 C   0  0  0  0  0  0  0  0  0  0  0  0
   -0.4654    0.3986   -1.2707 O   0  0  0  0  0  0  0  0  0  0  0  0
   -2.5972    1.0774   -0.7336 N   0  0  0  0  0  0  0  0  0  0  0  0
   -3.2276    0.3275   -1.8321 C   0  0  1  0  0  0  0  0  0  0  0  0
   -4.3032   -0.4943   -1.1808 C   0  0  0  0  0  0  0  0  0  0  0  0
   -5.0863   -1.3457   -2.0747 C   0  0  0  0  0  0  0  0  0  0  0  0
   -6.3850   -1.2266   -2.5439 C   0  0  0  0  0  0  0  0  0  0  0  0
   -6.6879   -2.2663   -3.3396 N   0  0  0  0  0  0  0  0  0  0  0  0
   -5.6118   -3.0972   -3.4212 C   0  0  0  0  0  0  0  0  0  0  0  0
   -5.4058   -4.2950   -4.1015 C   0  0  0  0  0  0  0  0  0  0  0  0
   -4.1810   -4.9329   -3.9942 C   0  0  0  0  0  0  0  0  0  0  0  0
   -3.1771   -4.3909   -3.2241 C   0  0  0  0  0  0  0  0  0  0  0  0
   -3.4091   -3.1945   -2.5555 C   0  0  0  0  0  0  0  0  0  0  0  0
   -4.6210   -2.5401   -2.6467 C   0  0  0  0  0  0  0  0  0  0  0  0
   -3.8369    1.2780   -2.7934 C   0  0  0  0  0  0  0  0  0  0  0  0
   -4.4942    0.8907   -3.9815 N   0  0  0  0  0  0  0  0  0  0  0  0
   -3.7507    2.5195   -2.5143 O   0  0  0  0  0  0  0  0  0  0  0  0
    3.0235   -5.7784    2.5322 H   0  0  0  0  0  0  0  0  0  0  0  0
    4.7610   -5.2522    2.3546 H   0  0  0  0  0  0  0  0  0  0  0  0
    4.0264   -6.3443    1.1489 H   0  0  0  0  0  0  0  0  0  0  0  0
    5.3319   -3.8003    0.2469 H   0  0  0  0  0  0  0  0  0  0  0  0
    4.0782   -3.5178   -0.9913 H   0  0  0  0  0  0  0  0  0  0  0  0
    4.6188   -5.2052   -0.6155 H   0  0  0  0  0  0  0  0  0  0  0  0
    1.8456   -4.0299   -0.4753 H   0  0  0  0  0  0  0  0  0  0  0  0
    1.7582   -5.6400    0.3712 H   0  0  0  0  0  0  0  0  0  0  0  0
    1.2678   -4.1782    1.2861 H   0  0  0  0  0  0  0  0  0  0  0  0
    3.5148   -0.8250    3.1052 H   0  0  0  0  0  0  0  0  0  0  0  0
    3.2126    1.3070    2.4947 H   0  0  0  0  0  0  0  0  0  0  0  0
    3.3287    2.1598    0.2571 H   0  0  0  0  0  0  0  0  0  0  0  0
    3.4653    0.5329   -0.4760 H   0  0  0  0  0  0  0  0  0  0  0  0
    5.5905   -0.7528   -0.1965 H   0  0  0  0  0  0  0  0  0  0  0  0
    7.9898   -0.6033    0.2268 H   0  0  0  0  0  0  0  0  0  0  0  0
    8.8969    1.3808    1.3234 H   0  0  0  0  0  0  0  0  0  0  0  0
    7.4645    3.2049    2.0066 H   0  0  0  0  0  0  0  0  0  0  0  0
    5.0584    3.1023    1.6111 H   0  0  0  0  0  0  0  0  0  0  0  0
    1.3870    2.1845   -0.1301 H   0  0  0  0  0  0  0  0  0  0  0  0
   -1.0101    1.3774    1.5551 H   0  0  0  0  0  0  0  0  0  0  0  0
   -2.1535    3.3010    0.5200 H   0  0  0  0  0  0  0  0  0  0  0  0
   -0.6861    3.7447   -0.3669 H   0  0  0  0  0  0  0  0  0  0  0  0
   -0.8120    3.5092    2.7054 H   0  0  0  0  0  0  0  0  0  0  0  0
    0.6148    3.9507    1.6951 H   0  0  0  0  0  0  0  0  0  0  0  0
   -0.3890    5.9132    2.6656 H   0  0  0  0  0  0  0  0  0  0  0  0
   -0.4680    5.9249    0.8844 H   0  0  0  0  0  0  0  0  0  0  0  0
   -2.8143    6.0020    1.0277 H   0  0  0  0  0  0  0  0  0  0  0  0
   -3.8328    5.9352    4.9059 H   0  0  0  0  0  0  0  0  0  0  0  0
   -2.2936    6.7105    4.3836 H   0  0  0  0  0  0  0  0  0  0  0  0
   -3.8589    3.4952    2.2071 H   0  0  0  0  0  0  0  0  0  0  0  0
   -3.2531    1.6281   -0.1210 H   0  0  0  0  0  0  0  0  0  0  0  0
   -2.4159   -0.2602   -2.3026 H   0  0  0  0  0  0  0  0  0  0  0  0
   -5.0204    0.2556   -0.7297 H   0  0  0  0  0  0  0  0  0  0  0  0
   -3.9122   -1.0395   -0.2792 H   0  0  0  0  0  0  0  0  0  0  0  0
   -7.0191   -0.3882   -2.2714 H   0  0  0  0  0  0  0  0  0  0  0  0
   -7.5827   -2.4555   -3.8372 H   0  0  0  0  0  0  0  0  0  0  0  0
   -6.2177   -4.6745   -4.6864 H   0  0  0  0  0  0  0  0  0  0  0  0
   -4.0591   -5.8752   -4.5446 H   0  0  0  0  0  0  0  0  0  0  0  0
   -2.2108   -4.8881   -3.1342 H   0  0  0  0  0  0  0  0  0  0  0  0
   -2.6452   -2.7239   -1.9335 H   0  0  0  0  0  0  0  0  0  0  0  0
   -4.2007    0.0182   -4.4700 H   0  0  0  0  0  0  0  0  0  0  0  0
   -5.2597    1.4486   -4.3802 H   0  0  0  0  0  0  0  0  0  0  0  0
  1  2  1  0
  2  3  1  0
  2  4  1  0
  2  5  1  0
  5  6  1  0
  6  7  2  0
  6  8  1  0
  8  9  1  0
  9 10  1  0
 10 11  1  0
 11 12  2  0
 12 13  1  0
 13 14  2  0
 14 15  1  0
 15 16  2  0
  9 17  1  0
 17 18  2  0
 17 19  1  0
 19 20  1  0
 20 21  1  0
 21 22  1  0
 22 23  1  0
 23 24  1  0
 24 25  1  0
 25 26  1  0
 25 27  2  3
 20 28  1  0
 28 29  2  0
 28 30  1  0
 30 31  1  0
 31 32  1  0
 32 33  1  0
 33 34  2  0
 34 35  1  0
 35 36  1  0
 36 37  2  0
 37 38  1  0
 38 39  2  0
 39 40  1  0
 40 41  2  0
 31 42  1  0
 42 43  1  0
 42 44  2  0
 16 11  1  0
 41 33  1  0
 41 36  1  0
  1 45  1  0
  1 46  1  0
  1 47  1  0
  3 48  1  0
  3 49  1  0
  3 50  1  0
  4 51  1  0
  4 52  1  0
  4 53  1  0
  8 54  1  0
  9 55  1  1
 10 56  1  0
 10 57  1  0
 12 58  1  0
 13 59  1  0
 14 60  1  0
 15 61  1  0
 16 62  1  0
 19 63  1  0
 20 64  1  1
 21 65  1  0
 21 66  1  0
 22 67  1  0
 22 68  1  0
 23 69  1  0
 23 70  1  0
 24 71  1  0
 26 72  1  0
 26 73  1  0
 27 74  1  0
 30 75  1  0
 31 76  1  6
 32 77  1  0
 32 78  1  0
 34 79  1  0
 35 80  1  0
 37 81  1  0
 38 82  1  0
 39 83  1  0
 40 84  1  0
 43 85  1  0
 43 86  1  0
M  END
$$$$
[H]c1c([H])c(S(=O)(=O)N(C(F)(F)F)C([H])([H])c2c([H])c([H])c(C(F)(F)F)c([H])c2[H])c([H])c([H])c1OC([H])([H])[H]
     RDKit          3D

 40 41  0  0  0  0  0  0  0  0999 V2000
   -7.1246   -0.4731   -0.7872 C   0  0  0  0  0  0  0  0  0  0  0  0
   -6.0934   -0.2035   -1.7292 O   0  0  0  0  0  0  0  0  0  0  0  0
   -4.8010    0.0320   -1.2473 C   0  0  0  0  0  0  0  0  0  0  0  0
   -4.5542   -0.0171    0.0930 C   0  0  0  0  0  0  0  0  0  0  0  0
   -3.2821    0.2180    0.5756 C   0  0  0  0  0  0  0  0  0  0  0  0
   -2.2030    0.5194   -0.2564 C   0  0  0  0  0  0  0  0  0  0  0  0
   -2.4756    0.5630   -1.5915 C   0  0  0  0  0  0  0  0  0  0  0  0
   -3.7631    0.3183   -2.1069 C   0  0  0  0  0  0  0  0  0  0  0  0
   -0.6907    0.9002    0.4589 S   0  0  0  0  0  0  0  0  0  0  0  0
    0.0008    1.9891   -0.4191 O   0  0  0  0  0  0  0  0  0  0  0  0
   -0.9662    1.6984    1.7368 O   0  0  0  0  0  0  0  0  0  0  0  0
    0.4536   -0.2511    0.7698 N   0  0  0  0  0  0  0  0  0  0  0  0
    1.0974   -0.9965   -0.2554 C   0  0  0  0  0  0  0  0  0  0  0  0
    2.5926   -0.7051   -0.1919 C   0  0  0  0  0  0  0  0  0  0  0  0
    3.1255    0.4654   -0.6566 C   0  0  0  0  0  0  0  0  0  0  0  0
    4.4873    0.7539   -0.4829 C   0  0  0  0  0  0  0  0  0  0  0  0
    5.3326   -0.1315    0.1637 C   0  0  0  0  0  0  0  0  0  0  0  0
    4.7679   -1.3131    0.6218 C   0  0  0  0  0  0  0  0  0  0  0  0
    3.4340   -1.5853    0.4428 C   0  0  0  0  0  0  0  0  0  0  0  0
    6.7632    0.2075    0.3923 C   0  0  0  0  0  0  0  0  0  0  0  0
    6.9974    0.4361    1.7351 F   0  0  0  0  0  0  0  0  0  0  0  0
    7.0974    1.3074   -0.3312 F   0  0  0  0  0  0  0  0  0  0  0  0
    7.6216   -0.8148    0.0159 F   0  0  0  0  0  0  0  0  0  0  0  0
    0.2735   -1.0155    1.9849 C   0  0  0  0  0  0  0  0  0  0  0  0
   -0.1775   -2.2966    1.7915 F   0  0  0  0  0  0  0  0  0  0  0  0
    1.4558   -1.0478    2.6710 F   0  0  0  0  0  0  0  0  0  0  0  0
   -0.5976   -0.3105    2.8217 F   0  0  0  0  0  0  0  0  0  0  0  0
   -8.0595   -0.7249   -1.3013 H   0  0  0  0  0  0  0  0  0  0  0  0
   -7.2584    0.4583   -0.2011 H   0  0  0  0  0  0  0  0  0  0  0  0
   -6.8721   -1.3224   -0.1313 H   0  0  0  0  0  0  0  0  0  0  0  0
   -5.3583   -0.2417    0.8213 H   0  0  0  0  0  0  0  0  0  0  0  0
   -3.1864    0.1697    1.6470 H   0  0  0  0  0  0  0  0  0  0  0  0
   -1.7120    0.8045   -2.3177 H   0  0  0  0  0  0  0  0  0  0  0  0
   -3.9762    0.3272   -3.1511 H   0  0  0  0  0  0  0  0  0  0  0  0
    0.9314   -2.0859   -0.2494 H   0  0  0  0  0  0  0  0  0  0  0  0
    0.7775   -0.6515   -1.2476 H   0  0  0  0  0  0  0  0  0  0  0  0
    2.5188    1.1957   -1.1814 H   0  0  0  0  0  0  0  0  0  0  0  0
    4.9042    1.6902   -0.8722 H   0  0  0  0  0  0  0  0  0  0  0  0
    5.4413   -2.0024    1.1448 H   0  0  0  0  0  0  0  0  0  0  0  0
    3.0780   -2.5424    0.8207 H   0  0  0  0  0  0  0  0  0  0  0  0
  1  2  1  0
  2  3  1  0
  3  4  2  0
  4  5  1  0
  5  6  2  0
  6  7  1  0
  7  8  2  0
  6  9  1  0
  9 10  2  0
  9 11  2  0
  9 12  1  0
 12 13  1  0
 13 14  1  0
 14 15  2  0
 15 16  1  0
 16 17  2  0
 17 18  1  0
 18 19  2  0
 17 20  1  0
 20 21  1  0
 20 22  1  0
 20 23  1  0
 12 24  1  0
 24 25  1  0
 24 26  1  0
 24 27  1  0
  8  3  1  0
 19 14  1  0
  1 28  1  0
  1 29  1  0
  1 30  1  0
  4 31  1  0
  5 32  1  0
  7 33  1  0
  8 34  1  0
 13 35  1  0
 13 36  1  0
 15 37  1  0
 16 38  1  0
 18 39  1  0
 19 40  1  0
M  END
$$$$
[H]O[C@]1([H])[C@@]([H])(C([H])([H])OP(=O)(O[H])O[H])O[C@@]([H])(n2c([H])nc3c(N([H])[H])nc([H])nc32)[C@]([H])(O[H])[C@]1([H])O[H]
     RDKit          3D

 41 43  0  0  0  0  0  0  0  0999 V2000
   -5.4453    2.2856    1.8403 N   0  0  0  0  0  0  0  0  0  0  0  0
   -4.7737    1.0583    1.5175 C   0  0  0  0  0  0  0  0  0  0  0  0
   -5.4077   -0.1272    1.6046 N   0  0  0  0  0  0  0  0  0  0  0  0
   -4.7791   -1.2867    1.3014 C   0  0  0  0  0  0  0  0  0  0  0  0
   -3.4854   -1.3049    0.8973 N   0  0  0  0  0  0  0  0  0  0  0  0
   -2.8327   -0.1511    0.8014 C   0  0  0  0  0  0  0  0  0  0  0  0
   -1.5556    0.0840    0.4260 N   0  0  0  0  0  0  0  0  0  0  0  0
   -1.4080    1.4191    0.5040 C   0  0  0  0  0  0  0  0  0  0  0  0
   -2.5441    2.0052    0.9118 N   0  0  0  0  0  0  0  0  0  0  0  0
   -3.4568    1.0423    1.1063 C   0  0  0  0  0  0  0  0  0  0  0  0
   -0.5334   -0.8647    0.0199 C   0  0  2  0  0  0  0  0  0  0  0  0
    0.6846   -0.3002    0.3133 O   0  0  0  0  0  0  0  0  0  0  0  0
    1.7325   -0.7395   -0.4526 C   0  0  2  0  0  0  0  0  0  0  0  0
    2.9711    0.0410    0.0002 C   0  0  0  0  0  0  0  0  0  0  0  0
    3.1849   -0.2184    1.3329 O   0  0  0  0  0  0  0  0  0  0  0  0
    4.5714    0.6696    1.7942 P   0  0  0  0  0  0  0  0  0  0  0  0
    5.2907   -0.0031    3.1678 O   0  0  0  0  0  0  0  0  0  0  0  0
    5.7305    0.6428    0.5458 O   0  0  0  0  0  0  0  0  0  0  0  0
    4.1464    2.0839    2.0092 O   0  0  0  0  0  0  0  0  0  0  0  0
    1.5844   -0.5177   -1.9183 C   0  0  1  0  0  0  0  0  0  0  0  0
    1.9660   -1.6491   -2.6364 O   0  0  0  0  0  0  0  0  0  0  0  0
    0.1556   -0.1271   -2.2109 C   0  0  1  0  0  0  0  0  0  0  0  0
   -0.0732   -0.2430   -3.5803 O   0  0  0  0  0  0  0  0  0  0  0  0
   -0.7242   -1.1246   -1.4575 C   0  0  1  0  0  0  0  0  0  0  0  0
   -0.3020   -2.3917   -1.8265 O   0  0  0  0  0  0  0  0  0  0  0  0
   -5.7663    2.9307    1.0615 H   0  0  0  0  0  0  0  0  0  0  0  0
   -5.6436    2.5938    2.8032 H   0  0  0  0  0  0  0  0  0  0  0  0
   -5.3585   -2.1865    1.3981 H   0  0  0  0  0  0  0  0  0  0  0  0
   -0.5014    1.9467    0.2710 H   0  0  0  0  0  0  0  0  0  0  0  0
   -0.7075   -1.8358    0.5519 H   0  0  0  0  0  0  0  0  0  0  0  0
    1.9847   -1.8136   -0.2774 H   0  0  0  0  0  0  0  0  0  0  0  0
    3.8292   -0.2419   -0.6125 H   0  0  0  0  0  0  0  0  0  0  0  0
    2.7319    1.1108   -0.2001 H   0  0  0  0  0  0  0  0  0  0  0  0
    5.5403   -0.9292    2.9674 H   0  0  0  0  0  0  0  0  0  0  0  0
    6.6363    0.6043    0.8938 H   0  0  0  0  0  0  0  0  0  0  0  0
    2.2278    0.3135   -2.2865 H   0  0  0  0  0  0  0  0  0  0  0  0
    2.9192   -1.5974   -2.8981 H   0  0  0  0  0  0  0  0  0  0  0  0
   -0.0183    0.8876   -1.8280 H   0  0  0  0  0  0  0  0  0  0  0  0
    0.2176   -1.1714   -3.8273 H   0  0  0  0  0  0  0  0  0  0  0  0
   -1.7713   -0.9747   -1.7891 H   0  0  0  0  0  0  0  0  0  0  0  0
   -1.0166   -2.9381   -2.2390 H   0  0  0  0  0  0  0  0  0  0  0  0
  1  2  1  0
  2  3  2  0
  3  4  1  0
  4  5  2  0
  5  6  1  0
  6  7  1  0
  7  8  1  0
  8  9  2  0
  9 10  1  0
  7 11  1  0
 11 12  1  0
 12 13  1  0
 13 14  1  0
 14 15  1  0
 15 16  1  0
 16 17  1  0
 16 18  1  0
 16 19  2  0
 13 20  1  0
 20 21  1  0
 20 22  1  0
 22 23  1  0
 22 24  1  0
 24 25  1  0
 10  2  1  0
 24 11  1  0
 10  6  2  0
  1 26  1  0
  1 27  1  0
  4 28  1  0
  8 29  1  0
 11 30  1  1
 13 31  1  6
 14 32  1  0
 14 33  1  0
 17 34  1  0
 18 35  1  0
 20 36  1  6
 21 37  1  0
 22 38  1  1
 23 39  1  0
 24 40  1  6
 25 41  1  0
M  END
$$$$
[H]c1c(Cl)c([H])c(C(=O)N([H])[C@]2([H])C([H])([H])C([H])([H])[C@@]([H])(N([H])C(=O)OC(C([H])([H])[H])(C([H])([H])[H])C([H])([H])[H])C([H])([H])C2([H])[H])c([H])c1Cl
     RDKit          3D

 49 50  0  0  0  0  0  0  0  0999 V2000
   -5.7472    0.7178    1.0792 C   0  0  0  0  0  0  0  0  0  0  0  0
   -5.7528    0.4327   -0.4084 C   0  0  0  0  0  0  0  0  0  0  0  0
   -7.1075   -0.1894   -0.7160 C   0  0  0  0  0  0  0  0  0  0  0  0
   -5.6724    1.7263   -1.1321 C   0  0  0  0  0  0  0  0  0  0  0  0
   -4.7084   -0.4618   -0.6683 O   0  0  0  0  0  0  0  0  0  0  0  0
   -3.3825   -0.1761   -0.3977 C   0  0  0  0  0  0  0  0  0  0  0  0
   -3.1622    0.9535    0.1042 O   0  0  0  0  0  0  0  0  0  0  0  0
   -2.3288   -1.1053   -0.6709 N   0  0  0  0  0  0  0  0  0  0  0  0
   -0.9608   -0.7710   -0.3749 C   0  0  1  0  0  0  0  0  0  0  0  0
   -0.3241   -1.7456    0.5795 C   0  0  0  0  0  0  0  0  0  0  0  0
    1.1365   -1.6973    0.6730 C   0  0  0  0  0  0  0  0  0  0  0  0
    1.9110   -1.1207   -0.4352 C   0  0  1  0  0  0  0  0  0  0  0  0
    1.1468   -0.2508   -1.3922 C   0  0  0  0  0  0  0  0  0  0  0  0
   -0.1892   -0.8718   -1.6865 C   0  0  0  0  0  0  0  0  0  0  0  0
    3.0273   -0.3113    0.0593 N   0  0  0  0  0  0  0  0  0  0  0  0
    4.3664   -0.5962   -0.2376 C   0  0  0  0  0  0  0  0  0  0  0  0
    4.6003   -1.6031   -0.9678 O   0  0  0  0  0  0  0  0  0  0  0  0
    5.4739    0.1986    0.2472 C   0  0  0  0  0  0  0  0  0  0  0  0
    6.7779   -0.1297   -0.0789 C   0  0  0  0  0  0  0  0  0  0  0  0
    7.8537    0.6050    0.3655 C   0  0  0  0  0  0  0  0  0  0  0  0
    9.5104    0.1684   -0.0626 Cl  0  0  0  0  0  0  0  0  0  0  0  0
    7.6690    1.7117    1.1638 C   0  0  0  0  0  0  0  0  0  0  0  0
    6.3700    2.0395    1.4891 C   0  0  0  0  0  0  0  0  0  0  0  0
    6.1342    3.4602    2.5138 Cl  0  0  0  0  0  0  0  0  0  0  0  0
    5.2894    1.3013    1.0426 C   0  0  0  0  0  0  0  0  0  0  0  0
   -5.1366   -0.0416    1.6269 H   0  0  0  0  0  0  0  0  0  0  0  0
   -6.7736    0.7233    1.4996 H   0  0  0  0  0  0  0  0  0  0  0  0
   -5.2240    1.6828    1.2311 H   0  0  0  0  0  0  0  0  0  0  0  0
   -7.1266   -1.2659   -0.4535 H   0  0  0  0  0  0  0  0  0  0  0  0
   -7.8469    0.3036   -0.0503 H   0  0  0  0  0  0  0  0  0  0  0  0
   -7.4233    0.0145   -1.7524 H   0  0  0  0  0  0  0  0  0  0  0  0
   -6.7094    2.1711   -1.1393 H   0  0  0  0  0  0  0  0  0  0  0  0
   -5.0565    2.4948   -0.5869 H   0  0  0  0  0  0  0  0  0  0  0  0
   -5.3812    1.6507   -2.1953 H   0  0  0  0  0  0  0  0  0  0  0  0
   -2.6097   -2.0182   -1.0882 H   0  0  0  0  0  0  0  0  0  0  0  0
   -0.8782    0.2309    0.0571 H   0  0  0  0  0  0  0  0  0  0  0  0
   -0.7138   -2.7569    0.2917 H   0  0  0  0  0  0  0  0  0  0  0  0
   -0.8081   -1.5471    1.5823 H   0  0  0  0  0  0  0  0  0  0  0  0
    1.4135   -1.1401    1.6189 H   0  0  0  0  0  0  0  0  0  0  0  0
    1.5150   -2.7436    0.8792 H   0  0  0  0  0  0  0  0  0  0  0  0
    2.3708   -1.9307   -1.0410 H   0  0  0  0  0  0  0  0  0  0  0  0
    0.9506    0.7233   -0.8617 H   0  0  0  0  0  0  0  0  0  0  0  0
    1.7016   -0.0820   -2.3184 H   0  0  0  0  0  0  0  0  0  0  0  0
   -0.0485   -1.9158   -1.9670 H   0  0  0  0  0  0  0  0  0  0  0  0
   -0.7567   -0.2732   -2.4285 H   0  0  0  0  0  0  0  0  0  0  0  0
    2.7883    0.4964    0.6487 H   0  0  0  0  0  0  0  0  0  0  0  0
    6.9858   -0.9851   -0.7006 H   0  0  0  0  0  0  0  0  0  0  0  0
    8.5200    2.2896    1.5130 H   0  0  0  0  0  0  0  0  0  0  0  0
    4.3165    1.6341    1.3481 H   0  0  0  0  0  0  0  0  0  0  0  0
  1  2  1  0
  2  3  1  0
  2  4  1  0
  2  5  1  0
  5  6  1  0
  6  7  2  0
  6  8  1  0
  8  9  1  0
  9 10  1  0
 10 11  1  0
 11 12  1  0
 12 13  1  0
 13 14  1  0
 12 15  1  0
 15 16  1  0
 16 17  2  0
 16 18  1  0
 18 19  2  0
 19 20  1  0
 20 21  1  0
 20 22  2  0
 22 23  1  0
 23 24  1  0
 23 25  2  0
 14  9  1  0
 25 18  1  0
  1 26  1  0
  1 27  1  0
  1 28  1  0
  3 29  1  0
  3 30  1  0
  3 31  1  0
  4 32  1  0
  4 33  1  0
  4 34  1  0
  8 35  1  0
  9 36  1  1
 10 37  1  0
 10 38  1  0
 11 39  1  0
 11 40  1  0
 12 41  1  6
 13 42  1  0
 13 43  1  0
 14 44  1  0
 14 45  1  0
 15 46  1  0
 19 47  1  0
 22 48  1  0
 25 49  1  0
M  END
$$$$
[H]c1c([H])c(S(=O)(=O)N2C([H])([H])C([H])([H])N(C(=O)c3c([H])c(Cl)c(Cl)c(Cl)c3Cl)[C@]([H])(C([H])([H])[H])C2([H])[H])c(F)c([H])c1OC(F)(F)F
     RDKit          3D

 48 50  0  0  0  0  0  0  0  0999 V2000
   -0.9906    2.9143    0.1315 C   0  0  0  0  0  0  0  0  0  0  0  0
   -0.6793    1.4346    0.0685 C   0  0  2  0  0  0  0  0  0  0  0  0
    0.2622    1.1102   -1.0564 C   0  0  0  0  0  0  0  0  0  0  0  0
    0.3194   -0.2469   -1.4120 N   0  0  0  0  0  0  0  0  0  0  0  0
   -0.6439   -1.1211   -0.8344 C   0  0  0  0  0  0  0  0  0  0  0  0
   -1.9945   -0.4000   -0.9453 C   0  0  0  0  0  0  0  0  0  0  0  0
   -1.9211    0.6990   -0.0109 N   0  0  0  0  0  0  0  0  0  0  0  0
   -3.0495    1.0078    0.7780 C   0  0  0  0  0  0  0  0  0  0  0  0
   -2.9878    1.9579    1.5865 O   0  0  0  0  0  0  0  0  0  0  0  0
   -4.2648    0.2304    0.6496 C   0  0  0  0  0  0  0  0  0  0  0  0
   -4.5355   -0.9003    1.3958 C   0  0  0  0  0  0  0  0  0  0  0  0
   -5.7134   -1.6190    1.2428 C   0  0  0  0  0  0  0  0  0  0  0  0
   -6.0036   -3.0427    2.2138 Cl  0  0  0  0  0  0  0  0  0  0  0  0
   -6.6665   -1.2145    0.3213 C   0  0  0  0  0  0  0  0  0  0  0  0
   -8.1610   -2.1144    0.1174 Cl  0  0  0  0  0  0  0  0  0  0  0  0
   -6.3978   -0.0828   -0.4269 C   0  0  0  0  0  0  0  0  0  0  0  0
   -7.6021    0.4466   -1.6063 Cl  0  0  0  0  0  0  0  0  0  0  0  0
   -5.2281    0.6321   -0.2760 C   0  0  0  0  0  0  0  0  0  0  0  0
   -4.9059    2.0734   -1.2409 Cl  0  0  0  0  0  0  0  0  0  0  0  0
    1.7411   -0.8949   -1.9504 S   0  0  0  0  0  0  0  0  0  0  0  0
    1.5004   -2.3364   -2.3832 O   0  0  0  0  0  0  0  0  0  0  0  0
    2.1777   -0.1833   -3.2253 O   0  0  0  0  0  0  0  0  0  0  0  0
    3.0848   -0.8678   -0.8402 C   0  0  0  0  0  0  0  0  0  0  0  0
    2.9724   -0.3537    0.4332 C   0  0  0  0  0  0  0  0  0  0  0  0
    4.0445   -0.3350    1.3216 C   0  0  0  0  0  0  0  0  0  0  0  0
    5.2537   -0.8365    0.9400 C   0  0  0  0  0  0  0  0  0  0  0  0
    6.3832   -0.8592    1.7629 O   0  0  0  0  0  0  0  0  0  0  0  0
    7.2159    0.3070    1.6719 C   0  0  0  0  0  0  0  0  0  0  0  0
    6.4437    1.3802    2.0344 F   0  0  0  0  0  0  0  0  0  0  0  0
    8.3386    0.2069    2.4379 F   0  0  0  0  0  0  0  0  0  0  0  0
    7.5276    0.4287    0.3192 F   0  0  0  0  0  0  0  0  0  0  0  0
    5.3994   -1.3617   -0.3361 C   0  0  0  0  0  0  0  0  0  0  0  0
    4.3160   -1.3694   -1.2042 C   0  0  0  0  0  0  0  0  0  0  0  0
    4.4785   -1.8820   -2.4339 F   0  0  0  0  0  0  0  0  0  0  0  0
   -0.9698    3.3097    1.1624 H   0  0  0  0  0  0  0  0  0  0  0  0
   -1.9749    3.1648   -0.3127 H   0  0  0  0  0  0  0  0  0  0  0  0
   -0.2430    3.5118   -0.4504 H   0  0  0  0  0  0  0  0  0  0  0  0
   -0.1877    1.1592    1.0238 H   0  0  0  0  0  0  0  0  0  0  0  0
   -0.1278    1.6821   -1.9529 H   0  0  0  0  0  0  0  0  0  0  0  0
    1.2561    1.5603   -0.8680 H   0  0  0  0  0  0  0  0  0  0  0  0
   -0.4848   -1.2797    0.2568 H   0  0  0  0  0  0  0  0  0  0  0  0
   -0.6827   -2.0560   -1.3968 H   0  0  0  0  0  0  0  0  0  0  0  0
   -2.0766    0.0608   -1.9681 H   0  0  0  0  0  0  0  0  0  0  0  0
   -2.8170   -1.0945   -0.7324 H   0  0  0  0  0  0  0  0  0  0  0  0
   -3.7663   -1.1929    2.1122 H   0  0  0  0  0  0  0  0  0  0  0  0
    2.0490    0.0576    0.8070 H   0  0  0  0  0  0  0  0  0  0  0  0
    3.9553    0.0696    2.3226 H   0  0  0  0  0  0  0  0  0  0  0  0
    6.3567   -1.7607   -0.6430 H   0  0  0  0  0  0  0  0  0  0  0  0
  1  2  1  0
  2  3  1  0
  3  4  1  0
  4  5  1  0
  5  6  1  0
  6  7  1  0
  7  8  1  0
  8  9  2  0
  8 10  1  0
 10 11  2  0
 11 12  1  0
 12 13  1  0
 12 14  2  0
 14 15  1  0
 14 16  1  0
 16 17  1  0
 16 18  2  0
 18 19  1  0
  4 20  1  0
 20 21  2  0
 20 22  2  0
 20 23  1  0
 23 24  2  0
 24 25  1  0
 25 26  2  0
 26 27  1  0
 27 28  1  0
 28 29  1  0
 28 30  1  0
 28 31  1  0
 26 32  1  0
 32 33  2  0
 33 34  1  0
  7  2  1  0
 18 10  1  0
 33 23  1  0
  1 35  1  0
  1 36  1  0
  1 37  1  0
  2 38  1  1
  3 39  1  0
  3 40  1  0
  5 41  1  0
  5 42  1  0
  6 43  1  0
  6 44  1  0
 11 45  1  0
 24 46  1  0
 25 47  1  0
 32 48  1  0
M  END
$$$$
[H]OC(=O)C([H])([H])[C@@]([H])(C(=O)O[H])N([H])C(=O)[C@@]([H])(N([H])C(=O)[C@@]([H])(N([H])C(=O)[C@@]([H])(N([H])C(=O)[C@@]([H])(N([H])[H])C([H])([H])c1c([H])c([H])c(O[H])c([H])c1[H])C([H])([H])c1c([H])c([H])c([H])c([H])c1[H])C([H])([H])C([H])(C([H])([H])[H])C([H])([H])[H])C([H])([H])C(=O)O[H]
     RDKit          3D

 89 90  0  0  0  0  0  0  0  0999 V2000
   -2.0550   -1.4305    3.4924 C   0  0  0  0  0  0  0  0  0  0  0  0
   -2.1802   -1.2022    2.0023 C   0  0  0  0  0  0  0  0  0  0  0  0
   -2.3280   -2.5582    1.3415 C   0  0  0  0  0  0  0  0  0  0  0  0
   -0.9529   -0.4751    1.5428 C   0  0  0  0  0  0  0  0  0  0  0  0
   -1.0417   -0.2268    0.0000 C   0  0  2  0  0  0  0  0  0  0  0  0
    0.1350    0.4704   -0.4206 N   0  0  0  0  0  0  0  0  0  0  0  0
    1.4388   -0.1331   -0.5793 C   0  0  0  0  0  0  0  0  0  0  0  0
    1.5082   -1.3407   -0.2828 O   0  0  0  0  0  0  0  0  0  0  0  0
    2.5910    0.6095   -1.0522 C   0  0  2  0  0  0  0  0  0  0  0  0
    2.8334    0.3514   -2.5614 C   0  0  0  0  0  0  0  0  0  0  0  0
    3.0980   -1.0554   -2.8556 C   0  0  0  0  0  0  0  0  0  0  0  0
    2.1535   -1.9654   -3.2382 C   0  0  0  0  0  0  0  0  0  0  0  0
    2.4633   -3.2757   -3.4925 C   0  0  0  0  0  0  0  0  0  0  0  0
    3.7647   -3.7225   -3.3657 C   0  0  0  0  0  0  0  0  0  0  0  0
    4.7314   -2.7801   -2.9706 C   0  0  0  0  0  0  0  0  0  0  0  0
    4.3878   -1.4980   -2.7305 C   0  0  0  0  0  0  0  0  0  0  0  0
    3.8602    0.3451   -0.3660 N   0  0  0  0  0  0  0  0  0  0  0  0
    4.7951    1.4016   -0.1819 C   0  0  0  0  0  0  0  0  0  0  0  0
    4.4934    2.5340   -0.6125 O   0  0  0  0  0  0  0  0  0  0  0  0
    6.0862    1.1947    0.4866 C   0  0  1  0  0  0  0  0  0  0  0  0
    6.9520    2.3671    0.3425 N   0  0  0  0  0  0  0  0  0  0  0  0
    5.9861    0.7854    1.9377 C   0  0  0  0  0  0  0  0  0  0  0  0
    7.2899    0.5889    2.5691 C   0  0  0  0  0  0  0  0  0  0  0  0
    7.8988    1.6774    3.1612 C   0  0  0  0  0  0  0  0  0  0  0  0
    9.1094    1.6163    3.7731 C   0  0  0  0  0  0  0  0  0  0  0  0
    9.7857    0.3799    3.8105 C   0  0  0  0  0  0  0  0  0  0  0  0
   11.0192    0.3419    4.4398 O   0  0  0  0  0  0  0  0  0  0  0  0
    9.1609   -0.6961    3.2143 C   0  0  0  0  0  0  0  0  0  0  0  0
    7.9240   -0.6095    2.5948 C   0  0  0  0  0  0  0  0  0  0  0  0
   -2.2190    0.6376   -0.1361 C   0  0  0  0  0  0  0  0  0  0  0  0
   -2.0523    1.8473    0.2671 O   0  0  0  0  0  0  0  0  0  0  0  0
   -3.4912    0.2569   -0.6602 N   0  0  0  0  0  0  0  0  0  0  0  0
   -4.5910    1.1734   -0.7166 C   0  0  1  0  0  0  0  0  0  0  0  0
   -4.5769    2.0507   -1.9741 C   0  0  0  0  0  0  0  0  0  0  0  0
   -4.6430    1.2144   -3.1535 C   0  0  0  0  0  0  0  0  0  0  0  0
   -4.7088   -0.1489   -3.0969 O   0  0  0  0  0  0  0  0  0  0  0  0
   -4.6399    1.7673   -4.2860 O   0  0  0  0  0  0  0  0  0  0  0  0
   -5.8832    0.5345   -0.5548 C   0  0  0  0  0  0  0  0  0  0  0  0
   -5.8997   -0.7389   -0.4950 O   0  0  0  0  0  0  0  0  0  0  0  0
   -7.1152    1.2109   -0.4598 N   0  0  0  0  0  0  0  0  0  0  0  0
   -8.3697    0.4262   -0.3194 C   0  0  1  0  0  0  0  0  0  0  0  0
   -8.8258    0.7046    1.0851 C   0  0  0  0  0  0  0  0  0  0  0  0
  -10.0326    0.0374    1.5366 C   0  0  0  0  0  0  0  0  0  0  0  0
  -10.5873    0.3565    2.7869 O   0  0  0  0  0  0  0  0  0  0  0  0
  -10.6377   -0.8245    0.8832 O   0  0  0  0  0  0  0  0  0  0  0  0
   -9.3097    1.0417   -1.2867 C   0  0  0  0  0  0  0  0  0  0  0  0
  -10.5606    0.5323   -1.4696 O   0  0  0  0  0  0  0  0  0  0  0  0
   -8.9779    2.0461   -1.9620 O   0  0  0  0  0  0  0  0  0  0  0  0
   -1.7765   -2.4751    3.7172 H   0  0  0  0  0  0  0  0  0  0  0  0
   -3.0198   -1.2196    4.0156 H   0  0  0  0  0  0  0  0  0  0  0  0
   -1.3024   -0.7721    3.9755 H   0  0  0  0  0  0  0  0  0  0  0  0
   -3.1157   -0.6221    1.7991 H   0  0  0  0  0  0  0  0  0  0  0  0
   -2.7984   -3.3126    2.0305 H   0  0  0  0  0  0  0  0  0  0  0  0
   -2.9521   -2.5327    0.4419 H   0  0  0  0  0  0  0  0  0  0  0  0
   -1.3280   -3.0095    1.1079 H   0  0  0  0  0  0  0  0  0  0  0  0
   -0.7872    0.4672    2.0571 H   0  0  0  0  0  0  0  0  0  0  0  0
   -0.0786   -1.1264    1.6717 H   0  0  0  0  0  0  0  0  0  0  0  0
   -1.1410   -1.2379   -0.3865 H   0  0  0  0  0  0  0  0  0  0  0  0
    0.0721    1.4873   -0.6342 H   0  0  0  0  0  0  0  0  0  0  0  0
    2.4237    1.6863   -1.0212 H   0  0  0  0  0  0  0  0  0  0  0  0
    1.8964    0.6434   -3.0631 H   0  0  0  0  0  0  0  0  0  0  0  0
    3.6223    1.0440   -2.8601 H   0  0  0  0  0  0  0  0  0  0  0  0
    1.0925   -1.6642   -3.3631 H   0  0  0  0  0  0  0  0  0  0  0  0
    1.7165   -4.0116   -3.8034 H   0  0  0  0  0  0  0  0  0  0  0  0
    3.9942   -4.7392   -3.5681 H   0  0  0  0  0  0  0  0  0  0  0  0
    5.7652   -3.1589   -2.8790 H   0  0  0  0  0  0  0  0  0  0  0  0
    5.1851   -0.8078   -2.4258 H   0  0  0  0  0  0  0  0  0  0  0  0
    4.1227   -0.5863    0.0019 H   0  0  0  0  0  0  0  0  0  0  0  0
    6.6012    0.3677   -0.0425 H   0  0  0  0  0  0  0  0  0  0  0  0
    7.7404    2.1897   -0.3149 H   0  0  0  0  0  0  0  0  0  0  0  0
    6.4367    3.2361    0.1389 H   0  0  0  0  0  0  0  0  0  0  0  0
    5.3893    1.5912    2.4569 H   0  0  0  0  0  0  0  0  0  0  0  0
    5.4171   -0.1621    2.0748 H   0  0  0  0  0  0  0  0  0  0  0  0
    7.4059    2.6627    3.1526 H   0  0  0  0  0  0  0  0  0  0  0  0
    9.6202    2.4561    4.2528 H   0  0  0  0  0  0  0  0  0  0  0  0
   11.9118    0.5160    3.9763 H   0  0  0  0  0  0  0  0  0  0  0  0
    9.6791   -1.6509    3.2419 H   0  0  0  0  0  0  0  0  0  0  0  0
    7.5074   -1.5264    2.1464 H   0  0  0  0  0  0  0  0  0  0  0  0
   -3.5772   -0.7253   -0.9956 H   0  0  0  0  0  0  0  0  0  0  0  0
   -4.4480    1.9462    0.1044 H   0  0  0  0  0  0  0  0  0  0  0  0
   -3.6705    2.6912   -1.9513 H   0  0  0  0  0  0  0  0  0  0  0  0
   -5.4397    2.7451   -1.8340 H   0  0  0  0  0  0  0  0  0  0  0  0
   -5.0146   -0.6881   -3.9101 H   0  0  0  0  0  0  0  0  0  0  0  0
   -7.2627    2.2357   -0.4692 H   0  0  0  0  0  0  0  0  0  0  0  0
   -8.2000   -0.6419   -0.4388 H   0  0  0  0  0  0  0  0  0  0  0  0
   -7.9361    0.4781    1.7660 H   0  0  0  0  0  0  0  0  0  0  0  0
   -8.9327    1.8257    1.2380 H   0  0  0  0  0  0  0  0  0  0  0  0
  -11.4459   -0.0082    3.1404 H   0  0  0  0  0  0  0  0  0  0  0  0
  -11.1595    0.5898   -2.2586 H   0  0  0  0  0  0  0  0  0  0  0  0
  1  2  1  0
  2  3  1  0
  2  4  1  0
  4  5  1  0
  5  6  1  0
  6  7  1  0
  7  8  2  0
  7  9  1  0
  9 10  1  0
 10 11  1  0
 11 12  2  0
 12 13  1  0
 13 14  2  0
 14 15  1  0
 15 16  2  0
  9 17  1  0
 17 18  1  0
 18 19  2  0
 18 20  1  0
 20 21  1  0
 20 22  1  0
 22 23  1  0
 23 24  2  0
 24 25  1  0
 25 26  2  0
 26 27  1  0
 26 28  1  0
 28 29  2  0
  5 30  1  0
 30 31  2  0
 30 32  1  0
 32 33  1  0
 33 34  1  0
 34 35  1  0
 35 36  1  0
 35 37  2  0
 33 38  1  0
 38 39  2  0
 38 40  1  0
 40 41  1  0
 41 42  1  0
 42 43  1  0
 43 44  1  0
 43 45  2  0
 41 46  1  0
 46 47  1  0
 46 48  2  0
 16 11  1  0
 29 23  1  0
  1 49  1  0
  1 50  1  0
  1 51  1  0
  2 52  1  0
  3 53  1  0
  3 54  1  0
  3 55  1  0
  4 56  1  0
  4 57  1  0
  5 58  1  6
  6 59  1  0
  9 60  1  6
 10 61  1  0
 10 62  1  0
 12 63  1  0
 13 64  1  0
 14 65  1  0
 15 66  1  0
 16 67  1  0
 17 68  1  0
 20 69  1  6
 21 70  1  0
 21 71  1  0
 22 72  1  0
 22 73  1  0
 24 74  1  0
 25 75  1  0
 27 76  1  0
 28 77  1  0
 29 78  1  0
 32 79  1  0
 33 80  1  1
 34 81  1  0
 34 82  1  0
 36 83  1  0
 40 84  1  0
 41 85  1  6
 42 86  1  0
 42 87  1  0
 44 88  1  0
 47 89  1  0
M  END
$$$$
[H]OC([H])([H])[C@]1([H])O[C@@]([H])(n2c([H])nc3c(N([H])[H])nc([H])nc32)[C@]([H])(O[H])[C@@]([H])(O[H])[C@@]1([H])O[H]
     RDKit          3D

 36 38  0  0  0  0  0  0  0  0999 V2000
    5.5157    1.3084    0.1690 N   0  0  0  0  0  0  0  0  0  0  0  0
    4.4994    0.3525   -0.0977 C   0  0  0  0  0  0  0  0  0  0  0  0
    4.8161   -0.9216   -0.3187 N   0  0  0  0  0  0  0  0  0  0  0  0
    3.8623   -1.8458   -0.5742 C   0  0  0  0  0  0  0  0  0  0  0  0
    2.5794   -1.4555   -0.6017 N   0  0  0  0  0  0  0  0  0  0  0  0
    2.1967   -0.1860   -0.3869 C   0  0  0  0  0  0  0  0  0  0  0  0
    0.9959    0.4161   -0.3669 N   0  0  0  0  0  0  0  0  0  0  0  0
    1.2284    1.7156   -0.0968 C   0  0  0  0  0  0  0  0  0  0  0  0
    2.5483    1.9184    0.0485 N   0  0  0  0  0  0  0  0  0  0  0  0
    3.1881    0.7415   -0.1278 C   0  0  0  0  0  0  0  0  0  0  0  0
   -0.3174   -0.2118   -0.5939 C   0  0  2  0  0  0  0  0  0  0  0  0
   -1.1870    0.7278   -0.9384 O   0  0  0  0  0  0  0  0  0  0  0  0
   -2.3442    0.9262   -0.3094 C   0  0  1  0  0  0  0  0  0  0  0  0
   -3.5759    0.6139   -1.1732 C   0  0  0  0  0  0  0  0  0  0  0  0
   -4.7460    0.8434   -0.4525 O   0  0  0  0  0  0  0  0  0  0  0  0
   -2.5523    0.2206    0.9961 C   0  0  2  0  0  0  0  0  0  0  0  0
   -1.7090    0.7482    1.9796 O   0  0  0  0  0  0  0  0  0  0  0  0
   -2.0964   -1.2151    0.7480 C   0  0  2  0  0  0  0  0  0  0  0  0
   -2.4223   -2.0405    1.8126 O   0  0  0  0  0  0  0  0  0  0  0  0
   -0.5929   -1.0814    0.5735 C   0  0  1  0  0  0  0  0  0  0  0  0
   -0.0951   -2.3795    0.4462 O   0  0  0  0  0  0  0  0  0  0  0  0
    5.2933    2.3357    0.2147 H   0  0  0  0  0  0  0  0  0  0  0  0
    6.5085    1.0277    0.3273 H   0  0  0  0  0  0  0  0  0  0  0  0
    4.1221   -2.8799   -0.7533 H   0  0  0  0  0  0  0  0  0  0  0  0
    0.4599    2.4720   -0.0122 H   0  0  0  0  0  0  0  0  0  0  0  0
   -0.1346   -0.8932   -1.4789 H   0  0  0  0  0  0  0  0  0  0  0  0
   -2.4509    2.0309   -0.0849 H   0  0  0  0  0  0  0  0  0  0  0  0
   -3.5923   -0.4522   -1.4777 H   0  0  0  0  0  0  0  0  0  0  0  0
   -3.6006    1.2572   -2.0666 H   0  0  0  0  0  0  0  0  0  0  0  0
   -4.5585    1.6549    0.1189 H   0  0  0  0  0  0  0  0  0  0  0  0
   -3.6198    0.2655    1.2811 H   0  0  0  0  0  0  0  0  0  0  0  0
   -1.8341    1.7124    2.0976 H   0  0  0  0  0  0  0  0  0  0  0  0
   -2.4816   -1.6079   -0.2168 H   0  0  0  0  0  0  0  0  0  0  0  0
   -3.1190   -2.6745    1.4729 H   0  0  0  0  0  0  0  0  0  0  0  0
   -0.1530   -0.6106    1.5001 H   0  0  0  0  0  0  0  0  0  0  0  0
   -0.6312   -2.8337   -0.2579 H   0  0  0  0  0  0  0  0  0  0  0  0
  1  2  1  0
  2  3  2  0
  3  4  1  0
  4  5  2  0
  5  6  1  0
  6  7  1  0
  7  8  1  0
  8  9  2  0
  9 10  1  0
  7 11  1  0
 11 12  1  0
 12 13  1  0
 13 14  1  0
 14 15  1  0
 13 16  1  0
 16 17  1  0
 16 18  1  0
 18 19  1  0
 18 20  1  0
 20 21  1  0
 10  2  1  0
 20 11  1  0
 10  6  2  0
  1 22  1  0
  1 23  1  0
  4 24  1  0
  8 25  1  0
 11 26  1  6
 13 27  1  1
 14 28  1  0
 14 29  1  0
 15 30  1  0
 16 31  1  1
 17 32  1  0
 18 33  1  6
 19 34  1  0
 20 35  1  1
 21 36  1  0
M  END
$$$$
[H]OC(=O)[C@@]([H])(N([H])C(=O)[C@@]([H])(N([H])C(=O)[C@@]([H])(N([H])C(=O)[C@@]([H])(N([H])C(=O)[C@@]([H])(N([H])[H])C([H])([H])c1c([H])c([H])c(O[H])c([H])c1[H])[C@@]([H])(C([H])([H])[H])C([H])([H])C([H])([H])[H])C([H])([H])c1c([H])c([H])c(O[H])c([H])c1[H])C([H])([H])c1c([H])c([H])c([H])c([H])c1[H])C([H])([H])c1c([H])c([H])c([H])c([H])c1[H]
     RDKit          3D

104107  0  0  0  0  0  0  0  0999 V2000
    4.8750   -4.4932   -0.1882 C   0  0  0  0  0  0  0  0  0  0  0  0
    4.3363   -3.1051    0.1983 C   0  0  0  0  0  0  0  0  0  0  0  0
    3.9830   -2.4311   -1.0862 C   0  0  2  0  0  0  0  0  0  0  0  0
    5.2783   -2.3503   -1.9317 C   0  0  0  0  0  0  0  0  0  0  0  0
    3.3862   -1.0843   -0.9888 C   0  0  2  0  0  0  0  0  0  0  0  0
    4.2109   -0.1122   -0.3259 N   0  0  0  0  0  0  0  0  0  0  0  0
    4.7309    1.0579   -0.9102 C   0  0  0  0  0  0  0  0  0  0  0  0
    4.4903    1.3460   -2.1171 O   0  0  0  0  0  0  0  0  0  0  0  0
    5.5720    1.9934   -0.1522 C   0  0  1  0  0  0  0  0  0  0  0  0
    5.8124    1.5418    1.2048 N   0  0  0  0  0  0  0  0  0  0  0  0
    6.8822    2.2881   -0.7987 C   0  0  0  0  0  0  0  0  0  0  0  0
    7.7116    3.2296   -0.0084 C   0  0  0  0  0  0  0  0  0  0  0  0
    7.6584    4.5983   -0.1409 C   0  0  0  0  0  0  0  0  0  0  0  0
    8.4522    5.4585    0.6081 C   0  0  0  0  0  0  0  0  0  0  0  0
    9.3164    4.9071    1.5094 C   0  0  0  0  0  0  0  0  0  0  0  0
   10.1365    5.7091    2.2878 O   0  0  0  0  0  0  0  0  0  0  0  0
    9.4171    3.5446    1.6899 C   0  0  0  0  0  0  0  0  0  0  0  0
    8.6169    2.7491    0.9306 C   0  0  0  0  0  0  0  0  0  0  0  0
    1.9816   -1.1043   -0.5496 C   0  0  0  0  0  0  0  0  0  0  0  0
    1.5934   -0.2546    0.3305 O   0  0  0  0  0  0  0  0  0  0  0  0
    1.0173   -1.9966   -1.0368 N   0  0  0  0  0  0  0  0  0  0  0  0
   -0.3599   -2.0973   -0.7178 C   0  0  1  0  0  0  0  0  0  0  0  0
   -0.7717   -2.1629    0.6975 C   0  0  0  0  0  0  0  0  0  0  0  0
   -0.3135   -3.2615    1.5317 C   0  0  0  0  0  0  0  0  0  0  0  0
    0.7974   -3.1521    2.3204 C   0  0  0  0  0  0  0  0  0  0  0  0
    1.2297   -4.2108    3.1311 C   0  0  0  0  0  0  0  0  0  0  0  0
    0.5352   -5.3978    3.1496 C   0  0  0  0  0  0  0  0  0  0  0  0
    0.9881   -6.4398    3.9687 O   0  0  0  0  0  0  0  0  0  0  0  0
   -0.5766   -5.5121    2.3621 C   0  0  0  0  0  0  0  0  0  0  0  0
   -0.9816   -4.4653    1.5773 C   0  0  0  0  0  0  0  0  0  0  0  0
   -1.1205   -0.9612   -1.3305 C   0  0  0  0  0  0  0  0  0  0  0  0
   -0.4907   -0.0651   -1.9094 O   0  0  0  0  0  0  0  0  0  0  0  0
   -2.5124   -0.9346   -1.2394 N   0  0  0  0  0  0  0  0  0  0  0  0
   -3.2658    0.1816   -1.8256 C   0  0  1  0  0  0  0  0  0  0  0  0
   -3.8937   -0.2665   -3.1402 C   0  0  0  0  0  0  0  0  0  0  0  0
   -4.8217   -1.4056   -2.9808 C   0  0  0  0  0  0  0  0  0  0  0  0
   -6.1686   -1.2238   -2.7734 C   0  0  0  0  0  0  0  0  0  0  0  0
   -7.0277   -2.3174   -2.6218 C   0  0  0  0  0  0  0  0  0  0  0  0
   -6.5619   -3.6052   -2.6741 C   0  0  0  0  0  0  0  0  0  0  0  0
   -5.2069   -3.7914   -2.8829 C   0  0  0  0  0  0  0  0  0  0  0  0
   -4.3624   -2.7124   -3.0319 C   0  0  0  0  0  0  0  0  0  0  0  0
   -4.2778    0.6346   -0.8505 C   0  0  0  0  0  0  0  0  0  0  0  0
   -4.4391    0.0210    0.2345 O   0  0  0  0  0  0  0  0  0  0  0  0
   -5.0962    1.7653   -1.0967 N   0  0  0  0  0  0  0  0  0  0  0  0
   -6.0947    2.1717   -0.1128 C   0  0  1  0  0  0  0  0  0  0  0  0
   -5.4448    3.3289    0.6471 C   0  0  0  0  0  0  0  0  0  0  0  0
   -6.3029    3.8857    1.6915 C   0  0  0  0  0  0  0  0  0  0  0  0
   -6.3195    3.3122    2.9430 C   0  0  0  0  0  0  0  0  0  0  0  0
   -7.1103    3.8276    3.9622 C   0  0  0  0  0  0  0  0  0  0  0  0
   -7.8984    4.9440    3.7096 C   0  0  0  0  0  0  0  0  0  0  0  0
   -7.8804    5.5176    2.4557 C   0  0  0  0  0  0  0  0  0  0  0  0
   -7.0892    5.0027    1.4339 C   0  0  0  0  0  0  0  0  0  0  0  0
   -7.3272    2.4958   -0.7923 C   0  0  0  0  0  0  0  0  0  0  0  0
   -8.5064    2.8657   -0.1696 O   0  0  0  0  0  0  0  0  0  0  0  0
   -7.3846    2.4502   -2.0651 O   0  0  0  0  0  0  0  0  0  0  0  0
    4.6405   -5.2409    0.5839 H   0  0  0  0  0  0  0  0  0  0  0  0
    4.4455   -4.8374   -1.1484 H   0  0  0  0  0  0  0  0  0  0  0  0
    5.9811   -4.4026   -0.3755 H   0  0  0  0  0  0  0  0  0  0  0  0
    3.4317   -3.3014    0.7928 H   0  0  0  0  0  0  0  0  0  0  0  0
    5.0858   -2.5772    0.7966 H   0  0  0  0  0  0  0  0  0  0  0  0
    3.3457   -3.1367   -1.6635 H   0  0  0  0  0  0  0  0  0  0  0  0
    6.0892   -1.9194   -1.3210 H   0  0  0  0  0  0  0  0  0  0  0  0
    5.0364   -1.7378   -2.8206 H   0  0  0  0  0  0  0  0  0  0  0  0
    5.5978   -3.3380   -2.2747 H   0  0  0  0  0  0  0  0  0  0  0  0
    3.3026   -0.7235   -2.0872 H   0  0  0  0  0  0  0  0  0  0  0  0
    4.4339   -0.3115    0.6847 H   0  0  0  0  0  0  0  0  0  0  0  0
    5.0433    2.9860   -0.0300 H   0  0  0  0  0  0  0  0  0  0  0  0
    6.1110    2.3500    1.7930 H   0  0  0  0  0  0  0  0  0  0  0  0
    6.4677    0.7549    1.2709 H   0  0  0  0  0  0  0  0  0  0  0  0
    6.7239    2.7623   -1.8089 H   0  0  0  0  0  0  0  0  0  0  0  0
    7.4899    1.3749   -0.9813 H   0  0  0  0  0  0  0  0  0  0  0  0
    6.9813    5.0389   -0.8463 H   0  0  0  0  0  0  0  0  0  0  0  0
    8.3863    6.5365    0.4806 H   0  0  0  0  0  0  0  0  0  0  0  0
   10.0878    6.7038    2.1801 H   0  0  0  0  0  0  0  0  0  0  0  0
   10.1116    3.0943    2.4133 H   0  0  0  0  0  0  0  0  0  0  0  0
    8.6745    1.6782    1.0505 H   0  0  0  0  0  0  0  0  0  0  0  0
    1.3863   -2.6988   -1.7563 H   0  0  0  0  0  0  0  0  0  0  0  0
   -0.7798   -3.0038   -1.2244 H   0  0  0  0  0  0  0  0  0  0  0  0
   -1.9069   -2.2391    0.6947 H   0  0  0  0  0  0  0  0  0  0  0  0
   -0.6208   -1.1719    1.2291 H   0  0  0  0  0  0  0  0  0  0  0  0
    1.4139   -2.2673    2.3827 H   0  0  0  0  0  0  0  0  0  0  0  0
    2.1087   -4.1106    3.7493 H   0  0  0  0  0  0  0  0  0  0  0  0
    0.6658   -6.5335    4.9315 H   0  0  0  0  0  0  0  0  0  0  0  0
   -1.1292   -6.4313    2.3650 H   0  0  0  0  0  0  0  0  0  0  0  0
   -1.8529   -4.5862    0.9743 H   0  0  0  0  0  0  0  0  0  0  0  0
   -3.1002   -1.6582   -0.7829 H   0  0  0  0  0  0  0  0  0  0  0  0
   -2.5721    0.9950   -2.1121 H   0  0  0  0  0  0  0  0  0  0  0  0
   -4.3710    0.6198   -3.5775 H   0  0  0  0  0  0  0  0  0  0  0  0
   -3.0507   -0.5332   -3.8153 H   0  0  0  0  0  0  0  0  0  0  0  0
   -6.6344   -0.2545   -2.7216 H   0  0  0  0  0  0  0  0  0  0  0  0
   -8.0889   -2.1630   -2.4590 H   0  0  0  0  0  0  0  0  0  0  0  0
   -7.2223   -4.4747   -2.5575 H   0  0  0  0  0  0  0  0  0  0  0  0
   -4.8564   -4.8128   -2.9226 H   0  0  0  0  0  0  0  0  0  0  0  0
   -3.3092   -2.8911   -3.1937 H   0  0  0  0  0  0  0  0  0  0  0  0
   -4.9620    2.2846   -1.9867 H   0  0  0  0  0  0  0  0  0  0  0  0
   -6.1670    1.3579    0.6635 H   0  0  0  0  0  0  0  0  0  0  0  0
   -5.0996    4.0622   -0.0979 H   0  0  0  0  0  0  0  0  0  0  0  0
   -4.5008    2.8721    1.0694 H   0  0  0  0  0  0  0  0  0  0  0  0
   -5.7046    2.4358    3.1524 H   0  0  0  0  0  0  0  0  0  0  0  0
   -7.0926    3.3454    4.9326 H   0  0  0  0  0  0  0  0  0  0  0  0
   -8.5161    5.3462    4.5038 H   0  0  0  0  0  0  0  0  0  0  0  0
   -8.4837    6.3928    2.2226 H   0  0  0  0  0  0  0  0  0  0  0  0
   -7.0489    5.4176    0.4537 H   0  0  0  0  0  0  0  0  0  0  0  0
   -9.3744    3.0339   -0.6177 H   0  0  0  0  0  0  0  0  0  0  0  0
  1  2  1  0
  2  3  1  0
  3  4  1  0
  3  5  1  0
  5  6  1  0
  6  7  1  0
  7  8  2  0
  7  9  1  0
  9 10  1  0
  9 11  1  0
 11 12  1  0
 12 13  2  0
 13 14  1  0
 14 15  2  0
 15 16  1  0
 15 17  1  0
 17 18  2  0
  5 19  1  0
 19 20  2  0
 19 21  1  0
 21 22  1  0
 22 23  1  0
 23 24  1  0
 24 25  2  0
 25 26  1  0
 26 27  2  0
 27 28  1  0
 27 29  1  0
 29 30  2  0
 22 31  1  0
 31 32  2  0
 31 33  1  0
 33 34  1  0
 34 35  1  0
 35 36  1  0
 36 37  2  0
 37 38  1  0
 38 39  2  0
 39 40  1  0
 40 41  2  0
 34 42  1  0
 42 43  2  0
 42 44  1  0
 44 45  1  0
 45 46  1  0
 46 47  1  0
 47 48  2  0
 48 49  1  0
 49 50  2  0
 50 51  1  0
 51 52  2  0
 45 53  1  0
 53 54  1  0
 53 55  2  0
 18 12  1  0
 30 24  1  0
 41 36  1  0
 52 47  1  0
  1 56  1  0
  1 57  1  0
  1 58  1  0
  2 59  1  0
  2 60  1  0
  3 61  1  6
  4 62  1  0
  4 63  1  0
  4 64  1  0
  5 65  1  6
  6 66  1  0
  9 67  1  1
 10 68  1  0
 10 69  1  0
 11 70  1  0
 11 71  1  0
 13 72  1  0
 14 73  1  0
 16 74  1  0
 17 75  1  0
 18 76  1  0
 21 77  1  0
 22 78  1  6
 23 79  1  0
 23 80  1  0
 25 81  1  0
 26 82  1  0
 28 83  1  0
 29 84  1  0
 30 85  1  0
 33 86  1  0
 34 87  1  6
 35 88  1  0
 35 89  1  0
 37 90  1  0
 38 91  1  0
 39 92  1  0
 40 93  1  0
 41 94  1  0
 44 95  1  0
 45 96  1  1
 46 97  1  0
 46 98  1  0
 48 99  1  0
 49100  1  0
 50101  1  0
 51102  1  0
 52103  1  0
 54104  1  0
M  END
$$$$
[H]OC(=O)c1c([H])c([H])c(S(=O)(=O)N2C([H])([H])C([H])([H])N(C(=O)c3c([H])c(Cl)c(Cl)c(Cl)c3Cl)[C@]([H])(C([H])([H])[H])C2([H])[H])c([H])c1[H]
     RDKit          3D

 47 49  0  0  0  0  0  0  0  0999 V2000
    0.8964   -1.1154   -2.6292 C   0  0  0  0  0  0  0  0  0  0  0  0
    0.8770   -1.1369   -1.1379 C   0  0  2  0  0  0  0  0  0  0  0  0
   -0.4353   -0.5189   -0.6173 C   0  0  0  0  0  0  0  0  0  0  0  0
   -0.5304   -0.7271    0.7846 N   0  0  0  0  0  0  0  0  0  0  0  0
    0.6824   -1.0346    1.4695 C   0  0  0  0  0  0  0  0  0  0  0  0
    1.7939   -0.1393    0.9296 C   0  0  0  0  0  0  0  0  0  0  0  0
    1.9323   -0.4385   -0.4783 N   0  0  0  0  0  0  0  0  0  0  0  0
    3.1013   -0.0372   -1.1520 C   0  0  0  0  0  0  0  0  0  0  0  0
    3.3543   -0.2339   -2.3690 O   0  0  0  0  0  0  0  0  0  0  0  0
    4.1816    0.6885   -0.4336 C   0  0  0  0  0  0  0  0  0  0  0  0
    4.1983    2.0601   -0.3509 C   0  0  0  0  0  0  0  0  0  0  0  0
    5.2027    2.7079    0.3164 C   0  0  0  0  0  0  0  0  0  0  0  0
    5.2077    4.4550    0.4118 Cl  0  0  0  0  0  0  0  0  0  0  0  0
    6.2239    1.9970    0.9229 C   0  0  0  0  0  0  0  0  0  0  0  0
    7.5344    2.7948    1.7914 Cl  0  0  0  0  0  0  0  0  0  0  0  0
    6.2306    0.6035    0.8539 C   0  0  0  0  0  0  0  0  0  0  0  0
    7.5211   -0.3396    1.6173 Cl  0  0  0  0  0  0  0  0  0  0  0  0
    5.2074   -0.0234    0.1758 C   0  0  0  0  0  0  0  0  0  0  0  0
    5.2611   -1.7855    0.1171 Cl  0  0  0  0  0  0  0  0  0  0  0  0
   -1.8672   -1.6798    1.2367 S   0  0  0  0  0  0  0  0  0  0  0  0
   -1.8691   -2.0004    2.7062 O   0  0  0  0  0  0  0  0  0  0  0  0
   -1.7969   -2.9819    0.4487 O   0  0  0  0  0  0  0  0  0  0  0  0
   -3.3268   -0.8655    0.7564 C   0  0  0  0  0  0  0  0  0  0  0  0
   -3.9351    0.0500    1.5766 C   0  0  0  0  0  0  0  0  0  0  0  0
   -5.0991    0.6684    1.1425 C   0  0  0  0  0  0  0  0  0  0  0  0
   -5.6835    0.4108   -0.0796 C   0  0  0  0  0  0  0  0  0  0  0  0
   -5.0420   -0.5170   -0.8771 C   0  0  0  0  0  0  0  0  0  0  0  0
   -3.8843   -1.1407   -0.4609 C   0  0  0  0  0  0  0  0  0  0  0  0
   -6.9108    1.0796   -0.5101 C   0  0  0  0  0  0  0  0  0  0  0  0
   -7.4895    1.9985    0.3519 O   0  0  0  0  0  0  0  0  0  0  0  0
   -7.3716    0.7829   -1.6386 O   0  0  0  0  0  0  0  0  0  0  0  0
    1.0075   -0.0888   -2.9955 H   0  0  0  0  0  0  0  0  0  0  0  0
    1.6401   -1.8117   -3.0531 H   0  0  0  0  0  0  0  0  0  0  0  0
   -0.1293   -1.4341   -2.9773 H   0  0  0  0  0  0  0  0  0  0  0  0
    0.8911   -2.1882   -0.7496 H   0  0  0  0  0  0  0  0  0  0  0  0
   -1.2680   -0.8968   -1.2268 H   0  0  0  0  0  0  0  0  0  0  0  0
   -0.3118    0.5927   -0.7736 H   0  0  0  0  0  0  0  0  0  0  0  0
    0.5692   -0.7787    2.5396 H   0  0  0  0  0  0  0  0  0  0  0  0
    0.9689   -2.1035    1.4139 H   0  0  0  0  0  0  0  0  0  0  0  0
    1.4726    0.8987    1.1304 H   0  0  0  0  0  0  0  0  0  0  0  0
    2.7072   -0.4259    1.5268 H   0  0  0  0  0  0  0  0  0  0  0  0
    3.3921    2.6297   -0.8292 H   0  0  0  0  0  0  0  0  0  0  0  0
   -3.5243    0.3051    2.5669 H   0  0  0  0  0  0  0  0  0  0  0  0
   -5.5866    1.3949    1.7868 H   0  0  0  0  0  0  0  0  0  0  0  0
   -5.4811   -0.7411   -1.8485 H   0  0  0  0  0  0  0  0  0  0  0  0
   -3.4456   -1.8671   -1.1629 H   0  0  0  0  0  0  0  0  0  0  0  0
   -7.0665    2.9336    0.3688 H   0  0  0  0  0  0  0  0  0  0  0  0
  1  2  1  0
  2  3  1  0
  3  4  1  0
  4  5  1  0
  5  6  1  0
  6  7  1  0
  7  8  1  0
  8  9  2  0
  8 10  1  0
 10 11  2  0
 11 12  1  0
 12 13  1  0
 12 14  2  0
 14 15  1  0
 14 16  1  0
 16 17  1  0
 16 18  2  0
 18 19  1  0
  4 20  1  0
 20 21  2  0
 20 22  2  0
 20 23  1  0
 23 24  2  0
 24 25  1  0
 25 26  2  0
 26 27  1  0
 27 28  2  0
 26 29  1  0
 29 30  1  0
 29 31  2  0
  7  2  1  0
 18 10  1  0
 28 23  1  0
  1 32  1  0
  1 33  1  0
  1 34  1  0
  2 35  1  6
  3 36  1  0
  3 37  1  0
  5 38  1  0
  5 39  1  0
  6 40  1  0
  6 41  1  0
 11 42  1  0
 24 43  1  0
 25 44  1  0
 27 45  1  0
 28 46  1  0
 30 47  1  0
M  END
$$$$
[H]OC([H])([H])[C@@]1([H])O[C@@]([H])(n2c([H])nc3c(N([H])C([H])([H])c4c([H])c([H])c([H])c(Cl)c4[H])nc([H])nc32)[C@]([H])(O[H])[C@]1([H])O[H]
     RDKit          3D

 45 48  0  0  0  0  0  0  0  0999 V2000
   -6.4343   -0.8853    2.5138 O   0  0  0  0  0  0  0  0  0  0  0  0
   -5.0809   -1.1391    2.3740 C   0  0  0  0  0  0  0  0  0  0  0  0
   -4.4792   -0.2442    1.3132 C   0  0  1  0  0  0  0  0  0  0  0  0
   -3.1151   -0.4810    1.1543 O   0  0  0  0  0  0  0  0  0  0  0  0
   -2.8113    0.2453    0.0290 C   0  0  2  0  0  0  0  0  0  0  0  0
   -3.9384   -0.0095   -0.9617 C   0  0  2  0  0  0  0  0  0  0  0  0
   -4.3159    1.1731   -1.5780 O   0  0  0  0  0  0  0  0  0  0  0  0
   -5.0095   -0.5674   -0.0602 C   0  0  2  0  0  0  0  0  0  0  0  0
   -6.2304    0.0366   -0.3103 O   0  0  0  0  0  0  0  0  0  0  0  0
   -1.5240   -0.1166   -0.5460 N   0  0  0  0  0  0  0  0  0  0  0  0
   -1.2734   -1.2173   -1.2777 C   0  0  0  0  0  0  0  0  0  0  0  0
    0.0287   -1.2356   -1.6502 N   0  0  0  0  0  0  0  0  0  0  0  0
    0.6245   -0.1460   -1.1602 C   0  0  0  0  0  0  0  0  0  0  0  0
    1.9264    0.3037   -1.2511 C   0  0  0  0  0  0  0  0  0  0  0  0
    2.9277   -0.4010   -1.9586 N   0  0  0  0  0  0  0  0  0  0  0  0
    4.2930   -0.0263   -2.1070 C   0  0  0  0  0  0  0  0  0  0  0  0
    4.9462    0.0084   -0.7781 C   0  0  0  0  0  0  0  0  0  0  0  0
    5.3341    1.2163   -0.2373 C   0  0  0  0  0  0  0  0  0  0  0  0
    5.9431    1.2894    0.9925 C   0  0  0  0  0  0  0  0  0  0  0  0
    6.1530    0.1000    1.6705 C   0  0  0  0  0  0  0  0  0  0  0  0
    5.7711   -1.1159    1.1437 C   0  0  0  0  0  0  0  0  0  0  0  0
    6.0407   -2.6150    2.0083 Cl  0  0  0  0  0  0  0  0  0  0  0  0
    5.1598   -1.1894   -0.0910 C   0  0  0  0  0  0  0  0  0  0  0  0
    2.1773    1.4639   -0.6228 N   0  0  0  0  0  0  0  0  0  0  0  0
    1.2491    2.1632    0.0557 C   0  0  0  0  0  0  0  0  0  0  0  0
   -0.0128    1.7021    0.1286 N   0  0  0  0  0  0  0  0  0  0  0  0
   -0.3533    0.5435   -0.4739 C   0  0  0  0  0  0  0  0  0  0  0  0
   -6.6901    0.0460    2.2974 H   0  0  0  0  0  0  0  0  0  0  0  0
   -4.9161   -2.1980    2.0256 H   0  0  0  0  0  0  0  0  0  0  0  0
   -4.5322   -1.0341    3.3262 H   0  0  0  0  0  0  0  0  0  0  0  0
   -4.6305    0.8130    1.5764 H   0  0  0  0  0  0  0  0  0  0  0  0
   -2.8617    1.3225    0.2799 H   0  0  0  0  0  0  0  0  0  0  0  0
   -3.6693   -0.7918   -1.6973 H   0  0  0  0  0  0  0  0  0  0  0  0
   -3.7797    1.3374   -2.3846 H   0  0  0  0  0  0  0  0  0  0  0  0
   -5.0545   -1.6712   -0.1400 H   0  0  0  0  0  0  0  0  0  0  0  0
   -6.1360    0.9371   -0.7108 H   0  0  0  0  0  0  0  0  0  0  0  0
   -2.0186   -1.9781   -1.5285 H   0  0  0  0  0  0  0  0  0  0  0  0
    2.6124   -1.3071   -2.4254 H   0  0  0  0  0  0  0  0  0  0  0  0
    4.3799    0.9660   -2.6079 H   0  0  0  0  0  0  0  0  0  0  0  0
    4.8605   -0.7236   -2.7719 H   0  0  0  0  0  0  0  0  0  0  0  0
    5.1489    2.1261   -0.8062 H   0  0  0  0  0  0  0  0  0  0  0  0
    6.2512    2.2469    1.4222 H   0  0  0  0  0  0  0  0  0  0  0  0
    6.6247    0.0834    2.6383 H   0  0  0  0  0  0  0  0  0  0  0  0
    4.8462   -2.1235   -0.5368 H   0  0  0  0  0  0  0  0  0  0  0  0
    1.5688    3.0931    0.5263 H   0  0  0  0  0  0  0  0  0  0  0  0
  1  2  1  0
  2  3  1  0
  3  4  1  0
  4  5  1  0
  5  6  1  0
  6  7  1  0
  6  8  1  0
  8  9  1  0
  5 10  1  0
 10 11  1  0
 11 12  2  0
 12 13  1  0
 13 14  2  0
 14 15  1  0
 15 16  1  0
 16 17  1  0
 17 18  2  0
 18 19  1  0
 19 20  2  0
 20 21  1  0
 21 22  1  0
 21 23  2  0
 14 24  1  0
 24 25  2  0
 25 26  1  0
 26 27  2  0
  8  3  1  0
 27 10  1  0
 27 13  1  0
 23 17  1  0
  1 28  1  0
  2 29  1  0
  2 30  1  0
  3 31  1  1
  5 32  1  1
  6 33  1  6
  7 34  1  0
  8 35  1  1
  9 36  1  0
 11 37  1  0
 15 38  1  0
 16 39  1  0
 16 40  1  0
 18 41  1  0
 19 42  1  0
 20 43  1  0
 23 44  1  0
 25 45  1  0
M  END
$$$$
[H]c1c([H])c(-c2nc(C(=O)N3C([H])([H])C([H])([H])N(C(=O)c4c([H])c([H])c(Cl)c([H])c4[H])C([H])([H])C3([H])[H])nn2[H])c([H])c([H])c1F
     RDKit          3D

 46 49  0  0  0  0  0  0  0  0999 V2000
    9.2917    2.1448    0.5264 F   0  0  0  0  0  0  0  0  0  0  0  0
    8.0384    1.6965    0.3798 C   0  0  0  0  0  0  0  0  0  0  0  0
    7.3695    1.2462    1.4842 C   0  0  0  0  0  0  0  0  0  0  0  0
    6.0763    0.7816    1.3430 C   0  0  0  0  0  0  0  0  0  0  0  0
    5.4170    0.7476    0.1342 C   0  0  0  0  0  0  0  0  0  0  0  0
    6.1227    1.2102   -0.9608 C   0  0  0  0  0  0  0  0  0  0  0  0
    7.4180    1.6827   -0.8604 C   0  0  0  0  0  0  0  0  0  0  0  0
    4.0615    0.2615   -0.0206 C   0  0  0  0  0  0  0  0  0  0  0  0
    3.3359    0.1877   -1.1464 N   0  0  0  0  0  0  0  0  0  0  0  0
    2.1455   -0.3066   -0.9080 N   0  0  0  0  0  0  0  0  0  0  0  0
    2.0485   -0.5773    0.3987 C   0  0  0  0  0  0  0  0  0  0  0  0
    3.2563   -0.2156    0.9379 N   0  0  0  0  0  0  0  0  0  0  0  0
    0.9635   -1.1292    1.1802 C   0  0  0  0  0  0  0  0  0  0  0  0
    1.1146   -1.2908    2.4136 O   0  0  0  0  0  0  0  0  0  0  0  0
   -0.2537   -1.4841    0.5766 N   0  0  0  0  0  0  0  0  0  0  0  0
   -1.3409   -2.0296    1.3881 C   0  0  0  0  0  0  0  0  0  0  0  0
   -2.6427   -1.2697    1.0505 C   0  0  0  0  0  0  0  0  0  0  0  0
   -2.7962   -1.1441   -0.3546 N   0  0  0  0  0  0  0  0  0  0  0  0
   -1.7979   -1.9054   -1.1987 C   0  0  0  0  0  0  0  0  0  0  0  0
   -0.4418   -1.3128   -0.8559 C   0  0  0  0  0  0  0  0  0  0  0  0
   -3.7273   -0.4401   -1.0856 C   0  0  0  0  0  0  0  0  0  0  0  0
   -3.5904   -0.4954   -2.4011 O   0  0  0  0  0  0  0  0  0  0  0  0
   -4.8392    0.3578   -0.6177 C   0  0  0  0  0  0  0  0  0  0  0  0
   -5.5694    1.1086   -1.5840 C   0  0  0  0  0  0  0  0  0  0  0  0
   -6.6439    1.8542   -1.1960 C   0  0  0  0  0  0  0  0  0  0  0  0
   -7.0791    1.9284    0.1101 C   0  0  0  0  0  0  0  0  0  0  0  0
   -8.4708    2.9115    0.5277 Cl  0  0  0  0  0  0  0  0  0  0  0  0
   -6.4004    1.2188    1.0653 C   0  0  0  0  0  0  0  0  0  0  0  0
   -5.2969    0.4525    0.6665 C   0  0  0  0  0  0  0  0  0  0  0  0
    7.8783    1.2658    2.4566 H   0  0  0  0  0  0  0  0  0  0  0  0
    5.5539    0.4272    2.2209 H   0  0  0  0  0  0  0  0  0  0  0  0
    5.6458    1.2017   -1.9249 H   0  0  0  0  0  0  0  0  0  0  0  0
    7.9210    2.0326   -1.7527 H   0  0  0  0  0  0  0  0  0  0  0  0
    3.7375    0.5070   -2.0785 H   0  0  0  0  0  0  0  0  0  0  0  0
   -1.1142   -1.7797    2.4353 H   0  0  0  0  0  0  0  0  0  0  0  0
   -1.4809   -3.0885    1.2294 H   0  0  0  0  0  0  0  0  0  0  0  0
   -3.4315   -1.8961    1.4868 H   0  0  0  0  0  0  0  0  0  0  0  0
   -2.6050   -0.2927    1.5637 H   0  0  0  0  0  0  0  0  0  0  0  0
   -2.0560   -1.8057   -2.2448 H   0  0  0  0  0  0  0  0  0  0  0  0
   -1.7732   -2.9590   -0.8260 H   0  0  0  0  0  0  0  0  0  0  0  0
    0.2894   -1.9653   -1.3929 H   0  0  0  0  0  0  0  0  0  0  0  0
   -0.4217   -0.2688   -1.1719 H   0  0  0  0  0  0  0  0  0  0  0  0
   -5.2319    1.0558   -2.6075 H   0  0  0  0  0  0  0  0  0  0  0  0
   -7.1828    2.4164   -1.9501 H   0  0  0  0  0  0  0  0  0  0  0  0
   -6.6797    1.2263    2.1054 H   0  0  0  0  0  0  0  0  0  0  0  0
   -4.8177   -0.0977    1.4583 H   0  0  0  0  0  0  0  0  0  0  0  0
  1  2  1  0
  2  3  2  0
  3  4  1  0
  4  5  2  0
  5  6  1  0
  6  7  2  0
  5  8  1  0
  8  9  1  0
  9 10  1  0
 10 11  2  0
 11 12  1  0
 11 13  1  0
 13 14  2  0
 13 15  1  0
 15 16  1  0
 16 17  1  0
 17 18  1  0
 18 19  1  0
 19 20  1  0
 18 21  1  0
 21 22  2  0
 21 23  1  0
 23 24  2  0
 24 25  1  0
 25 26  2  0
 26 27  1  0
 26 28  1  0
 28 29  2  0
  7  2  1  0
 12  8  2  0
 20 15  1  0
 29 23  1  0
  3 30  1  0
  4 31  1  0
  6 32  1  0
  7 33  1  0
  9 34  1  0
 16 35  1  0
 16 36  1  0
 17 37  1  0
 17 38  1  0
 19 39  1  0
 19 40  1  0
 20 41  1  0
 20 42  1  0
 24 43  1  0
 25 44  1  0
 28 45  1  0
 29 46  1  0
M  END
$$$$
[H]c1nc(N([H])c2c([H])c([H])c(N3C([H])([H])C([H])([H])OC([H])([H])C3([H])[H])c([H])c2OC([H])([H])[H])nc(N([H])c2c([H])c([H])c([H])c([H])c2S(=O)(=O)C([H])([H])[H])c1Cl
     RDKit          3D

 57 60  0  0  0  0  0  0  0  0999 V2000
   -4.1690    2.1084   -3.3338 C   0  0  0  0  0  0  0  0  0  0  0  0
   -2.8691    1.7566   -2.9499 O   0  0  0  0  0  0  0  0  0  0  0  0
   -2.5674    1.1667   -1.7515 C   0  0  0  0  0  0  0  0  0  0  0  0
   -3.5634    0.9004   -0.8670 C   0  0  0  0  0  0  0  0  0  0  0  0
   -3.2946    0.2992    0.3635 C   0  0  0  0  0  0  0  0  0  0  0  0
   -2.0038   -0.0065    0.6344 C   0  0  0  0  0  0  0  0  0  0  0  0
   -0.9706    0.2696   -0.2797 C   0  0  0  0  0  0  0  0  0  0  0  0
   -1.2147    0.8593   -1.4889 C   0  0  0  0  0  0  0  0  0  0  0  0
   -0.2701    1.1580   -2.4546 N   0  0  0  0  0  0  0  0  0  0  0  0
    1.1499    1.0909   -2.4140 C   0  0  0  0  0  0  0  0  0  0  0  0
    1.8625    1.4249   -3.5076 N   0  0  0  0  0  0  0  0  0  0  0  0
    3.1878    1.4122   -3.4959 C   0  0  0  0  0  0  0  0  0  0  0  0
    3.8960    1.0656   -2.3952 C   0  0  0  0  0  0  0  0  0  0  0  0
    5.5981    1.1951   -2.3505 Cl  0  0  0  0  0  0  0  0  0  0  0  0
    3.1937    0.7038   -1.2261 C   0  0  0  0  0  0  0  0  0  0  0  0
    3.8963    0.2784   -0.1198 N   0  0  0  0  0  0  0  0  0  0  0  0
    4.5739   -0.1320    0.9474 C   0  0  0  0  0  0  0  0  0  0  0  0
    4.5447    0.6947    2.0914 C   0  0  0  0  0  0  0  0  0  0  0  0
    5.3607    0.5281    3.1526 C   0  0  0  0  0  0  0  0  0  0  0  0
    6.2679   -0.4988    3.1259 C   0  0  0  0  0  0  0  0  0  0  0  0
    6.3404   -1.3375    2.0430 C   0  0  0  0  0  0  0  0  0  0  0  0
    5.5020   -1.1574    0.9696 C   0  0  0  0  0  0  0  0  0  0  0  0
    5.5604   -2.3986   -0.2564 S   0  0  0  0  0  0  0  0  0  0  0  0
    3.9713   -3.2677   -0.2757 C   0  0  0  0  0  0  0  0  0  0  0  0
    6.0255   -2.0205   -1.5869 O   0  0  0  0  0  0  0  0  0  0  0  0
    6.5361   -3.4980    0.2067 O   0  0  0  0  0  0  0  0  0  0  0  0
    1.8740    0.7513   -1.3437 N   0  0  0  0  0  0  0  0  0  0  0  0
   -4.3380    0.0684    1.2848 N   0  0  0  0  0  0  0  0  0  0  0  0
   -4.6007   -1.2469    1.8110 C   0  0  0  0  0  0  0  0  0  0  0  0
   -6.0782   -1.5558    1.6455 C   0  0  0  0  0  0  0  0  0  0  0  0
   -6.7900   -0.4978    1.1105 O   0  0  0  0  0  0  0  0  0  0  0  0
   -6.6118    0.7023    1.7484 C   0  0  0  0  0  0  0  0  0  0  0  0
   -5.1740    1.1552    1.7545 C   0  0  0  0  0  0  0  0  0  0  0  0
   -4.7209    2.7435   -2.6459 H   0  0  0  0  0  0  0  0  0  0  0  0
   -4.7421    1.1462   -3.4071 H   0  0  0  0  0  0  0  0  0  0  0  0
   -4.1136    2.6189   -4.3249 H   0  0  0  0  0  0  0  0  0  0  0  0
   -4.6125    1.1327   -1.0572 H   0  0  0  0  0  0  0  0  0  0  0  0
   -1.6936   -0.4779    1.5729 H   0  0  0  0  0  0  0  0  0  0  0  0
    0.0309   -0.0020   -0.0018 H   0  0  0  0  0  0  0  0  0  0  0  0
   -0.6436    1.4953   -3.4105 H   0  0  0  0  0  0  0  0  0  0  0  0
    3.7035    1.6986   -4.4349 H   0  0  0  0  0  0  0  0  0  0  0  0
    2.7434    0.1618    0.5982 H   0  0  0  0  0  0  0  0  0  0  0  0
    3.8210    1.5247    2.1272 H   0  0  0  0  0  0  0  0  0  0  0  0
    5.3158    1.1979    4.0418 H   0  0  0  0  0  0  0  0  0  0  0  0
    6.9362   -0.6304    3.9818 H   0  0  0  0  0  0  0  0  0  0  0  0
    7.0974   -2.1381    2.0956 H   0  0  0  0  0  0  0  0  0  0  0  0
    3.8691   -3.6625    0.7635 H   0  0  0  0  0  0  0  0  0  0  0  0
    3.1535   -2.6314   -0.6106 H   0  0  0  0  0  0  0  0  0  0  0  0
    4.1277   -4.1494   -0.9348 H   0  0  0  0  0  0  0  0  0  0  0  0
   -3.9635   -2.0237    1.3166 H   0  0  0  0  0  0  0  0  0  0  0  0
   -4.3263   -1.2473    2.8620 H   0  0  0  0  0  0  0  0  0  0  0  0
   -6.1847   -2.4363    0.9757 H   0  0  0  0  0  0  0  0  0  0  0  0
   -6.4935   -1.8184    2.6366 H   0  0  0  0  0  0  0  0  0  0  0  0
   -6.9396    0.5793    2.8006 H   0  0  0  0  0  0  0  0  0  0  0  0
   -7.2613    1.4924    1.3114 H   0  0  0  0  0  0  0  0  0  0  0  0
   -5.0630    1.9862    1.0411 H   0  0  0  0  0  0  0  0  0  0  0  0
   -4.8663    1.4685    2.7776 H   0  0  0  0  0  0  0  0  0  0  0  0
  1  2  1  0
  2  3  1  0
  3  4  2  0
  4  5  1  0
  5  6  2  0
  6  7  1  0
  7  8  2  0
  8  9  1  0
  9 10  1  0
 10 11  2  0
 11 12  1  0
 12 13  2  0
 13 14  1  0
 13 15  1  0
 15 16  1  0
 16 17  1  0
 17 18  2  0
 18 19  1  0
 19 20  2  0
 20 21  1  0
 21 22  2  0
 22 23  1  0
 23 24  1  0
 23 25  2  0
 23 26  2  0
 15 27  2  0
  5 28  1  0
 28 29  1  0
 29 30  1  0
 30 31  1  0
 31 32  1  0
 32 33  1  0
  8  3  1  0
 27 10  1  0
 33 28  1  0
 22 17  1  0
  1 34  1  0
  1 35  1  0
  1 36  1  0
  4 37  1  0
  6 38  1  0
  7 39  1  0
  9 40  1  0
 12 41  1  0
 16 42  1  0
 18 43  1  0
 19 44  1  0
 20 45  1  0
 21 46  1  0
 24 47  1  0
 24 48  1  0
 24 49  1  0
 29 50  1  0
 29 51  1  0
 30 52  1  0
 30 53  1  0
 32 54  1  0
 32 55  1  0
 33 56  1  0
 33 57  1  0
M  END
$$$$
[H]c1c([H])c([H])c(N2C([H])([H])C([H])([H])N(C(=O)[C@@]3([H])Oc4c([H])c([H])c([H])c([H])c4C([H])([H])C3([H])[H])[C@]([H])(C([H])([H])[H])C2([H])[H])c([H])c1[H]
     RDKit          3D

 49 52  0  0  0  0  0  0  0  0999 V2000
    2.2911   -1.3721    2.2558 C   0  0  0  0  0  0  0  0  0  0  0  0
    1.3618   -1.6796    1.1213 C   0  0  2  0  0  0  0  0  0  0  0  0
    2.0787   -1.3524   -0.1688 C   0  0  0  0  0  0  0  0  0  0  0  0
    2.3495    0.0683   -0.1077 N   0  0  0  0  0  0  0  0  0  0  0  0
    1.5663    0.9752    0.6847 C   0  0  0  0  0  0  0  0  0  0  0  0
    0.1398    0.4915    0.8089 C   0  0  0  0  0  0  0  0  0  0  0  0
    0.1198   -0.9087    1.1478 N   0  0  0  0  0  0  0  0  0  0  0  0
   -1.0810   -1.5464    1.5263 C   0  0  0  0  0  0  0  0  0  0  0  0
   -0.9933   -2.7742    1.8856 O   0  0  0  0  0  0  0  0  0  0  0  0
   -2.3854   -0.9350    1.5416 C   0  0  2  0  0  0  0  0  0  0  0  0
   -3.4628   -1.8362    0.9173 C   0  0  0  0  0  0  0  0  0  0  0  0
   -3.5330   -1.6105   -0.5805 C   0  0  0  0  0  0  0  0  0  0  0  0
   -3.9735   -0.2104   -0.7667 C   0  0  0  0  0  0  0  0  0  0  0  0
   -4.8885    0.1174   -1.7249 C   0  0  0  0  0  0  0  0  0  0  0  0
   -5.2894    1.4450   -1.8782 C   0  0  0  0  0  0  0  0  0  0  0  0
   -4.7662    2.4413   -1.0634 C   0  0  0  0  0  0  0  0  0  0  0  0
   -3.8463    2.0729   -0.1089 C   0  0  0  0  0  0  0  0  0  0  0  0
   -3.4290    0.7533    0.0645 C   0  0  0  0  0  0  0  0  0  0  0  0
   -2.5185    0.3513    0.9999 O   0  0  0  0  0  0  0  0  0  0  0  0
    3.4320    0.6084   -0.8594 C   0  0  0  0  0  0  0  0  0  0  0  0
    4.0238   -0.1859   -1.8106 C   0  0  0  0  0  0  0  0  0  0  0  0
    5.0879    0.2902   -2.5593 C   0  0  0  0  0  0  0  0  0  0  0  0
    5.5693    1.5749   -2.3582 C   0  0  0  0  0  0  0  0  0  0  0  0
    4.9525    2.3411   -1.3984 C   0  0  0  0  0  0  0  0  0  0  0  0
    3.8989    1.8955   -0.6434 C   0  0  0  0  0  0  0  0  0  0  0  0
    1.8671   -0.7554    3.0497 H   0  0  0  0  0  0  0  0  0  0  0  0
    3.2269   -0.8566    1.8980 H   0  0  0  0  0  0  0  0  0  0  0  0
    2.5955   -2.3340    2.7722 H   0  0  0  0  0  0  0  0  0  0  0  0
    1.0994   -2.7782    1.1497 H   0  0  0  0  0  0  0  0  0  0  0  0
    1.4932   -1.6286   -1.0629 H   0  0  0  0  0  0  0  0  0  0  0  0
    3.0719   -1.8784   -0.1419 H   0  0  0  0  0  0  0  0  0  0  0  0
    1.5060    1.9649    0.1450 H   0  0  0  0  0  0  0  0  0  0  0  0
    2.0350    1.1930    1.6705 H   0  0  0  0  0  0  0  0  0  0  0  0
   -0.3327    0.6600   -0.1888 H   0  0  0  0  0  0  0  0  0  0  0  0
   -0.3939    1.0920    1.5953 H   0  0  0  0  0  0  0  0  0  0  0  0
   -2.7651   -0.8026    2.6254 H   0  0  0  0  0  0  0  0  0  0  0  0
   -4.4343   -1.4723    1.3159 H   0  0  0  0  0  0  0  0  0  0  0  0
   -3.3132   -2.8848    1.1934 H   0  0  0  0  0  0  0  0  0  0  0  0
   -4.2910   -2.3315   -0.9619 H   0  0  0  0  0  0  0  0  0  0  0  0
   -2.5904   -1.7628   -1.0995 H   0  0  0  0  0  0  0  0  0  0  0  0
   -5.3040   -0.6607   -2.3714 H   0  0  0  0  0  0  0  0  0  0  0  0
   -6.0039    1.6707   -2.6348 H   0  0  0  0  0  0  0  0  0  0  0  0
   -5.1191    3.4460   -1.2363 H   0  0  0  0  0  0  0  0  0  0  0  0
   -3.4301    2.8226    0.5276 H   0  0  0  0  0  0  0  0  0  0  0  0
    3.6382   -1.2020   -1.9672 H   0  0  0  0  0  0  0  0  0  0  0  0
    5.5626   -0.3237   -3.3114 H   0  0  0  0  0  0  0  0  0  0  0  0
    6.4058    1.9402   -2.9512 H   0  0  0  0  0  0  0  0  0  0  0  0
    5.3347    3.3603   -1.2376 H   0  0  0  0  0  0  0  0  0  0  0  0
    3.4367    2.5073    0.0991 H   0  0  0  0  0  0  0  0  0  0  0  0
  1  2  1  0
  2  3  1  0
  3  4  1  0
  4  5  1  0
  5  6  1  0
  6  7  1  0
  7  8  1  0
  8  9  2  0
  8 10  1  0
 10 11  1  0
 11 12  1  0
 12 13  1  0
 13 14  2  0
 14 15  1  0
 15 16  2  0
 16 17  1  0
 17 18  2  0
 18 19  1  0
  4 20  1  0
 20 21  2  0
 21 22  1  0
 22 23  2  0
 23 24  1  0
 24 25  2  0
  7  2  1  0
 19 10  1  0
 25 20  1  0
 18 13  1  0
  1 26  1  0
  1 27  1  0
  1 28  1  0
  2 29  1  6
  3 30  1  0
  3 31  1  0
  5 32  1  0
  5 33  1  0
  6 34  1  0
  6 35  1  0
 10 36  1  1
 11 37  1  0
 11 38  1  0
 12 39  1  0
 12 40  1  0
 14 41  1  0
 15 42  1  0
 16 43  1  0
 17 44  1  0
 21 45  1  0
 22 46  1  0
 23 47  1  0
 24 48  1  0
 25 49  1  0
M  END
$$$$
[H]c1nc(C(F)(F)F)c([H])c(-c2c([H])c(C(=O)N3C([H])([H])C([H])([H])N(S(=O)(=O)C([H])([H])[H])C([H])([H])C3([H])[H])c([H])c(C(F)(F)F)c2[H])c1[H]
     RDKit          3D

 49 51  0  0  0  0  0  0  0  0999 V2000
    6.7944    1.8550   -0.4260 C   0  0  0  0  0  0  0  0  0  0  0  0
    6.4170    0.1036   -0.4718 S   0  0  0  0  0  0  0  0  0  0  0  0
    6.5757   -0.3096   -1.9346 O   0  0  0  0  0  0  0  0  0  0  0  0
    7.4187   -0.7160    0.2769 O   0  0  0  0  0  0  0  0  0  0  0  0
    4.8197   -0.1703   -0.0127 N   0  0  0  0  0  0  0  0  0  0  0  0
    3.8857   -0.6335   -0.9421 C   0  0  0  0  0  0  0  0  0  0  0  0
    2.6206   -1.2565   -0.2975 C   0  0  0  0  0  0  0  0  0  0  0  0
    2.1427   -0.4904    0.7959 N   0  0  0  0  0  0  0  0  0  0  0  0
    3.1395   -0.0609    1.7980 C   0  0  0  0  0  0  0  0  0  0  0  0
    4.3371    0.5699    1.1202 C   0  0  0  0  0  0  0  0  0  0  0  0
    0.8120   -0.1551    1.0166 C   0  0  0  0  0  0  0  0  0  0  0  0
    0.6455    0.6808    2.0137 O   0  0  0  0  0  0  0  0  0  0  0  0
   -0.4092   -0.5469    0.3443 C   0  0  0  0  0  0  0  0  0  0  0  0
   -1.5542    0.1911    0.5739 C   0  0  0  0  0  0  0  0  0  0  0  0
   -2.7976   -0.1109    0.0870 C   0  0  0  0  0  0  0  0  0  0  0  0
   -2.9202   -1.2501   -0.6925 C   0  0  0  0  0  0  0  0  0  0  0  0
   -1.8305   -2.0366   -0.9601 C   0  0  0  0  0  0  0  0  0  0  0  0
   -0.5746   -1.6719   -0.4304 C   0  0  0  0  0  0  0  0  0  0  0  0
   -1.9860   -3.2327   -1.8183 C   0  0  0  0  0  0  0  0  0  0  0  0
   -3.1442   -3.9210   -1.5920 F   0  0  0  0  0  0  0  0  0  0  0  0
   -0.9095   -4.1340   -1.5247 F   0  0  0  0  0  0  0  0  0  0  0  0
   -1.9187   -2.9017   -3.1366 F   0  0  0  0  0  0  0  0  0  0  0  0
   -3.9702    0.7057    0.3310 C   0  0  0  0  0  0  0  0  0  0  0  0
   -4.1527    1.4453    1.4719 C   0  0  0  0  0  0  0  0  0  0  0  0
   -5.2741    2.1802    1.7377 C   0  0  0  0  0  0  0  0  0  0  0  0
   -6.2795    2.1854    0.8089 N   0  0  0  0  0  0  0  0  0  0  0  0
   -6.1673    1.4929   -0.3185 C   0  0  0  0  0  0  0  0  0  0  0  0
   -5.0302    0.7564   -0.5746 C   0  0  0  0  0  0  0  0  0  0  0  0
   -7.2880    1.4934   -1.2914 C   0  0  0  0  0  0  0  0  0  0  0  0
   -7.6247    2.7548   -1.6778 F   0  0  0  0  0  0  0  0  0  0  0  0
   -6.9391    0.7404   -2.3690 F   0  0  0  0  0  0  0  0  0  0  0  0
   -8.3593    0.8755   -0.6807 F   0  0  0  0  0  0  0  0  0  0  0  0
    7.7099    2.0595   -1.0803 H   0  0  0  0  0  0  0  0  0  0  0  0
    7.0253    2.1486    0.5988 H   0  0  0  0  0  0  0  0  0  0  0  0
    5.9601    2.3781   -0.8992 H   0  0  0  0  0  0  0  0  0  0  0  0
    3.5028    0.2513   -1.5674 H   0  0  0  0  0  0  0  0  0  0  0  0
    4.3103   -1.3826   -1.6113 H   0  0  0  0  0  0  0  0  0  0  0  0
    2.8375   -2.2931    0.0006 H   0  0  0  0  0  0  0  0  0  0  0  0
    1.9209   -1.2561   -1.1782 H   0  0  0  0  0  0  0  0  0  0  0  0
    2.6710    0.6944    2.4494 H   0  0  0  0  0  0  0  0  0  0  0  0
    3.3728   -1.0022    2.3261 H   0  0  0  0  0  0  0  0  0  0  0  0
    5.1594    0.6590    1.8494 H   0  0  0  0  0  0  0  0  0  0  0  0
    4.0460    1.6115    0.7782 H   0  0  0  0  0  0  0  0  0  0  0  0
   -1.5009    1.1208    1.1557 H   0  0  0  0  0  0  0  0  0  0  0  0
   -3.8836   -1.5206   -1.0744 H   0  0  0  0  0  0  0  0  0  0  0  0
    0.2019   -2.3466   -0.6525 H   0  0  0  0  0  0  0  0  0  0  0  0
   -3.3764    1.4571    2.2078 H   0  0  0  0  0  0  0  0  0  0  0  0
   -5.4350    2.7893    2.6302 H   0  0  0  0  0  0  0  0  0  0  0  0
   -5.0008    0.1998   -1.4991 H   0  0  0  0  0  0  0  0  0  0  0  0
  1  2  1  0
  2  3  2  0
  2  4  2  0
  2  5  1  0
  5  6  1  0
  6  7  1  0
  7  8  1  0
  8  9  1  0
  9 10  1  0
  8 11  1  0
 11 12  2  0
 11 13  1  0
 13 14  2  0
 14 15  1  0
 15 16  2  0
 16 17  1  0
 17 18  2  0
 17 19  1  0
 19 20  1  0
 19 21  1  0
 19 22  1  0
 15 23  1  0
 23 24  2  0
 24 25  1  0
 25 26  2  0
 26 27  1  0
 27 28  2  0
 27 29  1  0
 29 30  1  0
 29 31  1  0
 29 32  1  0
 10  5  1  0
 18 13  1  0
 28 23  1  0
  1 33  1  0
  1 34  1  0
  1 35  1  0
  6 36  1  0
  6 37  1  0
  7 38  1  0
  7 39  1  0
  9 40  1  0
  9 41  1  0
 10 42  1  0
 10 43  1  0
 14 44  1  0
 16 45  1  0
 18 46  1  0
 24 47  1  0
 25 48  1  0
 28 49  1  0
M  END
$$$$
[H]c1c([H])c(C(=O)N2C([H])([H])C([H])([H])N(C(=O)[C@]3([H])C([H])([H])N(C(F)(F)F)C([H])([H])[C@]3([H])c3c([H])c([H])c(Cl)c(Cl)c3[H])[C@]([H])(C([H])([H])[H])C2([H])[H])c([H])c(Cl)c1Cl
     RDKit          3D

 58 61  0  0  0  0  0  0  0  0999 V2000
    0.7060   -0.5130   -2.8690 C   0  0  0  0  0  0  0  0  0  0  0  0
    0.8596    0.2310   -1.5862 C   0  0  2  0  0  0  0  0  0  0  0  0
    2.3360    0.4888   -1.2203 C   0  0  0  0  0  0  0  0  0  0  0  0
    2.9438   -0.6297   -0.6192 N   0  0  0  0  0  0  0  0  0  0  0  0
    2.0720   -1.8198   -0.4825 C   0  0  0  0  0  0  0  0  0  0  0  0
    0.7559   -1.4764    0.1688 C   0  0  0  0  0  0  0  0  0  0  0  0
    0.1272   -0.3318   -0.4708 N   0  0  0  0  0  0  0  0  0  0  0  0
   -1.0920    0.1849   -0.0402 C   0  0  0  0  0  0  0  0  0  0  0  0
   -1.5770    1.1822   -0.6457 O   0  0  0  0  0  0  0  0  0  0  0  0
   -1.9052   -0.3128    1.0734 C   0  0  2  0  0  0  0  0  0  0  0  0
   -2.3893   -1.6874    1.0121 C   0  0  0  0  0  0  0  0  0  0  0  0
   -3.6840   -1.6867    1.6609 N   0  0  0  0  0  0  0  0  0  0  0  0
   -3.7986   -0.4347    2.3567 C   0  0  0  0  0  0  0  0  0  0  0  0
   -3.0540    0.5214    1.4395 C   0  0  2  0  0  0  0  0  0  0  0  0
   -3.9887    0.9645    0.4357 C   0  0  0  0  0  0  0  0  0  0  0  0
   -4.3655    2.3152    0.4644 C   0  0  0  0  0  0  0  0  0  0  0  0
   -5.2522    2.8465   -0.4501 C   0  0  0  0  0  0  0  0  0  0  0  0
   -5.8032    2.0765   -1.4263 C   0  0  0  0  0  0  0  0  0  0  0  0
   -6.9322    2.7126   -2.6055 Cl  0  0  0  0  0  0  0  0  0  0  0  0
   -5.4570    0.7607   -1.4805 C   0  0  0  0  0  0  0  0  0  0  0  0
   -6.1519   -0.2690   -2.7334 Cl  0  0  0  0  0  0  0  0  0  0  0  0
   -4.5727    0.2329   -0.5678 C   0  0  0  0  0  0  0  0  0  0  0  0
   -3.8251   -2.7522    2.6313 C   0  0  0  0  0  0  0  0  0  0  0  0
   -2.8170   -2.5382    3.5818 F   0  0  0  0  0  0  0  0  0  0  0  0
   -5.0101   -2.6595    3.2939 F   0  0  0  0  0  0  0  0  0  0  0  0
   -3.6012   -4.0007    2.0758 F   0  0  0  0  0  0  0  0  0  0  0  0
    4.2574   -0.7142   -0.1545 C   0  0  0  0  0  0  0  0  0  0  0  0
    4.5492   -1.9053    0.3658 O   0  0  0  0  0  0  0  0  0  0  0  0
    5.3386    0.2050   -0.1238 C   0  0  0  0  0  0  0  0  0  0  0  0
    6.5723   -0.1951    0.4172 C   0  0  0  0  0  0  0  0  0  0  0  0
    7.6541    0.6166    0.4874 C   0  0  0  0  0  0  0  0  0  0  0  0
    7.5797    1.9030    0.0159 C   0  0  0  0  0  0  0  0  0  0  0  0
    8.9274    3.0125    0.0692 Cl  0  0  0  0  0  0  0  0  0  0  0  0
    6.3871    2.3295   -0.5209 C   0  0  0  0  0  0  0  0  0  0  0  0
    6.2176    3.9480   -1.1388 Cl  0  0  0  0  0  0  0  0  0  0  0  0
    5.2572    1.4899   -0.5971 C   0  0  0  0  0  0  0  0  0  0  0  0
    0.2641    0.0827   -3.6944 H   0  0  0  0  0  0  0  0  0  0  0  0
    0.0707   -1.4248   -2.7835 H   0  0  0  0  0  0  0  0  0  0  0  0
    1.7396   -0.7838   -3.2326 H   0  0  0  0  0  0  0  0  0  0  0  0
    0.4558    1.2696   -1.7876 H   0  0  0  0  0  0  0  0  0  0  0  0
    2.7832    0.8060   -2.1845 H   0  0  0  0  0  0  0  0  0  0  0  0
    2.2658    1.3043   -0.4652 H   0  0  0  0  0  0  0  0  0  0  0  0
    2.5796   -2.5174    0.2132 H   0  0  0  0  0  0  0  0  0  0  0  0
    1.9752   -2.3641   -1.4388 H   0  0  0  0  0  0  0  0  0  0  0  0
    0.1247   -2.3846    0.0836 H   0  0  0  0  0  0  0  0  0  0  0  0
    0.9713   -1.1812    1.2080 H   0  0  0  0  0  0  0  0  0  0  0  0
   -1.1963   -0.2677    1.9658 H   0  0  0  0  0  0  0  0  0  0  0  0
   -1.7758   -2.4263    1.5960 H   0  0  0  0  0  0  0  0  0  0  0  0
   -2.5121   -2.1536    0.0233 H   0  0  0  0  0  0  0  0  0  0  0  0
   -3.2278   -0.4695    3.3146 H   0  0  0  0  0  0  0  0  0  0  0  0
   -4.8529   -0.1313    2.4976 H   0  0  0  0  0  0  0  0  0  0  0  0
   -2.7298    1.4233    2.0554 H   0  0  0  0  0  0  0  0  0  0  0  0
   -3.9823    3.0087    1.2020 H   0  0  0  0  0  0  0  0  0  0  0  0
   -5.5448    3.8997   -0.4262 H   0  0  0  0  0  0  0  0  0  0  0  0
   -4.3294   -0.7898   -0.6444 H   0  0  0  0  0  0  0  0  0  0  0  0
    6.6592   -1.2123    0.7990 H   0  0  0  0  0  0  0  0  0  0  0  0
    8.6136    0.2967    0.9113 H   0  0  0  0  0  0  0  0  0  0  0  0
    4.3844    1.9204   -1.0299 H   0  0  0  0  0  0  0  0  0  0  0  0
  1  2  1  0
  2  3  1  0
  3  4  1  0
  4  5  1  0
  5  6  1  0
  6  7  1  0
  7  8  1  0
  8  9  2  0
  8 10  1  0
 10 11  1  0
 11 12  1  0
 12 13  1  0
 13 14  1  0
 14 15  1  0
 15 16  2  0
 16 17  1  0
 17 18  2  0
 18 19  1  0
 18 20  1  0
 20 21  1  0
 20 22  2  0
 12 23  1  0
 23 24  1  0
 23 25  1  0
 23 26  1  0
  4 27  1  0
 27 28  2  0
 27 29  1  0
 29 30  2  0
 30 31  1  0
 31 32  2  0
 32 33  1  0
 32 34  1  0
 34 35  1  0
 34 36  2  0
  7  2  1  0
 14 10  1  0
 22 15  1  0
 36 29  1  0
  1 37  1  0
  1 38  1  0
  1 39  1  0
  2 40  1  6
  3 41  1  0
  3 42  1  0
  5 43  1  0
  5 44  1  0
  6 45  1  0
  6 46  1  0
 10 47  1  1
 11 48  1  0
 11 49  1  0
 13 50  1  0
 13 51  1  0
 14 52  1  1
 16 53  1  0
 17 54  1  0
 22 55  1  0
 30 56  1  0
 31 57  1  0
 36 58  1  0
M  END
$$$$
[H]C([H])=C([H])C(=O)N([H])c1c([H])c([H])c(Oc2c([H])c([H])nc3c([H])c(OC([H])([H])[H])c(OC([H])([H])[H])c([H])c23)c([H])c1[H]
     RDKit          3D

 44 46  0  0  0  0  0  0  0  0999 V2000
   -7.3010   -0.0045   -0.1648 C   0  0  0  0  0  0  0  0  0  0  0  0
   -6.1126    0.3755   -0.8246 O   0  0  0  0  0  0  0  0  0  0  0  0
   -4.8664    0.0981   -0.2705 C   0  0  0  0  0  0  0  0  0  0  0  0
   -4.7921   -0.5565    0.9388 C   0  0  0  0  0  0  0  0  0  0  0  0
   -3.5542   -0.8498    1.5220 C   0  0  0  0  0  0  0  0  0  0  0  0
   -3.4776   -1.4840    2.6938 N   0  0  0  0  0  0  0  0  0  0  0  0
   -2.3091   -1.7792    3.2781 C   0  0  0  0  0  0  0  0  0  0  0  0
   -1.1429   -1.4136    2.6442 C   0  0  0  0  0  0  0  0  0  0  0  0
   -1.1445   -0.7510    1.4227 C   0  0  0  0  0  0  0  0  0  0  0  0
   -0.1140   -0.3516    0.7217 O   0  0  0  0  0  0  0  0  0  0  0  0
    1.1907   -0.2470    0.5739 C   0  0  0  0  0  0  0  0  0  0  0  0
    1.6194    0.3993   -0.6055 C   0  0  0  0  0  0  0  0  0  0  0  0
    2.9277    0.5959   -0.9237 C   0  0  0  0  0  0  0  0  0  0  0  0
    3.9053    0.1279   -0.0253 C   0  0  0  0  0  0  0  0  0  0  0  0
    5.2508    0.3596   -0.3789 N   0  0  0  0  0  0  0  0  0  0  0  0
    6.4094   -0.2006    0.1645 C   0  0  0  0  0  0  0  0  0  0  0  0
    6.3846   -1.0584    1.1161 O   0  0  0  0  0  0  0  0  0  0  0  0
    7.7258    0.1713   -0.3348 C   0  0  0  0  0  0  0  0  0  0  0  0
    7.9502    1.0367   -1.3080 C   0  0  0  0  0  0  0  0  0  0  0  0
    3.4996   -0.4996    1.1210 C   0  0  0  0  0  0  0  0  0  0  0  0
    2.1765   -0.6832    1.4144 C   0  0  0  0  0  0  0  0  0  0  0  0
   -2.4215   -0.4727    0.8658 C   0  0  0  0  0  0  0  0  0  0  0  0
   -2.5140    0.1920   -0.3628 C   0  0  0  0  0  0  0  0  0  0  0  0
   -3.7280    0.4858   -0.9461 C   0  0  0  0  0  0  0  0  0  0  0  0
   -3.8166    1.1498   -2.1732 O   0  0  0  0  0  0  0  0  0  0  0  0
   -2.6587    1.5432   -2.8586 C   0  0  0  0  0  0  0  0  0  0  0  0
   -8.1490    0.2720   -0.8099 H   0  0  0  0  0  0  0  0  0  0  0  0
   -7.3401    0.5666    0.7889 H   0  0  0  0  0  0  0  0  0  0  0  0
   -7.2775   -1.0790    0.1042 H   0  0  0  0  0  0  0  0  0  0  0  0
   -5.6634   -0.8631    1.4742 H   0  0  0  0  0  0  0  0  0  0  0  0
   -2.2476   -2.2990    4.2386 H   0  0  0  0  0  0  0  0  0  0  0  0
   -0.1932   -1.6450    3.1034 H   0  0  0  0  0  0  0  0  0  0  0  0
    0.8710    0.7750   -1.3253 H   0  0  0  0  0  0  0  0  0  0  0  0
    3.2355    1.1032   -1.8532 H   0  0  0  0  0  0  0  0  0  0  0  0
    5.4149    1.0672   -1.1693 H   0  0  0  0  0  0  0  0  0  0  0  0
    8.5972   -0.3202    0.1517 H   0  0  0  0  0  0  0  0  0  0  0  0
    7.1849    1.5507   -1.8265 H   0  0  0  0  0  0  0  0  0  0  0  0
    8.9764    1.2664   -1.6306 H   0  0  0  0  0  0  0  0  0  0  0  0
    4.2280   -0.8623    1.8364 H   0  0  0  0  0  0  0  0  0  0  0  0
    1.8852   -1.1948    2.3497 H   0  0  0  0  0  0  0  0  0  0  0  0
   -1.6032    0.4764   -0.8559 H   0  0  0  0  0  0  0  0  0  0  0  0
   -2.2227    2.4937   -2.4439 H   0  0  0  0  0  0  0  0  0  0  0  0
   -2.9247    1.7104   -3.9392 H   0  0  0  0  0  0  0  0  0  0  0  0
   -1.8587    0.7986   -2.8565 H   0  0  0  0  0  0  0  0  0  0  0  0
  1  2  1  0
  2  3  1  0
  3  4  2  0
  4  5  1  0
  5  6  2  0
  6  7  1  0
  7  8  2  0
  8  9  1  0
  9 10  1  0
 10 11  1  0
 11 12  2  0
 12 13  1  0
 13 14  2  0
 14 15  1  0
 15 16  1  0
 16 17  2  0
 16 18  1  0
 18 19  2  3
 14 20  1  0
 20 21  2  0
  9 22  2  0
 22 23  1  0
 23 24  2  0
 24 25  1  0
 25 26  1  0
 24  3  1  0
 22  5  1  0
 21 11  1  0
  1 27  1  0
  1 28  1  0
  1 29  1  0
  4 30  1  0
  7 31  1  0
  8 32  1  0
 12 33  1  0
 13 34  1  0
 15 35  1  0
 18 36  1  0
 19 37  1  0
 19 38  1  0
 20 39  1  0
 21 40  1  0
 23 41  1  0
 26 42  1  0
 26 43  1  0
 26 44  1  0
M  END
$$$$
[H]OC(=O)[C@@]([H])(N([H])C(=O)[C@@]([H])(N([H])C(=O)[C@@]([H])(N([H])C(=O)[C@@]([H])(N([H])[H])C([H])([H])c1c([H])c([H])c(O[H])c([H])c1[H])C([H])([H])C([H])(C([H])([H])[H])C([H])([H])[H])C([H])([H])c1c([H])c([H])c([H])c([H])c1[H])C([H])([H])c1c([H])c([H])c([H])c([H])c1[H]
     RDKit          3D

 83 85  0  0  0  0  0  0  0  0999 V2000
    2.9813    0.0628    1.7991 C   0  0  0  0  0  0  0  0  0  0  0  0
    2.5610   -1.2507    1.2570 C   0  0  0  0  0  0  0  0  0  0  0  0
    3.4385   -2.2889    2.0111 C   0  0  0  0  0  0  0  0  0  0  0  0
    2.7995   -1.5437   -0.1596 C   0  0  0  0  0  0  0  0  0  0  0  0
    2.2384   -0.7556   -1.2445 C   0  0  2  0  0  0  0  0  0  0  0  0
    2.6328    0.6368   -1.2681 N   0  0  0  0  0  0  0  0  0  0  0  0
    3.4270    1.2754   -2.2393 C   0  0  0  0  0  0  0  0  0  0  0  0
    3.8582    0.6083   -3.2028 O   0  0  0  0  0  0  0  0  0  0  0  0
    3.7682    2.7107   -2.1611 C   0  0  1  0  0  0  0  0  0  0  0  0
    3.2481    3.3165   -0.9395 N   0  0  0  0  0  0  0  0  0  0  0  0
    5.2339    3.0259   -2.2270 C   0  0  0  0  0  0  0  0  0  0  0  0
    6.0398    2.4273   -1.1347 C   0  0  0  0  0  0  0  0  0  0  0  0
    6.2350    3.1264    0.0655 C   0  0  0  0  0  0  0  0  0  0  0  0
    6.9778    2.6439    1.1120 C   0  0  0  0  0  0  0  0  0  0  0  0
    7.5648    1.3979    0.9701 C   0  0  0  0  0  0  0  0  0  0  0  0
    8.3245    0.8882    2.0216 O   0  0  0  0  0  0  0  0  0  0  0  0
    7.4033    0.6671   -0.1935 C   0  0  0  0  0  0  0  0  0  0  0  0
    6.6457    1.1939   -1.2216 C   0  0  0  0  0  0  0  0  0  0  0  0
    0.8107   -0.8509   -1.5078 C   0  0  0  0  0  0  0  0  0  0  0  0
    0.3126    0.0389   -2.3038 O   0  0  0  0  0  0  0  0  0  0  0  0
   -0.1260   -1.7656   -1.0295 N   0  0  0  0  0  0  0  0  0  0  0  0
   -1.5519   -1.7361   -1.3938 C   0  0  1  0  0  0  0  0  0  0  0  0
   -1.8810   -3.1493   -1.7383 C   0  0  0  0  0  0  0  0  0  0  0  0
   -3.2449   -3.4555   -2.1579 C   0  0  0  0  0  0  0  0  0  0  0  0
   -3.6188   -3.3057   -3.4774 C   0  0  0  0  0  0  0  0  0  0  0  0
   -4.8830   -3.6232   -3.9228 C   0  0  0  0  0  0  0  0  0  0  0  0
   -5.8098   -4.1064   -3.0270 C   0  0  0  0  0  0  0  0  0  0  0  0
   -5.4293   -4.2508   -1.7208 C   0  0  0  0  0  0  0  0  0  0  0  0
   -4.1662   -3.9348   -1.2700 C   0  0  0  0  0  0  0  0  0  0  0  0
   -2.2504   -1.1499   -0.2341 C   0  0  0  0  0  0  0  0  0  0  0  0
   -1.5993   -0.9521    0.8600 O   0  0  0  0  0  0  0  0  0  0  0  0
   -3.6086   -0.7587   -0.2005 N   0  0  0  0  0  0  0  0  0  0  0  0
   -4.1687   -0.1596    1.0250 C   0  0  1  0  0  0  0  0  0  0  0  0
   -4.2041    1.3583    0.8180 C   0  0  0  0  0  0  0  0  0  0  0  0
   -4.7348    2.1313    1.9295 C   0  0  0  0  0  0  0  0  0  0  0  0
   -6.0456    2.5341    2.0139 C   0  0  0  0  0  0  0  0  0  0  0  0
   -6.5730    3.2681    3.0460 C   0  0  0  0  0  0  0  0  0  0  0  0
   -5.7672    3.6450    4.0826 C   0  0  0  0  0  0  0  0  0  0  0  0
   -4.4390    3.2721    4.0574 C   0  0  0  0  0  0  0  0  0  0  0  0
   -3.9344    2.5337    3.0083 C   0  0  0  0  0  0  0  0  0  0  0  0
   -5.4221   -0.7425    1.4470 C   0  0  0  0  0  0  0  0  0  0  0  0
   -6.1105   -0.4040    2.6155 O   0  0  0  0  0  0  0  0  0  0  0  0
   -6.0204   -1.6497    0.7611 O   0  0  0  0  0  0  0  0  0  0  0  0
    3.3168   -0.0808    2.8608 H   0  0  0  0  0  0  0  0  0  0  0  0
    3.8054    0.4782    1.2153 H   0  0  0  0  0  0  0  0  0  0  0  0
    2.1740    0.8161    1.8679 H   0  0  0  0  0  0  0  0  0  0  0  0
    1.5241   -1.5499    1.6131 H   0  0  0  0  0  0  0  0  0  0  0  0
    4.5150   -2.0608    1.8576 H   0  0  0  0  0  0  0  0  0  0  0  0
    3.1936   -3.3007    1.6384 H   0  0  0  0  0  0  0  0  0  0  0  0
    3.1233   -2.2348    3.0734 H   0  0  0  0  0  0  0  0  0  0  0  0
    2.5775   -2.6460   -0.2996 H   0  0  0  0  0  0  0  0  0  0  0  0
    3.9300   -1.5376   -0.2930 H   0  0  0  0  0  0  0  0  0  0  0  0
    2.7116   -1.1558   -2.2099 H   0  0  0  0  0  0  0  0  0  0  0  0
    2.2805    1.2344   -0.4746 H   0  0  0  0  0  0  0  0  0  0  0  0
    3.2183    3.2379   -2.9994 H   0  0  0  0  0  0  0  0  0  0  0  0
    3.6061    2.7480   -0.1357 H   0  0  0  0  0  0  0  0  0  0  0  0
    2.2049    3.3647   -0.9553 H   0  0  0  0  0  0  0  0  0  0  0  0
    5.3556    4.1323   -2.1466 H   0  0  0  0  0  0  0  0  0  0  0  0
    5.6652    2.6495   -3.1878 H   0  0  0  0  0  0  0  0  0  0  0  0
    5.7628    4.0936    0.1397 H   0  0  0  0  0  0  0  0  0  0  0  0
    7.1054    3.2255    2.0320 H   0  0  0  0  0  0  0  0  0  0  0  0
    7.9052    0.3324    2.7445 H   0  0  0  0  0  0  0  0  0  0  0  0
    7.8748   -0.3171   -0.2917 H   0  0  0  0  0  0  0  0  0  0  0  0
    6.5268    0.6172   -2.1339 H   0  0  0  0  0  0  0  0  0  0  0  0
    0.1592   -2.5229   -0.3793 H   0  0  0  0  0  0  0  0  0  0  0  0
   -1.6913   -1.0761   -2.2780 H   0  0  0  0  0  0  0  0  0  0  0  0
   -1.6833   -3.8367   -0.8445 H   0  0  0  0  0  0  0  0  0  0  0  0
   -1.1206   -3.5660   -2.4840 H   0  0  0  0  0  0  0  0  0  0  0  0
   -2.9007   -2.9210   -4.2172 H   0  0  0  0  0  0  0  0  0  0  0  0
   -5.1679   -3.4999   -4.9779 H   0  0  0  0  0  0  0  0  0  0  0  0
   -6.8185   -4.3609   -3.3806 H   0  0  0  0  0  0  0  0  0  0  0  0
   -6.1874   -4.6351   -1.0340 H   0  0  0  0  0  0  0  0  0  0  0  0
   -3.9791   -4.0899   -0.2179 H   0  0  0  0  0  0  0  0  0  0  0  0
   -4.2668   -0.8531   -0.9947 H   0  0  0  0  0  0  0  0  0  0  0  0
   -3.3902   -0.2988    1.8080 H   0  0  0  0  0  0  0  0  0  0  0  0
   -3.1621    1.7185    0.5586 H   0  0  0  0  0  0  0  0  0  0  0  0
   -4.7674    1.5029   -0.1338 H   0  0  0  0  0  0  0  0  0  0  0  0
   -6.6957    2.2343    1.1895 H   0  0  0  0  0  0  0  0  0  0  0  0
   -7.6208    3.5757    3.0889 H   0  0  0  0  0  0  0  0  0  0  0  0
   -6.1890    4.2284    4.8990 H   0  0  0  0  0  0  0  0  0  0  0  0
   -3.7987    3.5700    4.8813 H   0  0  0  0  0  0  0  0  0  0  0  0
   -2.8829    2.2471    3.0105 H   0  0  0  0  0  0  0  0  0  0  0  0
   -7.1255   -0.3916    2.6657 H   0  0  0  0  0  0  0  0  0  0  0  0
  1  2  1  0
  2  3  1  0
  2  4  1  0
  4  5  1  0
  5  6  1  0
  6  7  1  0
  7  8  2  0
  7  9  1  0
  9 10  1  0
  9 11  1  0
 11 12  1  0
 12 13  2  0
 13 14  1  0
 14 15  2  0
 15 16  1  0
 15 17  1  0
 17 18  2  0
  5 19  1  0
 19 20  2  0
 19 21  1  0
 21 22  1  0
 22 23  1  0
 23 24  1  0
 24 25  2  0
 25 26  1  0
 26 27  2  0
 27 28  1  0
 28 29  2  0
 22 30  1  0
 30 31  2  0
 30 32  1  0
 32 33  1  0
 33 34  1  0
 34 35  1  0
 35 36  2  0
 36 37  1  0
 37 38  2  0
 38 39  1  0
 39 40  2  0
 33 41  1  0
 41 42  1  0
 41 43  2  0
 18 12  1  0
 29 24  1  0
 40 35  1  0
  1 44  1  0
  1 45  1  0
  1 46  1  0
  2 47  1  0
  3 48  1  0
  3 49  1  0
  3 50  1  0
  4 51  1  0
  4 52  1  0
  5 53  1  6
  6 54  1  0
  9 55  1  6
 10 56  1  0
 10 57  1  0
 11 58  1  0
 11 59  1  0
 13 60  1  0
 14 61  1  0
 16 62  1  0
 17 63  1  0
 18 64  1  0
 21 65  1  0
 22 66  1  6
 23 67  1  0
 23 68  1  0
 25 69  1  0
 26 70  1  0
 27 71  1  0
 28 72  1  0
 29 73  1  0
 32 74  1  0
 33 75  1  1
 34 76  1  0
 34 77  1  0
 36 78  1  0
 37 79  1  0
 38 80  1  0
 39 81  1  0
 40 82  1  0
 42 83  1  0
M  END
$$$$
[H]c1c([H])c([H])c(C([H])([H])[C@@]([H])(C(=O)N([H])[C@]([H])(C(=O)N([H])[C@]([H])(C(=O)N([H])[C@]([H])(C(=O)N([H])[H])C([H])([H])c2c([H])c([H])c([H])c([H])c2[H])C([H])([H])c2c([H])c([H])c([H])c([H])c2[H])C([H])([H])C([H])(C([H])([H])[H])C([H])([H])[H])N([H])[H])c([H])c1[H]
     RDKit          3D

 83 85  0  0  0  0  0  0  0  0999 V2000
   -4.8387   -1.7766    0.7559 C   0  0  0  0  0  0  0  0  0  0  0  0
   -3.5605   -1.9493    1.4997 C   0  0  0  0  0  0  0  0  0  0  0  0
   -3.1603   -3.3944    1.4909 C   0  0  0  0  0  0  0  0  0  0  0  0
   -2.5081   -0.9418    1.3821 C   0  0  0  0  0  0  0  0  0  0  0  0
   -1.9332   -0.6142    0.0208 C   0  0  2  0  0  0  0  0  0  0  0  0
   -2.8920   -0.1249   -0.8817 N   0  0  0  0  0  0  0  0  0  0  0  0
   -3.1358    1.2970   -1.0801 C   0  0  0  0  0  0  0  0  0  0  0  0
   -2.4303    2.0734   -0.4004 O   0  0  0  0  0  0  0  0  0  0  0  0
   -4.1442    1.8477   -1.9859 C   0  0  1  0  0  0  0  0  0  0  0  0
   -4.3879    0.9750   -3.1239 N   0  0  0  0  0  0  0  0  0  0  0  0
   -5.4604    1.9426   -1.2202 C   0  0  0  0  0  0  0  0  0  0  0  0
   -5.3701    2.8365   -0.0375 C   0  0  0  0  0  0  0  0  0  0  0  0
   -4.9394    2.3887    1.1977 C   0  0  0  0  0  0  0  0  0  0  0  0
   -4.8699    3.2125    2.3156 C   0  0  0  0  0  0  0  0  0  0  0  0
   -5.2495    4.5232    2.1718 C   0  0  0  0  0  0  0  0  0  0  0  0
   -5.6787    4.9791    0.9622 C   0  0  0  0  0  0  0  0  0  0  0  0
   -5.7532    4.1896   -0.1455 C   0  0  0  0  0  0  0  0  0  0  0  0
   -1.1354   -1.8294   -0.4645 C   0  0  0  0  0  0  0  0  0  0  0  0
   -1.8155   -2.5842   -1.1772 O   0  0  0  0  0  0  0  0  0  0  0  0
    0.1724   -1.9833   -0.0875 N   0  0  0  0  0  0  0  0  0  0  0  0
    1.4854   -2.1385    0.2906 C   0  0  1  0  0  0  0  0  0  0  0  0
    2.4863   -2.4960   -0.7807 C   0  0  0  0  0  0  0  0  0  0  0  0
    2.1759   -3.8057   -1.4299 C   0  0  0  0  0  0  0  0  0  0  0  0
    2.5763   -4.9827   -0.8027 C   0  0  0  0  0  0  0  0  0  0  0  0
    2.3676   -6.2418   -1.3405 C   0  0  0  0  0  0  0  0  0  0  0  0
    1.7348   -6.3158   -2.5523 C   0  0  0  0  0  0  0  0  0  0  0  0
    1.3222   -5.1676   -3.2093 C   0  0  0  0  0  0  0  0  0  0  0  0
    1.5460   -3.9209   -2.6480 C   0  0  0  0  0  0  0  0  0  0  0  0
    2.0470   -0.9709    1.0933 C   0  0  0  0  0  0  0  0  0  0  0  0
    1.3488   -0.6815    2.0774 O   0  0  0  0  0  0  0  0  0  0  0  0
    3.2057   -0.3269    0.7198 N   0  0  0  0  0  0  0  0  0  0  0  0
    3.9860    0.7659    1.2679 C   0  0  1  0  0  0  0  0  0  0  0  0
    5.0315    1.0956    0.2770 C   0  0  0  0  0  0  0  0  0  0  0  0
    5.9946    2.1527    0.4887 C   0  0  0  0  0  0  0  0  0  0  0  0
    7.1276    2.0455    1.2764 C   0  0  0  0  0  0  0  0  0  0  0  0
    8.0887    3.0450    1.3720 C   0  0  0  0  0  0  0  0  0  0  0  0
    7.9140    4.2166    0.6379 C   0  0  0  0  0  0  0  0  0  0  0  0
    6.8268    4.3597   -0.1376 C   0  0  0  0  0  0  0  0  0  0  0  0
    5.8770    3.3652   -0.2256 C   0  0  0  0  0  0  0  0  0  0  0  0
    3.2746    1.8331    1.9364 C   0  0  0  0  0  0  0  0  0  0  0  0
    3.5501    3.2470    1.8821 N   0  0  0  0  0  0  0  0  0  0  0  0
    2.2631    1.6093    2.6935 O   0  0  0  0  0  0  0  0  0  0  0  0
   -5.2954   -0.7960    0.7471 H   0  0  0  0  0  0  0  0  0  0  0  0
   -4.8306   -2.2601   -0.2764 H   0  0  0  0  0  0  0  0  0  0  0  0
   -5.6156   -2.4158    1.2882 H   0  0  0  0  0  0  0  0  0  0  0  0
   -3.9138   -1.7902    2.6076 H   0  0  0  0  0  0  0  0  0  0  0  0
   -2.0712   -3.5915    1.4901 H   0  0  0  0  0  0  0  0  0  0  0  0
   -3.5640   -3.9472    2.3780 H   0  0  0  0  0  0  0  0  0  0  0  0
   -3.5702   -3.8445    0.5588 H   0  0  0  0  0  0  0  0  0  0  0  0
   -1.5997   -1.3384    1.9394 H   0  0  0  0  0  0  0  0  0  0  0  0
   -2.7596    0.0145    1.8923 H   0  0  0  0  0  0  0  0  0  0  0  0
   -1.1703    0.1618    0.2338 H   0  0  0  0  0  0  0  0  0  0  0  0
   -3.4719   -0.7519   -1.4568 H   0  0  0  0  0  0  0  0  0  0  0  0
   -3.8393    2.8167   -2.3474 H   0  0  0  0  0  0  0  0  0  0  0  0
   -3.5499    1.0385   -3.7633 H   0  0  0  0  0  0  0  0  0  0  0  0
   -4.6655    0.0122   -2.9130 H   0  0  0  0  0  0  0  0  0  0  0  0
   -5.7443    0.8990   -0.8740 H   0  0  0  0  0  0  0  0  0  0  0  0
   -6.2535    2.2763   -1.9119 H   0  0  0  0  0  0  0  0  0  0  0  0
   -4.6409    1.3615    1.2876 H   0  0  0  0  0  0  0  0  0  0  0  0
   -4.5111    2.7609    3.2341 H   0  0  0  0  0  0  0  0  0  0  0  0
   -5.1911    5.1723    3.0478 H   0  0  0  0  0  0  0  0  0  0  0  0
   -5.9940    6.0311    0.8761 H   0  0  0  0  0  0  0  0  0  0  0  0
   -6.1003    4.5152   -1.1170 H   0  0  0  0  0  0  0  0  0  0  0  0
    0.1677   -3.2740   -0.5536 H   0  0  0  0  0  0  0  0  0  0  0  0
    1.6127   -3.0236    1.0608 H   0  0  0  0  0  0  0  0  0  0  0  0
    2.4875   -1.7328   -1.5552 H   0  0  0  0  0  0  0  0  0  0  0  0
    3.4661   -2.6536   -0.2441 H   0  0  0  0  0  0  0  0  0  0  0  0
    3.0731   -4.8904    0.1483 H   0  0  0  0  0  0  0  0  0  0  0  0
    2.6925   -7.1588   -0.8532 H   0  0  0  0  0  0  0  0  0  0  0  0
    1.5531   -7.2756   -3.0001 H   0  0  0  0  0  0  0  0  0  0  0  0
    0.8002   -5.2964   -4.1757 H   0  0  0  0  0  0  0  0  0  0  0  0
    1.2003   -3.0621   -3.2026 H   0  0  0  0  0  0  0  0  0  0  0  0
    3.6338   -0.7529   -0.1996 H   0  0  0  0  0  0  0  0  0  0  0  0
    4.5295    0.2525    2.1786 H   0  0  0  0  0  0  0  0  0  0  0  0
    5.6021    0.1272   -0.0206 H   0  0  0  0  0  0  0  0  0  0  0  0
    4.5131    1.2983   -0.7380 H   0  0  0  0  0  0  0  0  0  0  0  0
    7.2742    1.1182    1.8556 H   0  0  0  0  0  0  0  0  0  0  0  0
    8.9821    2.9814    1.9698 H   0  0  0  0  0  0  0  0  0  0  0  0
    8.6627    5.0110    0.7058 H   0  0  0  0  0  0  0  0  0  0  0  0
    6.6958    5.2555   -0.7142 H   0  0  0  0  0  0  0  0  0  0  0  0
    4.9964    3.4593   -0.8435 H   0  0  0  0  0  0  0  0  0  0  0  0
    4.4162    3.6715    2.3084 H   0  0  0  0  0  0  0  0  0  0  0  0
    2.8539    3.8664    1.4129 H   0  0  0  0  0  0  0  0  0  0  0  0
  1  2  1  0
  2  3  1  0
  2  4  1  0
  4  5  1  0
  5  6  1  0
  6  7  1  0
  7  8  2  0
  7  9  1  0
  9 10  1  0
  9 11  1  0
 11 12  1  0
 12 13  2  0
 13 14  1  0
 14 15  2  0
 15 16  1  0
 16 17  2  0
  5 18  1  0
 18 19  2  0
 18 20  1  0
 20 21  1  0
 21 22  1  0
 22 23  1  0
 23 24  2  0
 24 25  1  0
 25 26  2  0
 26 27  1  0
 27 28  2  0
 21 29  1  0
 29 30  2  0
 29 31  1  0
 31 32  1  0
 32 33  1  0
 33 34  1  0
 34 35  2  0
 35 36  1  0
 36 37  2  0
 37 38  1  0
 38 39  2  0
 32 40  1  0
 40 41  1  0
 40 42  2  0
 17 12  1  0
 28 23  1  0
 39 34  1  0
  1 43  1  0
  1 44  1  0
  1 45  1  0
  2 46  1  0
  3 47  1  0
  3 48  1  0
  3 49  1  0
  4 50  1  0
  4 51  1  0
  5 52  1  1
  6 53  1  0
  9 54  1  6
 10 55  1  0
 10 56  1  0
 11 57  1  0
 11 58  1  0
 13 59  1  0
 14 60  1  0
 15 61  1  0
 16 62  1  0
 17 63  1  0
 20 64  1  0
 21 65  1  1
 22 66  1  0
 22 67  1  0
 24 68  1  0
 25 69  1  0
 26 70  1  0
 27 71  1  0
 28 72  1  0
 31 73  1  0
 32 74  1  1
 33 75  1  0
 33 76  1  0
 35 77  1  0
 36 78  1  0
 37 79  1  0
 38 80  1  0
 39 81  1  0
 41 82  1  0
 41 83  1  0
M  END
$$$$
[H]c1c([H])c(C(=O)N2C([H])([H])C([H])([H])N(C(=O)c3c([H])c([H])c(-c4c([H])c([H])c(N([H])S(=O)(=O)C([H])([H])[H])c([H])c4[H])c([H])c3[H])C([H])([H])C2([H])[H])c([H])c([H])c1Cl
     RDKit          3D

 58 61  0  0  0  0  0  0  0  0999 V2000
    8.3341   -0.5375    3.0630 C   0  0  0  0  0  0  0  0  0  0  0  0
    9.2216   -0.5768    1.5094 S   0  0  0  0  0  0  0  0  0  0  0  0
    9.2709   -1.9541    0.9247 O   0  0  0  0  0  0  0  0  0  0  0  0
   10.6332   -0.0740    1.7159 O   0  0  0  0  0  0  0  0  0  0  0  0
    8.4061    0.4591    0.4267 N   0  0  0  0  0  0  0  0  0  0  0  0
    7.0577    0.2256    0.0386 C   0  0  0  0  0  0  0  0  0  0  0  0
    6.1839    1.3195    0.0547 C   0  0  0  0  0  0  0  0  0  0  0  0
    4.8691    1.1845   -0.3003 C   0  0  0  0  0  0  0  0  0  0  0  0
    4.3513   -0.0388   -0.6892 C   0  0  0  0  0  0  0  0  0  0  0  0
    5.2162   -1.1052   -0.7018 C   0  0  0  0  0  0  0  0  0  0  0  0
    6.5503   -0.9786   -0.3438 C   0  0  0  0  0  0  0  0  0  0  0  0
    2.9531   -0.1155   -1.0513 C   0  0  0  0  0  0  0  0  0  0  0  0
    2.5143   -1.0157   -1.9923 C   0  0  0  0  0  0  0  0  0  0  0  0
    1.2019   -1.1197   -2.3624 C   0  0  0  0  0  0  0  0  0  0  0  0
    0.1891   -0.2959   -1.7942 C   0  0  0  0  0  0  0  0  0  0  0  0
    0.6517    0.5866   -0.8645 C   0  0  0  0  0  0  0  0  0  0  0  0
    1.9893    0.6838   -0.4959 C   0  0  0  0  0  0  0  0  0  0  0  0
   -1.1607   -0.4899   -2.2374 C   0  0  0  0  0  0  0  0  0  0  0  0
   -1.3331   -1.4694   -3.0914 O   0  0  0  0  0  0  0  0  0  0  0  0
   -2.3167    0.1963   -1.9059 N   0  0  0  0  0  0  0  0  0  0  0  0
   -3.5807   -0.2588   -2.5276 C   0  0  0  0  0  0  0  0  0  0  0  0
   -4.6726   -0.3935   -1.4543 C   0  0  0  0  0  0  0  0  0  0  0  0
   -4.8073    0.8271   -0.7308 N   0  0  0  0  0  0  0  0  0  0  0  0
   -3.8642    1.8843   -1.1463 C   0  0  0  0  0  0  0  0  0  0  0  0
   -2.4359    1.3181   -1.0352 C   0  0  0  0  0  0  0  0  0  0  0  0
   -5.7054    1.0944    0.2883 C   0  0  0  0  0  0  0  0  0  0  0  0
   -5.5883    2.3287    0.7577 O   0  0  0  0  0  0  0  0  0  0  0  0
   -6.7207    0.2852    0.9125 C   0  0  0  0  0  0  0  0  0  0  0  0
   -7.5039    0.8616    1.9253 C   0  0  0  0  0  0  0  0  0  0  0  0
   -8.4890    0.1652    2.5785 C   0  0  0  0  0  0  0  0  0  0  0  0
   -8.7583   -1.1435    2.2687 C   0  0  0  0  0  0  0  0  0  0  0  0
  -10.0131   -2.0431    3.0951 Cl  0  0  0  0  0  0  0  0  0  0  0  0
   -8.0111   -1.7313    1.2860 C   0  0  0  0  0  0  0  0  0  0  0  0
   -7.0093   -1.0124    0.6266 C   0  0  0  0  0  0  0  0  0  0  0  0
    7.9372   -1.5564    3.2287 H   0  0  0  0  0  0  0  0  0  0  0  0
    7.4987    0.1775    3.0444 H   0  0  0  0  0  0  0  0  0  0  0  0
    9.0497   -0.2375    3.8671 H   0  0  0  0  0  0  0  0  0  0  0  0
    8.8856    1.3060    0.0144 H   0  0  0  0  0  0  0  0  0  0  0  0
    6.5335    2.3097    0.3523 H   0  0  0  0  0  0  0  0  0  0  0  0
    4.2273    2.0620   -0.2727 H   0  0  0  0  0  0  0  0  0  0  0  0
    4.8172   -2.0730   -1.0069 H   0  0  0  0  0  0  0  0  0  0  0  0
    7.2167   -1.8533   -0.3673 H   0  0  0  0  0  0  0  0  0  0  0  0
    3.2258   -1.6858   -2.4778 H   0  0  0  0  0  0  0  0  0  0  0  0
    0.8969   -1.8426   -3.1097 H   0  0  0  0  0  0  0  0  0  0  0  0
   -0.0171    1.2475   -0.3659 H   0  0  0  0  0  0  0  0  0  0  0  0
    2.3058    1.4079    0.2535 H   0  0  0  0  0  0  0  0  0  0  0  0
   -3.8523    0.4527   -3.3102 H   0  0  0  0  0  0  0  0  0  0  0  0
   -3.4009   -1.2883   -2.8796 H   0  0  0  0  0  0  0  0  0  0  0  0
   -4.2907   -1.1761   -0.7824 H   0  0  0  0  0  0  0  0  0  0  0  0
   -5.5769   -0.6698   -2.0384 H   0  0  0  0  0  0  0  0  0  0  0  0
   -4.0147    2.1349   -2.2076 H   0  0  0  0  0  0  0  0  0  0  0  0
   -3.9098    2.7592   -0.5006 H   0  0  0  0  0  0  0  0  0  0  0  0
   -1.8068    2.2023   -1.3388 H   0  0  0  0  0  0  0  0  0  0  0  0
   -2.2419    1.0641    0.0365 H   0  0  0  0  0  0  0  0  0  0  0  0
   -7.3174    1.8789    2.1877 H   0  0  0  0  0  0  0  0  0  0  0  0
   -9.0988    0.6167    3.3683 H   0  0  0  0  0  0  0  0  0  0  0  0
   -8.2084   -2.7557    1.0304 H   0  0  0  0  0  0  0  0  0  0  0  0
   -6.4823   -1.5473   -0.1140 H   0  0  0  0  0  0  0  0  0  0  0  0
  1  2  1  0
  2  3  2  0
  2  4  2  0
  2  5  1  0
  5  6  1  0
  6  7  2  0
  7  8  1  0
  8  9  2  0
  9 10  1  0
 10 11  2  0
  9 12  1  0
 12 13  2  0
 13 14  1  0
 14 15  2  0
 15 16  1  0
 16 17  2  0
 15 18  1  0
 18 19  2  0
 18 20  1  0
 20 21  1  0
 21 22  1  0
 22 23  1  0
 23 24  1  0
 24 25  1  0
 23 26  1  0
 26 27  2  0
 26 28  1  0
 28 29  2  0
 29 30  1  0
 30 31  2  0
 31 32  1  0
 31 33  1  0
 33 34  2  0
 11  6  1  0
 17 12  1  0
 25 20  1  0
 34 28  1  0
  1 35  1  0
  1 36  1  0
  1 37  1  0
  5 38  1  0
  7 39  1  0
  8 40  1  0
 10 41  1  0
 11 42  1  0
 13 43  1  0
 14 44  1  0
 16 45  1  0
 17 46  1  0
 21 47  1  0
 21 48  1  0
 22 49  1  0
 22 50  1  0
 24 51  1  0
 24 52  1  0
 25 53  1  0
 25 54  1  0
 29 55  1  0
 30 56  1  0
 33 57  1  0
 34 58  1  0
M  END
$$$$
[H]c1c([H])c(C(F)(F)F)c([H])c([C@@]([H])(N([H])C(=O)OC(C([H])([H])[H])(C([H])([H])[H])C([H])([H])[H])C([H])([H])c2c([H])n([H])c3c([H])c([H])c([H])c([H])c23)c1[H]
     RDKit          3D

 52 54  0  0  0  0  0  0  0  0999 V2000
   -3.9147   -1.7557   -0.6993 C   0  0  0  0  0  0  0  0  0  0  0  0
   -4.2538   -0.4026   -0.1694 C   0  0  0  0  0  0  0  0  0  0  0  0
   -5.6198   -0.3931    0.4751 C   0  0  0  0  0  0  0  0  0  0  0  0
   -4.2293    0.6526   -1.2613 C   0  0  0  0  0  0  0  0  0  0  0  0
   -3.3108   -0.0648    0.8466 O   0  0  0  0  0  0  0  0  0  0  0  0
   -1.9218    0.0525    0.5091 C   0  0  0  0  0  0  0  0  0  0  0  0
   -1.7065   -0.1577   -0.6812 O   0  0  0  0  0  0  0  0  0  0  0  0
   -1.0212    0.3672    1.4671 N   0  0  0  0  0  0  0  0  0  0  0  0
    0.3559    0.6167    1.6734 C   0  0  1  0  0  0  0  0  0  0  0  0
    1.1773   -0.5187    2.1258 C   0  0  0  0  0  0  0  0  0  0  0  0
    1.4015   -1.6942    1.3365 C   0  0  0  0  0  0  0  0  0  0  0  0
    0.6078   -2.8067    1.1804 C   0  0  0  0  0  0  0  0  0  0  0  0
    1.1522   -3.6695    0.3096 N   0  0  0  0  0  0  0  0  0  0  0  0
    2.3363   -3.1537   -0.1455 C   0  0  0  0  0  0  0  0  0  0  0  0
    3.2837   -3.6554   -1.0223 C   0  0  0  0  0  0  0  0  0  0  0  0
    4.4297   -2.9455   -1.2959 C   0  0  0  0  0  0  0  0  0  0  0  0
    4.6040   -1.7284   -0.6764 C   0  0  0  0  0  0  0  0  0  0  0  0
    3.6485   -1.2571    0.1858 C   0  0  0  0  0  0  0  0  0  0  0  0
    2.4930   -1.9317    0.4877 C   0  0  0  0  0  0  0  0  0  0  0  0
    0.9001    1.5056    0.6299 C   0  0  0  0  0  0  0  0  0  0  0  0
    1.0113    1.1514   -0.6741 C   0  0  0  0  0  0  0  0  0  0  0  0
    1.4540    2.0034   -1.6784 C   0  0  0  0  0  0  0  0  0  0  0  0
    1.8071    3.2825   -1.3572 C   0  0  0  0  0  0  0  0  0  0  0  0
    1.7194    3.7063   -0.0433 C   0  0  0  0  0  0  0  0  0  0  0  0
    1.2749    2.8250    0.9109 C   0  0  0  0  0  0  0  0  0  0  0  0
    2.1142    5.1079    0.2981 C   0  0  0  0  0  0  0  0  0  0  0  0
    3.3573    5.0549    0.9266 F   0  0  0  0  0  0  0  0  0  0  0  0
    1.1689    5.6990    1.0831 F   0  0  0  0  0  0  0  0  0  0  0  0
    2.2214    5.8497   -0.8513 F   0  0  0  0  0  0  0  0  0  0  0  0
   -4.8792   -2.2810   -0.8921 H   0  0  0  0  0  0  0  0  0  0  0  0
   -3.3113   -1.7623   -1.6222 H   0  0  0  0  0  0  0  0  0  0  0  0
   -3.2950   -2.2851    0.0768 H   0  0  0  0  0  0  0  0  0  0  0  0
   -6.3482   -0.8574   -0.2312 H   0  0  0  0  0  0  0  0  0  0  0  0
   -5.9312    0.6812    0.5807 H   0  0  0  0  0  0  0  0  0  0  0  0
   -5.6237   -0.9179    1.4509 H   0  0  0  0  0  0  0  0  0  0  0  0
   -5.2165    1.1246   -1.4120 H   0  0  0  0  0  0  0  0  0  0  0  0
   -3.5064    1.4701   -0.9631 H   0  0  0  0  0  0  0  0  0  0  0  0
   -3.9398    0.2205   -2.2587 H   0  0  0  0  0  0  0  0  0  0  0  0
   -1.5492    0.4648    2.4784 H   0  0  0  0  0  0  0  0  0  0  0  0
    0.3630    1.3239    2.6272 H   0  0  0  0  0  0  0  0  0  0  0  0
    0.7266   -0.8060    3.1553 H   0  0  0  0  0  0  0  0  0  0  0  0
    2.1646   -0.0596    2.4747 H   0  0  0  0  0  0  0  0  0  0  0  0
   -0.3510   -3.0291    1.6733 H   0  0  0  0  0  0  0  0  0  0  0  0
    0.7820   -4.6042   -0.0188 H   0  0  0  0  0  0  0  0  0  0  0  0
    3.1304   -4.6103   -1.4955 H   0  0  0  0  0  0  0  0  0  0  0  0
    5.2001   -3.3332   -1.9864 H   0  0  0  0  0  0  0  0  0  0  0  0
    5.5133   -1.1601   -0.9042 H   0  0  0  0  0  0  0  0  0  0  0  0
    3.8300   -0.2957    0.6382 H   0  0  0  0  0  0  0  0  0  0  0  0
    0.7971    0.1197   -1.0070 H   0  0  0  0  0  0  0  0  0  0  0  0
    1.5174    1.6686   -2.6875 H   0  0  0  0  0  0  0  0  0  0  0  0
    2.1642    4.0069   -2.1081 H   0  0  0  0  0  0  0  0  0  0  0  0
    1.2224    3.1818    1.9241 H   0  0  0  0  0  0  0  0  0  0  0  0
  1  2  1  0
  2  3  1  0
  2  4  1  0
  2  5  1  0
  5  6  1  0
  6  7  2  0
  6  8  1  0
  8  9  1  0
  9 10  1  0
 10 11  1  0
 11 12  2  0
 12 13  1  0
 13 14  1  0
 14 15  2  0
 15 16  1  0
 16 17  2  0
 17 18  1  0
 18 19  2  0
  9 20  1  0
 20 21  2  0
 21 22  1  0
 22 23  2  0
 23 24  1  0
 24 25  2  0
 24 26  1  0
 26 27  1  0
 26 28  1  0
 26 29  1  0
 19 11  1  0
 25 20  1  0
 19 14  1  0
  1 30  1  0
  1 31  1  0
  1 32  1  0
  3 33  1  0
  3 34  1  0
  3 35  1  0
  4 36  1  0
  4 37  1  0
  4 38  1  0
  8 39  1  0
  9 40  1  1
 10 41  1  0
 10 42  1  0
 12 43  1  0
 13 44  1  0
 15 45  1  0
 16 46  1  0
 17 47  1  0
 18 48  1  0
 21 49  1  0
 22 50  1  0
 23 51  1  0
 25 52  1  0
M  END
$$$$
[H]N=C(N([H])[H])N([H])C([H])([H])C([H])([H])C([H])([H])[C@]1([H])C(=O)N([H])[C@@]([H])(C([H])([H])c2c([H])c([H])c([H])c([H])c2[H])C(=O)N2C([H])([H])C([H])([H])C([H])([H])[C@@]2([H])C(=O)N([H])[C@@]([H])(C([H])([H])c2c([H])c([H])c(O[H])c([H])c2[H])C(=O)N([H])[C@@]([H])(C([H])([H])c2c([H])c([H])c(O[H])c([H])c2[H])C(=O)N1[H]
     RDKit          3D

 99103  0  0  0  0  0  0  0  0999 V2000
   -7.5397   -3.7114    1.2966 N   0  0  0  0  0  0  0  0  0  0  0  0
   -6.1822   -3.4466    1.6297 C   0  0  0  0  0  0  0  0  0  0  0  0
   -5.7312   -3.9411    2.7358 N   0  0  0  0  0  0  0  0  0  0  0  0
   -5.3232   -2.6769    0.8149 N   0  0  0  0  0  0  0  0  0  0  0  0
   -5.3414   -1.2515    0.9154 C   0  0  0  0  0  0  0  0  0  0  0  0
   -4.3703   -0.5759   -0.0082 C   0  0  0  0  0  0  0  0  0  0  0  0
   -2.9363   -0.9416    0.2069 C   0  0  0  0  0  0  0  0  0  0  0  0
   -2.3915   -0.5617    1.5361 C   0  0  1  0  0  0  0  0  0  0  0  0
   -1.0125   -0.9336    1.7486 N   0  0  0  0  0  0  0  0  0  0  0  0
   -0.2832   -2.0601    1.4276 C   0  0  0  0  0  0  0  0  0  0  0  0
    0.1594   -2.7503    2.4348 O   0  0  0  0  0  0  0  0  0  0  0  0
    0.0938   -2.6296    0.0968 C   0  0  2  0  0  0  0  0  0  0  0  0
    0.8602   -3.8877    0.2884 C   0  0  0  0  0  0  0  0  0  0  0  0
    1.3165   -4.6298   -0.8587 C   0  0  0  0  0  0  0  0  0  0  0  0
    2.6092   -4.4894   -1.2991 C   0  0  0  0  0  0  0  0  0  0  0  0
    3.1447   -5.1502   -2.3873 C   0  0  0  0  0  0  0  0  0  0  0  0
    2.3056   -6.0054   -3.0622 C   0  0  0  0  0  0  0  0  0  0  0  0
    2.7852   -6.7007   -4.1652 O   0  0  0  0  0  0  0  0  0  0  0  0
    0.9978   -6.1790   -2.6551 C   0  0  0  0  0  0  0  0  0  0  0  0
    0.5067   -5.5075   -1.5760 C   0  0  0  0  0  0  0  0  0  0  0  0
    0.5955   -1.6609   -0.8157 N   0  0  0  0  0  0  0  0  0  0  0  0
    1.8394   -1.1672   -1.1370 C   0  0  0  0  0  0  0  0  0  0  0  0
    2.1063   -1.1242   -2.4115 O   0  0  0  0  0  0  0  0  0  0  0  0
    2.9678   -0.6630   -0.3501 C   0  0  2  0  0  0  0  0  0  0  0  0
    2.7766   -0.5709    1.1385 C   0  0  0  0  0  0  0  0  0  0  0  0
    4.0871   -0.0290    1.6624 C   0  0  0  0  0  0  0  0  0  0  0  0
    4.2530    1.3173    1.8146 C   0  0  0  0  0  0  0  0  0  0  0  0
    5.4480    1.8095    2.2856 C   0  0  0  0  0  0  0  0  0  0  0  0
    6.4892    0.9697    2.6103 C   0  0  0  0  0  0  0  0  0  0  0  0
    7.7017    1.4716    3.0882 O   0  0  0  0  0  0  0  0  0  0  0  0
    6.3371   -0.3853    2.4632 C   0  0  0  0  0  0  0  0  0  0  0  0
    5.1192   -0.8723    1.9836 C   0  0  0  0  0  0  0  0  0  0  0  0
    3.5734    0.5512   -0.8560 N   0  0  0  0  0  0  0  0  0  0  0  0
    2.9684    1.6351   -1.5044 C   0  0  0  0  0  0  0  0  0  0  0  0
    3.8094    2.4106   -2.1136 O   0  0  0  0  0  0  0  0  0  0  0  0
    1.5645    2.0311   -1.6078 C   0  0  2  0  0  0  0  0  0  0  0  0
    1.4285    2.7817   -2.9669 C   0  0  0  0  0  0  0  0  0  0  0  0
    1.9395    4.1769   -2.6122 C   0  0  0  0  0  0  0  0  0  0  0  0
    2.0109    4.2267   -1.0953 C   0  0  0  0  0  0  0  0  0  0  0  0
    1.1774    3.0977   -0.6610 N   0  0  0  0  0  0  0  0  0  0  0  0
    0.2006    2.9175    0.3478 C   0  0  0  0  0  0  0  0  0  0  0  0
    0.4322    3.4997    1.4629 O   0  0  0  0  0  0  0  0  0  0  0  0
   -1.0459    2.1068    0.1764 C   0  0  2  0  0  0  0  0  0  0  0  0
   -1.9930    2.6687   -0.8392 C   0  0  0  0  0  0  0  0  0  0  0  0
   -2.4745    4.0245   -0.5041 C   0  0  0  0  0  0  0  0  0  0  0  0
   -3.5986    4.1759    0.2882 C   0  0  0  0  0  0  0  0  0  0  0  0
   -4.0512    5.4523    0.5903 C   0  0  0  0  0  0  0  0  0  0  0  0
   -3.3924    6.5652    0.1088 C   0  0  0  0  0  0  0  0  0  0  0  0
   -2.2816    6.4052   -0.6751 C   0  0  0  0  0  0  0  0  0  0  0  0
   -1.8072    5.1229   -0.9925 C   0  0  0  0  0  0  0  0  0  0  0  0
   -1.6630    1.9244    1.4683 N   0  0  0  0  0  0  0  0  0  0  0  0
   -2.5478    0.8974    1.8616 C   0  0  0  0  0  0  0  0  0  0  0  0
   -3.5439    1.2736    2.5464 O   0  0  0  0  0  0  0  0  0  0  0  0
   -7.8608   -4.6575    0.9995 H   0  0  0  0  0  0  0  0  0  0  0  0
   -8.2872   -2.9670    1.3330 H   0  0  0  0  0  0  0  0  0  0  0  0
   -6.2957   -4.5074    3.3762 H   0  0  0  0  0  0  0  0  0  0  0  0
   -4.6903   -3.1531    0.1549 H   0  0  0  0  0  0  0  0  0  0  0  0
   -6.4055   -0.9463    0.6729 H   0  0  0  0  0  0  0  0  0  0  0  0
   -5.1839   -0.9076    1.9494 H   0  0  0  0  0  0  0  0  0  0  0  0
   -4.5394    0.5285   -0.0558 H   0  0  0  0  0  0  0  0  0  0  0  0
   -4.6359   -0.9360   -1.0426 H   0  0  0  0  0  0  0  0  0  0  0  0
   -2.9428   -2.0727    0.1946 H   0  0  0  0  0  0  0  0  0  0  0  0
   -2.3550   -0.5140   -0.6030 H   0  0  0  0  0  0  0  0  0  0  0  0
   -3.0605   -1.0969    2.2897 H   0  0  0  0  0  0  0  0  0  0  0  0
   -0.4659   -0.1576    2.2849 H   0  0  0  0  0  0  0  0  0  0  0  0
   -0.9169   -3.0244   -0.2840 H   0  0  0  0  0  0  0  0  0  0  0  0
    1.7530   -3.7036    0.9576 H   0  0  0  0  0  0  0  0  0  0  0  0
    0.2165   -4.5582    0.9134 H   0  0  0  0  0  0  0  0  0  0  0  0
    3.3349   -3.8319   -0.7914 H   0  0  0  0  0  0  0  0  0  0  0  0
    4.1877   -5.0036   -2.7022 H   0  0  0  0  0  0  0  0  0  0  0  0
    2.1773   -7.3289   -4.6631 H   0  0  0  0  0  0  0  0  0  0  0  0
    0.3585   -6.8830   -3.2332 H   0  0  0  0  0  0  0  0  0  0  0  0
   -0.4964   -5.6271   -1.2475 H   0  0  0  0  0  0  0  0  0  0  0  0
   -0.2137   -1.2066   -1.3930 H   0  0  0  0  0  0  0  0  0  0  0  0
    3.7547   -1.5050   -0.4471 H   0  0  0  0  0  0  0  0  0  0  0  0
    1.9474    0.0753    1.4373 H   0  0  0  0  0  0  0  0  0  0  0  0
    2.7339   -1.5711    1.5687 H   0  0  0  0  0  0  0  0  0  0  0  0
    3.4815    2.0445    1.5817 H   0  0  0  0  0  0  0  0  0  0  0  0
    5.6075    2.8948    2.4177 H   0  0  0  0  0  0  0  0  0  0  0  0
    7.8448    1.5980    4.0629 H   0  0  0  0  0  0  0  0  0  0  0  0
    7.1567   -1.0370    2.7198 H   0  0  0  0  0  0  0  0  0  0  0  0
    5.0583   -1.9515    1.8886 H   0  0  0  0  0  0  0  0  0  0  0  0
    4.6489    0.5978   -0.6953 H   0  0  0  0  0  0  0  0  0  0  0  0
    0.8166    1.2477   -1.5924 H   0  0  0  0  0  0  0  0  0  0  0  0
    2.0991    2.3345   -3.7156 H   0  0  0  0  0  0  0  0  0  0  0  0
    0.3901    2.7966   -3.3060 H   0  0  0  0  0  0  0  0  0  0  0  0
    2.8794    4.4372   -3.0859 H   0  0  0  0  0  0  0  0  0  0  0  0
    1.1621    4.8966   -3.0022 H   0  0  0  0  0  0  0  0  0  0  0  0
    3.0209    4.2121   -0.6822 H   0  0  0  0  0  0  0  0  0  0  0  0
    1.5547    5.1954   -0.8017 H   0  0  0  0  0  0  0  0  0  0  0  0
   -0.6777    1.1248   -0.2345 H   0  0  0  0  0  0  0  0  0  0  0  0
   -1.5269    2.7515   -1.8493 H   0  0  0  0  0  0  0  0  0  0  0  0
   -2.8348    1.9598   -0.9799 H   0  0  0  0  0  0  0  0  0  0  0  0
   -4.1389    3.3475    0.6756 H   0  0  0  0  0  0  0  0  0  0  0  0
   -4.9312    5.5716    1.2104 H   0  0  0  0  0  0  0  0  0  0  0  0
   -3.7481    7.5780    0.3460 H   0  0  0  0  0  0  0  0  0  0  0  0
   -1.7346    7.2404   -1.0741 H   0  0  0  0  0  0  0  0  0  0  0  0
   -0.9335    5.0344   -1.6231 H   0  0  0  0  0  0  0  0  0  0  0  0
   -1.4037    2.6708    2.1959 H   0  0  0  0  0  0  0  0  0  0  0  0
  1  2  1  0
  2  3  2  3
  2  4  1  0
  4  5  1  0
  5  6  1  0
  6  7  1  0
  7  8  1  0
  8  9  1  0
  9 10  1  0
 10 11  2  0
 10 12  1  0
 12 13  1  0
 13 14  1  0
 14 15  2  0
 15 16  1  0
 16 17  2  0
 17 18  1  0
 17 19  1  0
 19 20  2  0
 12 21  1  0
 21 22  1  0
 22 23  2  0
 22 24  1  0
 24 25  1  0
 25 26  1  0
 26 27  2  0
 27 28  1  0
 28 29  2  0
 29 30  1  0
 29 31  1  0
 31 32  2  0
 24 33  1  0
 33 34  1  0
 34 35  2  0
 34 36  1  0
 36 37  1  0
 37 38  1  0
 38 39  1  0
 39 40  1  0
 40 41  1  0
 41 42  2  0
 41 43  1  0
 43 44  1  0
 44 45  1  0
 45 46  2  0
 46 47  1  0
 47 48  2  0
 48 49  1  0
 49 50  2  0
 43 51  1  0
 51 52  1  0
 52 53  2  0
 52  8  1  0
 20 14  1  0
 32 26  1  0
 40 36  1  0
 50 45  1  0
  1 54  1  0
  1 55  1  0
  3 56  1  0
  4 57  1  0
  5 58  1  0
  5 59  1  0
  6 60  1  0
  6 61  1  0
  7 62  1  0
  7 63  1  0
  8 64  1  1
  9 65  1  0
 12 66  1  6
 13 67  1  0
 13 68  1  0
 15 69  1  0
 16 70  1  0
 18 71  1  0
 19 72  1  0
 20 73  1  0
 21 74  1  0
 24 75  1  1
 25 76  1  0
 25 77  1  0
 27 78  1  0
 28 79  1  0
 30 80  1  0
 31 81  1  0
 32 82  1  0
 33 83  1  0
 36 84  1  6
 37 85  1  0
 37 86  1  0
 38 87  1  0
 38 88  1  0
 39 89  1  0
 39 90  1  0
 43 91  1  6
 44 92  1  0
 44 93  1  0
 46 94  1  0
 47 95  1  0
 48 96  1  0
 49 97  1  0
 50 98  1  0
 51 99  1  0
M  END
$$$$
[H]c1nn(C([H])([H])[H])c([H])c1-c1c([H])c([H])c2c(c1[H])c([H])c(C1=NC([H])([H])C([H])([H])N1[H])n2[H]
     RDKit          3D

 35 38  0  0  0  0  0  0  0  0999 V2000
    6.2059    0.1665    2.4528 C   0  0  0  0  0  0  0  0  0  0  0  0
    5.3367    0.0473    1.2791 N   0  0  0  0  0  0  0  0  0  0  0  0
    3.9928   -0.0624    1.3259 C   0  0  0  0  0  0  0  0  0  0  0  0
    3.4983   -0.1548    0.0418 C   0  0  0  0  0  0  0  0  0  0  0  0
    4.6047   -0.0957   -0.7775 C   0  0  0  0  0  0  0  0  0  0  0  0
    5.7043    0.0267    0.0007 N   0  0  0  0  0  0  0  0  0  0  0  0
    2.1058   -0.2878   -0.3977 C   0  0  0  0  0  0  0  0  0  0  0  0
    1.8173   -0.9772   -1.5516 C   0  0  0  0  0  0  0  0  0  0  0  0
    0.5153   -1.1094   -1.9748 C   0  0  0  0  0  0  0  0  0  0  0  0
   -0.5187   -0.5429   -1.2324 C   0  0  0  0  0  0  0  0  0  0  0  0
   -1.8478   -0.5177   -1.4072 N   0  0  0  0  0  0  0  0  0  0  0  0
   -2.4699    0.1640   -0.4130 C   0  0  0  0  0  0  0  0  0  0  0  0
   -1.4486    0.5853    0.4291 C   0  0  0  0  0  0  0  0  0  0  0  0
   -0.2437    0.1541   -0.0683 C   0  0  0  0  0  0  0  0  0  0  0  0
    1.0640    0.2705    0.3302 C   0  0  0  0  0  0  0  0  0  0  0  0
   -3.9123    0.4014   -0.2646 C   0  0  0  0  0  0  0  0  0  0  0  0
   -4.4184    1.0541    0.7087 N   0  0  0  0  0  0  0  0  0  0  0  0
   -5.8405    1.1048    0.5569 C   0  0  0  0  0  0  0  0  0  0  0  0
   -6.1570   -0.0215   -0.3923 C   0  0  0  0  0  0  0  0  0  0  0  0
   -4.9085   -0.0637   -1.1685 N   0  0  0  0  0  0  0  0  0  0  0  0
    6.1499   -0.8102    3.0037 H   0  0  0  0  0  0  0  0  0  0  0  0
    7.2328    0.3043    2.0848 H   0  0  0  0  0  0  0  0  0  0  0  0
    5.8879    1.0212    3.0881 H   0  0  0  0  0  0  0  0  0  0  0  0
    3.3647   -0.0797    2.1976 H   0  0  0  0  0  0  0  0  0  0  0  0
    4.6071   -0.1388   -1.8577 H   0  0  0  0  0  0  0  0  0  0  0  0
    2.6237   -1.4299   -2.1478 H   0  0  0  0  0  0  0  0  0  0  0  0
    0.3217   -1.6554   -2.8832 H   0  0  0  0  0  0  0  0  0  0  0  0
   -2.3726   -0.9643   -2.2101 H   0  0  0  0  0  0  0  0  0  0  0  0
   -1.6170    1.1702    1.3413 H   0  0  0  0  0  0  0  0  0  0  0  0
    1.3117    0.8150    1.2444 H   0  0  0  0  0  0  0  0  0  0  0  0
   -6.1872    2.0815    0.1237 H   0  0  0  0  0  0  0  0  0  0  0  0
   -6.2837    0.9295    1.5594 H   0  0  0  0  0  0  0  0  0  0  0  0
   -6.3047   -0.9528    0.1788 H   0  0  0  0  0  0  0  0  0  0  0  0
   -7.0191    0.2349   -1.0427 H   0  0  0  0  0  0  0  0  0  0  0  0
   -4.7948   -0.3681   -2.1576 H   0  0  0  0  0  0  0  0  0  0  0  0
  1  2  1  0
  2  3  1  0
  3  4  2  0
  4  5  1  0
  5  6  2  0
  4  7  1  0
  7  8  2  0
  8  9  1  0
  9 10  2  0
 10 11  1  0
 11 12  1  0
 12 13  2  0
 13 14  1  0
 14 15  2  0
 12 16  1  0
 16 17  2  0
 17 18  1  0
 18 19  1  0
 19 20  1  0
  6  2  1  0
 15  7  1  0
 20 16  1  0
 14 10  1  0
  1 21  1  0
  1 22  1  0
  1 23  1  0
  3 24  1  0
  5 25  1  0
  8 26  1  0
  9 27  1  0
 11 28  1  0
 13 29  1  0
 15 30  1  0
 18 31  1  0
 18 32  1  0
 19 33  1  0
 19 34  1  0
 20 35  1  0
M  END
$$$$
[H]c1nc(N([H])C(=O)c2nc(-c3c([H])c([H])c(OC(F)(F)F)c([H])c3[H])c([H])n2[H])c([H])c([H])c1N1C([H])([H])C([H])([H])N(C([H])([H])[H])C([H])([H])C1([H])[H]
     RDKit          3D

 53 56  0  0  0  0  0  0  0  0999 V2000
   -5.8286   -1.7635    1.0563 C   0  0  0  0  0  0  0  0  0  0  0  0
   -6.6211   -0.5642    1.2533 N   0  0  0  0  0  0  0  0  0  0  0  0
   -6.8455    0.0946    0.0070 C   0  0  0  0  0  0  0  0  0  0  0  0
   -6.1105    1.4312   -0.0415 C   0  0  0  0  0  0  0  0  0  0  0  0
   -4.7664    1.1894    0.4013 N   0  0  0  0  0  0  0  0  0  0  0  0
   -4.6266    0.7478    1.7853 C   0  0  0  0  0  0  0  0  0  0  0  0
   -5.9905    0.2359    2.2604 C   0  0  0  0  0  0  0  0  0  0  0  0
   -3.5958    1.3416   -0.3856 C   0  0  0  0  0  0  0  0  0  0  0  0
   -2.3550    1.1175    0.1484 C   0  0  0  0  0  0  0  0  0  0  0  0
   -1.1947    1.2634   -0.6235 C   0  0  0  0  0  0  0  0  0  0  0  0
   -1.2458    1.6304   -1.9320 C   0  0  0  0  0  0  0  0  0  0  0  0
   -0.1591    1.7539   -2.8315 N   0  0  0  0  0  0  0  0  0  0  0  0
    1.1457    1.3770   -2.8128 C   0  0  0  0  0  0  0  0  0  0  0  0
    1.9076    1.8575   -3.7585 O   0  0  0  0  0  0  0  0  0  0  0  0
    1.8584    0.5136   -1.9134 C   0  0  0  0  0  0  0  0  0  0  0  0
    3.1612    0.6695   -1.5110 N   0  0  0  0  0  0  0  0  0  0  0  0
    3.5687   -0.3479   -0.7558 C   0  0  0  0  0  0  0  0  0  0  0  0
    2.4898   -1.1923   -0.6671 C   0  0  0  0  0  0  0  0  0  0  0  0
    1.4672   -0.6574   -1.3715 N   0  0  0  0  0  0  0  0  0  0  0  0
    4.8737   -0.5422   -0.1438 C   0  0  0  0  0  0  0  0  0  0  0  0
    5.8791    0.3824   -0.3054 C   0  0  0  0  0  0  0  0  0  0  0  0
    7.1016    0.1665    0.2890 C   0  0  0  0  0  0  0  0  0  0  0  0
    7.3521   -0.9606    1.0498 C   0  0  0  0  0  0  0  0  0  0  0  0
    8.5814   -1.1825    1.6505 O   0  0  0  0  0  0  0  0  0  0  0  0
    9.6121   -1.8785    0.9929 C   0  0  0  0  0  0  0  0  0  0  0  0
    9.1469   -3.1459    0.7005 F   0  0  0  0  0  0  0  0  0  0  0  0
   10.6768   -1.9567    1.8994 F   0  0  0  0  0  0  0  0  0  0  0  0
   10.0230   -1.2162   -0.1570 F   0  0  0  0  0  0  0  0  0  0  0  0
    6.3391   -1.8990    1.2166 C   0  0  0  0  0  0  0  0  0  0  0  0
    5.1329   -1.6623    0.6161 C   0  0  0  0  0  0  0  0  0  0  0  0
   -2.5140    1.8464   -2.4269 N   0  0  0  0  0  0  0  0  0  0  0  0
   -3.6273    1.7138   -1.7092 C   0  0  0  0  0  0  0  0  0  0  0  0
   -6.4764   -2.4792    0.4963 H   0  0  0  0  0  0  0  0  0  0  0  0
   -5.6050   -2.2529    2.0228 H   0  0  0  0  0  0  0  0  0  0  0  0
   -4.9156   -1.5784    0.4497 H   0  0  0  0  0  0  0  0  0  0  0  0
   -6.4303   -0.5091   -0.8361 H   0  0  0  0  0  0  0  0  0  0  0  0
   -7.9197    0.2943   -0.1947 H   0  0  0  0  0  0  0  0  0  0  0  0
   -6.2298    1.9189   -0.9997 H   0  0  0  0  0  0  0  0  0  0  0  0
   -6.5688    2.1140    0.7217 H   0  0  0  0  0  0  0  0  0  0  0  0
   -3.9379   -0.1079    1.8843 H   0  0  0  0  0  0  0  0  0  0  0  0
   -4.3009    1.5761    2.4113 H   0  0  0  0  0  0  0  0  0  0  0  0
   -6.6233    1.0748    2.6195 H   0  0  0  0  0  0  0  0  0  0  0  0
   -5.7872   -0.4199    3.1319 H   0  0  0  0  0  0  0  0  0  0  0  0
   -2.2610    0.8188    1.1979 H   0  0  0  0  0  0  0  0  0  0  0  0
   -0.2603    1.1112   -0.1244 H   0  0  0  0  0  0  0  0  0  0  0  0
   -0.3998    2.4215   -3.7040 H   0  0  0  0  0  0  0  0  0  0  0  0
    2.4866   -2.1219   -0.1194 H   0  0  0  0  0  0  0  0  0  0  0  0
    0.5192   -1.1142   -1.4766 H   0  0  0  0  0  0  0  0  0  0  0  0
    5.6979    1.2661   -0.8962 H   0  0  0  0  0  0  0  0  0  0  0  0
    7.8979    0.8770    0.1737 H   0  0  0  0  0  0  0  0  0  0  0  0
    6.5254   -2.7777    1.8060 H   0  0  0  0  0  0  0  0  0  0  0  0
    4.3393   -2.3773    0.7351 H   0  0  0  0  0  0  0  0  0  0  0  0
   -4.5870    1.9026   -2.1754 H   0  0  0  0  0  0  0  0  0  0  0  0
  1  2  1  0
  2  3  1  0
  3  4  1  0
  4  5  1  0
  5  6  1  0
  6  7  1  0
  5  8  1  0
  8  9  2  0
  9 10  1  0
 10 11  2  0
 11 12  1  0
 12 13  1  0
 13 14  2  0
 13 15  1  0
 15 16  2  0
 16 17  1  0
 17 18  2  0
 18 19  1  0
 17 20  1  0
 20 21  2  0
 21 22  1  0
 22 23  2  0
 23 24  1  0
 24 25  1  0
 25 26  1  0
 25 27  1  0
 25 28  1  0
 23 29  1  0
 29 30  2  0
 11 31  1  0
 31 32  2  0
  7  2  1  0
 32  8  1  0
 19 15  1  0
 30 20  1  0
  1 33  1  0
  1 34  1  0
  1 35  1  0
  3 36  1  0
  3 37  1  0
  4 38  1  0
  4 39  1  0
  6 40  1  0
  6 41  1  0
  7 42  1  0
  7 43  1  0
  9 44  1  0
 10 45  1  0
 12 46  1  0
 18 47  1  0
 19 48  1  0
 21 49  1  0
 22 50  1  0
 29 51  1  0
 30 52  1  0
 32 53  1  0
M  END
$$$$
[H]c1nc(C(F)(F)F)c([H])c(C(=O)N([H])c2c([H])c([H])c(C([H])([H])[H])c(-c3c([H])nc(N([H])[H])c(C#N)c3[H])c2[H])c1[H]
     RDKit          3D

 43 45  0  0  0  0  0  0  0  0999 V2000
    3.1835   -2.3110   -1.3705 C   0  0  0  0  0  0  0  0  0  0  0  0
    1.8910   -1.8089   -0.7971 C   0  0  0  0  0  0  0  0  0  0  0  0
    0.8079   -2.6529   -0.7996 C   0  0  0  0  0  0  0  0  0  0  0  0
   -0.3465   -2.2243   -0.2255 C   0  0  0  0  0  0  0  0  0  0  0  0
   -0.5002   -0.9527    0.3774 C   0  0  0  0  0  0  0  0  0  0  0  0
   -1.6481   -0.4827    0.9053 N   0  0  0  0  0  0  0  0  0  0  0  0
   -2.7996   -0.0036    1.4601 C   0  0  0  0  0  0  0  0  0  0  0  0
   -2.8983    0.5259    2.5581 O   0  0  0  0  0  0  0  0  0  0  0  0
   -4.0647   -0.1079    0.6948 C   0  0  0  0  0  0  0  0  0  0  0  0
   -4.4633   -1.2719    0.0606 C   0  0  0  0  0  0  0  0  0  0  0  0
   -5.5936   -1.3421   -0.7035 C   0  0  0  0  0  0  0  0  0  0  0  0
   -6.3546   -0.2139   -0.8354 N   0  0  0  0  0  0  0  0  0  0  0  0
   -6.0209    0.9375   -0.2405 C   0  0  0  0  0  0  0  0  0  0  0  0
   -4.8245    1.0085    0.5635 C   0  0  0  0  0  0  0  0  0  0  0  0
   -6.7969    2.1682   -0.3832 C   0  0  0  0  0  0  0  0  0  0  0  0
   -5.8904    3.1295   -0.8703 F   0  0  0  0  0  0  0  0  0  0  0  0
   -7.3252    2.5199    0.8106 F   0  0  0  0  0  0  0  0  0  0  0  0
   -7.7166    1.9715   -1.4031 F   0  0  0  0  0  0  0  0  0  0  0  0
    0.6801   -0.1277    0.3458 C   0  0  0  0  0  0  0  0  0  0  0  0
    1.8333   -0.5545   -0.2327 C   0  0  0  0  0  0  0  0  0  0  0  0
    3.0146    0.2912   -0.3106 C   0  0  0  0  0  0  0  0  0  0  0  0
    3.7185    0.4688   -1.5205 C   0  0  0  0  0  0  0  0  0  0  0  0
    4.8668    1.1230   -1.6353 N   0  0  0  0  0  0  0  0  0  0  0  0
    5.4497    1.6819   -0.5632 C   0  0  0  0  0  0  0  0  0  0  0  0
    6.7163    2.3112   -0.6035 N   0  0  0  0  0  0  0  0  0  0  0  0
    4.7884    1.5428    0.6645 C   0  0  0  0  0  0  0  0  0  0  0  0
    3.6234    0.8741    0.7761 C   0  0  0  0  0  0  0  0  0  0  0  0
    5.4216    2.1919    1.8099 C   0  0  0  0  0  0  0  0  0  0  0  0
    5.8933    2.7109    2.7328 N   0  0  0  0  0  0  0  0  0  0  0  0
    4.0364   -1.9927   -0.7614 H   0  0  0  0  0  0  0  0  0  0  0  0
    3.1802   -3.4493   -1.2461 H   0  0  0  0  0  0  0  0  0  0  0  0
    3.2618   -2.1847   -2.4547 H   0  0  0  0  0  0  0  0  0  0  0  0
    0.8569   -3.6545   -1.2790 H   0  0  0  0  0  0  0  0  0  0  0  0
   -1.2294   -2.8817   -0.2166 H   0  0  0  0  0  0  0  0  0  0  0  0
   -1.7829   -1.5516    1.7819 H   0  0  0  0  0  0  0  0  0  0  0  0
   -3.8207   -2.1555    0.1864 H   0  0  0  0  0  0  0  0  0  0  0  0
   -5.9533   -2.2100   -1.1823 H   0  0  0  0  0  0  0  0  0  0  0  0
   -4.5662    1.9051    1.0010 H   0  0  0  0  0  0  0  0  0  0  0  0
    0.5658    0.8928    0.7923 H   0  0  0  0  0  0  0  0  0  0  0  0
    3.2240    0.0648   -2.4067 H   0  0  0  0  0  0  0  0  0  0  0  0
    7.5549    1.6954   -0.7254 H   0  0  0  0  0  0  0  0  0  0  0  0
    6.9180    3.3201   -0.5146 H   0  0  0  0  0  0  0  0  0  0  0  0
    3.1096    0.7993    1.7874 H   0  0  0  0  0  0  0  0  0  0  0  0
  1  2  1  0
  2  3  2  0
  3  4  1  0
  4  5  2  0
  5  6  1  0
  6  7  1  0
  7  8  2  0
  7  9  1  0
  9 10  2  0
 10 11  1  0
 11 12  2  0
 12 13  1  0
 13 14  2  0
 13 15  1  0
 15 16  1  0
 15 17  1  0
 15 18  1  0
  5 19  1  0
 19 20  2  0
 20 21  1  0
 21 22  2  0
 22 23  1  0
 23 24  2  0
 24 25  1  0
 24 26  1  0
 26 27  2  0
 26 28  1  0
 28 29  3  0
 20  2  1  0
 27 21  1  0
 14  9  1  0
  1 30  1  0
  1 31  1  0
  1 32  1  0
  3 33  1  0
  4 34  1  0
  6 35  1  0
 10 36  1  0
 11 37  1  0
 14 38  1  0
 19 39  1  0
 22 40  1  0
 25 41  1  0
 25 42  1  0
 27 43  1  0
M  END
$$$$
[H]OC([H])([H])[C@@]1([H])O[C@@]([H])(n2c([H])nc3c(N([H])C([H])([H])c4c([H])c([H])c([H])c(C#N)c4[H])c([H])c([H])c([H])c32)[C@]([H])(O[H])[C@]1([H])O[H]
     RDKit          3D

 48 51  0  0  0  0  0  0  0  0999 V2000
   -5.8224   -3.1576   -0.1587 O   0  0  0  0  0  0  0  0  0  0  0  0
   -6.2083   -1.8367   -0.3785 C   0  0  0  0  0  0  0  0  0  0  0  0
   -5.2680   -0.9301    0.3841 C   0  0  1  0  0  0  0  0  0  0  0  0
   -3.9518   -1.0785   -0.0201 O   0  0  0  0  0  0  0  0  0  0  0  0
   -3.3834    0.1192    0.5141 C   0  0  2  0  0  0  0  0  0  0  0  0
   -4.1932    1.1254   -0.1011 C   0  0  2  0  0  0  0  0  0  0  0  0
   -4.2760    2.3680    0.5773 O   0  0  0  0  0  0  0  0  0  0  0  0
   -5.6031    0.5297    0.1637 C   0  0  2  0  0  0  0  0  0  0  0  0
   -6.1337    1.0035    1.3558 O   0  0  0  0  0  0  0  0  0  0  0  0
   -2.0087   -0.0231    0.4284 N   0  0  0  0  0  0  0  0  0  0  0  0
   -1.3825   -1.0427    1.1038 C   0  0  0  0  0  0  0  0  0  0  0  0
   -0.0898   -0.9836    0.8790 N   0  0  0  0  0  0  0  0  0  0  0  0
    0.1931    0.0521    0.0646 C   0  0  0  0  0  0  0  0  0  0  0  0
    1.3456    0.5615   -0.4775 C   0  0  0  0  0  0  0  0  0  0  0  0
    2.5874   -0.0845   -0.1675 N   0  0  0  0  0  0  0  0  0  0  0  0
    3.7615    0.4787   -0.7530 C   0  0  0  0  0  0  0  0  0  0  0  0
    5.0242   -0.1925   -0.4267 C   0  0  0  0  0  0  0  0  0  0  0  0
    5.1943   -1.2847    0.3702 C   0  0  0  0  0  0  0  0  0  0  0  0
    6.4735   -1.8066    0.5819 C   0  0  0  0  0  0  0  0  0  0  0  0
    7.5985   -1.2598    0.0120 C   0  0  0  0  0  0  0  0  0  0  0  0
    7.4203   -0.1527   -0.7951 C   0  0  0  0  0  0  0  0  0  0  0  0
    6.1769    0.3549   -1.0010 C   0  0  0  0  0  0  0  0  0  0  0  0
    8.5664    0.4690   -1.4242 C   0  0  0  0  0  0  0  0  0  0  0  0
    9.4877    0.9640   -1.9294 N   0  0  0  0  0  0  0  0  0  0  0  0
    1.2649    1.6565   -1.2855 C   0  0  0  0  0  0  0  0  0  0  0  0
    0.0647    2.2647   -1.5729 C   0  0  0  0  0  0  0  0  0  0  0  0
   -1.1094    1.7480   -1.0223 C   0  0  0  0  0  0  0  0  0  0  0  0
   -1.0406    0.6438   -0.2058 C   0  0  0  0  0  0  0  0  0  0  0  0
   -5.7179   -3.3346    0.8088 H   0  0  0  0  0  0  0  0  0  0  0  0
   -7.2129   -1.7107    0.0797 H   0  0  0  0  0  0  0  0  0  0  0  0
   -6.1895   -1.6561   -1.4527 H   0  0  0  0  0  0  0  0  0  0  0  0
   -5.2943   -1.2029    1.4682 H   0  0  0  0  0  0  0  0  0  0  0  0
   -3.7263    0.0414    1.6033 H   0  0  0  0  0  0  0  0  0  0  0  0
   -4.2010    1.2372   -1.1983 H   0  0  0  0  0  0  0  0  0  0  0  0
   -4.3773    3.0651   -0.1290 H   0  0  0  0  0  0  0  0  0  0  0  0
   -6.2991    0.7175   -0.6460 H   0  0  0  0  0  0  0  0  0  0  0  0
   -5.6962    0.5076    2.1062 H   0  0  0  0  0  0  0  0  0  0  0  0
   -1.8394   -1.8027    1.7362 H   0  0  0  0  0  0  0  0  0  0  0  0
    2.5900   -0.9144    0.4530 H   0  0  0  0  0  0  0  0  0  0  0  0
    3.6757    0.4398   -1.8806 H   0  0  0  0  0  0  0  0  0  0  0  0
    3.8669    1.5708   -0.5440 H   0  0  0  0  0  0  0  0  0  0  0  0
    4.3482   -1.7504    0.8399 H   0  0  0  0  0  0  0  0  0  0  0  0
    6.5864   -2.6834    1.2251 H   0  0  0  0  0  0  0  0  0  0  0  0
    8.5917   -1.6533    0.1676 H   0  0  0  0  0  0  0  0  0  0  0  0
    6.1001    1.2324   -1.6498 H   0  0  0  0  0  0  0  0  0  0  0  0
    2.1769    2.0623   -1.7164 H   0  0  0  0  0  0  0  0  0  0  0  0
   -0.0134    3.1421   -2.2184 H   0  0  0  0  0  0  0  0  0  0  0  0
   -2.0566    2.1862   -1.2179 H   0  0  0  0  0  0  0  0  0  0  0  0
  1  2  1  0
  2  3  1  0
  3  4  1  0
  4  5  1  0
  5  6  1  0
  6  7  1  0
  6  8  1  0
  8  9  1  0
  5 10  1  0
 10 11  1  0
 11 12  2  0
 12 13  1  0
 13 14  2  0
 14 15  1  0
 15 16  1  0
 16 17  1  0
 17 18  2  0
 18 19  1  0
 19 20  2  0
 20 21  1  0
 21 22  2  0
 21 23  1  0
 23 24  3  0
 14 25  1  0
 25 26  2  0
 26 27  1  0
 27 28  2  0
  8  3  1  0
 28 10  1  0
 28 13  1  0
 22 17  1  0
  1 29  1  0
  2 30  1  0
  2 31  1  0
  3 32  1  1
  5 33  1  1
  6 34  1  6
  7 35  1  0
  8 36  1  6
  9 37  1  0
 11 38  1  0
 15 39  1  0
 16 40  1  0
 16 41  1  0
 18 42  1  0
 19 43  1  0
 20 44  1  0
 22 45  1  0
 25 46  1  0
 26 47  1  0
 27 48  1  0
M  END
$$$$
[H]c1nc(N([H])c2c([H])c([H])c(N3C([H])([H])C([H])([H])N(C(=O)C([H])([H])[H])C([H])([H])C3([H])[H])c([H])c2OC([H])([H])[H])nc(N([H])c2c([H])c([H])c([H])c([H])c2S(=O)(=O)C(C([H])([H])[H])(C([H])([H])[H])C([H])([H])[H])c1Cl
     RDKit          3D

 72 75  0  0  0  0  0  0  0  0999 V2000
    3.3575    1.5993   -2.5622 C   0  0  0  0  0  0  0  0  0  0  0  0
    2.3916    0.8732   -1.8542 O   0  0  0  0  0  0  0  0  0  0  0  0
    2.7072    0.1247   -0.7218 C   0  0  0  0  0  0  0  0  0  0  0  0
    3.9624    0.0344   -0.2095 C   0  0  0  0  0  0  0  0  0  0  0  0
    4.3154   -0.7032    0.9225 C   0  0  0  0  0  0  0  0  0  0  0  0
    3.2948   -1.3690    1.5281 C   0  0  0  0  0  0  0  0  0  0  0  0
    1.9744   -1.3065    1.0341 C   0  0  0  0  0  0  0  0  0  0  0  0
    1.6630   -0.5812   -0.0663 C   0  0  0  0  0  0  0  0  0  0  0  0
    0.3713   -0.4506   -0.5760 N   0  0  0  0  0  0  0  0  0  0  0  0
   -0.7639   -1.2068   -0.2894 C   0  0  0  0  0  0  0  0  0  0  0  0
   -0.7795   -2.2388    0.5396 N   0  0  0  0  0  0  0  0  0  0  0  0
   -1.8903   -2.9426    0.7714 C   0  0  0  0  0  0  0  0  0  0  0  0
   -3.0891   -2.6576    0.1778 C   0  0  0  0  0  0  0  0  0  0  0  0
   -4.5357   -3.5828    0.4720 Cl  0  0  0  0  0  0  0  0  0  0  0  0
   -3.1060   -1.5585   -0.7131 C   0  0  0  0  0  0  0  0  0  0  0  0
   -4.3457   -1.2500   -1.3068 N   0  0  0  0  0  0  0  0  0  0  0  0
   -4.6243   -0.2188   -2.2295 C   0  0  0  0  0  0  0  0  0  0  0  0
   -3.5688    0.4130   -2.9129 C   0  0  0  0  0  0  0  0  0  0  0  0
   -3.8636    1.3547   -3.8932 C   0  0  0  0  0  0  0  0  0  0  0  0
   -5.1656    1.6690   -4.1978 C   0  0  0  0  0  0  0  0  0  0  0  0
   -6.1781    1.0625   -3.5372 C   0  0  0  0  0  0  0  0  0  0  0  0
   -5.9439    0.1140   -2.5458 C   0  0  0  0  0  0  0  0  0  0  0  0
   -7.3168   -0.5033   -1.6756 S   0  0  0  0  0  0  0  0  0  0  0  0
   -8.5888   -0.1804   -2.5093 O   0  0  0  0  0  0  0  0  0  0  0  0
   -7.3322   -2.0096   -1.6273 O   0  0  0  0  0  0  0  0  0  0  0  0
   -7.4942    0.2394   -0.1029 C   0  0  0  0  0  0  0  0  0  0  0  0
   -6.3691    0.0986    0.8669 C   0  0  0  0  0  0  0  0  0  0  0  0
   -7.7776    1.7325   -0.2291 C   0  0  0  0  0  0  0  0  0  0  0  0
   -8.7218   -0.3870    0.5728 C   0  0  0  0  0  0  0  0  0  0  0  0
   -1.9626   -0.9215   -0.8810 N   0  0  0  0  0  0  0  0  0  0  0  0
    5.6411   -0.7604    1.3872 N   0  0  0  0  0  0  0  0  0  0  0  0
    6.8252   -0.6898    0.5610 C   0  0  0  0  0  0  0  0  0  0  0  0
    8.0245   -0.2025    1.3287 C   0  0  0  0  0  0  0  0  0  0  0  0
    7.6842    0.6495    2.4354 N   0  0  0  0  0  0  0  0  0  0  0  0
    6.4330    0.5395    3.1594 C   0  0  0  0  0  0  0  0  0  0  0  0
    5.8992   -0.8690    2.8314 C   0  0  0  0  0  0  0  0  0  0  0  0
    8.6056    1.6530    2.8362 C   0  0  0  0  0  0  0  0  0  0  0  0
    9.9082    1.8634    2.1585 C   0  0  0  0  0  0  0  0  0  0  0  0
    8.2948    2.3899    3.8085 O   0  0  0  0  0  0  0  0  0  0  0  0
    2.9041    2.4891   -3.0633 H   0  0  0  0  0  0  0  0  0  0  0  0
    4.1568    1.9787   -1.9093 H   0  0  0  0  0  0  0  0  0  0  0  0
    3.7838    0.9027   -3.3355 H   0  0  0  0  0  0  0  0  0  0  0  0
    4.7797    0.5494   -0.6793 H   0  0  0  0  0  0  0  0  0  0  0  0
    3.4611   -1.9729    2.4076 H   0  0  0  0  0  0  0  0  0  0  0  0
    1.2367   -1.8528    1.5961 H   0  0  0  0  0  0  0  0  0  0  0  0
    0.2109    0.3502   -1.2892 H   0  0  0  0  0  0  0  0  0  0  0  0
   -1.7994   -3.7672    1.4657 H   0  0  0  0  0  0  0  0  0  0  0  0
   -5.1770   -1.8755   -1.0638 H   0  0  0  0  0  0  0  0  0  0  0  0
   -2.5282    0.1995   -2.7248 H   0  0  0  0  0  0  0  0  0  0  0  0
   -3.0590    1.8486   -4.4308 H   0  0  0  0  0  0  0  0  0  0  0  0
   -5.4252    2.3988   -4.9578 H   0  0  0  0  0  0  0  0  0  0  0  0
   -7.2220    1.2971   -3.7631 H   0  0  0  0  0  0  0  0  0  0  0  0
   -6.1150   -0.9470    1.0765 H   0  0  0  0  0  0  0  0  0  0  0  0
   -6.7455    0.5930    1.8276 H   0  0  0  0  0  0  0  0  0  0  0  0
   -5.4869    0.7296    0.6046 H   0  0  0  0  0  0  0  0  0  0  0  0
   -8.6096    1.9799    0.4543 H   0  0  0  0  0  0  0  0  0  0  0  0
   -6.9018    2.3192    0.0946 H   0  0  0  0  0  0  0  0  0  0  0  0
   -8.0902    1.9396   -1.2674 H   0  0  0  0  0  0  0  0  0  0  0  0
   -9.1802    0.4027    1.2244 H   0  0  0  0  0  0  0  0  0  0  0  0
   -9.4142   -0.7294   -0.2221 H   0  0  0  0  0  0  0  0  0  0  0  0
   -8.3970   -1.2659    1.1583 H   0  0  0  0  0  0  0  0  0  0  0  0
    7.0090   -1.7144    0.1816 H   0  0  0  0  0  0  0  0  0  0  0  0
    6.7033   -0.0419   -0.3349 H   0  0  0  0  0  0  0  0  0  0  0  0
    8.7105    0.3424    0.6639 H   0  0  0  0  0  0  0  0  0  0  0  0
    8.5783   -1.0902    1.7034 H   0  0  0  0  0  0  0  0  0  0  0  0
    5.6931    1.2404    2.6687 H   0  0  0  0  0  0  0  0  0  0  0  0
    6.5082    0.6917    4.2276 H   0  0  0  0  0  0  0  0  0  0  0  0
    6.7295   -1.5730    2.9445 H   0  0  0  0  0  0  0  0  0  0  0  0
    4.9968   -1.1029    3.4038 H   0  0  0  0  0  0  0  0  0  0  0  0
    9.8361    1.9669    1.0663 H   0  0  0  0  0  0  0  0  0  0  0  0
   10.5892    1.0647    2.4733 H   0  0  0  0  0  0  0  0  0  0  0  0
   10.3281    2.8280    2.5255 H   0  0  0  0  0  0  0  0  0  0  0  0
  1  2  1  0
  2  3  1  0
  3  4  2  0
  4  5  1  0
  5  6  2  0
  6  7  1  0
  7  8  2  0
  8  9  1  0
  9 10  1  0
 10 11  2  0
 11 12  1  0
 12 13  2  0
 13 14  1  0
 13 15  1  0
 15 16  1  0
 16 17  1  0
 17 18  2  0
 18 19  1  0
 19 20  2  0
 20 21  1  0
 21 22  2  0
 22 23  1  0
 23 24  2  0
 23 25  2  0
 23 26  1  0
 26 27  1  0
 26 28  1  0
 26 29  1  0
 15 30  2  0
  5 31  1  0
 31 32  1  0
 32 33  1  0
 33 34  1  0
 34 35  1  0
 35 36  1  0
 34 37  1  0
 37 38  1  0
 37 39  2  0
  8  3  1  0
 30 10  1  0
 36 31  1  0
 22 17  1  0
  1 40  1  0
  1 41  1  0
  1 42  1  0
  4 43  1  0
  6 44  1  0
  7 45  1  0
  9 46  1  0
 12 47  1  0
 16 48  1  0
 18 49  1  0
 19 50  1  0
 20 51  1  0
 21 52  1  0
 27 53  1  0
 27 54  1  0
 27 55  1  0
 28 56  1  0
 28 57  1  0
 28 58  1  0
 29 59  1  0
 29 60  1  0
 29 61  1  0
 32 62  1  0
 32 63  1  0
 33 64  1  0
 33 65  1  0
 35 66  1  0
 35 67  1  0
 36 68  1  0
 36 69  1  0
 38 70  1  0
 38 71  1  0
 38 72  1  0
M  END
$$$$
[H]c1nc(N([H])c2c([H])c([H])c(N3C([H])([H])C([H])([H])C([H])([H])[C@@]([H])(N4C([H])([H])C([H])([H])C([H])([H])C4([H])[H])C3([H])[H])c([H])c2OC([H])([H])[H])nc(N([H])c2c([H])c([H])c([H])c([H])c2S(=O)(=O)C([H])(C([H])([H])[H])C([H])([H])[H])c1Cl
     RDKit          3D

 77 81  0  0  0  0  0  0  0  0999 V2000
   -0.9102   -4.1833   -1.6766 C   0  0  0  0  0  0  0  0  0  0  0  0
   -0.3170   -2.9944   -1.1972 O   0  0  0  0  0  0  0  0  0  0  0  0
   -1.1044   -1.8529   -1.0106 C   0  0  0  0  0  0  0  0  0  0  0  0
   -2.4334   -1.9039   -1.2936 C   0  0  0  0  0  0  0  0  0  0  0  0
   -3.3005   -0.8136   -1.1383 C   0  0  0  0  0  0  0  0  0  0  0  0
   -2.7347    0.3369   -0.6762 C   0  0  0  0  0  0  0  0  0  0  0  0
   -1.3703    0.3964   -0.3835 C   0  0  0  0  0  0  0  0  0  0  0  0
   -0.5153   -0.6564   -0.5300 C   0  0  0  0  0  0  0  0  0  0  0  0
    0.8620   -0.6931   -0.2657 N   0  0  0  0  0  0  0  0  0  0  0  0
    1.6608    0.3650    0.2192 C   0  0  0  0  0  0  0  0  0  0  0  0
    1.2588    1.5964    0.5181 N   0  0  0  0  0  0  0  0  0  0  0  0
    2.0473    2.5771    0.9751 C   0  0  0  0  0  0  0  0  0  0  0  0
    3.3932    2.3206    1.1619 C   0  0  0  0  0  0  0  0  0  0  0  0
    4.5008    3.5245    1.7502 Cl  0  0  0  0  0  0  0  0  0  0  0  0
    3.8757    1.0367    0.8628 C   0  0  0  0  0  0  0  0  0  0  0  0
    5.2449    0.7886    1.0429 N   0  0  0  0  0  0  0  0  0  0  0  0
    6.0116   -0.3662    0.8487 C   0  0  0  0  0  0  0  0  0  0  0  0
    5.4498   -1.5726    0.5590 C   0  0  0  0  0  0  0  0  0  0  0  0
    6.1734   -2.7611    0.3941 C   0  0  0  0  0  0  0  0  0  0  0  0
    7.5368   -2.6689    0.5410 C   0  0  0  0  0  0  0  0  0  0  0  0
    8.1213   -1.4616    0.8328 C   0  0  0  0  0  0  0  0  0  0  0  0
    7.3975   -0.3006    0.9916 C   0  0  0  0  0  0  0  0  0  0  0  0
    8.2484    1.1935    1.3266 S   0  0  0  0  0  0  0  0  0  0  0  0
    7.8779    1.8003    2.6373 O   0  0  0  0  0  0  0  0  0  0  0  0
    9.7380    0.8758    1.4379 O   0  0  0  0  0  0  0  0  0  0  0  0
    8.0888    2.3932    0.0614 C   0  0  0  0  0  0  0  0  0  0  0  0
    8.7239    1.8995   -1.2307 C   0  0  0  0  0  0  0  0  0  0  0  0
    8.8559    3.6355    0.5312 C   0  0  0  0  0  0  0  0  0  0  0  0
    2.9918    0.1403    0.4130 N   0  0  0  0  0  0  0  0  0  0  0  0
   -4.6710   -0.9324   -1.4461 N   0  0  0  0  0  0  0  0  0  0  0  0
   -5.1929   -2.2271   -1.8346 C   0  0  0  0  0  0  0  0  0  0  0  0
   -6.7097   -2.2511   -1.7568 C   0  0  0  0  0  0  0  0  0  0  0  0
   -7.1035   -1.5779   -0.4597 C   0  0  0  0  0  0  0  0  0  0  0  0
   -6.7573   -0.1003   -0.4684 C   0  0  2  0  0  0  0  0  0  0  0  0
   -5.6040    0.1529   -1.4055 C   0  0  0  0  0  0  0  0  0  0  0  0
   -6.5100    0.3097    0.8743 N   0  0  0  0  0  0  0  0  0  0  0  0
   -7.7342    0.1258    1.6346 C   0  0  0  0  0  0  0  0  0  0  0  0
   -8.6085    1.2646    1.0985 C   0  0  0  0  0  0  0  0  0  0  0  0
   -7.6232    2.3134    0.6036 C   0  0  0  0  0  0  0  0  0  0  0  0
   -6.3070    1.7324    1.0222 C   0  0  0  0  0  0  0  0  0  0  0  0
   -0.2062   -5.0202   -1.6397 H   0  0  0  0  0  0  0  0  0  0  0  0
   -1.3733   -4.0325   -2.6683 H   0  0  0  0  0  0  0  0  0  0  0  0
   -1.7197   -4.4394   -0.9322 H   0  0  0  0  0  0  0  0  0  0  0  0
   -2.8337   -2.8478   -1.6603 H   0  0  0  0  0  0  0  0  0  0  0  0
   -3.3574    1.2308   -0.5294 H   0  0  0  0  0  0  0  0  0  0  0  0
   -0.9984    1.3351   -0.0247 H   0  0  0  0  0  0  0  0  0  0  0  0
    1.3967   -1.6086   -0.4403 H   0  0  0  0  0  0  0  0  0  0  0  0
    1.6767    3.5733    1.2077 H   0  0  0  0  0  0  0  0  0  0  0  0
    5.8060    1.6272    1.4062 H   0  0  0  0  0  0  0  0  0  0  0  0
    4.3749   -1.7410    0.4315 H   0  0  0  0  0  0  0  0  0  0  0  0
    5.6965   -3.7026    0.1644 H   0  0  0  0  0  0  0  0  0  0  0  0
    8.1525   -3.5537    0.4255 H   0  0  0  0  0  0  0  0  0  0  0  0
    9.2226   -1.4187    0.9460 H   0  0  0  0  0  0  0  0  0  0  0  0
    7.0878    2.7325   -0.1791 H   0  0  0  0  0  0  0  0  0  0  0  0
    9.7902    1.6846   -1.0153 H   0  0  0  0  0  0  0  0  0  0  0  0
    8.5801    2.6983   -1.9824 H   0  0  0  0  0  0  0  0  0  0  0  0
    8.1451    1.0041   -1.5338 H   0  0  0  0  0  0  0  0  0  0  0  0
    8.9921    4.3403   -0.3136 H   0  0  0  0  0  0  0  0  0  0  0  0
    9.7934    3.2876    0.9713 H   0  0  0  0  0  0  0  0  0  0  0  0
    8.2539    4.0900    1.3406 H   0  0  0  0  0  0  0  0  0  0  0  0
   -4.9506   -2.4069   -2.9220 H   0  0  0  0  0  0  0  0  0  0  0  0
   -4.8139   -3.0624   -1.2479 H   0  0  0  0  0  0  0  0  0  0  0  0
   -7.0203   -3.2992   -1.7030 H   0  0  0  0  0  0  0  0  0  0  0  0
   -7.1300   -1.6902   -2.6101 H   0  0  0  0  0  0  0  0  0  0  0  0
   -8.2116   -1.7422   -0.3652 H   0  0  0  0  0  0  0  0  0  0  0  0
   -6.5517   -2.0952    0.3520 H   0  0  0  0  0  0  0  0  0  0  0  0
   -7.6362    0.4485   -0.8593 H   0  0  0  0  0  0  0  0  0  0  0  0
   -5.2069    1.1473   -1.2571 H   0  0  0  0  0  0  0  0  0  0  0  0
   -6.0708    0.1772   -2.4406 H   0  0  0  0  0  0  0  0  0  0  0  0
   -7.5684    0.2842    2.7229 H   0  0  0  0  0  0  0  0  0  0  0  0
   -8.2498   -0.8147    1.4452 H   0  0  0  0  0  0  0  0  0  0  0  0
   -9.2597    0.9190    0.2778 H   0  0  0  0  0  0  0  0  0  0  0  0
   -9.2018    1.6565    1.9506 H   0  0  0  0  0  0  0  0  0  0  0  0
   -7.8528    3.2747    1.1483 H   0  0  0  0  0  0  0  0  0  0  0  0
   -7.6593    2.4514   -0.4879 H   0  0  0  0  0  0  0  0  0  0  0  0
   -6.2107    1.9215    2.1303 H   0  0  0  0  0  0  0  0  0  0  0  0
   -5.4367    2.1298    0.5131 H   0  0  0  0  0  0  0  0  0  0  0  0
  1  2  1  0
  2  3  1  0
  3  4  2  0
  4  5  1  0
  5  6  2  0
  6  7  1  0
  7  8  2  0
  8  9  1  0
  9 10  1  0
 10 11  2  0
 11 12  1  0
 12 13  2  0
 13 14  1  0
 13 15  1  0
 15 16  1  0
 16 17  1  0
 17 18  2  0
 18 19  1  0
 19 20  2  0
 20 21  1  0
 21 22  2  0
 22 23  1  0
 23 24  2  0
 23 25  2  0
 23 26  1  0
 26 27  1  0
 26 28  1  0
 15 29  2  0
  5 30  1  0
 30 31  1  0
 31 32  1  0
 32 33  1  0
 33 34  1  0
 34 35  1  0
 34 36  1  0
 36 37  1  0
 37 38  1  0
 38 39  1  0
 39 40  1  0
  8  3  1  0
 29 10  1  0
 35 30  1  0
 40 36  1  0
 22 17  1  0
  1 41  1  0
  1 42  1  0
  1 43  1  0
  4 44  1  0
  6 45  1  0
  7 46  1  0
  9 47  1  0
 12 48  1  0
 16 49  1  0
 18 50  1  0
 19 51  1  0
 20 52  1  0
 21 53  1  0
 26 54  1  0
 27 55  1  0
 27 56  1  0
 27 57  1  0
 28 58  1  0
 28 59  1  0
 28 60  1  0
 31 61  1  0
 31 62  1  0
 32 63  1  0
 32 64  1  0
 33 65  1  0
 33 66  1  0
 34 67  1  6
 35 68  1  0
 35 69  1  0
 37 70  1  0
 37 71  1  0
 38 72  1  0
 38 73  1  0
 39 74  1  0
 39 75  1  0
 40 76  1  0
 40 77  1  0
M  END
$$$$
[H]c1c([H])c([H])c(C(=O)[C@@]([H])(N([H])C(=O)C(=O)[C@@]([H])(N([H])C(=O)[C@@]([H])(N([H])C(=O)[C@@]([H])(N([H])C(=O)[C@@]([H])(N([H])C(=O)C(C([H])([H])[H])(C([H])([H])[H])C([H])([H])[H])C([H])([H])C([H])(C([H])([H])[H])C([H])([H])[H])C([H])(C([H])([H])[H])C([H])([H])[H])C([H])(C([H])([H])[H])C([H])([H])[H])C([H])(C([H])([H])[H])C([H])([H])[H])C([H])(C([H])([H])[H])C([H])([H])[H])c([H])c1[H]
     RDKit          3D

111111  0  0  0  0  0  0  0  0999 V2000
   -7.2415    2.4564    0.9103 C   0  0  0  0  0  0  0  0  0  0  0  0
   -6.4560    1.4701    1.7549 C   0  0  0  0  0  0  0  0  0  0  0  0
   -6.9675    1.6659    3.1922 C   0  0  0  0  0  0  0  0  0  0  0  0
   -6.7268    0.0605    1.3941 C   0  0  0  0  0  0  0  0  0  0  0  0
   -6.3905   -0.3258   -0.0382 C   0  0  2  0  0  0  0  0  0  0  0  0
   -6.7853   -1.7600   -0.1292 N   0  0  0  0  0  0  0  0  0  0  0  0
   -7.8164   -2.2164   -0.9538 C   0  0  0  0  0  0  0  0  0  0  0  0
   -8.4790   -1.4245   -1.6800 O   0  0  0  0  0  0  0  0  0  0  0  0
   -8.1365   -3.6633   -0.9716 C   0  0  0  0  0  0  0  0  0  0  0  0
   -9.2473   -3.9890   -1.9334 C   0  0  0  0  0  0  0  0  0  0  0  0
   -6.8994   -4.4483   -1.4209 C   0  0  0  0  0  0  0  0  0  0  0  0
   -8.5056   -4.0313    0.4566 C   0  0  0  0  0  0  0  0  0  0  0  0
   -4.9527   -0.3171   -0.3058 C   0  0  0  0  0  0  0  0  0  0  0  0
   -4.3488   -1.4462   -0.4252 O   0  0  0  0  0  0  0  0  0  0  0  0
   -4.1106    0.8091   -0.4627 N   0  0  0  0  0  0  0  0  0  0  0  0
   -2.7109    0.7271   -0.7344 C   0  0  1  0  0  0  0  0  0  0  0  0
   -2.5089    1.2730   -2.1418 C   0  0  0  0  0  0  0  0  0  0  0  0
   -2.9789    2.7034   -2.2833 C   0  0  0  0  0  0  0  0  0  0  0  0
   -3.2077    0.3482   -3.1109 C   0  0  0  0  0  0  0  0  0  0  0  0
   -1.9397    1.5513    0.2567 C   0  0  0  0  0  0  0  0  0  0  0  0
   -2.6366    2.1383    1.1066 O   0  0  0  0  0  0  0  0  0  0  0  0
   -0.5602    1.6407    0.2098 N   0  0  0  0  0  0  0  0  0  0  0  0
    0.4414    2.3382    0.9406 C   0  0  1  0  0  0  0  0  0  0  0  0
   -0.0768    3.3408    1.9277 C   0  0  0  0  0  0  0  0  0  0  0  0
   -0.8255    4.4492    1.1868 C   0  0  0  0  0  0  0  0  0  0  0  0
    0.9310    3.9511    2.8338 C   0  0  0  0  0  0  0  0  0  0  0  0
    1.5141    1.4510    1.4402 C   0  0  0  0  0  0  0  0  0  0  0  0
    1.2288    0.3562    1.9813 O   0  0  0  0  0  0  0  0  0  0  0  0
    2.8811    1.8075    1.3129 N   0  0  0  0  0  0  0  0  0  0  0  0
    4.0227    1.0165    1.7364 C   0  0  1  0  0  0  0  0  0  0  0  0
    3.9984    0.6191    3.1686 C   0  0  0  0  0  0  0  0  0  0  0  0
    3.9771    1.8816    4.0569 C   0  0  0  0  0  0  0  0  0  0  0  0
    5.1791   -0.1851    3.6402 C   0  0  0  0  0  0  0  0  0  0  0  0
    4.1866   -0.0402    0.7443 C   0  0  0  0  0  0  0  0  0  0  0  0
    3.1783   -0.7011    0.2919 O   0  0  0  0  0  0  0  0  0  0  0  0
    5.4763   -0.3928    0.2153 C   0  0  0  0  0  0  0  0  0  0  0  0
    6.5197    0.2191    0.5705 O   0  0  0  0  0  0  0  0  0  0  0  0
    5.5477   -1.4637   -0.7405 N   0  0  0  0  0  0  0  0  0  0  0  0
    6.9213   -1.7304   -1.2491 C   0  0  1  0  0  0  0  0  0  0  0  0
    7.1810   -3.1635   -0.9218 C   0  0  0  0  0  0  0  0  0  0  0  0
    8.5439   -3.6511   -1.3536 C   0  0  0  0  0  0  0  0  0  0  0  0
    6.9621   -3.4236    0.5532 C   0  0  0  0  0  0  0  0  0  0  0  0
    6.9588   -1.3996   -2.6823 C   0  0  0  0  0  0  0  0  0  0  0  0
    5.9687   -1.8145   -3.3766 O   0  0  0  0  0  0  0  0  0  0  0  0
    7.9971   -0.6535   -3.3348 C   0  0  0  0  0  0  0  0  0  0  0  0
    7.9128   -0.3679   -4.6880 C   0  0  0  0  0  0  0  0  0  0  0  0
    8.8725    0.3981   -5.3491 C   0  0  0  0  0  0  0  0  0  0  0  0
    9.9136    0.8630   -4.6048 C   0  0  0  0  0  0  0  0  0  0  0  0
   10.0755    0.6264   -3.2614 C   0  0  0  0  0  0  0  0  0  0  0  0
    9.0765   -0.1492   -2.6592 C   0  0  0  0  0  0  0  0  0  0  0  0
   -7.1472    3.4528    1.3848 H   0  0  0  0  0  0  0  0  0  0  0  0
   -8.3165    2.1947    0.9020 H   0  0  0  0  0  0  0  0  0  0  0  0
   -6.8925    2.4762   -0.1516 H   0  0  0  0  0  0  0  0  0  0  0  0
   -5.3839    1.7260    1.8095 H   0  0  0  0  0  0  0  0  0  0  0  0
   -7.9974    2.0372    3.1516 H   0  0  0  0  0  0  0  0  0  0  0  0
   -6.8879    0.6906    3.7253 H   0  0  0  0  0  0  0  0  0  0  0  0
   -6.3079    2.3637    3.7495 H   0  0  0  0  0  0  0  0  0  0  0  0
   -7.7414   -0.2416    1.6726 H   0  0  0  0  0  0  0  0  0  0  0  0
   -6.0472   -0.5743    2.0385 H   0  0  0  0  0  0  0  0  0  0  0  0
   -7.0256    0.2027   -0.7452 H   0  0  0  0  0  0  0  0  0  0  0  0
   -6.2385   -2.4055    0.4578 H   0  0  0  0  0  0  0  0  0  0  0  0
  -10.1114   -4.4115   -1.3859 H   0  0  0  0  0  0  0  0  0  0  0  0
   -8.9064   -4.6975   -2.7137 H   0  0  0  0  0  0  0  0  0  0  0  0
   -9.5002   -3.0444   -2.4718 H   0  0  0  0  0  0  0  0  0  0  0  0
   -7.2318   -5.4993   -1.5078 H   0  0  0  0  0  0  0  0  0  0  0  0
   -6.0503   -4.2862   -0.7455 H   0  0  0  0  0  0  0  0  0  0  0  0
   -6.7126   -4.0915   -2.4685 H   0  0  0  0  0  0  0  0  0  0  0  0
   -9.0330   -3.1681    0.9320 H   0  0  0  0  0  0  0  0  0  0  0  0
   -9.2248   -4.8886    0.4898 H   0  0  0  0  0  0  0  0  0  0  0  0
   -7.5966   -4.3341    0.9915 H   0  0  0  0  0  0  0  0  0  0  0  0
   -4.5226    1.7566   -0.3758 H   0  0  0  0  0  0  0  0  0  0  0  0
   -2.3790   -0.3070   -0.6542 H   0  0  0  0  0  0  0  0  0  0  0  0
   -1.4339    1.2869   -2.4165 H   0  0  0  0  0  0  0  0  0  0  0  0
   -2.9126    3.0114   -3.3515 H   0  0  0  0  0  0  0  0  0  0  0  0
   -2.3898    3.3670   -1.6453 H   0  0  0  0  0  0  0  0  0  0  0  0
   -4.0668    2.8185   -2.0356 H   0  0  0  0  0  0  0  0  0  0  0  0
   -2.8266   -0.6752   -2.8952 H   0  0  0  0  0  0  0  0  0  0  0  0
   -4.2937    0.3139   -2.9295 H   0  0  0  0  0  0  0  0  0  0  0  0
   -2.9264    0.5720   -4.1614 H   0  0  0  0  0  0  0  0  0  0  0  0
   -0.1201    1.0012   -0.5823 H   0  0  0  0  0  0  0  0  0  0  0  0
    0.9363    3.0128    0.1200 H   0  0  0  0  0  0  0  0  0  0  0  0
   -0.8541    2.8687    2.6072 H   0  0  0  0  0  0  0  0  0  0  0  0
   -1.0817    4.2115    0.1619 H   0  0  0  0  0  0  0  0  0  0  0  0
   -1.6733    4.7558    1.8193 H   0  0  0  0  0  0  0  0  0  0  0  0
   -0.1328    5.3514    1.2131 H   0  0  0  0  0  0  0  0  0  0  0  0
    1.8539    4.1681    2.2704 H   0  0  0  0  0  0  0  0  0  0  0  0
    0.5593    4.9573    3.1614 H   0  0  0  0  0  0  0  0  0  0  0  0
    1.1953    3.3180    3.6934 H   0  0  0  0  0  0  0  0  0  0  0  0
    3.0710    2.7480    0.8415 H   0  0  0  0  0  0  0  0  0  0  0  0
    4.9245    1.7213    1.6546 H   0  0  0  0  0  0  0  0  0  0  0  0
    3.0921    0.0753    3.4201 H   0  0  0  0  0  0  0  0  0  0  0  0
    3.0028    2.0340    4.5188 H   0  0  0  0  0  0  0  0  0  0  0  0
    4.2814    2.7588    3.4766 H   0  0  0  0  0  0  0  0  0  0  0  0
    4.7131    1.7506    4.9050 H   0  0  0  0  0  0  0  0  0  0  0  0
    5.1541   -0.0956    4.7788 H   0  0  0  0  0  0  0  0  0  0  0  0
    6.1607    0.2286    3.3770 H   0  0  0  0  0  0  0  0  0  0  0  0
    5.0674   -1.2791    3.4807 H   0  0  0  0  0  0  0  0  0  0  0  0
    4.7502   -2.0200   -1.0738 H   0  0  0  0  0  0  0  0  0  0  0  0
    7.6392   -1.1015   -0.6967 H   0  0  0  0  0  0  0  0  0  0  0  0
    6.4412   -3.8293   -1.4523 H   0  0  0  0  0  0  0  0  0  0  0  0
    8.8138   -3.2293   -2.3240 H   0  0  0  0  0  0  0  0  0  0  0  0
    9.2526   -3.2643   -0.5794 H   0  0  0  0  0  0  0  0  0  0  0  0
    8.6178   -4.7563   -1.3177 H   0  0  0  0  0  0  0  0  0  0  0  0
    6.1840   -2.8211    1.0161 H   0  0  0  0  0  0  0  0  0  0  0  0
    7.9140   -3.1653    1.1056 H   0  0  0  0  0  0  0  0  0  0  0  0
    6.6957   -4.4845    0.6757 H   0  0  0  0  0  0  0  0  0  0  0  0
    7.0889   -0.7371   -5.2548 H   0  0  0  0  0  0  0  0  0  0  0  0
    8.8170    0.6309   -6.4147 H   0  0  0  0  0  0  0  0  0  0  0  0
   10.6613    1.4633   -5.1424 H   0  0  0  0  0  0  0  0  0  0  0  0
   10.9061    1.0022   -2.6821 H   0  0  0  0  0  0  0  0  0  0  0  0
    9.2164   -0.3241   -1.6178 H   0  0  0  0  0  0  0  0  0  0  0  0
  1  2  1  0
  2  3  1  0
  2  4  1  0
  4  5  1  0
  5  6  1  0
  6  7  1  0
  7  8  2  0
  7  9  1  0
  9 10  1  0
  9 11  1  0
  9 12  1  0
  5 13  1  0
 13 14  2  0
 13 15  1  0
 15 16  1  0
 16 17  1  0
 17 18  1  0
 17 19  1  0
 16 20  1  0
 20 21  2  0
 20 22  1  0
 22 23  1  0
 23 24  1  0
 24 25  1  0
 24 26  1  0
 23 27  1  0
 27 28  2  0
 27 29  1  0
 29 30  1  0
 30 31  1  0
 31 32  1  0
 31 33  1  0
 30 34  1  0
 34 35  2  0
 34 36  1  0
 36 37  2  0
 36 38  1  0
 38 39  1  0
 39 40  1  0
 40 41  1  0
 40 42  1  0
 39 43  1  0
 43 44  2  0
 43 45  1  0
 45 46  2  0
 46 47  1  0
 47 48  2  0
 48 49  1  0
 49 50  2  0
 50 45  1  0
  1 51  1  0
  1 52  1  0
  1 53  1  0
  2 54  1  0
  3 55  1  0
  3 56  1  0
  3 57  1  0
  4 58  1  0
  4 59  1  0
  5 60  1  6
  6 61  1  0
 10 62  1  0
 10 63  1  0
 10 64  1  0
 11 65  1  0
 11 66  1  0
 11 67  1  0
 12 68  1  0
 12 69  1  0
 12 70  1  0
 15 71  1  0
 16 72  1  6
 17 73  1  0
 18 74  1  0
 18 75  1  0
 18 76  1  0
 19 77  1  0
 19 78  1  0
 19 79  1  0
 22 80  1  0
 23 81  1  6
 24 82  1  0
 25 83  1  0
 25 84  1  0
 25 85  1  0
 26 86  1  0
 26 87  1  0
 26 88  1  0
 29 89  1  0
 30 90  1  1
 31 91  1  0
 32 92  1  0
 32 93  1  0
 32 94  1  0
 33 95  1  0
 33 96  1  0
 33 97  1  0
 38 98  1  0
 39 99  1  1
 40100  1  0
 41101  1  0
 41102  1  0
 41103  1  0
 42104  1  0
 42105  1  0
 42106  1  0
 46107  1  0
 47108  1  0
 48109  1  0
 49110  1  0
 50111  1  0
M  END
$$$$
[H]OC([H])([H])[C@@]1([H])O[C@@]([H])(n2c([H])nc3c(N([H])[H])nc([H])nc32)[C@]([H])(O[H])[C@@]([H])(O[H])[C@]1([H])O[H]
     RDKit          3D

 36 38  0  0  0  0  0  0  0  0999 V2000
    5.6762    0.6373   -0.0984 N   0  0  0  0  0  0  0  0  0  0  0  0
    4.4614   -0.0735   -0.2410 C   0  0  0  0  0  0  0  0  0  0  0  0
    4.4174   -1.3991   -0.5159 N   0  0  0  0  0  0  0  0  0  0  0  0
    3.2273   -2.0222   -0.6404 C   0  0  0  0  0  0  0  0  0  0  0  0
    2.0491   -1.3692   -0.5001 N   0  0  0  0  0  0  0  0  0  0  0  0
    2.0939   -0.0649   -0.2296 C   0  0  0  0  0  0  0  0  0  0  0  0
    1.1125    0.8312   -0.0393 N   0  0  0  0  0  0  0  0  0  0  0  0
    1.7023    2.0248    0.2062 C   0  0  0  0  0  0  0  0  0  0  0  0
    3.0201    1.8796    0.1705 N   0  0  0  0  0  0  0  0  0  0  0  0
    3.2776    0.5921   -0.0980 C   0  0  0  0  0  0  0  0  0  0  0  0
   -0.2985    0.6725   -0.0656 C   0  0  2  0  0  0  0  0  0  0  0  0
   -0.7585    0.5044    1.2336 O   0  0  0  0  0  0  0  0  0  0  0  0
   -2.1154    0.5067    1.3676 C   0  0  2  0  0  0  0  0  0  0  0  0
   -2.5147   -0.6883    2.2327 C   0  0  0  0  0  0  0  0  0  0  0  0
   -3.9058   -0.6816    2.3671 O   0  0  0  0  0  0  0  0  0  0  0  0
   -2.8997    0.4778    0.1152 C   0  0  1  0  0  0  0  0  0  0  0  0
   -3.2232    1.7974   -0.2777 O   0  0  0  0  0  0  0  0  0  0  0  0
   -2.3003   -0.3069   -1.0041 C   0  0  2  0  0  0  0  0  0  0  0  0
   -2.9314   -1.5465   -1.1518 O   0  0  0  0  0  0  0  0  0  0  0  0
   -0.7981   -0.4732   -0.8868 C   0  0  1  0  0  0  0  0  0  0  0  0
   -0.2921   -0.4917   -2.1830 O   0  0  0  0  0  0  0  0  0  0  0  0
    5.7344    1.6565   -0.3164 H   0  0  0  0  0  0  0  0  0  0  0  0
    6.5712    0.1897    0.2283 H   0  0  0  0  0  0  0  0  0  0  0  0
    3.2669   -3.0810   -0.8604 H   0  0  0  0  0  0  0  0  0  0  0  0
    1.2201    2.9880    0.4083 H   0  0  0  0  0  0  0  0  0  0  0  0
   -0.7606    1.5927   -0.4740 H   0  0  0  0  0  0  0  0  0  0  0  0
   -2.4173    1.4339    1.9389 H   0  0  0  0  0  0  0  0  0  0  0  0
   -2.1026   -0.5809    3.2619 H   0  0  0  0  0  0  0  0  0  0  0  0
   -2.1549   -1.6249    1.7576 H   0  0  0  0  0  0  0  0  0  0  0  0
   -4.2953   -1.3861    1.8033 H   0  0  0  0  0  0  0  0  0  0  0  0
   -3.8999    0.0065    0.3480 H   0  0  0  0  0  0  0  0  0  0  0  0
   -3.3079    2.3124    0.5561 H   0  0  0  0  0  0  0  0  0  0  0  0
   -2.5188    0.2545   -1.9503 H   0  0  0  0  0  0  0  0  0  0  0  0
   -3.2383   -1.7112   -2.0787 H   0  0  0  0  0  0  0  0  0  0  0  0
   -0.6169   -1.4679   -0.4301 H   0  0  0  0  0  0  0  0  0  0  0  0
   -0.4804   -1.3889   -2.5542 H   0  0  0  0  0  0  0  0  0  0  0  0
  1  2  1  0
  2  3  2  0
  3  4  1  0
  4  5  2  0
  5  6  1  0
  6  7  1  0
  7  8  1  0
  8  9  2  0
  9 10  1  0
  7 11  1  0
 11 12  1  0
 12 13  1  0
 13 14  1  0
 14 15  1  0
 13 16  1  0
 16 17  1  0
 16 18  1  0
 18 19  1  0
 18 20  1  0
 20 21  1  0
 10  2  1  0
 20 11  1  0
 10  6  2  0
  1 22  1  0
  1 23  1  0
  4 24  1  0
  8 25  1  0
 11 26  1  6
 13 27  1  1
 14 28  1  0
 14 29  1  0
 15 30  1  0
 16 31  1  1
 17 32  1  0
 18 33  1  6
 19 34  1  0
 20 35  1  1
 21 36  1  0
M  END
$$$$
[H]N=C(N([H])[H])N([H])C([H])([H])C([H])([H])C([H])([H])[C@@]1([H])C(=O)c2c([H])c([H])c([H])c([H])c2[C@]([H])(N([H])C(=O)OC(C([H])([H])[H])(C([H])([H])[H])C([H])([H])[H])[C@@]([H])(C([H])([H])C([H])([H])C([H])([H])N=C(N([H])[H])N([H])[H])C(=O)N([H])[C@@]([H])(C([H])([H])C([H])([H])C([H])([H])N([H])C(=N[H])N([H])[H])C(=O)N([H])[C@@]([H])(C([H])([H])C([H])([H])C([H])([H])N([H])C(=N[H])N([H])[H])C(=O)N1[H]
     RDKit          3D

120121  0  0  0  0  0  0  0  0999 V2000
   -4.8213    0.6158    3.7291 C   0  0  0  0  0  0  0  0  0  0  0  0
   -3.3436    0.5266    3.5259 C   0  0  0  0  0  0  0  0  0  0  0  0
   -2.8606   -0.8470    3.9427 C   0  0  0  0  0  0  0  0  0  0  0  0
   -2.7385    1.4850    4.5791 C   0  0  0  0  0  0  0  0  0  0  0  0
   -2.8605    0.9599    2.2929 O   0  0  0  0  0  0  0  0  0  0  0  0
   -3.3276    0.3513    1.0714 C   0  0  0  0  0  0  0  0  0  0  0  0
   -4.1669   -0.5493    1.3497 O   0  0  0  0  0  0  0  0  0  0  0  0
   -2.8630    0.7739   -0.1369 N   0  0  0  0  0  0  0  0  0  0  0  0
   -2.4015    1.1907   -1.4005 C   0  0  2  0  0  0  0  0  0  0  0  0
   -1.7337    0.0900   -2.1718 C   0  0  1  0  0  0  0  0  0  0  0  0
   -2.7060   -0.7452   -3.0233 C   0  0  0  0  0  0  0  0  0  0  0  0
   -3.4499   -0.0643   -4.0747 C   0  0  0  0  0  0  0  0  0  0  0  0
   -4.3894   -0.9690   -4.8223 C   0  0  0  0  0  0  0  0  0  0  0  0
   -3.8015   -2.0724   -5.5230 N   0  0  0  0  0  0  0  0  0  0  0  0
   -4.4416   -2.6025   -6.5443 C   0  0  0  0  0  0  0  0  0  0  0  0
   -5.6766   -2.0463   -6.8884 N   0  0  0  0  0  0  0  0  0  0  0  0
   -3.8773   -3.6727   -7.2333 N   0  0  0  0  0  0  0  0  0  0  0  0
   -0.4646    0.2491   -2.8018 C   0  0  0  0  0  0  0  0  0  0  0  0
   -0.0357    1.2915   -3.4150 O   0  0  0  0  0  0  0  0  0  0  0  0
    0.5187   -0.7970   -2.8135 N   0  0  0  0  0  0  0  0  0  0  0  0
    0.9090   -1.6034   -1.6827 C   0  0  1  0  0  0  0  0  0  0  0  0
    0.1425   -2.8755   -1.6705 C   0  0  0  0  0  0  0  0  0  0  0  0
    0.5622   -3.7298   -0.4854 C   0  0  0  0  0  0  0  0  0  0  0  0
   -0.4206   -4.9039   -0.4878 C   0  0  0  0  0  0  0  0  0  0  0  0
   -1.7300   -4.3119   -0.2492 N   0  0  0  0  0  0  0  0  0  0  0  0
   -2.8697   -5.1349   -0.2284 C   0  0  0  0  0  0  0  0  0  0  0  0
   -4.0084   -4.7795   -0.9892 N   0  0  0  0  0  0  0  0  0  0  0  0
   -2.8560   -6.1967    0.4948 N   0  0  0  0  0  0  0  0  0  0  0  0
    2.3770   -1.8453   -1.8006 C   0  0  0  0  0  0  0  0  0  0  0  0
    2.7186   -2.5158   -2.8246 O   0  0  0  0  0  0  0  0  0  0  0  0
    3.3461   -1.3921   -0.8814 N   0  0  0  0  0  0  0  0  0  0  0  0
    3.1317   -0.3332    0.0993 C   0  0  1  0  0  0  0  0  0  0  0  0
    4.4572   -0.2135    0.8761 C   0  0  0  0  0  0  0  0  0  0  0  0
    4.7968   -1.4823    1.5722 C   0  0  0  0  0  0  0  0  0  0  0  0
    6.1243   -1.3036    2.3226 C   0  0  0  0  0  0  0  0  0  0  0  0
    6.4885   -2.5284    3.0037 N   0  0  0  0  0  0  0  0  0  0  0  0
    7.6762   -2.5798    3.7585 C   0  0  0  0  0  0  0  0  0  0  0  0
    7.6792   -2.8521    5.1321 N   0  0  0  0  0  0  0  0  0  0  0  0
    8.8409   -2.3635    3.1789 N   0  0  0  0  0  0  0  0  0  0  0  0
    2.8407    0.9747   -0.5144 C   0  0  0  0  0  0  0  0  0  0  0  0
    3.8090    1.3883   -1.2829 O   0  0  0  0  0  0  0  0  0  0  0  0
    1.7500    1.7954   -0.4061 N   0  0  0  0  0  0  0  0  0  0  0  0
    0.7648    1.7450    0.6493 C   0  0  1  0  0  0  0  0  0  0  0  0
    1.6051    2.0397    1.9105 C   0  0  0  0  0  0  0  0  0  0  0  0
    2.2982    3.3595    1.8135 C   0  0  0  0  0  0  0  0  0  0  0  0
    3.2318    3.6738    2.9350 C   0  0  0  0  0  0  0  0  0  0  0  0
    3.8105    4.9843    2.6841 N   0  0  0  0  0  0  0  0  0  0  0  0
    2.9256    6.1363    2.8226 C   0  0  0  0  0  0  0  0  0  0  0  0
    2.5402    6.6095    4.0797 N   0  0  0  0  0  0  0  0  0  0  0  0
    2.5545    6.6543    1.7348 N   0  0  0  0  0  0  0  0  0  0  0  0
   -0.2923    2.7568    0.5246 C   0  0  0  0  0  0  0  0  0  0  0  0
   -0.6220    3.3425    1.6309 O   0  0  0  0  0  0  0  0  0  0  0  0
   -1.0501    3.2472   -0.6193 C   0  0  0  0  0  0  0  0  0  0  0  0
   -0.8030    4.6338   -0.8653 C   0  0  0  0  0  0  0  0  0  0  0  0
   -1.3506    5.2995   -1.9155 C   0  0  0  0  0  0  0  0  0  0  0  0
   -2.1701    4.6517   -2.7856 C   0  0  0  0  0  0  0  0  0  0  0  0
   -2.4227    3.3204   -2.5601 C   0  0  0  0  0  0  0  0  0  0  0  0
   -1.8827    2.5739   -1.4788 C   0  0  0  0  0  0  0  0  0  0  0  0
   -5.3143    0.8799    2.7715 H   0  0  0  0  0  0  0  0  0  0  0  0
   -5.2637   -0.3488    4.0919 H   0  0  0  0  0  0  0  0  0  0  0  0
   -5.1252    1.4028    4.4726 H   0  0  0  0  0  0  0  0  0  0  0  0
   -2.7805   -1.5472    3.0937 H   0  0  0  0  0  0  0  0  0  0  0  0
   -1.8940   -0.7777    4.5073 H   0  0  0  0  0  0  0  0  0  0  0  0
   -3.5967   -1.2839    4.6526 H   0  0  0  0  0  0  0  0  0  0  0  0
   -3.5196    2.2381    4.8736 H   0  0  0  0  0  0  0  0  0  0  0  0
   -2.4971    0.9162    5.4766 H   0  0  0  0  0  0  0  0  0  0  0  0
   -1.8602    2.0058    4.1975 H   0  0  0  0  0  0  0  0  0  0  0  0
   -3.6231   -0.1606   -0.7408 H   0  0  0  0  0  0  0  0  0  0  0  0
   -3.4361    1.2217   -1.9996 H   0  0  0  0  0  0  0  0  0  0  0  0
   -1.5222   -0.6616   -1.3125 H   0  0  0  0  0  0  0  0  0  0  0  0
   -3.3580   -1.2919   -2.3159 H   0  0  0  0  0  0  0  0  0  0  0  0
   -2.1002   -1.5902   -3.5005 H   0  0  0  0  0  0  0  0  0  0  0  0
   -2.8240    0.5430   -4.7777 H   0  0  0  0  0  0  0  0  0  0  0  0
   -4.1322    0.7227   -3.6306 H   0  0  0  0  0  0  0  0  0  0  0  0
   -5.0781   -0.3786   -5.4951 H   0  0  0  0  0  0  0  0  0  0  0  0
   -5.1130   -1.4198   -4.0806 H   0  0  0  0  0  0  0  0  0  0  0  0
   -5.8333   -1.6102   -7.8093 H   0  0  0  0  0  0  0  0  0  0  0  0
   -6.4510   -2.0754   -6.1922 H   0  0  0  0  0  0  0  0  0  0  0  0
   -3.3516   -3.5552   -8.1324 H   0  0  0  0  0  0  0  0  0  0  0  0
   -3.9883   -4.6397   -6.8325 H   0  0  0  0  0  0  0  0  0  0  0  0
    1.0271   -1.0258   -3.7313 H   0  0  0  0  0  0  0  0  0  0  0  0
    0.7896   -1.0423   -0.7080 H   0  0  0  0  0  0  0  0  0  0  0  0
    0.4920   -3.4435   -2.6069 H   0  0  0  0  0  0  0  0  0  0  0  0
   -0.9194   -2.8014   -1.6967 H   0  0  0  0  0  0  0  0  0  0  0  0
    0.4650   -3.1276    0.4220 H   0  0  0  0  0  0  0  0  0  0  0  0
    1.5649   -4.1553   -0.6166 H   0  0  0  0  0  0  0  0  0  0  0  0
   -0.1227   -5.6584    0.2355 H   0  0  0  0  0  0  0  0  0  0  0  0
   -0.4554   -5.3396   -1.5056 H   0  0  0  0  0  0  0  0  0  0  0  0
   -1.8704   -3.2865   -0.0796 H   0  0  0  0  0  0  0  0  0  0  0  0
   -4.7161   -4.1016   -0.6252 H   0  0  0  0  0  0  0  0  0  0  0  0
   -4.1411   -5.1982   -1.9328 H   0  0  0  0  0  0  0  0  0  0  0  0
   -3.7225   -6.7899    0.4906 H   0  0  0  0  0  0  0  0  0  0  0  0
    4.2851   -1.8988   -0.9567 H   0  0  0  0  0  0  0  0  0  0  0  0
    2.3713   -0.6503    0.8466 H   0  0  0  0  0  0  0  0  0  0  0  0
    5.2341    0.0030    0.1316 H   0  0  0  0  0  0  0  0  0  0  0  0
    4.4100    0.6043    1.6201 H   0  0  0  0  0  0  0  0  0  0  0  0
    4.0559   -1.7514    2.3698 H   0  0  0  0  0  0  0  0  0  0  0  0
    4.9428   -2.3420    0.9229 H   0  0  0  0  0  0  0  0  0  0  0  0
    6.9037   -1.0459    1.6042 H   0  0  0  0  0  0  0  0  0  0  0  0
    6.0551   -0.4502    3.0608 H   0  0  0  0  0  0  0  0  0  0  0  0
    5.8768   -3.3562    2.9274 H   0  0  0  0  0  0  0  0  0  0  0  0
    6.7662   -3.1112    5.5982 H   0  0  0  0  0  0  0  0  0  0  0  0
    8.5631   -2.8036    5.6830 H   0  0  0  0  0  0  0  0  0  0  0  0
    8.8058   -2.1573    2.1361 H   0  0  0  0  0  0  0  0  0  0  0  0
    1.5999    2.5498   -1.1662 H   0  0  0  0  0  0  0  0  0  0  0  0
    0.3171    0.7619    0.8086 H   0  0  0  0  0  0  0  0  0  0  0  0
    0.7860    2.2049    2.7009 H   0  0  0  0  0  0  0  0  0  0  0  0
    2.1610    1.2060    2.2842 H   0  0  0  0  0  0  0  0  0  0  0  0
    1.5909    4.2349    1.7362 H   0  0  0  0  0  0  0  0  0  0  0  0
    2.8652    3.4162    0.8368 H   0  0  0  0  0  0  0  0  0  0  0  0
    4.0672    2.9345    3.0212 H   0  0  0  0  0  0  0  0  0  0  0  0
    2.6643    3.7903    3.8940 H   0  0  0  0  0  0  0  0  0  0  0  0
    4.7820    5.1679    2.4182 H   0  0  0  0  0  0  0  0  0  0  0  0
    1.6759    6.2494    4.5562 H   0  0  0  0  0  0  0  0  0  0  0  0
    3.1504    7.3485    4.5368 H   0  0  0  0  0  0  0  0  0  0  0  0
    1.9503    7.4532    1.5602 H   0  0  0  0  0  0  0  0  0  0  0  0
   -0.1919    5.2403   -0.1953 H   0  0  0  0  0  0  0  0  0  0  0  0
   -1.1593    6.3695   -2.1033 H   0  0  0  0  0  0  0  0  0  0  0  0
   -2.6266    5.1545   -3.6479 H   0  0  0  0  0  0  0  0  0  0  0  0
   -3.0920    2.8490   -3.2849 H   0  0  0  0  0  0  0  0  0  0  0  0
  1  2  1  0
  2  3  1  0
  2  4  1  0
  2  5  1  0
  5  6  1  0
  6  7  2  0
  6  8  1  0
  8  9  1  0
  9 10  1  0
 10 11  1  0
 11 12  1  0
 12 13  1  0
 13 14  1  0
 14 15  2  3
 15 16  1  0
 15 17  1  0
 10 18  1  0
 18 19  2  0
 18 20  1  0
 20 21  1  0
 21 22  1  0
 22 23  1  0
 23 24  1  0
 24 25  1  0
 25 26  1  0
 26 27  1  0
 26 28  2  3
 21 29  1  0
 29 30  2  0
 29 31  1  0
 31 32  1  0
 32 33  1  0
 33 34  1  0
 34 35  1  0
 35 36  1  0
 36 37  1  0
 37 38  1  0
 37 39  2  3
 32 40  1  0
 40 41  2  0
 40 42  1  0
 42 43  1  0
 43 44  1  0
 44 45  1  0
 45 46  1  0
 46 47  1  0
 47 48  1  0
 48 49  1  0
 48 50  2  3
 43 51  1  0
 51 52  2  0
 51 53  1  0
 53 54  2  0
 54 55  1  0
 55 56  2  0
 56 57  1  0
 57 58  2  0
 58  9  1  0
 58 53  1  0
  1 59  1  0
  1 60  1  0
  1 61  1  0
  3 62  1  0
  3 63  1  0
  3 64  1  0
  4 65  1  0
  4 66  1  0
  4 67  1  0
  8 68  1  0
  9 69  1  6
 10 70  1  1
 11 71  1  0
 11 72  1  0
 12 73  1  0
 12 74  1  0
 13 75  1  0
 13 76  1  0
 16 77  1  0
 16 78  1  0
 17 79  1  0
 17 80  1  0
 20 81  1  0
 21 82  1  1
 22 83  1  0
 22 84  1  0
 23 85  1  0
 23 86  1  0
 24 87  1  0
 24 88  1  0
 25 89  1  0
 27 90  1  0
 27 91  1  0
 28 92  1  0
 31 93  1  0
 32 94  1  1
 33 95  1  0
 33 96  1  0
 34 97  1  0
 34 98  1  0
 35 99  1  0
 35100  1  0
 36101  1  0
 38102  1  0
 38103  1  0
 39104  1  0
 42105  1  0
 43106  1  1
 44107  1  0
 44108  1  0
 45109  1  0
 45110  1  0
 46111  1  0
 46112  1  0
 47113  1  0
 49114  1  0
 49115  1  0
 50116  1  0
 54117  1  0
 55118  1  0
 56119  1  0
 57120  1  0
M  END
$$$$
[H]OC(=O)[C@@]([H])(N([H])C(=O)[C@@]([H])(N([H])C(=O)[C@@]([H])(N([H])C(=O)C1([H])C([H])([H])C1([H])[H])C([H])([H])C([H])(C([H])([H])[H])C([H])([H])[H])C([H])([H])c1c([H])n([H])c2c([H])c([H])c([H])c([H])c12)C([H])([H])c1c([H])c([H])c([H])c([H])c1[H]
     RDKit          3D

 75 78  0  0  0  0  0  0  0  0999 V2000
   -4.0738   -2.6440    3.4847 C   0  0  0  0  0  0  0  0  0  0  0  0
   -4.4208   -1.4228    2.5927 C   0  0  0  0  0  0  0  0  0  0  0  0
   -5.6613   -1.7077    1.8129 C   0  0  0  0  0  0  0  0  0  0  0  0
   -3.2167   -1.0911    1.7746 C   0  0  0  0  0  0  0  0  0  0  0  0
   -3.1938    0.0085    0.8135 C   0  0  2  0  0  0  0  0  0  0  0  0
   -4.0241    0.0094   -0.3465 N   0  0  0  0  0  0  0  0  0  0  0  0
   -4.7796    0.0136   -1.4050 C   0  0  0  0  0  0  0  0  0  0  0  0
   -4.6233    0.9892   -2.3110 O   0  0  0  0  0  0  0  0  0  0  0  0
   -5.8665   -0.9088   -1.8997 C   0  0  0  0  0  0  0  0  0  0  0  0
   -6.7522   -0.3661   -2.9723 C   0  0  0  0  0  0  0  0  0  0  0  0
   -5.6537   -1.2821   -3.3642 C   0  0  0  0  0  0  0  0  0  0  0  0
   -1.7684   -0.0620    0.2273 C   0  0  0  0  0  0  0  0  0  0  0  0
   -1.5257   -0.9122   -0.6459 O   0  0  0  0  0  0  0  0  0  0  0  0
   -0.7561    0.8361    0.6839 N   0  0  0  0  0  0  0  0  0  0  0  0
    0.5337    0.6551    0.0567 C   0  0  1  0  0  0  0  0  0  0  0  0
    1.4430    1.7544   -0.0846 C   0  0  0  0  0  0  0  0  0  0  0  0
    0.9821    2.9534   -0.7895 C   0  0  0  0  0  0  0  0  0  0  0  0
    0.6297    3.1238   -2.1292 C   0  0  0  0  0  0  0  0  0  0  0  0
    0.1886    4.3581   -2.3000 N   0  0  0  0  0  0  0  0  0  0  0  0
    0.2267    5.0328   -1.1575 C   0  0  0  0  0  0  0  0  0  0  0  0
   -0.1067    6.3693   -0.8486 C   0  0  0  0  0  0  0  0  0  0  0  0
    0.0883    6.7910    0.4490 C   0  0  0  0  0  0  0  0  0  0  0  0
    0.5820    6.0021    1.4521 C   0  0  0  0  0  0  0  0  0  0  0  0
    0.8860    4.6911    1.0982 C   0  0  0  0  0  0  0  0  0  0  0  0
    0.6983    4.2285   -0.2041 C   0  0  0  0  0  0  0  0  0  0  0  0
    1.1877   -0.5313    0.7659 C   0  0  0  0  0  0  0  0  0  0  0  0
    0.5565   -0.9821    1.7384 O   0  0  0  0  0  0  0  0  0  0  0  0
    2.3913   -0.9645    0.2490 N   0  0  0  0  0  0  0  0  0  0  0  0
    3.5719   -1.4942   -0.1586 C   0  0  1  0  0  0  0  0  0  0  0  0
    4.7558   -1.3538    0.7764 C   0  0  0  0  0  0  0  0  0  0  0  0
    5.9553   -2.0750    0.3259 C   0  0  0  0  0  0  0  0  0  0  0  0
    6.8187   -1.5736   -0.5864 C   0  0  0  0  0  0  0  0  0  0  0  0
    7.9592   -2.2662   -1.0097 C   0  0  0  0  0  0  0  0  0  0  0  0
    8.2171   -3.4920   -0.4946 C   0  0  0  0  0  0  0  0  0  0  0  0
    7.3685   -4.0777    0.4526 C   0  0  0  0  0  0  0  0  0  0  0  0
    6.2567   -3.3490    0.8364 C   0  0  0  0  0  0  0  0  0  0  0  0
    3.3761   -2.9046   -0.6648 C   0  0  0  0  0  0  0  0  0  0  0  0
    4.0775   -3.2803   -1.8088 O   0  0  0  0  0  0  0  0  0  0  0  0
    2.6301   -3.6644   -0.0965 O   0  0  0  0  0  0  0  0  0  0  0  0
   -5.0040   -3.2005    3.8025 H   0  0  0  0  0  0  0  0  0  0  0  0
   -3.5106   -2.2320    4.3393 H   0  0  0  0  0  0  0  0  0  0  0  0
   -3.3222   -3.2661    2.8878 H   0  0  0  0  0  0  0  0  0  0  0  0
   -4.6240   -0.5200    3.2473 H   0  0  0  0  0  0  0  0  0  0  0  0
   -6.0995   -0.7105    1.5478 H   0  0  0  0  0  0  0  0  0  0  0  0
   -6.3613   -2.2282    2.5131 H   0  0  0  0  0  0  0  0  0  0  0  0
   -5.5193   -2.3500    0.9455 H   0  0  0  0  0  0  0  0  0  0  0  0
   -2.2846   -0.9959    2.4829 H   0  0  0  0  0  0  0  0  0  0  0  0
   -2.9570   -2.0985    1.2517 H   0  0  0  0  0  0  0  0  0  0  0  0
   -3.1397    0.9662    1.3713 H   0  0  0  0  0  0  0  0  0  0  0  0
   -3.7213    1.3522   -0.4849 H   0  0  0  0  0  0  0  0  0  0  0  0
   -6.2063   -1.7124   -1.2622 H   0  0  0  0  0  0  0  0  0  0  0  0
   -6.6216    0.7178   -3.2193 H   0  0  0  0  0  0  0  0  0  0  0  0
   -7.7615   -0.7312   -3.1062 H   0  0  0  0  0  0  0  0  0  0  0  0
   -5.9229   -2.3286   -3.6558 H   0  0  0  0  0  0  0  0  0  0  0  0
   -4.7984   -0.8266   -3.8929 H   0  0  0  0  0  0  0  0  0  0  0  0
   -0.9161    1.5489    1.3576 H   0  0  0  0  0  0  0  0  0  0  0  0
    0.3080    0.1841   -0.9726 H   0  0  0  0  0  0  0  0  0  0  0  0
    1.7484    2.1036    0.9661 H   0  0  0  0  0  0  0  0  0  0  0  0
    2.4289    1.4635   -0.5752 H   0  0  0  0  0  0  0  0  0  0  0  0
    0.6927    2.3784   -2.8899 H   0  0  0  0  0  0  0  0  0  0  0  0
   -0.1513    4.7478   -3.2105 H   0  0  0  0  0  0  0  0  0  0  0  0
   -0.4964    6.9636   -1.6355 H   0  0  0  0  0  0  0  0  0  0  0  0
   -0.1408    7.8458    0.6927 H   0  0  0  0  0  0  0  0  0  0  0  0
    0.7729    6.3292    2.4573 H   0  0  0  0  0  0  0  0  0  0  0  0
    1.2648    4.0413    1.8510 H   0  0  0  0  0  0  0  0  0  0  0  0
    2.3891   -1.9638    1.2304 H   0  0  0  0  0  0  0  0  0  0  0  0
    3.9379   -0.9106   -1.0892 H   0  0  0  0  0  0  0  0  0  0  0  0
    5.0209   -0.2617    0.8318 H   0  0  0  0  0  0  0  0  0  0  0  0
    4.4789   -1.6762    1.7886 H   0  0  0  0  0  0  0  0  0  0  0  0
    6.6831   -0.5611   -1.0563 H   0  0  0  0  0  0  0  0  0  0  0  0
    8.6546   -1.8530   -1.7668 H   0  0  0  0  0  0  0  0  0  0  0  0
    9.0726   -4.1167   -0.7917 H   0  0  0  0  0  0  0  0  0  0  0  0
    7.5977   -5.0443    0.8345 H   0  0  0  0  0  0  0  0  0  0  0  0
    5.6170   -3.7750    1.5641 H   0  0  0  0  0  0  0  0  0  0  0  0
    3.9338   -2.6905   -2.6669 H   0  0  0  0  0  0  0  0  0  0  0  0
  1  2  1  0
  2  3  1  0
  2  4  1  0
  4  5  1  0
  5  6  1  0
  6  7  1  0
  7  8  2  0
  7  9  1  0
  9 10  1  0
 10 11  1  0
  5 12  1  0
 12 13  2  0
 12 14  1  0
 14 15  1  0
 15 16  1  0
 16 17  1  0
 17 18  2  0
 18 19  1  0
 19 20  1  0
 20 21  2  0
 21 22  1  0
 22 23  2  0
 23 24  1  0
 24 25  2  0
 15 26  1  0
 26 27  2  0
 26 28  1  0
 28 29  1  0
 29 30  1  0
 30 31  1  0
 31 32  2  0
 32 33  1  0
 33 34  2  0
 34 35  1  0
 35 36  2  0
 29 37  1  0
 37 38  1  0
 37 39  2  0
 11  9  1  0
 25 17  1  0
 36 31  1  0
 25 20  1  0
  1 40  1  0
  1 41  1  0
  1 42  1  0
  2 43  1  0
  3 44  1  0
  3 45  1  0
  3 46  1  0
  4 47  1  0
  4 48  1  0
  5 49  1  1
  6 50  1  0
  9 51  1  0
 10 52  1  0
 10 53  1  0
 11 54  1  0
 11 55  1  0
 14 56  1  0
 15 57  1  6
 16 58  1  0
 16 59  1  0
 18 60  1  0
 19 61  1  0
 21 62  1  0
 22 63  1  0
 23 64  1  0
 24 65  1  0
 28 66  1  0
 29 67  1  6
 30 68  1  0
 30 69  1  0
 32 70  1  0
 33 71  1  0
 34 72  1  0
 35 73  1  0
 36 74  1  0
 38 75  1  0
M  END
$$$$
[H]c1nc2c([H])c(OC([H])([H])[H])c(OC([H])([H])[H])c([H])c2c(Oc2c([H])c([H])c(N([H])C(=O)N([H])c3c([H])c([H])c(C(C([H])([H])[H])(C([H])([H])[H])C([H])([H])[H])c([H])c3[H])c([H])c2[H])c1[H]
     RDKit          3D

 64 67  0  0  0  0  0  0  0  0999 V2000
    7.4827   -3.1917   -1.2357 C   0  0  0  0  0  0  0  0  0  0  0  0
    8.4640   -2.2959   -0.7460 O   0  0  0  0  0  0  0  0  0  0  0  0
    8.0344   -1.0666   -0.2612 C   0  0  0  0  0  0  0  0  0  0  0  0
    6.7000   -0.7088   -0.2525 C   0  0  0  0  0  0  0  0  0  0  0  0
    6.2743    0.5215    0.2345 C   0  0  0  0  0  0  0  0  0  0  0  0
    4.9383    0.8808    0.2384 C   0  0  0  0  0  0  0  0  0  0  0  0
    4.0209   -0.0207   -0.2602 O   0  0  0  0  0  0  0  0  0  0  0  0
    2.6490    0.2922   -0.3050 C   0  0  0  0  0  0  0  0  0  0  0  0
    2.2199    1.0081   -1.4082 C   0  0  0  0  0  0  0  0  0  0  0  0
    0.9192    1.3542   -1.5446 C   0  0  0  0  0  0  0  0  0  0  0  0
   -0.0302    0.9962   -0.5735 C   0  0  0  0  0  0  0  0  0  0  0  0
   -1.3394    1.4316   -0.8215 N   0  0  0  0  0  0  0  0  0  0  0  0
   -2.4787    0.7005   -0.4288 C   0  0  0  0  0  0  0  0  0  0  0  0
   -2.2819   -0.3889    0.1673 O   0  0  0  0  0  0  0  0  0  0  0  0
   -3.7665    1.1976   -0.7085 N   0  0  0  0  0  0  0  0  0  0  0  0
   -5.0053    0.6111   -0.4090 C   0  0  0  0  0  0  0  0  0  0  0  0
   -5.2198   -0.4413    0.4398 C   0  0  0  0  0  0  0  0  0  0  0  0
   -6.4859   -1.0110    0.6595 C   0  0  0  0  0  0  0  0  0  0  0  0
   -7.5930   -0.5243    0.0151 C   0  0  0  0  0  0  0  0  0  0  0  0
   -7.3952    0.5309   -0.8384 C   0  0  0  0  0  0  0  0  0  0  0  0
   -6.1684    1.0919   -1.0589 C   0  0  0  0  0  0  0  0  0  0  0  0
   -8.9463   -1.0875    0.1910 C   0  0  0  0  0  0  0  0  0  0  0  0
   -9.6227   -1.3392   -1.1390 C   0  0  0  0  0  0  0  0  0  0  0  0
   -8.9243   -2.4068    0.9222 C   0  0  0  0  0  0  0  0  0  0  0  0
   -9.7837   -0.0809    0.9400 C   0  0  0  0  0  0  0  0  0  0  0  0
    0.4236    0.2899    0.5065 C   0  0  0  0  0  0  0  0  0  0  0  0
    1.7535   -0.0687    0.6559 C   0  0  0  0  0  0  0  0  0  0  0  0
    4.5435    2.1001    0.7225 C   0  0  0  0  0  0  0  0  0  0  0  0
    5.5003    2.9863    1.2146 C   0  0  0  0  0  0  0  0  0  0  0  0
    6.8042    2.6236    1.2041 N   0  0  0  0  0  0  0  0  0  0  0  0
    7.1933    1.4234    0.7284 C   0  0  0  0  0  0  0  0  0  0  0  0
    8.5222    1.0696    0.7208 C   0  0  0  0  0  0  0  0  0  0  0  0
    8.9498   -0.1493    0.2376 C   0  0  0  0  0  0  0  0  0  0  0  0
   10.2887   -0.4786    0.2399 O   0  0  0  0  0  0  0  0  0  0  0  0
   11.2296    0.4385    0.7378 C   0  0  0  0  0  0  0  0  0  0  0  0
    6.8785   -3.5515   -0.3672 H   0  0  0  0  0  0  0  0  0  0  0  0
    6.7973   -2.7196   -1.9562 H   0  0  0  0  0  0  0  0  0  0  0  0
    7.9958   -4.0352   -1.7552 H   0  0  0  0  0  0  0  0  0  0  0  0
    5.9507   -1.4130   -0.6373 H   0  0  0  0  0  0  0  0  0  0  0  0
    2.9208    1.3063   -2.1901 H   0  0  0  0  0  0  0  0  0  0  0  0
    0.6229    1.9200   -2.4267 H   0  0  0  0  0  0  0  0  0  0  0  0
   -1.5159    2.3577   -1.3289 H   0  0  0  0  0  0  0  0  0  0  0  0
   -3.8030    2.1401   -1.2070 H   0  0  0  0  0  0  0  0  0  0  0  0
   -4.3663   -0.8544    0.9850 H   0  0  0  0  0  0  0  0  0  0  0  0
   -6.5498   -1.8406    1.3435 H   0  0  0  0  0  0  0  0  0  0  0  0
   -8.2897    0.9205   -1.3501 H   0  0  0  0  0  0  0  0  0  0  0  0
   -6.0422    1.9257   -1.7415 H   0  0  0  0  0  0  0  0  0  0  0  0
  -10.6423   -1.7136   -0.8990 H   0  0  0  0  0  0  0  0  0  0  0  0
   -9.7790   -0.4174   -1.7341 H   0  0  0  0  0  0  0  0  0  0  0  0
   -9.1250   -2.1370   -1.7219 H   0  0  0  0  0  0  0  0  0  0  0  0
   -9.8200   -3.0288    0.6170 H   0  0  0  0  0  0  0  0  0  0  0  0
   -8.0581   -3.0271    0.6699 H   0  0  0  0  0  0  0  0  0  0  0  0
   -9.0663   -2.2321    2.0101 H   0  0  0  0  0  0  0  0  0  0  0  0
   -9.2069    0.5199    1.6741 H   0  0  0  0  0  0  0  0  0  0  0  0
  -10.2479    0.6433    0.2232 H   0  0  0  0  0  0  0  0  0  0  0  0
  -10.6317   -0.5835    1.4794 H   0  0  0  0  0  0  0  0  0  0  0  0
   -0.2703   -0.0036    1.3029 H   0  0  0  0  0  0  0  0  0  0  0  0
    2.1168   -0.6286    1.5051 H   0  0  0  0  0  0  0  0  0  0  0  0
    3.4849    2.3617    0.7175 H   0  0  0  0  0  0  0  0  0  0  0  0
    5.1637    3.9496    1.5935 H   0  0  0  0  0  0  0  0  0  0  0  0
    9.2280    1.8025    1.1196 H   0  0  0  0  0  0  0  0  0  0  0  0
   11.0309    0.6085    1.8031 H   0  0  0  0  0  0  0  0  0  0  0  0
   11.0859    1.3708    0.1190 H   0  0  0  0  0  0  0  0  0  0  0  0
   12.2681    0.0719    0.5317 H   0  0  0  0  0  0  0  0  0  0  0  0
  1  2  1  0
  2  3  1  0
  3  4  2  0
  4  5  1  0
  5  6  2  0
  6  7  1  0
  7  8  1  0
  8  9  2  0
  9 10  1  0
 10 11  2  0
 11 12  1  0
 12 13  1  0
 13 14  2  0
 13 15  1  0
 15 16  1  0
 16 17  2  0
 17 18  1  0
 18 19  2  0
 19 20  1  0
 20 21  2  0
 19 22  1  0
 22 23  1  0
 22 24  1  0
 22 25  1  0
 11 26  1  0
 26 27  2  0
  6 28  1  0
 28 29  2  0
 29 30  1  0
 30 31  2  0
 31 32  1  0
 32 33  2  0
 33 34  1  0
 34 35  1  0
 33  3  1  0
 31  5  1  0
 27  8  1  0
 21 16  1  0
  1 36  1  0
  1 37  1  0
  1 38  1  0
  4 39  1  0
  9 40  1  0
 10 41  1  0
 12 42  1  0
 15 43  1  0
 17 44  1  0
 18 45  1  0
 20 46  1  0
 21 47  1  0
 23 48  1  0
 23 49  1  0
 23 50  1  0
 24 51  1  0
 24 52  1  0
 24 53  1  0
 25 54  1  0
 25 55  1  0
 25 56  1  0
 26 57  1  0
 27 58  1  0
 28 59  1  0
 29 60  1  0
 32 61  1  0
 35 62  1  0
 35 63  1  0
 35 64  1  0
M  END
$$$$
[H]c1c([H])c([H])c(C([H])([H])[C@@]([H])(C(=O)N([H])[C@]([H])(C(=O)N([H])[C@]([H])(C(=O)N([H])[H])C([H])([H])c2c([H])c([H])c([H])c([H])c2[H])C([H])([H])C([H])(C([H])([H])[H])C([H])([H])[H])N([H])[H])c([H])c1[H]
     RDKit          3D

 63 64  0  0  0  0  0  0  0  0999 V2000
   -0.7974    4.6989   -0.4117 C   0  0  0  0  0  0  0  0  0  0  0  0
   -0.8849    3.1888   -0.6389 C   0  0  0  0  0  0  0  0  0  0  0  0
   -0.7288    2.9795   -2.1310 C   0  0  0  0  0  0  0  0  0  0  0  0
    0.2440    2.5860    0.1416 C   0  0  0  0  0  0  0  0  0  0  0  0
    0.3498    1.1046    0.0624 C   0  0  2  0  0  0  0  0  0  0  0  0
   -0.7777    0.3750    0.5277 N   0  0  0  0  0  0  0  0  0  0  0  0
   -1.3881   -0.5709   -0.3380 C   0  0  0  0  0  0  0  0  0  0  0  0
   -0.9437   -0.7750   -1.5199 O   0  0  0  0  0  0  0  0  0  0  0  0
   -2.5679   -1.3919    0.0333 C   0  0  1  0  0  0  0  0  0  0  0  0
   -3.0035   -1.1248    1.3911 N   0  0  0  0  0  0  0  0  0  0  0  0
   -3.6394   -1.1080   -0.9724 C   0  0  0  0  0  0  0  0  0  0  0  0
   -4.8375   -1.9054   -0.6428 C   0  0  0  0  0  0  0  0  0  0  0  0
   -5.7937   -1.3709    0.1897 C   0  0  0  0  0  0  0  0  0  0  0  0
   -6.9091   -2.1268    0.4900 C   0  0  0  0  0  0  0  0  0  0  0  0
   -7.0597   -3.3898   -0.0340 C   0  0  0  0  0  0  0  0  0  0  0  0
   -6.0875   -3.9130   -0.8706 C   0  0  0  0  0  0  0  0  0  0  0  0
   -4.9598   -3.1623   -1.1808 C   0  0  0  0  0  0  0  0  0  0  0  0
    1.5208    0.7005    0.8933 C   0  0  0  0  0  0  0  0  0  0  0  0
    1.3928   -0.1525    1.8238 O   0  0  0  0  0  0  0  0  0  0  0  0
    2.8083    1.2513    0.6739 N   0  0  0  0  0  0  0  0  0  0  0  0
    3.9497    0.8637    1.4769 C   0  0  1  0  0  0  0  0  0  0  0  0
    4.9931    0.3094    0.5296 C   0  0  0  0  0  0  0  0  0  0  0  0
    4.4982   -0.8633   -0.2169 C   0  0  0  0  0  0  0  0  0  0  0  0
    4.6883   -2.1126    0.3366 C   0  0  0  0  0  0  0  0  0  0  0  0
    4.2483   -3.2324   -0.3149 C   0  0  0  0  0  0  0  0  0  0  0  0
    3.6154   -3.1175   -1.5231 C   0  0  0  0  0  0  0  0  0  0  0  0
    3.4143   -1.8718   -2.0968 C   0  0  0  0  0  0  0  0  0  0  0  0
    3.8560   -0.7480   -1.4425 C   0  0  0  0  0  0  0  0  0  0  0  0
    4.4633    2.0361    2.2249 C   0  0  0  0  0  0  0  0  0  0  0  0
    5.5779    1.9355    3.0891 N   0  0  0  0  0  0  0  0  0  0  0  0
    3.9254    3.1767    2.1213 O   0  0  0  0  0  0  0  0  0  0  0  0
   -1.6459    5.2288   -0.8711 H   0  0  0  0  0  0  0  0  0  0  0  0
   -0.6617    4.9283    0.6676 H   0  0  0  0  0  0  0  0  0  0  0  0
    0.1207    5.0325   -0.9503 H   0  0  0  0  0  0  0  0  0  0  0  0
   -1.8832    2.8937   -0.3001 H   0  0  0  0  0  0  0  0  0  0  0  0
   -1.3652    2.1550   -2.5047 H   0  0  0  0  0  0  0  0  0  0  0  0
   -1.0753    3.8948   -2.6772 H   0  0  0  0  0  0  0  0  0  0  0  0
    0.3369    2.8613   -2.3785 H   0  0  0  0  0  0  0  0  0  0  0  0
    0.1588    2.9239    1.1946 H   0  0  0  0  0  0  0  0  0  0  0  0
    1.1855    3.0222   -0.2520 H   0  0  0  0  0  0  0  0  0  0  0  0
    0.5925    0.7979   -0.9764 H   0  0  0  0  0  0  0  0  0  0  0  0
   -1.2037    0.4809    1.4754 H   0  0  0  0  0  0  0  0  0  0  0  0
   -2.3137   -2.4606   -0.0206 H   0  0  0  0  0  0  0  0  0  0  0  0
   -2.2091   -1.1774    2.0709 H   0  0  0  0  0  0  0  0  0  0  0  0
   -3.6628   -1.8968    1.7126 H   0  0  0  0  0  0  0  0  0  0  0  0
   -3.2383   -1.4116   -1.9716 H   0  0  0  0  0  0  0  0  0  0  0  0
   -3.8421   -0.0134   -0.9403 H   0  0  0  0  0  0  0  0  0  0  0  0
   -5.6827   -0.3707    0.6097 H   0  0  0  0  0  0  0  0  0  0  0  0
   -7.6524   -1.6898    1.1477 H   0  0  0  0  0  0  0  0  0  0  0  0
   -7.9387   -3.9745    0.2081 H   0  0  0  0  0  0  0  0  0  0  0  0
   -6.1961   -4.8995   -1.2854 H   0  0  0  0  0  0  0  0  0  0  0  0
   -4.2243   -3.6051   -1.8366 H   0  0  0  0  0  0  0  0  0  0  0  0
    2.9075    1.9502   -0.0916 H   0  0  0  0  0  0  0  0  0  0  0  0
    3.6129    0.1269    2.2108 H   0  0  0  0  0  0  0  0  0  0  0  0
    5.3478    1.1094   -0.1518 H   0  0  0  0  0  0  0  0  0  0  0  0
    5.8662   -0.0087    1.1324 H   0  0  0  0  0  0  0  0  0  0  0  0
    5.1936   -2.2165    1.3031 H   0  0  0  0  0  0  0  0  0  0  0  0
    4.4217   -4.2063    0.1640 H   0  0  0  0  0  0  0  0  0  0  0  0
    3.2614   -3.9863   -2.0523 H   0  0  0  0  0  0  0  0  0  0  0  0
    2.9032   -1.8022   -3.0686 H   0  0  0  0  0  0  0  0  0  0  0  0
    3.7101    0.2300   -1.8705 H   0  0  0  0  0  0  0  0  0  0  0  0
    5.7518    1.0938    3.6943 H   0  0  0  0  0  0  0  0  0  0  0  0
    6.2577    2.7205    3.1341 H   0  0  0  0  0  0  0  0  0  0  0  0
  1  2  1  0
  2  3  1  0
  2  4  1  0
  4  5  1  0
  5  6  1  0
  6  7  1  0
  7  8  2  0
  7  9  1  0
  9 10  1  0
  9 11  1  0
 11 12  1  0
 12 13  2  0
 13 14  1  0
 14 15  2  0
 15 16  1  0
 16 17  2  0
  5 18  1  0
 18 19  2  0
 18 20  1  0
 20 21  1  0
 21 22  1  0
 22 23  1  0
 23 24  2  0
 24 25  1  0
 25 26  2  0
 26 27  1  0
 27 28  2  0
 21 29  1  0
 29 30  1  0
 29 31  2  0
 17 12  1  0
 28 23  1  0
  1 32  1  0
  1 33  1  0
  1 34  1  0
  2 35  1  0
  3 36  1  0
  3 37  1  0
  3 38  1  0
  4 39  1  0
  4 40  1  0
  5 41  1  6
  6 42  1  0
  9 43  1  1
 10 44  1  0
 10 45  1  0
 11 46  1  0
 11 47  1  0
 13 48  1  0
 14 49  1  0
 15 50  1  0
 16 51  1  0
 17 52  1  0
 20 53  1  0
 21 54  1  1
 22 55  1  0
 22 56  1  0
 24 57  1  0
 25 58  1  0
 26 59  1  0
 27 60  1  0
 28 61  1  0
 30 62  1  0
 30 63  1  0
M  END
$$$$
[H]O[C@@]1([H])[C@@]([H])(O[H])[C@]([H])(n2c([H])nc3c(N([H])[H])nc(N([H])[H])nc32)O[C@]1([H])[C@]([H])(O[H])C([H])([H])[H]
     RDKit          3D

 37 39  0  0  0  0  0  0  0  0999 V2000
   -4.7929   -0.3721   -0.4848 C   0  0  0  0  0  0  0  0  0  0  0  0
   -3.4291   -0.0045   -1.0088 C   0  0  1  0  0  0  0  0  0  0  0  0
   -3.2665    1.3585   -1.1985 O   0  0  0  0  0  0  0  0  0  0  0  0
   -2.3780   -0.5638   -0.0853 C   0  0  1  0  0  0  0  0  0  0  0  0
   -1.1389   -0.3441   -0.6258 O   0  0  0  0  0  0  0  0  0  0  0  0
   -0.3005    0.0350    0.4087 C   0  0  2  0  0  0  0  0  0  0  0  0
   -1.1964    1.0425    1.1426 C   0  0  2  0  0  0  0  0  0  0  0  0
   -0.6941    1.3419    2.4007 O   0  0  0  0  0  0  0  0  0  0  0  0
   -2.4595    0.1973    1.2178 C   0  0  2  0  0  0  0  0  0  0  0  0
   -2.2747   -0.7103    2.2676 O   0  0  0  0  0  0  0  0  0  0  0  0
    0.9254    0.6114   -0.0178 N   0  0  0  0  0  0  0  0  0  0  0  0
    1.2117    1.8729   -0.3810 C   0  0  0  0  0  0  0  0  0  0  0  0
    2.5218    1.9675   -0.7149 N   0  0  0  0  0  0  0  0  0  0  0  0
    3.0905    0.7578   -0.5673 C   0  0  0  0  0  0  0  0  0  0  0  0
    4.3719    0.2913   -0.7631 C   0  0  0  0  0  0  0  0  0  0  0  0
    5.4145    1.1265   -1.2065 N   0  0  0  0  0  0  0  0  0  0  0  0
    4.6386   -1.0047   -0.5234 N   0  0  0  0  0  0  0  0  0  0  0  0
    3.6760   -1.8371   -0.0997 C   0  0  0  0  0  0  0  0  0  0  0  0
    3.9125   -3.2151    0.1663 N   0  0  0  0  0  0  0  0  0  0  0  0
    2.4281   -1.3664    0.0872 N   0  0  0  0  0  0  0  0  0  0  0  0
    2.0852   -0.0809   -0.1319 C   0  0  0  0  0  0  0  0  0  0  0  0
   -5.5323    0.3354   -0.9297 H   0  0  0  0  0  0  0  0  0  0  0  0
   -4.8668   -0.3828    0.6035 H   0  0  0  0  0  0  0  0  0  0  0  0
   -5.0475   -1.3895   -0.8495 H   0  0  0  0  0  0  0  0  0  0  0  0
   -3.3489   -0.4757   -2.0282 H   0  0  0  0  0  0  0  0  0  0  0  0
   -3.8489    1.9037   -0.6324 H   0  0  0  0  0  0  0  0  0  0  0  0
   -2.5292   -1.6455    0.0282 H   0  0  0  0  0  0  0  0  0  0  0  0
   -0.1807   -0.8123    1.1096 H   0  0  0  0  0  0  0  0  0  0  0  0
   -1.4222    1.9149    0.5262 H   0  0  0  0  0  0  0  0  0  0  0  0
   -0.2126    2.2111    2.3809 H   0  0  0  0  0  0  0  0  0  0  0  0
   -3.3629    0.7989    1.3260 H   0  0  0  0  0  0  0  0  0  0  0  0
   -2.0953   -1.6297    1.9482 H   0  0  0  0  0  0  0  0  0  0  0  0
    0.4798    2.6661   -0.3923 H   0  0  0  0  0  0  0  0  0  0  0  0
    5.5651    2.0547   -0.7803 H   0  0  0  0  0  0  0  0  0  0  0  0
    6.0372    0.8090   -1.9668 H   0  0  0  0  0  0  0  0  0  0  0  0
    3.5250   -3.6973    1.0056 H   0  0  0  0  0  0  0  0  0  0  0  0
    4.4945   -3.7648   -0.5016 H   0  0  0  0  0  0  0  0  0  0  0  0
  1  2  1  0
  2  3  1  0
  2  4  1  0
  4  5  1  0
  5  6  1  0
  6  7  1  0
  7  8  1  0
  7  9  1  0
  9 10  1  0
  6 11  1  0
 11 12  1  0
 12 13  2  0
 13 14  1  0
 14 15  2  0
 15 16  1  0
 15 17  1  0
 17 18  2  0
 18 19  1  0
 18 20  1  0
 20 21  2  0
  9  4  1  0
 21 11  1  0
 21 14  1  0
  1 22  1  0
  1 23  1  0
  1 24  1  0
  2 25  1  6
  3 26  1  0
  4 27  1  1
  6 28  1  1
  7 29  1  6
  8 30  1  0
  9 31  1  1
 10 32  1  0
 12 33  1  0
 16 34  1  0
 16 35  1  0
 19 36  1  0
 19 37  1  0
M  END
$$$$
[H]c1nc(N([H])c2c([H])c([H])c(F)c(C(=O)N([H])c3c([H])c([H])c(OC([H])([H])[H])c(OC([H])([H])[H])c3[H])c2[H])c2c([H])c(OC([H])([H])[H])c(OC([H])([H])[H])c([H])c2n1
     RDKit          3D

 58 61  0  0  0  0  0  0  0  0999 V2000
    8.0021   -3.8096    0.2750 C   0  0  0  0  0  0  0  0  0  0  0  0
    7.8311   -2.4071    0.3624 O   0  0  0  0  0  0  0  0  0  0  0  0
    6.5981   -1.8283    0.1824 C   0  0  0  0  0  0  0  0  0  0  0  0
    5.5075   -2.6211   -0.0878 C   0  0  0  0  0  0  0  0  0  0  0  0
    4.2356   -2.0977   -0.2797 C   0  0  0  0  0  0  0  0  0  0  0  0
    3.1908   -2.8825   -0.5391 N   0  0  0  0  0  0  0  0  0  0  0  0
    1.9766   -2.3368   -0.7169 C   0  0  0  0  0  0  0  0  0  0  0  0
    1.8000   -1.0091   -0.6368 N   0  0  0  0  0  0  0  0  0  0  0  0
    2.8007   -0.1548   -0.3797 C   0  0  0  0  0  0  0  0  0  0  0  0
    2.6077    1.2312   -0.3300 N   0  0  0  0  0  0  0  0  0  0  0  0
    1.3852    1.9434   -0.4653 C   0  0  0  0  0  0  0  0  0  0  0  0
    1.4005    3.2738   -0.9104 C   0  0  0  0  0  0  0  0  0  0  0  0
    0.2567    4.0077   -1.0304 C   0  0  0  0  0  0  0  0  0  0  0  0
   -0.9924    3.4672   -0.7141 C   0  0  0  0  0  0  0  0  0  0  0  0
   -2.1004    4.2490   -0.8277 F   0  0  0  0  0  0  0  0  0  0  0  0
   -1.0357    2.1729   -0.2785 C   0  0  0  0  0  0  0  0  0  0  0  0
    0.1638    1.4304   -0.1608 C   0  0  0  0  0  0  0  0  0  0  0  0
   -2.2927    1.4878    0.0435 C   0  0  0  0  0  0  0  0  0  0  0  0
   -2.1620    0.4988    0.8427 O   0  0  0  0  0  0  0  0  0  0  0  0
   -3.5649    1.7974   -0.4222 N   0  0  0  0  0  0  0  0  0  0  0  0
   -4.7274    1.0697   -0.0571 C   0  0  0  0  0  0  0  0  0  0  0  0
   -5.9714    1.7377   -0.1255 C   0  0  0  0  0  0  0  0  0  0  0  0
   -7.1625    1.1469    0.1695 C   0  0  0  0  0  0  0  0  0  0  0  0
   -7.1601   -0.1732    0.5561 C   0  0  0  0  0  0  0  0  0  0  0  0
   -8.3694   -0.7736    0.8561 O   0  0  0  0  0  0  0  0  0  0  0  0
   -9.5778   -0.0637    0.7721 C   0  0  0  0  0  0  0  0  0  0  0  0
   -5.9849   -0.8765    0.6414 C   0  0  0  0  0  0  0  0  0  0  0  0
   -6.0388   -2.1899    1.0318 O   0  0  0  0  0  0  0  0  0  0  0  0
   -4.9555   -3.0589    1.1751 C   0  0  0  0  0  0  0  0  0  0  0  0
   -4.7947   -0.2360    0.3315 C   0  0  0  0  0  0  0  0  0  0  0  0
    4.0472   -0.7088   -0.1966 C   0  0  0  0  0  0  0  0  0  0  0  0
    5.1556    0.0497    0.0741 C   0  0  0  0  0  0  0  0  0  0  0  0
    6.4221   -0.4739    0.2649 C   0  0  0  0  0  0  0  0  0  0  0  0
    7.4758    0.3665    0.5323 O   0  0  0  0  0  0  0  0  0  0  0  0
    7.3917    1.7545    0.6350 C   0  0  0  0  0  0  0  0  0  0  0  0
    7.5528   -4.2170   -0.6591 H   0  0  0  0  0  0  0  0  0  0  0  0
    9.0844   -4.0329    0.2933 H   0  0  0  0  0  0  0  0  0  0  0  0
    7.4688   -4.3225    1.1150 H   0  0  0  0  0  0  0  0  0  0  0  0
    5.5769   -3.7051   -0.1671 H   0  0  0  0  0  0  0  0  0  0  0  0
    1.1048   -2.9399   -0.9291 H   0  0  0  0  0  0  0  0  0  0  0  0
    3.4611    1.8622   -0.1726 H   0  0  0  0  0  0  0  0  0  0  0  0
    2.3766    3.6724   -1.1505 H   0  0  0  0  0  0  0  0  0  0  0  0
    0.2559    5.0320   -1.3716 H   0  0  0  0  0  0  0  0  0  0  0  0
    0.0644    0.4024    0.2116 H   0  0  0  0  0  0  0  0  0  0  0  0
   -3.6785    2.6160   -1.1078 H   0  0  0  0  0  0  0  0  0  0  0  0
   -5.9678    2.7700   -0.4286 H   0  0  0  0  0  0  0  0  0  0  0  0
   -8.1161    1.6647    0.1155 H   0  0  0  0  0  0  0  0  0  0  0  0
  -10.4564   -0.7082    0.9401 H   0  0  0  0  0  0  0  0  0  0  0  0
   -9.7035    0.4329   -0.2324 H   0  0  0  0  0  0  0  0  0  0  0  0
   -9.6206    0.7810    1.5141 H   0  0  0  0  0  0  0  0  0  0  0  0
   -4.1132   -2.8649    0.4907 H   0  0  0  0  0  0  0  0  0  0  0  0
   -4.6490   -3.0812    2.2390 H   0  0  0  0  0  0  0  0  0  0  0  0
   -5.3364   -4.0895    0.9216 H   0  0  0  0  0  0  0  0  0  0  0  0
   -3.9098   -0.8391    0.3955 H   0  0  0  0  0  0  0  0  0  0  0  0
    5.0859    1.1169    0.1542 H   0  0  0  0  0  0  0  0  0  0  0  0
    6.7993    2.2281   -0.1923 H   0  0  0  0  0  0  0  0  0  0  0  0
    8.4243    2.1716    0.5249 H   0  0  0  0  0  0  0  0  0  0  0  0
    6.9380    2.0672    1.6000 H   0  0  0  0  0  0  0  0  0  0  0  0
  1  2  1  0
  2  3  1  0
  3  4  2  0
  4  5  1  0
  5  6  2  0
  6  7  1  0
  7  8  2  0
  8  9  1  0
  9 10  1  0
 10 11  1  0
 11 12  2  0
 12 13  1  0
 13 14  2  0
 14 15  1  0
 14 16  1  0
 16 17  2  0
 16 18  1  0
 18 19  2  0
 18 20  1  0
 20 21  1  0
 21 22  2  0
 22 23  1  0
 23 24  2  0
 24 25  1  0
 25 26  1  0
 24 27  1  0
 27 28  1  0
 28 29  1  0
 27 30  2  0
  9 31  2  0
 31 32  1  0
 32 33  2  0
 33 34  1  0
 34 35  1  0
 33  3  1  0
 31  5  1  0
 17 11  1  0
 30 21  1  0
  1 36  1  0
  1 37  1  0
  1 38  1  0
  4 39  1  0
  7 40  1  0
 10 41  1  0
 12 42  1  0
 13 43  1  0
 17 44  1  0
 20 45  1  0
 22 46  1  0
 23 47  1  0
 26 48  1  0
 26 49  1  0
 26 50  1  0
 29 51  1  0
 29 52  1  0
 29 53  1  0
 30 54  1  0
 32 55  1  0
 35 56  1  0
 35 57  1  0
 35 58  1  0
M  END
$$$$
[H]N=C(N([H])[H])N([H])C([H])([H])C([H])([H])C([H])([H])[C@@]([H])(C(=O)N([H])[C@]([H])(C(=O)N([H])[C@]([H])(C(=O)N([H])[H])C([H])([H])c1c([H])c([H])c([H])c([H])c1[H])C([H])([H])c1c([H])c([H])c(O[H])c([H])c1[H])N([H])C(=O)[C@@]([H])(N([H])[H])C([H])([H])c1c([H])c([H])c([H])c([H])c1[H]
     RDKit          3D

 88 90  0  0  0  0  0  0  0  0999 V2000
   -5.0965   -1.7436   -1.1621 N   0  0  0  0  0  0  0  0  0  0  0  0
   -5.3106   -0.6381   -0.2321 C   0  0  1  0  0  0  0  0  0  0  0  0
   -5.5341   -1.3108    1.1286 C   0  0  0  0  0  0  0  0  0  0  0  0
   -6.7281   -2.1858    0.9887 C   0  0  0  0  0  0  0  0  0  0  0  0
   -6.6964   -3.4885    0.5596 C   0  0  0  0  0  0  0  0  0  0  0  0
   -7.8200   -4.2897    0.4494 C   0  0  0  0  0  0  0  0  0  0  0  0
   -9.0511   -3.7534    0.7899 C   0  0  0  0  0  0  0  0  0  0  0  0
   -9.1338   -2.4575    1.2223 C   0  0  0  0  0  0  0  0  0  0  0  0
   -7.9965   -1.6709    1.3261 C   0  0  0  0  0  0  0  0  0  0  0  0
   -4.1548    0.2848   -0.1941 C   0  0  0  0  0  0  0  0  0  0  0  0
   -4.3791    1.4842    0.0903 O   0  0  0  0  0  0  0  0  0  0  0  0
   -2.8353   -0.1034   -0.4527 N   0  0  0  0  0  0  0  0  0  0  0  0
   -1.6788    0.7354   -0.4361 C   0  0  1  0  0  0  0  0  0  0  0  0
   -1.5688    1.6559    0.7665 C   0  0  0  0  0  0  0  0  0  0  0  0
   -1.5036    0.9971    2.1046 C   0  0  0  0  0  0  0  0  0  0  0  0
   -1.3210    2.0804    3.1782 C   0  0  0  0  0  0  0  0  0  0  0  0
   -2.3636    3.0155    3.2801 N   0  0  0  0  0  0  0  0  0  0  0  0
   -3.6774    2.7843    3.7864 C   0  0  0  0  0  0  0  0  0  0  0  0
   -4.8354    3.1527    3.1051 N   0  0  0  0  0  0  0  0  0  0  0  0
   -3.8192    2.2062    4.9701 N   0  0  0  0  0  0  0  0  0  0  0  0
   -0.4269    0.0297   -0.6857 C   0  0  0  0  0  0  0  0  0  0  0  0
   -0.4941   -1.2525   -0.7728 O   0  0  0  0  0  0  0  0  0  0  0  0
    0.7980    0.7148   -0.8209 N   0  0  0  0  0  0  0  0  0  0  0  0
    2.1036    0.2018   -1.0371 C   0  0  1  0  0  0  0  0  0  0  0  0
    2.8667    0.7709   -2.1872 C   0  0  0  0  0  0  0  0  0  0  0  0
    2.1319    0.5168   -3.4508 C   0  0  0  0  0  0  0  0  0  0  0  0
    1.2648    1.4123   -4.0053 C   0  0  0  0  0  0  0  0  0  0  0  0
    0.6015    1.1381   -5.1989 C   0  0  0  0  0  0  0  0  0  0  0  0
    0.7980   -0.0452   -5.8584 C   0  0  0  0  0  0  0  0  0  0  0  0
    0.1756   -0.3922   -7.0532 O   0  0  0  0  0  0  0  0  0  0  0  0
    1.6792   -0.9703   -5.3047 C   0  0  0  0  0  0  0  0  0  0  0  0
    2.3161   -0.6861   -4.1414 C   0  0  0  0  0  0  0  0  0  0  0  0
    2.8913    0.1882    0.2401 C   0  0  0  0  0  0  0  0  0  0  0  0
    2.2595    0.2334    1.3083 O   0  0  0  0  0  0  0  0  0  0  0  0
    4.2857    0.1319    0.2166 N   0  0  0  0  0  0  0  0  0  0  0  0
    4.9938    0.1215    1.4971 C   0  0  1  0  0  0  0  0  0  0  0  0
    6.0621   -0.8911    1.6178 C   0  0  0  0  0  0  0  0  0  0  0  0
    7.1713   -0.8189    0.6586 C   0  0  0  0  0  0  0  0  0  0  0  0
    6.9781   -1.4820   -0.5548 C   0  0  0  0  0  0  0  0  0  0  0  0
    8.0075   -1.4530   -1.4480 C   0  0  0  0  0  0  0  0  0  0  0  0
    9.1863   -0.7967   -1.1645 C   0  0  0  0  0  0  0  0  0  0  0  0
    9.3570   -0.1479    0.0356 C   0  0  0  0  0  0  0  0  0  0  0  0
    8.3336   -0.1551    0.9709 C   0  0  0  0  0  0  0  0  0  0  0  0
    5.4780    1.5042    1.8109 C   0  0  0  0  0  0  0  0  0  0  0  0
    6.1555    1.7844    3.0122 N   0  0  0  0  0  0  0  0  0  0  0  0
    5.2632    2.4119    0.9775 O   0  0  0  0  0  0  0  0  0  0  0  0
   -4.3422   -1.5025   -1.8501 H   0  0  0  0  0  0  0  0  0  0  0  0
   -5.9769   -1.9543   -1.6950 H   0  0  0  0  0  0  0  0  0  0  0  0
   -6.2506   -0.1463   -0.5005 H   0  0  0  0  0  0  0  0  0  0  0  0
   -4.6587   -1.9655    1.3231 H   0  0  0  0  0  0  0  0  0  0  0  0
   -5.7206   -0.5876    1.9319 H   0  0  0  0  0  0  0  0  0  0  0  0
   -5.7512   -3.9388    0.2933 H   0  0  0  0  0  0  0  0  0  0  0  0
   -7.7869   -5.3038    0.1155 H   0  0  0  0  0  0  0  0  0  0  0  0
   -9.9546   -4.3499    0.7127 H   0  0  0  0  0  0  0  0  0  0  0  0
  -10.0935   -1.9999    1.5026 H   0  0  0  0  0  0  0  0  0  0  0  0
   -8.0855   -0.6667    1.6669 H   0  0  0  0  0  0  0  0  0  0  0  0
   -2.7034   -1.1393   -0.6922 H   0  0  0  0  0  0  0  0  0  0  0  0
   -1.8712    1.4964   -1.2743 H   0  0  0  0  0  0  0  0  0  0  0  0
   -0.5745    2.1828    0.6471 H   0  0  0  0  0  0  0  0  0  0  0  0
   -2.3031    2.5011    0.7142 H   0  0  0  0  0  0  0  0  0  0  0  0
   -0.6404    0.3069    2.1279 H   0  0  0  0  0  0  0  0  0  0  0  0
   -2.4302    0.4354    2.2788 H   0  0  0  0  0  0  0  0  0  0  0  0
   -0.3871    2.6266    2.8127 H   0  0  0  0  0  0  0  0  0  0  0  0
   -1.1037    1.5732    4.1439 H   0  0  0  0  0  0  0  0  0  0  0  0
   -2.1948    4.0185    2.9523 H   0  0  0  0  0  0  0  0  0  0  0  0
   -5.0366    3.9885    2.5371 H   0  0  0  0  0  0  0  0  0  0  0  0
   -5.6631    2.4666    3.1668 H   0  0  0  0  0  0  0  0  0  0  0  0
   -3.0486    1.9068    5.5558 H   0  0  0  0  0  0  0  0  0  0  0  0
    0.7611    1.7922   -0.7676 H   0  0  0  0  0  0  0  0  0  0  0  0
    1.9564   -0.9179   -1.2339 H   0  0  0  0  0  0  0  0  0  0  0  0
    3.8550    0.2639   -2.2992 H   0  0  0  0  0  0  0  0  0  0  0  0
    3.0373    1.8641   -2.0836 H   0  0  0  0  0  0  0  0  0  0  0  0
    1.1065    2.3597   -3.4934 H   0  0  0  0  0  0  0  0  0  0  0  0
   -0.0673    1.8654   -5.6035 H   0  0  0  0  0  0  0  0  0  0  0  0
   -0.4729    0.2079   -7.5261 H   0  0  0  0  0  0  0  0  0  0  0  0
    1.8264   -1.9182   -5.8485 H   0  0  0  0  0  0  0  0  0  0  0  0
    3.0082   -1.3814   -3.6849 H   0  0  0  0  0  0  0  0  0  0  0  0
    4.9046    0.1073   -0.6267 H   0  0  0  0  0  0  0  0  0  0  0  0
    4.2502   -0.0861    2.3309 H   0  0  0  0  0  0  0  0  0  0  0  0
    6.4728   -0.7821    2.6790 H   0  0  0  0  0  0  0  0  0  0  0  0
    5.6157   -1.9321    1.6345 H   0  0  0  0  0  0  0  0  0  0  0  0
    6.0582   -2.0005   -0.7975 H   0  0  0  0  0  0  0  0  0  0  0  0
    7.9379   -1.9519   -2.4256 H   0  0  0  0  0  0  0  0  0  0  0  0
    9.9920   -0.7720   -1.8586 H   0  0  0  0  0  0  0  0  0  0  0  0
   10.2566    0.3798    0.3013 H   0  0  0  0  0  0  0  0  0  0  0  0
    8.4943    0.3431    1.9142 H   0  0  0  0  0  0  0  0  0  0  0  0
    6.4853    2.7518    3.2670 H   0  0  0  0  0  0  0  0  0  0  0  0
    6.3656    1.0353    3.7213 H   0  0  0  0  0  0  0  0  0  0  0  0
  1  2  1  0
  2  3  1  0
  3  4  1  0
  4  5  2  0
  5  6  1  0
  6  7  2  0
  7  8  1  0
  8  9  2  0
  2 10  1  0
 10 11  2  0
 10 12  1  0
 12 13  1  0
 13 14  1  0
 14 15  1  0
 15 16  1  0
 16 17  1  0
 17 18  1  0
 18 19  1  0
 18 20  2  3
 13 21  1  0
 21 22  2  0
 21 23  1  0
 23 24  1  0
 24 25  1  0
 25 26  1  0
 26 27  2  0
 27 28  1  0
 28 29  2  0
 29 30  1  0
 29 31  1  0
 31 32  2  0
 24 33  1  0
 33 34  2  0
 33 35  1  0
 35 36  1  0
 36 37  1  0
 37 38  1  0
 38 39  2  0
 39 40  1  0
 40 41  2  0
 41 42  1  0
 42 43  2  0
 36 44  1  0
 44 45  1  0
 44 46  2  0
  9  4  1  0
 32 26  1  0
 43 38  1  0
  1 47  1  0
  1 48  1  0
  2 49  1  6
  3 50  1  0
  3 51  1  0
  5 52  1  0
  6 53  1  0
  7 54  1  0
  8 55  1  0
  9 56  1  0
 12 57  1  0
 13 58  1  6
 14 59  1  0
 14 60  1  0
 15 61  1  0
 15 62  1  0
 16 63  1  0
 16 64  1  0
 17 65  1  0
 19 66  1  0
 19 67  1  0
 20 68  1  0
 23 69  1  0
 24 70  1  6
 25 71  1  0
 25 72  1  0
 27 73  1  0
 28 74  1  0
 30 75  1  0
 31 76  1  0
 32 77  1  0
 35 78  1  0
 36 79  1  1
 37 80  1  0
 37 81  1  0
 39 82  1  0
 40 83  1  0
 41 84  1  0
 42 85  1  0
 43 86  1  0
 45 87  1  0
 45 88  1  0
M  END
$$$$
[H]c1c([H])c([H])c(N2C([H])([H])[C@]([H])(c3c([H])c([H])c(F)c([H])c3[H])[C@]([H])(C([H])([H])[H])C2([H])[H])c([H])c1[H]
     RDKit          3D

 37 39  0  0  0  0  0  0  0  0999 V2000
    1.4572   -2.3830   -0.0029 C   0  0  0  0  0  0  0  0  0  0  0  0
    0.4360   -1.4357    0.5113 C   0  0  2  0  0  0  0  0  0  0  0  0
   -0.7662   -1.2892   -0.4315 C   0  0  0  0  0  0  0  0  0  0  0  0
   -1.2889    0.0084   -0.0512 N   0  0  0  0  0  0  0  0  0  0  0  0
   -0.1347    0.8656    0.1124 C   0  0  0  0  0  0  0  0  0  0  0  0
    0.9100   -0.0229    0.6774 C   0  0  2  0  0  0  0  0  0  0  0  0
    2.2664    0.2168    0.1906 C   0  0  0  0  0  0  0  0  0  0  0  0
    2.5308    0.0968   -1.1575 C   0  0  0  0  0  0  0  0  0  0  0  0
    3.7818    0.3058   -1.6907 C   0  0  0  0  0  0  0  0  0  0  0  0
    4.8409    0.6508   -0.8780 C   0  0  0  0  0  0  0  0  0  0  0  0
    6.0825    0.8594   -1.3984 F   0  0  0  0  0  0  0  0  0  0  0  0
    4.6048    0.7777    0.4747 C   0  0  0  0  0  0  0  0  0  0  0  0
    3.3381    0.5628    0.9901 C   0  0  0  0  0  0  0  0  0  0  0  0
   -2.6438    0.3977    0.1330 C   0  0  0  0  0  0  0  0  0  0  0  0
   -3.0233    1.6719    0.4819 C   0  0  0  0  0  0  0  0  0  0  0  0
   -4.3378    2.0462    0.6603 C   0  0  0  0  0  0  0  0  0  0  0  0
   -5.3398    1.1061    0.4838 C   0  0  0  0  0  0  0  0  0  0  0  0
   -4.9766   -0.1725    0.1347 C   0  0  0  0  0  0  0  0  0  0  0  0
   -3.6612   -0.5483   -0.0441 C   0  0  0  0  0  0  0  0  0  0  0  0
    2.4644   -2.0789    0.4017 H   0  0  0  0  0  0  0  0  0  0  0  0
    1.2685   -3.3900    0.4230 H   0  0  0  0  0  0  0  0  0  0  0  0
    1.5168   -2.4510   -1.1082 H   0  0  0  0  0  0  0  0  0  0  0  0
    0.0076   -1.8536    1.4525 H   0  0  0  0  0  0  0  0  0  0  0  0
   -1.4893   -2.1063   -0.2692 H   0  0  0  0  0  0  0  0  0  0  0  0
   -0.4027   -1.2354   -1.4651 H   0  0  0  0  0  0  0  0  0  0  0  0
    0.0983    1.2698   -0.8922 H   0  0  0  0  0  0  0  0  0  0  0  0
   -0.3519    1.7487    0.7475 H   0  0  0  0  0  0  0  0  0  0  0  0
    0.9388    0.1636    1.7931 H   0  0  0  0  0  0  0  0  0  0  0  0
    1.7194   -0.1717   -1.8185 H   0  0  0  0  0  0  0  0  0  0  0  0
    3.9854    0.2105   -2.7509 H   0  0  0  0  0  0  0  0  0  0  0  0
    5.4525    1.0491    1.0900 H   0  0  0  0  0  0  0  0  0  0  0  0
    3.1843    0.6694    2.0516 H   0  0  0  0  0  0  0  0  0  0  0  0
   -2.2614    2.4218    0.6246 H   0  0  0  0  0  0  0  0  0  0  0  0
   -4.5867    3.0663    0.9362 H   0  0  0  0  0  0  0  0  0  0  0  0
   -6.3627    1.4156    0.6273 H   0  0  0  0  0  0  0  0  0  0  0  0
   -5.8022   -0.8825    0.0057 H   0  0  0  0  0  0  0  0  0  0  0  0
   -3.4553   -1.5596   -0.3151 H   0  0  0  0  0  0  0  0  0  0  0  0
  1  2  1  0
  2  3  1  0
  3  4  1  0
  4  5  1  0
  5  6  1  0
  6  7  1  0
  7  8  2  0
  8  9  1  0
  9 10  2  0
 10 11  1  0
 10 12  1  0
 12 13  2  0
  4 14  1  0
 14 15  2  0
 15 16  1  0
 16 17  2  0
 17 18  1  0
 18 19  2  0
  6  2  1  0
 13  7  1  0
 19 14  1  0
  1 20  1  0
  1 21  1  0
  1 22  1  0
  2 23  1  1
  3 24  1  0
  3 25  1  0
  5 26  1  0
  5 27  1  0
  6 28  1  1
  8 29  1  0
  9 30  1  0
 12 31  1  0
 13 32  1  0
 15 33  1  0
 16 34  1  0
 17 35  1  0
 18 36  1  0
 19 37  1  0
M  END
$$$$
[H]c1c([H])c([H])c(C(=O)N([H])[C@]([H])(C(=O)N([H])[C@@]2([H])C([H])([H])[C@@]2([H])c2c([H])c([H])c([H])c([H])c2[H])C([H])(C([H])([H])[H])C([H])([H])[H])c([H])c1[H]
     RDKit          3D

 49 51  0  0  0  0  0  0  0  0999 V2000
   -1.7192   -2.4245   -0.4835 C   0  0  0  0  0  0  0  0  0  0  0  0
   -0.6930   -1.3409   -0.8657 C   0  0  0  0  0  0  0  0  0  0  0  0
    0.6739   -1.9515   -0.8634 C   0  0  0  0  0  0  0  0  0  0  0  0
   -0.7959   -0.2522    0.1822 C   0  0  2  0  0  0  0  0  0  0  0  0
   -2.1907    0.2625    0.1498 N   0  0  0  0  0  0  0  0  0  0  0  0
   -3.0874    0.0493    1.2196 C   0  0  0  0  0  0  0  0  0  0  0  0
   -2.6614   -0.6080    2.2332 O   0  0  0  0  0  0  0  0  0  0  0  0
   -4.4448    0.5181    1.2489 C   0  0  0  0  0  0  0  0  0  0  0  0
   -5.3401    0.0191    2.1972 C   0  0  0  0  0  0  0  0  0  0  0  0
   -6.6484    0.4598    2.2404 C   0  0  0  0  0  0  0  0  0  0  0  0
   -7.1196    1.4039    1.3551 C   0  0  0  0  0  0  0  0  0  0  0  0
   -6.2423    1.9015    0.4164 C   0  0  0  0  0  0  0  0  0  0  0  0
   -4.9230    1.4583    0.3711 C   0  0  0  0  0  0  0  0  0  0  0  0
    0.1357    0.8712    0.0070 C   0  0  0  0  0  0  0  0  0  0  0  0
   -0.3183    2.0180   -0.3489 O   0  0  0  0  0  0  0  0  0  0  0  0
    1.5427    0.8235    0.2017 N   0  0  0  0  0  0  0  0  0  0  0  0
    2.3960    1.9706    0.0029 C   0  0  1  0  0  0  0  0  0  0  0  0
    3.4876    2.3446    0.9125 C   0  0  0  0  0  0  0  0  0  0  0  0
    3.7880    1.8194   -0.4662 C   0  0  1  0  0  0  0  0  0  0  0  0
    4.4562    0.5269   -0.6581 C   0  0  0  0  0  0  0  0  0  0  0  0
    4.5793   -0.3779    0.3578 C   0  0  0  0  0  0  0  0  0  0  0  0
    5.2020   -1.6103    0.1889 C   0  0  0  0  0  0  0  0  0  0  0  0
    5.7244   -1.9613   -1.0356 C   0  0  0  0  0  0  0  0  0  0  0  0
    5.6063   -1.0558   -2.0684 C   0  0  0  0  0  0  0  0  0  0  0  0
    4.9838    0.1670   -1.8854 C   0  0  0  0  0  0  0  0  0  0  0  0
   -1.6502   -3.2194   -1.2511 H   0  0  0  0  0  0  0  0  0  0  0  0
   -1.4347   -2.8836    0.4935 H   0  0  0  0  0  0  0  0  0  0  0  0
   -2.7165   -1.9948   -0.5114 H   0  0  0  0  0  0  0  0  0  0  0  0
   -0.9640   -1.0295   -1.8701 H   0  0  0  0  0  0  0  0  0  0  0  0
    0.6699   -2.9388   -1.4173 H   0  0  0  0  0  0  0  0  0  0  0  0
    1.3834   -1.2712   -1.3603 H   0  0  0  0  0  0  0  0  0  0  0  0
    0.9876   -2.1065    0.1849 H   0  0  0  0  0  0  0  0  0  0  0  0
   -0.6772   -0.7277    1.1644 H   0  0  0  0  0  0  0  0  0  0  0  0
   -2.4881    0.7830   -0.6814 H   0  0  0  0  0  0  0  0  0  0  0  0
   -5.0231   -0.7252    2.9147 H   0  0  0  0  0  0  0  0  0  0  0  0
   -7.3492    0.0629    2.9876 H   0  0  0  0  0  0  0  0  0  0  0  0
   -8.1573    1.7181    1.4282 H   0  0  0  0  0  0  0  0  0  0  0  0
   -6.6079    2.6441   -0.2808 H   0  0  0  0  0  0  0  0  0  0  0  0
   -4.2770    1.8869   -0.3920 H   0  0  0  0  0  0  0  0  0  0  0  0
    1.9735   -0.0533    0.5142 H   0  0  0  0  0  0  0  0  0  0  0  0
    1.7973    2.8620   -0.3597 H   0  0  0  0  0  0  0  0  0  0  0  0
    3.7410    1.7811    1.8157 H   0  0  0  0  0  0  0  0  0  0  0  0
    3.7470    3.4372    1.0409 H   0  0  0  0  0  0  0  0  0  0  0  0
    4.0433    2.5821   -1.2789 H   0  0  0  0  0  0  0  0  0  0  0  0
    4.1882   -0.1372    1.3323 H   0  0  0  0  0  0  0  0  0  0  0  0
    5.2897   -2.3129    1.0029 H   0  0  0  0  0  0  0  0  0  0  0  0
    6.2180   -2.9286   -1.1818 H   0  0  0  0  0  0  0  0  0  0  0  0
    6.0186   -1.3390   -3.0248 H   0  0  0  0  0  0  0  0  0  0  0  0
    4.8960    0.8792   -2.7130 H   0  0  0  0  0  0  0  0  0  0  0  0
  1  2  1  0
  2  3  1  0
  2  4  1  0
  4  5  1  0
  5  6  1  0
  6  7  2  0
  6  8  1  0
  8  9  2  0
  9 10  1  0
 10 11  2  0
 11 12  1  0
 12 13  2  0
  4 14  1  0
 14 15  2  0
 14 16  1  0
 16 17  1  0
 17 18  1  0
 18 19  1  0
 19 20  1  0
 20 21  2  0
 21 22  1  0
 22 23  2  0
 23 24  1  0
 24 25  2  0
 13  8  1  0
 19 17  1  0
 25 20  1  0
  1 26  1  0
  1 27  1  0
  1 28  1  0
  2 29  1  0
  3 30  1  0
  3 31  1  0
  3 32  1  0
  4 33  1  1
  5 34  1  0
  9 35  1  0
 10 36  1  0
 11 37  1  0
 12 38  1  0
 13 39  1  0
 16 40  1  0
 17 41  1  6
 18 42  1  0
 18 43  1  0
 19 44  1  6
 21 45  1  0
 22 46  1  0
 23 47  1  0
 24 48  1  0
 25 49  1  0
M  END
$$$$
[H]Oc1c([H])c(-c2c([H])c([H])c3c(c(N([H])[H])nn3[H])c2[H])c([H])c(O[H])c1O[H]
     RDKit          3D

 30 32  0  0  0  0  0  0  0  0999 V2000
   -3.9610   -1.4692    1.6278 N   0  0  0  0  0  0  0  0  0  0  0  0
   -3.8566   -0.5611    0.5498 C   0  0  0  0  0  0  0  0  0  0  0  0
   -4.8533    0.0097   -0.1487 N   0  0  0  0  0  0  0  0  0  0  0  0
   -4.3527    0.8021   -1.0814 N   0  0  0  0  0  0  0  0  0  0  0  0
   -3.0059    0.7643   -1.0103 C   0  0  0  0  0  0  0  0  0  0  0  0
   -1.9939    1.3946   -1.7406 C   0  0  0  0  0  0  0  0  0  0  0  0
   -0.6830    1.1348   -1.4062 C   0  0  0  0  0  0  0  0  0  0  0  0
   -0.3519    0.2700   -0.3716 C   0  0  0  0  0  0  0  0  0  0  0  0
   -1.3628   -0.3464    0.3423 C   0  0  0  0  0  0  0  0  0  0  0  0
   -2.6726   -0.0917    0.0144 C   0  0  0  0  0  0  0  0  0  0  0  0
    1.0291    0.0287   -0.0603 C   0  0  0  0  0  0  0  0  0  0  0  0
    1.4672   -1.1833    0.4455 C   0  0  0  0  0  0  0  0  0  0  0  0
    2.7988   -1.3917    0.7356 C   0  0  0  0  0  0  0  0  0  0  0  0
    3.2670   -2.5947    1.2427 O   0  0  0  0  0  0  0  0  0  0  0  0
    3.7436   -0.3943    0.5306 C   0  0  0  0  0  0  0  0  0  0  0  0
    5.0854   -0.6051    0.8234 O   0  0  0  0  0  0  0  0  0  0  0  0
    3.3188    0.8313    0.0223 C   0  0  0  0  0  0  0  0  0  0  0  0
    4.2623    1.8297   -0.1830 O   0  0  0  0  0  0  0  0  0  0  0  0
    1.9716    1.0121   -0.2607 C   0  0  0  0  0  0  0  0  0  0  0  0
   -4.8821   -1.9211    1.8018 H   0  0  0  0  0  0  0  0  0  0  0  0
   -3.1663   -1.6902    2.2322 H   0  0  0  0  0  0  0  0  0  0  0  0
   -4.8672    1.3938   -1.7961 H   0  0  0  0  0  0  0  0  0  0  0  0
   -2.2780    2.0619   -2.5397 H   0  0  0  0  0  0  0  0  0  0  0  0
    0.0977    1.6378   -1.9882 H   0  0  0  0  0  0  0  0  0  0  0  0
   -1.1620   -1.0199    1.1474 H   0  0  0  0  0  0  0  0  0  0  0  0
    0.7927   -2.0079    0.6327 H   0  0  0  0  0  0  0  0  0  0  0  0
    4.2389   -2.7594    1.4604 H   0  0  0  0  0  0  0  0  0  0  0  0
    5.7330    0.1472    0.6584 H   0  0  0  0  0  0  0  0  0  0  0  0
    3.9310    2.7128   -0.5550 H   0  0  0  0  0  0  0  0  0  0  0  0
    1.7123    2.0052   -0.6598 H   0  0  0  0  0  0  0  0  0  0  0  0
  1  2  1  0
  2  3  2  0
  3  4  1  0
  4  5  1  0
  5  6  2  0
  6  7  1  0
  7  8  2  0
  8  9  1  0
  9 10  2  0
  8 11  1  0
 11 12  2  0
 12 13  1  0
 13 14  1  0
 13 15  2  0
 15 16  1  0
 15 17  1  0
 17 18  1  0
 17 19  2  0
 10  2  1  0
 19 11  1  0
 10  5  1  0
  1 20  1  0
  1 21  1  0
  4 22  1  0
  6 23  1  0
  7 24  1  0
  9 25  1  0
 12 26  1  0
 14 27  1  0
 16 28  1  0
 18 29  1  0
 19 30  1  0
M  END
$$$$
[H]c1c([H])c([H])c(C([H])([H])OC(=O)N([H])[C@]([H])(C(=O)N([H])[C@]([H])(C(=O)N([H])[C@]([H])(C(=O)N([H])[C@]([H])(C(=O)N([H])[H])C([H])([H])c2c([H])c([H])c([H])c([H])c2[H])C([H])([H])C([H])(C([H])([H])[H])C([H])([H])[H])C([H])([H])c2c([H])c([H])c([H])c([H])c2[H])C([H])(C([H])([H])[H])C([H])([H])[H])c([H])c1[H]
     RDKit          3D

 95 97  0  0  0  0  0  0  0  0999 V2000
    1.6936    1.4694    1.8885 C   0  0  0  0  0  0  0  0  0  0  0  0
    2.6444    1.6118    0.7644 C   0  0  0  0  0  0  0  0  0  0  0  0
    3.8119    2.4823    1.1749 C   0  0  0  0  0  0  0  0  0  0  0  0
    3.1361    0.3426    0.1420 C   0  0  2  0  0  0  0  0  0  0  0  0
    4.0605    0.6767   -0.9393 N   0  0  0  0  0  0  0  0  0  0  0  0
    5.4614    0.4637   -0.8332 C   0  0  0  0  0  0  0  0  0  0  0  0
    5.9844   -0.0188    0.2123 O   0  0  0  0  0  0  0  0  0  0  0  0
    6.2940    0.7810   -1.8811 O   0  0  0  0  0  0  0  0  0  0  0  0
    7.6844    0.6232   -1.8873 C   0  0  0  0  0  0  0  0  0  0  0  0
    8.4183    1.3914   -0.8845 C   0  0  0  0  0  0  0  0  0  0  0  0
    8.5869    2.7526   -1.0678 C   0  0  0  0  0  0  0  0  0  0  0  0
    9.2704    3.5292   -0.1701 C   0  0  0  0  0  0  0  0  0  0  0  0
    9.8086    2.9434    0.9514 C   0  0  0  0  0  0  0  0  0  0  0  0
    9.6559    1.5812    1.1618 C   0  0  0  0  0  0  0  0  0  0  0  0
    8.9569    0.8144    0.2339 C   0  0  0  0  0  0  0  0  0  0  0  0
    2.1223   -0.5416   -0.3786 C   0  0  0  0  0  0  0  0  0  0  0  0
    2.1476   -0.7893   -1.6406 O   0  0  0  0  0  0  0  0  0  0  0  0
    1.0889   -1.1883    0.3033 N   0  0  0  0  0  0  0  0  0  0  0  0
    0.1012   -2.0689   -0.3429 C   0  0  1  0  0  0  0  0  0  0  0  0
    0.3148   -3.4877    0.1077 C   0  0  0  0  0  0  0  0  0  0  0  0
    1.6227   -4.0344   -0.1892 C   0  0  0  0  0  0  0  0  0  0  0  0
    2.6487   -3.8850    0.7168 C   0  0  0  0  0  0  0  0  0  0  0  0
    3.9220   -4.4044    0.4528 C   0  0  0  0  0  0  0  0  0  0  0  0
    4.1680   -5.0797   -0.7305 C   0  0  0  0  0  0  0  0  0  0  0  0
    3.1477   -5.2303   -1.6349 C   0  0  0  0  0  0  0  0  0  0  0  0
    1.8939   -4.7036   -1.3453 C   0  0  0  0  0  0  0  0  0  0  0  0
   -1.2384   -1.6339    0.1063 C   0  0  0  0  0  0  0  0  0  0  0  0
   -1.3609   -0.7299    1.0036 O   0  0  0  0  0  0  0  0  0  0  0  0
   -2.4722   -2.1635   -0.4125 N   0  0  0  0  0  0  0  0  0  0  0  0
   -3.7702   -1.7393   -0.0180 C   0  0  1  0  0  0  0  0  0  0  0  0
   -4.1675   -2.1882    1.3283 C   0  0  0  0  0  0  0  0  0  0  0  0
   -4.2906   -3.6448    1.5784 C   0  0  0  0  0  0  0  0  0  0  0  0
   -3.0913   -4.4870    1.3877 C   0  0  0  0  0  0  0  0  0  0  0  0
   -5.4361   -4.2630    0.7689 C   0  0  0  0  0  0  0  0  0  0  0  0
   -3.9550   -0.2768   -0.2370 C   0  0  0  0  0  0  0  0  0  0  0  0
   -3.0707    0.4138   -0.7801 O   0  0  0  0  0  0  0  0  0  0  0  0
   -5.1381    0.3923    0.1610 N   0  0  0  0  0  0  0  0  0  0  0  0
   -5.3558    1.8359   -0.0300 C   0  0  1  0  0  0  0  0  0  0  0  0
   -6.4165    2.0423   -1.0554 C   0  0  0  0  0  0  0  0  0  0  0  0
   -6.7306    3.4296   -1.3414 C   0  0  0  0  0  0  0  0  0  0  0  0
   -5.9273    4.1201   -2.2492 C   0  0  0  0  0  0  0  0  0  0  0  0
   -6.2323    5.4291   -2.5656 C   0  0  0  0  0  0  0  0  0  0  0  0
   -7.3133    6.0416   -1.9921 C   0  0  0  0  0  0  0  0  0  0  0  0
   -8.1317    5.3881   -1.0876 C   0  0  0  0  0  0  0  0  0  0  0  0
   -7.8227    4.0821   -0.7758 C   0  0  0  0  0  0  0  0  0  0  0  0
   -5.5855    2.4650    1.2602 C   0  0  0  0  0  0  0  0  0  0  0  0
   -5.7613    3.8461    1.5277 N   0  0  0  0  0  0  0  0  0  0  0  0
   -5.6357    1.6901    2.2923 O   0  0  0  0  0  0  0  0  0  0  0  0
    0.6373    1.2928    1.5839 H   0  0  0  0  0  0  0  0  0  0  0  0
    1.6514    2.4719    2.4119 H   0  0  0  0  0  0  0  0  0  0  0  0
    2.0329    0.7714    2.6819 H   0  0  0  0  0  0  0  0  0  0  0  0
    2.1232    2.1828   -0.0590 H   0  0  0  0  0  0  0  0  0  0  0  0
    4.4071    2.6910    0.2398 H   0  0  0  0  0  0  0  0  0  0  0  0
    4.4559    1.8629    1.8300 H   0  0  0  0  0  0  0  0  0  0  0  0
    3.4722    3.4198    1.6503 H   0  0  0  0  0  0  0  0  0  0  0  0
    3.7393   -0.1738    0.9151 H   0  0  0  0  0  0  0  0  0  0  0  0
    3.6831    1.0822   -1.8113 H   0  0  0  0  0  0  0  0  0  0  0  0
    8.0156    0.9252   -2.9268 H   0  0  0  0  0  0  0  0  0  0  0  0
    7.9632   -0.4740   -1.8577 H   0  0  0  0  0  0  0  0  0  0  0  0
    8.1783    3.2452   -1.9373 H   0  0  0  0  0  0  0  0  0  0  0  0
    9.4054    4.5907   -0.3073 H   0  0  0  0  0  0  0  0  0  0  0  0
   10.3446    3.5800    1.6468 H   0  0  0  0  0  0  0  0  0  0  0  0
   10.0870    1.1527    2.0470 H   0  0  0  0  0  0  0  0  0  0  0  0
    8.8415   -0.2455    0.3961 H   0  0  0  0  0  0  0  0  0  0  0  0
    0.9860   -1.0619    1.3188 H   0  0  0  0  0  0  0  0  0  0  0  0
    0.1909   -1.9231   -1.4103 H   0  0  0  0  0  0  0  0  0  0  0  0
   -0.4777   -4.1393   -0.3268 H   0  0  0  0  0  0  0  0  0  0  0  0
    0.1569   -3.4985    1.2098 H   0  0  0  0  0  0  0  0  0  0  0  0
    2.5420   -3.3726    1.6615 H   0  0  0  0  0  0  0  0  0  0  0  0
    4.7471   -4.3058    1.1397 H   0  0  0  0  0  0  0  0  0  0  0  0
    5.1483   -5.4920   -0.9603 H   0  0  0  0  0  0  0  0  0  0  0  0
    3.3490   -5.7546   -2.5486 H   0  0  0  0  0  0  0  0  0  0  0  0
    1.1260   -4.8361   -2.0643 H   0  0  0  0  0  0  0  0  0  0  0  0
   -2.3045   -2.9213   -1.1477 H   0  0  0  0  0  0  0  0  0  0  0  0
   -4.4675   -2.2619   -0.8087 H   0  0  0  0  0  0  0  0  0  0  0  0
   -3.4573   -1.7581    2.1060 H   0  0  0  0  0  0  0  0  0  0  0  0
   -5.1539   -1.7270    1.6347 H   0  0  0  0  0  0  0  0  0  0  0  0
   -4.6100   -3.7956    2.6620 H   0  0  0  0  0  0  0  0  0  0  0  0
   -3.3333   -5.4971    1.8319 H   0  0  0  0  0  0  0  0  0  0  0  0
   -2.2159   -4.1309    1.9628 H   0  0  0  0  0  0  0  0  0  0  0  0
   -2.8631   -4.7076    0.3229 H   0  0  0  0  0  0  0  0  0  0  0  0
   -5.0076   -4.5986   -0.2135 H   0  0  0  0  0  0  0  0  0  0  0  0
   -5.8136   -5.1204    1.3582 H   0  0  0  0  0  0  0  0  0  0  0  0
   -6.1933   -3.4671    0.6221 H   0  0  0  0  0  0  0  0  0  0  0  0
   -5.8990   -0.1366    0.6099 H   0  0  0  0  0  0  0  0  0  0  0  0
   -4.4146    2.2915   -0.4656 H   0  0  0  0  0  0  0  0  0  0  0  0
   -6.0968    1.5581   -2.0164 H   0  0  0  0  0  0  0  0  0  0  0  0
   -7.3392    1.5139   -0.6750 H   0  0  0  0  0  0  0  0  0  0  0  0
   -5.0917    3.6140   -2.6777 H   0  0  0  0  0  0  0  0  0  0  0  0
   -5.5708    5.9153   -3.2801 H   0  0  0  0  0  0  0  0  0  0  0  0
   -7.5541    7.0774   -2.2432 H   0  0  0  0  0  0  0  0  0  0  0  0
   -8.9902    5.8565   -0.6256 H   0  0  0  0  0  0  0  0  0  0  0  0
   -8.4360    3.5352   -0.0741 H   0  0  0  0  0  0  0  0  0  0  0  0
   -5.1319    4.5957    1.1792 H   0  0  0  0  0  0  0  0  0  0  0  0
   -6.6042    4.0922    2.1273 H   0  0  0  0  0  0  0  0  0  0  0  0
  1  2  1  0
  2  3  1  0
  2  4  1  0
  4  5  1  0
  5  6  1  0
  6  7  2  0
  6  8  1  0
  8  9  1  0
  9 10  1  0
 10 11  2  0
 11 12  1  0
 12 13  2  0
 13 14  1  0
 14 15  2  0
  4 16  1  0
 16 17  2  0
 16 18  1  0
 18 19  1  0
 19 20  1  0
 20 21  1  0
 21 22  2  0
 22 23  1  0
 23 24  2  0
 24 25  1  0
 25 26  2  0
 19 27  1  0
 27 28  2  0
 27 29  1  0
 29 30  1  0
 30 31  1  0
 31 32  1  0
 32 33  1  0
 32 34  1  0
 30 35  1  0
 35 36  2  0
 35 37  1  0
 37 38  1  0
 38 39  1  0
 39 40  1  0
 40 41  2  0
 41 42  1  0
 42 43  2  0
 43 44  1  0
 44 45  2  0
 38 46  1  0
 46 47  1  0
 46 48  2  0
 15 10  1  0
 26 21  1  0
 45 40  1  0
  1 49  1  0
  1 50  1  0
  1 51  1  0
  2 52  1  0
  3 53  1  0
  3 54  1  0
  3 55  1  0
  4 56  1  1
  5 57  1  0
  9 58  1  0
  9 59  1  0
 11 60  1  0
 12 61  1  0
 13 62  1  0
 14 63  1  0
 15 64  1  0
 18 65  1  0
 19 66  1  6
 20 67  1  0
 20 68  1  0
 22 69  1  0
 23 70  1  0
 24 71  1  0
 25 72  1  0
 26 73  1  0
 29 74  1  0
 30 75  1  6
 31 76  1  0
 31 77  1  0
 32 78  1  0
 33 79  1  0
 33 80  1  0
 33 81  1  0
 34 82  1  0
 34 83  1  0
 34 84  1  0
 37 85  1  0
 38 86  1  6
 39 87  1  0
 39 88  1  0
 41 89  1  0
 42 90  1  0
 43 91  1  0
 44 92  1  0
 45 93  1  0
 47 94  1  0
 47 95  1  0
M  END
$$$$
[H]c1c([H])c(C(F)(F)F)c([H])c([H])c1C(=O)N([H])[C@]([H])(C(=O)N([H])[C@]1([H])C([H])([H])C([H])([H])[C@@]([H])(C(=O)N2C([H])([H])C([H])([H])OC([H])([H])C2([H])[H])C([H])([H])C1([H])[H])C([H])([H])[H]
     RDKit          3D

 60 62  0  0  0  0  0  0  0  0999 V2000
    3.0868   -2.2614   -1.0320 C   0  0  0  0  0  0  0  0  0  0  0  0
    2.8958   -0.7998   -0.9410 C   0  0  2  0  0  0  0  0  0  0  0  0
    3.5469   -0.0735    0.0745 N   0  0  0  0  0  0  0  0  0  0  0  0
    4.1605    0.6162    1.0402 C   0  0  0  0  0  0  0  0  0  0  0  0
    3.8832    1.1847    2.0831 O   0  0  0  0  0  0  0  0  0  0  0  0
    5.7036    0.7645    0.8562 C   0  0  0  0  0  0  0  0  0  0  0  0
    6.4771    0.0355    1.7117 C   0  0  0  0  0  0  0  0  0  0  0  0
    7.8787    0.1147    1.6164 C   0  0  0  0  0  0  0  0  0  0  0  0
    8.4070    0.9332    0.6695 C   0  0  0  0  0  0  0  0  0  0  0  0
    7.6002    1.6601   -0.1760 C   0  0  0  0  0  0  0  0  0  0  0  0
    6.1910    1.5894   -0.1042 C   0  0  0  0  0  0  0  0  0  0  0  0
    9.9095    0.9903    0.5399 C   0  0  0  0  0  0  0  0  0  0  0  0
   10.1853    1.4435   -0.7430 F   0  0  0  0  0  0  0  0  0  0  0  0
   10.3928   -0.2699    0.7480 F   0  0  0  0  0  0  0  0  0  0  0  0
   10.3611    1.8308    1.5198 F   0  0  0  0  0  0  0  0  0  0  0  0
    1.4473   -0.4373   -0.9653 C   0  0  0  0  0  0  0  0  0  0  0  0
    1.2009    0.8562   -0.9468 O   0  0  0  0  0  0  0  0  0  0  0  0
    0.3452   -1.2703   -0.9853 N   0  0  0  0  0  0  0  0  0  0  0  0
   -1.0205   -0.7077   -0.9892 C   0  0  1  0  0  0  0  0  0  0  0  0
   -2.0668   -1.7631   -1.0467 C   0  0  0  0  0  0  0  0  0  0  0  0
   -3.4475   -1.1650   -0.7843 C   0  0  0  0  0  0  0  0  0  0  0  0
   -3.5237   -0.4973    0.5316 C   0  0  1  0  0  0  0  0  0  0  0  0
   -2.4223    0.6373    0.5100 C   0  0  0  0  0  0  0  0  0  0  0  0
   -1.1227   -0.0890    0.4477 C   0  0  0  0  0  0  0  0  0  0  0  0
   -4.6982    0.2690    0.9296 C   0  0  0  0  0  0  0  0  0  0  0  0
   -4.5518    0.7591    2.1490 O   0  0  0  0  0  0  0  0  0  0  0  0
   -5.8638    0.5590    0.2831 N   0  0  0  0  0  0  0  0  0  0  0  0
   -6.3690    0.0976   -0.9563 C   0  0  0  0  0  0  0  0  0  0  0  0
   -7.7907   -0.4942   -0.7029 C   0  0  0  0  0  0  0  0  0  0  0  0
   -8.3297   -0.0560    0.4798 O   0  0  0  0  0  0  0  0  0  0  0  0
   -8.1562    1.3093    0.6487 C   0  0  0  0  0  0  0  0  0  0  0  0
   -6.7217    1.6271    0.9099 C   0  0  0  0  0  0  0  0  0  0  0  0
    3.6456   -2.5242   -1.9933 H   0  0  0  0  0  0  0  0  0  0  0  0
    3.6614   -2.6832   -0.1566 H   0  0  0  0  0  0  0  0  0  0  0  0
    2.1736   -2.8821   -1.0579 H   0  0  0  0  0  0  0  0  0  0  0  0
    3.1892   -0.3353   -1.9818 H   0  0  0  0  0  0  0  0  0  0  0  0
    2.4190   -0.0663    0.7966 H   0  0  0  0  0  0  0  0  0  0  0  0
    6.0478   -0.6199    2.4625 H   0  0  0  0  0  0  0  0  0  0  0  0
    8.4409   -0.4920    2.3223 H   0  0  0  0  0  0  0  0  0  0  0  0
    8.0306    2.3090   -0.8873 H   0  0  0  0  0  0  0  0  0  0  0  0
    5.5454    2.1466   -0.7658 H   0  0  0  0  0  0  0  0  0  0  0  0
    0.3483   -2.3121   -0.9935 H   0  0  0  0  0  0  0  0  0  0  0  0
   -1.1548    0.1192   -1.6769 H   0  0  0  0  0  0  0  0  0  0  0  0
   -1.8555   -2.5763   -0.2958 H   0  0  0  0  0  0  0  0  0  0  0  0
   -2.1069   -2.1884   -2.0565 H   0  0  0  0  0  0  0  0  0  0  0  0
   -3.5599   -0.4004   -1.5958 H   0  0  0  0  0  0  0  0  0  0  0  0
   -4.1981   -1.9933   -0.8745 H   0  0  0  0  0  0  0  0  0  0  0  0
   -3.1694   -1.1643    1.3666 H   0  0  0  0  0  0  0  0  0  0  0  0
   -2.5734    1.2402   -0.4074 H   0  0  0  0  0  0  0  0  0  0  0  0
   -2.4848    1.1959    1.4368 H   0  0  0  0  0  0  0  0  0  0  0  0
   -0.2388    0.4274    0.6972 H   0  0  0  0  0  0  0  0  0  0  0  0
   -1.1806   -1.0027    1.1228 H   0  0  0  0  0  0  0  0  0  0  0  0
   -6.5116    1.0229   -1.6129 H   0  0  0  0  0  0  0  0  0  0  0  0
   -5.8450   -0.6698   -1.5042 H   0  0  0  0  0  0  0  0  0  0  0  0
   -7.7491   -1.5872   -0.6740 H   0  0  0  0  0  0  0  0  0  0  0  0
   -8.4209   -0.1642   -1.5328 H   0  0  0  0  0  0  0  0  0  0  0  0
   -8.4706    1.8203   -0.2823 H   0  0  0  0  0  0  0  0  0  0  0  0
   -8.7598    1.6692    1.5201 H   0  0  0  0  0  0  0  0  0  0  0  0
   -6.4224    1.7794    1.9507 H   0  0  0  0  0  0  0  0  0  0  0  0
   -6.3884    2.5386    0.3056 H   0  0  0  0  0  0  0  0  0  0  0  0
  1  2  1  0
  2  3  1  0
  3  4  1  0
  4  5  2  0
  4  6  1  0
  6  7  2  0
  7  8  1  0
  8  9  2  0
  9 10  1  0
 10 11  2  0
  9 12  1  0
 12 13  1  0
 12 14  1  0
 12 15  1  0
  2 16  1  0
 16 17  2  0
 16 18  1  0
 18 19  1  0
 19 20  1  0
 20 21  1  0
 21 22  1  0
 22 23  1  0
 23 24  1  0
 22 25  1  0
 25 26  2  0
 25 27  1  0
 27 28  1  0
 28 29  1  0
 29 30  1  0
 30 31  1  0
 31 32  1  0
 11  6  1  0
 24 19  1  0
 32 27  1  0
  1 33  1  0
  1 34  1  0
  1 35  1  0
  2 36  1  6
  3 37  1  0
  7 38  1  0
  8 39  1  0
 10 40  1  0
 11 41  1  0
 18 42  1  0
 19 43  1  6
 20 44  1  0
 20 45  1  0
 21 46  1  0
 21 47  1  0
 22 48  1  1
 23 49  1  0
 23 50  1  0
 24 51  1  0
 24 52  1  0
 28 53  1  0
 28 54  1  0
 29 55  1  0
 29 56  1  0
 31 57  1  0
 31 58  1  0
 32 59  1  0
 32 60  1  0
M  END
$$$$
[H]ON([H])C(=O)[C@]1([H])N(S(=O)(=O)c2c([H])c([H])c(OC([H])([H])[H])c([H])c2[H])C([H])([H])c2c([H])c([H])c([H])c([H])c2C1([H])[H]
     RDKit          3D

 43 45  0  0  0  0  0  0  0  0999 V2000
    6.0109    0.8011    2.5727 C   0  0  0  0  0  0  0  0  0  0  0  0
    5.6105    0.1137    1.4420 O   0  0  0  0  0  0  0  0  0  0  0  0
    4.4467    0.2536    0.7299 C   0  0  0  0  0  0  0  0  0  0  0  0
    4.2317   -0.5260   -0.3567 C   0  0  0  0  0  0  0  0  0  0  0  0
    3.0957   -0.4748   -1.1605 C   0  0  0  0  0  0  0  0  0  0  0  0
    2.1203    0.4479   -0.8033 C   0  0  0  0  0  0  0  0  0  0  0  0
    2.3106    1.2407    0.2813 C   0  0  0  0  0  0  0  0  0  0  0  0
    3.4687    1.1636    1.0704 C   0  0  0  0  0  0  0  0  0  0  0  0
    0.6459    0.5461   -1.7175 S   0  0  0  0  0  0  0  0  0  0  0  0
    0.4397    1.9391   -2.2412 O   0  0  0  0  0  0  0  0  0  0  0  0
    0.7536   -0.3614   -2.9036 O   0  0  0  0  0  0  0  0  0  0  0  0
   -0.6182    0.0210   -0.7235 N   0  0  0  0  0  0  0  0  0  0  0  0
   -0.6020   -1.2606   -0.2107 C   0  0  0  0  0  0  0  0  0  0  0  0
   -1.9267   -1.7738    0.0957 C   0  0  0  0  0  0  0  0  0  0  0  0
   -2.2451   -3.0832   -0.0510 C   0  0  0  0  0  0  0  0  0  0  0  0
   -3.4781   -3.6058    0.2226 C   0  0  0  0  0  0  0  0  0  0  0  0
   -4.4491   -2.7049    0.6790 C   0  0  0  0  0  0  0  0  0  0  0  0
   -4.1204   -1.3776    0.8274 C   0  0  0  0  0  0  0  0  0  0  0  0
   -2.9132   -0.8850    0.5558 C   0  0  0  0  0  0  0  0  0  0  0  0
   -2.5237    0.5149    0.7073 C   0  0  0  0  0  0  0  0  0  0  0  0
   -1.5721    0.9779   -0.3653 C   0  0  2  0  0  0  0  0  0  0  0  0
   -2.4723    1.3790   -1.5449 C   0  0  0  0  0  0  0  0  0  0  0  0
   -2.7026    0.4639   -2.3951 O   0  0  0  0  0  0  0  0  0  0  0  0
   -2.9222    2.6250   -1.5771 N   0  0  0  0  0  0  0  0  0  0  0  0
   -3.3744    3.8682   -1.6141 O   0  0  0  0  0  0  0  0  0  0  0  0
    5.2450    1.5215    2.8945 H   0  0  0  0  0  0  0  0  0  0  0  0
    6.9710    1.3920    2.4094 H   0  0  0  0  0  0  0  0  0  0  0  0
    6.1846    0.1177    3.4368 H   0  0  0  0  0  0  0  0  0  0  0  0
    4.9727   -1.2711   -0.6697 H   0  0  0  0  0  0  0  0  0  0  0  0
    2.9316   -1.0846   -2.0198 H   0  0  0  0  0  0  0  0  0  0  0  0
    1.5769    1.9876    0.6067 H   0  0  0  0  0  0  0  0  0  0  0  0
    3.5487    1.8148    1.9135 H   0  0  0  0  0  0  0  0  0  0  0  0
   -0.0697   -2.0300   -0.8173 H   0  0  0  0  0  0  0  0  0  0  0  0
   -0.0397   -1.2504    0.7674 H   0  0  0  0  0  0  0  0  0  0  0  0
   -1.4591   -3.7811   -0.4041 H   0  0  0  0  0  0  0  0  0  0  0  0
   -3.7130   -4.6505    0.0952 H   0  0  0  0  0  0  0  0  0  0  0  0
   -5.4306   -3.0654    0.9028 H   0  0  0  0  0  0  0  0  0  0  0  0
   -4.9120   -0.6951    1.1837 H   0  0  0  0  0  0  0  0  0  0  0  0
   -2.0964    0.6289    1.7300 H   0  0  0  0  0  0  0  0  0  0  0  0
   -3.4690    1.1317    0.7183 H   0  0  0  0  0  0  0  0  0  0  0  0
   -1.1072    1.9020   -0.0254 H   0  0  0  0  0  0  0  0  0  0  0  0
   -3.6456    2.4391   -2.7288 H   0  0  0  0  0  0  0  0  0  0  0  0
   -2.7023    4.5906   -1.5129 H   0  0  0  0  0  0  0  0  0  0  0  0
  1  2  1  0
  2  3  1  0
  3  4  2  0
  4  5  1  0
  5  6  2  0
  6  7  1  0
  7  8  2  0
  6  9  1  0
  9 10  2  0
  9 11  2  0
  9 12  1  0
 12 13  1  0
 13 14  1  0
 14 15  2  0
 15 16  1  0
 16 17  2  0
 17 18  1  0
 18 19  2  0
 19 20  1  0
 20 21  1  0
 21 22  1  0
 22 23  2  0
 22 24  1  0
 24 25  1  0
  8  3  1  0
 21 12  1  0
 19 14  1  0
  1 26  1  0
  1 27  1  0
  1 28  1  0
  4 29  1  0
  5 30  1  0
  7 31  1  0
  8 32  1  0
 13 33  1  0
 13 34  1  0
 15 35  1  0
 16 36  1  0
 17 37  1  0
 18 38  1  0
 20 39  1  0
 20 40  1  0
 21 41  1  1
 24 42  1  0
 25 43  1  0
M  END
$$$$
[H]c1nc(N([H])c2c([H])c([H])c(-c3c([H])c([H])c(C([H])([H])[H])c([H])c3[H])c([H])c2OC([H])([H])[H])nc(N([H])c2c([H])c([H])c([H])c([H])c2S(=O)(=O)C([H])(C([H])([H])[H])C([H])([H])[H])c1Cl
     RDKit          3D

 63 66  0  0  0  0  0  0  0  0999 V2000
    3.0294   -3.5832    1.0081 C   0  0  0  0  0  0  0  0  0  0  0  0
    2.3135   -2.4176    0.6449 O   0  0  0  0  0  0  0  0  0  0  0  0
    3.0275   -1.2628    0.3702 C   0  0  0  0  0  0  0  0  0  0  0  0
    4.3971   -1.2231    0.4407 C   0  0  0  0  0  0  0  0  0  0  0  0
    5.1418   -0.1149    0.1806 C   0  0  0  0  0  0  0  0  0  0  0  0
    4.4482    1.0169   -0.1715 C   0  0  0  0  0  0  0  0  0  0  0  0
    3.0549    1.0208   -0.2554 C   0  0  0  0  0  0  0  0  0  0  0  0
    2.3080   -0.1007    0.0081 C   0  0  0  0  0  0  0  0  0  0  0  0
    0.9039   -0.1980   -0.0432 N   0  0  0  0  0  0  0  0  0  0  0  0
   -0.0018    0.7978   -0.4023 C   0  0  0  0  0  0  0  0  0  0  0  0
    0.3154    2.0226   -0.7648 N   0  0  0  0  0  0  0  0  0  0  0  0
   -0.5797    2.9612   -1.1066 C   0  0  0  0  0  0  0  0  0  0  0  0
   -1.9047    2.5945   -1.0672 C   0  0  0  0  0  0  0  0  0  0  0  0
   -3.0984    3.7662   -1.4983 Cl  0  0  0  0  0  0  0  0  0  0  0  0
   -2.3199    1.3024   -0.6893 C   0  0  0  0  0  0  0  0  0  0  0  0
   -3.7009    1.0477   -0.6865 N   0  0  0  0  0  0  0  0  0  0  0  0
   -4.2948   -0.1707   -0.3418 C   0  0  0  0  0  0  0  0  0  0  0  0
   -3.6348   -1.3151    0.0176 C   0  0  0  0  0  0  0  0  0  0  0  0
   -4.2936   -2.5124    0.3479 C   0  0  0  0  0  0  0  0  0  0  0  0
   -5.6610   -2.5578    0.3147 C   0  0  0  0  0  0  0  0  0  0  0  0
   -6.3665   -1.4311   -0.0413 C   0  0  0  0  0  0  0  0  0  0  0  0
   -5.6976   -0.2548   -0.3645 C   0  0  0  0  0  0  0  0  0  0  0  0
   -6.6264    1.1301   -0.8199 S   0  0  0  0  0  0  0  0  0  0  0  0
   -6.3513    1.5051   -2.2522 O   0  0  0  0  0  0  0  0  0  0  0  0
   -6.4270    2.3208    0.0781 O   0  0  0  0  0  0  0  0  0  0  0  0
   -8.3710    0.7366   -0.6750 C   0  0  0  0  0  0  0  0  0  0  0  0
   -9.1226    1.9270   -1.2801 C   0  0  0  0  0  0  0  0  0  0  0  0
   -8.7960    0.5521    0.7526 C   0  0  0  0  0  0  0  0  0  0  0  0
   -1.3368    0.4827   -0.3794 N   0  0  0  0  0  0  0  0  0  0  0  0
    6.5935   -0.1166    0.2663 C   0  0  0  0  0  0  0  0  0  0  0  0
    7.3810   -1.2133   -0.0156 C   0  0  0  0  0  0  0  0  0  0  0  0
    8.7551   -1.2113    0.0683 C   0  0  0  0  0  0  0  0  0  0  0  0
    9.3872   -0.0501    0.4557 C   0  0  0  0  0  0  0  0  0  0  0  0
   10.8652   -0.0520    0.5444 C   0  0  0  0  0  0  0  0  0  0  0  0
    8.6508    1.0944    0.7551 C   0  0  0  0  0  0  0  0  0  0  0  0
    7.2784    1.0221    0.6501 C   0  0  0  0  0  0  0  0  0  0  0  0
    3.7546   -3.8947    0.2088 H   0  0  0  0  0  0  0  0  0  0  0  0
    3.6437   -3.3652    1.9053 H   0  0  0  0  0  0  0  0  0  0  0  0
    2.3556   -4.4536    1.1539 H   0  0  0  0  0  0  0  0  0  0  0  0
    4.8989   -2.1391    0.7219 H   0  0  0  0  0  0  0  0  0  0  0  0
    4.9825    1.9381   -0.3930 H   0  0  0  0  0  0  0  0  0  0  0  0
    2.5865    1.9284   -0.5304 H   0  0  0  0  0  0  0  0  0  0  0  0
    0.5068   -1.1660    0.2337 H   0  0  0  0  0  0  0  0  0  0  0  0
   -0.2551    3.9512   -1.3959 H   0  0  0  0  0  0  0  0  0  0  0  0
   -4.3654    1.8369   -0.9717 H   0  0  0  0  0  0  0  0  0  0  0  0
   -2.5538   -1.3666    0.0670 H   0  0  0  0  0  0  0  0  0  0  0  0
   -3.7198   -3.3880    0.6249 H   0  0  0  0  0  0  0  0  0  0  0  0
   -6.1701   -3.4928    0.5726 H   0  0  0  0  0  0  0  0  0  0  0  0
   -7.4513   -1.5044   -0.0673 H   0  0  0  0  0  0  0  0  0  0  0  0
   -8.6528   -0.1461   -1.2704 H   0  0  0  0  0  0  0  0  0  0  0  0
  -10.1938    1.6910   -1.3614 H   0  0  0  0  0  0  0  0  0  0  0  0
   -8.9087    2.8041   -0.6355 H   0  0  0  0  0  0  0  0  0  0  0  0
   -8.6746    2.0872   -2.2884 H   0  0  0  0  0  0  0  0  0  0  0  0
   -7.9151    0.4910    1.4427 H   0  0  0  0  0  0  0  0  0  0  0  0
   -9.4462   -0.3588    0.8552 H   0  0  0  0  0  0  0  0  0  0  0  0
   -9.4069    1.4232    1.0898 H   0  0  0  0  0  0  0  0  0  0  0  0
    6.8908   -2.1216   -0.3192 H   0  0  0  0  0  0  0  0  0  0  0  0
    9.3524   -2.1028   -0.1634 H   0  0  0  0  0  0  0  0  0  0  0  0
   11.1823    0.9311    0.9803 H   0  0  0  0  0  0  0  0  0  0  0  0
   11.2137   -0.8980    1.1473 H   0  0  0  0  0  0  0  0  0  0  0  0
   11.2550   -0.1046   -0.4971 H   0  0  0  0  0  0  0  0  0  0  0  0
    9.1684    2.0033    1.0600 H   0  0  0  0  0  0  0  0  0  0  0  0
    6.6562    1.9013    0.8765 H   0  0  0  0  0  0  0  0  0  0  0  0
  1  2  1  0
  2  3  1  0
  3  4  2  0
  4  5  1  0
  5  6  2  0
  6  7  1  0
  7  8  2  0
  8  9  1  0
  9 10  1  0
 10 11  2  0
 11 12  1  0
 12 13  2  0
 13 14  1  0
 13 15  1  0
 15 16  1  0
 16 17  1  0
 17 18  2  0
 18 19  1  0
 19 20  2  0
 20 21  1  0
 21 22  2  0
 22 23  1  0
 23 24  2  0
 23 25  2  0
 23 26  1  0
 26 27  1  0
 26 28  1  0
 15 29  2  0
  5 30  1  0
 30 31  2  0
 31 32  1  0
 32 33  2  0
 33 34  1  0
 33 35  1  0
 35 36  2  0
  8  3  1  0
 29 10  1  0
 36 30  1  0
 22 17  1  0
  1 37  1  0
  1 38  1  0
  1 39  1  0
  4 40  1  0
  6 41  1  0
  7 42  1  0
  9 43  1  0
 12 44  1  0
 16 45  1  0
 18 46  1  0
 19 47  1  0
 20 48  1  0
 21 49  1  0
 26 50  1  0
 27 51  1  0
 27 52  1  0
 27 53  1  0
 28 54  1  0
 28 55  1  0
 28 56  1  0
 31 57  1  0
 32 58  1  0
 34 59  1  0
 34 60  1  0
 34 61  1  0
 35 62  1  0
 36 63  1  0
M  END
$$$$
[H]c1nc(N([H])c2c([H])c([H])c(N3C([H])([H])C([H])([H])C([H])([H])C3([H])[H])c([H])c2OC([H])([H])[H])nc(N([H])c2c([H])c([H])c([H])c([H])c2S(=O)(=O)C([H])(C([H])([H])[H])C([H])([H])[H])c1Cl
     RDKit          3D

 62 65  0  0  0  0  0  0  0  0999 V2000
    3.2096   -2.0609    2.6947 C   0  0  0  0  0  0  0  0  0  0  0  0
    2.4224   -1.4133    1.7127 O   0  0  0  0  0  0  0  0  0  0  0  0
    2.9677   -0.3618    0.9953 C   0  0  0  0  0  0  0  0  0  0  0  0
    4.2572    0.0530    1.2291 C   0  0  0  0  0  0  0  0  0  0  0  0
    4.8235    1.0886    0.5366 C   0  0  0  0  0  0  0  0  0  0  0  0
    4.0752    1.7161   -0.4079 C   0  0  0  0  0  0  0  0  0  0  0  0
    2.7540    1.2879   -0.6446 C   0  0  0  0  0  0  0  0  0  0  0  0
    2.1664    0.2666    0.0243 C   0  0  0  0  0  0  0  0  0  0  0  0
    0.8696   -0.1802   -0.1856 N   0  0  0  0  0  0  0  0  0  0  0  0
   -0.1084    0.2853   -1.0961 C   0  0  0  0  0  0  0  0  0  0  0  0
    0.0610    1.2910   -1.9564 N   0  0  0  0  0  0  0  0  0  0  0  0
   -0.8873    1.7043   -2.8056 C   0  0  0  0  0  0  0  0  0  0  0  0
   -2.1134    1.0929   -2.8294 C   0  0  0  0  0  0  0  0  0  0  0  0
   -3.3915    1.5675   -3.9002 Cl  0  0  0  0  0  0  0  0  0  0  0  0
   -2.3447    0.0208   -1.9370 C   0  0  0  0  0  0  0  0  0  0  0  0
   -3.6191   -0.5623   -1.9497 N   0  0  0  0  0  0  0  0  0  0  0  0
   -4.0331   -1.6625   -1.1801 C   0  0  0  0  0  0  0  0  0  0  0  0
   -3.0825   -2.5500   -0.6621 C   0  0  0  0  0  0  0  0  0  0  0  0
   -3.4800   -3.7098   -0.0047 C   0  0  0  0  0  0  0  0  0  0  0  0
   -4.8200   -3.9597    0.1206 C   0  0  0  0  0  0  0  0  0  0  0  0
   -5.7733   -3.1221   -0.3685 C   0  0  0  0  0  0  0  0  0  0  0  0
   -5.4002   -1.9313   -1.0412 C   0  0  0  0  0  0  0  0  0  0  0  0
   -6.6384   -0.8507   -1.5489 S   0  0  0  0  0  0  0  0  0  0  0  0
   -7.9900   -1.6248   -1.4519 O   0  0  0  0  0  0  0  0  0  0  0  0
   -6.4774   -0.4460   -2.9853 O   0  0  0  0  0  0  0  0  0  0  0  0
   -6.8303    0.5130   -0.4913 C   0  0  0  0  0  0  0  0  0  0  0  0
   -7.3705    0.0426    0.8690 C   0  0  0  0  0  0  0  0  0  0  0  0
   -5.5901    1.2834   -0.2036 C   0  0  0  0  0  0  0  0  0  0  0  0
   -1.3250   -0.2996   -1.1400 N   0  0  0  0  0  0  0  0  0  0  0  0
    6.1674    1.4448    0.8462 N   0  0  0  0  0  0  0  0  0  0  0  0
    6.8682    2.5381    0.1883 C   0  0  0  0  0  0  0  0  0  0  0  0
    8.2520    2.5587    0.7521 C   0  0  0  0  0  0  0  0  0  0  0  0
    8.4449    1.1679    1.3147 C   0  0  0  0  0  0  0  0  0  0  0  0
    7.0530    0.8320    1.8113 C   0  0  0  0  0  0  0  0  0  0  0  0
    4.0894   -2.5362    2.1987 H   0  0  0  0  0  0  0  0  0  0  0  0
    2.6755   -2.8565    3.2164 H   0  0  0  0  0  0  0  0  0  0  0  0
    3.5743   -1.2577    3.3766 H   0  0  0  0  0  0  0  0  0  0  0  0
    4.8446   -0.4612    1.9910 H   0  0  0  0  0  0  0  0  0  0  0  0
    4.5234    2.5305   -0.9509 H   0  0  0  0  0  0  0  0  0  0  0  0
    2.2714    1.8655   -1.4148 H   0  0  0  0  0  0  0  0  0  0  0  0
    0.5351   -1.0076    0.4279 H   0  0  0  0  0  0  0  0  0  0  0  0
   -0.7109    2.5334   -3.4969 H   0  0  0  0  0  0  0  0  0  0  0  0
   -4.3140   -0.1463   -2.6066 H   0  0  0  0  0  0  0  0  0  0  0  0
   -2.0227   -2.3788   -0.7743 H   0  0  0  0  0  0  0  0  0  0  0  0
   -2.7473   -4.3997    0.3987 H   0  0  0  0  0  0  0  0  0  0  0  0
   -5.1686   -4.8689    0.6336 H   0  0  0  0  0  0  0  0  0  0  0  0
   -6.8436   -3.3243   -0.2661 H   0  0  0  0  0  0  0  0  0  0  0  0
   -7.6366    1.2216   -0.8449 H   0  0  0  0  0  0  0  0  0  0  0  0
   -8.2066   -0.6669    0.7112 H   0  0  0  0  0  0  0  0  0  0  0  0
   -7.7906    0.9344    1.3833 H   0  0  0  0  0  0  0  0  0  0  0  0
   -6.5680   -0.3436    1.5138 H   0  0  0  0  0  0  0  0  0  0  0  0
   -4.8537    0.7097    0.3759 H   0  0  0  0  0  0  0  0  0  0  0  0
   -5.8201    2.1632    0.4907 H   0  0  0  0  0  0  0  0  0  0  0  0
   -5.2221    1.7511   -1.1308 H   0  0  0  0  0  0  0  0  0  0  0  0
    6.3066    3.4803    0.3755 H   0  0  0  0  0  0  0  0  0  0  0  0
    6.8731    2.3300   -0.9042 H   0  0  0  0  0  0  0  0  0  0  0  0
    8.4205    3.3305    1.5265 H   0  0  0  0  0  0  0  0  0  0  0  0
    8.9618    2.7046   -0.1146 H   0  0  0  0  0  0  0  0  0  0  0  0
    8.6951    0.5113    0.4519 H   0  0  0  0  0  0  0  0  0  0  0  0
    9.2055    1.1239    2.1031 H   0  0  0  0  0  0  0  0  0  0  0  0
    6.8957   -0.2634    1.8903 H   0  0  0  0  0  0  0  0  0  0  0  0
    6.9158    1.3020    2.8021 H   0  0  0  0  0  0  0  0  0  0  0  0
  1  2  1  0
  2  3  1  0
  3  4  2  0
  4  5  1  0
  5  6  2  0
  6  7  1  0
  7  8  2  0
  8  9  1  0
  9 10  1  0
 10 11  2  0
 11 12  1  0
 12 13  2  0
 13 14  1  0
 13 15  1  0
 15 16  1  0
 16 17  1  0
 17 18  2  0
 18 19  1  0
 19 20  2  0
 20 21  1  0
 21 22  2  0
 22 23  1  0
 23 24  2  0
 23 25  2  0
 23 26  1  0
 26 27  1  0
 26 28  1  0
 15 29  2  0
  5 30  1  0
 30 31  1  0
 31 32  1  0
 32 33  1  0
 33 34  1  0
  8  3  1  0
 29 10  1  0
 34 30  1  0
 22 17  1  0
  1 35  1  0
  1 36  1  0
  1 37  1  0
  4 38  1  0
  6 39  1  0
  7 40  1  0
  9 41  1  0
 12 42  1  0
 16 43  1  0
 18 44  1  0
 19 45  1  0
 20 46  1  0
 21 47  1  0
 26 48  1  0
 27 49  1  0
 27 50  1  0
 27 51  1  0
 28 52  1  0
 28 53  1  0
 28 54  1  0
 31 55  1  0
 31 56  1  0
 32 57  1  0
 32 58  1  0
 33 59  1  0
 33 60  1  0
 34 61  1  0
 34 62  1  0
M  END
$$$$
[H]c1nc(C(=O)N([H])c2nn(C3([H])C([H])([H])C3([H])[H])c([H])c2[H])nc(N2C([H])([H])C([H])([H])OC([H])([H])[C@@]2([H])C([H])([H])[H])c1C(=O)N([H])c1c([H])c([H])c(F)c(C(F)(F)F)c1[H]
     RDKit          3D

 61 65  0  0  0  0  0  0  0  0999 V2000
   -0.8416   -4.0286   -0.7794 C   0  0  0  0  0  0  0  0  0  0  0  0
   -0.9977   -3.1442    0.4511 C   0  0  2  0  0  0  0  0  0  0  0  0
   -1.8091   -3.8203    1.4907 C   0  0  0  0  0  0  0  0  0  0  0  0
   -3.1582   -3.5934    1.4920 O   0  0  0  0  0  0  0  0  0  0  0  0
   -3.5919   -2.3579    1.1223 C   0  0  0  0  0  0  0  0  0  0  0  0
   -3.0196   -2.0579   -0.2805 C   0  0  0  0  0  0  0  0  0  0  0  0
   -1.6138   -1.8954   -0.0724 N   0  0  0  0  0  0  0  0  0  0  0  0
   -0.7540   -0.8094   -0.3083 C   0  0  0  0  0  0  0  0  0  0  0  0
    0.5969   -1.0894   -0.2669 N   0  0  0  0  0  0  0  0  0  0  0  0
    1.5550   -0.2110   -0.5149 C   0  0  0  0  0  0  0  0  0  0  0  0
    1.2202    1.0380   -0.8317 N   0  0  0  0  0  0  0  0  0  0  0  0
   -0.0551    1.4184   -0.9004 C   0  0  0  0  0  0  0  0  0  0  0  0
   -1.0548    0.4726   -0.6310 C   0  0  0  0  0  0  0  0  0  0  0  0
   -2.3957    1.0354   -0.6445 C   0  0  0  0  0  0  0  0  0  0  0  0
   -2.8091    1.3592   -1.7870 O   0  0  0  0  0  0  0  0  0  0  0  0
   -3.1937    1.2309    0.4825 N   0  0  0  0  0  0  0  0  0  0  0  0
   -4.4801    1.7580    0.6422 C   0  0  0  0  0  0  0  0  0  0  0  0
   -5.0089    1.9580    1.9054 C   0  0  0  0  0  0  0  0  0  0  0  0
   -6.2582    2.4679    2.0673 C   0  0  0  0  0  0  0  0  0  0  0  0
   -7.0311    2.7992    0.9869 C   0  0  0  0  0  0  0  0  0  0  0  0
   -8.2849    3.3150    1.1015 F   0  0  0  0  0  0  0  0  0  0  0  0
   -6.5502    2.6196   -0.2841 C   0  0  0  0  0  0  0  0  0  0  0  0
   -5.2588    2.0916   -0.4328 C   0  0  0  0  0  0  0  0  0  0  0  0
   -7.3590    2.9725   -1.4861 C   0  0  0  0  0  0  0  0  0  0  0  0
   -8.5198    2.1966   -1.3888 F   0  0  0  0  0  0  0  0  0  0  0  0
   -6.6978    2.5378   -2.6005 F   0  0  0  0  0  0  0  0  0  0  0  0
   -7.6503    4.3238   -1.5223 F   0  0  0  0  0  0  0  0  0  0  0  0
    2.9756   -0.5737   -0.4481 C   0  0  0  0  0  0  0  0  0  0  0  0
    3.2485   -1.7686   -0.2760 O   0  0  0  0  0  0  0  0  0  0  0  0
    3.9536    0.4081   -0.5742 N   0  0  0  0  0  0  0  0  0  0  0  0
    5.3515    0.1413   -0.5092 C   0  0  0  0  0  0  0  0  0  0  0  0
    5.9736   -1.0567   -0.3160 C   0  0  0  0  0  0  0  0  0  0  0  0
    7.3554   -0.8127   -0.3222 C   0  0  0  0  0  0  0  0  0  0  0  0
    7.5332    0.4960   -0.5147 N   0  0  0  0  0  0  0  0  0  0  0  0
    6.3501    1.0598   -0.6247 N   0  0  0  0  0  0  0  0  0  0  0  0
    8.8668    1.0806   -0.5731 C   0  0  0  0  0  0  0  0  0  0  0  0
    9.1288    2.5002   -0.3097 C   0  0  0  0  0  0  0  0  0  0  0  0
    9.3397    1.5621    0.8233 C   0  0  0  0  0  0  0  0  0  0  0  0
   -0.8296   -3.4134   -1.6881 H   0  0  0  0  0  0  0  0  0  0  0  0
    0.0740   -4.6470   -0.6845 H   0  0  0  0  0  0  0  0  0  0  0  0
   -1.7736   -4.6580   -0.8285 H   0  0  0  0  0  0  0  0  0  0  0  0
   -0.0033   -2.9004    0.8489 H   0  0  0  0  0  0  0  0  0  0  0  0
   -1.3589   -3.7030    2.5245 H   0  0  0  0  0  0  0  0  0  0  0  0
   -1.6884   -4.9356    1.2837 H   0  0  0  0  0  0  0  0  0  0  0  0
   -3.2551   -1.5383    1.7936 H   0  0  0  0  0  0  0  0  0  0  0  0
   -4.6907   -2.3736    1.0182 H   0  0  0  0  0  0  0  0  0  0  0  0
   -3.5920   -1.2867   -0.7447 H   0  0  0  0  0  0  0  0  0  0  0  0
   -3.1378   -3.0506   -0.8249 H   0  0  0  0  0  0  0  0  0  0  0  0
   -0.3270    2.4463   -1.1637 H   0  0  0  0  0  0  0  0  0  0  0  0
   -2.7304    0.9104    1.4034 H   0  0  0  0  0  0  0  0  0  0  0  0
   -4.4367    1.7073    2.7854 H   0  0  0  0  0  0  0  0  0  0  0  0
   -6.6912    2.6330    3.0805 H   0  0  0  0  0  0  0  0  0  0  0  0
   -4.9576    1.9758   -1.4804 H   0  0  0  0  0  0  0  0  0  0  0  0
    3.6860    1.4414   -0.7246 H   0  0  0  0  0  0  0  0  0  0  0  0
    5.5490   -2.0405   -0.1749 H   0  0  0  0  0  0  0  0  0  0  0  0
    8.0957   -1.5923   -0.1887 H   0  0  0  0  0  0  0  0  0  0  0  0
    9.5945    0.4706   -1.1525 H   0  0  0  0  0  0  0  0  0  0  0  0
    8.3373    3.2682   -0.2996 H   0  0  0  0  0  0  0  0  0  0  0  0
   10.0841    2.8950   -0.7649 H   0  0  0  0  0  0  0  0  0  0  0  0
    8.6389    1.5172    1.6600 H   0  0  0  0  0  0  0  0  0  0  0  0
   10.3571    1.2511    1.0771 H   0  0  0  0  0  0  0  0  0  0  0  0
  1  2  1  0
  2  3  1  0
  3  4  1  0
  4  5  1  0
  5  6  1  0
  6  7  1  0
  7  8  1  0
  8  9  2  0
  9 10  1  0
 10 11  2  0
 11 12  1  0
 12 13  2  0
 13 14  1  0
 14 15  2  0
 14 16  1  0
 16 17  1  0
 17 18  2  0
 18 19  1  0
 19 20  2  0
 20 21  1  0
 20 22  1  0
 22 23  2  0
 22 24  1  0
 24 25  1  0
 24 26  1  0
 24 27  1  0
 10 28  1  0
 28 29  2  0
 28 30  1  0
 30 31  1  0
 31 32  1  0
 32 33  2  0
 33 34  1  0
 34 35  1  0
 34 36  1  0
 36 37  1  0
 37 38  1  0
  7  2  1  0
 13  8  1  0
 23 17  1  0
 35 31  2  0
 38 36  1  0
  1 39  1  0
  1 40  1  0
  1 41  1  0
  2 42  1  1
  3 43  1  0
  3 44  1  0
  5 45  1  0
  5 46  1  0
  6 47  1  0
  6 48  1  0
 12 49  1  0
 16 50  1  0
 18 51  1  0
 19 52  1  0
 23 53  1  0
 30 54  1  0
 32 55  1  0
 33 56  1  0
 36 57  1  0
 37 58  1  0
 37 59  1  0
 38 60  1  0
 38 61  1  0
M  END
$$$$
[H]c1c([H])c([H])c(C([H])([H])[C@@]([H])(C(=O)N([H])[H])N([H])C(=O)[C@@]([H])(N([H])C(=O)[C@@]([H])(N([H])C(=O)c2c([H])c3c([H])c([H])c([H])c([H])c3n2[H])C([H])([H])c2c([H])c([H])c([H])c([H])c2[H])C([H])([H])[H])c([H])c1[H]
     RDKit          3D

 70 73  0  0  0  0  0  0  0  0999 V2000
   -1.6874    2.2312    1.8990 C   0  0  0  0  0  0  0  0  0  0  0  0
   -1.6281    0.7203    1.7009 C   0  0  2  0  0  0  0  0  0  0  0  0
   -0.5909    0.3839    0.7390 N   0  0  0  0  0  0  0  0  0  0  0  0
    0.6925   -0.0599    1.1488 C   0  0  0  0  0  0  0  0  0  0  0  0
    0.9054   -0.1499    2.3788 O   0  0  0  0  0  0  0  0  0  0  0  0
    1.6904   -0.3827    0.1006 C   0  0  2  0  0  0  0  0  0  0  0  0
    1.4716   -1.7898   -0.4272 C   0  0  0  0  0  0  0  0  0  0  0  0
    2.4147   -2.1729   -1.4660 C   0  0  0  0  0  0  0  0  0  0  0  0
    3.6237   -2.7895   -1.2527 C   0  0  0  0  0  0  0  0  0  0  0  0
    4.4876   -3.1326   -2.2505 C   0  0  0  0  0  0  0  0  0  0  0  0
    4.1502   -2.8550   -3.5527 C   0  0  0  0  0  0  0  0  0  0  0  0
    2.9602   -2.2429   -3.8128 C   0  0  0  0  0  0  0  0  0  0  0  0
    2.0863   -1.8980   -2.7880 C   0  0  0  0  0  0  0  0  0  0  0  0
    3.0568   -0.1904    0.5516 N   0  0  0  0  0  0  0  0  0  0  0  0
    3.8940    0.7245   -0.1062 C   0  0  0  0  0  0  0  0  0  0  0  0
    3.4745    1.3730   -1.0825 O   0  0  0  0  0  0  0  0  0  0  0  0
    5.2644    0.9267    0.3472 C   0  0  0  0  0  0  0  0  0  0  0  0
    6.1808    1.8248   -0.2294 C   0  0  0  0  0  0  0  0  0  0  0  0
    7.3530    1.7234    0.4776 C   0  0  0  0  0  0  0  0  0  0  0  0
    8.5915    2.3452    0.3867 C   0  0  0  0  0  0  0  0  0  0  0  0
    9.6173    2.0437    1.2567 C   0  0  0  0  0  0  0  0  0  0  0  0
    9.4484    1.1032    2.2588 C   0  0  0  0  0  0  0  0  0  0  0  0
    8.2245    0.4851    2.3518 C   0  0  0  0  0  0  0  0  0  0  0  0
    7.1918    0.7872    1.4781 C   0  0  0  0  0  0  0  0  0  0  0  0
    5.9249    0.3473    1.3483 N   0  0  0  0  0  0  0  0  0  0  0  0
   -2.9327    0.3074    1.1556 C   0  0  0  0  0  0  0  0  0  0  0  0
   -2.9772   -0.3027    0.0342 O   0  0  0  0  0  0  0  0  0  0  0  0
   -4.0920    0.6044    1.8902 N   0  0  0  0  0  0  0  0  0  0  0  0
   -5.4073    0.2193    1.3563 C   0  0  1  0  0  0  0  0  0  0  0  0
   -5.7021    0.9556    0.0951 C   0  0  0  0  0  0  0  0  0  0  0  0
   -6.9939    0.6773   -0.5435 C   0  0  0  0  0  0  0  0  0  0  0  0
   -8.1038    1.3809   -0.1162 C   0  0  0  0  0  0  0  0  0  0  0  0
   -9.3193    1.1719   -0.7297 C   0  0  0  0  0  0  0  0  0  0  0  0
   -9.4531    0.2719   -1.7648 C   0  0  0  0  0  0  0  0  0  0  0  0
   -8.3606   -0.4350   -2.2006 C   0  0  0  0  0  0  0  0  0  0  0  0
   -7.1381   -0.2198   -1.5784 C   0  0  0  0  0  0  0  0  0  0  0  0
   -5.5331   -1.2178    1.3534 C   0  0  0  0  0  0  0  0  0  0  0  0
   -6.6603   -1.9735    0.9547 N   0  0  0  0  0  0  0  0  0  0  0  0
   -4.5441   -1.9466    1.7501 O   0  0  0  0  0  0  0  0  0  0  0  0
   -2.6832    2.5371    2.2448 H   0  0  0  0  0  0  0  0  0  0  0  0
   -1.4505    2.7875    0.9775 H   0  0  0  0  0  0  0  0  0  0  0  0
   -0.9717    2.5011    2.7340 H   0  0  0  0  0  0  0  0  0  0  0  0
   -1.3781    0.2927    2.6838 H   0  0  0  0  0  0  0  0  0  0  0  0
   -0.7950    0.4729   -0.3016 H   0  0  0  0  0  0  0  0  0  0  0  0
    1.5113    0.3060   -0.7454 H   0  0  0  0  0  0  0  0  0  0  0  0
    0.4443   -1.7941   -0.8423 H   0  0  0  0  0  0  0  0  0  0  0  0
    1.4729   -2.4592    0.4571 H   0  0  0  0  0  0  0  0  0  0  0  0
    3.9007   -3.0159   -0.2391 H   0  0  0  0  0  0  0  0  0  0  0  0
    5.4525   -3.6252   -2.0739 H   0  0  0  0  0  0  0  0  0  0  0  0
    4.8407   -3.1316   -4.3472 H   0  0  0  0  0  0  0  0  0  0  0  0
    2.7179   -2.0343   -4.8539 H   0  0  0  0  0  0  0  0  0  0  0  0
    1.1681   -1.4197   -3.0739 H   0  0  0  0  0  0  0  0  0  0  0  0
    3.4146   -0.7265    1.3606 H   0  0  0  0  0  0  0  0  0  0  0  0
    5.9565    2.4511   -1.0641 H   0  0  0  0  0  0  0  0  0  0  0  0
    8.6949    3.0713   -0.3994 H   0  0  0  0  0  0  0  0  0  0  0  0
   10.5804    2.5256    1.1829 H   0  0  0  0  0  0  0  0  0  0  0  0
   10.2754    0.8702    2.9481 H   0  0  0  0  0  0  0  0  0  0  0  0
    8.0239   -0.2577    3.1085 H   0  0  0  0  0  0  0  0  0  0  0  0
    5.5110   -0.3826    1.9829 H   0  0  0  0  0  0  0  0  0  0  0  0
   -4.0040    1.1059    2.8252 H   0  0  0  0  0  0  0  0  0  0  0  0
   -6.1266    0.6370    2.1246 H   0  0  0  0  0  0  0  0  0  0  0  0
   -5.7112    2.0815    0.2885 H   0  0  0  0  0  0  0  0  0  0  0  0
   -4.8935    0.8564   -0.6732 H   0  0  0  0  0  0  0  0  0  0  0  0
   -8.0611    2.0971    0.6869 H   0  0  0  0  0  0  0  0  0  0  0  0
  -10.1864    1.7398   -0.3773 H   0  0  0  0  0  0  0  0  0  0  0  0
  -10.4328    0.1167   -2.2458 H   0  0  0  0  0  0  0  0  0  0  0  0
   -8.4039   -1.1610   -3.0134 H   0  0  0  0  0  0  0  0  0  0  0  0
   -6.2752   -0.7806   -1.9300 H   0  0  0  0  0  0  0  0  0  0  0  0
   -7.6310   -1.6593    1.2181 H   0  0  0  0  0  0  0  0  0  0  0  0
   -6.5416   -2.8515    0.3959 H   0  0  0  0  0  0  0  0  0  0  0  0
  1  2  1  0
  2  3  1  0
  3  4  1  0
  4  5  2  0
  4  6  1  0
  6  7  1  0
  7  8  1  0
  8  9  2  0
  9 10  1  0
 10 11  2  0
 11 12  1  0
 12 13  2  0
  6 14  1  0
 14 15  1  0
 15 16  2  0
 15 17  1  0
 17 18  2  0
 18 19  1  0
 19 20  2  0
 20 21  1  0
 21 22  2  0
 22 23  1  0
 23 24  2  0
 24 25  1  0
  2 26  1  0
 26 27  2  0
 26 28  1  0
 28 29  1  0
 29 30  1  0
 30 31  1  0
 31 32  2  0
 32 33  1  0
 33 34  2  0
 34 35  1  0
 35 36  2  0
 29 37  1  0
 37 38  1  0
 37 39  2  0
 13  8  1  0
 25 17  1  0
 36 31  1  0
 24 19  1  0
  1 40  1  0
  1 41  1  0
  1 42  1  0
  2 43  1  1
  3 44  1  0
  6 45  1  6
  7 46  1  0
  7 47  1  0
  9 48  1  0
 10 49  1  0
 11 50  1  0
 12 51  1  0
 13 52  1  0
 14 53  1  0
 18 54  1  0
 20 55  1  0
 21 56  1  0
 22 57  1  0
 23 58  1  0
 25 59  1  0
 28 60  1  0
 29 61  1  1
 30 62  1  0
 30 63  1  0
 32 64  1  0
 33 65  1  0
 34 66  1  0
 35 67  1  0
 36 68  1  0
 38 69  1  0
 38 70  1  0
M  END
$$$$
[H]OC(=O)[C@]1([H])C([H])([H])C([H])([H])[C@@]([H])(n2c([H])c(-c3c([H])c([H])c([H])c(N([H])C(=O)N([H])c4c([H])c([H])c([H])c(C(F)(F)F)c4[H])c3[H])c3c(N([H])[H])nc([H])nc32)C([H])([H])C1([H])[H]
     RDKit          3D

 64 68  0  0  0  0  0  0  0  0999 V2000
    0.2280   -3.0129    1.7143 N   0  0  0  0  0  0  0  0  0  0  0  0
    1.5280   -2.4566    1.8114 C   0  0  0  0  0  0  0  0  0  0  0  0
    2.3519   -2.8123    2.8157 N   0  0  0  0  0  0  0  0  0  0  0  0
    3.6197   -2.3150    2.9085 C   0  0  0  0  0  0  0  0  0  0  0  0
    4.0742   -1.4484    1.9880 N   0  0  0  0  0  0  0  0  0  0  0  0
    3.3099   -1.0526    0.9692 C   0  0  0  0  0  0  0  0  0  0  0  0
    3.5667   -0.2106   -0.0649 N   0  0  0  0  0  0  0  0  0  0  0  0
    2.4649   -0.1744   -0.7997 C   0  0  0  0  0  0  0  0  0  0  0  0
    1.4766   -1.0052   -0.2397 C   0  0  0  0  0  0  0  0  0  0  0  0
    0.1363   -1.1712   -0.8197 C   0  0  0  0  0  0  0  0  0  0  0  0
    0.0592   -1.6136   -2.1574 C   0  0  0  0  0  0  0  0  0  0  0  0
   -1.1462   -1.7663   -2.7594 C   0  0  0  0  0  0  0  0  0  0  0  0
   -2.3151   -1.4885   -2.0727 C   0  0  0  0  0  0  0  0  0  0  0  0
   -2.3087   -1.0521   -0.7714 C   0  0  0  0  0  0  0  0  0  0  0  0
   -3.4614   -0.7452   -0.0106 N   0  0  0  0  0  0  0  0  0  0  0  0
   -4.7838   -0.5541   -0.4068 C   0  0  0  0  0  0  0  0  0  0  0  0
   -5.1194   -0.6339   -1.6041 O   0  0  0  0  0  0  0  0  0  0  0  0
   -5.7463   -0.2679    0.5794 N   0  0  0  0  0  0  0  0  0  0  0  0
   -7.1003   -0.0647    0.2930 C   0  0  0  0  0  0  0  0  0  0  0  0
   -7.9730   -1.1347    0.1199 C   0  0  0  0  0  0  0  0  0  0  0  0
   -9.3131   -0.9123   -0.1320 C   0  0  0  0  0  0  0  0  0  0  0  0
   -9.8245    0.3821   -0.2177 C   0  0  0  0  0  0  0  0  0  0  0  0
   -8.9854    1.4482   -0.0520 C   0  0  0  0  0  0  0  0  0  0  0  0
   -7.6719    1.1975    0.1950 C   0  0  0  0  0  0  0  0  0  0  0  0
   -9.5513    2.8264   -0.1430 C   0  0  0  0  0  0  0  0  0  0  0  0
   -9.0858    3.5413    0.9667 F   0  0  0  0  0  0  0  0  0  0  0  0
   -9.0737    3.4012   -1.3008 F   0  0  0  0  0  0  0  0  0  0  0  0
  -10.9206    2.7853   -0.1617 F   0  0  0  0  0  0  0  0  0  0  0  0
   -1.0395   -0.9127   -0.1976 C   0  0  0  0  0  0  0  0  0  0  0  0
    2.0079   -1.5582    0.8687 C   0  0  0  0  0  0  0  0  0  0  0  0
    4.8048    0.4856   -0.3099 C   0  0  2  0  0  0  0  0  0  0  0  0
    5.9986   -0.2130    0.3445 C   0  0  0  0  0  0  0  0  0  0  0  0
    7.2094    0.3351   -0.3797 C   0  0  0  0  0  0  0  0  0  0  0  0
    7.3496    1.8224   -0.1154 C   0  0  2  0  0  0  0  0  0  0  0  0
    6.0759    2.5733   -0.3861 C   0  0  0  0  0  0  0  0  0  0  0  0
    4.8284    1.8927    0.1747 C   0  0  0  0  0  0  0  0  0  0  0  0
    8.3785    2.3192   -1.0526 C   0  0  0  0  0  0  0  0  0  0  0  0
    9.0559    3.5083   -0.8392 O   0  0  0  0  0  0  0  0  0  0  0  0
    8.6469    1.6255   -2.0905 O   0  0  0  0  0  0  0  0  0  0  0  0
   -0.5519   -2.7088    2.3546 H   0  0  0  0  0  0  0  0  0  0  0  0
   -0.0265   -3.7478    1.0023 H   0  0  0  0  0  0  0  0  0  0  0  0
    4.2867   -2.5936    3.7080 H   0  0  0  0  0  0  0  0  0  0  0  0
    2.3165    0.4051   -1.6991 H   0  0  0  0  0  0  0  0  0  0  0  0
    1.0051   -1.8224   -2.6592 H   0  0  0  0  0  0  0  0  0  0  0  0
   -1.2233   -2.1088   -3.7806 H   0  0  0  0  0  0  0  0  0  0  0  0
   -3.2411   -1.6276   -2.5895 H   0  0  0  0  0  0  0  0  0  0  0  0
   -3.2909   -0.6520    1.0499 H   0  0  0  0  0  0  0  0  0  0  0  0
   -5.4388   -0.2049    1.5977 H   0  0  0  0  0  0  0  0  0  0  0  0
   -7.5349   -2.1307    0.1842 H   0  0  0  0  0  0  0  0  0  0  0  0
   -9.9830   -1.7456   -0.2700 H   0  0  0  0  0  0  0  0  0  0  0  0
  -10.8728    0.4887   -0.4067 H   0  0  0  0  0  0  0  0  0  0  0  0
   -6.9984    2.0258    0.3325 H   0  0  0  0  0  0  0  0  0  0  0  0
   -1.0230   -0.5349    0.8269 H   0  0  0  0  0  0  0  0  0  0  0  0
    5.0501    0.4978   -1.4092 H   0  0  0  0  0  0  0  0  0  0  0  0
    6.0126    0.1085    1.4176 H   0  0  0  0  0  0  0  0  0  0  0  0
    5.9581   -1.2909    0.2045 H   0  0  0  0  0  0  0  0  0  0  0  0
    8.1218   -0.1568    0.0010 H   0  0  0  0  0  0  0  0  0  0  0  0
    7.0629    0.1697   -1.4630 H   0  0  0  0  0  0  0  0  0  0  0  0
    7.6780    1.9445    0.9420 H   0  0  0  0  0  0  0  0  0  0  0  0
    6.1745    3.6021    0.0128 H   0  0  0  0  0  0  0  0  0  0  0  0
    5.9132    2.5901   -1.4889 H   0  0  0  0  0  0  0  0  0  0  0  0
    3.9714    2.4675   -0.2355 H   0  0  0  0  0  0  0  0  0  0  0  0
    4.8322    1.9584    1.2768 H   0  0  0  0  0  0  0  0  0  0  0  0
   10.0503    3.4984   -0.5592 H   0  0  0  0  0  0  0  0  0  0  0  0
  1  2  1  0
  2  3  2  0
  3  4  1  0
  4  5  2  0
  5  6  1  0
  6  7  1  0
  7  8  1  0
  8  9  2  0
  9 10  1  0
 10 11  2  0
 11 12  1  0
 12 13  2  0
 13 14  1  0
 14 15  1  0
 15 16  1  0
 16 17  2  0
 16 18  1  0
 18 19  1  0
 19 20  2  0
 20 21  1  0
 21 22  2  0
 22 23  1  0
 23 24  2  0
 23 25  1  0
 25 26  1  0
 25 27  1  0
 25 28  1  0
 14 29  2  0
  9 30  1  0
  7 31  1  0
 31 32  1  0
 32 33  1  0
 33 34  1  0
 34 35  1  0
 35 36  1  0
 34 37  1  0
 37 38  1  0
 37 39  2  0
 30  2  1  0
 36 31  1  0
 30  6  2  0
 29 10  1  0
 24 19  1  0
  1 40  1  0
  1 41  1  0
  4 42  1  0
  8 43  1  0
 11 44  1  0
 12 45  1  0
 13 46  1  0
 15 47  1  0
 18 48  1  0
 20 49  1  0
 21 50  1  0
 22 51  1  0
 24 52  1  0
 29 53  1  0
 31 54  1  6
 32 55  1  0
 32 56  1  0
 33 57  1  0
 33 58  1  0
 34 59  1  1
 35 60  1  0
 35 61  1  0
 36 62  1  0
 36 63  1  0
 38 64  1  0
M  END
$$$$
[H]c1c([H])c([H])c(C([H])([H])OC(=O)N2C([H])([H])C([H])([H])N([C@]3([H])C([H])([H])C([H])([H])[C@]([H])(N([H])S(=O)(=O)c4c([H])c([H])c([H])c(OC([H])([H])[H])c4[H])C([H])([H])C3([H])[H])C([H])([H])C2([H])[H])c([H])c1[H]
     RDKit          3D

 67 70  0  0  0  0  0  0  0  0999 V2000
    8.4565   -2.5920   -2.2742 C   0  0  0  0  0  0  0  0  0  0  0  0
    8.5824   -2.2107   -0.9275 O   0  0  0  0  0  0  0  0  0  0  0  0
    7.8486   -1.1536   -0.3600 C   0  0  0  0  0  0  0  0  0  0  0  0
    8.0416   -0.8535    0.9798 C   0  0  0  0  0  0  0  0  0  0  0  0
    7.3217    0.1817    1.5317 C   0  0  0  0  0  0  0  0  0  0  0  0
    6.4255    0.9112    0.7788 C   0  0  0  0  0  0  0  0  0  0  0  0
    6.2572    0.5921   -0.5368 C   0  0  0  0  0  0  0  0  0  0  0  0
    6.9628   -0.4325   -1.1039 C   0  0  0  0  0  0  0  0  0  0  0  0
    5.1270    1.4984   -1.5094 S   0  0  0  0  0  0  0  0  0  0  0  0
    5.6138    1.6178   -2.9258 O   0  0  0  0  0  0  0  0  0  0  0  0
    5.0838    2.8967   -0.9487 O   0  0  0  0  0  0  0  0  0  0  0  0
    3.5666    0.7801   -1.5343 N   0  0  0  0  0  0  0  0  0  0  0  0
    2.9845    0.7237   -0.2163 C   0  0  1  0  0  0  0  0  0  0  0  0
    1.6758    1.4843   -0.1437 C   0  0  0  0  0  0  0  0  0  0  0  0
    1.0889    1.1962    1.2446 C   0  0  0  0  0  0  0  0  0  0  0  0
    0.4661   -0.1788    1.1886 C   0  0  2  0  0  0  0  0  0  0  0  0
    1.1962   -0.9912    0.1492 C   0  0  0  0  0  0  0  0  0  0  0  0
    2.6858   -0.7119    0.1981 C   0  0  0  0  0  0  0  0  0  0  0  0
   -0.9245   -0.0617    0.9530 N   0  0  0  0  0  0  0  0  0  0  0  0
   -1.6648    0.6032    1.9771 C   0  0  0  0  0  0  0  0  0  0  0  0
   -2.9225    1.1667    1.2965 C   0  0  0  0  0  0  0  0  0  0  0  0
   -3.5732    0.0636    0.6342 N   0  0  0  0  0  0  0  0  0  0  0  0
   -2.8320   -0.8400   -0.2153 C   0  0  0  0  0  0  0  0  0  0  0  0
   -1.6030   -1.2697    0.5981 C   0  0  0  0  0  0  0  0  0  0  0  0
   -4.9743   -0.1461    0.8160 C   0  0  0  0  0  0  0  0  0  0  0  0
   -5.6570    0.6282    1.5558 O   0  0  0  0  0  0  0  0  0  0  0  0
   -5.6445   -1.1852    0.2056 O   0  0  0  0  0  0  0  0  0  0  0  0
   -7.0214   -1.4293    0.3507 C   0  0  0  0  0  0  0  0  0  0  0  0
   -7.7800   -0.2622   -0.1592 C   0  0  0  0  0  0  0  0  0  0  0  0
   -7.2548    0.6264   -1.0601 C   0  0  0  0  0  0  0  0  0  0  0  0
   -8.0031    1.6853   -1.4956 C   0  0  0  0  0  0  0  0  0  0  0  0
   -9.2798    1.8544   -1.0277 C   0  0  0  0  0  0  0  0  0  0  0  0
   -9.8017    0.9625   -0.1257 C   0  0  0  0  0  0  0  0  0  0  0  0
   -9.0710   -0.1114    0.3290 C   0  0  0  0  0  0  0  0  0  0  0  0
    7.3860   -2.6090   -2.6213 H   0  0  0  0  0  0  0  0  0  0  0  0
    8.8048   -3.6449   -2.4285 H   0  0  0  0  0  0  0  0  0  0  0  0
    9.0327   -1.9784   -2.9742 H   0  0  0  0  0  0  0  0  0  0  0  0
    8.7467   -1.4265    1.5742 H   0  0  0  0  0  0  0  0  0  0  0  0
    7.4306    0.4679    2.5869 H   0  0  0  0  0  0  0  0  0  0  0  0
    5.8614    1.7375    1.2406 H   0  0  0  0  0  0  0  0  0  0  0  0
    6.8460   -0.7071   -2.1585 H   0  0  0  0  0  0  0  0  0  0  0  0
    3.6446   -0.2011   -1.8811 H   0  0  0  0  0  0  0  0  0  0  0  0
    3.6561    1.1597    0.5452 H   0  0  0  0  0  0  0  0  0  0  0  0
    1.8275    2.5807   -0.1959 H   0  0  0  0  0  0  0  0  0  0  0  0
    0.9666    1.2113   -0.9326 H   0  0  0  0  0  0  0  0  0  0  0  0
    1.9235    1.2436    1.9802 H   0  0  0  0  0  0  0  0  0  0  0  0
    0.3578    2.0090    1.4142 H   0  0  0  0  0  0  0  0  0  0  0  0
    0.7018   -0.6637    2.1839 H   0  0  0  0  0  0  0  0  0  0  0  0
    0.8559   -0.8234   -0.8717 H   0  0  0  0  0  0  0  0  0  0  0  0
    1.0778   -2.0612    0.4483 H   0  0  0  0  0  0  0  0  0  0  0  0
    3.0671   -0.9048    1.2285 H   0  0  0  0  0  0  0  0  0  0  0  0
    3.2043   -1.4009   -0.4816 H   0  0  0  0  0  0  0  0  0  0  0  0
   -1.1409    1.3440    2.5717 H   0  0  0  0  0  0  0  0  0  0  0  0
   -2.0876   -0.1938    2.6639 H   0  0  0  0  0  0  0  0  0  0  0  0
   -2.5370    1.9249    0.5688 H   0  0  0  0  0  0  0  0  0  0  0  0
   -3.5616    1.6119    2.0651 H   0  0  0  0  0  0  0  0  0  0  0  0
   -2.4230   -0.2331   -1.0555 H   0  0  0  0  0  0  0  0  0  0  0  0
   -3.4317   -1.6941   -0.5291 H   0  0  0  0  0  0  0  0  0  0  0  0
   -1.9930   -1.7431    1.5352 H   0  0  0  0  0  0  0  0  0  0  0  0
   -0.9898   -2.0018    0.0640 H   0  0  0  0  0  0  0  0  0  0  0  0
   -7.2075   -1.5718    1.4499 H   0  0  0  0  0  0  0  0  0  0  0  0
   -7.2956   -2.3604   -0.1775 H   0  0  0  0  0  0  0  0  0  0  0  0
   -6.2425    0.5056   -1.4420 H   0  0  0  0  0  0  0  0  0  0  0  0
   -7.6320    2.4188   -2.2105 H   0  0  0  0  0  0  0  0  0  0  0  0
   -9.9063    2.6918   -1.3561 H   0  0  0  0  0  0  0  0  0  0  0  0
  -10.8241    1.0893    0.2549 H   0  0  0  0  0  0  0  0  0  0  0  0
   -9.4956   -0.8193    1.0492 H   0  0  0  0  0  0  0  0  0  0  0  0
  1  2  1  0
  2  3  1  0
  3  4  2  0
  4  5  1  0
  5  6  2  0
  6  7  1  0
  7  8  2  0
  7  9  1  0
  9 10  2  0
  9 11  2  0
  9 12  1  0
 12 13  1  0
 13 14  1  0
 14 15  1  0
 15 16  1  0
 16 17  1  0
 17 18  1  0
 16 19  1  0
 19 20  1  0
 20 21  1  0
 21 22  1  0
 22 23  1  0
 23 24  1  0
 22 25  1  0
 25 26  2  0
 25 27  1  0
 27 28  1  0
 28 29  1  0
 29 30  2  0
 30 31  1  0
 31 32  2  0
 32 33  1  0
 33 34  2  0
  8  3  1  0
 18 13  1  0
 24 19  1  0
 34 29  1  0
  1 35  1  0
  1 36  1  0
  1 37  1  0
  4 38  1  0
  5 39  1  0
  6 40  1  0
  8 41  1  0
 12 42  1  0
 13 43  1  1
 14 44  1  0
 14 45  1  0
 15 46  1  0
 15 47  1  0
 16 48  1  1
 17 49  1  0
 17 50  1  0
 18 51  1  0
 18 52  1  0
 20 53  1  0
 20 54  1  0
 21 55  1  0
 21 56  1  0
 23 57  1  0
 23 58  1  0
 24 59  1  0
 24 60  1  0
 28 61  1  0
 28 62  1  0
 30 63  1  0
 31 64  1  0
 32 65  1  0
 33 66  1  0
 34 67  1  0
M  END
$$$$
[H]O[C@@]([H])(C(=O)N1C([H])([H])C([H])([H])C([H])(c2c([H])c([H])c(-c3c([H])nc4c(c3[H])c([H])c(C(=O)N([H])[H])n4[H])c([H])c2[H])C([H])([H])C1([H])[H])C([H])([H])[H]
     RDKit          3D

 53 56  0  0  0  0  0  0  0  0999 V2000
   -8.2824   -0.1894    0.4566 C   0  0  0  0  0  0  0  0  0  0  0  0
   -7.2668    0.4268   -0.5126 C   0  0  1  0  0  0  0  0  0  0  0  0
   -7.0183    1.7383   -0.2193 O   0  0  0  0  0  0  0  0  0  0  0  0
   -6.0995   -0.4368   -0.6309 C   0  0  0  0  0  0  0  0  0  0  0  0
   -6.3236   -1.6572   -0.9599 O   0  0  0  0  0  0  0  0  0  0  0  0
   -4.7684   -0.0589   -0.4206 N   0  0  0  0  0  0  0  0  0  0  0  0
   -4.3631    1.2655   -0.0315 C   0  0  0  0  0  0  0  0  0  0  0  0
   -2.8652    1.3923    0.1477 C   0  0  0  0  0  0  0  0  0  0  0  0
   -2.3075    0.2992    1.0191 C   0  0  0  0  0  0  0  0  0  0  0  0
   -2.8895   -1.0488    0.6833 C   0  0  0  0  0  0  0  0  0  0  0  0
   -3.6750   -1.0301   -0.6030 C   0  0  0  0  0  0  0  0  0  0  0  0
   -0.8350    0.2969    0.8756 C   0  0  0  0  0  0  0  0  0  0  0  0
    0.0004    0.5536    1.9700 C   0  0  0  0  0  0  0  0  0  0  0  0
    1.3705    0.5464    1.8136 C   0  0  0  0  0  0  0  0  0  0  0  0
    1.9753    0.2895    0.5889 C   0  0  0  0  0  0  0  0  0  0  0  0
    1.1521    0.0386   -0.4802 C   0  0  0  0  0  0  0  0  0  0  0  0
   -0.2284    0.0438   -0.3327 C   0  0  0  0  0  0  0  0  0  0  0  0
    3.4294    0.2881    0.4413 C   0  0  0  0  0  0  0  0  0  0  0  0
    4.2573    1.1021    1.1920 C   0  0  0  0  0  0  0  0  0  0  0  0
    5.5947    1.0795    1.0374 N   0  0  0  0  0  0  0  0  0  0  0  0
    6.2121    0.2735    0.1526 C   0  0  0  0  0  0  0  0  0  0  0  0
    7.5059    0.0632   -0.1896 N   0  0  0  0  0  0  0  0  0  0  0  0
    7.5855   -0.8709   -1.1521 C   0  0  0  0  0  0  0  0  0  0  0  0
    6.3002   -1.2588   -1.4222 C   0  0  0  0  0  0  0  0  0  0  0  0
    5.4109   -0.5502   -0.6105 C   0  0  0  0  0  0  0  0  0  0  0  0
    4.0362   -0.5475   -0.4724 C   0  0  0  0  0  0  0  0  0  0  0  0
    8.8354   -1.3423   -1.7573 C   0  0  0  0  0  0  0  0  0  0  0  0
   10.0971   -0.8417   -1.3704 N   0  0  0  0  0  0  0  0  0  0  0  0
    8.8132   -2.2302   -2.6624 O   0  0  0  0  0  0  0  0  0  0  0  0
   -7.6915   -0.5860    1.3333 H   0  0  0  0  0  0  0  0  0  0  0  0
   -8.7838   -1.0664    0.0134 H   0  0  0  0  0  0  0  0  0  0  0  0
   -8.9853    0.5889    0.8186 H   0  0  0  0  0  0  0  0  0  0  0  0
   -7.8133    0.4207   -1.5035 H   0  0  0  0  0  0  0  0  0  0  0  0
   -7.5002    2.0657    0.5997 H   0  0  0  0  0  0  0  0  0  0  0  0
   -4.8849    1.6239    0.9002 H   0  0  0  0  0  0  0  0  0  0  0  0
   -4.6565    1.9647   -0.8348 H   0  0  0  0  0  0  0  0  0  0  0  0
   -2.6820    2.3572    0.6587 H   0  0  0  0  0  0  0  0  0  0  0  0
   -2.3143    1.4134   -0.8085 H   0  0  0  0  0  0  0  0  0  0  0  0
   -2.5423    0.5226    2.0770 H   0  0  0  0  0  0  0  0  0  0  0  0
   -2.0746   -1.8007    0.6147 H   0  0  0  0  0  0  0  0  0  0  0  0
   -3.5836   -1.3939    1.4770 H   0  0  0  0  0  0  0  0  0  0  0  0
   -3.0953   -0.7353   -1.4877 H   0  0  0  0  0  0  0  0  0  0  0  0
   -4.1372   -2.0154   -0.7332 H   0  0  0  0  0  0  0  0  0  0  0  0
   -0.4177    0.7597    2.9465 H   0  0  0  0  0  0  0  0  0  0  0  0
    2.0511    0.7446    2.6568 H   0  0  0  0  0  0  0  0  0  0  0  0
    1.6043   -0.1620   -1.4348 H   0  0  0  0  0  0  0  0  0  0  0  0
   -0.7886   -0.1657   -1.2396 H   0  0  0  0  0  0  0  0  0  0  0  0
    3.7862    1.7575    1.9083 H   0  0  0  0  0  0  0  0  0  0  0  0
    8.2764    0.6023    0.2857 H   0  0  0  0  0  0  0  0  0  0  0  0
    6.0281   -2.0072   -2.1604 H   0  0  0  0  0  0  0  0  0  0  0  0
    3.4276   -1.1951   -1.0746 H   0  0  0  0  0  0  0  0  0  0  0  0
   10.9164   -1.4696   -1.3811 H   0  0  0  0  0  0  0  0  0  0  0  0
   10.2077    0.1415   -1.0783 H   0  0  0  0  0  0  0  0  0  0  0  0
  1  2  1  0
  2  3  1  0
  2  4  1  0
  4  5  2  0
  4  6  1  0
  6  7  1  0
  7  8  1  0
  8  9  1  0
  9 10  1  0
 10 11  1  0
  9 12  1  0
 12 13  2  0
 13 14  1  0
 14 15  2  0
 15 16  1  0
 16 17  2  0
 15 18  1  0
 18 19  2  0
 19 20  1  0
 20 21  2  0
 21 22  1  0
 22 23  1  0
 23 24  2  0
 24 25  1  0
 25 26  2  0
 23 27  1  0
 27 28  1  0
 27 29  2  0
 11  6  1  0
 17 12  1  0
 26 18  1  0
 25 21  1  0
  1 30  1  0
  1 31  1  0
  1 32  1  0
  2 33  1  6
  3 34  1  0
  7 35  1  0
  7 36  1  0
  8 37  1  0
  8 38  1  0
  9 39  1  0
 10 40  1  0
 10 41  1  0
 11 42  1  0
 11 43  1  0
 13 44  1  0
 14 45  1  0
 16 46  1  0
 17 47  1  0
 19 48  1  0
 22 49  1  0
 24 50  1  0
 26 51  1  0
 28 52  1  0
 28 53  1  0
M  END
$$$$
[H]c1c([H])c(F)c(S(=O)(=O)N([H])[C@]2([H])C([H])([H])C([H])([H])[C@@]([H])(c3c([H])c([H])c(N4C([H])([H])C([H])([H])N(C([H])([H])[H])C([H])([H])C4([H])[H])c([H])c3[H])C([H])([H])C2([H])[H])c(F)c1[H]
     RDKit          3D

 60 63  0  0  0  0  0  0  0  0999 V2000
   -6.8126    1.6806   -1.5706 C   0  0  0  0  0  0  0  0  0  0  0  0
   -7.4146    0.7141   -0.6993 N   0  0  0  0  0  0  0  0  0  0  0  0
   -7.1984   -0.6431   -1.0907 C   0  0  0  0  0  0  0  0  0  0  0  0
   -5.7740   -1.0556   -0.9650 C   0  0  0  0  0  0  0  0  0  0  0  0
   -4.9948   -0.2286   -0.0719 N   0  0  0  0  0  0  0  0  0  0  0  0
   -5.5532    0.7973    0.7830 C   0  0  0  0  0  0  0  0  0  0  0  0
   -7.0528    0.8603    0.6829 C   0  0  0  0  0  0  0  0  0  0  0  0
   -3.5931   -0.4353   -0.0305 C   0  0  0  0  0  0  0  0  0  0  0  0
   -2.7588    0.3093    0.7965 C   0  0  0  0  0  0  0  0  0  0  0  0
   -1.3953    0.1183    0.8462 C   0  0  0  0  0  0  0  0  0  0  0  0
   -0.8209   -0.8482    0.0479 C   0  0  0  0  0  0  0  0  0  0  0  0
   -1.6100   -1.6082   -0.7858 C   0  0  0  0  0  0  0  0  0  0  0  0
   -2.9900   -1.3903   -0.8133 C   0  0  0  0  0  0  0  0  0  0  0  0
    0.6380   -1.0928    0.0637 C   0  0  1  0  0  0  0  0  0  0  0  0
    1.3292    0.1534   -0.4309 C   0  0  0  0  0  0  0  0  0  0  0  0
    2.8238    0.0440   -0.3157 C   0  0  0  0  0  0  0  0  0  0  0  0
    3.2796   -0.2557    1.1003 C   0  0  1  0  0  0  0  0  0  0  0  0
    2.0999   -0.5180    2.0151 C   0  0  0  0  0  0  0  0  0  0  0  0
    1.1257   -1.5076    1.4324 C   0  0  0  0  0  0  0  0  0  0  0  0
    4.2162   -1.3158    1.0830 N   0  0  0  0  0  0  0  0  0  0  0  0
    5.7993   -0.9642    1.6000 S   0  0  0  0  0  0  0  0  0  0  0  0
    5.6951   -0.4954    3.0419 O   0  0  0  0  0  0  0  0  0  0  0  0
    6.5719   -2.2591    1.6641 O   0  0  0  0  0  0  0  0  0  0  0  0
    6.6172    0.2237    0.6477 C   0  0  0  0  0  0  0  0  0  0  0  0
    7.2225   -0.1705   -0.5318 C   0  0  0  0  0  0  0  0  0  0  0  0
    7.1389   -1.4700   -0.9208 F   0  0  0  0  0  0  0  0  0  0  0  0
    7.8976    0.7538   -1.2917 C   0  0  0  0  0  0  0  0  0  0  0  0
    7.9875    2.0783   -0.9032 C   0  0  0  0  0  0  0  0  0  0  0  0
    7.3853    2.4605    0.2672 C   0  0  0  0  0  0  0  0  0  0  0  0
    6.6971    1.5346    1.0493 C   0  0  0  0  0  0  0  0  0  0  0  0
    6.1455    1.9691    2.2032 F   0  0  0  0  0  0  0  0  0  0  0  0
   -6.9008    1.3113   -2.6157 H   0  0  0  0  0  0  0  0  0  0  0  0
   -5.7536    1.8780   -1.3827 H   0  0  0  0  0  0  0  0  0  0  0  0
   -7.3954    2.6319   -1.4999 H   0  0  0  0  0  0  0  0  0  0  0  0
   -7.5091   -0.8143   -2.1630 H   0  0  0  0  0  0  0  0  0  0  0  0
   -7.8218   -1.2871   -0.4233 H   0  0  0  0  0  0  0  0  0  0  0  0
   -5.6472   -2.1061   -0.6335 H   0  0  0  0  0  0  0  0  0  0  0  0
   -5.2683   -0.9834   -1.9692 H   0  0  0  0  0  0  0  0  0  0  0  0
   -5.0789    1.7945    0.5904 H   0  0  0  0  0  0  0  0  0  0  0  0
   -5.3049    0.5321    1.8298 H   0  0  0  0  0  0  0  0  0  0  0  0
   -7.4610   -0.0283    1.2220 H   0  0  0  0  0  0  0  0  0  0  0  0
   -7.3913    1.8140    1.1215 H   0  0  0  0  0  0  0  0  0  0  0  0
   -3.2237    1.0530    1.4070 H   0  0  0  0  0  0  0  0  0  0  0  0
   -0.7367    0.6929    1.4867 H   0  0  0  0  0  0  0  0  0  0  0  0
   -1.1558   -2.3638   -1.4091 H   0  0  0  0  0  0  0  0  0  0  0  0
   -3.5724   -2.0093   -1.4824 H   0  0  0  0  0  0  0  0  0  0  0  0
    0.8887   -1.9041   -0.6452 H   0  0  0  0  0  0  0  0  0  0  0  0
    0.9824    0.9994    0.1996 H   0  0  0  0  0  0  0  0  0  0  0  0
    1.0842    0.2758   -1.4945 H   0  0  0  0  0  0  0  0  0  0  0  0
    3.2657    0.9797   -0.7160 H   0  0  0  0  0  0  0  0  0  0  0  0
    3.1666   -0.7692   -0.9938 H   0  0  0  0  0  0  0  0  0  0  0  0
    3.7396    0.6741    1.4660 H   0  0  0  0  0  0  0  0  0  0  0  0
    1.5818    0.4110    2.3165 H   0  0  0  0  0  0  0  0  0  0  0  0
    2.5155   -0.9681    2.9406 H   0  0  0  0  0  0  0  0  0  0  0  0
    0.2401   -1.5190    2.1010 H   0  0  0  0  0  0  0  0  0  0  0  0
    1.5342   -2.5344    1.4295 H   0  0  0  0  0  0  0  0  0  0  0  0
    4.1744   -1.9463    0.2546 H   0  0  0  0  0  0  0  0  0  0  0  0
    8.3788    0.4634   -2.2202 H   0  0  0  0  0  0  0  0  0  0  0  0
    8.5283    2.7888   -1.5247 H   0  0  0  0  0  0  0  0  0  0  0  0
    7.4388    3.4946    0.5986 H   0  0  0  0  0  0  0  0  0  0  0  0
  1  2  1  0
  2  3  1  0
  3  4  1  0
  4  5  1  0
  5  6  1  0
  6  7  1  0
  5  8  1  0
  8  9  2  0
  9 10  1  0
 10 11  2  0
 11 12  1  0
 12 13  2  0
 11 14  1  0
 14 15  1  0
 15 16  1  0
 16 17  1  0
 17 18  1  0
 18 19  1  0
 17 20  1  0
 20 21  1  0
 21 22  2  0
 21 23  2  0
 21 24  1  0
 24 25  2  0
 25 26  1  0
 25 27  1  0
 27 28  2  0
 28 29  1  0
 29 30  2  0
 30 31  1  0
  7  2  1  0
 13  8  1  0
 19 14  1  0
 30 24  1  0
  1 32  1  0
  1 33  1  0
  1 34  1  0
  3 35  1  0
  3 36  1  0
  4 37  1  0
  4 38  1  0
  6 39  1  0
  6 40  1  0
  7 41  1  0
  7 42  1  0
  9 43  1  0
 10 44  1  0
 12 45  1  0
 13 46  1  0
 14 47  1  6
 15 48  1  0
 15 49  1  0
 16 50  1  0
 16 51  1  0
 17 52  1  1
 18 53  1  0
 18 54  1  0
 19 55  1  0
 19 56  1  0
 20 57  1  0
 27 58  1  0
 28 59  1  0
 29 60  1  0
M  END
$$$$
[H]c1nc(N([H])c2c([H])c([H])c(N(C([H])([H])[H])C([H])([H])[H])c([H])c2OC([H])([H])[H])nc(N([H])c2c([H])c([H])c([H])c([H])c2S(=O)(=O)C([H])([H])[H])c1Cl
     RDKit          3D

 52 54  0  0  0  0  0  0  0  0999 V2000
    3.0466    1.3532   -3.2781 C   0  0  0  0  0  0  0  0  0  0  0  0
    2.2801    0.8378   -2.2202 O   0  0  0  0  0  0  0  0  0  0  0  0
    2.9338    0.5083   -1.0175 C   0  0  0  0  0  0  0  0  0  0  0  0
    4.2781    0.6965   -0.9106 C   0  0  0  0  0  0  0  0  0  0  0  0
    4.9566    0.3838    0.2555 C   0  0  0  0  0  0  0  0  0  0  0  0
    4.2262   -0.1242    1.3006 C   0  0  0  0  0  0  0  0  0  0  0  0
    2.8419   -0.3330    1.2319 C   0  0  0  0  0  0  0  0  0  0  0  0
    2.1995   -0.0141    0.0683 C   0  0  0  0  0  0  0  0  0  0  0  0
    0.8245   -0.1654   -0.1133 N   0  0  0  0  0  0  0  0  0  0  0  0
   -0.1446   -0.6356    0.8079 C   0  0  0  0  0  0  0  0  0  0  0  0
    0.0670   -1.0429    2.0538 N   0  0  0  0  0  0  0  0  0  0  0  0
   -0.9098   -1.4510    2.8713 C   0  0  0  0  0  0  0  0  0  0  0  0
   -2.2146   -1.4680    2.4467 C   0  0  0  0  0  0  0  0  0  0  0  0
   -3.5281   -1.9990    3.4725 Cl  0  0  0  0  0  0  0  0  0  0  0  0
   -2.4769   -1.0424    1.1282 C   0  0  0  0  0  0  0  0  0  0  0  0
   -3.8238   -1.0029    0.6890 N   0  0  0  0  0  0  0  0  0  0  0  0
   -4.2740   -0.6738   -0.5975 C   0  0  0  0  0  0  0  0  0  0  0  0
   -3.4552   -0.5803   -1.6917 C   0  0  0  0  0  0  0  0  0  0  0  0
   -3.9467   -0.2887   -2.9770 C   0  0  0  0  0  0  0  0  0  0  0  0
   -5.2787   -0.0930   -3.1476 C   0  0  0  0  0  0  0  0  0  0  0  0
   -6.0927   -0.1864   -2.0637 C   0  0  0  0  0  0  0  0  0  0  0  0
   -5.6455   -0.4685   -0.7926 C   0  0  0  0  0  0  0  0  0  0  0  0
   -6.7309   -0.5482    0.5531 S   0  0  0  0  0  0  0  0  0  0  0  0
   -6.2826    0.7205    1.7330 C   0  0  0  0  0  0  0  0  0  0  0  0
   -6.8355   -1.8816    1.1977 O   0  0  0  0  0  0  0  0  0  0  0  0
   -8.1307   -0.2360    0.0250 O   0  0  0  0  0  0  0  0  0  0  0  0
   -1.4387   -0.6615    0.4108 N   0  0  0  0  0  0  0  0  0  0  0  0
    6.3404    0.6214    0.3080 N   0  0  0  0  0  0  0  0  0  0  0  0
    6.8538    1.6487    1.1720 C   0  0  0  0  0  0  0  0  0  0  0  0
    7.2350   -0.1512   -0.5076 C   0  0  0  0  0  0  0  0  0  0  0  0
    2.3462    1.6720   -4.1053 H   0  0  0  0  0  0  0  0  0  0  0  0
    3.6665    2.2103   -2.9796 H   0  0  0  0  0  0  0  0  0  0  0  0
    3.7085    0.5597   -3.7244 H   0  0  0  0  0  0  0  0  0  0  0  0
    4.8459    1.0983   -1.7415 H   0  0  0  0  0  0  0  0  0  0  0  0
    4.7189   -0.3825    2.2325 H   0  0  0  0  0  0  0  0  0  0  0  0
    2.3457   -0.7450    2.1159 H   0  0  0  0  0  0  0  0  0  0  0  0
    0.4437    0.1112   -1.0719 H   0  0  0  0  0  0  0  0  0  0  0  0
   -0.7001   -1.7814    3.8986 H   0  0  0  0  0  0  0  0  0  0  0  0
   -4.5323   -1.2546    1.4473 H   0  0  0  0  0  0  0  0  0  0  0  0
   -2.3856   -0.7374   -1.6651 H   0  0  0  0  0  0  0  0  0  0  0  0
   -3.2534   -0.2278   -3.7958 H   0  0  0  0  0  0  0  0  0  0  0  0
   -5.6277    0.1312   -4.1468 H   0  0  0  0  0  0  0  0  0  0  0  0
   -7.1600   -0.0302   -2.1916 H   0  0  0  0  0  0  0  0  0  0  0  0
   -5.5097    1.3848    1.3016 H   0  0  0  0  0  0  0  0  0  0  0  0
   -5.9549    0.2720    2.6728 H   0  0  0  0  0  0  0  0  0  0  0  0
   -7.1866    1.3588    1.9209 H   0  0  0  0  0  0  0  0  0  0  0  0
    6.5836    1.3345    2.2281 H   0  0  0  0  0  0  0  0  0  0  0  0
    7.9610    1.7522    1.0973 H   0  0  0  0  0  0  0  0  0  0  0  0
    6.3288    2.5981    0.9700 H   0  0  0  0  0  0  0  0  0  0  0  0
    7.0606    0.0130   -1.5961 H   0  0  0  0  0  0  0  0  0  0  0  0
    8.3060    0.1590   -0.3400 H   0  0  0  0  0  0  0  0  0  0  0  0
    7.1202   -1.2182   -0.2300 H   0  0  0  0  0  0  0  0  0  0  0  0
  1  2  1  0
  2  3  1  0
  3  4  2  0
  4  5  1  0
  5  6  2  0
  6  7  1  0
  7  8  2  0
  8  9  1  0
  9 10  1  0
 10 11  2  0
 11 12  1  0
 12 13  2  0
 13 14  1  0
 13 15  1  0
 15 16  1  0
 16 17  1  0
 17 18  2  0
 18 19  1  0
 19 20  2  0
 20 21  1  0
 21 22  2  0
 22 23  1  0
 23 24  1  0
 23 25  2  0
 23 26  2  0
 15 27  2  0
  5 28  1  0
 28 29  1  0
 28 30  1  0
  8  3  1  0
 27 10  1  0
 22 17  1  0
  1 31  1  0
  1 32  1  0
  1 33  1  0
  4 34  1  0
  6 35  1  0
  7 36  1  0
  9 37  1  0
 12 38  1  0
 16 39  1  0
 18 40  1  0
 19 41  1  0
 20 42  1  0
 21 43  1  0
 24 44  1  0
 24 45  1  0
 24 46  1  0
 29 47  1  0
 29 48  1  0
 29 49  1  0
 30 50  1  0
 30 51  1  0
 30 52  1  0
M  END
$$$$
[H]c1c([H])c([H])c2c(c1[H])c1c3c(c4c5c([H])c([H])c([H])c([H])c5n5c4c1n2[C@@]1([H])O[C@]5(C([H])([H])[H])[C@@]([H])(OC([H])([H])[H])[C@@]([H])(N([H])C([H])([H])[H])C1([H])[H])C([H])([H])N([H])C3=O
     RDKit          3D

 61 68  0  0  0  0  0  0  0  0999 V2000
   -2.5900    1.1246    2.6909 C   0  0  0  0  0  0  0  0  0  0  0  0
   -2.2701    0.1494    1.6691 N   0  0  0  0  0  0  0  0  0  0  0  0
   -2.7037    0.7256    0.3894 C   0  0  1  0  0  0  0  0  0  0  0  0
   -1.9693    1.9591    0.0600 C   0  0  0  0  0  0  0  0  0  0  0  0
   -1.0374    1.8542   -1.1025 C   0  0  2  0  0  0  0  0  0  0  0  0
   -1.1108    0.8211   -1.8978 O   0  0  0  0  0  0  0  0  0  0  0  0
   -1.4719   -0.4453   -1.4993 C   0  0  2  0  0  0  0  0  0  0  0  0
   -1.8587   -1.0747   -2.8537 C   0  0  0  0  0  0  0  0  0  0  0  0
   -2.6627   -0.3659   -0.6565 C   0  0  1  0  0  0  0  0  0  0  0  0
   -3.0555   -1.5061    0.0270 O   0  0  0  0  0  0  0  0  0  0  0  0
   -4.3079   -1.9695   -0.2639 C   0  0  0  0  0  0  0  0  0  0  0  0
   -0.3020   -1.1026   -0.9411 N   0  0  0  0  0  0  0  0  0  0  0  0
   -0.0368   -2.4107   -0.8661 C   0  0  0  0  0  0  0  0  0  0  0  0
   -0.7505   -3.5118   -1.2342 C   0  0  0  0  0  0  0  0  0  0  0  0
   -0.2313   -4.7829   -1.0386 C   0  0  0  0  0  0  0  0  0  0  0  0
    1.0025   -5.0019   -0.4761 C   0  0  0  0  0  0  0  0  0  0  0  0
    1.7444   -3.8826   -0.0939 C   0  0  0  0  0  0  0  0  0  0  0  0
    1.2038   -2.6348   -0.3003 C   0  0  0  0  0  0  0  0  0  0  0  0
    1.7282   -1.3877   -0.0109 C   0  0  0  0  0  0  0  0  0  0  0  0
    2.9250   -0.9637    0.5498 C   0  0  0  0  0  0  0  0  0  0  0  0
    4.0703   -1.7821    1.0519 C   0  0  0  0  0  0  0  0  0  0  0  0
    5.0490   -0.8360    1.5052 N   0  0  0  0  0  0  0  0  0  0  0  0
    4.5511    0.4878    1.3292 C   0  0  0  0  0  0  0  0  0  0  0  0
    5.2116    1.4752    1.6612 O   0  0  0  0  0  0  0  0  0  0  0  0
    3.2325    0.3685    0.7340 C   0  0  0  0  0  0  0  0  0  0  0  0
    2.2736    1.2731    0.3281 C   0  0  0  0  0  0  0  0  0  0  0  0
    2.1943    2.6494    0.3519 C   0  0  0  0  0  0  0  0  0  0  0  0
    3.0346    3.6410    0.7719 C   0  0  0  0  0  0  0  0  0  0  0  0
    2.6237    4.9672    0.6424 C   0  0  0  0  0  0  0  0  0  0  0  0
    1.4040    5.3207    0.1079 C   0  0  0  0  0  0  0  0  0  0  0  0
    0.5569    4.3176   -0.3154 C   0  0  0  0  0  0  0  0  0  0  0  0
    0.9564    3.0255   -0.1896 C   0  0  0  0  0  0  0  0  0  0  0  0
    0.3179    1.9031   -0.5262 N   0  0  0  0  0  0  0  0  0  0  0  0
    1.0813    0.8475   -0.2300 C   0  0  0  0  0  0  0  0  0  0  0  0
    0.8029   -0.4946   -0.4048 C   0  0  0  0  0  0  0  0  0  0  0  0
   -1.7275    1.7656    2.9459 H   0  0  0  0  0  0  0  0  0  0  0  0
   -3.4000    1.7830    2.2910 H   0  0  0  0  0  0  0  0  0  0  0  0
   -3.0290    0.6437    3.5924 H   0  0  0  0  0  0  0  0  0  0  0  0
   -2.7602   -0.7186    1.9035 H   0  0  0  0  0  0  0  0  0  0  0  0
   -3.7998    0.9480    0.5957 H   0  0  0  0  0  0  0  0  0  0  0  0
   -1.4594    2.3204    1.0029 H   0  0  0  0  0  0  0  0  0  0  0  0
   -2.7065    2.7776   -0.1658 H   0  0  0  0  0  0  0  0  0  0  0  0
   -1.0912    2.7965   -1.7221 H   0  0  0  0  0  0  0  0  0  0  0  0
   -2.0056   -0.3257   -3.6573 H   0  0  0  0  0  0  0  0  0  0  0  0
   -1.0068   -1.6950   -3.1940 H   0  0  0  0  0  0  0  0  0  0  0  0
   -2.8277   -1.6039   -2.8044 H   0  0  0  0  0  0  0  0  0  0  0  0
   -3.5358   -0.1252   -1.3381 H   0  0  0  0  0  0  0  0  0  0  0  0
   -4.4650   -2.8889    0.3782 H   0  0  0  0  0  0  0  0  0  0  0  0
   -4.4865   -2.3125   -1.2897 H   0  0  0  0  0  0  0  0  0  0  0  0
   -5.1216   -1.2643    0.0633 H   0  0  0  0  0  0  0  0  0  0  0  0
   -1.7208   -3.3825   -1.6725 H   0  0  0  0  0  0  0  0  0  0  0  0
   -0.8491   -5.6109   -1.3524 H   0  0  0  0  0  0  0  0  0  0  0  0
    1.4213   -5.9802   -0.3168 H   0  0  0  0  0  0  0  0  0  0  0  0
    2.7206   -4.0420    0.3513 H   0  0  0  0  0  0  0  0  0  0  0  0
    3.7648   -2.4865    1.8473 H   0  0  0  0  0  0  0  0  0  0  0  0
    4.5351   -2.3717    0.2322 H   0  0  0  0  0  0  0  0  0  0  0  0
    5.9960   -1.0989    1.9084 H   0  0  0  0  0  0  0  0  0  0  0  0
    3.9823    3.4684    1.1903 H   0  0  0  0  0  0  0  0  0  0  0  0
    3.2909    5.7541    0.9750 H   0  0  0  0  0  0  0  0  0  0  0  0
    1.0902    6.3566    0.0099 H   0  0  0  0  0  0  0  0  0  0  0  0
   -0.4140    4.5350   -0.7434 H   0  0  0  0  0  0  0  0  0  0  0  0
  1  2  1  0
  2  3  1  0
  3  4  1  0
  4  5  1  0
  5  6  1  0
  6  7  1  0
  7  8  1  6
  7  9  1  0
  9 10  1  0
 10 11  1  0
  7 12  1  0
 12 13  1  0
 13 14  2  0
 14 15  1  0
 15 16  2  0
 16 17  1  0
 17 18  2  0
 18 19  1  0
 19 20  2  0
 20 21  1  0
 21 22  1  0
 22 23  1  0
 23 24  2  0
 23 25  1  0
 25 26  2  0
 26 27  1  0
 27 28  2  0
 28 29  1  0
 29 30  2  0
 30 31  1  0
 31 32  2  0
 32 33  1  0
 33 34  1  0
 34 35  2  0
  9  3  1  0
 35 12  1  0
 33  5  1  0
 18 13  1  0
 35 19  1  0
 25 20  1  0
 34 26  1  0
 32 27  1  0
  1 36  1  0
  1 37  1  0
  1 38  1  0
  2 39  1  0
  3 40  1  1
  4 41  1  0
  4 42  1  0
  5 43  1  6
  8 44  1  0
  8 45  1  0
  8 46  1  0
  9 47  1  6
 11 48  1  0
 11 49  1  0
 11 50  1  0
 14 51  1  0
 15 52  1  0
 16 53  1  0
 17 54  1  0
 21 55  1  0
 21 56  1  0
 22 57  1  0
 28 58  1  0
 29 59  1  0
 30 60  1  0
 31 61  1  0
M  END
$$$$
[H]c1c([H])c(-c2nn([H])c3nc(N([H])c4c([H])c([H])c(N5C([H])([H])C([H])([H])N(C([H])([H])[H])C([H])([H])C5([H])[H])c([H])c4[H])nc([H])c23)c([H])c([H])c1C#N
     RDKit          3D

 53 57  0  0  0  0  0  0  0  0999 V2000
   -6.7608    1.6205   -0.9206 C   0  0  0  0  0  0  0  0  0  0  0  0
   -7.1200    0.2531   -0.7490 N   0  0  0  0  0  0  0  0  0  0  0  0
   -7.0315   -0.2362    0.5919 C   0  0  0  0  0  0  0  0  0  0  0  0
   -6.0128   -1.3468    0.7395 C   0  0  0  0  0  0  0  0  0  0  0  0
   -4.8943   -1.1809   -0.1281 N   0  0  0  0  0  0  0  0  0  0  0  0
   -5.2133   -1.1170   -1.5531 C   0  0  0  0  0  0  0  0  0  0  0  0
   -6.6221   -0.6288   -1.7546 C   0  0  0  0  0  0  0  0  0  0  0  0
   -3.5758   -1.0757    0.3497 C   0  0  0  0  0  0  0  0  0  0  0  0
   -3.2411   -0.9267    1.6705 C   0  0  0  0  0  0  0  0  0  0  0  0
   -1.9342   -0.8360    2.0886 C   0  0  0  0  0  0  0  0  0  0  0  0
   -0.8527   -0.8901    1.1871 C   0  0  0  0  0  0  0  0  0  0  0  0
    0.4571   -0.8132    1.7253 N   0  0  0  0  0  0  0  0  0  0  0  0
    1.5866   -0.4411    0.9918 C   0  0  0  0  0  0  0  0  0  0  0  0
    2.7874   -0.4307    1.6525 N   0  0  0  0  0  0  0  0  0  0  0  0
    3.8996   -0.0690    1.0240 C   0  0  0  0  0  0  0  0  0  0  0  0
    3.9368    0.3130   -0.3008 C   0  0  0  0  0  0  0  0  0  0  0  0
    4.9327    0.7224   -1.1617 C   0  0  0  0  0  0  0  0  0  0  0  0
    4.2901    0.9522   -2.3421 N   0  0  0  0  0  0  0  0  0  0  0  0
    3.0039    0.7042   -2.2169 N   0  0  0  0  0  0  0  0  0  0  0  0
    2.7149    0.2994   -0.9619 C   0  0  0  0  0  0  0  0  0  0  0  0
    1.6419   -0.0698   -0.2843 N   0  0  0  0  0  0  0  0  0  0  0  0
    6.3511    0.8757   -0.8686 C   0  0  0  0  0  0  0  0  0  0  0  0
    7.0830   -0.0670   -0.1801 C   0  0  0  0  0  0  0  0  0  0  0  0
    8.4287    0.0874    0.0961 C   0  0  0  0  0  0  0  0  0  0  0  0
    9.1007    1.2134   -0.3160 C   0  0  0  0  0  0  0  0  0  0  0  0
    8.3718    2.1602   -1.0060 C   0  0  0  0  0  0  0  0  0  0  0  0
    7.0392    2.0160   -1.2840 C   0  0  0  0  0  0  0  0  0  0  0  0
   10.4976    1.4043   -0.0454 C   0  0  0  0  0  0  0  0  0  0  0  0
   11.6185    1.5773    0.1769 N   0  0  0  0  0  0  0  0  0  0  0  0
   -1.1831   -1.0384   -0.1223 C   0  0  0  0  0  0  0  0  0  0  0  0
   -2.5231   -1.1298   -0.5387 C   0  0  0  0  0  0  0  0  0  0  0  0
   -6.3728    2.0399    0.0257 H   0  0  0  0  0  0  0  0  0  0  0  0
   -6.0268    1.8016   -1.7266 H   0  0  0  0  0  0  0  0  0  0  0  0
   -7.7116    2.1858   -1.1488 H   0  0  0  0  0  0  0  0  0  0  0  0
   -6.6958    0.5970    1.2422 H   0  0  0  0  0  0  0  0  0  0  0  0
   -8.0434   -0.5260    0.9323 H   0  0  0  0  0  0  0  0  0  0  0  0
   -6.5556   -2.2725    0.3654 H   0  0  0  0  0  0  0  0  0  0  0  0
   -5.7528   -1.5898    1.7744 H   0  0  0  0  0  0  0  0  0  0  0  0
   -5.0544   -2.0929   -2.0394 H   0  0  0  0  0  0  0  0  0  0  0  0
   -4.4917   -0.3973   -2.0014 H   0  0  0  0  0  0  0  0  0  0  0  0
   -6.6541   -0.0730   -2.7253 H   0  0  0  0  0  0  0  0  0  0  0  0
   -7.2923   -1.5003   -1.8422 H   0  0  0  0  0  0  0  0  0  0  0  0
   -4.0448   -0.8729    2.4222 H   0  0  0  0  0  0  0  0  0  0  0  0
   -1.6977   -0.7193    3.1343 H   0  0  0  0  0  0  0  0  0  0  0  0
    0.6115   -1.0513    2.7521 H   0  0  0  0  0  0  0  0  0  0  0  0
    4.8632   -0.0554    1.5406 H   0  0  0  0  0  0  0  0  0  0  0  0
    2.2975    0.8014   -2.9686 H   0  0  0  0  0  0  0  0  0  0  0  0
    6.5860   -0.9676    0.1583 H   0  0  0  0  0  0  0  0  0  0  0  0
    9.0047   -0.6612    0.6418 H   0  0  0  0  0  0  0  0  0  0  0  0
    8.9054    3.0447   -1.3281 H   0  0  0  0  0  0  0  0  0  0  0  0
    6.4528    2.7595   -1.8295 H   0  0  0  0  0  0  0  0  0  0  0  0
   -0.4111   -1.1062   -0.8750 H   0  0  0  0  0  0  0  0  0  0  0  0
   -2.6933   -1.2461   -1.5938 H   0  0  0  0  0  0  0  0  0  0  0  0
  1  2  1  0
  2  3  1  0
  3  4  1  0
  4  5  1  0
  5  6  1  0
  6  7  1  0
  5  8  1  0
  8  9  2  0
  9 10  1  0
 10 11  2  0
 11 12  1  0
 12 13  1  0
 13 14  2  0
 14 15  1  0
 15 16  2  0
 16 17  1  0
 17 18  2  0
 18 19  1  0
 19 20  1  0
 20 21  2  0
 17 22  1  0
 22 23  2  0
 23 24  1  0
 24 25  2  0
 25 26  1  0
 26 27  2  0
 25 28  1  0
 28 29  3  0
 11 30  1  0
 30 31  2  0
  7  2  1  0
 31  8  1  0
 21 13  1  0
 27 22  1  0
 20 16  1  0
  1 32  1  0
  1 33  1  0
  1 34  1  0
  3 35  1  0
  3 36  1  0
  4 37  1  0
  4 38  1  0
  6 39  1  0
  6 40  1  0
  7 41  1  0
  7 42  1  0
  9 43  1  0
 10 44  1  0
 12 45  1  0
 15 46  1  0
 19 47  1  0
 23 48  1  0
 24 49  1  0
 26 50  1  0
 27 51  1  0
 30 52  1  0
 31 53  1  0
M  END
$$$$
[H]C1=C2C([H])([H])C([H])([H])[C@@]3([H])[C@]4([H])C([H])([H])C([H])([H])C(C([H])([H])[H])(C([H])([H])[H])[C@@]4(C([H])([H])[H])C([H])([H])C([H])([H])[C@]3([H])[C@@]2(C([H])([H])[H])C([H])([H])C([H])([H])C1=O
     RDKit          3D

 54 57  0  0  0  0  0  0  0  0999 V2000
   -1.9234    1.3951   -1.0864 C   0  0  0  0  0  0  0  0  0  0  0  0
   -1.8603    0.5149    0.1170 C   0  0  2  0  0  0  0  0  0  0  0  0
   -1.1095    1.1672    1.2187 C   0  0  0  0  0  0  0  0  0  0  0  0
    0.3315    1.3167    0.8497 C   0  0  0  0  0  0  0  0  0  0  0  0
    0.9966    0.0800    0.3718 C   0  0  1  0  0  0  0  0  0  0  0  0
    0.1831   -0.6558   -0.7030 C   0  0  1  0  0  0  0  0  0  0  0  0
    0.7832   -2.0363   -0.8402 C   0  0  0  0  0  0  0  0  0  0  0  0
    2.2048   -1.9354   -1.3488 C   0  0  0  0  0  0  0  0  0  0  0  0
    2.9615   -0.9626   -0.5066 C   0  0  0  0  0  0  0  0  0  0  0  0
    4.1316   -1.3250   -0.0210 C   0  0  0  0  0  0  0  0  0  0  0  0
    4.9274   -0.4207    0.8157 C   0  0  0  0  0  0  0  0  0  0  0  0
    6.1498   -0.4998    0.9951 O   0  0  0  0  0  0  0  0  0  0  0  0
    4.1573    0.6659    1.4837 C   0  0  0  0  0  0  0  0  0  0  0  0
    3.2094    1.2960    0.4909 C   0  0  0  0  0  0  0  0  0  0  0  0
    2.3402    0.3618   -0.2615 C   0  0  2  0  0  0  0  0  0  0  0  0
    2.1384    1.0008   -1.6499 C   0  0  0  0  0  0  0  0  0  0  0  0
   -1.1750   -0.8163   -0.1212 C   0  0  2  0  0  0  0  0  0  0  0  0
   -2.1772   -1.5417   -0.9172 C   0  0  0  0  0  0  0  0  0  0  0  0
   -3.4034   -1.3599   -0.0405 C   0  0  0  0  0  0  0  0  0  0  0  0
   -3.2452    0.0520    0.4879 C   0  0  0  0  0  0  0  0  0  0  0  0
   -4.3347    0.8722   -0.1724 C   0  0  0  0  0  0  0  0  0  0  0  0
   -3.4943    0.1061    1.9780 C   0  0  0  0  0  0  0  0  0  0  0  0
   -2.0882    2.4469   -0.7095 H   0  0  0  0  0  0  0  0  0  0  0  0
   -2.8200    1.2016   -1.7342 H   0  0  0  0  0  0  0  0  0  0  0  0
   -1.0292    1.4346   -1.7042 H   0  0  0  0  0  0  0  0  0  0  0  0
   -1.4992    2.1778    1.4662 H   0  0  0  0  0  0  0  0  0  0  0  0
   -1.1858    0.5143    2.1215 H   0  0  0  0  0  0  0  0  0  0  0  0
    0.8520    1.5968    1.8171 H   0  0  0  0  0  0  0  0  0  0  0  0
    0.4678    2.1956    0.1922 H   0  0  0  0  0  0  0  0  0  0  0  0
    1.1622   -0.6187    1.1990 H   0  0  0  0  0  0  0  0  0  0  0  0
    0.2199   -0.1700   -1.6731 H   0  0  0  0  0  0  0  0  0  0  0  0
    0.1959   -2.6068   -1.5946 H   0  0  0  0  0  0  0  0  0  0  0  0
    0.7446   -2.5645    0.1363 H   0  0  0  0  0  0  0  0  0  0  0  0
    2.6295   -2.9672   -1.2231 H   0  0  0  0  0  0  0  0  0  0  0  0
    2.2148   -1.7214   -2.4131 H   0  0  0  0  0  0  0  0  0  0  0  0
    4.5609   -2.3068   -0.2172 H   0  0  0  0  0  0  0  0  0  0  0  0
    3.6663    0.3369    2.4124 H   0  0  0  0  0  0  0  0  0  0  0  0
    4.8859    1.4553    1.7565 H   0  0  0  0  0  0  0  0  0  0  0  0
    3.8927    1.8106   -0.2560 H   0  0  0  0  0  0  0  0  0  0  0  0
    2.6190    2.0712    0.9860 H   0  0  0  0  0  0  0  0  0  0  0  0
    3.0774    1.5827   -1.8986 H   0  0  0  0  0  0  0  0  0  0  0  0
    2.0365    0.2735   -2.4478 H   0  0  0  0  0  0  0  0  0  0  0  0
    1.3388    1.7386   -1.6489 H   0  0  0  0  0  0  0  0  0  0  0  0
   -1.0751   -1.2985    0.8710 H   0  0  0  0  0  0  0  0  0  0  0  0
   -1.9252   -2.6235   -0.9652 H   0  0  0  0  0  0  0  0  0  0  0  0
   -2.3554   -1.1198   -1.9202 H   0  0  0  0  0  0  0  0  0  0  0  0
   -4.3445   -1.5133   -0.5834 H   0  0  0  0  0  0  0  0  0  0  0  0
   -3.3113   -2.0875    0.8012 H   0  0  0  0  0  0  0  0  0  0  0  0
   -5.2665    0.7650    0.4512 H   0  0  0  0  0  0  0  0  0  0  0  0
   -4.6128    0.4139   -1.1579 H   0  0  0  0  0  0  0  0  0  0  0  0
   -4.0606    1.9317   -0.2880 H   0  0  0  0  0  0  0  0  0  0  0  0
   -3.0448   -0.7375    2.5213 H   0  0  0  0  0  0  0  0  0  0  0  0
   -3.1355    1.0358    2.4157 H   0  0  0  0  0  0  0  0  0  0  0  0
   -4.6019    0.0774    2.1477 H   0  0  0  0  0  0  0  0  0  0  0  0
  2  1  1  6
  2  3  1  0
  3  4  1  0
  4  5  1  0
  5  6  1  0
  6  7  1  0
  7  8  1  0
  8  9  1  0
  9 10  2  0
 10 11  1  0
 11 12  2  0
 11 13  1  0
 13 14  1  0
 14 15  1  0
 15 16  1  6
  6 17  1  0
 17 18  1  0
 18 19  1  0
 19 20  1  0
 20 21  1  0
 20 22  1  0
 17  2  1  0
 20  2  1  0
 15  5  1  0
 15  9  1  0
  1 23  1  0
  1 24  1  0
  1 25  1  0
  3 26  1  0
  3 27  1  0
  4 28  1  0
  4 29  1  0
  5 30  1  1
  6 31  1  6
  7 32  1  0
  7 33  1  0
  8 34  1  0
  8 35  1  0
 10 36  1  0
 13 37  1  0
 13 38  1  0
 14 39  1  0
 14 40  1  0
 16 41  1  0
 16 42  1  0
 16 43  1  0
 17 44  1  1
 18 45  1  0
 18 46  1  0
 19 47  1  0
 19 48  1  0
 21 49  1  0
 21 50  1  0
 21 51  1  0
 22 52  1  0
 22 53  1  0
 22 54  1  0
M  END
$$$$
[H]c1c(-c2c([H])c([H])c3c(c2[H])c(C2([H])C([H])([H])C([H])([H])N(C([H])([H])[H])C([H])([H])C2([H])[H])c([H])n3[H])nc(C([H])([H])[H])nc1C([H])([H])[H]
     RDKit          3D

 48 51  0  0  0  0  0  0  0  0999 V2000
    5.3036    1.2403   -1.1734 C   0  0  0  0  0  0  0  0  0  0  0  0
    4.5779    1.3764    0.0740 N   0  0  0  0  0  0  0  0  0  0  0  0
    4.6601    0.2127    0.8935 C   0  0  0  0  0  0  0  0  0  0  0  0
    3.4687    0.0518    1.7787 C   0  0  0  0  0  0  0  0  0  0  0  0
    2.1479    0.1459    1.0998 C   0  0  0  0  0  0  0  0  0  0  0  0
    2.1455    1.0323   -0.0983 C   0  0  0  0  0  0  0  0  0  0  0  0
    3.2964    1.9826   -0.0459 C   0  0  0  0  0  0  0  0  0  0  0  0
    1.7105   -1.2185    0.6361 C   0  0  0  0  0  0  0  0  0  0  0  0
    2.4070   -2.3707    0.4950 C   0  0  0  0  0  0  0  0  0  0  0  0
    1.5672   -3.3163    0.0245 N   0  0  0  0  0  0  0  0  0  0  0  0
    0.3405   -2.8081   -0.1428 C   0  0  0  0  0  0  0  0  0  0  0  0
   -0.8761   -3.2949   -0.5737 C   0  0  0  0  0  0  0  0  0  0  0  0
   -1.9854   -2.4696   -0.6169 C   0  0  0  0  0  0  0  0  0  0  0  0
   -1.9421   -1.1561   -0.2446 C   0  0  0  0  0  0  0  0  0  0  0  0
   -0.7051   -0.6740    0.1892 C   0  0  0  0  0  0  0  0  0  0  0  0
    0.3970   -1.4937    0.2322 C   0  0  0  0  0  0  0  0  0  0  0  0
   -3.0966   -0.2394   -0.2697 C   0  0  0  0  0  0  0  0  0  0  0  0
   -4.3355   -0.6462   -0.6708 C   0  0  0  0  0  0  0  0  0  0  0  0
   -5.3984    0.2457   -0.6800 C   0  0  0  0  0  0  0  0  0  0  0  0
   -6.7441   -0.2201   -1.1244 C   0  0  0  0  0  0  0  0  0  0  0  0
   -5.1734    1.5063   -0.2871 N   0  0  0  0  0  0  0  0  0  0  0  0
   -3.9506    1.8938    0.1046 C   0  0  0  0  0  0  0  0  0  0  0  0
   -3.8146    3.3266    0.5239 C   0  0  0  0  0  0  0  0  0  0  0  0
   -2.9137    1.0525    0.1214 N   0  0  0  0  0  0  0  0  0  0  0  0
    5.0020    0.3576   -1.7599 H   0  0  0  0  0  0  0  0  0  0  0  0
    6.4147    1.2442   -0.9616 H   0  0  0  0  0  0  0  0  0  0  0  0
    5.1101    2.1371   -1.7989 H   0  0  0  0  0  0  0  0  0  0  0  0
    5.5441    0.3926    1.5871 H   0  0  0  0  0  0  0  0  0  0  0  0
    4.9488   -0.7049    0.3385 H   0  0  0  0  0  0  0  0  0  0  0  0
    3.5833    0.8404    2.5870 H   0  0  0  0  0  0  0  0  0  0  0  0
    3.5525   -0.9317    2.3292 H   0  0  0  0  0  0  0  0  0  0  0  0
    1.3622    0.4979    1.8052 H   0  0  0  0  0  0  0  0  0  0  0  0
    1.2124    1.6362   -0.1295 H   0  0  0  0  0  0  0  0  0  0  0  0
    2.1415    0.4489   -1.0431 H   0  0  0  0  0  0  0  0  0  0  0  0
    3.2359    2.6023   -0.9744 H   0  0  0  0  0  0  0  0  0  0  0  0
    3.1479    2.6702    0.8284 H   0  0  0  0  0  0  0  0  0  0  0  0
    3.4390   -2.5192    0.7120 H   0  0  0  0  0  0  0  0  0  0  0  0
    1.8091   -4.3160   -0.1898 H   0  0  0  0  0  0  0  0  0  0  0  0
   -0.9371   -4.3226   -0.8716 H   0  0  0  0  0  0  0  0  0  0  0  0
   -2.9321   -2.8901   -0.9635 H   0  0  0  0  0  0  0  0  0  0  0  0
   -0.6624    0.3521    0.4868 H   0  0  0  0  0  0  0  0  0  0  0  0
   -4.4903   -1.6828   -0.9869 H   0  0  0  0  0  0  0  0  0  0  0  0
   -6.6926   -0.4551   -2.2041 H   0  0  0  0  0  0  0  0  0  0  0  0
   -7.1029   -1.0993   -0.5553 H   0  0  0  0  0  0  0  0  0  0  0  0
   -7.4530    0.6131   -0.9174 H   0  0  0  0  0  0  0  0  0  0  0  0
   -2.7601    3.5572    0.7970 H   0  0  0  0  0  0  0  0  0  0  0  0
   -4.0919    3.9492   -0.3459 H   0  0  0  0  0  0  0  0  0  0  0  0
   -4.4680    3.4635    1.3978 H   0  0  0  0  0  0  0  0  0  0  0  0
  1  2  1  0
  2  3  1  0
  3  4  1  0
  4  5  1  0
  5  6  1  0
  6  7  1  0
  5  8  1  0
  8  9  2  0
  9 10  1  0
 10 11  1  0
 11 12  2  0
 12 13  1  0
 13 14  2  0
 14 15  1  0
 15 16  2  0
 14 17  1  0
 17 18  2  0
 18 19  1  0
 19 20  1  0
 19 21  2  0
 21 22  1  0
 22 23  1  0
 22 24  2  0
  7  2  1  0
 16  8  1  0
 24 17  1  0
 16 11  1  0
  1 25  1  0
  1 26  1  0
  1 27  1  0
  3 28  1  0
  3 29  1  0
  4 30  1  0
  4 31  1  0
  5 32  1  0
  6 33  1  0
  6 34  1  0
  7 35  1  0
  7 36  1  0
  9 37  1  0
 10 38  1  0
 12 39  1  0
 13 40  1  0
 15 41  1  0
 18 42  1  0
 20 43  1  0
 20 44  1  0
 20 45  1  0
 23 46  1  0
 23 47  1  0
 23 48  1  0
M  END
$$$$
[H]/C(C(=O)N([H])c1c([H])c([H])c(C([H])([H])[H])c([H])c1[H])=C(/[H])c1c([H])c([H])c(-c2c([H])c([H])c(OC([H])([H])[H])c([H])c2[H])c([H])c1[H]
     RDKit          3D

 47 49  0  0  0  0  0  0  0  0999 V2000
    9.6109   -0.4178    0.5647 C   0  0  0  0  0  0  0  0  0  0  0  0
    8.9477    0.4499   -0.3430 O   0  0  0  0  0  0  0  0  0  0  0  0
    7.5632    0.4749   -0.2971 C   0  0  0  0  0  0  0  0  0  0  0  0
    6.8279   -0.2987    0.5821 C   0  0  0  0  0  0  0  0  0  0  0  0
    5.4628   -0.2772    0.6308 C   0  0  0  0  0  0  0  0  0  0  0  0
    4.7565    0.5350   -0.2142 C   0  0  0  0  0  0  0  0  0  0  0  0
    5.4511    1.3204   -1.1041 C   0  0  0  0  0  0  0  0  0  0  0  0
    6.8406    1.2867   -1.1409 C   0  0  0  0  0  0  0  0  0  0  0  0
    3.2988    0.6099   -0.2211 C   0  0  0  0  0  0  0  0  0  0  0  0
    2.6897    1.8060   -0.5609 C   0  0  0  0  0  0  0  0  0  0  0  0
    1.3245    1.9538   -0.5909 C   0  0  0  0  0  0  0  0  0  0  0  0
    0.5256    0.8668   -0.2694 C   0  0  0  0  0  0  0  0  0  0  0  0
   -0.9111    1.0560   -0.3103 C   0  0  0  0  0  0  0  0  0  0  0  0
   -1.7434    0.0952   -0.0250 C   0  0  0  0  0  0  0  0  0  0  0  0
   -3.2147    0.2926   -0.0680 C   0  0  0  0  0  0  0  0  0  0  0  0
   -3.5957    1.4288   -0.3924 O   0  0  0  0  0  0  0  0  0  0  0  0
   -4.0351   -0.7866    0.2515 N   0  0  0  0  0  0  0  0  0  0  0  0
   -5.4429   -0.7271    0.2542 C   0  0  0  0  0  0  0  0  0  0  0  0
   -6.2198    0.3948    0.2406 C   0  0  0  0  0  0  0  0  0  0  0  0
   -7.6177    0.3117    0.2253 C   0  0  0  0  0  0  0  0  0  0  0  0
   -8.2771   -0.8929    0.2237 C   0  0  0  0  0  0  0  0  0  0  0  0
   -9.7702   -0.9810    0.2073 C   0  0  0  0  0  0  0  0  0  0  0  0
   -7.4836   -2.0186    0.2380 C   0  0  0  0  0  0  0  0  0  0  0  0
   -6.1161   -1.9638    0.2528 C   0  0  0  0  0  0  0  0  0  0  0  0
    1.1163   -0.3322    0.0715 C   0  0  0  0  0  0  0  0  0  0  0  0
    2.4973   -0.4566    0.0945 C   0  0  0  0  0  0  0  0  0  0  0  0
    9.1949   -1.4276    0.4142 H   0  0  0  0  0  0  0  0  0  0  0  0
    9.3937   -0.0518    1.6086 H   0  0  0  0  0  0  0  0  0  0  0  0
   10.7023   -0.4066    0.4558 H   0  0  0  0  0  0  0  0  0  0  0  0
    7.3987   -0.9423    1.2511 H   0  0  0  0  0  0  0  0  0  0  0  0
    4.9459   -0.8985    1.3330 H   0  0  0  0  0  0  0  0  0  0  0  0
    4.9517    1.9980   -1.8155 H   0  0  0  0  0  0  0  0  0  0  0  0
    7.4023    1.9097   -1.8473 H   0  0  0  0  0  0  0  0  0  0  0  0
    3.3140    2.6566   -0.8113 H   0  0  0  0  0  0  0  0  0  0  0  0
    0.9123    2.9081   -0.8627 H   0  0  0  0  0  0  0  0  0  0  0  0
   -1.3444    2.0253   -0.5861 H   0  0  0  0  0  0  0  0  0  0  0  0
   -1.3991   -0.8733    0.2513 H   0  0  0  0  0  0  0  0  0  0  0  0
   -3.5417   -1.7117    0.5140 H   0  0  0  0  0  0  0  0  0  0  0  0
   -5.7659    1.3667    0.2538 H   0  0  0  0  0  0  0  0  0  0  0  0
   -8.2124    1.2224    0.2143 H   0  0  0  0  0  0  0  0  0  0  0  0
  -10.0823   -1.9430    0.6982 H   0  0  0  0  0  0  0  0  0  0  0  0
  -10.2026   -0.1694    0.8434 H   0  0  0  0  0  0  0  0  0  0  0  0
  -10.1530   -0.8962   -0.8156 H   0  0  0  0  0  0  0  0  0  0  0  0
   -7.9744   -2.9977    0.2374 H   0  0  0  0  0  0  0  0  0  0  0  0
   -5.5213   -2.8939    0.2634 H   0  0  0  0  0  0  0  0  0  0  0  0
    0.5452   -1.2096    0.3303 H   0  0  0  0  0  0  0  0  0  0  0  0
    2.9508   -1.3953    0.3614 H   0  0  0  0  0  0  0  0  0  0  0  0
  1  2  1  0
  2  3  1  0
  3  4  2  0
  4  5  1  0
  5  6  2  0
  6  7  1  0
  7  8  2  0
  6  9  1  0
  9 10  2  0
 10 11  1  0
 11 12  2  0
 12 13  1  0
 13 14  2  0
 14 15  1  0
 15 16  2  0
 15 17  1  0
 17 18  1  0
 18 19  2  0
 19 20  1  0
 20 21  2  0
 21 22  1  0
 21 23  1  0
 23 24  2  0
 12 25  1  0
 25 26  2  0
  8  3  1  0
 26  9  1  0
 24 18  1  0
  1 27  1  0
  1 28  1  0
  1 29  1  0
  4 30  1  0
  5 31  1  0
  7 32  1  0
  8 33  1  0
 10 34  1  0
 11 35  1  0
 13 36  1  0
 14 37  1  0
 17 38  1  0
 19 39  1  0
 20 40  1  0
 22 41  1  0
 22 42  1  0
 22 43  1  0
 23 44  1  0
 24 45  1  0
 25 46  1  0
 26 47  1  0
M  END
$$$$
[H]c1c([H])c([H])c(-c2c([H])c([H])c(N([H])C(=O)c3c([H])c([H])c([H])c(C(F)(F)F)c3[H])c([H])c2-c2c([H])c([H])c([H])c(C(F)(F)F)c2[H])c([H])c1[H]
     RDKit          3D

 52 55  0  0  0  0  0  0  0  0999 V2000
   -3.0777    2.3059   -4.0018 F   0  0  0  0  0  0  0  0  0  0  0  0
   -4.2819    1.7300   -3.7373 C   0  0  0  0  0  0  0  0  0  0  0  0
   -4.4595    0.7702   -4.7713 F   0  0  0  0  0  0  0  0  0  0  0  0
   -5.3093    2.6181   -3.7780 F   0  0  0  0  0  0  0  0  0  0  0  0
   -4.1897    0.9568   -2.4516 C   0  0  0  0  0  0  0  0  0  0  0  0
   -5.3036    0.2039   -2.0422 C   0  0  0  0  0  0  0  0  0  0  0  0
   -5.2286   -0.5438   -0.8976 C   0  0  0  0  0  0  0  0  0  0  0  0
   -4.0662   -0.5914   -0.1075 C   0  0  0  0  0  0  0  0  0  0  0  0
   -2.9876    0.1447   -0.5246 C   0  0  0  0  0  0  0  0  0  0  0  0
   -3.0726    0.9061   -1.6860 C   0  0  0  0  0  0  0  0  0  0  0  0
   -1.6975    0.0186    0.1382 C   0  0  0  0  0  0  0  0  0  0  0  0
   -0.5489    0.1017   -0.7165 C   0  0  0  0  0  0  0  0  0  0  0  0
    0.7126   -0.0448   -0.2718 C   0  0  0  0  0  0  0  0  0  0  0  0
    1.9283   -0.1039   -1.0345 N   0  0  0  0  0  0  0  0  0  0  0  0
    3.1094    0.4523   -0.4378 C   0  0  0  0  0  0  0  0  0  0  0  0
    3.0474    1.0338    0.6424 O   0  0  0  0  0  0  0  0  0  0  0  0
    4.3993    0.2831   -1.1391 C   0  0  0  0  0  0  0  0  0  0  0  0
    4.5271    0.0417   -2.4572 C   0  0  0  0  0  0  0  0  0  0  0  0
    5.8046   -0.2523   -3.0198 C   0  0  0  0  0  0  0  0  0  0  0  0
    6.8716   -0.2766   -2.1610 C   0  0  0  0  0  0  0  0  0  0  0  0
    6.7394   -0.0290   -0.8185 C   0  0  0  0  0  0  0  0  0  0  0  0
    5.5107    0.2486   -0.3297 C   0  0  0  0  0  0  0  0  0  0  0  0
    7.8771   -0.1145    0.1296 C   0  0  0  0  0  0  0  0  0  0  0  0
    8.3932    1.1134    0.4821 F   0  0  0  0  0  0  0  0  0  0  0  0
    7.4983   -0.8140    1.2765 F   0  0  0  0  0  0  0  0  0  0  0  0
    8.8714   -0.8591   -0.4591 F   0  0  0  0  0  0  0  0  0  0  0  0
    0.8816   -0.2908    1.1147 C   0  0  0  0  0  0  0  0  0  0  0  0
   -0.1820   -0.3696    1.9218 C   0  0  0  0  0  0  0  0  0  0  0  0
   -1.5356   -0.2155    1.4512 C   0  0  0  0  0  0  0  0  0  0  0  0
   -2.4957   -0.3440    2.5204 C   0  0  0  0  0  0  0  0  0  0  0  0
   -3.1425    0.7171    3.0745 C   0  0  0  0  0  0  0  0  0  0  0  0
   -3.9347    0.5334    4.2288 C   0  0  0  0  0  0  0  0  0  0  0  0
   -4.0657   -0.7086    4.8011 C   0  0  0  0  0  0  0  0  0  0  0  0
   -3.4008   -1.8025    4.2284 C   0  0  0  0  0  0  0  0  0  0  0  0
   -2.6461   -1.5874    3.1155 C   0  0  0  0  0  0  0  0  0  0  0  0
   -6.1724    0.2441   -2.6449 H   0  0  0  0  0  0  0  0  0  0  0  0
   -6.0886   -1.1511   -0.5467 H   0  0  0  0  0  0  0  0  0  0  0  0
   -4.1316   -1.2165    0.7595 H   0  0  0  0  0  0  0  0  0  0  0  0
   -2.2333    1.5245   -2.0441 H   0  0  0  0  0  0  0  0  0  0  0  0
   -0.6800    0.2924   -1.7785 H   0  0  0  0  0  0  0  0  0  0  0  0
    1.9851   -0.5080   -1.9733 H   0  0  0  0  0  0  0  0  0  0  0  0
    3.7095    0.0666   -3.1250 H   0  0  0  0  0  0  0  0  0  0  0  0
    5.9142   -0.4328   -4.0565 H   0  0  0  0  0  0  0  0  0  0  0  0
    7.8547   -0.4870   -2.5337 H   0  0  0  0  0  0  0  0  0  0  0  0
    5.3629    0.4588    0.7388 H   0  0  0  0  0  0  0  0  0  0  0  0
    1.8747   -0.4630    1.5062 H   0  0  0  0  0  0  0  0  0  0  0  0
   -0.0830   -0.5618    2.9855 H   0  0  0  0  0  0  0  0  0  0  0  0
   -3.1020    1.7113    2.6930 H   0  0  0  0  0  0  0  0  0  0  0  0
   -4.4310    1.3953    4.6741 H   0  0  0  0  0  0  0  0  0  0  0  0
   -4.6557   -0.8820    5.6986 H   0  0  0  0  0  0  0  0  0  0  0  0
   -3.5227   -2.7555    4.6928 H   0  0  0  0  0  0  0  0  0  0  0  0
   -2.1464   -2.4669    2.6713 H   0  0  0  0  0  0  0  0  0  0  0  0
  1  2  1  0
  2  3  1  0
  2  4  1  0
  2  5  1  0
  5  6  2  0
  6  7  1  0
  7  8  2  0
  8  9  1  0
  9 10  2  0
  9 11  1  0
 11 12  2  0
 12 13  1  0
 13 14  1  0
 14 15  1  0
 15 16  2  0
 15 17  1  0
 17 18  2  0
 18 19  1  0
 19 20  2  0
 20 21  1  0
 21 22  2  0
 21 23  1  0
 23 24  1  0
 23 25  1  0
 23 26  1  0
 13 27  2  0
 27 28  1  0
 28 29  2  0
 29 30  1  0
 30 31  2  0
 31 32  1  0
 32 33  2  0
 33 34  1  0
 34 35  2  0
 10  5  1  0
 29 11  1  0
 35 30  1  0
 22 17  1  0
  6 36  1  0
  7 37  1  0
  8 38  1  0
 10 39  1  0
 12 40  1  0
 14 41  1  0
 18 42  1  0
 19 43  1  0
 20 44  1  0
 22 45  1  0
 27 46  1  0
 28 47  1  0
 31 48  1  0
 32 49  1  0
 33 50  1  0
 34 51  1  0
 35 52  1  0
M  END
$$$$
[H]c1c([H])c([H])c(C([H])([H])OC(=O)N([H])[C@]([H])(C(=O)N([H])[C@]([H])(C(=O)N([H])[C@]([H])(C(=O)N([H])[H])C([H])([H])c2c([H])n([H])c3c([H])c([H])c([H])c([H])c23)C([H])([H])c2c([H])c([H])c([H])c([H])c2[H])C([H])([H])C([H])(C([H])([H])[H])C([H])([H])[H])c([H])c1[H]
     RDKit          3D

 83 86  0  0  0  0  0  0  0  0999 V2000
   -4.4399    3.4384    2.5732 C   0  0  0  0  0  0  0  0  0  0  0  0
   -3.5464    2.9759    1.3948 C   0  0  0  0  0  0  0  0  0  0  0  0
   -4.1613    3.6369    0.1889 C   0  0  0  0  0  0  0  0  0  0  0  0
   -3.6057    1.5151    1.4128 C   0  0  0  0  0  0  0  0  0  0  0  0
   -2.8476    0.7395    0.3758 C   0  0  2  0  0  0  0  0  0  0  0  0
   -3.1871   -0.6782    0.7031 N   0  0  0  0  0  0  0  0  0  0  0  0
   -4.1977   -1.3712   -0.0098 C   0  0  0  0  0  0  0  0  0  0  0  0
   -4.8529   -0.8400   -0.9442 O   0  0  0  0  0  0  0  0  0  0  0  0
   -4.5066   -2.6825    0.3056 O   0  0  0  0  0  0  0  0  0  0  0  0
   -5.5080   -3.4344   -0.3261 C   0  0  0  0  0  0  0  0  0  0  0  0
   -5.3589   -3.6188   -1.7720 C   0  0  0  0  0  0  0  0  0  0  0  0
   -6.4891   -3.9028   -2.5603 C   0  0  0  0  0  0  0  0  0  0  0  0
   -6.3472   -4.0824   -3.9188 C   0  0  0  0  0  0  0  0  0  0  0  0
   -5.1000   -3.9818   -4.4894 C   0  0  0  0  0  0  0  0  0  0  0  0
   -3.9770   -3.7004   -3.7129 C   0  0  0  0  0  0  0  0  0  0  0  0
   -4.1140   -3.5204   -2.3587 C   0  0  0  0  0  0  0  0  0  0  0  0
   -1.3841    0.8400    0.4720 C   0  0  0  0  0  0  0  0  0  0  0  0
   -0.7359   -0.2085    0.8436 O   0  0  0  0  0  0  0  0  0  0  0  0
   -0.5895    1.9757    0.1943 N   0  0  0  0  0  0  0  0  0  0  0  0
    0.8258    2.0484    0.2682 C   0  0  1  0  0  0  0  0  0  0  0  0
    1.4887    2.6395    1.4377 C   0  0  0  0  0  0  0  0  0  0  0  0
    1.1325    4.0540    1.6417 C   0  0  0  0  0  0  0  0  0  0  0  0
    0.1117    4.4596    2.4658 C   0  0  0  0  0  0  0  0  0  0  0  0
   -0.1576    5.8005    2.6157 C   0  0  0  0  0  0  0  0  0  0  0  0
    0.5802    6.7660    1.9499 C   0  0  0  0  0  0  0  0  0  0  0  0
    1.6066    6.3653    1.1201 C   0  0  0  0  0  0  0  0  0  0  0  0
    1.8576    5.0305    0.9857 C   0  0  0  0  0  0  0  0  0  0  0  0
    1.4818    0.7404   -0.0805 C   0  0  0  0  0  0  0  0  0  0  0  0
    1.1374    0.0526   -1.0881 O   0  0  0  0  0  0  0  0  0  0  0  0
    2.5105    0.2531    0.7328 N   0  0  0  0  0  0  0  0  0  0  0  0
    3.2167   -1.0119    0.4431 C   0  0  1  0  0  0  0  0  0  0  0  0
    4.6808   -0.7216    0.5414 C   0  0  0  0  0  0  0  0  0  0  0  0
    5.5926   -1.8320    0.2703 C   0  0  0  0  0  0  0  0  0  0  0  0
    6.3027   -2.6276    1.1662 C   0  0  0  0  0  0  0  0  0  0  0  0
    7.0239   -3.5206    0.4733 N   0  0  0  0  0  0  0  0  0  0  0  0
    6.8272   -3.3574   -0.8530 C   0  0  0  0  0  0  0  0  0  0  0  0
    7.3254   -3.9957   -1.9765 C   0  0  0  0  0  0  0  0  0  0  0  0
    6.9662   -3.6255   -3.2508 C   0  0  0  0  0  0  0  0  0  0  0  0
    6.0691   -2.5702   -3.3906 C   0  0  0  0  0  0  0  0  0  0  0  0
    5.5847   -1.9464   -2.2692 C   0  0  0  0  0  0  0  0  0  0  0  0
    5.9442   -2.3167   -0.9894 C   0  0  0  0  0  0  0  0  0  0  0  0
    2.7655   -1.9741    1.4734 C   0  0  0  0  0  0  0  0  0  0  0  0
    3.2103   -3.3171    1.3915 N   0  0  0  0  0  0  0  0  0  0  0  0
    2.0134   -1.6193    2.3882 O   0  0  0  0  0  0  0  0  0  0  0  0
   -5.4123    2.9165    2.4407 H   0  0  0  0  0  0  0  0  0  0  0  0
   -4.5741    4.5250    2.5574 H   0  0  0  0  0  0  0  0  0  0  0  0
   -4.0169    3.0580    3.5262 H   0  0  0  0  0  0  0  0  0  0  0  0
   -2.5626    3.3731    1.6292 H   0  0  0  0  0  0  0  0  0  0  0  0
   -5.2614    3.5689    0.1558 H   0  0  0  0  0  0  0  0  0  0  0  0
   -3.7518    3.3439   -0.7730 H   0  0  0  0  0  0  0  0  0  0  0  0
   -3.9485    4.7367    0.2911 H   0  0  0  0  0  0  0  0  0  0  0  0
   -3.2009    1.1701    2.4097 H   0  0  0  0  0  0  0  0  0  0  0  0
   -4.6790    1.1991    1.4500 H   0  0  0  0  0  0  0  0  0  0  0  0
   -3.1869    0.9267   -0.6361 H   0  0  0  0  0  0  0  0  0  0  0  0
   -2.6879   -1.1663    1.4668 H   0  0  0  0  0  0  0  0  0  0  0  0
   -6.4777   -2.8623   -0.1710 H   0  0  0  0  0  0  0  0  0  0  0  0
   -5.6960   -4.3977    0.2045 H   0  0  0  0  0  0  0  0  0  0  0  0
   -7.4550   -3.9673   -2.0579 H   0  0  0  0  0  0  0  0  0  0  0  0
   -7.2128   -4.2983   -4.5265 H   0  0  0  0  0  0  0  0  0  0  0  0
   -4.9559   -4.1225   -5.5443 H   0  0  0  0  0  0  0  0  0  0  0  0
   -2.9944   -3.6252   -4.1926 H   0  0  0  0  0  0  0  0  0  0  0  0
   -3.2552   -3.3037   -1.7383 H   0  0  0  0  0  0  0  0  0  0  0  0
   -1.1218    2.8471   -0.1091 H   0  0  0  0  0  0  0  0  0  0  0  0
    1.1545    2.6556   -0.6911 H   0  0  0  0  0  0  0  0  0  0  0  0
    1.3509    2.0598    2.3847 H   0  0  0  0  0  0  0  0  0  0  0  0
    2.6001    2.6388    1.2692 H   0  0  0  0  0  0  0  0  0  0  0  0
   -0.5016    3.7308    3.0174 H   0  0  0  0  0  0  0  0  0  0  0  0
   -0.9717    6.1104    3.2723 H   0  0  0  0  0  0  0  0  0  0  0  0
    0.3887    7.8127    2.0475 H   0  0  0  0  0  0  0  0  0  0  0  0
    2.2147    7.1011    0.5784 H   0  0  0  0  0  0  0  0  0  0  0  0
    2.6592    4.7187    0.3390 H   0  0  0  0  0  0  0  0  0  0  0  0
    2.8393    0.7390    1.5945 H   0  0  0  0  0  0  0  0  0  0  0  0
    2.9417   -1.3044   -0.5629 H   0  0  0  0  0  0  0  0  0  0  0  0
    4.8926   -0.3052    1.5707 H   0  0  0  0  0  0  0  0  0  0  0  0
    4.9672    0.1124   -0.1589 H   0  0  0  0  0  0  0  0  0  0  0  0
    6.2486   -2.5052    2.2618 H   0  0  0  0  0  0  0  0  0  0  0  0
    7.6442   -4.2412    0.8950 H   0  0  0  0  0  0  0  0  0  0  0  0
    8.0253   -4.8139   -1.8170 H   0  0  0  0  0  0  0  0  0  0  0  0
    7.3686   -4.1423   -4.1289 H   0  0  0  0  0  0  0  0  0  0  0  0
    5.8104   -2.3102   -4.4077 H   0  0  0  0  0  0  0  0  0  0  0  0
    4.8893   -1.1279   -2.3675 H   0  0  0  0  0  0  0  0  0  0  0  0
    3.2383   -3.8446    0.4735 H   0  0  0  0  0  0  0  0  0  0  0  0
    3.5415   -3.8807    2.2090 H   0  0  0  0  0  0  0  0  0  0  0  0
  1  2  1  0
  2  3  1  0
  2  4  1  0
  4  5  1  0
  5  6  1  0
  6  7  1  0
  7  8  2  0
  7  9  1  0
  9 10  1  0
 10 11  1  0
 11 12  2  0
 12 13  1  0
 13 14  2  0
 14 15  1  0
 15 16  2  0
  5 17  1  0
 17 18  2  0
 17 19  1  0
 19 20  1  0
 20 21  1  0
 21 22  1  0
 22 23  2  0
 23 24  1  0
 24 25  2  0
 25 26  1  0
 26 27  2  0
 20 28  1  0
 28 29  2  0
 28 30  1  0
 30 31  1  0
 31 32  1  0
 32 33  1  0
 33 34  2  0
 34 35  1  0
 35 36  1  0
 36 37  2  0
 37 38  1  0
 38 39  2  0
 39 40  1  0
 40 41  2  0
 31 42  1  0
 42 43  1  0
 42 44  2  0
 16 11  1  0
 27 22  1  0
 41 33  1  0
 41 36  1  0
  1 45  1  0
  1 46  1  0
  1 47  1  0
  2 48  1  0
  3 49  1  0
  3 50  1  0
  3 51  1  0
  4 52  1  0
  4 53  1  0
  5 54  1  6
  6 55  1  0
 10 56  1  0
 10 57  1  0
 12 58  1  0
 13 59  1  0
 14 60  1  0
 15 61  1  0
 16 62  1  0
 19 63  1  0
 20 64  1  6
 21 65  1  0
 21 66  1  0
 23 67  1  0
 24 68  1  0
 25 69  1  0
 26 70  1  0
 27 71  1  0
 30 72  1  0
 31 73  1  6
 32 74  1  0
 32 75  1  0
 34 76  1  0
 35 77  1  0
 37 78  1  0
 38 79  1  0
 39 80  1  0
 40 81  1  0
 43 82  1  0
 43 83  1  0
M  END
$$$$
[H]OC(=O)C([H])([H])[C@@]([H])(C(=O)N([H])[C@]([H])(C(=O)N1C([H])([H])C([H])([H])C([H])([H])[C@@]1([H])C(=O)N([H])[C@@]([H])(C(=O)N([H])[C@]([H])(C(=O)N([H])[H])C([H])([H])C([H])(C([H])([H])[H])C([H])([H])[H])C([H])([H])c1c([H])c([H])c(O[H])c([H])c1[H])C([H])([H])c1c([H])c([H])c([H])c([H])c1[H])N([H])C(=O)[C@@]([H])(N([H])C(=O)OC([H])([H])c1c([H])c([H])c([H])c([H])c1[H])C([H])([H])c1c([H])c([H])c([H])c([H])c1[H]
     RDKit          3D

127131  0  0  0  0  0  0  0  0999 V2000
   12.6258    1.2602   -0.1465 C   0  0  0  0  0  0  0  0  0  0  0  0
   11.1091    1.0775    0.0157 C   0  0  0  0  0  0  0  0  0  0  0  0
   10.8872   -0.1191    0.8886 C   0  0  0  0  0  0  0  0  0  0  0  0
   10.5861    2.3487    0.5830 C   0  0  0  0  0  0  0  0  0  0  0  0
    9.1259    2.4250    0.8305 C   0  0  2  0  0  0  0  0  0  0  0  0
    8.2824    2.2572   -0.3176 N   0  0  0  0  0  0  0  0  0  0  0  0
    6.9347    1.8029   -0.2239 C   0  0  0  0  0  0  0  0  0  0  0  0
    6.5004    1.5476    0.9137 O   0  0  0  0  0  0  0  0  0  0  0  0
    6.1387    1.6753   -1.4911 C   0  0  1  0  0  0  0  0  0  0  0  0
    6.6486    0.7190   -2.4730 C   0  0  0  0  0  0  0  0  0  0  0  0
    6.7914   -0.6809   -2.1896 C   0  0  0  0  0  0  0  0  0  0  0  0
    5.8605   -1.6682   -2.3983 C   0  0  0  0  0  0  0  0  0  0  0  0
    6.0739   -2.9917   -2.1161 C   0  0  0  0  0  0  0  0  0  0  0  0
    7.2904   -3.4006   -1.5864 C   0  0  0  0  0  0  0  0  0  0  0  0
    7.4905   -4.7500   -1.3047 O   0  0  0  0  0  0  0  0  0  0  0  0
    8.2369   -2.4489   -1.3664 C   0  0  0  0  0  0  0  0  0  0  0  0
    8.0066   -1.1204   -1.6559 C   0  0  0  0  0  0  0  0  0  0  0  0
    4.7398    1.7597   -1.2851 N   0  0  0  0  0  0  0  0  0  0  0  0
    3.8673    1.0527   -0.4572 C   0  0  0  0  0  0  0  0  0  0  0  0
    4.2499    0.1271    0.2674 O   0  0  0  0  0  0  0  0  0  0  0  0
    2.4303    1.4501   -0.4593 C   0  0  2  0  0  0  0  0  0  0  0  0
    2.3140    2.8048    0.2899 C   0  0  0  0  0  0  0  0  0  0  0  0
    2.2464    2.3934    1.7478 C   0  0  0  0  0  0  0  0  0  0  0  0
    1.8899    0.9357    1.7283 C   0  0  0  0  0  0  0  0  0  0  0  0
    1.5636    0.6409    0.3545 N   0  0  0  0  0  0  0  0  0  0  0  0
    0.5459   -0.2283   -0.1001 C   0  0  0  0  0  0  0  0  0  0  0  0
    0.3291   -0.3819   -1.3479 O   0  0  0  0  0  0  0  0  0  0  0  0
   -0.3215   -0.9899    0.8370 C   0  0  2  0  0  0  0  0  0  0  0  0
    0.3763   -2.2445    1.2654 C   0  0  0  0  0  0  0  0  0  0  0  0
    0.6975   -3.1821    0.1721 C   0  0  0  0  0  0  0  0  0  0  0  0
   -0.1639   -4.2436   -0.1226 C   0  0  0  0  0  0  0  0  0  0  0  0
    0.0844   -5.1355   -1.1316 C   0  0  0  0  0  0  0  0  0  0  0  0
    1.2222   -4.9847   -1.8869 C   0  0  0  0  0  0  0  0  0  0  0  0
    2.0767   -3.9503   -1.6136 C   0  0  0  0  0  0  0  0  0  0  0  0
    1.8268   -3.0500   -0.5937 C   0  0  0  0  0  0  0  0  0  0  0  0
   -1.5104   -1.3915    0.0427 N   0  0  0  0  0  0  0  0  0  0  0  0
   -2.7632   -0.8892    0.4348 C   0  0  0  0  0  0  0  0  0  0  0  0
   -2.7681   -0.1108    1.4923 O   0  0  0  0  0  0  0  0  0  0  0  0
   -4.0869   -1.0823   -0.1405 C   0  0  2  0  0  0  0  0  0  0  0  0
   -4.1488   -0.6035   -1.5784 C   0  0  0  0  0  0  0  0  0  0  0  0
   -3.2729   -1.3609   -2.4513 C   0  0  0  0  0  0  0  0  0  0  0  0
   -2.3454   -0.7675   -3.2936 O   0  0  0  0  0  0  0  0  0  0  0  0
   -3.3131   -2.6350   -2.4903 O   0  0  0  0  0  0  0  0  0  0  0  0
   -5.1065   -0.3354    0.6157 N   0  0  0  0  0  0  0  0  0  0  0  0
   -6.4438   -0.7202    0.7580 C   0  0  0  0  0  0  0  0  0  0  0  0
   -6.8625   -1.7676    0.2215 O   0  0  0  0  0  0  0  0  0  0  0  0
   -7.3536    0.1499    1.5524 C   0  0  2  0  0  0  0  0  0  0  0  0
   -7.5613   -0.3342    2.9648 C   0  0  0  0  0  0  0  0  0  0  0  0
   -8.1588   -1.6645    3.0446 C   0  0  0  0  0  0  0  0  0  0  0  0
   -7.3450   -2.7717    3.0998 C   0  0  0  0  0  0  0  0  0  0  0  0
   -7.8863   -4.0656    3.1705 C   0  0  0  0  0  0  0  0  0  0  0  0
   -9.2444   -4.2650    3.1855 C   0  0  0  0  0  0  0  0  0  0  0  0
  -10.0629   -3.1530    3.1296 C   0  0  0  0  0  0  0  0  0  0  0  0
   -9.5248   -1.8896    3.0614 C   0  0  0  0  0  0  0  0  0  0  0  0
   -8.6379    0.2885    0.8652 N   0  0  0  0  0  0  0  0  0  0  0  0
   -8.9945    1.5731    0.4067 C   0  0  0  0  0  0  0  0  0  0  0  0
   -8.2303    2.5630    0.5988 O   0  0  0  0  0  0  0  0  0  0  0  0
  -10.1918    1.8319   -0.2805 O   0  0  0  0  0  0  0  0  0  0  0  0
  -10.4513    3.1661   -0.7003 C   0  0  0  0  0  0  0  0  0  0  0  0
  -11.7212    3.2356   -1.4268 C   0  0  0  0  0  0  0  0  0  0  0  0
  -11.6934    3.5019   -2.7942 C   0  0  0  0  0  0  0  0  0  0  0  0
  -12.8718    3.5743   -3.5055 C   0  0  0  0  0  0  0  0  0  0  0  0
  -14.0660    3.3822   -2.8570 C   0  0  0  0  0  0  0  0  0  0  0  0
  -14.0681    3.1194   -1.5017 C   0  0  0  0  0  0  0  0  0  0  0  0
  -12.9112    3.0411   -0.7651 C   0  0  0  0  0  0  0  0  0  0  0  0
    8.8808    3.8619    1.2861 C   0  0  0  0  0  0  0  0  0  0  0  0
    9.6158    4.2875    2.4178 N   0  0  0  0  0  0  0  0  0  0  0  0
    8.0955    4.6255    0.7198 O   0  0  0  0  0  0  0  0  0  0  0  0
   13.0233    1.5780    0.8359 H   0  0  0  0  0  0  0  0  0  0  0  0
   13.0929    0.3391   -0.4983 H   0  0  0  0  0  0  0  0  0  0  0  0
   12.7912    2.1212   -0.8321 H   0  0  0  0  0  0  0  0  0  0  0  0
   10.7286    0.8667   -0.9967 H   0  0  0  0  0  0  0  0  0  0  0  0
   11.6612   -0.2675    1.6456 H   0  0  0  0  0  0  0  0  0  0  0  0
    9.8527   -0.1185    1.3443 H   0  0  0  0  0  0  0  0  0  0  0  0
   10.9009   -1.0274    0.2473 H   0  0  0  0  0  0  0  0  0  0  0  0
   11.1707    2.6765    1.4836 H   0  0  0  0  0  0  0  0  0  0  0  0
   10.8358    3.1546   -0.1776 H   0  0  0  0  0  0  0  0  0  0  0  0
    8.7392    1.8389    1.6877 H   0  0  0  0  0  0  0  0  0  0  0  0
    8.6603    2.4702   -1.2607 H   0  0  0  0  0  0  0  0  0  0  0  0
    6.4002    2.7168   -1.9636 H   0  0  0  0  0  0  0  0  0  0  0  0
    7.6488    1.0984   -2.8293 H   0  0  0  0  0  0  0  0  0  0  0  0
    6.0097    0.8182   -3.3971 H   0  0  0  0  0  0  0  0  0  0  0  0
    4.9141   -1.3520   -2.8111 H   0  0  0  0  0  0  0  0  0  0  0  0
    5.3224   -3.7393   -2.2978 H   0  0  0  0  0  0  0  0  0  0  0  0
    8.3866   -5.0218   -0.9165 H   0  0  0  0  0  0  0  0  0  0  0  0
    9.1892   -2.7963   -0.9462 H   0  0  0  0  0  0  0  0  0  0  0  0
    8.8125   -0.4490   -1.4572 H   0  0  0  0  0  0  0  0  0  0  0  0
    4.2477    2.5206   -1.8963 H   0  0  0  0  0  0  0  0  0  0  0  0
    1.9909    1.5709   -1.4484 H   0  0  0  0  0  0  0  0  0  0  0  0
    1.3613    3.2849    0.0224 H   0  0  0  0  0  0  0  0  0  0  0  0
    3.1748    3.4469    0.0446 H   0  0  0  0  0  0  0  0  0  0  0  0
    1.4603    2.9642    2.2860 H   0  0  0  0  0  0  0  0  0  0  0  0
    3.1898    2.5954    2.2901 H   0  0  0  0  0  0  0  0  0  0  0  0
    2.7113    0.3014    2.1375 H   0  0  0  0  0  0  0  0  0  0  0  0
    0.9547    0.7942    2.3144 H   0  0  0  0  0  0  0  0  0  0  0  0
   -0.6205   -0.3641    1.6951 H   0  0  0  0  0  0  0  0  0  0  0  0
   -0.2761   -2.7319    2.0333 H   0  0  0  0  0  0  0  0  0  0  0  0
    1.3300   -2.0324    1.8039 H   0  0  0  0  0  0  0  0  0  0  0  0
   -1.0537   -4.3086    0.5161 H   0  0  0  0  0  0  0  0  0  0  0  0
   -0.6080   -5.9563   -1.3383 H   0  0  0  0  0  0  0  0  0  0  0  0
    1.4464   -5.6625   -2.6854 H   0  0  0  0  0  0  0  0  0  0  0  0
    2.9624   -3.8416   -2.2162 H   0  0  0  0  0  0  0  0  0  0  0  0
    2.5324   -2.2335   -0.4035 H   0  0  0  0  0  0  0  0  0  0  0  0
   -1.3412   -1.9937   -0.7281 H   0  0  0  0  0  0  0  0  0  0  0  0
   -4.3674   -2.1649   -0.1046 H   0  0  0  0  0  0  0  0  0  0  0  0
   -5.2306   -0.7311   -1.8873 H   0  0  0  0  0  0  0  0  0  0  0  0
   -3.9123    0.4886   -1.6365 H   0  0  0  0  0  0  0  0  0  0  0  0
   -2.2967   -1.0826   -4.2491 H   0  0  0  0  0  0  0  0  0  0  0  0
   -4.7602    0.5314    1.0541 H   0  0  0  0  0  0  0  0  0  0  0  0
   -6.8979    1.1479    1.6020 H   0  0  0  0  0  0  0  0  0  0  0  0
   -8.2946    0.3761    3.4210 H   0  0  0  0  0  0  0  0  0  0  0  0
   -6.6355   -0.2260    3.5247 H   0  0  0  0  0  0  0  0  0  0  0  0
   -6.2639   -2.6727    3.0927 H   0  0  0  0  0  0  0  0  0  0  0  0
   -7.2629   -4.9479    3.2136 H   0  0  0  0  0  0  0  0  0  0  0  0
   -9.7089   -5.2346    3.2383 H   0  0  0  0  0  0  0  0  0  0  0  0
  -11.1353   -3.3115    3.1412 H   0  0  0  0  0  0  0  0  0  0  0  0
  -10.1659   -1.0498    3.0208 H   0  0  0  0  0  0  0  0  0  0  0  0
   -9.2768   -0.5218    0.7115 H   0  0  0  0  0  0  0  0  0  0  0  0
  -10.5062    3.8208    0.2216 H   0  0  0  0  0  0  0  0  0  0  0  0
   -9.6359    3.5629   -1.3292 H   0  0  0  0  0  0  0  0  0  0  0  0
  -10.7489    3.6575   -3.3148 H   0  0  0  0  0  0  0  0  0  0  0  0
  -12.8590    3.7829   -4.5763 H   0  0  0  0  0  0  0  0  0  0  0  0
  -15.0047    3.4356   -3.3942 H   0  0  0  0  0  0  0  0  0  0  0  0
  -15.0422    2.9724   -1.0291 H   0  0  0  0  0  0  0  0  0  0  0  0
  -12.9530    2.8347    0.2916 H   0  0  0  0  0  0  0  0  0  0  0  0
   10.1579    3.6673    3.0521 H   0  0  0  0  0  0  0  0  0  0  0  0
    9.6386    5.3020    2.6684 H   0  0  0  0  0  0  0  0  0  0  0  0
  1  2  1  0
  2  3  1  0
  2  4  1  0
  4  5  1  0
  5  6  1  0
  6  7  1  0
  7  8  2  0
  7  9  1  0
  9 10  1  0
 10 11  1  0
 11 12  2  0
 12 13  1  0
 13 14  2  0
 14 15  1  0
 14 16  1  0
 16 17  2  0
  9 18  1  0
 18 19  1  0
 19 20  2  0
 19 21  1  0
 21 22  1  0
 22 23  1  0
 23 24  1  0
 24 25  1  0
 25 26  1  0
 26 27  2  0
 26 28  1  0
 28 29  1  0
 29 30  1  0
 30 31  2  0
 31 32  1  0
 32 33  2  0
 33 34  1  0
 34 35  2  0
 28 36  1  0
 36 37  1  0
 37 38  2  0
 37 39  1  0
 39 40  1  0
 40 41  1  0
 41 42  1  0
 41 43  2  0
 39 44  1  0
 44 45  1  0
 45 46  2  0
 45 47  1  0
 47 48  1  0
 48 49  1  0
 49 50  2  0
 50 51  1  0
 51 52  2  0
 52 53  1  0
 53 54  2  0
 47 55  1  0
 55 56  1  0
 56 57  2  0
 56 58  1  0
 58 59  1  0
 59 60  1  0
 60 61  2  0
 61 62  1  0
 62 63  2  0
 63 64  1  0
 64 65  2  0
  5 66  1  0
 66 67  1  0
 66 68  2  0
 17 11  1  0
 25 21  1  0
 35 30  1  0
 54 49  1  0
 65 60  1  0
  1 69  1  0
  1 70  1  0
  1 71  1  0
  2 72  1  0
  3 73  1  0
  3 74  1  0
  3 75  1  0
  4 76  1  0
  4 77  1  0
  5 78  1  1
  6 79  1  0
  9 80  1  6
 10 81  1  0
 10 82  1  0
 12 83  1  0
 13 84  1  0
 15 85  1  0
 16 86  1  0
 17 87  1  0
 18 88  1  0
 21 89  1  6
 22 90  1  0
 22 91  1  0
 23 92  1  0
 23 93  1  0
 24 94  1  0
 24 95  1  0
 28 96  1  1
 29 97  1  0
 29 98  1  0
 31 99  1  0
 32100  1  0
 33101  1  0
 34102  1  0
 35103  1  0
 36104  1  0
 39105  1  6
 40106  1  0
 40107  1  0
 42108  1  0
 44109  1  0
 47110  1  1
 48111  1  0
 48112  1  0
 50113  1  0
 51114  1  0
 52115  1  0
 53116  1  0
 54117  1  0
 55118  1  0
 59119  1  0
 59120  1  0
 61121  1  0
 62122  1  0
 63123  1  0
 64124  1  0
 65125  1  0
 67126  1  0
 67127  1  0
M  END
$$$$
[H]c1c([H])c([H])c(S(=O)(=O)N([H])[C@]2([H])C([H])([H])C([H])([H])[C@@]([H])(C(=O)N3C([H])([H])C([H])([H])N(S(=O)(=O)c4c([H])c([H])c(C(F)(F)F)c([H])c4[H])C([H])([H])C3([H])[H])C([H])([H])C2([H])[H])c([H])c1[H]
     RDKit          3D

 65 68  0  0  0  0  0  0  0  0999 V2000
    9.6416    3.3454    1.2720 F   0  0  0  0  0  0  0  0  0  0  0  0
    9.8827    2.0145    0.9029 C   0  0  0  0  0  0  0  0  0  0  0  0
   10.8991    2.0088   -0.0387 F   0  0  0  0  0  0  0  0  0  0  0  0
   10.3477    1.3506    2.0098 F   0  0  0  0  0  0  0  0  0  0  0  0
    8.6481    1.3564    0.4099 C   0  0  0  0  0  0  0  0  0  0  0  0
    7.8623    0.6120    1.2893 C   0  0  0  0  0  0  0  0  0  0  0  0
    6.7054   -0.0250    0.8648 C   0  0  0  0  0  0  0  0  0  0  0  0
    6.3016    0.0651   -0.4520 C   0  0  0  0  0  0  0  0  0  0  0  0
    7.0850    0.8031   -1.3108 C   0  0  0  0  0  0  0  0  0  0  0  0
    8.2391    1.4419   -0.8983 C   0  0  0  0  0  0  0  0  0  0  0  0
    4.8762   -0.7305   -1.0167 S   0  0  0  0  0  0  0  0  0  0  0  0
    4.6657   -2.0493   -0.2881 O   0  0  0  0  0  0  0  0  0  0  0  0
    5.1326   -1.1257   -2.4649 O   0  0  0  0  0  0  0  0  0  0  0  0
    3.4774    0.2198   -0.9574 N   0  0  0  0  0  0  0  0  0  0  0  0
    3.1171    0.6404    0.3365 C   0  0  0  0  0  0  0  0  0  0  0  0
    1.6457    1.0775    0.4123 C   0  0  0  0  0  0  0  0  0  0  0  0
    0.8151    0.0223   -0.1582 N   0  0  0  0  0  0  0  0  0  0  0  0
    1.1340   -0.4459   -1.4781 C   0  0  0  0  0  0  0  0  0  0  0  0
    2.4884   -0.0072   -1.9254 C   0  0  0  0  0  0  0  0  0  0  0  0
   -0.2711   -0.5142    0.5741 C   0  0  0  0  0  0  0  0  0  0  0  0
   -0.4772   -0.0224    1.7381 O   0  0  0  0  0  0  0  0  0  0  0  0
   -1.1889   -1.5737    0.1458 C   0  0  1  0  0  0  0  0  0  0  0  0
   -2.2803   -1.8109    1.1879 C   0  0  0  0  0  0  0  0  0  0  0  0
   -3.3918   -0.7888    0.9809 C   0  0  0  0  0  0  0  0  0  0  0  0
   -4.1605   -1.1174   -0.3023 C   0  0  1  0  0  0  0  0  0  0  0  0
   -3.2285   -1.9378   -1.1603 C   0  0  0  0  0  0  0  0  0  0  0  0
   -1.8559   -1.2903   -1.1986 C   0  0  0  0  0  0  0  0  0  0  0  0
   -5.2553   -1.9373    0.1086 N   0  0  0  0  0  0  0  0  0  0  0  0
   -6.8049   -1.4210   -0.3323 S   0  0  0  0  0  0  0  0  0  0  0  0
   -6.9322   -1.4156   -1.8327 O   0  0  0  0  0  0  0  0  0  0  0  0
   -7.8039   -2.4247    0.1948 O   0  0  0  0  0  0  0  0  0  0  0  0
   -7.2477    0.1178    0.3047 C   0  0  0  0  0  0  0  0  0  0  0  0
   -7.7050    0.2313    1.5969 C   0  0  0  0  0  0  0  0  0  0  0  0
   -8.0597    1.4638    2.0932 C   0  0  0  0  0  0  0  0  0  0  0  0
   -7.9728    2.5992    1.3319 C   0  0  0  0  0  0  0  0  0  0  0  0
   -7.5117    2.4971    0.0231 C   0  0  0  0  0  0  0  0  0  0  0  0
   -7.1555    1.2468   -0.4642 C   0  0  0  0  0  0  0  0  0  0  0  0
    8.2063    0.5565    2.3234 H   0  0  0  0  0  0  0  0  0  0  0  0
    6.1503   -0.5780    1.6020 H   0  0  0  0  0  0  0  0  0  0  0  0
    6.8072    0.9002   -2.3449 H   0  0  0  0  0  0  0  0  0  0  0  0
    8.8494    2.0157   -1.5723 H   0  0  0  0  0  0  0  0  0  0  0  0
    3.2689   -0.1195    1.1288 H   0  0  0  0  0  0  0  0  0  0  0  0
    3.7151    1.5464    0.5875 H   0  0  0  0  0  0  0  0  0  0  0  0
    1.4055    1.1348    1.4921 H   0  0  0  0  0  0  0  0  0  0  0  0
    1.5077    2.0574   -0.0684 H   0  0  0  0  0  0  0  0  0  0  0  0
    1.0853   -1.5560   -1.4421 H   0  0  0  0  0  0  0  0  0  0  0  0
    0.4064   -0.0652   -2.2391 H   0  0  0  0  0  0  0  0  0  0  0  0
    2.8588   -0.8073   -2.6180 H   0  0  0  0  0  0  0  0  0  0  0  0
    2.4133    0.8908   -2.6041 H   0  0  0  0  0  0  0  0  0  0  0  0
   -0.6257   -2.5131    0.0294 H   0  0  0  0  0  0  0  0  0  0  0  0
   -2.6391   -2.8523    1.1814 H   0  0  0  0  0  0  0  0  0  0  0  0
   -1.8316   -1.6098    2.1774 H   0  0  0  0  0  0  0  0  0  0  0  0
   -2.9226    0.2073    0.9244 H   0  0  0  0  0  0  0  0  0  0  0  0
   -4.0379   -0.8167    1.8756 H   0  0  0  0  0  0  0  0  0  0  0  0
   -4.4324   -0.2216   -0.8715 H   0  0  0  0  0  0  0  0  0  0  0  0
   -3.6408   -1.9413   -2.2071 H   0  0  0  0  0  0  0  0  0  0  0  0
   -3.1741   -2.9687   -0.7788 H   0  0  0  0  0  0  0  0  0  0  0  0
   -1.2677   -1.7394   -2.0380 H   0  0  0  0  0  0  0  0  0  0  0  0
   -1.9090   -0.2096   -1.3216 H   0  0  0  0  0  0  0  0  0  0  0  0
   -5.1106   -2.9624    0.0559 H   0  0  0  0  0  0  0  0  0  0  0  0
   -7.7968   -0.6385    2.2700 H   0  0  0  0  0  0  0  0  0  0  0  0
   -8.4261    1.5733    3.1177 H   0  0  0  0  0  0  0  0  0  0  0  0
   -8.2588    3.5869    1.7355 H   0  0  0  0  0  0  0  0  0  0  0  0
   -7.4612    3.4102   -0.5497 H   0  0  0  0  0  0  0  0  0  0  0  0
   -6.8021    1.2438   -1.5089 H   0  0  0  0  0  0  0  0  0  0  0  0
  1  2  1  0
  2  3  1  0
  2  4  1  0
  2  5  1  0
  5  6  2  0
  6  7  1  0
  7  8  2  0
  8  9  1  0
  9 10  2  0
  8 11  1  0
 11 12  2  0
 11 13  2  0
 11 14  1  0
 14 15  1  0
 15 16  1  0
 16 17  1  0
 17 18  1  0
 18 19  1  0
 17 20  1  0
 20 21  2  0
 20 22  1  0
 22 23  1  0
 23 24  1  0
 24 25  1  0
 25 26  1  0
 26 27  1  0
 25 28  1  0
 28 29  1  0
 29 30  2  0
 29 31  2  0
 29 32  1  0
 32 33  2  0
 33 34  1  0
 34 35  2  0
 35 36  1  0
 36 37  2  0
 10  5  1  0
 19 14  1  0
 27 22  1  0
 37 32  1  0
  6 38  1  0
  7 39  1  0
  9 40  1  0
 10 41  1  0
 15 42  1  0
 15 43  1  0
 16 44  1  0
 16 45  1  0
 18 46  1  0
 18 47  1  0
 19 48  1  0
 19 49  1  0
 22 50  1  6
 23 51  1  0
 23 52  1  0
 24 53  1  0
 24 54  1  0
 25 55  1  6
 26 56  1  0
 26 57  1  0
 27 58  1  0
 27 59  1  0
 28 60  1  0
 33 61  1  0
 34 62  1  0
 35 63  1  0
 36 64  1  0
 37 65  1  0
M  END
$$$$
[H]c1c([H])c(OC([H])([H])[H])c([H])c(C(=O)N([H])c2c([H])c([H])c(OC([H])([H])[H])c(C(=O)N([H])c3c([H])c([H])c(OC([H])([H])[H])c(OC([H])([H])[H])c3[H])c2[H])c1F
     RDKit          3D

 56 58  0  0  0  0  0  0  0  0999 V2000
   -5.9519    4.2973    1.2148 C   0  0  0  0  0  0  0  0  0  0  0  0
   -6.9974    3.5656    0.5765 O   0  0  0  0  0  0  0  0  0  0  0  0
   -6.7214    2.2823    0.1183 C   0  0  0  0  0  0  0  0  0  0  0  0
   -7.7424    1.5920   -0.4948 C   0  0  0  0  0  0  0  0  0  0  0  0
   -7.5210    0.3158   -0.9675 C   0  0  0  0  0  0  0  0  0  0  0  0
   -6.2593   -0.2764   -0.8236 C   0  0  0  0  0  0  0  0  0  0  0  0
   -6.1648   -1.5153   -1.3410 F   0  0  0  0  0  0  0  0  0  0  0  0
   -5.2239    0.3829   -0.2183 C   0  0  0  0  0  0  0  0  0  0  0  0
   -5.5128    1.6771    0.2404 C   0  0  0  0  0  0  0  0  0  0  0  0
   -3.8995   -0.1719   -0.0099 C   0  0  0  0  0  0  0  0  0  0  0  0
   -3.0028    0.6832    0.3053 O   0  0  0  0  0  0  0  0  0  0  0  0
   -3.4994   -1.5050   -0.1096 N   0  0  0  0  0  0  0  0  0  0  0  0
   -2.1770   -1.9740    0.0936 C   0  0  0  0  0  0  0  0  0  0  0  0
   -2.0382   -3.2922    0.5566 C   0  0  0  0  0  0  0  0  0  0  0  0
   -0.8049   -3.8497    0.7566 C   0  0  0  0  0  0  0  0  0  0  0  0
    0.3246   -3.0583    0.4831 C   0  0  0  0  0  0  0  0  0  0  0  0
    1.5239   -3.6737    0.7038 O   0  0  0  0  0  0  0  0  0  0  0  0
    1.7052   -4.9772    1.1624 C   0  0  0  0  0  0  0  0  0  0  0  0
    0.2446   -1.7750    0.0322 C   0  0  0  0  0  0  0  0  0  0  0  0
   -1.0586   -1.2316   -0.1636 C   0  0  0  0  0  0  0  0  0  0  0  0
    1.3771   -0.9480   -0.2536 C   0  0  0  0  0  0  0  0  0  0  0  0
    1.1278    0.2376   -0.6699 O   0  0  0  0  0  0  0  0  0  0  0  0
    2.7190   -1.2825   -0.1316 N   0  0  0  0  0  0  0  0  0  0  0  0
    3.8397   -0.4244   -0.4151 C   0  0  0  0  0  0  0  0  0  0  0  0
    5.0727   -0.9715   -0.7652 C   0  0  0  0  0  0  0  0  0  0  0  0
    6.1727   -0.1826   -1.0149 C   0  0  0  0  0  0  0  0  0  0  0  0
    6.0984    1.2012   -0.9276 C   0  0  0  0  0  0  0  0  0  0  0  0
    7.1948    2.0149   -1.1756 O   0  0  0  0  0  0  0  0  0  0  0  0
    8.4123    1.3854   -1.5261 C   0  0  0  0  0  0  0  0  0  0  0  0
    4.8900    1.7437   -0.5838 C   0  0  0  0  0  0  0  0  0  0  0  0
    4.8138    3.1325   -0.4957 O   0  0  0  0  0  0  0  0  0  0  0  0
    3.5974    3.7404   -0.1466 C   0  0  0  0  0  0  0  0  0  0  0  0
    3.7677    0.9341   -0.3288 C   0  0  0  0  0  0  0  0  0  0  0  0
   -5.0346    4.2636    0.5888 H   0  0  0  0  0  0  0  0  0  0  0  0
   -5.7245    3.7888    2.1738 H   0  0  0  0  0  0  0  0  0  0  0  0
   -6.2503    5.3184    1.4494 H   0  0  0  0  0  0  0  0  0  0  0  0
   -8.7245    2.0279   -0.6174 H   0  0  0  0  0  0  0  0  0  0  0  0
   -8.3148   -0.2256   -1.4460 H   0  0  0  0  0  0  0  0  0  0  0  0
   -4.7294    2.2514    0.7300 H   0  0  0  0  0  0  0  0  0  0  0  0
   -4.2273   -2.2343   -0.3490 H   0  0  0  0  0  0  0  0  0  0  0  0
   -2.9633   -3.8247    0.7422 H   0  0  0  0  0  0  0  0  0  0  0  0
   -0.7217   -4.8571    1.1101 H   0  0  0  0  0  0  0  0  0  0  0  0
    1.4886   -5.7468    0.3913 H   0  0  0  0  0  0  0  0  0  0  0  0
    1.0538   -5.2248    2.0390 H   0  0  0  0  0  0  0  0  0  0  0  0
    2.7413   -5.1671    1.5099 H   0  0  0  0  0  0  0  0  0  0  0  0
   -1.1031   -0.2372   -0.5332 H   0  0  0  0  0  0  0  0  0  0  0  0
    3.0578   -2.2458    0.2004 H   0  0  0  0  0  0  0  0  0  0  0  0
    5.1571   -2.0331   -0.8392 H   0  0  0  0  0  0  0  0  0  0  0  0
    7.1381   -0.6176   -1.2893 H   0  0  0  0  0  0  0  0  0  0  0  0
    8.6628    0.6438   -0.7176 H   0  0  0  0  0  0  0  0  0  0  0  0
    9.2003    2.1398   -1.6554 H   0  0  0  0  0  0  0  0  0  0  0  0
    8.2889    0.7870   -2.4589 H   0  0  0  0  0  0  0  0  0  0  0  0
    2.7845    3.4481   -0.8492 H   0  0  0  0  0  0  0  0  0  0  0  0
    3.3108    3.3280    0.8576 H   0  0  0  0  0  0  0  0  0  0  0  0
    3.7060    4.8341   -0.1180 H   0  0  0  0  0  0  0  0  0  0  0  0
    2.8972    1.5067   -0.0534 H   0  0  0  0  0  0  0  0  0  0  0  0
  1  2  1  0
  2  3  1  0
  3  4  2  0
  4  5  1  0
  5  6  2  0
  6  7  1  0
  6  8  1  0
  8  9  2  0
  8 10  1  0
 10 11  2  0
 10 12  1  0
 12 13  1  0
 13 14  2  0
 14 15  1  0
 15 16  2  0
 16 17  1  0
 17 18  1  0
 16 19  1  0
 19 20  2  0
 19 21  1  0
 21 22  2  0
 21 23  1  0
 23 24  1  0
 24 25  2  0
 25 26  1  0
 26 27  2  0
 27 28  1  0
 28 29  1  0
 27 30  1  0
 30 31  1  0
 31 32  1  0
 30 33  2  0
  9  3  1  0
 20 13  1  0
 33 24  1  0
  1 34  1  0
  1 35  1  0
  1 36  1  0
  4 37  1  0
  5 38  1  0
  9 39  1  0
 12 40  1  0
 14 41  1  0
 15 42  1  0
 18 43  1  0
 18 44  1  0
 18 45  1  0
 20 46  1  0
 23 47  1  0
 25 48  1  0
 26 49  1  0
 29 50  1  0
 29 51  1  0
 29 52  1  0
 32 53  1  0
 32 54  1  0
 32 55  1  0
 33 56  1  0
M  END
$$$$
[H]c1c(C(=O)N2C([H])([H])C([H])([H])C([H])(c3c([H])c([H])c([H])c([H])c3[H])C([H])([H])C2([H])[H])nc(C([H])(C([H])([H])[H])C([H])([H])[H])nc1-c1c([H])c([H])c(S(=O)(=O)C([H])([H])[H])c([H])c1[H]
     RDKit          3D

 62 65  0  0  0  0  0  0  0  0999 V2000
    1.6444   -2.6337   -2.8101 C   0  0  0  0  0  0  0  0  0  0  0  0
    1.0672   -2.8706   -1.4508 C   0  0  0  0  0  0  0  0  0  0  0  0
    1.7493   -4.0209   -0.7274 C   0  0  0  0  0  0  0  0  0  0  0  0
    1.2576   -1.6450   -0.6386 C   0  0  0  0  0  0  0  0  0  0  0  0
    0.2044   -1.0296   -0.0981 N   0  0  0  0  0  0  0  0  0  0  0  0
    0.2988    0.0657    0.6365 C   0  0  0  0  0  0  0  0  0  0  0  0
    1.5703    0.5831    0.8416 C   0  0  0  0  0  0  0  0  0  0  0  0
    2.6810   -0.0161    0.3055 C   0  0  0  0  0  0  0  0  0  0  0  0
    2.4772   -1.1322   -0.4307 N   0  0  0  0  0  0  0  0  0  0  0  0
    4.0115    0.5276    0.5219 C   0  0  0  0  0  0  0  0  0  0  0  0
    4.2602    1.6581    1.2616 C   0  0  0  0  0  0  0  0  0  0  0  0
    5.5494    2.1425    1.4428 C   0  0  0  0  0  0  0  0  0  0  0  0
    6.6297    1.4976    0.8804 C   0  0  0  0  0  0  0  0  0  0  0  0
    6.4081    0.3604    0.1331 C   0  0  0  0  0  0  0  0  0  0  0  0
    5.1338   -0.1003   -0.0336 C   0  0  0  0  0  0  0  0  0  0  0  0
    8.2305    2.1454    1.1367 S   0  0  0  0  0  0  0  0  0  0  0  0
    8.5970    3.2924   -0.1599 C   0  0  0  0  0  0  0  0  0  0  0  0
    8.2614    2.8937    2.4410 O   0  0  0  0  0  0  0  0  0  0  0  0
    9.2596    1.0404    1.1745 O   0  0  0  0  0  0  0  0  0  0  0  0
   -0.8750    0.6911    1.1978 C   0  0  0  0  0  0  0  0  0  0  0  0
   -0.6842    1.7489    1.8961 O   0  0  0  0  0  0  0  0  0  0  0  0
   -2.1764    0.1824    1.0017 N   0  0  0  0  0  0  0  0  0  0  0  0
   -2.5166   -0.9874    0.2433 C   0  0  0  0  0  0  0  0  0  0  0  0
   -4.0499   -1.1042    0.2193 C   0  0  0  0  0  0  0  0  0  0  0  0
   -4.5729    0.1630   -0.3810 C   0  0  0  0  0  0  0  0  0  0  0  0
   -4.2247    1.3154    0.5092 C   0  0  0  0  0  0  0  0  0  0  0  0
   -3.2937    0.9072    1.6268 C   0  0  0  0  0  0  0  0  0  0  0  0
   -6.0490    0.1490   -0.5377 C   0  0  0  0  0  0  0  0  0  0  0  0
   -6.8993    0.0493    0.5401 C   0  0  0  0  0  0  0  0  0  0  0  0
   -8.2720    0.0370    0.3827 C   0  0  0  0  0  0  0  0  0  0  0  0
   -8.7954    0.1280   -0.9006 C   0  0  0  0  0  0  0  0  0  0  0  0
   -7.9768    0.2285   -1.9950 C   0  0  0  0  0  0  0  0  0  0  0  0
   -6.6213    0.2364   -1.7855 C   0  0  0  0  0  0  0  0  0  0  0  0
    1.7664   -3.5586   -3.4052 H   0  0  0  0  0  0  0  0  0  0  0  0
    0.9814   -1.9231   -3.3405 H   0  0  0  0  0  0  0  0  0  0  0  0
    2.6387   -2.1333   -2.6753 H   0  0  0  0  0  0  0  0  0  0  0  0
   -0.0040   -3.1268   -1.5017 H   0  0  0  0  0  0  0  0  0  0  0  0
    1.2518   -4.1142    0.2504 H   0  0  0  0  0  0  0  0  0  0  0  0
    2.7891   -3.7366   -0.5554 H   0  0  0  0  0  0  0  0  0  0  0  0
    1.6943   -4.9605   -1.2893 H   0  0  0  0  0  0  0  0  0  0  0  0
    1.6350    1.4802    1.4447 H   0  0  0  0  0  0  0  0  0  0  0  0
    3.4742    2.2046    1.7233 H   0  0  0  0  0  0  0  0  0  0  0  0
    5.7337    3.0347    2.0280 H   0  0  0  0  0  0  0  0  0  0  0  0
    7.2828   -0.1139   -0.2898 H   0  0  0  0  0  0  0  0  0  0  0  0
    4.9503   -0.9829   -0.6124 H   0  0  0  0  0  0  0  0  0  0  0  0
    8.9814    2.7454   -1.0491 H   0  0  0  0  0  0  0  0  0  0  0  0
    9.3131    4.0281    0.2285 H   0  0  0  0  0  0  0  0  0  0  0  0
    7.6610    3.8228   -0.4502 H   0  0  0  0  0  0  0  0  0  0  0  0
   -2.0764   -1.8983    0.6813 H   0  0  0  0  0  0  0  0  0  0  0  0
   -2.2417   -0.8167   -0.8178 H   0  0  0  0  0  0  0  0  0  0  0  0
   -4.2764   -1.9911   -0.4224 H   0  0  0  0  0  0  0  0  0  0  0  0
   -4.4453   -1.3371    1.2124 H   0  0  0  0  0  0  0  0  0  0  0  0
   -4.1207    0.2554   -1.3920 H   0  0  0  0  0  0  0  0  0  0  0  0
   -3.7387    2.1015   -0.1128 H   0  0  0  0  0  0  0  0  0  0  0  0
   -5.1337    1.8005    0.9540 H   0  0  0  0  0  0  0  0  0  0  0  0
   -3.8296    0.2381    2.3336 H   0  0  0  0  0  0  0  0  0  0  0  0
   -2.9283    1.8091    2.1648 H   0  0  0  0  0  0  0  0  0  0  0  0
   -6.4714   -0.0199    1.5226 H   0  0  0  0  0  0  0  0  0  0  0  0
   -8.9301   -0.0414    1.2313 H   0  0  0  0  0  0  0  0  0  0  0  0
   -9.8708    0.1188   -1.0292 H   0  0  0  0  0  0  0  0  0  0  0  0
   -8.4267    0.2977   -2.9823 H   0  0  0  0  0  0  0  0  0  0  0  0
   -5.9434    0.3144   -2.6253 H   0  0  0  0  0  0  0  0  0  0  0  0
  1  2  1  0
  2  3  1  0
  2  4  1  0
  4  5  2  0
  5  6  1  0
  6  7  2  0
  7  8  1  0
  8  9  2  0
  8 10  1  0
 10 11  2  0
 11 12  1  0
 12 13  2  0
 13 14  1  0
 14 15  2  0
 13 16  1  0
 16 17  1  0
 16 18  2  0
 16 19  2  0
  6 20  1  0
 20 21  2  0
 20 22  1  0
 22 23  1  0
 23 24  1  0
 24 25  1  0
 25 26  1  0
 26 27  1  0
 25 28  1  0
 28 29  2  0
 29 30  1  0
 30 31  2  0
 31 32  1  0
 32 33  2  0
  9  4  1  0
 15 10  1  0
 27 22  1  0
 33 28  1  0
  1 34  1  0
  1 35  1  0
  1 36  1  0
  2 37  1  0
  3 38  1  0
  3 39  1  0
  3 40  1  0
  7 41  1  0
 11 42  1  0
 12 43  1  0
 14 44  1  0
 15 45  1  0
 17 46  1  0
 17 47  1  0
 17 48  1  0
 23 49  1  0
 23 50  1  0
 24 51  1  0
 24 52  1  0
 25 53  1  0
 26 54  1  0
 26 55  1  0
 27 56  1  0
 27 57  1  0
 29 58  1  0
 30 59  1  0
 31 60  1  0
 32 61  1  0
 33 62  1  0
M  END
$$$$
[H]c1c(Cl)c(Cl)c([H])c(C(=O)N([H])[C@]2([H])C([H])([H])C([H])([H])[C@@]([H])(N([H])C(=O)OC(C([H])([H])[H])(C([H])([H])[H])C([H])([H])[H])C([H])([H])C2([H])[H])c1Cl
     RDKit          3D

 49 50  0  0  0  0  0  0  0  0999 V2000
   -5.6986   -2.1492    0.3620 C   0  0  0  0  0  0  0  0  0  0  0  0
   -5.7321   -0.6177    0.3534 C   0  0  0  0  0  0  0  0  0  0  0  0
   -6.7145   -0.1335   -0.7148 C   0  0  0  0  0  0  0  0  0  0  0  0
   -6.2476   -0.1868    1.6931 C   0  0  0  0  0  0  0  0  0  0  0  0
   -4.4774   -0.1693    0.0148 O   0  0  0  0  0  0  0  0  0  0  0  0
   -3.2942   -0.3932    0.6714 C   0  0  0  0  0  0  0  0  0  0  0  0
   -3.3537   -1.0939    1.7136 O   0  0  0  0  0  0  0  0  0  0  0  0
   -2.0810    0.1509    0.1764 N   0  0  0  0  0  0  0  0  0  0  0  0
   -0.8040   -0.0522    0.8272 C   0  0  1  0  0  0  0  0  0  0  0  0
    0.1585   -0.8564   -0.0159 C   0  0  0  0  0  0  0  0  0  0  0  0
    0.7124    0.0617   -1.0760 C   0  0  0  0  0  0  0  0  0  0  0  0
    1.6276    1.0560   -0.3834 C   0  0  1  0  0  0  0  0  0  0  0  0
    1.2492    1.3044    1.0437 C   0  0  0  0  0  0  0  0  0  0  0  0
   -0.2236    1.2371    1.3101 C   0  0  0  0  0  0  0  0  0  0  0  0
    2.9605    0.4943   -0.4248 N   0  0  0  0  0  0  0  0  0  0  0  0
    3.9781    1.1782   -1.1328 C   0  0  0  0  0  0  0  0  0  0  0  0
    3.7061    2.2552   -1.7102 O   0  0  0  0  0  0  0  0  0  0  0  0
    5.3407    0.6677   -1.2128 C   0  0  0  0  0  0  0  0  0  0  0  0
    5.6845   -0.1770   -2.2480 C   0  0  0  0  0  0  0  0  0  0  0  0
    6.9743   -0.6650   -2.3293 C   0  0  0  0  0  0  0  0  0  0  0  0
    7.4200   -1.7414   -3.6436 Cl  0  0  0  0  0  0  0  0  0  0  0  0
    7.9167   -0.3284   -1.4056 C   0  0  0  0  0  0  0  0  0  0  0  0
    9.5371   -0.9570   -1.5298 Cl  0  0  0  0  0  0  0  0  0  0  0  0
    7.5776    0.5213   -0.3611 C   0  0  0  0  0  0  0  0  0  0  0  0
    6.2908    1.0108   -0.2762 C   0  0  0  0  0  0  0  0  0  0  0  0
    5.8874    2.0872    1.0598 Cl  0  0  0  0  0  0  0  0  0  0  0  0
   -4.9226   -2.4724   -0.3453 H   0  0  0  0  0  0  0  0  0  0  0  0
   -6.7002   -2.5574    0.1172 H   0  0  0  0  0  0  0  0  0  0  0  0
   -5.3816   -2.4552    1.3798 H   0  0  0  0  0  0  0  0  0  0  0  0
   -7.4399    0.5713   -0.2791 H   0  0  0  0  0  0  0  0  0  0  0  0
   -6.1817    0.3958   -1.5418 H   0  0  0  0  0  0  0  0  0  0  0  0
   -7.1898   -1.0242   -1.1863 H   0  0  0  0  0  0  0  0  0  0  0  0
   -7.3694   -0.1904    1.6135 H   0  0  0  0  0  0  0  0  0  0  0  0
   -6.0181   -0.9603    2.4594 H   0  0  0  0  0  0  0  0  0  0  0  0
   -5.9691    0.8302    1.9857 H   0  0  0  0  0  0  0  0  0  0  0  0
   -2.0972    0.7158   -0.6815 H   0  0  0  0  0  0  0  0  0  0  0  0
   -1.0096   -0.6909    1.7365 H   0  0  0  0  0  0  0  0  0  0  0  0
    0.9429   -1.2512    0.6639 H   0  0  0  0  0  0  0  0  0  0  0  0
   -0.4054   -1.7089   -0.4429 H   0  0  0  0  0  0  0  0  0  0  0  0
   -0.1636    0.5791   -1.5413 H   0  0  0  0  0  0  0  0  0  0  0  0
    1.2523   -0.5560   -1.8124 H   0  0  0  0  0  0  0  0  0  0  0  0
    1.5531    2.0000   -0.9320 H   0  0  0  0  0  0  0  0  0  0  0  0
    1.5890    2.3270    1.3376 H   0  0  0  0  0  0  0  0  0  0  0  0
    1.7494    0.5742    1.7242 H   0  0  0  0  0  0  0  0  0  0  0  0
   -0.7699    2.0939    0.8279 H   0  0  0  0  0  0  0  0  0  0  0  0
   -0.3591    1.3597    2.4117 H   0  0  0  0  0  0  0  0  0  0  0  0
    3.2128   -0.3975    0.0448 H   0  0  0  0  0  0  0  0  0  0  0  0
    4.9610   -0.4666   -3.0016 H   0  0  0  0  0  0  0  0  0  0  0  0
    8.3218    0.7802    0.3588 H   0  0  0  0  0  0  0  0  0  0  0  0
  1  2  1  0
  2  3  1  0
  2  4  1  0
  2  5  1  0
  5  6  1  0
  6  7  2  0
  6  8  1  0
  8  9  1  0
  9 10  1  0
 10 11  1  0
 11 12  1  0
 12 13  1  0
 13 14  1  0
 12 15  1  0
 15 16  1  0
 16 17  2  0
 16 18  1  0
 18 19  2  0
 19 20  1  0
 20 21  1  0
 20 22  2  0
 22 23  1  0
 22 24  1  0
 24 25  2  0
 25 26  1  0
 14  9  1  0
 25 18  1  0
  1 27  1  0
  1 28  1  0
  1 29  1  0
  3 30  1  0
  3 31  1  0
  3 32  1  0
  4 33  1  0
  4 34  1  0
  4 35  1  0
  8 36  1  0
  9 37  1  1
 10 38  1  0
 10 39  1  0
 11 40  1  0
 11 41  1  0
 12 42  1  6
 13 43  1  0
 13 44  1  0
 14 45  1  0
 14 46  1  0
 15 47  1  0
 19 48  1  0
 24 49  1  0
M  END
$$$$
[H]C([H])=C([H])C(=O)N1C([H])([H])C([H])([H])C([H])([H])[C@@]([H])(n2nc(-c3c([H])c([H])c(F)c([H])c3[H])c3c(N([H])[H])nc([H])nc32)C1([H])[H]
     RDKit          3D

 46 49  0  0  0  0  0  0  0  0999 V2000
   -3.8653    1.5058   -1.9938 N   0  0  0  0  0  0  0  0  0  0  0  0
   -2.4796    1.6189   -1.7317 C   0  0  0  0  0  0  0  0  0  0  0  0
   -1.6967    2.4530   -2.4503 N   0  0  0  0  0  0  0  0  0  0  0  0
   -0.3763    2.5451   -2.2399 C   0  0  0  0  0  0  0  0  0  0  0  0
    0.2024    1.7941   -1.2917 N   0  0  0  0  0  0  0  0  0  0  0  0
   -0.4909    0.9499   -0.5405 C   0  0  0  0  0  0  0  0  0  0  0  0
   -0.1207    0.1044    0.4375 N   0  0  0  0  0  0  0  0  0  0  0  0
   -1.1961   -0.5112    0.8408 N   0  0  0  0  0  0  0  0  0  0  0  0
   -2.3027   -0.0866    0.1395 C   0  0  0  0  0  0  0  0  0  0  0  0
   -3.6415   -0.5963    0.3273 C   0  0  0  0  0  0  0  0  0  0  0  0
   -4.6641    0.2372    0.6823 C   0  0  0  0  0  0  0  0  0  0  0  0
   -5.9786   -0.2214    0.8498 C   0  0  0  0  0  0  0  0  0  0  0  0
   -6.2621   -1.5558    0.6535 C   0  0  0  0  0  0  0  0  0  0  0  0
   -7.5294   -2.0235    0.8101 F   0  0  0  0  0  0  0  0  0  0  0  0
   -5.2239   -2.3889    0.2964 C   0  0  0  0  0  0  0  0  0  0  0  0
   -3.9350   -1.9452    0.1306 C   0  0  0  0  0  0  0  0  0  0  0  0
   -1.8733    0.8430   -0.7474 C   0  0  0  0  0  0  0  0  0  0  0  0
    1.2274   -0.0828    0.9449 C   0  0  2  0  0  0  0  0  0  0  0  0
    1.9848    1.2239    1.0524 C   0  0  0  0  0  0  0  0  0  0  0  0
    3.1727    0.9698    1.9575 C   0  0  0  0  0  0  0  0  0  0  0  0
    3.7622   -0.4110    1.7202 C   0  0  0  0  0  0  0  0  0  0  0  0
    3.4134   -0.7914    0.3795 N   0  0  0  0  0  0  0  0  0  0  0  0
    2.0224   -1.0609    0.1012 C   0  0  0  0  0  0  0  0  0  0  0  0
    4.3726   -0.8961   -0.6273 C   0  0  0  0  0  0  0  0  0  0  0  0
    3.9985   -1.2428   -1.7955 O   0  0  0  0  0  0  0  0  0  0  0  0
    5.7994   -0.6412   -0.4714 C   0  0  0  0  0  0  0  0  0  0  0  0
    6.6487   -0.7617   -1.4710 C   0  0  0  0  0  0  0  0  0  0  0  0
   -4.2746    0.6650   -2.4644 H   0  0  0  0  0  0  0  0  0  0  0  0
   -4.5300    2.2741   -1.7190 H   0  0  0  0  0  0  0  0  0  0  0  0
    0.2039    3.2453   -2.8609 H   0  0  0  0  0  0  0  0  0  0  0  0
   -4.5136    1.3105    0.8760 H   0  0  0  0  0  0  0  0  0  0  0  0
   -6.7580    0.4824    1.1327 H   0  0  0  0  0  0  0  0  0  0  0  0
   -5.4579   -3.4496    0.1424 H   0  0  0  0  0  0  0  0  0  0  0  0
   -3.1515   -2.6211   -0.1477 H   0  0  0  0  0  0  0  0  0  0  0  0
    1.1834   -0.5069    1.9696 H   0  0  0  0  0  0  0  0  0  0  0  0
    2.3919    1.5598    0.0802 H   0  0  0  0  0  0  0  0  0  0  0  0
    1.3512    1.9832    1.5525 H   0  0  0  0  0  0  0  0  0  0  0  0
    2.8329    1.0112    3.0239 H   0  0  0  0  0  0  0  0  0  0  0  0
    3.9548    1.7568    1.8596 H   0  0  0  0  0  0  0  0  0  0  0  0
    4.8198   -0.4863    1.9465 H   0  0  0  0  0  0  0  0  0  0  0  0
    3.2088   -1.1425    2.3845 H   0  0  0  0  0  0  0  0  0  0  0  0
    1.7616   -1.0402   -0.9568 H   0  0  0  0  0  0  0  0  0  0  0  0
    1.8303   -2.1133    0.4615 H   0  0  0  0  0  0  0  0  0  0  0  0
    6.1932   -0.3373    0.5029 H   0  0  0  0  0  0  0  0  0  0  0  0
    7.6916   -0.5628   -1.3070 H   0  0  0  0  0  0  0  0  0  0  0  0
    6.2941   -1.0568   -2.4397 H   0  0  0  0  0  0  0  0  0  0  0  0
  1  2  1  0
  2  3  2  0
  3  4  1  0
  4  5  2  0
  5  6  1  0
  6  7  1  0
  7  8  1  0
  8  9  2  0
  9 10  1  0
 10 11  2  0
 11 12  1  0
 12 13  2  0
 13 14  1  0
 13 15  1  0
 15 16  2  0
  9 17  1  0
  7 18  1  0
 18 19  1  0
 19 20  1  0
 20 21  1  0
 21 22  1  0
 22 23  1  0
 22 24  1  0
 24 25  2  0
 24 26  1  0
 26 27  2  3
 17  2  1  0
 23 18  1  0
 17  6  2  0
 16 10  1  0
  1 28  1  0
  1 29  1  0
  4 30  1  0
 11 31  1  0
 12 32  1  0
 15 33  1  0
 16 34  1  0
 18 35  1  1
 19 36  1  0
 19 37  1  0
 20 38  1  0
 20 39  1  0
 21 40  1  0
 21 41  1  0
 23 42  1  0
 23 43  1  0
 26 44  1  0
 27 45  1  0
 27 46  1  0
M  END
$$$$
[H]Oc1c([H])c([H])c(C([H])([H])[C@@]([H])(C(=O)N([H])[C@]([H])(C(=O)N([H])[C@]([H])(C(=O)N([H])[C@]([H])(C(=O)N([H])[C@]([H])(C(=O)N([H])[H])C([H])([H])c2c([H])c([H])c([H])c([H])c2[H])C([H])([H])c2c([H])c([H])c(O[H])c([H])c2[H])C([H])([H])[H])C([H])([H])c2c([H])c([H])c([H])c([H])c2[H])N([H])[H])c([H])c1[H]
     RDKit          3D

 96 99  0  0  0  0  0  0  0  0999 V2000
   -0.6165   -0.1979    2.0466 C   0  0  0  0  0  0  0  0  0  0  0  0
   -0.6178   -0.2722    0.4933 C   0  0  2  0  0  0  0  0  0  0  0  0
    0.6534    0.2001    0.0013 N   0  0  0  0  0  0  0  0  0  0  0  0
    1.8858   -0.4821   -0.0185 C   0  0  0  0  0  0  0  0  0  0  0  0
    1.9547   -1.6255    0.4653 O   0  0  0  0  0  0  0  0  0  0  0  0
    3.0684    0.1539   -0.6058 C   0  0  2  0  0  0  0  0  0  0  0  0
    3.3124   -0.3556   -2.0400 C   0  0  0  0  0  0  0  0  0  0  0  0
    3.5349   -1.7895   -2.0919 C   0  0  0  0  0  0  0  0  0  0  0  0
    4.8548   -2.2079   -1.8724 C   0  0  0  0  0  0  0  0  0  0  0  0
    5.1909   -3.5424   -1.8993 C   0  0  0  0  0  0  0  0  0  0  0  0
    4.2600   -4.5187   -2.1407 C   0  0  0  0  0  0  0  0  0  0  0  0
    2.9473   -4.1141   -2.3601 C   0  0  0  0  0  0  0  0  0  0  0  0
    2.6216   -2.7695   -2.3301 C   0  0  0  0  0  0  0  0  0  0  0  0
    4.3099    0.0373    0.1339 N   0  0  0  0  0  0  0  0  0  0  0  0
    5.1299    1.1785    0.1972 C   0  0  0  0  0  0  0  0  0  0  0  0
    4.6963    2.2385   -0.4109 O   0  0  0  0  0  0  0  0  0  0  0  0
    6.4402    1.3197    0.8755 C   0  0  1  0  0  0  0  0  0  0  0  0
    6.7066    0.0806    1.5985 N   0  0  0  0  0  0  0  0  0  0  0  0
    7.5083    1.5638   -0.1704 C   0  0  0  0  0  0  0  0  0  0  0  0
    8.8550    1.7771    0.3448 C   0  0  0  0  0  0  0  0  0  0  0  0
    9.2105    3.1126    0.5747 C   0  0  0  0  0  0  0  0  0  0  0  0
   10.4492    3.4782    1.0404 C   0  0  0  0  0  0  0  0  0  0  0  0
   11.3999    2.5351    1.3037 C   0  0  0  0  0  0  0  0  0  0  0  0
   12.6571    2.8656    1.7724 O   0  0  0  0  0  0  0  0  0  0  0  0
   11.0472    1.1899    1.0736 C   0  0  0  0  0  0  0  0  0  0  0  0
    9.8029    0.8248    0.6058 C   0  0  0  0  0  0  0  0  0  0  0  0
   -1.6985    0.6897    0.0970 C   0  0  0  0  0  0  0  0  0  0  0  0
   -1.3281    1.9085    0.2522 O   0  0  0  0  0  0  0  0  0  0  0  0
   -2.9607    0.3794   -0.3894 N   0  0  0  0  0  0  0  0  0  0  0  0
   -4.1791    0.0887   -0.8589 C   0  0  1  0  0  0  0  0  0  0  0  0
   -4.4156   -1.1928   -1.6019 C   0  0  0  0  0  0  0  0  0  0  0  0
   -4.1788   -2.4484   -0.9481 C   0  0  0  0  0  0  0  0  0  0  0  0
   -2.9752   -3.1215   -0.9682 C   0  0  0  0  0  0  0  0  0  0  0  0
   -2.8138   -4.3439   -0.3368 C   0  0  0  0  0  0  0  0  0  0  0  0
   -3.8581   -4.9376    0.3415 C   0  0  0  0  0  0  0  0  0  0  0  0
   -3.6882   -6.1791    0.9804 O   0  0  0  0  0  0  0  0  0  0  0  0
   -5.0491   -4.2917    0.3739 C   0  0  0  0  0  0  0  0  0  0  0  0
   -5.2071   -3.0743   -0.2575 C   0  0  0  0  0  0  0  0  0  0  0  0
   -5.3154    0.2895    0.1559 C   0  0  0  0  0  0  0  0  0  0  0  0
   -4.9950    0.3809    1.3299 O   0  0  0  0  0  0  0  0  0  0  0  0
   -6.6366    0.3707   -0.2836 N   0  0  0  0  0  0  0  0  0  0  0  0
   -7.7953    0.5717    0.5707 C   0  0  1  0  0  0  0  0  0  0  0  0
   -8.3570    1.9649    0.2544 C   0  0  0  0  0  0  0  0  0  0  0  0
   -7.2855    2.9485    0.5655 C   0  0  0  0  0  0  0  0  0  0  0  0
   -7.2482    3.4770    1.8536 C   0  0  0  0  0  0  0  0  0  0  0  0
   -6.2488    4.3934    2.1753 C   0  0  0  0  0  0  0  0  0  0  0  0
   -5.3035    4.7836    1.2505 C   0  0  0  0  0  0  0  0  0  0  0  0
   -5.3507    4.2478   -0.0338 C   0  0  0  0  0  0  0  0  0  0  0  0
   -6.3449    3.3430   -0.3374 C   0  0  0  0  0  0  0  0  0  0  0  0
   -8.8158   -0.4605    0.3838 C   0  0  0  0  0  0  0  0  0  0  0  0
   -9.9984   -0.4190    1.1666 N   0  0  0  0  0  0  0  0  0  0  0  0
   -8.6670   -1.3685   -0.4450 O   0  0  0  0  0  0  0  0  0  0  0  0
   -0.1298    0.7668    2.3211 H   0  0  0  0  0  0  0  0  0  0  0  0
   -0.1499   -1.0832    2.4905 H   0  0  0  0  0  0  0  0  0  0  0  0
   -1.6824   -0.1582    2.3363 H   0  0  0  0  0  0  0  0  0  0  0  0
   -0.7751   -1.2991    0.2630 H   0  0  0  0  0  0  0  0  0  0  0  0
    0.6646    1.1791   -0.3954 H   0  0  0  0  0  0  0  0  0  0  0  0
    2.8669    1.2236   -0.7565 H   0  0  0  0  0  0  0  0  0  0  0  0
    4.2175    0.1717   -2.3892 H   0  0  0  0  0  0  0  0  0  0  0  0
    2.4787   -0.0045   -2.6390 H   0  0  0  0  0  0  0  0  0  0  0  0
    5.6474   -1.5005   -1.6738 H   0  0  0  0  0  0  0  0  0  0  0  0
    6.2214   -3.8797   -1.7283 H   0  0  0  0  0  0  0  0  0  0  0  0
    4.5092   -5.5700   -2.1633 H   0  0  0  0  0  0  0  0  0  0  0  0
    2.1935   -4.8353   -2.5534 H   0  0  0  0  0  0  0  0  0  0  0  0
    1.6064   -2.4718   -2.5015 H   0  0  0  0  0  0  0  0  0  0  0  0
    4.6095   -0.8345    0.6087 H   0  0  0  0  0  0  0  0  0  0  0  0
    6.3948    2.2026    1.5317 H   0  0  0  0  0  0  0  0  0  0  0  0
    6.5817   -0.7494    1.0031 H   0  0  0  0  0  0  0  0  0  0  0  0
    5.9446    0.0204    2.3405 H   0  0  0  0  0  0  0  0  0  0  0  0
    7.1921    2.4549   -0.7568 H   0  0  0  0  0  0  0  0  0  0  0  0
    7.5235    0.7195   -0.9210 H   0  0  0  0  0  0  0  0  0  0  0  0
    8.5085    3.9231    0.3923 H   0  0  0  0  0  0  0  0  0  0  0  0
   10.6838    4.5417    1.2096 H   0  0  0  0  0  0  0  0  0  0  0  0
   12.8478    2.9310    2.7754 H   0  0  0  0  0  0  0  0  0  0  0  0
   11.8344    0.4806    1.2935 H   0  0  0  0  0  0  0  0  0  0  0  0
    9.5590   -0.1928    0.4416 H   0  0  0  0  0  0  0  0  0  0  0  0
   -3.2867    1.7044   -0.3029 H   0  0  0  0  0  0  0  0  0  0  0  0
   -4.5258    0.8891   -1.6273 H   0  0  0  0  0  0  0  0  0  0  0  0
   -5.4909   -1.1564   -1.9420 H   0  0  0  0  0  0  0  0  0  0  0  0
   -3.8594   -1.1806   -2.5865 H   0  0  0  0  0  0  0  0  0  0  0  0
   -2.1149   -2.7189   -1.4790 H   0  0  0  0  0  0  0  0  0  0  0  0
   -1.8803   -4.9042   -0.3352 H   0  0  0  0  0  0  0  0  0  0  0  0
   -3.8744   -7.0582    0.4943 H   0  0  0  0  0  0  0  0  0  0  0  0
   -5.9163   -4.7175    0.8942 H   0  0  0  0  0  0  0  0  0  0  0  0
   -6.1427   -2.6047   -0.2122 H   0  0  0  0  0  0  0  0  0  0  0  0
   -6.8416    0.2828   -1.2988 H   0  0  0  0  0  0  0  0  0  0  0  0
   -7.4375    0.5472    1.6185 H   0  0  0  0  0  0  0  0  0  0  0  0
   -8.5778    1.9759   -0.8389 H   0  0  0  0  0  0  0  0  0  0  0  0
   -9.2783    2.0942    0.8124 H   0  0  0  0  0  0  0  0  0  0  0  0
   -8.0028    3.1515    2.5491 H   0  0  0  0  0  0  0  0  0  0  0  0
   -6.2212    4.8004    3.1720 H   0  0  0  0  0  0  0  0  0  0  0  0
   -4.5311    5.5070    1.5213 H   0  0  0  0  0  0  0  0  0  0  0  0
   -4.5922    4.5626   -0.7688 H   0  0  0  0  0  0  0  0  0  0  0  0
   -6.3742    2.9354   -1.3337 H   0  0  0  0  0  0  0  0  0  0  0  0
  -10.1256   -1.0258    2.0317 H   0  0  0  0  0  0  0  0  0  0  0  0
  -10.8227    0.1993    0.9582 H   0  0  0  0  0  0  0  0  0  0  0  0
  1  2  1  0
  2  3  1  0
  3  4  1  0
  4  5  2  0
  4  6  1  0
  6  7  1  0
  7  8  1  0
  8  9  2  0
  9 10  1  0
 10 11  2  0
 11 12  1  0
 12 13  2  0
  6 14  1  0
 14 15  1  0
 15 16  2  0
 15 17  1  0
 17 18  1  0
 17 19  1  0
 19 20  1  0
 20 21  2  0
 21 22  1  0
 22 23  2  0
 23 24  1  0
 23 25  1  0
 25 26  2  0
  2 27  1  0
 27 28  2  0
 27 29  1  0
 29 30  1  0
 30 31  1  0
 31 32  1  0
 32 33  2  0
 33 34  1  0
 34 35  2  0
 35 36  1  0
 35 37  1  0
 37 38  2  0
 30 39  1  0
 39 40  2  0
 39 41  1  0
 41 42  1  0
 42 43  1  0
 43 44  1  0
 44 45  2  0
 45 46  1  0
 46 47  2  0
 47 48  1  0
 48 49  2  0
 42 50  1  0
 50 51  1  0
 50 52  2  0
 13  8  1  0
 26 20  1  0
 38 32  1  0
 49 44  1  0
  1 53  1  0
  1 54  1  0
  1 55  1  0
  2 56  1  1
  3 57  1  0
  6 58  1  6
  7 59  1  0
  7 60  1  0
  9 61  1  0
 10 62  1  0
 11 63  1  0
 12 64  1  0
 13 65  1  0
 14 66  1  0
 17 67  1  1
 18 68  1  0
 18 69  1  0
 19 70  1  0
 19 71  1  0
 21 72  1  0
 22 73  1  0
 24 74  1  0
 25 75  1  0
 26 76  1  0
 29 77  1  0
 30 78  1  6
 31 79  1  0
 31 80  1  0
 33 81  1  0
 34 82  1  0
 36 83  1  0
 37 84  1  0
 38 85  1  0
 41 86  1  0
 42 87  1  1
 43 88  1  0
 43 89  1  0
 45 90  1  0
 46 91  1  0
 47 92  1  0
 48 93  1  0
 49 94  1  0
 51 95  1  0
 51 96  1  0
M  END
$$$$
