[H]c1c([H])c([H])c(-c2c([H])c([H])c([H])c(-c3c([H])c([H])c([H])c([H])c3N([H])S(=O)(=O)c3c([H])c([H])c(OC([H])([H])[H])c([H])c3[H])c2[H])c([H])c1[H]
     RDKit          3D

 51 54  0  0  0  0  0  0  0  0999 V2000
    7.6385    0.5916    1.9131 C   0  0  0  0  0  0  0  0  0  0  0  0
    7.1215    0.2643    0.6422 O   0  0  0  0  0  0  0  0  0  0  0  0
    5.7946   -0.1129    0.5452 C   0  0  0  0  0  0  0  0  0  0  0  0
    5.2576   -0.4395   -0.6817 C   0  0  0  0  0  0  0  0  0  0  0  0
    3.9229   -0.8187   -0.7777 C   0  0  0  0  0  0  0  0  0  0  0  0
    3.1132   -0.8772    0.3355 C   0  0  0  0  0  0  0  0  0  0  0  0
    3.6624   -0.5489    1.5515 C   0  0  0  0  0  0  0  0  0  0  0  0
    4.9905   -0.1660    1.6851 C   0  0  0  0  0  0  0  0  0  0  0  0
    1.4481   -1.3484    0.2277 S   0  0  0  0  0  0  0  0  0  0  0  0
    1.0853   -2.2057    1.4311 O   0  0  0  0  0  0  0  0  0  0  0  0
    1.3273   -2.2094   -1.0180 O   0  0  0  0  0  0  0  0  0  0  0  0
    0.3388   -0.0590    0.1415 N   0  0  0  0  0  0  0  0  0  0  0  0
    0.2905    0.9212   -0.8934 C   0  0  0  0  0  0  0  0  0  0  0  0
    1.3555    1.7862   -1.0365 C   0  0  0  0  0  0  0  0  0  0  0  0
    1.3969    2.7620   -2.0069 C   0  0  0  0  0  0  0  0  0  0  0  0
    0.3469    2.9010   -2.8807 C   0  0  0  0  0  0  0  0  0  0  0  0
   -0.7021    2.0611   -2.7508 C   0  0  0  0  0  0  0  0  0  0  0  0
   -0.7680    1.0574   -1.7687 C   0  0  0  0  0  0  0  0  0  0  0  0
   -1.9339    0.2064   -1.6790 C   0  0  0  0  0  0  0  0  0  0  0  0
   -2.3058   -0.5466   -2.7622 C   0  0  0  0  0  0  0  0  0  0  0  0
   -3.4467   -1.3622   -2.7219 C   0  0  0  0  0  0  0  0  0  0  0  0
   -4.1915   -1.3906   -1.5613 C   0  0  0  0  0  0  0  0  0  0  0  0
   -3.8314   -0.6375   -0.4596 C   0  0  0  0  0  0  0  0  0  0  0  0
   -2.6840    0.1662   -0.5386 C   0  0  0  0  0  0  0  0  0  0  0  0
   -4.6119   -0.6641    0.7653 C   0  0  0  0  0  0  0  0  0  0  0  0
   -5.2847   -1.7944    1.1630 C   0  0  0  0  0  0  0  0  0  0  0  0
   -6.0163   -1.7884    2.3288 C   0  0  0  0  0  0  0  0  0  0  0  0
   -6.0955   -0.6537    3.1284 C   0  0  0  0  0  0  0  0  0  0  0  0
   -5.4230    0.4810    2.7338 C   0  0  0  0  0  0  0  0  0  0  0  0
   -4.6838    0.4751    1.5559 C   0  0  0  0  0  0  0  0  0  0  0  0
    7.0704    1.4675    2.2752 H   0  0  0  0  0  0  0  0  0  0  0  0
    7.5090   -0.2477    2.6363 H   0  0  0  0  0  0  0  0  0  0  0  0
    8.7311    0.8127    1.8615 H   0  0  0  0  0  0  0  0  0  0  0  0
    5.8925   -0.3930   -1.5493 H   0  0  0  0  0  0  0  0  0  0  0  0
    3.5588   -1.0641   -1.7727 H   0  0  0  0  0  0  0  0  0  0  0  0
    3.0149   -0.5986    2.4213 H   0  0  0  0  0  0  0  0  0  0  0  0
    5.3975    0.0873    2.6538 H   0  0  0  0  0  0  0  0  0  0  0  0
   -0.3614    0.0419    0.9053 H   0  0  0  0  0  0  0  0  0  0  0  0
    2.2136    1.7183   -0.3509 H   0  0  0  0  0  0  0  0  0  0  0  0
    2.2598    3.4245   -2.0840 H   0  0  0  0  0  0  0  0  0  0  0  0
    0.3389    3.6633   -3.6677 H   0  0  0  0  0  0  0  0  0  0  0  0
   -1.5584    2.1273   -3.4146 H   0  0  0  0  0  0  0  0  0  0  0  0
   -1.7498   -0.5529   -3.6899 H   0  0  0  0  0  0  0  0  0  0  0  0
   -3.7323   -1.9510   -3.5771 H   0  0  0  0  0  0  0  0  0  0  0  0
   -5.0859   -2.0180   -1.5016 H   0  0  0  0  0  0  0  0  0  0  0  0
   -2.4833    0.7315    0.3532 H   0  0  0  0  0  0  0  0  0  0  0  0
   -5.2538   -2.6954    0.5790 H   0  0  0  0  0  0  0  0  0  0  0  0
   -6.5396   -2.6779    2.6317 H   0  0  0  0  0  0  0  0  0  0  0  0
   -6.6770   -0.6850    4.0340 H   0  0  0  0  0  0  0  0  0  0  0  0
   -5.4815    1.3688    3.3540 H   0  0  0  0  0  0  0  0  0  0  0  0
   -4.1753    1.3900    1.2913 H   0  0  0  0  0  0  0  0  0  0  0  0
  1  2  1  0
  2  3  1  0
  3  4  2  0
  4  5  1  0
  5  6  2  0
  6  7  1  0
  7  8  2  0
  6  9  1  0
  9 10  2  0
  9 11  2  0
  9 12  1  0
 12 13  1  0
 13 14  2  0
 14 15  1  0
 15 16  2  0
 16 17  1  0
 17 18  2  0
 18 19  1  0
 19 20  2  0
 20 21  1  0
 21 22  2  0
 22 23  1  0
 23 24  2  0
 23 25  1  0
 25 26  2  0
 26 27  1  0
 27 28  2  0
 28 29  1  0
 29 30  2  0
  8  3  1  0
 18 13  1  0
 24 19  1  0
 30 25  1  0
  1 31  1  0
  1 32  1  0
  1 33  1  0
  4 34  1  0
  5 35  1  0
  7 36  1  0
  8 37  1  0
 12 38  1  0
 14 39  1  0
 15 40  1  0
 16 41  1  0
 17 42  1  0
 20 43  1  0
 21 44  1  0
 22 45  1  0
 24 46  1  0
 26 47  1  0
 27 48  1  0
 28 49  1  0
 29 50  1  0
 30 51  1  0
M  END
$$$$
[H]OC(=O)c1c([H])c([H])c([H])n1-c1c([H])c([H])c(S(=O)(=O)N([H])[H])c([H])c1[H]
     RDKit          3D

 28 29  0  0  0  0  0  0  0  0999 V2000
    4.2902    0.0442   -2.1012 N   0  0  0  0  0  0  0  0  0  0  0  0
    3.9296   -0.7303   -0.6233 S   0  0  0  0  0  0  0  0  0  0  0  0
    4.2545   -2.1885   -0.7184 O   0  0  0  0  0  0  0  0  0  0  0  0
    4.7663   -0.1276    0.4686 O   0  0  0  0  0  0  0  0  0  0  0  0
    2.2239   -0.5696   -0.2437 C   0  0  0  0  0  0  0  0  0  0  0  0
    1.8148    0.5222    0.4952 C   0  0  0  0  0  0  0  0  0  0  0  0
    0.4810    0.6549    0.7964 C   0  0  0  0  0  0  0  0  0  0  0  0
   -0.4886   -0.2441    0.4031 C   0  0  0  0  0  0  0  0  0  0  0  0
   -0.0461   -1.3375   -0.3423 C   0  0  0  0  0  0  0  0  0  0  0  0
    1.2879   -1.4952   -0.6589 C   0  0  0  0  0  0  0  0  0  0  0  0
   -1.8642   -0.0808    0.7300 N   0  0  0  0  0  0  0  0  0  0  0  0
   -2.5002   -0.5075    1.8390 C   0  0  0  0  0  0  0  0  0  0  0  0
   -3.8315   -0.1538    1.7821 C   0  0  0  0  0  0  0  0  0  0  0  0
   -4.0043    0.5176    0.5821 C   0  0  0  0  0  0  0  0  0  0  0  0
   -2.7752    0.5434   -0.0375 C   0  0  0  0  0  0  0  0  0  0  0  0
   -2.4772    1.1483   -1.3292 C   0  0  0  0  0  0  0  0  0  0  0  0
   -1.1996    1.1224   -1.8729 O   0  0  0  0  0  0  0  0  0  0  0  0
   -3.3620    1.7273   -2.0226 O   0  0  0  0  0  0  0  0  0  0  0  0
    4.9314    0.8556   -1.9889 H   0  0  0  0  0  0  0  0  0  0  0  0
    3.4716    0.3435   -2.6475 H   0  0  0  0  0  0  0  0  0  0  0  0
    2.5645    1.2444    0.8160 H   0  0  0  0  0  0  0  0  0  0  0  0
    0.1636    1.5281    1.3857 H   0  0  0  0  0  0  0  0  0  0  0  0
   -0.8012   -2.0445   -0.6529 H   0  0  0  0  0  0  0  0  0  0  0  0
    1.6231   -2.3452   -1.2369 H   0  0  0  0  0  0  0  0  0  0  0  0
   -2.0246   -1.0458    2.6447 H   0  0  0  0  0  0  0  0  0  0  0  0
   -4.6354   -0.3228    2.4775 H   0  0  0  0  0  0  0  0  0  0  0  0
   -4.9550    0.9358    0.2259 H   0  0  0  0  0  0  0  0  0  0  0  0
   -0.8375    2.0056   -2.2147 H   0  0  0  0  0  0  0  0  0  0  0  0
  1  2  1  0
  2  3  2  0
  2  4  2  0
  2  5  1  0
  5  6  2  0
  6  7  1  0
  7  8  2  0
  8  9  1  0
  9 10  2  0
  8 11  1  0
 11 12  1  0
 12 13  2  0
 13 14  1  0
 14 15  2  0
 15 16  1  0
 16 17  1  0
 16 18  2  0
 10  5  1  0
 15 11  1  0
  1 19  1  0
  1 20  1  0
  6 21  1  0
  7 22  1  0
  9 23  1  0
 10 24  1  0
 12 25  1  0
 13 26  1  0
 14 27  1  0
 17 28  1  0
M  END
$$$$
[H]c1c([H])c([H])c(C(=O)N([H])c2nnc(-c3c([H])c([H])c(Oc4c([H])c([H])c([N+](=O)[O-])c([H])c4[N+](=O)[O-])c([H])c3[H])s2)c(OC([H])([H])[H])c1[H]
     RDKit          3D

 50 53  0  0  0  0  0  0  0  0999 V2000
   -3.8546   -0.4668    1.7561 C   0  0  0  0  0  0  0  0  0  0  0  0
   -4.4327   -0.9880    0.5694 O   0  0  0  0  0  0  0  0  0  0  0  0
   -5.6598   -0.5564    0.0985 C   0  0  0  0  0  0  0  0  0  0  0  0
   -6.2989    0.4276    0.8755 C   0  0  0  0  0  0  0  0  0  0  0  0
   -7.5259    0.9214    0.5287 C   0  0  0  0  0  0  0  0  0  0  0  0
   -8.0999    0.4113   -0.6096 C   0  0  0  0  0  0  0  0  0  0  0  0
   -7.4964   -0.5451   -1.3835 C   0  0  0  0  0  0  0  0  0  0  0  0
   -6.2104   -1.0699   -1.0350 C   0  0  0  0  0  0  0  0  0  0  0  0
   -5.5438   -1.9518   -1.9302 C   0  0  0  0  0  0  0  0  0  0  0  0
   -6.4656   -2.4923   -2.7855 O   0  0  0  0  0  0  0  0  0  0  0  0
   -4.3289   -2.4381   -2.1764 N   0  0  0  0  0  0  0  0  0  0  0  0
   -2.9777   -2.1279   -1.9324 C   0  0  0  0  0  0  0  0  0  0  0  0
   -1.9322   -3.0032   -2.0666 N   0  0  0  0  0  0  0  0  0  0  0  0
   -0.7647   -2.6106   -1.9516 N   0  0  0  0  0  0  0  0  0  0  0  0
   -0.4928   -1.3351   -1.6962 C   0  0  0  0  0  0  0  0  0  0  0  0
   -2.0738   -0.7076   -1.6281 S   0  0  0  0  0  0  0  0  0  0  0  0
    0.8085   -0.6906   -1.5284 C   0  0  0  0  0  0  0  0  0  0  0  0
    0.9722    0.6428   -1.2692 C   0  0  0  0  0  0  0  0  0  0  0  0
    2.2319    1.2005   -1.1184 C   0  0  0  0  0  0  0  0  0  0  0  0
    3.3409    0.4062   -1.2300 C   0  0  0  0  0  0  0  0  0  0  0  0
    4.6022    0.9821   -1.0763 O   0  0  0  0  0  0  0  0  0  0  0  0
    5.2217    1.0736    0.1629 C   0  0  0  0  0  0  0  0  0  0  0  0
    4.5518    0.5793    1.2648 C   0  0  0  0  0  0  0  0  0  0  0  0
    5.1675    0.6697    2.4985 C   0  0  0  0  0  0  0  0  0  0  0  0
    6.4169    1.2396    2.6175 C   0  0  0  0  0  0  0  0  0  0  0  0
    7.0640    1.7271    1.4916 C   0  0  0  0  0  0  0  0  0  0  0  0
    6.4725    1.6516    0.2351 C   0  0  0  0  0  0  0  0  0  0  0  0
    7.1345    2.1495   -0.9198 N   0  0  0  0  0  0  0  0  0  0  0  0
    7.9853    3.2210   -0.8715 O   0  0  0  0  0  0  0  0  0  0  0  0
    6.9483    1.6046   -2.0211 O   0  0  0  0  0  0  0  0  0  0  0  0
    7.0684    1.3426    3.8750 N   0  0  0  0  0  0  0  0  0  0  0  0
    8.2950    1.9028    4.0004 O   0  0  0  0  0  0  0  0  0  0  0  0
    6.4794    0.9004    4.8759 O   0  0  0  0  0  0  0  0  0  0  0  0
    3.2022   -0.9371   -1.4900 C   0  0  0  0  0  0  0  0  0  0  0  0
    1.9438   -1.4520   -1.6325 C   0  0  0  0  0  0  0  0  0  0  0  0
   -2.8138   -0.8398    1.8342 H   0  0  0  0  0  0  0  0  0  0  0  0
   -4.4632   -0.6550    2.6390 H   0  0  0  0  0  0  0  0  0  0  0  0
   -3.7726    0.6320    1.5887 H   0  0  0  0  0  0  0  0  0  0  0  0
   -5.8150    0.8044    1.7645 H   0  0  0  0  0  0  0  0  0  0  0  0
   -8.0460    1.6762    1.1001 H   0  0  0  0  0  0  0  0  0  0  0  0
   -9.0854    0.8041   -0.8880 H   0  0  0  0  0  0  0  0  0  0  0  0
   -7.9580   -0.9248   -2.2629 H   0  0  0  0  0  0  0  0  0  0  0  0
   -4.3448   -3.2292   -3.0053 H   0  0  0  0  0  0  0  0  0  0  0  0
    0.0931    1.2929   -1.1775 H   0  0  0  0  0  0  0  0  0  0  0  0
    2.3374    2.2784   -0.9100 H   0  0  0  0  0  0  0  0  0  0  0  0
    3.5587    0.1303    1.1472 H   0  0  0  0  0  0  0  0  0  0  0  0
    4.6295    0.2769    3.3655 H   0  0  0  0  0  0  0  0  0  0  0  0
    8.0317    2.1677    1.5898 H   0  0  0  0  0  0  0  0  0  0  0  0
    4.0612   -1.5759   -1.5803 H   0  0  0  0  0  0  0  0  0  0  0  0
    1.8384   -2.5194   -1.8389 H   0  0  0  0  0  0  0  0  0  0  0  0
  1  2  1  0
  2  3  1  0
  3  4  2  0
  4  5  1  0
  5  6  2  0
  6  7  1  0
  7  8  2  0
  8  9  1  0
  9 10  2  0
  9 11  1  0
 11 12  1  0
 12 13  2  0
 13 14  1  0
 14 15  2  0
 15 16  1  0
 15 17  1  0
 17 18  2  0
 18 19  1  0
 19 20  2  0
 20 21  1  0
 21 22  1  0
 22 23  2  0
 23 24  1  0
 24 25  2  0
 25 26  1  0
 26 27  2  0
 27 28  1  0
 28 29  1  0
 28 30  2  0
 25 31  1  0
 31 32  1  0
 31 33  2  0
 20 34  1  0
 34 35  2  0
  8  3  1  0
 16 12  1  0
 35 17  1  0
 27 22  1  0
  1 36  1  0
  1 37  1  0
  1 38  1  0
  4 39  1  0
  5 40  1  0
  6 41  1  0
  7 42  1  0
 11 43  1  0
 18 44  1  0
 19 45  1  0
 23 46  1  0
 24 47  1  0
 26 48  1  0
 34 49  1  0
 35 50  1  0
M  CHG  4  28   1  29  -1  31   1  32  -1
M  END
$$$$
[H]O[C@@]1([H])[C@]([H])(C([H])([H])OP(=O)(O[H])OP(=O)(O[H])O[H])[C@]([H])(O[H])[C@@]([H])(O[H])[C@]([H])(O[H])[C@]([H])(O[H])[C@@]1([H])O[H]
     RDKit          3D

 41 41  0  0  0  0  0  0  0  0999 V2000
   -1.2645    2.2479    0.5989 O   0  0  0  0  0  0  0  0  0  0  0  0
   -1.9559    1.5524   -0.4074 C   0  0  2  0  0  0  0  0  0  0  0  0
   -3.3042    1.1425    0.0365 C   0  0  1  0  0  0  0  0  0  0  0  0
   -4.2970    1.6167   -0.8328 O   0  0  0  0  0  0  0  0  0  0  0  0
   -3.5511   -0.3074    0.2542 C   0  0  1  0  0  0  0  0  0  0  0  0
   -3.8109   -1.0240   -0.9213 O   0  0  0  0  0  0  0  0  0  0  0  0
   -2.5650   -0.9980    1.1415 C   0  0  2  0  0  0  0  0  0  0  0  0
   -2.2568   -0.1789    2.2082 O   0  0  0  0  0  0  0  0  0  0  0  0
   -1.3228   -1.4687    0.4564 C   0  0  1  0  0  0  0  0  0  0  0  0
   -1.6306   -2.2071   -0.6768 O   0  0  0  0  0  0  0  0  0  0  0  0
   -0.3910   -0.3223    0.1281 C   0  0  1  0  0  0  0  0  0  0  0  0
    0.9193   -0.8444   -0.3937 C   0  0  0  0  0  0  0  0  0  0  0  0
    1.7501   -1.3400    0.5945 O   0  0  0  0  0  0  0  0  0  0  0  0
    3.3393   -0.8672    0.2217 P   0  0  0  0  0  0  0  0  0  0  0  0
    3.7557   -1.3002   -1.3604 O   0  0  0  0  0  0  0  0  0  0  0  0
    4.3431   -1.4876    1.1612 O   0  0  0  0  0  0  0  0  0  0  0  0
    3.3732    0.8238    0.3100 O   0  0  0  0  0  0  0  0  0  0  0  0
    4.8849    1.4376   -0.1536 P   0  0  0  0  0  0  0  0  0  0  0  0
    5.4556    0.5293   -1.4725 O   0  0  0  0  0  0  0  0  0  0  0  0
    5.9276    1.3123    1.1599 O   0  0  0  0  0  0  0  0  0  0  0  0
    4.7052    2.8656   -0.5836 O   0  0  0  0  0  0  0  0  0  0  0  0
   -1.0755    0.4771   -0.9498 C   0  0  2  0  0  0  0  0  0  0  0  0
   -0.0872    1.0687   -1.7545 O   0  0  0  0  0  0  0  0  0  0  0  0
   -0.2913    2.2109    0.4842 H   0  0  0  0  0  0  0  0  0  0  0  0
   -2.0770    2.3034   -1.2307 H   0  0  0  0  0  0  0  0  0  0  0  0
   -3.5133    1.6521    1.0123 H   0  0  0  0  0  0  0  0  0  0  0  0
   -5.1148    1.0793   -0.8150 H   0  0  0  0  0  0  0  0  0  0  0  0
   -4.5274   -0.3570    0.8082 H   0  0  0  0  0  0  0  0  0  0  0  0
   -4.0795   -0.4540   -1.6710 H   0  0  0  0  0  0  0  0  0  0  0  0
   -3.0743   -1.9098    1.5455 H   0  0  0  0  0  0  0  0  0  0  0  0
   -1.5857   -0.6555    2.7547 H   0  0  0  0  0  0  0  0  0  0  0  0
   -0.7884   -2.1415    1.1719 H   0  0  0  0  0  0  0  0  0  0  0  0
   -2.2633   -2.9115   -0.3940 H   0  0  0  0  0  0  0  0  0  0  0  0
   -0.2172    0.2387    1.0569 H   0  0  0  0  0  0  0  0  0  0  0  0
    1.4185   -0.0071   -0.9196 H   0  0  0  0  0  0  0  0  0  0  0  0
    0.7162   -1.6821   -1.1048 H   0  0  0  0  0  0  0  0  0  0  0  0
    3.0415   -1.8663   -1.7530 H   0  0  0  0  0  0  0  0  0  0  0  0
    6.0588   -0.1694   -1.1421 H   0  0  0  0  0  0  0  0  0  0  0  0
    6.8072    1.7130    0.9770 H   0  0  0  0  0  0  0  0  0  0  0  0
   -1.6102   -0.2202   -1.6088 H   0  0  0  0  0  0  0  0  0  0  0  0
    0.1590    0.4492   -2.5003 H   0  0  0  0  0  0  0  0  0  0  0  0
  1  2  1  0
  2  3  1  0
  3  4  1  0
  3  5  1  0
  5  6  1  0
  5  7  1  0
  7  8  1  0
  7  9  1  0
  9 10  1  0
  9 11  1  0
 11 12  1  0
 12 13  1  0
 13 14  1  0
 14 15  1  0
 14 16  2  0
 14 17  1  0
 17 18  1  0
 18 19  1  0
 18 20  1  0
 18 21  2  0
 11 22  1  0
 22 23  1  0
 22  2  1  0
  1 24  1  0
  2 25  1  6
  3 26  1  1
  4 27  1  0
  5 28  1  1
  6 29  1  0
  7 30  1  1
  8 31  1  0
  9 32  1  1
 10 33  1  0
 11 34  1  1
 12 35  1  0
 12 36  1  0
 15 37  1  0
 19 38  1  0
 20 39  1  0
 22 40  1  6
 23 41  1  0
M  END
$$$$
[H]N=C(N([H])[H])N([H])C([H])([H])C([H])([H])C([H])([H])[C@@]([H])(C([H])=O)N([H])C(=O)[C@@]([H])(N([H])C(=O)[C@@]([H])(N([H])C(=O)C([H])([H])[H])C([H])([H])c1c([H])c([H])c(O[H])c([H])c1[H])C([H])([H])c1c([H])c([H])c(O[H])c([H])c1[H]
     RDKit          3D

 72 73  0  0  0  0  0  0  0  0999 V2000
   -2.1776    4.4166   -0.4841 C   0  0  0  0  0  0  0  0  0  0  0  0
   -2.1798    2.9422   -0.4847 C   0  0  0  0  0  0  0  0  0  0  0  0
   -1.6064    2.3272   -1.4014 O   0  0  0  0  0  0  0  0  0  0  0  0
   -2.8213    2.1598    0.5369 N   0  0  0  0  0  0  0  0  0  0  0  0
   -2.8129    0.7328    0.5252 C   0  0  1  0  0  0  0  0  0  0  0  0
   -3.3041    0.0297   -0.6730 C   0  0  0  0  0  0  0  0  0  0  0  0
   -4.7174    0.3275   -0.9907 C   0  0  0  0  0  0  0  0  0  0  0  0
   -5.0469    1.2844   -1.8994 C   0  0  0  0  0  0  0  0  0  0  0  0
   -6.3809    1.5658   -2.1585 C   0  0  0  0  0  0  0  0  0  0  0  0
   -7.4084    0.8945   -1.5132 C   0  0  0  0  0  0  0  0  0  0  0  0
   -8.7625    1.1821   -1.7754 O   0  0  0  0  0  0  0  0  0  0  0  0
   -7.0536   -0.0752   -0.5953 C   0  0  0  0  0  0  0  0  0  0  0  0
   -5.7257   -0.3525   -0.3395 C   0  0  0  0  0  0  0  0  0  0  0  0
   -1.5345    0.1953    1.0073 C   0  0  0  0  0  0  0  0  0  0  0  0
   -0.9348    0.6678    2.0146 O   0  0  0  0  0  0  0  0  0  0  0  0
   -0.9113   -0.8925    0.3534 N   0  0  0  0  0  0  0  0  0  0  0  0
    0.3337   -1.4697    0.8164 C   0  0  1  0  0  0  0  0  0  0  0  0
    0.4349   -2.9372    0.6915 C   0  0  0  0  0  0  0  0  0  0  0  0
   -0.6115   -3.6596    1.4438 C   0  0  0  0  0  0  0  0  0  0  0  0
   -0.3852   -4.0667    2.7461 C   0  0  0  0  0  0  0  0  0  0  0  0
   -1.3630   -4.7341    3.4593 C   0  0  0  0  0  0  0  0  0  0  0  0
   -2.5929   -5.0234    2.9237 C   0  0  0  0  0  0  0  0  0  0  0  0
   -3.5763   -5.6915    3.6333 O   0  0  0  0  0  0  0  0  0  0  0  0
   -2.8420   -4.6257    1.6256 C   0  0  0  0  0  0  0  0  0  0  0  0
   -1.8488   -3.9555    0.9171 C   0  0  0  0  0  0  0  0  0  0  0  0
    1.4647   -0.7627    0.1417 C   0  0  0  0  0  0  0  0  0  0  0  0
    1.1745    0.1599   -0.6621 O   0  0  0  0  0  0  0  0  0  0  0  0
    2.7900   -1.1222    0.4059 N   0  0  0  0  0  0  0  0  0  0  0  0
    3.9768   -0.5052   -0.1730 C   0  0  1  0  0  0  0  0  0  0  0  0
    4.7835   -0.0039    1.0106 C   0  0  0  0  0  0  0  0  0  0  0  0
    6.0520    0.6840    0.6492 C   0  0  0  0  0  0  0  0  0  0  0  0
    5.7791    1.9037   -0.2117 C   0  0  0  0  0  0  0  0  0  0  0  0
    7.0331    2.5719   -0.5397 N   0  0  0  0  0  0  0  0  0  0  0  0
    7.0090    3.7443   -1.3322 C   0  0  0  0  0  0  0  0  0  0  0  0
    7.8537    4.8271   -0.9986 N   0  0  0  0  0  0  0  0  0  0  0  0
    6.2333    3.8252   -2.3308 N   0  0  0  0  0  0  0  0  0  0  0  0
    4.7330   -1.4683   -0.9839 C   0  0  0  0  0  0  0  0  0  0  0  0
    4.3178   -2.6076   -1.1071 O   0  0  0  0  0  0  0  0  0  0  0  0
   -2.7350    4.8893   -1.2907 H   0  0  0  0  0  0  0  0  0  0  0  0
   -2.5509    4.8447    0.4786 H   0  0  0  0  0  0  0  0  0  0  0  0
   -1.1027    4.7163   -0.6332 H   0  0  0  0  0  0  0  0  0  0  0  0
   -3.2948    2.7235    1.2859 H   0  0  0  0  0  0  0  0  0  0  0  0
   -3.5886    0.4377    1.3681 H   0  0  0  0  0  0  0  0  0  0  0  0
   -2.6194    0.1311   -1.5129 H   0  0  0  0  0  0  0  0  0  0  0  0
   -3.2823   -1.0781   -0.4195 H   0  0  0  0  0  0  0  0  0  0  0  0
   -4.3152    1.8420   -2.4411 H   0  0  0  0  0  0  0  0  0  0  0  0
   -6.6755    2.3323   -2.8854 H   0  0  0  0  0  0  0  0  0  0  0  0
   -9.1425    1.9201   -1.1653 H   0  0  0  0  0  0  0  0  0  0  0  0
   -7.8732   -0.6002   -0.0919 H   0  0  0  0  0  0  0  0  0  0  0  0
   -5.5114   -1.1338    0.4069 H   0  0  0  0  0  0  0  0  0  0  0  0
   -1.3277   -1.3085   -0.4896 H   0  0  0  0  0  0  0  0  0  0  0  0
    0.4354   -1.1828    1.9074 H   0  0  0  0  0  0  0  0  0  0  0  0
    0.5081   -3.3012   -0.3552 H   0  0  0  0  0  0  0  0  0  0  0  0
    1.4210   -3.2388    1.1491 H   0  0  0  0  0  0  0  0  0  0  0  0
    0.5568   -3.8565    3.1964 H   0  0  0  0  0  0  0  0  0  0  0  0
   -1.1755   -5.0437    4.4712 H   0  0  0  0  0  0  0  0  0  0  0  0
   -4.2404   -5.1621    4.1910 H   0  0  0  0  0  0  0  0  0  0  0  0
   -3.8064   -4.8518    1.1988 H   0  0  0  0  0  0  0  0  0  0  0  0
   -2.0537   -3.6510   -0.0944 H   0  0  0  0  0  0  0  0  0  0  0  0
    2.9778   -1.9138    1.0877 H   0  0  0  0  0  0  0  0  0  0  0  0
    3.6870    0.3497   -0.8000 H   0  0  0  0  0  0  0  0  0  0  0  0
    4.1480    0.6693    1.6145 H   0  0  0  0  0  0  0  0  0  0  0  0
    4.9948   -0.8873    1.6637 H   0  0  0  0  0  0  0  0  0  0  0  0
    6.8232    0.0408    0.2273 H   0  0  0  0  0  0  0  0  0  0  0  0
    6.4667    1.1033    1.6115 H   0  0  0  0  0  0  0  0  0  0  0  0
    5.1232    2.6159    0.3340 H   0  0  0  0  0  0  0  0  0  0  0  0
    5.2626    1.6258   -1.1551 H   0  0  0  0  0  0  0  0  0  0  0  0
    7.9525    2.1963   -0.1928 H   0  0  0  0  0  0  0  0  0  0  0  0
    7.5305    5.7978   -1.1444 H   0  0  0  0  0  0  0  0  0  0  0  0
    8.7964    4.6248   -0.6083 H   0  0  0  0  0  0  0  0  0  0  0  0
    5.5935    3.0656   -2.6186 H   0  0  0  0  0  0  0  0  0  0  0  0
    5.6467   -1.2048   -1.4761 H   0  0  0  0  0  0  0  0  0  0  0  0
  1  2  1  0
  2  3  2  0
  2  4  1  0
  4  5  1  0
  5  6  1  0
  6  7  1  0
  7  8  2  0
  8  9  1  0
  9 10  2  0
 10 11  1  0
 10 12  1  0
 12 13  2  0
  5 14  1  0
 14 15  2  0
 14 16  1  0
 16 17  1  0
 17 18  1  0
 18 19  1  0
 19 20  2  0
 20 21  1  0
 21 22  2  0
 22 23  1  0
 22 24  1  0
 24 25  2  0
 17 26  1  0
 26 27  2  0
 26 28  1  0
 28 29  1  0
 29 30  1  0
 30 31  1  0
 31 32  1  0
 32 33  1  0
 33 34  1  0
 34 35  1  0
 34 36  2  3
 29 37  1  0
 37 38  2  0
 13  7  1  0
 25 19  1  0
  1 39  1  0
  1 40  1  0
  1 41  1  0
  4 42  1  0
  5 43  1  1
  6 44  1  0
  6 45  1  0
  8 46  1  0
  9 47  1  0
 11 48  1  0
 12 49  1  0
 13 50  1  0
 16 51  1  0
 17 52  1  1
 18 53  1  0
 18 54  1  0
 20 55  1  0
 21 56  1  0
 23 57  1  0
 24 58  1  0
 25 59  1  0
 28 60  1  0
 29 61  1  6
 30 62  1  0
 30 63  1  0
 31 64  1  0
 31 65  1  0
 32 66  1  0
 32 67  1  0
 33 68  1  0
 35 69  1  0
 35 70  1  0
 36 71  1  0
 37 72  1  0
M  END
$$$$
[H]OC(=O)c1c(O[H])c([H])c2c(O[H])c([H])c(O[H])c([H])c2c1[H]
     RDKit          3D

 24 25  0  0  0  0  0  0  0  0999 V2000
    4.3189    0.2222    0.7197 O   0  0  0  0  0  0  0  0  0  0  0  0
    3.2704    0.6415   -0.0453 C   0  0  0  0  0  0  0  0  0  0  0  0
    3.5565    1.4578   -0.9964 O   0  0  0  0  0  0  0  0  0  0  0  0
    1.8970    0.2266    0.1540 C   0  0  0  0  0  0  0  0  0  0  0  0
    0.9331    0.7555   -0.7279 C   0  0  0  0  0  0  0  0  0  0  0  0
   -0.3893    0.4347   -0.6340 C   0  0  0  0  0  0  0  0  0  0  0  0
   -1.3401    0.9579   -1.5060 C   0  0  0  0  0  0  0  0  0  0  0  0
   -2.6765    0.6417   -1.4211 C   0  0  0  0  0  0  0  0  0  0  0  0
   -3.6172    1.1741   -2.3022 O   0  0  0  0  0  0  0  0  0  0  0  0
   -3.0413   -0.2283   -0.4213 C   0  0  0  0  0  0  0  0  0  0  0  0
   -2.0924   -0.7610    0.4621 C   0  0  0  0  0  0  0  0  0  0  0  0
   -2.5314   -1.6209    1.4322 O   0  0  0  0  0  0  0  0  0  0  0  0
   -0.7477   -0.4397    0.3727 C   0  0  0  0  0  0  0  0  0  0  0  0
    0.1750   -0.9647    1.2405 C   0  0  0  0  0  0  0  0  0  0  0  0
    1.5491   -0.6378    1.1509 C   0  0  0  0  0  0  0  0  0  0  0  0
    2.4108   -1.2013    2.0524 O   0  0  0  0  0  0  0  0  0  0  0  0
    5.0293   -0.4151    0.4118 H   0  0  0  0  0  0  0  0  0  0  0  0
    1.2335    1.4445   -1.5172 H   0  0  0  0  0  0  0  0  0  0  0  0
   -1.0076    1.6413   -2.2807 H   0  0  0  0  0  0  0  0  0  0  0  0
   -4.1169    2.0226   -2.1534 H   0  0  0  0  0  0  0  0  0  0  0  0
   -4.0892   -0.4872   -0.3410 H   0  0  0  0  0  0  0  0  0  0  0  0
   -1.9899   -2.0792    2.1285 H   0  0  0  0  0  0  0  0  0  0  0  0
   -0.0882   -1.6421    2.0238 H   0  0  0  0  0  0  0  0  0  0  0  0
    3.3541   -1.1430    2.1979 H   0  0  0  0  0  0  0  0  0  0  0  0
  1  2  1  0
  2  3  2  0
  2  4  1  0
  4  5  2  0
  5  6  1  0
  6  7  2  0
  7  8  1  0
  8  9  1  0
  8 10  2  0
 10 11  1  0
 11 12  1  0
 11 13  2  0
 13 14  1  0
 14 15  2  0
 15 16  1  0
 15  4  1  0
 13  6  1  0
  1 17  1  0
  5 18  1  0
  7 19  1  0
  9 20  1  0
 10 21  1  0
 12 22  1  0
 14 23  1  0
 16 24  1  0
M  END
$$$$
[H]c1c([H])c([H])c2c(c1[H])c1c3c(c4c5c([H])c([H])c([H])c([H])c5n5c4c1n2[C@@]1(C([H])([H])[H])O[C@]5([H])C([H])([H])[C@@]([H])(N([H])C([H])([H])[H])[C@@]1([H])OC([H])([H])[H])C(=O)N([H])C3([H])[H]
     RDKit          3D

 61 68  0  0  0  0  0  0  0  0999 V2000
   -3.3415   -2.0929    0.8927 C   0  0  0  0  0  0  0  0  0  0  0  0
   -2.7520   -0.8244    0.5060 N   0  0  0  0  0  0  0  0  0  0  0  0
   -2.5947   -0.7699   -0.9652 C   0  0  2  0  0  0  0  0  0  0  0  0
   -1.6635   -1.8336   -1.3456 C   0  0  0  0  0  0  0  0  0  0  0  0
   -0.4098   -1.3263   -1.9401 C   0  0  1  0  0  0  0  0  0  0  0  0
   -0.2904   -0.0961   -2.3609 O   0  0  0  0  0  0  0  0  0  0  0  0
   -0.9141    0.9817   -1.7381 C   0  0  1  0  0  0  0  0  0  0  0  0
   -0.8729    2.0231   -2.8643 C   0  0  0  0  0  0  0  0  0  0  0  0
   -2.2914    0.6326   -1.4119 C   0  0  2  0  0  0  0  0  0  0  0  0
   -2.9229    1.4324   -0.4622 O   0  0  0  0  0  0  0  0  0  0  0  0
   -4.0664    2.0564   -0.9455 C   0  0  0  0  0  0  0  0  0  0  0  0
   -0.0747    1.3904   -0.5981 N   0  0  0  0  0  0  0  0  0  0  0  0
    0.0066    2.5943   -0.0347 C   0  0  0  0  0  0  0  0  0  0  0  0
   -0.6403    3.7755   -0.2701 C   0  0  0  0  0  0  0  0  0  0  0  0
   -0.3753    4.9057    0.4704 C   0  0  0  0  0  0  0  0  0  0  0  0
    0.5715    4.8915    1.4994 C   0  0  0  0  0  0  0  0  0  0  0  0
    1.2169    3.7192    1.7374 C   0  0  0  0  0  0  0  0  0  0  0  0
    0.9447    2.6014    0.9941 C   0  0  0  0  0  0  0  0  0  0  0  0
    1.4533    1.3308    1.0530 C   0  0  0  0  0  0  0  0  0  0  0  0
    2.4134    0.7192    1.8621 C   0  0  0  0  0  0  0  0  0  0  0  0
    3.2252    1.2814    2.9656 C   0  0  0  0  0  0  0  0  0  0  0  0
    4.0513    0.2282    3.4563 N   0  0  0  0  0  0  0  0  0  0  0  0
    3.7725   -0.9500    2.6928 C   0  0  0  0  0  0  0  0  0  0  0  0
    4.3602   -2.0093    2.9202 O   0  0  0  0  0  0  0  0  0  0  0  0
    2.7553   -0.6238    1.7110 C   0  0  0  0  0  0  0  0  0  0  0  0
    2.1006   -1.3257    0.7242 C   0  0  0  0  0  0  0  0  0  0  0  0
    2.1422   -2.6347    0.2794 C   0  0  0  0  0  0  0  0  0  0  0  0
    2.8759   -3.7217    0.6638 C   0  0  0  0  0  0  0  0  0  0  0  0
    2.6892   -4.9254    0.0128 C   0  0  0  0  0  0  0  0  0  0  0  0
    1.7808   -5.0386   -1.0084 C   0  0  0  0  0  0  0  0  0  0  0  0
    1.0343   -3.9515   -1.4066 C   0  0  0  0  0  0  0  0  0  0  0  0
    1.2263   -2.7646   -0.7562 C   0  0  0  0  0  0  0  0  0  0  0  0
    0.6469   -1.5975   -0.9447 N   0  0  0  0  0  0  0  0  0  0  0  0
    1.1358   -0.7009   -0.0851 C   0  0  0  0  0  0  0  0  0  0  0  0
    0.8119    0.6350    0.0794 C   0  0  0  0  0  0  0  0  0  0  0  0
   -3.9345   -1.8764    1.8249 H   0  0  0  0  0  0  0  0  0  0  0  0
   -2.5804   -2.8202    1.1896 H   0  0  0  0  0  0  0  0  0  0  0  0
   -4.0376   -2.4413    0.1071 H   0  0  0  0  0  0  0  0  0  0  0  0
   -1.8252   -0.7857    0.9817 H   0  0  0  0  0  0  0  0  0  0  0  0
   -3.6418   -1.0758   -1.3069 H   0  0  0  0  0  0  0  0  0  0  0  0
   -1.4743   -2.5407   -0.4944 H   0  0  0  0  0  0  0  0  0  0  0  0
   -2.1827   -2.5069   -2.1019 H   0  0  0  0  0  0  0  0  0  0  0  0
   -0.1764   -2.0147   -2.8352 H   0  0  0  0  0  0  0  0  0  0  0  0
   -1.8561    2.5173   -2.9808 H   0  0  0  0  0  0  0  0  0  0  0  0
   -0.0367    2.7359   -2.7018 H   0  0  0  0  0  0  0  0  0  0  0  0
   -0.6761    1.5932   -3.8662 H   0  0  0  0  0  0  0  0  0  0  0  0
   -2.9127    0.7625   -2.3525 H   0  0  0  0  0  0  0  0  0  0  0  0
   -4.5472    2.6842   -0.1440 H   0  0  0  0  0  0  0  0  0  0  0  0
   -3.8494    2.7776   -1.7563 H   0  0  0  0  0  0  0  0  0  0  0  0
   -4.7942    1.3294   -1.3803 H   0  0  0  0  0  0  0  0  0  0  0  0
   -1.3647    3.8112   -1.0348 H   0  0  0  0  0  0  0  0  0  0  0  0
   -0.8845    5.8355    0.2847 H   0  0  0  0  0  0  0  0  0  0  0  0
    0.7949    5.7654    2.0918 H   0  0  0  0  0  0  0  0  0  0  0  0
    1.9682    3.6487    2.5304 H   0  0  0  0  0  0  0  0  0  0  0  0
    3.8868    2.0907    2.5395 H   0  0  0  0  0  0  0  0  0  0  0  0
    2.5967    1.6993    3.7873 H   0  0  0  0  0  0  0  0  0  0  0  0
    4.7363    0.3270    4.2421 H   0  0  0  0  0  0  0  0  0  0  0  0
    3.5871   -3.7061    1.4353 H   0  0  0  0  0  0  0  0  0  0  0  0
    3.2659   -5.8106    0.3031 H   0  0  0  0  0  0  0  0  0  0  0  0
    1.6292   -5.9934   -1.5280 H   0  0  0  0  0  0  0  0  0  0  0  0
    0.3048   -4.0175   -2.2172 H   0  0  0  0  0  0  0  0  0  0  0  0
  1  2  1  0
  2  3  1  0
  3  4  1  0
  4  5  1  0
  5  6  1  0
  6  7  1  0
  7  8  1  6
  7  9  1  0
  9 10  1  0
 10 11  1  0
  7 12  1  0
 12 13  1  0
 13 14  2  0
 14 15  1  0
 15 16  2  0
 16 17  1  0
 17 18  2  0
 18 19  1  0
 19 20  2  0
 20 21  1  0
 21 22  1  0
 22 23  1  0
 23 24  2  0
 23 25  1  0
 25 26  2  0
 26 27  1  0
 27 28  2  0
 28 29  1  0
 29 30  2  0
 30 31  1  0
 31 32  2  0
 32 33  1  0
 33 34  1  0
 34 35  2  0
  9  3  1  0
 35 12  1  0
 33  5  1  0
 18 13  1  0
 35 19  1  0
 25 20  1  0
 34 26  1  0
 32 27  1  0
  1 36  1  0
  1 37  1  0
  1 38  1  0
  2 39  1  0
  3 40  1  6
  4 41  1  0
  4 42  1  0
  5 43  1  6
  8 44  1  0
  8 45  1  0
  8 46  1  0
  9 47  1  6
 11 48  1  0
 11 49  1  0
 11 50  1  0
 14 51  1  0
 15 52  1  0
 16 53  1  0
 17 54  1  0
 21 55  1  0
 21 56  1  0
 22 57  1  0
 28 58  1  0
 29 59  1  0
 30 60  1  0
 31 61  1  0
M  END
$$$$
[H]c1nc([H])c(N([H])C(=O)N2C([H])([H])C([H])([H])c3c([H])c([H])c([H])c([H])c3[C@@]2([H])c2c([H])c([H])c(OC(F)(F)F)c([H])c2[H])c([H])c1[H]
     RDKit          3D

 48 51  0  0  0  0  0  0  0  0999 V2000
    5.7229    1.8921   -1.4135 F   0  0  0  0  0  0  0  0  0  0  0  0
    5.2174    2.8893   -0.6122 C   0  0  0  0  0  0  0  0  0  0  0  0
    5.8191    4.0776   -1.0344 F   0  0  0  0  0  0  0  0  0  0  0  0
    5.6193    2.6148    0.6825 F   0  0  0  0  0  0  0  0  0  0  0  0
    3.8345    3.0606   -0.7367 O   0  0  0  0  0  0  0  0  0  0  0  0
    2.8915    2.0919   -0.4713 C   0  0  0  0  0  0  0  0  0  0  0  0
    2.3530    1.9504    0.7652 C   0  0  0  0  0  0  0  0  0  0  0  0
    1.4177    0.9674    0.9697 C   0  0  0  0  0  0  0  0  0  0  0  0
    0.9770    0.0937   -0.0157 C   0  0  0  0  0  0  0  0  0  0  0  0
    1.5356    0.2578   -1.2530 C   0  0  0  0  0  0  0  0  0  0  0  0
    2.4914    1.2547   -1.4821 C   0  0  0  0  0  0  0  0  0  0  0  0
   -0.0415   -0.9403    0.2940 C   0  0  1  0  0  0  0  0  0  0  0  0
   -1.0701   -1.0640   -0.6939 N   0  0  0  0  0  0  0  0  0  0  0  0
   -1.0161   -2.1866   -1.6469 C   0  0  0  0  0  0  0  0  0  0  0  0
   -1.1011   -3.4344   -0.7640 C   0  0  0  0  0  0  0  0  0  0  0  0
    0.1230   -3.4398    0.0736 C   0  0  0  0  0  0  0  0  0  0  0  0
    0.7338   -4.6760    0.3305 C   0  0  0  0  0  0  0  0  0  0  0  0
    1.8642   -4.6765    1.1125 C   0  0  0  0  0  0  0  0  0  0  0  0
    2.3706   -3.5004    1.6209 C   0  0  0  0  0  0  0  0  0  0  0  0
    1.7675   -2.2974    1.3649 C   0  0  0  0  0  0  0  0  0  0  0  0
    0.6141   -2.2701    0.5701 C   0  0  0  0  0  0  0  0  0  0  0  0
   -2.1524   -0.1827   -0.7813 C   0  0  0  0  0  0  0  0  0  0  0  0
   -2.9805   -0.3543   -1.7100 O   0  0  0  0  0  0  0  0  0  0  0  0
   -2.3210    0.8692    0.1401 N   0  0  0  0  0  0  0  0  0  0  0  0
   -3.3591    1.8271    0.1749 C   0  0  0  0  0  0  0  0  0  0  0  0
   -3.1783    2.9881    0.9384 C   0  0  0  0  0  0  0  0  0  0  0  0
   -4.1597    3.9459    1.0226 C   0  0  0  0  0  0  0  0  0  0  0  0
   -5.3645    3.8243    0.3703 C   0  0  0  0  0  0  0  0  0  0  0  0
   -5.5312    2.7134   -0.3569 N   0  0  0  0  0  0  0  0  0  0  0  0
   -4.5725    1.7402   -0.4607 C   0  0  0  0  0  0  0  0  0  0  0  0
    2.6265    2.5848    1.6195 H   0  0  0  0  0  0  0  0  0  0  0  0
    0.9685    0.8357    1.9654 H   0  0  0  0  0  0  0  0  0  0  0  0
    1.2747   -0.3522   -2.0862 H   0  0  0  0  0  0  0  0  0  0  0  0
    2.9045    1.3485   -2.4697 H   0  0  0  0  0  0  0  0  0  0  0  0
   -0.5365   -0.6725    1.2673 H   0  0  0  0  0  0  0  0  0  0  0  0
   -0.0716   -2.2536   -2.1890 H   0  0  0  0  0  0  0  0  0  0  0  0
   -1.8695   -2.2067   -2.3205 H   0  0  0  0  0  0  0  0  0  0  0  0
   -1.2096   -4.3513   -1.3752 H   0  0  0  0  0  0  0  0  0  0  0  0
   -1.9789   -3.2999   -0.1054 H   0  0  0  0  0  0  0  0  0  0  0  0
    0.3215   -5.5944   -0.0781 H   0  0  0  0  0  0  0  0  0  0  0  0
    2.3901   -5.6081    1.3514 H   0  0  0  0  0  0  0  0  0  0  0  0
    3.2749   -3.4957    2.2473 H   0  0  0  0  0  0  0  0  0  0  0  0
    2.1548   -1.3620    1.7636 H   0  0  0  0  0  0  0  0  0  0  0  0
   -1.6052    0.9780    0.9353 H   0  0  0  0  0  0  0  0  0  0  0  0
   -2.2259    3.1125    1.4683 H   0  0  0  0  0  0  0  0  0  0  0  0
   -4.0071    4.8437    1.6193 H   0  0  0  0  0  0  0  0  0  0  0  0
   -6.1219    4.5913    0.4513 H   0  0  0  0  0  0  0  0  0  0  0  0
   -4.7939    0.8663   -1.0620 H   0  0  0  0  0  0  0  0  0  0  0  0
  1  2  1  0
  2  3  1  0
  2  4  1  0
  2  5  1  0
  5  6  1  0
  6  7  2  0
  7  8  1  0
  8  9  2  0
  9 10  1  0
 10 11  2  0
  9 12  1  0
 12 13  1  0
 13 14  1  0
 14 15  1  0
 15 16  1  0
 16 17  2  0
 17 18  1  0
 18 19  2  0
 19 20  1  0
 20 21  2  0
 13 22  1  0
 22 23  2  0
 22 24  1  0
 24 25  1  0
 25 26  2  0
 26 27  1  0
 27 28  2  0
 28 29  1  0
 29 30  2  0
 11  6  1  0
 21 12  1  0
 30 25  1  0
 21 16  1  0
  7 31  1  0
  8 32  1  0
 10 33  1  0
 11 34  1  0
 12 35  1  1
 14 36  1  0
 14 37  1  0
 15 38  1  0
 15 39  1  0
 17 40  1  0
 18 41  1  0
 19 42  1  0
 20 43  1  0
 24 44  1  0
 26 45  1  0
 27 46  1  0
 28 47  1  0
 30 48  1  0
M  END
$$$$
[H]OC1(C(=O)N([H])[C@]([H])(C(=O)N([H])[C@]([H])(C(=O)N([H])C([H])([H])c2c([H])c([H])c([H])c([H])c2[H])C([H])([H])C([H])([H])C([H])([H])C([H])([H])N([H])[H])C([H])([H])c2c([H])n([H])c3c([H])c([H])c([H])c([H])c23)C([H])([H])N2C([H])([H])C([H])([H])C1([H])C([H])([H])C2([H])[H]
     RDKit          3D

 84 88  0  0  0  0  0  0  0  0999 V2000
    4.3681   -0.4058   -1.5029 O   0  0  0  0  0  0  0  0  0  0  0  0
    4.4061   -0.7471   -0.1265 C   0  0  0  0  0  0  0  0  0  0  0  0
    5.4880    0.0303    0.5748 C   0  0  0  0  0  0  0  0  0  0  0  0
    6.6299   -0.8774    0.7401 N   0  0  0  0  0  0  0  0  0  0  0  0
    6.9117   -1.4676   -0.5283 C   0  0  0  0  0  0  0  0  0  0  0  0
    5.9269   -2.5904   -0.7866 C   0  0  0  0  0  0  0  0  0  0  0  0
    4.6540   -2.2253    0.0178 C   0  0  0  0  0  0  0  0  0  0  0  0
    5.0032   -2.5678    1.4364 C   0  0  0  0  0  0  0  0  0  0  0  0
    6.2863   -1.8123    1.7844 C   0  0  0  0  0  0  0  0  0  0  0  0
    3.1018   -0.3661    0.4140 C   0  0  0  0  0  0  0  0  0  0  0  0
    2.8530   -0.4490    1.6401 O   0  0  0  0  0  0  0  0  0  0  0  0
    2.0752    0.1096   -0.4236 N   0  0  0  0  0  0  0  0  0  0  0  0
    0.8112    0.4853    0.0768 C   0  0  1  0  0  0  0  0  0  0  0  0
    0.3349    1.8678   -0.2441 C   0  0  0  0  0  0  0  0  0  0  0  0
    1.1762    2.9652    0.2252 C   0  0  0  0  0  0  0  0  0  0  0  0
    0.9701    3.6754    1.4025 C   0  0  0  0  0  0  0  0  0  0  0  0
    1.9469    4.5938    1.5443 N   0  0  0  0  0  0  0  0  0  0  0  0
    2.7904    4.5175    0.5044 C   0  0  0  0  0  0  0  0  0  0  0  0
    3.9194    5.2360    0.1926 C   0  0  0  0  0  0  0  0  0  0  0  0
    4.5867    4.9350   -0.9723 C   0  0  0  0  0  0  0  0  0  0  0  0
    4.1429    3.9405   -1.8122 C   0  0  0  0  0  0  0  0  0  0  0  0
    3.0120    3.2315   -1.4842 C   0  0  0  0  0  0  0  0  0  0  0  0
    2.3139    3.4995   -0.3270 C   0  0  0  0  0  0  0  0  0  0  0  0
   -0.2142   -0.5029   -0.4139 C   0  0  0  0  0  0  0  0  0  0  0  0
    0.1924   -1.4446   -1.1342 O   0  0  0  0  0  0  0  0  0  0  0  0
   -1.5794   -0.4060   -0.0994 N   0  0  0  0  0  0  0  0  0  0  0  0
   -2.5390   -1.3679   -0.5882 C   0  0  1  0  0  0  0  0  0  0  0  0
   -3.3365   -1.9266    0.5748 C   0  0  0  0  0  0  0  0  0  0  0  0
   -2.4327   -2.6042    1.5635 C   0  0  0  0  0  0  0  0  0  0  0  0
   -3.1975   -3.1684    2.7205 C   0  0  0  0  0  0  0  0  0  0  0  0
   -3.9647   -2.1246    3.4940 C   0  0  0  0  0  0  0  0  0  0  0  0
   -4.6670   -2.7805    4.5913 N   0  0  0  0  0  0  0  0  0  0  0  0
   -3.4384   -0.6905   -1.5698 C   0  0  0  0  0  0  0  0  0  0  0  0
   -3.2500    0.5190   -1.8181 O   0  0  0  0  0  0  0  0  0  0  0  0
   -4.4901   -1.3818   -2.2205 N   0  0  0  0  0  0  0  0  0  0  0  0
   -5.3195   -0.6874   -3.1540 C   0  0  0  0  0  0  0  0  0  0  0  0
   -6.3211    0.2070   -2.5513 C   0  0  0  0  0  0  0  0  0  0  0  0
   -6.5169    0.4221   -1.2171 C   0  0  0  0  0  0  0  0  0  0  0  0
   -7.4847    1.2833   -0.7352 C   0  0  0  0  0  0  0  0  0  0  0  0
   -8.2959    1.9627   -1.6160 C   0  0  0  0  0  0  0  0  0  0  0  0
   -8.1203    1.7651   -2.9549 C   0  0  0  0  0  0  0  0  0  0  0  0
   -7.1461    0.8990   -3.4178 C   0  0  0  0  0  0  0  0  0  0  0  0
    4.6954    0.5350   -1.5838 H   0  0  0  0  0  0  0  0  0  0  0  0
    5.1748    0.2807    1.6249 H   0  0  0  0  0  0  0  0  0  0  0  0
    5.8199    0.9198    0.0193 H   0  0  0  0  0  0  0  0  0  0  0  0
    6.7853   -0.7242   -1.3378 H   0  0  0  0  0  0  0  0  0  0  0  0
    7.9638   -1.8229   -0.6172 H   0  0  0  0  0  0  0  0  0  0  0  0
    5.7029   -2.7314   -1.8473 H   0  0  0  0  0  0  0  0  0  0  0  0
    6.3505   -3.5083   -0.3310 H   0  0  0  0  0  0  0  0  0  0  0  0
    3.8090   -2.8129   -0.3836 H   0  0  0  0  0  0  0  0  0  0  0  0
    5.2074   -3.6786    1.4657 H   0  0  0  0  0  0  0  0  0  0  0  0
    4.1653   -2.3319    2.0966 H   0  0  0  0  0  0  0  0  0  0  0  0
    7.0649   -2.5484    1.9790 H   0  0  0  0  0  0  0  0  0  0  0  0
    6.0660   -1.2220    2.6962 H   0  0  0  0  0  0  0  0  0  0  0  0
    2.2594    0.1830   -1.4456 H   0  0  0  0  0  0  0  0  0  0  0  0
    0.8192    0.3265    1.1996 H   0  0  0  0  0  0  0  0  0  0  0  0
    0.1736    1.9010   -1.3646 H   0  0  0  0  0  0  0  0  0  0  0  0
   -0.7223    1.9499    0.1503 H   0  0  0  0  0  0  0  0  0  0  0  0
    0.1489    3.4968    2.0769 H   0  0  0  0  0  0  0  0  0  0  0  0
    2.0552    5.2735    2.3330 H   0  0  0  0  0  0  0  0  0  0  0  0
    4.2942    6.0330    0.8442 H   0  0  0  0  0  0  0  0  0  0  0  0
    5.4818    5.4890   -1.2421 H   0  0  0  0  0  0  0  0  0  0  0  0
    4.6998    3.7218   -2.7416 H   0  0  0  0  0  0  0  0  0  0  0  0
    2.6597    2.4596   -2.1504 H   0  0  0  0  0  0  0  0  0  0  0  0
   -1.9101    0.3713    0.5002 H   0  0  0  0  0  0  0  0  0  0  0  0
   -1.9846   -2.1798   -1.1044 H   0  0  0  0  0  0  0  0  0  0  0  0
   -4.0871   -2.6342    0.1976 H   0  0  0  0  0  0  0  0  0  0  0  0
   -3.8732   -1.0717    1.0705 H   0  0  0  0  0  0  0  0  0  0  0  0
   -1.8555   -3.4131    1.0848 H   0  0  0  0  0  0  0  0  0  0  0  0
   -1.6870   -1.8888    1.9736 H   0  0  0  0  0  0  0  0  0  0  0  0
   -3.9072   -3.9383    2.3757 H   0  0  0  0  0  0  0  0  0  0  0  0
   -2.5118   -3.6970    3.4364 H   0  0  0  0  0  0  0  0  0  0  0  0
   -3.2769   -1.3428    3.8350 H   0  0  0  0  0  0  0  0  0  0  0  0
   -4.7387   -1.6774    2.8034 H   0  0  0  0  0  0  0  0  0  0  0  0
   -4.1893   -2.6259    5.5046 H   0  0  0  0  0  0  0  0  0  0  0  0
   -4.7915   -3.7749    4.3373 H   0  0  0  0  0  0  0  0  0  0  0  0
   -4.6279   -2.3970   -1.9913 H   0  0  0  0  0  0  0  0  0  0  0  0
   -5.8100   -1.4312   -3.8398 H   0  0  0  0  0  0  0  0  0  0  0  0
   -4.6702   -0.0625   -3.8213 H   0  0  0  0  0  0  0  0  0  0  0  0
   -5.8803   -0.1105   -0.5260 H   0  0  0  0  0  0  0  0  0  0  0  0
   -7.5961    1.4151    0.3232 H   0  0  0  0  0  0  0  0  0  0  0  0
   -9.0649    2.6460   -1.2592 H   0  0  0  0  0  0  0  0  0  0  0  0
   -8.7618    2.3027   -3.6527 H   0  0  0  0  0  0  0  0  0  0  0  0
   -7.0377    0.7694   -4.4876 H   0  0  0  0  0  0  0  0  0  0  0  0
  1  2  1  0
  2  3  1  0
  3  4  1  0
  4  5  1  0
  5  6  1  0
  6  7  1  0
  7  8  1  0
  8  9  1  0
  2 10  1  0
 10 11  2  0
 10 12  1  0
 12 13  1  0
 13 14  1  0
 14 15  1  0
 15 16  2  0
 16 17  1  0
 17 18  1  0
 18 19  2  0
 19 20  1  0
 20 21  2  0
 21 22  1  0
 22 23  2  0
 13 24  1  0
 24 25  2  0
 24 26  1  0
 26 27  1  0
 27 28  1  0
 28 29  1  0
 29 30  1  0
 30 31  1  0
 31 32  1  0
 27 33  1  0
 33 34  2  0
 33 35  1  0
 35 36  1  0
 36 37  1  0
 37 38  2  0
 38 39  1  0
 39 40  2  0
 40 41  1  0
 41 42  2  0
  7  2  1  0
 23 15  1  0
 42 37  1  0
  9  4  1  0
 23 18  1  0
  1 43  1  0
  3 44  1  0
  3 45  1  0
  5 46  1  0
  5 47  1  0
  6 48  1  0
  6 49  1  0
  7 50  1  0
  8 51  1  0
  8 52  1  0
  9 53  1  0
  9 54  1  0
 12 55  1  0
 13 56  1  1
 14 57  1  0
 14 58  1  0
 16 59  1  0
 17 60  1  0
 19 61  1  0
 20 62  1  0
 21 63  1  0
 22 64  1  0
 26 65  1  0
 27 66  1  6
 28 67  1  0
 28 68  1  0
 29 69  1  0
 29 70  1  0
 30 71  1  0
 30 72  1  0
 31 73  1  0
 31 74  1  0
 32 75  1  0
 32 76  1  0
 35 77  1  0
 36 78  1  0
 36 79  1  0
 38 80  1  0
 39 81  1  0
 40 82  1  0
 41 83  1  0
 42 84  1  0
M  END
$$$$
[H]c1c([H])c([H])c(C([H])([H])[C@]2(C(=O)N([H])[C@]3([H])C(=O)C([H])([H])[C@]4([H])C([H])([H])[C@@]([H])(C3([H])[H])C([H])([H])[C@]([H])(C3([H])C([H])([H])C([H])([H])C([H])([H])C([H])([H])C3([H])[H])[C@@]4([H])OC(=O)c3c([H])c([H])c(OC([H])([H])[H])c([H])c3[H])C([H])([H])C([H])([H])[C@@]([H])(C([H])([H])N3C([H])([H])C([H])([H])OC([H])([H])C3([H])[H])C2([H])[H])c([H])c1[H]
     RDKit          3D

106112  0  0  0  0  0  0  0  0999 V2000
   -0.5466    0.0427   -1.5475 C   0  0  0  0  0  0  0  0  0  0  0  0
   -0.1088    0.6649   -2.5421 O   0  0  0  0  0  0  0  0  0  0  0  0
    0.5671   -0.4237   -0.7075 C   0  0  1  0  0  0  0  0  0  0  0  0
    1.8319    0.0772   -1.1194 N   0  0  0  0  0  0  0  0  0  0  0  0
    3.0025   -0.6658   -1.2927 C   0  0  0  0  0  0  0  0  0  0  0  0
    4.2799    0.0026   -1.7609 C   0  0  2  0  0  0  0  0  0  0  0  0
    4.0720    0.3244   -3.1950 C   0  0  0  0  0  0  0  0  0  0  0  0
    5.1280    0.9782   -3.9377 C   0  0  0  0  0  0  0  0  0  0  0  0
    5.2337    2.3437   -3.9621 C   0  0  0  0  0  0  0  0  0  0  0  0
    6.2267    2.9503   -4.6873 C   0  0  0  0  0  0  0  0  0  0  0  0
    7.1342    2.1980   -5.4035 C   0  0  0  0  0  0  0  0  0  0  0  0
    7.0287    0.8323   -5.3796 C   0  0  0  0  0  0  0  0  0  0  0  0
    6.0373    0.2499   -4.6546 C   0  0  0  0  0  0  0  0  0  0  0  0
    5.4044   -0.9303   -1.4519 C   0  0  0  0  0  0  0  0  0  0  0  0
    6.3231   -0.2450   -0.4665 C   0  0  2  0  0  0  0  0  0  0  0  0
    6.0753   -0.6253    0.9641 C   0  0  0  0  0  0  0  0  0  0  0  0
    6.2325   -2.0124    1.2653 N   0  0  0  0  0  0  0  0  0  0  0  0
    7.6341   -2.3631    1.1474 C   0  0  0  0  0  0  0  0  0  0  0  0
    8.3005   -2.4382    2.5188 C   0  0  0  0  0  0  0  0  0  0  0  0
    7.9383   -1.3396    3.2965 O   0  0  0  0  0  0  0  0  0  0  0  0
    6.5907   -1.2967    3.5672 C   0  0  0  0  0  0  0  0  0  0  0  0
    5.8507   -2.2271    2.6489 C   0  0  0  0  0  0  0  0  0  0  0  0
    5.9688    1.2440   -0.5649 C   0  0  0  0  0  0  0  0  0  0  0  0
    4.5232    1.2009   -0.8888 C   0  0  0  0  0  0  0  0  0  0  0  0
    3.0271   -1.8892   -1.0729 O   0  0  0  0  0  0  0  0  0  0  0  0
    0.3123   -0.2160    0.8094 C   0  0  0  0  0  0  0  0  0  0  0  0
   -1.1409   -0.1918    0.8958 C   0  0  2  0  0  0  0  0  0  0  0  0
   -1.5806    1.2009    0.4580 C   0  0  0  0  0  0  0  0  0  0  0  0
   -2.6895    0.8649   -0.5050 C   0  0  1  0  0  0  0  0  0  0  0  0
   -2.0181   -0.0055   -1.5642 C   0  0  0  0  0  0  0  0  0  0  0  0
   -3.7117    0.1061    0.3164 C   0  0  2  0  0  0  0  0  0  0  0  0
   -4.8326    0.9740    0.3358 O   0  0  0  0  0  0  0  0  0  0  0  0
   -5.9914    0.8466   -0.3689 C   0  0  0  0  0  0  0  0  0  0  0  0
   -6.0475   -0.1802   -1.1362 O   0  0  0  0  0  0  0  0  0  0  0  0
   -7.1062    1.7768   -0.2914 C   0  0  0  0  0  0  0  0  0  0  0  0
   -8.2287    1.5977   -1.0569 C   0  0  0  0  0  0  0  0  0  0  0  0
   -9.3050    2.4897   -0.9771 C   0  0  0  0  0  0  0  0  0  0  0  0
   -9.2692    3.5542   -0.1427 C   0  0  0  0  0  0  0  0  0  0  0  0
  -10.3324    4.4749   -0.0337 O   0  0  0  0  0  0  0  0  0  0  0  0
  -10.2270    5.5557    0.8575 C   0  0  0  0  0  0  0  0  0  0  0  0
   -8.1356    3.7535    0.6447 C   0  0  0  0  0  0  0  0  0  0  0  0
   -7.1008    2.8638    0.5436 C   0  0  0  0  0  0  0  0  0  0  0  0
   -3.3846   -0.3187    1.6698 C   0  0  1  0  0  0  0  0  0  0  0  0
   -4.0590   -1.5842    2.1202 C   0  0  0  0  0  0  0  0  0  0  0  0
   -5.5583   -1.5424    2.2054 C   0  0  0  0  0  0  0  0  0  0  0  0
   -5.8980   -2.7527    3.1098 C   0  0  0  0  0  0  0  0  0  0  0  0
   -5.7505   -3.9699    2.1955 C   0  0  0  0  0  0  0  0  0  0  0  0
   -4.8849   -3.6673    1.0201 C   0  0  0  0  0  0  0  0  0  0  0  0
   -3.6570   -2.8259    1.3985 C   0  0  0  0  0  0  0  0  0  0  0  0
   -1.9326   -0.4701    2.0821 C   0  0  0  0  0  0  0  0  0  0  0  0
    0.5940   -1.5518   -0.7786 H   0  0  0  0  0  0  0  0  0  0  0  0
    1.8743    1.1247   -1.3118 H   0  0  0  0  0  0  0  0  0  0  0  0
    3.1503    0.9765   -3.3043 H   0  0  0  0  0  0  0  0  0  0  0  0
    3.7225   -0.6412   -3.6783 H   0  0  0  0  0  0  0  0  0  0  0  0
    4.5633    3.0055   -3.4323 H   0  0  0  0  0  0  0  0  0  0  0  0
    6.3042    4.0503   -4.7013 H   0  0  0  0  0  0  0  0  0  0  0  0
    7.9319    2.6438   -5.9880 H   0  0  0  0  0  0  0  0  0  0  0  0
    7.7275    0.1906   -5.9340 H   0  0  0  0  0  0  0  0  0  0  0  0
    5.9847   -0.8488   -4.6752 H   0  0  0  0  0  0  0  0  0  0  0  0
    5.0446   -1.8547   -0.9021 H   0  0  0  0  0  0  0  0  0  0  0  0
    5.9132   -1.2161   -2.3730 H   0  0  0  0  0  0  0  0  0  0  0  0
    7.3683   -0.3652   -0.7826 H   0  0  0  0  0  0  0  0  0  0  0  0
    6.7880   -0.0133    1.5753 H   0  0  0  0  0  0  0  0  0  0  0  0
    5.0197   -0.3429    1.2110 H   0  0  0  0  0  0  0  0  0  0  0  0
    8.2198   -1.6234    0.5638 H   0  0  0  0  0  0  0  0  0  0  0  0
    7.7782   -3.3678    0.6870 H   0  0  0  0  0  0  0  0  0  0  0  0
    8.1022   -3.3986    3.0306 H   0  0  0  0  0  0  0  0  0  0  0  0
    9.3932   -2.3854    2.3449 H   0  0  0  0  0  0  0  0  0  0  0  0
    6.4302   -1.6673    4.6099 H   0  0  0  0  0  0  0  0  0  0  0  0
    6.2163   -0.2569    3.5166 H   0  0  0  0  0  0  0  0  0  0  0  0
    4.7490   -2.0546    2.7883 H   0  0  0  0  0  0  0  0  0  0  0  0
    6.0530   -3.2653    2.9853 H   0  0  0  0  0  0  0  0  0  0  0  0
    6.1469    1.7282    0.4450 H   0  0  0  0  0  0  0  0  0  0  0  0
    6.6275    1.7731   -1.2459 H   0  0  0  0  0  0  0  0  0  0  0  0
    4.0930    2.1284   -1.2630 H   0  0  0  0  0  0  0  0  0  0  0  0
    3.9862    1.0064    0.0874 H   0  0  0  0  0  0  0  0  0  0  0  0
    0.7357    0.7784    1.0152 H   0  0  0  0  0  0  0  0  0  0  0  0
    0.8118   -0.9919    1.3851 H   0  0  0  0  0  0  0  0  0  0  0  0
   -1.4687   -1.0244    0.2005 H   0  0  0  0  0  0  0  0  0  0  0  0
   -0.7634    1.7810   -0.0125 H   0  0  0  0  0  0  0  0  0  0  0  0
   -1.9233    1.8145    1.3213 H   0  0  0  0  0  0  0  0  0  0  0  0
   -3.0979    1.7664   -1.0048 H   0  0  0  0  0  0  0  0  0  0  0  0
   -2.4326   -1.0580   -1.5352 H   0  0  0  0  0  0  0  0  0  0  0  0
   -2.4014    0.3443   -2.5714 H   0  0  0  0  0  0  0  0  0  0  0  0
   -4.0093   -0.7488   -0.3466 H   0  0  0  0  0  0  0  0  0  0  0  0
   -8.2520    0.7382   -1.7292 H   0  0  0  0  0  0  0  0  0  0  0  0
  -10.1768    2.3236   -1.5930 H   0  0  0  0  0  0  0  0  0  0  0  0
   -9.4152    6.2241    0.5239 H   0  0  0  0  0  0  0  0  0  0  0  0
  -10.0133    5.1437    1.8697 H   0  0  0  0  0  0  0  0  0  0  0  0
  -11.1875    6.1082    0.9266 H   0  0  0  0  0  0  0  0  0  0  0  0
   -8.1427    4.6124    1.2953 H   0  0  0  0  0  0  0  0  0  0  0  0
   -6.2172    3.0268    1.1632 H   0  0  0  0  0  0  0  0  0  0  0  0
   -3.7862    0.4622    2.4171 H   0  0  0  0  0  0  0  0  0  0  0  0
   -3.7199   -1.7287    3.1937 H   0  0  0  0  0  0  0  0  0  0  0  0
   -5.9174   -0.6257    2.6876 H   0  0  0  0  0  0  0  0  0  0  0  0
   -6.0926   -1.7674    1.2829 H   0  0  0  0  0  0  0  0  0  0  0  0
   -6.8940   -2.6477    3.5352 H   0  0  0  0  0  0  0  0  0  0  0  0
   -5.1250   -2.8444    3.9045 H   0  0  0  0  0  0  0  0  0  0  0  0
   -6.7933   -4.1278    1.7878 H   0  0  0  0  0  0  0  0  0  0  0  0
   -5.4744   -4.8853    2.7514 H   0  0  0  0  0  0  0  0  0  0  0  0
   -5.3953   -3.2819    0.1296 H   0  0  0  0  0  0  0  0  0  0  0  0
   -4.4378   -4.6570    0.7015 H   0  0  0  0  0  0  0  0  0  0  0  0
   -3.0678   -2.6910    0.4863 H   0  0  0  0  0  0  0  0  0  0  0  0
   -3.0309   -3.5238    2.0307 H   0  0  0  0  0  0  0  0  0  0  0  0
   -1.6893   -1.4905    2.4460 H   0  0  0  0  0  0  0  0  0  0  0  0
   -1.6293    0.2098    2.9032 H   0  0  0  0  0  0  0  0  0  0  0  0
  1  2  2  0
  1  3  1  0
  3  4  1  0
  4  5  1  0
  6  5  1  1
  6  7  1  0
  7  8  1  0
  8  9  2  0
  9 10  1  0
 10 11  2  0
 11 12  1  0
 12 13  2  0
  6 14  1  0
 14 15  1  0
 15 16  1  0
 16 17  1  0
 17 18  1  0
 18 19  1  0
 19 20  1  0
 20 21  1  0
 21 22  1  0
 15 23  1  0
 23 24  1  0
  5 25  2  0
  3 26  1  0
 26 27  1  0
 27 28  1  0
 28 29  1  0
 29 30  1  0
 29 31  1  0
 31 32  1  0
 32 33  1  0
 33 34  2  0
 33 35  1  0
 35 36  2  0
 36 37  1  0
 37 38  2  0
 38 39  1  0
 39 40  1  0
 38 41  1  0
 41 42  2  0
 31 43  1  0
 43 44  1  0
 44 45  1  0
 45 46  1  0
 46 47  1  0
 47 48  1  0
 48 49  1  0
 43 50  1  0
 30  1  1  0
 42 35  1  0
 49 44  1  0
 24  6  1  0
 50 27  1  0
 13  8  1  0
 22 17  1  0
  3 51  1  1
  4 52  1  0
  7 53  1  0
  7 54  1  0
  9 55  1  0
 10 56  1  0
 11 57  1  0
 12 58  1  0
 13 59  1  0
 14 60  1  0
 14 61  1  0
 15 62  1  6
 16 63  1  0
 16 64  1  0
 18 65  1  0
 18 66  1  0
 19 67  1  0
 19 68  1  0
 21 69  1  0
 21 70  1  0
 22 71  1  0
 22 72  1  0
 23 73  1  0
 23 74  1  0
 24 75  1  0
 24 76  1  0
 26 77  1  0
 26 78  1  0
 27 79  1  6
 28 80  1  0
 28 81  1  0
 29 82  1  6
 30 83  1  0
 30 84  1  0
 31 85  1  6
 36 86  1  0
 37 87  1  0
 40 88  1  0
 40 89  1  0
 40 90  1  0
 41 91  1  0
 42 92  1  0
 43 93  1  1
 44 94  1  0
 45 95  1  0
 45 96  1  0
 46 97  1  0
 46 98  1  0
 47 99  1  0
 47100  1  0
 48101  1  0
 48102  1  0
 49103  1  0
 49104  1  0
 50105  1  0
 50106  1  0
M  END
$$$$
[H]c1c([H])c(-c2c(N([H])[H])nc(N([H])[H])nc2C([H])([H])[H])c([H])c(Cl)c1Cl
     RDKit          3D

 27 28  0  0  0  0  0  0  0  0999 V2000
   -0.5536   -0.2350    2.3075 C   0  0  0  0  0  0  0  0  0  0  0  0
   -1.2695   -0.0614    1.0177 C   0  0  0  0  0  0  0  0  0  0  0  0
   -2.6275    0.0772    0.9649 N   0  0  0  0  0  0  0  0  0  0  0  0
   -3.2742    0.2336   -0.2027 C   0  0  0  0  0  0  0  0  0  0  0  0
   -4.7072    0.3835   -0.2227 N   0  0  0  0  0  0  0  0  0  0  0  0
   -2.5496    0.2490   -1.3307 N   0  0  0  0  0  0  0  0  0  0  0  0
   -1.1955    0.1136   -1.3154 C   0  0  0  0  0  0  0  0  0  0  0  0
   -0.4243    0.1283   -2.4979 N   0  0  0  0  0  0  0  0  0  0  0  0
   -0.5135   -0.0471   -0.1254 C   0  0  0  0  0  0  0  0  0  0  0  0
    0.9290   -0.1799   -0.0492 C   0  0  0  0  0  0  0  0  0  0  0  0
    1.6241   -1.3293    0.2089 C   0  0  0  0  0  0  0  0  0  0  0  0
    3.0185   -1.3140    0.2415 C   0  0  0  0  0  0  0  0  0  0  0  0
    3.7015   -0.1434    0.0151 C   0  0  0  0  0  0  0  0  0  0  0  0
    5.4587   -0.0491    0.0351 Cl  0  0  0  0  0  0  0  0  0  0  0  0
    3.0346    1.0375   -0.2481 C   0  0  0  0  0  0  0  0  0  0  0  0
    3.8592    2.5515   -0.5403 Cl  0  0  0  0  0  0  0  0  0  0  0  0
    1.6616    0.9921   -0.2745 C   0  0  0  0  0  0  0  0  0  0  0  0
   -1.2741   -0.0946    3.1436 H   0  0  0  0  0  0  0  0  0  0  0  0
    0.2380    0.5199    2.4489 H   0  0  0  0  0  0  0  0  0  0  0  0
   -0.1846   -1.2881    2.3959 H   0  0  0  0  0  0  0  0  0  0  0  0
   -5.2525   -0.3045    0.3235 H   0  0  0  0  0  0  0  0  0  0  0  0
   -5.2085    1.1254   -0.7393 H   0  0  0  0  0  0  0  0  0  0  0  0
   -0.2437   -0.7962   -2.9686 H   0  0  0  0  0  0  0  0  0  0  0  0
   -0.0243    0.9762   -2.9429 H   0  0  0  0  0  0  0  0  0  0  0  0
    1.0770   -2.2373    0.3851 H   0  0  0  0  0  0  0  0  0  0  0  0
    3.5680   -2.2274    0.4487 H   0  0  0  0  0  0  0  0  0  0  0  0
    1.1324    1.9195   -0.4790 H   0  0  0  0  0  0  0  0  0  0  0  0
  1  2  1  0
  2  3  2  0
  3  4  1  0
  4  5  1  0
  4  6  2  0
  6  7  1  0
  7  8  1  0
  7  9  2  0
  9 10  1  0
 10 11  2  0
 11 12  1  0
 12 13  2  0
 13 14  1  0
 13 15  1  0
 15 16  1  0
 15 17  2  0
  9  2  1  0
 17 10  1  0
  1 18  1  0
  1 19  1  0
  1 20  1  0
  5 21  1  0
  5 22  1  0
  8 23  1  0
  8 24  1  0
 11 25  1  0
 12 26  1  0
 17 27  1  0
M  END
$$$$
[H]O[C@]1(c2c([H])c([H])c([H])c(Cl)c2F)c2c([H])c([H])c([H])c([H])c2[C@]([H])(N([H])C(=O)c2c([H])c([H])c3c(nc(C([H])([H])[C@@]([H])(N([H])[H])[C@@]([H])(C([H])([H])[H])C([H])([H])C([H])([H])[H])n3[H])c2[H])C1([H])[H]
     RDKit          3D

 67 71  0  0  0  0  0  0  0  0999 V2000
   -8.0546   -1.6897   -1.6015 C   0  0  0  0  0  0  0  0  0  0  0  0
   -8.5560   -0.2954   -1.4182 C   0  0  0  0  0  0  0  0  0  0  0  0
   -7.9765    0.4203   -0.2413 C   0  0  2  0  0  0  0  0  0  0  0  0
   -8.5630    1.8238   -0.1320 C   0  0  0  0  0  0  0  0  0  0  0  0
   -6.4834    0.4851   -0.2830 C   0  0  2  0  0  0  0  0  0  0  0  0
   -5.8364   -0.7945   -0.2779 N   0  0  0  0  0  0  0  0  0  0  0  0
   -5.9310    1.3657    0.8271 C   0  0  0  0  0  0  0  0  0  0  0  0
   -4.4501    1.3635    0.6987 C   0  0  0  0  0  0  0  0  0  0  0  0
   -3.5558    0.5438    1.2610 N   0  0  0  0  0  0  0  0  0  0  0  0
   -2.2973    0.8530    0.8982 C   0  0  0  0  0  0  0  0  0  0  0  0
   -1.0609    0.3565    1.1691 C   0  0  0  0  0  0  0  0  0  0  0  0
    0.0806    0.9089    0.6206 C   0  0  0  0  0  0  0  0  0  0  0  0
   -0.0439    1.9793   -0.2123 C   0  0  0  0  0  0  0  0  0  0  0  0
   -1.2849    2.4893   -0.4930 C   0  0  0  0  0  0  0  0  0  0  0  0
   -2.4267    1.9438    0.0499 C   0  0  0  0  0  0  0  0  0  0  0  0
   -3.7317    2.2308   -0.0529 N   0  0  0  0  0  0  0  0  0  0  0  0
    1.3605    0.3079    0.9732 C   0  0  0  0  0  0  0  0  0  0  0  0
    1.4461   -0.4152    1.9941 O   0  0  0  0  0  0  0  0  0  0  0  0
    2.4858    0.5601    0.1410 N   0  0  0  0  0  0  0  0  0  0  0  0
    3.7791   -0.0472    0.4992 C   0  0  2  0  0  0  0  0  0  0  0  0
    4.8926    0.9557    0.3036 C   0  0  0  0  0  0  0  0  0  0  0  0
    6.0477    0.0912   -0.0992 C   0  0  2  0  0  0  0  0  0  0  0  0
    6.8230    0.8622   -0.9914 O   0  0  0  0  0  0  0  0  0  0  0  0
    5.4328   -0.9792   -0.8973 C   0  0  0  0  0  0  0  0  0  0  0  0
    5.9452   -1.8452   -1.8719 C   0  0  0  0  0  0  0  0  0  0  0  0
    5.1234   -2.7619   -2.4580 C   0  0  0  0  0  0  0  0  0  0  0  0
    3.7770   -2.8566   -2.1067 C   0  0  0  0  0  0  0  0  0  0  0  0
    3.2830   -2.0015   -1.1485 C   0  0  0  0  0  0  0  0  0  0  0  0
    4.1164   -1.0753   -0.5573 C   0  0  0  0  0  0  0  0  0  0  0  0
    6.8945   -0.3385    1.0012 C   0  0  0  0  0  0  0  0  0  0  0  0
    7.0511   -1.6750    1.2603 C   0  0  0  0  0  0  0  0  0  0  0  0
    7.8354   -2.1419    2.3082 C   0  0  0  0  0  0  0  0  0  0  0  0
    8.4642   -1.2090    3.0955 C   0  0  0  0  0  0  0  0  0  0  0  0
    8.3282    0.1591    2.8615 C   0  0  0  0  0  0  0  0  0  0  0  0
    9.1168    1.3711    3.8437 Cl  0  0  0  0  0  0  0  0  0  0  0  0
    7.5321    0.5700    1.8006 C   0  0  0  0  0  0  0  0  0  0  0  0
    7.3912    1.8797    1.5459 F   0  0  0  0  0  0  0  0  0  0  0  0
   -7.1311   -1.7468   -2.2399 H   0  0  0  0  0  0  0  0  0  0  0  0
   -7.8753   -2.2448   -0.6692 H   0  0  0  0  0  0  0  0  0  0  0  0
   -8.8057   -2.2837   -2.1938 H   0  0  0  0  0  0  0  0  0  0  0  0
   -8.3729    0.3032   -2.3415 H   0  0  0  0  0  0  0  0  0  0  0  0
   -9.6744   -0.3360   -1.3302 H   0  0  0  0  0  0  0  0  0  0  0  0
   -8.2623   -0.1554    0.6743 H   0  0  0  0  0  0  0  0  0  0  0  0
   -9.6553    1.7876   -0.2836 H   0  0  0  0  0  0  0  0  0  0  0  0
   -8.1424    2.4279   -0.9428 H   0  0  0  0  0  0  0  0  0  0  0  0
   -8.3191    2.2041    0.8822 H   0  0  0  0  0  0  0  0  0  0  0  0
   -6.2169    1.0181   -1.2364 H   0  0  0  0  0  0  0  0  0  0  0  0
   -5.5038   -1.0576    0.6724 H   0  0  0  0  0  0  0  0  0  0  0  0
   -5.0627   -0.8790   -0.9633 H   0  0  0  0  0  0  0  0  0  0  0  0
   -6.2663    2.4136    0.6674 H   0  0  0  0  0  0  0  0  0  0  0  0
   -6.2628    0.9785    1.8181 H   0  0  0  0  0  0  0  0  0  0  0  0
   -0.9988   -0.5014    1.8415 H   0  0  0  0  0  0  0  0  0  0  0  0
    0.8227    2.4343   -0.6553 H   0  0  0  0  0  0  0  0  0  0  0  0
   -1.4126    3.3459   -1.1562 H   0  0  0  0  0  0  0  0  0  0  0  0
   -4.1822    2.9962   -0.6143 H   0  0  0  0  0  0  0  0  0  0  0  0
    2.3928    1.1552   -0.6931 H   0  0  0  0  0  0  0  0  0  0  0  0
    3.7599   -0.5506    1.4588 H   0  0  0  0  0  0  0  0  0  0  0  0
    4.5534    1.6247   -0.5379 H   0  0  0  0  0  0  0  0  0  0  0  0
    4.9954    1.4897    1.2460 H   0  0  0  0  0  0  0  0  0  0  0  0
    7.2237    0.2053   -1.6254 H   0  0  0  0  0  0  0  0  0  0  0  0
    6.9994   -1.7567   -2.1347 H   0  0  0  0  0  0  0  0  0  0  0  0
    5.4842   -3.4465   -3.2142 H   0  0  0  0  0  0  0  0  0  0  0  0
    3.1600   -3.5927   -2.5913 H   0  0  0  0  0  0  0  0  0  0  0  0
    2.2248   -2.0638   -0.8615 H   0  0  0  0  0  0  0  0  0  0  0  0
    6.5504   -2.4373    0.6372 H   0  0  0  0  0  0  0  0  0  0  0  0
    7.9336   -3.2045    2.4815 H   0  0  0  0  0  0  0  0  0  0  0  0
    9.0894   -1.5217    3.9267 H   0  0  0  0  0  0  0  0  0  0  0  0
  1  2  1  0
  2  3  1  0
  3  4  1  0
  3  5  1  0
  5  6  1  0
  5  7  1  0
  7  8  1  0
  8  9  2  0
  9 10  1  0
 10 11  2  0
 11 12  1  0
 12 13  2  0
 13 14  1  0
 14 15  2  0
 15 16  1  0
 12 17  1  0
 17 18  2  0
 17 19  1  0
 19 20  1  0
 20 21  1  0
 21 22  1  0
 22 23  1  6
 22 24  1  0
 24 25  2  0
 25 26  1  0
 26 27  2  0
 27 28  1  0
 28 29  2  0
 22 30  1  0
 30 31  2  0
 31 32  1  0
 32 33  2  0
 33 34  1  0
 34 35  1  0
 34 36  2  0
 36 37  1  0
 16  8  1  0
 29 20  1  0
 36 30  1  0
 15 10  1  0
 29 24  1  0
  1 38  1  0
  1 39  1  0
  1 40  1  0
  2 41  1  0
  2 42  1  0
  3 43  1  1
  4 44  1  0
  4 45  1  0
  4 46  1  0
  5 47  1  6
  6 48  1  0
  6 49  1  0
  7 50  1  0
  7 51  1  0
 11 52  1  0
 13 53  1  0
 14 54  1  0
 16 55  1  0
 19 56  1  0
 20 57  1  1
 21 58  1  0
 21 59  1  0
 23 60  1  0
 25 61  1  0
 26 62  1  0
 27 63  1  0
 28 64  1  0
 31 65  1  0
 32 66  1  0
 33 67  1  0
M  END
$$$$
[H]OC([H])([H])C([H])([H])N(C([H])([H])c1c([H])c([H])c(-c2c([H])c([H])c([H])c([H])c2[H])c([H])c1[H])S(=O)(=O)c1c([H])c([H])c(C#N)c([H])c1[H]
     RDKit          3D

 48 50  0  0  0  0  0  0  0  0999 V2000
   -8.9883    1.5929    0.4285 N   0  0  0  0  0  0  0  0  0  0  0  0
   -7.8558    1.4682    0.2226 C   0  0  0  0  0  0  0  0  0  0  0  0
   -6.4480    1.3336   -0.0188 C   0  0  0  0  0  0  0  0  0  0  0  0
   -5.5068    1.7098    0.9191 C   0  0  0  0  0  0  0  0  0  0  0  0
   -4.1513    1.5790    0.6838 C   0  0  0  0  0  0  0  0  0  0  0  0
   -3.6648    1.0653   -0.5011 C   0  0  0  0  0  0  0  0  0  0  0  0
   -4.6129    0.6859   -1.4468 C   0  0  0  0  0  0  0  0  0  0  0  0
   -5.9648    0.8181   -1.2080 C   0  0  0  0  0  0  0  0  0  0  0  0
   -1.9523    0.9071   -0.8128 S   0  0  0  0  0  0  0  0  0  0  0  0
   -1.2815    2.0695   -0.0976 O   0  0  0  0  0  0  0  0  0  0  0  0
   -1.6567    1.0857   -2.2761 O   0  0  0  0  0  0  0  0  0  0  0  0
   -1.3335   -0.5170   -0.2446 N   0  0  0  0  0  0  0  0  0  0  0  0
   -1.7732   -1.7491   -0.7101 C   0  0  0  0  0  0  0  0  0  0  0  0
   -2.8481   -2.4483    0.0592 C   0  0  0  0  0  0  0  0  0  0  0  0
   -3.1851   -3.6790   -0.5357 O   0  0  0  0  0  0  0  0  0  0  0  0
   -0.5525   -0.4901    0.9412 C   0  0  0  0  0  0  0  0  0  0  0  0
    0.8845   -0.3085    0.6400 C   0  0  0  0  0  0  0  0  0  0  0  0
    1.3735   -0.2653   -0.6278 C   0  0  0  0  0  0  0  0  0  0  0  0
    2.7310   -0.0910   -0.8252 C   0  0  0  0  0  0  0  0  0  0  0  0
    3.5966    0.0392    0.2204 C   0  0  0  0  0  0  0  0  0  0  0  0
    3.0738   -0.0083    1.4979 C   0  0  0  0  0  0  0  0  0  0  0  0
    1.7446   -0.1784    1.7226 C   0  0  0  0  0  0  0  0  0  0  0  0
    5.0295    0.2241    0.0871 C   0  0  0  0  0  0  0  0  0  0  0  0
    5.9270   -0.2592    1.0373 C   0  0  0  0  0  0  0  0  0  0  0  0
    7.2803   -0.0807    0.9041 C   0  0  0  0  0  0  0  0  0  0  0  0
    7.7943    0.5875   -0.1827 C   0  0  0  0  0  0  0  0  0  0  0  0
    6.9215    1.0790   -1.1439 C   0  0  0  0  0  0  0  0  0  0  0  0
    5.5562    0.8871   -0.9892 C   0  0  0  0  0  0  0  0  0  0  0  0
   -5.8967    2.1132    1.8488 H   0  0  0  0  0  0  0  0  0  0  0  0
   -3.4236    1.8764    1.4237 H   0  0  0  0  0  0  0  0  0  0  0  0
   -4.2540    0.2753   -2.3954 H   0  0  0  0  0  0  0  0  0  0  0  0
   -6.7100    0.5188   -1.9537 H   0  0  0  0  0  0  0  0  0  0  0  0
   -0.8998   -2.4641   -0.7560 H   0  0  0  0  0  0  0  0  0  0  0  0
   -2.1165   -1.6658   -1.7635 H   0  0  0  0  0  0  0  0  0  0  0  0
   -2.5395   -2.6879    1.1014 H   0  0  0  0  0  0  0  0  0  0  0  0
   -3.7709   -1.8482    0.1618 H   0  0  0  0  0  0  0  0  0  0  0  0
   -2.4007   -3.9644   -1.0661 H   0  0  0  0  0  0  0  0  0  0  0  0
   -0.8869    0.3801    1.5542 H   0  0  0  0  0  0  0  0  0  0  0  0
   -0.7308   -1.3959    1.5524 H   0  0  0  0  0  0  0  0  0  0  0  0
    0.7143   -0.3666   -1.4833 H   0  0  0  0  0  0  0  0  0  0  0  0
    3.1235   -0.0563   -1.8414 H   0  0  0  0  0  0  0  0  0  0  0  0
    3.7320    0.0916    2.3622 H   0  0  0  0  0  0  0  0  0  0  0  0
    1.3600   -0.2120    2.7419 H   0  0  0  0  0  0  0  0  0  0  0  0
    5.5517   -0.7844    1.8954 H   0  0  0  0  0  0  0  0  0  0  0  0
    7.9653   -0.4568    1.6418 H   0  0  0  0  0  0  0  0  0  0  0  0
    8.8569    0.7123   -0.2607 H   0  0  0  0  0  0  0  0  0  0  0  0
    7.3100    1.6041   -2.0002 H   0  0  0  0  0  0  0  0  0  0  0  0
    4.8787    1.2737   -1.7438 H   0  0  0  0  0  0  0  0  0  0  0  0
  1  2  3  0
  2  3  1  0
  3  4  2  0
  4  5  1  0
  5  6  2  0
  6  7  1  0
  7  8  2  0
  6  9  1  0
  9 10  2  0
  9 11  2  0
  9 12  1  0
 12 13  1  0
 13 14  1  0
 14 15  1  0
 12 16  1  0
 16 17  1  0
 17 18  2  0
 18 19  1  0
 19 20  2  0
 20 21  1  0
 21 22  2  0
 20 23  1  0
 23 24  2  0
 24 25  1  0
 25 26  2  0
 26 27  1  0
 27 28  2  0
  8  3  1  0
 22 17  1  0
 28 23  1  0
  4 29  1  0
  5 30  1  0
  7 31  1  0
  8 32  1  0
 13 33  1  0
 13 34  1  0
 14 35  1  0
 14 36  1  0
 15 37  1  0
 16 38  1  0
 16 39  1  0
 18 40  1  0
 19 41  1  0
 21 42  1  0
 22 43  1  0
 24 44  1  0
 25 45  1  0
 26 46  1  0
 27 47  1  0
 28 48  1  0
M  END
$$$$
[H]c1nc([H])c(Cl)c(N([H])C(=O)N([H])c2c([H])c(-c3c([H])c([H])c([H])c(-c4c([H])c([H])c([H])c(S(=O)(=O)C([H])([H])[H])c4[H])c3[H])nn(C([H])([H])C([H])([H])[H])c2=O)c1Cl
     RDKit          3D

 58 61  0  0  0  0  0  0  0  0999 V2000
    0.5562    3.4932    3.4622 C   0  0  0  0  0  0  0  0  0  0  0  0
    0.8029    3.8054    2.0129 C   0  0  0  0  0  0  0  0  0  0  0  0
    1.1915    2.6087    1.2563 N   0  0  0  0  0  0  0  0  0  0  0  0
    0.3159    1.8485    0.6810 N   0  0  0  0  0  0  0  0  0  0  0  0
    0.6150    0.7441   -0.0220 C   0  0  0  0  0  0  0  0  0  0  0  0
    1.9637    0.4006   -0.1342 C   0  0  0  0  0  0  0  0  0  0  0  0
    2.9069    1.2004    0.4729 C   0  0  0  0  0  0  0  0  0  0  0  0
    4.2788    0.9379    0.4151 N   0  0  0  0  0  0  0  0  0  0  0  0
    4.8959   -0.1162   -0.2288 C   0  0  0  0  0  0  0  0  0  0  0  0
    4.3195   -0.9992   -0.8598 O   0  0  0  0  0  0  0  0  0  0  0  0
    6.3358   -0.2196   -0.1764 N   0  0  0  0  0  0  0  0  0  0  0  0
    6.9709   -1.2995   -0.8352 C   0  0  0  0  0  0  0  0  0  0  0  0
    7.1736   -2.4637   -0.1189 C   0  0  0  0  0  0  0  0  0  0  0  0
    6.6505   -2.5768    1.5524 Cl  0  0  0  0  0  0  0  0  0  0  0  0
    7.7868   -3.5201   -0.7366 C   0  0  0  0  0  0  0  0  0  0  0  0
    8.1851   -3.4206   -2.0256 N   0  0  0  0  0  0  0  0  0  0  0  0
    7.9953   -2.2849   -2.7478 C   0  0  0  0  0  0  0  0  0  0  0  0
    7.3840   -1.1999   -2.1679 C   0  0  0  0  0  0  0  0  0  0  0  0
    7.1212    0.2764   -3.0579 Cl  0  0  0  0  0  0  0  0  0  0  0  0
    2.4926    2.3257    1.1798 C   0  0  0  0  0  0  0  0  0  0  0  0
    3.3747    3.0428    1.7274 O   0  0  0  0  0  0  0  0  0  0  0  0
   -0.4402   -0.0636   -0.6445 C   0  0  0  0  0  0  0  0  0  0  0  0
   -0.2276   -1.1985   -1.3740 C   0  0  0  0  0  0  0  0  0  0  0  0
   -1.2612   -1.9329   -1.9473 C   0  0  0  0  0  0  0  0  0  0  0  0
   -2.5695   -1.4851   -1.7656 C   0  0  0  0  0  0  0  0  0  0  0  0
   -2.8138   -0.3584   -1.0444 C   0  0  0  0  0  0  0  0  0  0  0  0
   -1.7457    0.3524   -0.4836 C   0  0  0  0  0  0  0  0  0  0  0  0
   -4.1816    0.1126   -0.8533 C   0  0  0  0  0  0  0  0  0  0  0  0
   -4.4412    1.4682   -0.7247 C   0  0  0  0  0  0  0  0  0  0  0  0
   -5.7590    1.8703   -0.5443 C   0  0  0  0  0  0  0  0  0  0  0  0
   -6.7925    0.9621   -0.4920 C   0  0  0  0  0  0  0  0  0  0  0  0
   -6.5238   -0.3834   -0.6210 C   0  0  0  0  0  0  0  0  0  0  0  0
   -5.2191   -0.8008   -0.8010 C   0  0  0  0  0  0  0  0  0  0  0  0
   -7.7690   -1.6047   -0.5673 S   0  0  0  0  0  0  0  0  0  0  0  0
   -8.0666   -2.2171    1.0539 C   0  0  0  0  0  0  0  0  0  0  0  0
   -7.3528   -2.7044   -1.5313 O   0  0  0  0  0  0  0  0  0  0  0  0
   -9.0098   -0.9856   -1.1706 O   0  0  0  0  0  0  0  0  0  0  0  0
   -0.1811    4.1927    3.9088 H   0  0  0  0  0  0  0  0  0  0  0  0
    0.2643    2.4398    3.6357 H   0  0  0  0  0  0  0  0  0  0  0  0
    1.5202    3.6829    4.0193 H   0  0  0  0  0  0  0  0  0  0  0  0
   -0.1633    4.1311    1.5607 H   0  0  0  0  0  0  0  0  0  0  0  0
    1.5180    4.6188    1.8633 H   0  0  0  0  0  0  0  0  0  0  0  0
    2.1868   -0.4729   -0.6914 H   0  0  0  0  0  0  0  0  0  0  0  0
    4.9434    1.6175    0.9194 H   0  0  0  0  0  0  0  0  0  0  0  0
    6.9028    0.5093    0.3515 H   0  0  0  0  0  0  0  0  0  0  0  0
    7.9391   -4.4348   -0.1524 H   0  0  0  0  0  0  0  0  0  0  0  0
    8.3210   -2.2258   -3.7765 H   0  0  0  0  0  0  0  0  0  0  0  0
    0.7612   -1.5637   -1.5290 H   0  0  0  0  0  0  0  0  0  0  0  0
   -1.0555   -2.8313   -2.5218 H   0  0  0  0  0  0  0  0  0  0  0  0
   -3.3796   -2.0302   -2.1949 H   0  0  0  0  0  0  0  0  0  0  0  0
   -1.9448    1.2484    0.0896 H   0  0  0  0  0  0  0  0  0  0  0  0
   -3.6193    2.1436   -0.7697 H   0  0  0  0  0  0  0  0  0  0  0  0
   -5.9087    2.9512   -0.4480 H   0  0  0  0  0  0  0  0  0  0  0  0
   -7.8087    1.3028   -0.3506 H   0  0  0  0  0  0  0  0  0  0  0  0
   -4.9535   -1.8505   -0.9078 H   0  0  0  0  0  0  0  0  0  0  0  0
   -8.3443   -3.3082    0.9698 H   0  0  0  0  0  0  0  0  0  0  0  0
   -8.9224   -1.6411    1.5037 H   0  0  0  0  0  0  0  0  0  0  0  0
   -7.2184   -2.0939    1.7414 H   0  0  0  0  0  0  0  0  0  0  0  0
  1  2  1  0
  2  3  1  0
  3  4  1  0
  4  5  2  0
  5  6  1  0
  6  7  2  0
  7  8  1  0
  8  9  1  0
  9 10  2  0
  9 11  1  0
 11 12  1  0
 12 13  2  0
 13 14  1  0
 13 15  1  0
 15 16  2  0
 16 17  1  0
 17 18  2  0
 18 19  1  0
  7 20  1  0
 20 21  2  0
  5 22  1  0
 22 23  2  0
 23 24  1  0
 24 25  2  0
 25 26  1  0
 26 27  2  0
 26 28  1  0
 28 29  2  0
 29 30  1  0
 30 31  2  0
 31 32  1  0
 32 33  2  0
 32 34  1  0
 34 35  1  0
 34 36  2  0
 34 37  2  0
 20  3  1  0
 27 22  1  0
 33 28  1  0
 18 12  1  0
  1 38  1  0
  1 39  1  0
  1 40  1  0
  2 41  1  0
  2 42  1  0
  6 43  1  0
  8 44  1  0
 11 45  1  0
 15 46  1  0
 17 47  1  0
 23 48  1  0
 24 49  1  0
 25 50  1  0
 27 51  1  0
 29 52  1  0
 30 53  1  0
 31 54  1  0
 33 55  1  0
 35 56  1  0
 35 57  1  0
 35 58  1  0
M  END
$$$$
[H]OC(=O)[C@@]([H])(N([H])C(=O)C([H])(C([H])([H])S[H])C([H])([H])c1c([H])c([H])c([H])c([H])c1[H])C([H])([H])c1c([H])c([H])c([H])c([H])c1[H]
     RDKit          3D

 45 46  0  0  0  0  0  0  0  0999 V2000
   -3.5203    1.3600    2.2242 O   0  0  0  0  0  0  0  0  0  0  0  0
   -2.2236    1.1121    1.8749 C   0  0  0  0  0  0  0  0  0  0  0  0
   -1.3277    1.4762    2.7055 O   0  0  0  0  0  0  0  0  0  0  0  0
   -1.8100    0.4639    0.6178 C   0  0  2  0  0  0  0  0  0  0  0  0
   -2.3339   -0.9116    0.4305 C   0  0  0  0  0  0  0  0  0  0  0  0
   -3.8040   -1.0612    0.4018 C   0  0  0  0  0  0  0  0  0  0  0  0
   -4.5462   -1.3681    1.5217 C   0  0  0  0  0  0  0  0  0  0  0  0
   -5.9031   -1.5067    1.4974 C   0  0  0  0  0  0  0  0  0  0  0  0
   -6.5763   -1.3361    0.3121 C   0  0  0  0  0  0  0  0  0  0  0  0
   -5.8692   -1.0278   -0.8328 C   0  0  0  0  0  0  0  0  0  0  0  0
   -4.5177   -0.8937   -0.7893 C   0  0  0  0  0  0  0  0  0  0  0  0
   -0.3440    0.4388    0.5543 N   0  0  0  0  0  0  0  0  0  0  0  0
    0.3687    1.1622   -0.4382 C   0  0  0  0  0  0  0  0  0  0  0  0
   -0.2983    1.8427   -1.2838 O   0  0  0  0  0  0  0  0  0  0  0  0
    1.8470    1.1391   -0.5055 C   0  0  0  0  0  0  0  0  0  0  0  0
    2.3505    1.9876   -1.6544 C   0  0  0  0  0  0  0  0  0  0  0  0
    1.8019    3.7078   -1.4221 S   0  0  0  0  0  0  0  0  0  0  0  0
    2.2825   -0.2981   -0.6383 C   0  0  0  0  0  0  0  0  0  0  0  0
    3.7325   -0.4861   -0.7170 C   0  0  0  0  0  0  0  0  0  0  0  0
    4.5040   -0.6666    0.4127 C   0  0  0  0  0  0  0  0  0  0  0  0
    5.8704   -0.8467    0.3585 C   0  0  0  0  0  0  0  0  0  0  0  0
    6.5238   -0.8520   -0.8595 C   0  0  0  0  0  0  0  0  0  0  0  0
    5.7570   -0.6720   -1.9916 C   0  0  0  0  0  0  0  0  0  0  0  0
    4.3920   -0.4912   -1.9491 C   0  0  0  0  0  0  0  0  0  0  0  0
   -3.8148    1.4390    3.1907 H   0  0  0  0  0  0  0  0  0  0  0  0
   -2.1429    1.1252   -0.2288 H   0  0  0  0  0  0  0  0  0  0  0  0
   -1.9784   -1.5472    1.2864 H   0  0  0  0  0  0  0  0  0  0  0  0
   -1.9663   -1.3122   -0.5391 H   0  0  0  0  0  0  0  0  0  0  0  0
   -4.0097   -1.5002    2.4479 H   0  0  0  0  0  0  0  0  0  0  0  0
   -6.4193   -1.7514    2.4291 H   0  0  0  0  0  0  0  0  0  0  0  0
   -7.6477   -1.4370    0.2508 H   0  0  0  0  0  0  0  0  0  0  0  0
   -6.4395   -0.8991   -1.7594 H   0  0  0  0  0  0  0  0  0  0  0  0
   -3.9699   -0.6530   -1.6854 H   0  0  0  0  0  0  0  0  0  0  0  0
    0.2072   -0.1173    1.2451 H   0  0  0  0  0  0  0  0  0  0  0  0
    2.2244    1.6079    0.4251 H   0  0  0  0  0  0  0  0  0  0  0  0
    3.4555    1.9993   -1.6906 H   0  0  0  0  0  0  0  0  0  0  0  0
    1.9588    1.6642   -2.6350 H   0  0  0  0  0  0  0  0  0  0  0  0
    2.5298    4.2981   -0.3664 H   0  0  0  0  0  0  0  0  0  0  0  0
    1.8673   -0.8260    0.2672 H   0  0  0  0  0  0  0  0  0  0  0  0
    1.7558   -0.7078   -1.5441 H   0  0  0  0  0  0  0  0  0  0  0  0
    3.9592   -0.6578    1.3637 H   0  0  0  0  0  0  0  0  0  0  0  0
    6.4379   -0.9849    1.2714 H   0  0  0  0  0  0  0  0  0  0  0  0
    7.6031   -0.9929   -0.9229 H   0  0  0  0  0  0  0  0  0  0  0  0
    6.2395   -0.6705   -2.9708 H   0  0  0  0  0  0  0  0  0  0  0  0
    3.7944   -0.3489   -2.8625 H   0  0  0  0  0  0  0  0  0  0  0  0
  1  2  1  0
  2  3  2  0
  2  4  1  0
  4  5  1  0
  5  6  1  0
  6  7  2  0
  7  8  1  0
  8  9  2  0
  9 10  1  0
 10 11  2  0
  4 12  1  0
 12 13  1  0
 13 14  2  0
 13 15  1  0
 15 16  1  0
 16 17  1  0
 15 18  1  0
 18 19  1  0
 19 20  2  0
 20 21  1  0
 21 22  2  0
 22 23  1  0
 23 24  2  0
 11  6  1  0
 24 19  1  0
  1 25  1  0
  4 26  1  6
  5 27  1  0
  5 28  1  0
  7 29  1  0
  8 30  1  0
  9 31  1  0
 10 32  1  0
 11 33  1  0
 12 34  1  0
 15 35  1  0
 16 36  1  0
 16 37  1  0
 17 38  1  0
 18 39  1  0
 18 40  1  0
 20 41  1  0
 21 42  1  0
 22 43  1  0
 23 44  1  0
 24 45  1  0
M  END
$$$$
[H]O[C@@]([H])([C@@]1([H])N([H])C([H])([H])[C@@]([H])(c2sc([H])c(C([H])([H])[H])c2[H])OC(C([H])([H])[H])(C([H])([H])[H])c2c([H])c([H])c([H])c(c2[H])S1(=O)=O)[C@@]([H])(C([H])([H])[H])C([H])([H])S[H]
     RDKit          3D

 58 60  0  0  0  0  0  0  0  0999 V2000
   -3.1458    3.9489    2.5665 C   0  0  0  0  0  0  0  0  0  0  0  0
   -2.7658    3.2410    1.2753 C   0  0  0  0  0  0  0  0  0  0  0  0
   -2.9796    3.8848    0.0815 C   0  0  0  0  0  0  0  0  0  0  0  0
   -2.4232    2.7532   -1.0683 S   0  0  0  0  0  0  0  0  0  0  0  0
   -1.9401    1.5077   -0.0047 C   0  0  0  0  0  0  0  0  0  0  0  0
   -2.2280    2.0133    1.2130 C   0  0  0  0  0  0  0  0  0  0  0  0
   -1.3202    0.1476   -0.3828 C   0  0  2  0  0  0  0  0  0  0  0  0
    0.1229    0.5214   -0.5201 C   0  0  0  0  0  0  0  0  0  0  0  0
    1.1116   -0.4475   -0.6524 N   0  0  0  0  0  0  0  0  0  0  0  0
    2.1390   -0.6961    0.3046 C   0  0  2  0  0  0  0  0  0  0  0  0
    3.4717   -0.3733   -0.2691 C   0  0  2  0  0  0  0  0  0  0  0  0
    4.4708   -0.6298    0.6819 O   0  0  0  0  0  0  0  0  0  0  0  0
    3.5392    1.0538   -0.7512 C   0  0  1  0  0  0  0  0  0  0  0  0
    3.3045    2.0740    0.3238 C   0  0  0  0  0  0  0  0  0  0  0  0
    4.9022    1.3615   -1.3660 C   0  0  0  0  0  0  0  0  0  0  0  0
    6.1983    1.1107   -0.1255 S   0  0  0  0  0  0  0  0  0  0  0  0
    2.1009   -2.5576    0.4575 S   0  0  0  0  0  0  0  0  0  0  0  0
    3.0761   -3.0966   -0.4242 O   0  0  0  0  0  0  0  0  0  0  0  0
    2.5152   -2.8579    1.8588 O   0  0  0  0  0  0  0  0  0  0  0  0
    0.3553   -2.9544    0.2427 C   0  0  0  0  0  0  0  0  0  0  0  0
   -0.1867   -3.3474    1.4573 C   0  0  0  0  0  0  0  0  0  0  0  0
   -1.5451   -3.2971    1.7118 C   0  0  0  0  0  0  0  0  0  0  0  0
   -2.3131   -2.8114    0.6545 C   0  0  0  0  0  0  0  0  0  0  0  0
   -1.7814   -2.4188   -0.5533 C   0  0  0  0  0  0  0  0  0  0  0  0
   -0.3982   -2.5010   -0.8114 C   0  0  0  0  0  0  0  0  0  0  0  0
   -2.7034   -1.5386   -1.3425 C   0  0  0  0  0  0  0  0  0  0  0  0
   -3.8784   -1.2090   -0.4487 C   0  0  0  0  0  0  0  0  0  0  0  0
   -3.2242   -1.8899   -2.6363 C   0  0  0  0  0  0  0  0  0  0  0  0
   -2.1037   -0.2340   -1.4040 O   0  0  0  0  0  0  0  0  0  0  0  0
   -4.2298    4.1829    2.5481 H   0  0  0  0  0  0  0  0  0  0  0  0
   -2.5918    4.9329    2.5891 H   0  0  0  0  0  0  0  0  0  0  0  0
   -2.8130    3.3971    3.4445 H   0  0  0  0  0  0  0  0  0  0  0  0
   -3.4072    4.8893   -0.0902 H   0  0  0  0  0  0  0  0  0  0  0  0
   -2.0224    1.4238    2.1373 H   0  0  0  0  0  0  0  0  0  0  0  0
   -1.4045   -0.3951    0.5756 H   0  0  0  0  0  0  0  0  0  0  0  0
    0.2413    1.3826   -1.2667 H   0  0  0  0  0  0  0  0  0  0  0  0
    0.3472    1.0776    0.4573 H   0  0  0  0  0  0  0  0  0  0  0  0
    1.4848   -0.5453   -1.6464 H   0  0  0  0  0  0  0  0  0  0  0  0
    1.8924   -0.2792    1.2681 H   0  0  0  0  0  0  0  0  0  0  0  0
    3.7233   -1.0137   -1.1390 H   0  0  0  0  0  0  0  0  0  0  0  0
    4.3212   -0.1172    1.5108 H   0  0  0  0  0  0  0  0  0  0  0  0
    2.8059    1.2459   -1.5700 H   0  0  0  0  0  0  0  0  0  0  0  0
    4.2619    2.3950    0.7978 H   0  0  0  0  0  0  0  0  0  0  0  0
    2.8890    2.9850   -0.1496 H   0  0  0  0  0  0  0  0  0  0  0  0
    2.5646    1.7402    1.0831 H   0  0  0  0  0  0  0  0  0  0  0  0
    4.9230    2.3749   -1.8027 H   0  0  0  0  0  0  0  0  0  0  0  0
    5.0342    0.5955   -2.1741 H   0  0  0  0  0  0  0  0  0  0  0  0
    7.4323    0.8288   -0.7443 H   0  0  0  0  0  0  0  0  0  0  0  0
    0.4215   -3.7345    2.2920 H   0  0  0  0  0  0  0  0  0  0  0  0
   -1.9830   -3.6005    2.6295 H   0  0  0  0  0  0  0  0  0  0  0  0
   -3.3915   -2.7960    0.8832 H   0  0  0  0  0  0  0  0  0  0  0  0
   -0.0005   -2.4008   -1.8777 H   0  0  0  0  0  0  0  0  0  0  0  0
   -3.5818   -0.8738    0.5604 H   0  0  0  0  0  0  0  0  0  0  0  0
   -4.6409   -2.0138   -0.4064 H   0  0  0  0  0  0  0  0  0  0  0  0
   -4.4334   -0.3261   -0.8817 H   0  0  0  0  0  0  0  0  0  0  0  0
   -2.9943   -1.1834   -3.4794 H   0  0  0  0  0  0  0  0  0  0  0  0
   -4.3501   -1.9987   -2.7082 H   0  0  0  0  0  0  0  0  0  0  0  0
   -2.8693   -2.9308   -2.9092 H   0  0  0  0  0  0  0  0  0  0  0  0
  1  2  1  0
  2  3  2  0
  3  4  1  0
  4  5  1  0
  5  6  2  0
  5  7  1  0
  7  8  1  0
  8  9  1  0
  9 10  1  0
 10 11  1  0
 11 12  1  0
 11 13  1  0
 13 14  1  0
 13 15  1  0
 15 16  1  0
 10 17  1  0
 17 18  2  0
 17 19  2  0
 17 20  1  0
 20 21  2  0
 21 22  1  0
 22 23  2  0
 23 24  1  0
 24 25  2  0
 24 26  1  0
 26 27  1  0
 26 28  1  0
 26 29  1  0
  6  2  1  0
 29  7  1  0
 25 20  1  0
  1 30  1  0
  1 31  1  0
  1 32  1  0
  3 33  1  0
  6 34  1  0
  7 35  1  1
  8 36  1  0
  8 37  1  0
  9 38  1  0
 10 39  1  1
 11 40  1  6
 12 41  1  0
 13 42  1  6
 14 43  1  0
 14 44  1  0
 14 45  1  0
 15 46  1  0
 15 47  1  0
 16 48  1  0
 21 49  1  0
 22 50  1  0
 23 51  1  0
 25 52  1  0
 27 53  1  0
 27 54  1  0
 27 55  1  0
 28 56  1  0
 28 57  1  0
 28 58  1  0
M  END
$$$$
[H]OC(=O)c1c([H])c([H])c(-n2c(=O)c(C([H])=C([H])[C@]([H])(c3c([H])nc(O[H])c([H])c3C([H])([H])[H])C([H])([H])[H])c([H])n2[H])c([H])c1[H]
     RDKit          3D

 46 48  0  0  0  0  0  0  0  0999 V2000
   -3.2378    1.4552   -1.5685 C   0  0  0  0  0  0  0  0  0  0  0  0
   -4.0558    1.1822   -0.3580 C   0  0  0  0  0  0  0  0  0  0  0  0
   -4.7802    2.2073    0.2447 C   0  0  0  0  0  0  0  0  0  0  0  0
   -5.5382    1.9468    1.3636 C   0  0  0  0  0  0  0  0  0  0  0  0
   -6.2668    2.9717    1.9724 O   0  0  0  0  0  0  0  0  0  0  0  0
   -5.5408    0.6917    1.8270 N   0  0  0  0  0  0  0  0  0  0  0  0
   -4.8623   -0.3280    1.2843 C   0  0  0  0  0  0  0  0  0  0  0  0
   -4.0832   -0.0994    0.1483 C   0  0  0  0  0  0  0  0  0  0  0  0
   -3.3032   -1.1994   -0.4878 C   0  0  2  0  0  0  0  0  0  0  0  0
   -3.6569   -2.5270    0.1473 C   0  0  0  0  0  0  0  0  0  0  0  0
   -1.8411   -0.9488   -0.3570 C   0  0  0  0  0  0  0  0  0  0  0  0
   -0.9861   -1.9324   -0.5205 C   0  0  0  0  0  0  0  0  0  0  0  0
    0.4559   -1.8218   -0.4205 C   0  0  0  0  0  0  0  0  0  0  0  0
    1.3425   -2.8815   -0.5969 C   0  0  0  0  0  0  0  0  0  0  0  0
    2.5810   -2.3936   -0.4268 N   0  0  0  0  0  0  0  0  0  0  0  0
    2.5227   -1.1009   -0.1564 N   0  0  0  0  0  0  0  0  0  0  0  0
    3.6649   -0.2715    0.0816 C   0  0  0  0  0  0  0  0  0  0  0  0
    4.2635   -0.2258    1.3391 C   0  0  0  0  0  0  0  0  0  0  0  0
    5.3667    0.5608    1.5943 C   0  0  0  0  0  0  0  0  0  0  0  0
    5.9215    1.3389    0.5999 C   0  0  0  0  0  0  0  0  0  0  0  0
    5.3190    1.2843   -0.6390 C   0  0  0  0  0  0  0  0  0  0  0  0
    4.2230    0.5071   -0.9053 C   0  0  0  0  0  0  0  0  0  0  0  0
    7.0877    2.1753    0.8480 C   0  0  0  0  0  0  0  0  0  0  0  0
    7.5978    2.9263   -0.1756 O   0  0  0  0  0  0  0  0  0  0  0  0
    7.6064    2.2001    1.9775 O   0  0  0  0  0  0  0  0  0  0  0  0
    1.2090   -0.7152   -0.1457 C   0  0  0  0  0  0  0  0  0  0  0  0
    0.8287    0.4680    0.0841 O   0  0  0  0  0  0  0  0  0  0  0  0
   -2.3126    1.9935   -1.2808 H   0  0  0  0  0  0  0  0  0  0  0  0
   -3.8330    2.1990   -2.1698 H   0  0  0  0  0  0  0  0  0  0  0  0
   -3.0754    0.5956   -2.2137 H   0  0  0  0  0  0  0  0  0  0  0  0
   -4.7315    3.1980   -0.1842 H   0  0  0  0  0  0  0  0  0  0  0  0
   -7.2896    2.9124    1.9575 H   0  0  0  0  0  0  0  0  0  0  0  0
   -4.8941   -1.3372    1.7014 H   0  0  0  0  0  0  0  0  0  0  0  0
   -3.5364   -1.2739   -1.5657 H   0  0  0  0  0  0  0  0  0  0  0  0
   -4.7714   -2.6553    0.1819 H   0  0  0  0  0  0  0  0  0  0  0  0
   -3.2110   -2.6548    1.1324 H   0  0  0  0  0  0  0  0  0  0  0  0
   -3.3253   -3.3825   -0.5044 H   0  0  0  0  0  0  0  0  0  0  0  0
   -1.4985    0.0377   -0.1289 H   0  0  0  0  0  0  0  0  0  0  0  0
   -1.3793   -2.9395   -0.7556 H   0  0  0  0  0  0  0  0  0  0  0  0
    1.0919   -3.9018   -0.8267 H   0  0  0  0  0  0  0  0  0  0  0  0
    3.4637   -2.9454   -0.4956 H   0  0  0  0  0  0  0  0  0  0  0  0
    3.8050   -0.8524    2.1142 H   0  0  0  0  0  0  0  0  0  0  0  0
    5.8244    0.5897    2.5737 H   0  0  0  0  0  0  0  0  0  0  0  0
    5.7343    1.8873   -1.4426 H   0  0  0  0  0  0  0  0  0  0  0  0
    3.7662    0.4861   -1.9053 H   0  0  0  0  0  0  0  0  0  0  0  0
    8.3346    2.5730   -0.7728 H   0  0  0  0  0  0  0  0  0  0  0  0
  1  2  1  0
  2  3  2  0
  3  4  1  0
  4  5  1  0
  4  6  2  0
  6  7  1  0
  7  8  2  0
  8  9  1  0
  9 10  1  0
  9 11  1  0
 11 12  2  3
 12 13  1  0
 13 14  2  0
 14 15  1  0
 15 16  1  0
 16 17  1  0
 17 18  2  0
 18 19  1  0
 19 20  2  0
 20 21  1  0
 21 22  2  0
 20 23  1  0
 23 24  1  0
 23 25  2  0
 16 26  1  0
 26 27  2  0
  8  2  1  0
 26 13  1  0
 22 17  1  0
  1 28  1  0
  1 29  1  0
  1 30  1  0
  3 31  1  0
  5 32  1  0
  7 33  1  0
  9 34  1  6
 10 35  1  0
 10 36  1  0
 10 37  1  0
 11 38  1  0
 12 39  1  0
 14 40  1  0
 15 41  1  0
 18 42  1  0
 19 43  1  0
 21 44  1  0
 22 45  1  0
 24 46  1  0
M  END
$$$$
[H]c1c([H])c(N([H])C(=O)C([H])([H])C([H])([H])C([H])([H])C([H])([H])C(=O)N([H])c2c([H])c([H])c(Cl)c([H])c2[H])c([H])c(C([H])([H])C([H])(C([H])([H])[H])C([H])([H])[H])c1[H]
     RDKit          3D

 54 55  0  0  0  0  0  0  0  0999 V2000
   -6.3501   -0.6552   -1.7168 C   0  0  0  0  0  0  0  0  0  0  0  0
   -7.2844   -0.0984   -0.6393 C   0  0  0  0  0  0  0  0  0  0  0  0
   -8.5443    0.3477   -1.3235 C   0  0  0  0  0  0  0  0  0  0  0  0
   -6.6071    1.0593    0.0648 C   0  0  0  0  0  0  0  0  0  0  0  0
   -5.3527    0.6662    0.7141 C   0  0  0  0  0  0  0  0  0  0  0  0
   -5.3923    0.2293    2.0086 C   0  0  0  0  0  0  0  0  0  0  0  0
   -4.2253   -0.1437    2.6356 C   0  0  0  0  0  0  0  0  0  0  0  0
   -2.9891   -0.0890    1.9834 C   0  0  0  0  0  0  0  0  0  0  0  0
   -2.9208    0.3454    0.6830 C   0  0  0  0  0  0  0  0  0  0  0  0
   -1.7552    0.4347   -0.1037 N   0  0  0  0  0  0  0  0  0  0  0  0
   -0.5351   -0.1787    0.1784 C   0  0  0  0  0  0  0  0  0  0  0  0
   -0.3447   -0.8918    1.1766 O   0  0  0  0  0  0  0  0  0  0  0  0
    0.5954    0.0367   -0.7718 C   0  0  0  0  0  0  0  0  0  0  0  0
    1.8852   -0.4677   -0.1962 C   0  0  0  0  0  0  0  0  0  0  0  0
    2.2882    0.3073    1.0265 C   0  0  0  0  0  0  0  0  0  0  0  0
    3.5640   -0.1419    1.6647 C   0  0  0  0  0  0  0  0  0  0  0  0
    4.7213    0.0590    0.7370 C   0  0  0  0  0  0  0  0  0  0  0  0
    4.5247    0.6895   -0.3238 O   0  0  0  0  0  0  0  0  0  0  0  0
    5.9826   -0.4684    1.0942 N   0  0  0  0  0  0  0  0  0  0  0  0
    7.1553   -0.3527    0.3296 C   0  0  0  0  0  0  0  0  0  0  0  0
    8.2487   -1.1965    0.6045 C   0  0  0  0  0  0  0  0  0  0  0  0
    9.4333   -1.1355   -0.0792 C   0  0  0  0  0  0  0  0  0  0  0  0
    9.6249   -0.2304   -1.0911 C   0  0  0  0  0  0  0  0  0  0  0  0
   11.1262   -0.1242   -1.9875 Cl  0  0  0  0  0  0  0  0  0  0  0  0
    8.5836    0.6114   -1.3910 C   0  0  0  0  0  0  0  0  0  0  0  0
    7.3733    0.5419   -0.6846 C   0  0  0  0  0  0  0  0  0  0  0  0
   -4.1434    0.7154    0.0877 C   0  0  0  0  0  0  0  0  0  0  0  0
   -5.5384   -1.1843   -1.1817 H   0  0  0  0  0  0  0  0  0  0  0  0
   -6.8928   -1.3286   -2.4018 H   0  0  0  0  0  0  0  0  0  0  0  0
   -5.8987    0.1759   -2.2842 H   0  0  0  0  0  0  0  0  0  0  0  0
   -7.5355   -0.8757    0.1037 H   0  0  0  0  0  0  0  0  0  0  0  0
   -9.4378    0.2467   -0.6639 H   0  0  0  0  0  0  0  0  0  0  0  0
   -8.7849   -0.2773   -2.2258 H   0  0  0  0  0  0  0  0  0  0  0  0
   -8.4920    1.4120   -1.6382 H   0  0  0  0  0  0  0  0  0  0  0  0
   -7.3391    1.4660    0.7976 H   0  0  0  0  0  0  0  0  0  0  0  0
   -6.4687    1.8594   -0.7149 H   0  0  0  0  0  0  0  0  0  0  0  0
   -6.3080    0.1631    2.5670 H   0  0  0  0  0  0  0  0  0  0  0  0
   -4.2076   -0.4947    3.6562 H   0  0  0  0  0  0  0  0  0  0  0  0
   -2.0938   -0.3813    2.5222 H   0  0  0  0  0  0  0  0  0  0  0  0
   -1.8093    1.0270   -0.9901 H   0  0  0  0  0  0  0  0  0  0  0  0
    0.4140   -0.5061   -1.7213 H   0  0  0  0  0  0  0  0  0  0  0  0
    0.6593    1.1269   -1.0306 H   0  0  0  0  0  0  0  0  0  0  0  0
    1.6648   -1.5339    0.1415 H   0  0  0  0  0  0  0  0  0  0  0  0
    2.6662   -0.5545   -0.9683 H   0  0  0  0  0  0  0  0  0  0  0  0
    2.4828    1.3644    0.6608 H   0  0  0  0  0  0  0  0  0  0  0  0
    1.4605    0.4125    1.7316 H   0  0  0  0  0  0  0  0  0  0  0  0
    3.4776   -1.2373    1.8340 H   0  0  0  0  0  0  0  0  0  0  0  0
    3.7287    0.3094    2.6534 H   0  0  0  0  0  0  0  0  0  0  0  0
    6.0569   -0.9938    2.0185 H   0  0  0  0  0  0  0  0  0  0  0  0
    8.0807   -1.9125    1.4117 H   0  0  0  0  0  0  0  0  0  0  0  0
   10.2417   -1.8021    0.1672 H   0  0  0  0  0  0  0  0  0  0  0  0
    8.7155    1.3376   -2.1914 H   0  0  0  0  0  0  0  0  0  0  0  0
    6.6182    1.2487   -0.9794 H   0  0  0  0  0  0  0  0  0  0  0  0
   -4.1225    1.0628   -0.9389 H   0  0  0  0  0  0  0  0  0  0  0  0
  1  2  1  0
  2  3  1  0
  2  4  1  0
  4  5  1  0
  5  6  2  0
  6  7  1  0
  7  8  2  0
  8  9  1  0
  9 10  1  0
 10 11  1  0
 11 12  2  0
 11 13  1  0
 13 14  1  0
 14 15  1  0
 15 16  1  0
 16 17  1  0
 17 18  2  0
 17 19  1  0
 19 20  1  0
 20 21  2  0
 21 22  1  0
 22 23  2  0
 23 24  1  0
 23 25  1  0
 25 26  2  0
  9 27  2  0
 27  5  1  0
 26 20  1  0
  1 28  1  0
  1 29  1  0
  1 30  1  0
  2 31  1  0
  3 32  1  0
  3 33  1  0
  3 34  1  0
  4 35  1  0
  4 36  1  0
  6 37  1  0
  7 38  1  0
  8 39  1  0
 10 40  1  0
 13 41  1  0
 13 42  1  0
 14 43  1  0
 14 44  1  0
 15 45  1  0
 15 46  1  0
 16 47  1  0
 16 48  1  0
 19 49  1  0
 21 50  1  0
 22 51  1  0
 25 52  1  0
 26 53  1  0
 27 54  1  0
M  END
$$$$
[H]c1c([H])c(C#N)c([H])c(C(=O)N2C([H])([H])C([H])([H])N(C(=O)[C@]3([H])C([H])([H])N(C(F)(F)F)C([H])([H])[C@]3([H])c3c([H])c([H])c(Cl)c(Cl)c3[H])[C@@]([H])(C([H])([H])[H])C2([H])[H])c1[H]
     RDKit          3D

 59 62  0  0  0  0  0  0  0  0999 V2000
    1.1479    2.4035    0.1134 C   0  0  0  0  0  0  0  0  0  0  0  0
    0.6087    1.5774   -1.0245 C   0  0  1  0  0  0  0  0  0  0  0  0
    1.7932    1.1755   -1.8946 C   0  0  0  0  0  0  0  0  0  0  0  0
    2.7267    0.4332   -0.9928 N   0  0  0  0  0  0  0  0  0  0  0  0
    2.1528   -0.6949   -0.3189 C   0  0  0  0  0  0  0  0  0  0  0  0
    0.6818   -0.8989   -0.6449 C   0  0  0  0  0  0  0  0  0  0  0  0
   -0.0446    0.3534   -0.5613 N   0  0  0  0  0  0  0  0  0  0  0  0
   -1.3382    0.4032   -0.0449 C   0  0  0  0  0  0  0  0  0  0  0  0
   -1.9011    1.5246    0.0267 O   0  0  0  0  0  0  0  0  0  0  0  0
   -2.0722   -0.7734    0.4142 C   0  0  2  0  0  0  0  0  0  0  0  0
   -2.3893   -1.7902   -0.6520 C   0  0  0  0  0  0  0  0  0  0  0  0
   -3.6737   -2.3354   -0.3372 N   0  0  0  0  0  0  0  0  0  0  0  0
   -4.0187   -1.8950    0.9948 C   0  0  0  0  0  0  0  0  0  0  0  0
   -3.3659   -0.5198    1.0779 C   0  0  2  0  0  0  0  0  0  0  0  0
   -4.2252    0.5375    0.5730 C   0  0  0  0  0  0  0  0  0  0  0  0
   -4.6111    1.5812    1.4251 C   0  0  0  0  0  0  0  0  0  0  0  0
   -5.4354    2.5935    0.9861 C   0  0  0  0  0  0  0  0  0  0  0  0
   -5.9118    2.6265   -0.2928 C   0  0  0  0  0  0  0  0  0  0  0  0
   -6.9636    3.9186   -0.8527 Cl  0  0  0  0  0  0  0  0  0  0  0  0
   -5.5586    1.6308   -1.1479 C   0  0  0  0  0  0  0  0  0  0  0  0
   -6.1416    1.6177   -2.8127 Cl  0  0  0  0  0  0  0  0  0  0  0  0
   -4.7268    0.6074   -0.7083 C   0  0  0  0  0  0  0  0  0  0  0  0
   -3.7869   -3.7469   -0.5231 C   0  0  0  0  0  0  0  0  0  0  0  0
   -2.9168   -4.4826    0.2379 F   0  0  0  0  0  0  0  0  0  0  0  0
   -3.6624   -4.0107   -1.8806 F   0  0  0  0  0  0  0  0  0  0  0  0
   -5.0696   -4.1245   -0.1716 F   0  0  0  0  0  0  0  0  0  0  0  0
    4.0289    0.9305   -0.9144 C   0  0  0  0  0  0  0  0  0  0  0  0
    4.2301    1.9988   -1.6475 O   0  0  0  0  0  0  0  0  0  0  0  0
    5.1910    0.5067   -0.1917 C   0  0  0  0  0  0  0  0  0  0  0  0
    6.3878    1.2357   -0.2641 C   0  0  0  0  0  0  0  0  0  0  0  0
    7.5359    0.8854    0.3895 C   0  0  0  0  0  0  0  0  0  0  0  0
    7.5516   -0.2459    1.1745 C   0  0  0  0  0  0  0  0  0  0  0  0
    6.4169   -1.0084    1.2920 C   0  0  0  0  0  0  0  0  0  0  0  0
    5.2589   -0.6099    0.6015 C   0  0  0  0  0  0  0  0  0  0  0  0
    6.4171   -2.2007    2.1134 C   0  0  0  0  0  0  0  0  0  0  0  0
    6.4072   -3.1498    2.7876 N   0  0  0  0  0  0  0  0  0  0  0  0
    1.8703    3.1280   -0.3123 H   0  0  0  0  0  0  0  0  0  0  0  0
    0.3072    2.9017    0.6360 H   0  0  0  0  0  0  0  0  0  0  0  0
    1.7317    1.7367    0.7780 H   0  0  0  0  0  0  0  0  0  0  0  0
   -0.1274    2.1167   -1.6418 H   0  0  0  0  0  0  0  0  0  0  0  0
    2.2929    2.0387   -2.3451 H   0  0  0  0  0  0  0  0  0  0  0  0
    1.5109    0.4374   -2.6673 H   0  0  0  0  0  0  0  0  0  0  0  0
    2.6652   -1.6130   -0.6927 H   0  0  0  0  0  0  0  0  0  0  0  0
    2.2563   -0.6236    0.7900 H   0  0  0  0  0  0  0  0  0  0  0  0
    0.5351   -1.3235   -1.6315 H   0  0  0  0  0  0  0  0  0  0  0  0
    0.3192   -1.6209    0.1150 H   0  0  0  0  0  0  0  0  0  0  0  0
   -1.4127   -1.3248    1.1487 H   0  0  0  0  0  0  0  0  0  0  0  0
   -2.4425   -1.3145   -1.6502 H   0  0  0  0  0  0  0  0  0  0  0  0
   -1.6524   -2.6212   -0.7056 H   0  0  0  0  0  0  0  0  0  0  0  0
   -3.5746   -2.5375    1.7800 H   0  0  0  0  0  0  0  0  0  0  0  0
   -5.0996   -1.7830    1.1586 H   0  0  0  0  0  0  0  0  0  0  0  0
   -3.1422   -0.3483    2.1746 H   0  0  0  0  0  0  0  0  0  0  0  0
   -4.2771    1.6275    2.4510 H   0  0  0  0  0  0  0  0  0  0  0  0
   -5.7188    3.3960    1.6791 H   0  0  0  0  0  0  0  0  0  0  0  0
   -4.4901   -0.1409   -1.4242 H   0  0  0  0  0  0  0  0  0  0  0  0
    6.3882    2.1388   -0.8853 H   0  0  0  0  0  0  0  0  0  0  0  0
    8.4514    1.4819    0.3075 H   0  0  0  0  0  0  0  0  0  0  0  0
    8.4544   -0.5499    1.7083 H   0  0  0  0  0  0  0  0  0  0  0  0
    4.4316   -1.2563    0.7414 H   0  0  0  0  0  0  0  0  0  0  0  0
  1  2  1  0
  2  3  1  0
  3  4  1  0
  4  5  1  0
  5  6  1  0
  6  7  1  0
  7  8  1  0
  8  9  2  0
  8 10  1  0
 10 11  1  0
 11 12  1  0
 12 13  1  0
 13 14  1  0
 14 15  1  0
 15 16  2  0
 16 17  1  0
 17 18  2  0
 18 19  1  0
 18 20  1  0
 20 21  1  0
 20 22  2  0
 12 23  1  0
 23 24  1  0
 23 25  1  0
 23 26  1  0
  4 27  1  0
 27 28  2  0
 27 29  1  0
 29 30  2  0
 30 31  1  0
 31 32  2  0
 32 33  1  0
 33 34  2  0
 33 35  1  0
 35 36  3  0
  7  2  1  0
 14 10  1  0
 22 15  1  0
 34 29  1  0
  1 37  1  0
  1 38  1  0
  1 39  1  0
  2 40  1  6
  3 41  1  0
  3 42  1  0
  5 43  1  0
  5 44  1  0
  6 45  1  0
  6 46  1  0
 10 47  1  1
 11 48  1  0
 11 49  1  0
 13 50  1  0
 13 51  1  0
 14 52  1  1
 16 53  1  0
 17 54  1  0
 22 55  1  0
 30 56  1  0
 31 57  1  0
 32 58  1  0
 34 59  1  0
M  END
$$$$
[H]N=C(N([H])[H])N([H])C([H])([H])C([H])([H])C([H])([H])C([H])([H])[C@@]([H])(C(=O)N([H])[C@]([H])(C(=O)O[H])C([H])([H])C(=O)O[H])N([H])C(=O)[C@@]([H])(N([H])C(=O)[C@@]([H])(N([H])C(=O)[C@@]([H])(N([H])C(=O)C([H])([H])[H])C([H])([H])O[H])C([H])(C([H])([H])[H])C([H])([H])[H])C([H])(C([H])([H])[H])C([H])([H])[H]
     RDKit          3D

 90 89  0  0  0  0  0  0  0  0999 V2000
    8.3876    2.1690    3.8928 C   0  0  0  0  0  0  0  0  0  0  0  0
    8.0786    1.5691    2.5762 C   0  0  0  0  0  0  0  0  0  0  0  0
    8.0518    2.3219    1.5774 O   0  0  0  0  0  0  0  0  0  0  0  0
    7.8135    0.1524    2.4172 N   0  0  0  0  0  0  0  0  0  0  0  0
    7.5147   -0.3526    1.1131 C   0  0  1  0  0  0  0  0  0  0  0  0
    8.3521   -1.6263    0.9272 C   0  0  0  0  0  0  0  0  0  0  0  0
    7.9606   -2.5265    1.8973 O   0  0  0  0  0  0  0  0  0  0  0  0
    6.0866   -0.8888    1.0601 C   0  0  0  0  0  0  0  0  0  0  0  0
    5.8383   -1.5045    2.1442 O   0  0  0  0  0  0  0  0  0  0  0  0
    5.2365   -0.7290    0.0413 N   0  0  0  0  0  0  0  0  0  0  0  0
    4.3332   -0.5670   -1.0248 C   0  0  1  0  0  0  0  0  0  0  0  0
    4.4835   -1.5378   -2.1277 C   0  0  0  0  0  0  0  0  0  0  0  0
    4.3674   -2.9922   -1.6910 C   0  0  0  0  0  0  0  0  0  0  0  0
    3.4949   -1.2930   -3.2561 C   0  0  0  0  0  0  0  0  0  0  0  0
    2.9537   -0.1964   -0.5587 C   0  0  0  0  0  0  0  0  0  0  0  0
    2.5881   -0.7335    0.5471 O   0  0  0  0  0  0  0  0  0  0  0  0
    2.1313    0.6555   -1.2383 N   0  0  0  0  0  0  0  0  0  0  0  0
    0.8613    1.2647   -1.1589 C   0  0  1  0  0  0  0  0  0  0  0  0
    0.4056    1.8984   -2.4466 C   0  0  0  0  0  0  0  0  0  0  0  0
    0.2130    0.9463   -3.5758 C   0  0  0  0  0  0  0  0  0  0  0  0
   -0.6027    2.9667   -2.2725 C   0  0  0  0  0  0  0  0  0  0  0  0
   -0.1788    0.8136   -0.2665 C   0  0  0  0  0  0  0  0  0  0  0  0
    0.1287    0.6438    0.9830 O   0  0  0  0  0  0  0  0  0  0  0  0
   -1.4939    0.5481   -0.5819 N   0  0  0  0  0  0  0  0  0  0  0  0
   -2.5781    0.2396    0.3132 C   0  0  1  0  0  0  0  0  0  0  0  0
   -3.7476    1.0021   -0.2800 C   0  0  0  0  0  0  0  0  0  0  0  0
   -5.0653    0.9810    0.3677 C   0  0  0  0  0  0  0  0  0  0  0  0
   -5.9358    1.8667   -0.5888 C   0  0  0  0  0  0  0  0  0  0  0  0
   -7.3180    2.1051   -0.0733 C   0  0  0  0  0  0  0  0  0  0  0  0
   -8.0186    2.8463   -1.1354 N   0  0  0  0  0  0  0  0  0  0  0  0
   -7.6517    4.1352   -1.5365 C   0  0  0  0  0  0  0  0  0  0  0  0
   -8.1970    5.2927   -0.9582 N   0  0  0  0  0  0  0  0  0  0  0  0
   -6.7641    4.2584   -2.4835 N   0  0  0  0  0  0  0  0  0  0  0  0
   -2.9597   -1.1854    0.4187 C   0  0  0  0  0  0  0  0  0  0  0  0
   -2.5468   -1.9976   -0.4298 O   0  0  0  0  0  0  0  0  0  0  0  0
   -3.7748   -1.6244    1.4732 N   0  0  0  0  0  0  0  0  0  0  0  0
   -4.1957   -3.0132    1.6561 C   0  0  1  0  0  0  0  0  0  0  0  0
   -3.3226   -3.5771    2.7886 C   0  0  0  0  0  0  0  0  0  0  0  0
   -3.5664   -4.9754    3.0806 C   0  0  0  0  0  0  0  0  0  0  0  0
   -3.0885   -5.6397    4.1791 O   0  0  0  0  0  0  0  0  0  0  0  0
   -4.2685   -5.6774    2.2797 O   0  0  0  0  0  0  0  0  0  0  0  0
   -5.6051   -2.9630    2.1249 C   0  0  0  0  0  0  0  0  0  0  0  0
   -6.3908   -4.0840    2.2996 O   0  0  0  0  0  0  0  0  0  0  0  0
   -6.1575   -1.8566    2.3943 O   0  0  0  0  0  0  0  0  0  0  0  0
    9.1486    1.6074    4.4742 H   0  0  0  0  0  0  0  0  0  0  0  0
    8.8238    3.2143    3.7415 H   0  0  0  0  0  0  0  0  0  0  0  0
    7.4991    2.3085    4.5534 H   0  0  0  0  0  0  0  0  0  0  0  0
    7.8652   -0.4150    3.2956 H   0  0  0  0  0  0  0  0  0  0  0  0
    7.6829    0.4095    0.3661 H   0  0  0  0  0  0  0  0  0  0  0  0
    9.4298   -1.4322    0.9252 H   0  0  0  0  0  0  0  0  0  0  0  0
    8.0239   -2.0240   -0.0723 H   0  0  0  0  0  0  0  0  0  0  0  0
    8.6172   -3.1700    2.2102 H   0  0  0  0  0  0  0  0  0  0  0  0
    4.3394   -1.5445    0.6237 H   0  0  0  0  0  0  0  0  0  0  0  0
    4.6956    0.4473   -1.5240 H   0  0  0  0  0  0  0  0  0  0  0  0
    5.4626   -1.4099   -2.5882 H   0  0  0  0  0  0  0  0  0  0  0  0
    5.3569   -3.4964   -1.9543 H   0  0  0  0  0  0  0  0  0  0  0  0
    3.5887   -3.5384   -2.2311 H   0  0  0  0  0  0  0  0  0  0  0  0
    4.3275   -3.1010   -0.5886 H   0  0  0  0  0  0  0  0  0  0  0  0
    3.6479   -0.2809   -3.6695 H   0  0  0  0  0  0  0  0  0  0  0  0
    3.7597   -2.0406   -4.0633 H   0  0  0  0  0  0  0  0  0  0  0  0
    2.4461   -1.5020   -2.9827 H   0  0  0  0  0  0  0  0  0  0  0  0
    2.6758    1.0881   -2.1534 H   0  0  0  0  0  0  0  0  0  0  0  0
    1.1885    2.2546   -0.5277 H   0  0  0  0  0  0  0  0  0  0  0  0
    1.3717    2.5026   -2.7604 H   0  0  0  0  0  0  0  0  0  0  0  0
    0.8794    1.2009   -4.4229 H   0  0  0  0  0  0  0  0  0  0  0  0
   -0.8315    1.0733   -4.0223 H   0  0  0  0  0  0  0  0  0  0  0  0
    0.4018   -0.1048   -3.3401 H   0  0  0  0  0  0  0  0  0  0  0  0
   -0.0190    3.8782   -1.8732 H   0  0  0  0  0  0  0  0  0  0  0  0
   -1.4566    2.7940   -1.6230 H   0  0  0  0  0  0  0  0  0  0  0  0
   -0.9188    3.2915   -3.3099 H   0  0  0  0  0  0  0  0  0  0  0  0
   -1.7353    0.5298   -1.6220 H   0  0  0  0  0  0  0  0  0  0  0  0
   -2.3731    0.5848    1.3578 H   0  0  0  0  0  0  0  0  0  0  0  0
   -3.3502    2.0754   -0.3110 H   0  0  0  0  0  0  0  0  0  0  0  0
   -3.7844    0.7405   -1.3721 H   0  0  0  0  0  0  0  0  0  0  0  0
   -5.1011    1.4517    1.3413 H   0  0  0  0  0  0  0  0  0  0  0  0
   -5.5375   -0.0471    0.3467 H   0  0  0  0  0  0  0  0  0  0  0  0
   -5.4038    2.7859   -0.8470 H   0  0  0  0  0  0  0  0  0  0  0  0
   -5.9651    1.2408   -1.5400 H   0  0  0  0  0  0  0  0  0  0  0  0
   -7.8424    1.1562    0.1716 H   0  0  0  0  0  0  0  0  0  0  0  0
   -7.3041    2.7351    0.8469 H   0  0  0  0  0  0  0  0  0  0  0  0
   -8.8200    2.3741   -1.5811 H   0  0  0  0  0  0  0  0  0  0  0  0
   -7.9323    6.2418   -1.3750 H   0  0  0  0  0  0  0  0  0  0  0  0
   -8.8267    5.3103   -0.1646 H   0  0  0  0  0  0  0  0  0  0  0  0
   -6.4288    5.1317   -2.8500 H   0  0  0  0  0  0  0  0  0  0  0  0
   -4.1372   -0.9304    2.1871 H   0  0  0  0  0  0  0  0  0  0  0  0
   -4.0588   -3.5984    0.7719 H   0  0  0  0  0  0  0  0  0  0  0  0
   -3.4983   -2.8988    3.6488 H   0  0  0  0  0  0  0  0  0  0  0  0
   -2.2367   -3.3903    2.5199 H   0  0  0  0  0  0  0  0  0  0  0  0
   -2.5158   -6.4970    4.0021 H   0  0  0  0  0  0  0  0  0  0  0  0
   -7.0074   -4.1417    3.1170 H   0  0  0  0  0  0  0  0  0  0  0  0
  1  2  1  0
  2  3  2  0
  2  4  1  0
  4  5  1  0
  5  6  1  0
  6  7  1  0
  5  8  1  0
  8  9  2  0
  8 10  1  0
 10 11  1  0
 11 12  1  0
 12 13  1  0
 12 14  1  0
 11 15  1  0
 15 16  2  0
 15 17  1  0
 17 18  1  0
 18 19  1  0
 19 20  1  0
 19 21  1  0
 18 22  1  0
 22 23  2  0
 22 24  1  0
 24 25  1  0
 25 26  1  0
 26 27  1  0
 27 28  1  0
 28 29  1  0
 29 30  1  0
 30 31  1  0
 31 32  1  0
 31 33  2  3
 25 34  1  0
 34 35  2  0
 34 36  1  0
 36 37  1  0
 37 38  1  0
 38 39  1  0
 39 40  1  0
 39 41  2  0
 37 42  1  0
 42 43  1  0
 42 44  2  0
  1 45  1  0
  1 46  1  0
  1 47  1  0
  4 48  1  0
  5 49  1  6
  6 50  1  0
  6 51  1  0
  7 52  1  0
 10 53  1  0
 11 54  1  6
 12 55  1  0
 13 56  1  0
 13 57  1  0
 13 58  1  0
 14 59  1  0
 14 60  1  0
 14 61  1  0
 17 62  1  0
 18 63  1  1
 19 64  1  0
 20 65  1  0
 20 66  1  0
 20 67  1  0
 21 68  1  0
 21 69  1  0
 21 70  1  0
 24 71  1  0
 25 72  1  1
 26 73  1  0
 26 74  1  0
 27 75  1  0
 27 76  1  0
 28 77  1  0
 28 78  1  0
 29 79  1  0
 29 80  1  0
 30 81  1  0
 32 82  1  0
 32 83  1  0
 33 84  1  0
 36 85  1  0
 37 86  1  6
 38 87  1  0
 38 88  1  0
 40 89  1  0
 43 90  1  0
M  END
$$$$
[H]OC(=O)[C@@]1([H])N(C(=O)[C@@]2([H])N(C(=O)[C@@]([H])(N([H])C(=O)[C@@]3([H])N([H])C([H])([H])C([H])([H])C3([H])[H])C([H])([H])c3c([H])c([H])c([H])c([H])c3[H])C([H])([H])C([H])([H])C2([H])[H])C([H])([H])C([H])([H])C1([H])[H]
     RDKit          3D

 65 68  0  0  0  0  0  0  0  0999 V2000
    6.6399   -0.2600   -2.6129 O   0  0  0  0  0  0  0  0  0  0  0  0
    5.7125    0.6605   -2.1856 C   0  0  0  0  0  0  0  0  0  0  0  0
    5.0285    1.2710   -3.0319 O   0  0  0  0  0  0  0  0  0  0  0  0
    5.5646    0.8837   -0.7596 C   0  0  2  0  0  0  0  0  0  0  0  0
    6.6285    0.1013    0.0319 C   0  0  0  0  0  0  0  0  0  0  0  0
    6.1480    0.4673    1.4465 C   0  0  0  0  0  0  0  0  0  0  0  0
    4.6613    0.4290    1.3224 C   0  0  0  0  0  0  0  0  0  0  0  0
    4.3476    0.4994   -0.1220 N   0  0  0  0  0  0  0  0  0  0  0  0
    3.0148    0.2327   -0.6131 C   0  0  0  0  0  0  0  0  0  0  0  0
    2.7271    0.3697   -1.8213 O   0  0  0  0  0  0  0  0  0  0  0  0
    2.0299   -0.2025    0.3431 C   0  0  2  0  0  0  0  0  0  0  0  0
    1.9913   -1.7591    0.3828 C   0  0  0  0  0  0  0  0  0  0  0  0
    0.8755   -1.9965    1.3471 C   0  0  0  0  0  0  0  0  0  0  0  0
    0.2275   -0.6164    1.5798 C   0  0  0  0  0  0  0  0  0  0  0  0
    0.6589    0.0186    0.2483 N   0  0  0  0  0  0  0  0  0  0  0  0
   -0.3652    0.4944   -0.6474 C   0  0  0  0  0  0  0  0  0  0  0  0
   -0.0261    0.8261   -1.8210 O   0  0  0  0  0  0  0  0  0  0  0  0
   -1.7715    0.5407   -0.1812 C   0  0  2  0  0  0  0  0  0  0  0  0
   -2.2125    1.4644    0.8255 C   0  0  0  0  0  0  0  0  0  0  0  0
   -2.1842    2.9279    0.5941 C   0  0  0  0  0  0  0  0  0  0  0  0
   -1.1567    3.7803    0.9265 C   0  0  0  0  0  0  0  0  0  0  0  0
   -1.2089    5.1710    0.7733 C   0  0  0  0  0  0  0  0  0  0  0  0
   -2.3780    5.7012    0.2465 C   0  0  0  0  0  0  0  0  0  0  0  0
   -3.4307    4.8875   -0.1023 C   0  0  0  0  0  0  0  0  0  0  0  0
   -3.3356    3.5325    0.0653 C   0  0  0  0  0  0  0  0  0  0  0  0
   -2.3853   -0.7329   -0.3282 N   0  0  0  0  0  0  0  0  0  0  0  0
   -3.7115   -1.1482   -0.2481 C   0  0  0  0  0  0  0  0  0  0  0  0
   -4.6490   -0.3921   -0.0131 O   0  0  0  0  0  0  0  0  0  0  0  0
   -3.9800   -2.6035   -0.4463 C   0  0  2  0  0  0  0  0  0  0  0  0
   -4.6762   -2.8375   -1.7944 C   0  0  0  0  0  0  0  0  0  0  0  0
   -5.3156   -4.1894   -1.6206 C   0  0  0  0  0  0  0  0  0  0  0  0
   -5.3664   -4.4153   -0.1106 C   0  0  0  0  0  0  0  0  0  0  0  0
   -4.8889   -3.1964    0.5111 N   0  0  0  0  0  0  0  0  0  0  0  0
    7.4665    0.0025   -3.1102 H   0  0  0  0  0  0  0  0  0  0  0  0
    5.7825    1.9835   -0.4862 H   0  0  0  0  0  0  0  0  0  0  0  0
    6.4926   -0.9720   -0.0775 H   0  0  0  0  0  0  0  0  0  0  0  0
    7.6457    0.4778   -0.1400 H   0  0  0  0  0  0  0  0  0  0  0  0
    6.4509    1.5091    1.7340 H   0  0  0  0  0  0  0  0  0  0  0  0
    6.5388   -0.2189    2.2182 H   0  0  0  0  0  0  0  0  0  0  0  0
    4.2780   -0.4970    1.7724 H   0  0  0  0  0  0  0  0  0  0  0  0
    4.1952    1.3377    1.7963 H   0  0  0  0  0  0  0  0  0  0  0  0
    2.3544    0.0468    1.4080 H   0  0  0  0  0  0  0  0  0  0  0  0
    1.6566   -2.1703   -0.5909 H   0  0  0  0  0  0  0  0  0  0  0  0
    2.9365   -2.2007    0.6677 H   0  0  0  0  0  0  0  0  0  0  0  0
    0.0847   -2.6951    0.9697 H   0  0  0  0  0  0  0  0  0  0  0  0
    1.2914   -2.2763    2.3329 H   0  0  0  0  0  0  0  0  0  0  0  0
   -0.8256   -0.6839    1.6662 H   0  0  0  0  0  0  0  0  0  0  0  0
    0.7599   -0.0080    2.3183 H   0  0  0  0  0  0  0  0  0  0  0  0
   -2.2891    1.0748   -1.1573 H   0  0  0  0  0  0  0  0  0  0  0  0
   -1.5467    1.3532    1.7518 H   0  0  0  0  0  0  0  0  0  0  0  0
   -3.2225    1.1965    1.2552 H   0  0  0  0  0  0  0  0  0  0  0  0
   -0.2289    3.3780    1.3343 H   0  0  0  0  0  0  0  0  0  0  0  0
   -0.3842    5.8281    1.0488 H   0  0  0  0  0  0  0  0  0  0  0  0
   -2.4161    6.7837    0.1411 H   0  0  0  0  0  0  0  0  0  0  0  0
   -4.3370    5.3794   -0.5114 H   0  0  0  0  0  0  0  0  0  0  0  0
   -4.1657    2.8950   -0.2104 H   0  0  0  0  0  0  0  0  0  0  0  0
   -1.6808   -1.5360   -0.5336 H   0  0  0  0  0  0  0  0  0  0  0  0
   -3.0613   -3.2177   -0.4627 H   0  0  0  0  0  0  0  0  0  0  0  0
   -3.8985   -2.8563   -2.5688 H   0  0  0  0  0  0  0  0  0  0  0  0
   -5.4824   -2.0840   -1.9644 H   0  0  0  0  0  0  0  0  0  0  0  0
   -6.3208   -4.1921   -2.0722 H   0  0  0  0  0  0  0  0  0  0  0  0
   -4.6629   -4.9710   -2.0740 H   0  0  0  0  0  0  0  0  0  0  0  0
   -6.3702   -4.6862    0.2562 H   0  0  0  0  0  0  0  0  0  0  0  0
   -4.6886   -5.2815    0.1466 H   0  0  0  0  0  0  0  0  0  0  0  0
   -5.5664   -2.6086    0.9572 H   0  0  0  0  0  0  0  0  0  0  0  0
  1  2  1  0
  2  3  2  0
  2  4  1  0
  4  5  1  0
  5  6  1  0
  6  7  1  0
  7  8  1  0
  8  9  1  0
  9 10  2  0
  9 11  1  0
 11 12  1  0
 12 13  1  0
 13 14  1  0
 14 15  1  0
 15 16  1  0
 16 17  2  0
 16 18  1  0
 18 19  1  0
 19 20  1  0
 20 21  2  0
 21 22  1  0
 22 23  2  0
 23 24  1  0
 24 25  2  0
 18 26  1  0
 26 27  1  0
 27 28  2  0
 27 29  1  0
 29 30  1  0
 30 31  1  0
 31 32  1  0
 32 33  1  0
  8  4  1  0
 15 11  1  0
 25 20  1  0
 33 29  1  0
  1 34  1  0
  4 35  1  6
  5 36  1  0
  5 37  1  0
  6 38  1  0
  6 39  1  0
  7 40  1  0
  7 41  1  0
 11 42  1  1
 12 43  1  0
 12 44  1  0
 13 45  1  0
 13 46  1  0
 14 47  1  0
 14 48  1  0
 18 49  1  6
 19 50  1  0
 19 51  1  0
 21 52  1  0
 22 53  1  0
 23 54  1  0
 24 55  1  0
 25 56  1  0
 26 57  1  0
 29 58  1  6
 30 59  1  0
 30 60  1  0
 31 61  1  0
 31 62  1  0
 32 63  1  0
 32 64  1  0
 33 65  1  0
M  END
$$$$
[H]O[C@]1([H])[C@@]([H])(C([H])([H])OS(=O)(=O)N([H])C(=O)[C@@]([H])(N([H])[H])C([H])([H])C([H])(C([H])([H])[H])C([H])([H])[H])O[C@@]([H])(n2c([H])nc3c(N([H])[H])nc([H])nc32)[C@]1([H])O[H]
     RDKit          3D

 56 58  0  0  0  0  0  0  0  0999 V2000
   -7.6282    1.2650    1.5023 C   0  0  0  0  0  0  0  0  0  0  0  0
   -7.1072    0.3956    0.3697 C   0  0  0  0  0  0  0  0  0  0  0  0
   -7.8314    0.7583   -0.8779 C   0  0  0  0  0  0  0  0  0  0  0  0
   -5.6094    0.4616    0.2946 C   0  0  0  0  0  0  0  0  0  0  0  0
   -5.0199   -0.3450   -0.7972 C   0  0  2  0  0  0  0  0  0  0  0  0
   -5.2972   -1.7599   -0.7414 N   0  0  0  0  0  0  0  0  0  0  0  0
   -3.5413   -0.1884   -0.8015 C   0  0  0  0  0  0  0  0  0  0  0  0
   -2.9707    0.3462    0.1773 O   0  0  0  0  0  0  0  0  0  0  0  0
   -2.8011   -0.6481   -1.9173 N   0  0  0  0  0  0  0  0  0  0  0  0
   -1.0869   -0.5332   -2.0472 S   0  0  0  0  0  0  0  0  0  0  0  0
   -0.6821    0.3788   -3.1727 O   0  0  0  0  0  0  0  0  0  0  0  0
   -0.4884   -1.8934   -2.3857 O   0  0  0  0  0  0  0  0  0  0  0  0
   -0.4706   -0.0589   -0.5853 O   0  0  0  0  0  0  0  0  0  0  0  0
    0.8204   -0.5460   -0.3675 C   0  0  0  0  0  0  0  0  0  0  0  0
    1.3903   -0.1175    0.9655 C   0  0  1  0  0  0  0  0  0  0  0  0
    2.6573   -0.6600    1.0791 O   0  0  0  0  0  0  0  0  0  0  0  0
    3.6042    0.3343    0.9274 C   0  0  2  0  0  0  0  0  0  0  0  0
    2.8841    1.5149    0.2814 C   0  0  2  0  0  0  0  0  0  0  0  0
    3.5099    2.7168    0.4862 O   0  0  0  0  0  0  0  0  0  0  0  0
    1.5660    1.3904    1.0662 C   0  0  2  0  0  0  0  0  0  0  0  0
    1.7910    1.7486    2.3746 O   0  0  0  0  0  0  0  0  0  0  0  0
    4.7731   -0.0793    0.2182 N   0  0  0  0  0  0  0  0  0  0  0  0
    4.8612   -0.5380   -1.0273 C   0  0  0  0  0  0  0  0  0  0  0  0
    6.1604   -0.8229   -1.3209 N   0  0  0  0  0  0  0  0  0  0  0  0
    6.9259   -0.5392   -0.2361 C   0  0  0  0  0  0  0  0  0  0  0  0
    8.2755   -0.6319    0.0219 C   0  0  0  0  0  0  0  0  0  0  0  0
    9.1877   -1.1155   -0.9500 N   0  0  0  0  0  0  0  0  0  0  0  0
    8.7088   -0.2513    1.2458 N   0  0  0  0  0  0  0  0  0  0  0  0
    7.8648    0.2015    2.1809 C   0  0  0  0  0  0  0  0  0  0  0  0
    6.5532    0.2838    1.9110 N   0  0  0  0  0  0  0  0  0  0  0  0
    6.0355   -0.0727    0.7213 C   0  0  0  0  0  0  0  0  0  0  0  0
   -7.1132    2.2725    1.4659 H   0  0  0  0  0  0  0  0  0  0  0  0
   -8.7153    1.5302    1.3328 H   0  0  0  0  0  0  0  0  0  0  0  0
   -7.5670    0.7909    2.4830 H   0  0  0  0  0  0  0  0  0  0  0  0
   -7.3655   -0.6567    0.6834 H   0  0  0  0  0  0  0  0  0  0  0  0
   -7.3933    0.3540   -1.8089 H   0  0  0  0  0  0  0  0  0  0  0  0
   -7.9813    1.8612   -0.9165 H   0  0  0  0  0  0  0  0  0  0  0  0
   -8.8544    0.2844   -0.8090 H   0  0  0  0  0  0  0  0  0  0  0  0
   -5.3188    1.5277    0.1669 H   0  0  0  0  0  0  0  0  0  0  0  0
   -5.2102    0.1661    1.2839 H   0  0  0  0  0  0  0  0  0  0  0  0
   -5.3544    0.0928   -1.7732 H   0  0  0  0  0  0  0  0  0  0  0  0
   -5.0631   -2.2914   -1.5835 H   0  0  0  0  0  0  0  0  0  0  0  0
   -5.0668   -2.1950    0.1662 H   0  0  0  0  0  0  0  0  0  0  0  0
   -3.3120   -1.0765   -2.7150 H   0  0  0  0  0  0  0  0  0  0  0  0
    0.6986   -1.6649   -0.2978 H   0  0  0  0  0  0  0  0  0  0  0  0
    1.4989   -0.3645   -1.2175 H   0  0  0  0  0  0  0  0  0  0  0  0
    0.6865   -0.4215    1.7533 H   0  0  0  0  0  0  0  0  0  0  0  0
    3.8887    0.7166    1.9527 H   0  0  0  0  0  0  0  0  0  0  0  0
    2.7347    1.2346   -0.7829 H   0  0  0  0  0  0  0  0  0  0  0  0
    3.8480    3.0665   -0.3897 H   0  0  0  0  0  0  0  0  0  0  0  0
    0.7598    1.9658    0.6255 H   0  0  0  0  0  0  0  0  0  0  0  0
    1.8704    0.9316    2.9290 H   0  0  0  0  0  0  0  0  0  0  0  0
    4.0147   -0.6576   -1.6834 H   0  0  0  0  0  0  0  0  0  0  0  0
    9.8021   -0.4687   -1.4673 H   0  0  0  0  0  0  0  0  0  0  0  0
    9.2208   -2.1545   -1.1307 H   0  0  0  0  0  0  0  0  0  0  0  0
    8.2569    0.4889    3.1375 H   0  0  0  0  0  0  0  0  0  0  0  0
  1  2  1  0
  2  3  1  0
  2  4  1  0
  4  5  1  0
  5  6  1  0
  5  7  1  0
  7  8  2  0
  7  9  1  0
  9 10  1  0
 10 11  2  0
 10 12  2  0
 10 13  1  0
 13 14  1  0
 14 15  1  0
 15 16  1  0
 16 17  1  0
 17 18  1  0
 18 19  1  0
 18 20  1  0
 20 21  1  0
 17 22  1  0
 22 23  1  0
 23 24  2  0
 24 25  1  0
 25 26  2  0
 26 27  1  0
 26 28  1  0
 28 29  2  0
 29 30  1  0
 30 31  2  0
 20 15  1  0
 31 22  1  0
 31 25  1  0
  1 32  1  0
  1 33  1  0
  1 34  1  0
  2 35  1  0
  3 36  1  0
  3 37  1  0
  3 38  1  0
  4 39  1  0
  4 40  1  0
  5 41  1  6
  6 42  1  0
  6 43  1  0
  9 44  1  0
 14 45  1  0
 14 46  1  0
 15 47  1  1
 17 48  1  1
 18 49  1  6
 19 50  1  0
 20 51  1  6
 21 52  1  0
 23 53  1  0
 27 54  1  0
 27 55  1  0
 29 56  1  0
M  END
$$$$
[H]N=C(c1c([H])c([H])c2c(c1[H])c(C(=O)Oc1c([H])c([H])c(OC(=O)OC(C([H])([H])[H])(C([H])([H])[H])C([H])([H])C([H])([H])C([H])([H])[H])c([H])c1OC([H])([H])[H])c(N([H])[H])n2C([H])([H])c1c([H])c([H])c([H])c([H])c1[H])N([H])[H]
     RDKit          3D

 75 78  0  0  0  0  0  0  0  0999 V2000
    9.3224    0.4769    1.6588 C   0  0  0  0  0  0  0  0  0  0  0  0
    7.9373   -0.0507    1.8620 C   0  0  0  0  0  0  0  0  0  0  0  0
    7.5477   -1.1353    0.9306 C   0  0  0  0  0  0  0  0  0  0  0  0
    7.5055   -0.8252   -0.5272 C   0  0  0  0  0  0  0  0  0  0  0  0
    7.0434   -2.1276   -1.2011 C   0  0  0  0  0  0  0  0  0  0  0  0
    8.8510   -0.5324   -1.1530 C   0  0  0  0  0  0  0  0  0  0  0  0
    6.6587    0.2354   -0.8213 O   0  0  0  0  0  0  0  0  0  0  0  0
    5.3023    0.3209   -0.5936 C   0  0  0  0  0  0  0  0  0  0  0  0
    4.7334   -0.6580   -0.0628 O   0  0  0  0  0  0  0  0  0  0  0  0
    4.5503    1.4480   -0.9305 O   0  0  0  0  0  0  0  0  0  0  0  0
    3.1899    1.4425   -0.6631 C   0  0  0  0  0  0  0  0  0  0  0  0
    2.6524    1.8805    0.5090 C   0  0  0  0  0  0  0  0  0  0  0  0
    1.2768    1.8409    0.6969 C   0  0  0  0  0  0  0  0  0  0  0  0
    0.4091    1.3694   -0.2666 C   0  0  0  0  0  0  0  0  0  0  0  0
   -0.9759    1.3413   -0.0490 O   0  0  0  0  0  0  0  0  0  0  0  0
   -1.6069    0.2458    0.5117 C   0  0  0  0  0  0  0  0  0  0  0  0
   -0.8420   -0.7204    0.8100 O   0  0  0  0  0  0  0  0  0  0  0  0
   -3.0396    0.1536    0.7636 C   0  0  0  0  0  0  0  0  0  0  0  0
   -3.6850   -0.9414    1.3262 C   0  0  0  0  0  0  0  0  0  0  0  0
   -2.9910   -2.1146    1.7301 N   0  0  0  0  0  0  0  0  0  0  0  0
   -4.9905   -0.6377    1.3900 N   0  0  0  0  0  0  0  0  0  0  0  0
   -6.0240   -1.5025    1.9158 C   0  0  0  0  0  0  0  0  0  0  0  0
   -6.6444   -2.3958    0.9372 C   0  0  0  0  0  0  0  0  0  0  0  0
   -6.1360   -3.6575    0.7177 C   0  0  0  0  0  0  0  0  0  0  0  0
   -6.7581   -4.4582   -0.2135 C   0  0  0  0  0  0  0  0  0  0  0  0
   -7.8600   -4.0689   -0.9376 C   0  0  0  0  0  0  0  0  0  0  0  0
   -8.3793   -2.8123   -0.7294 C   0  0  0  0  0  0  0  0  0  0  0  0
   -7.7583   -1.9925    0.2107 C   0  0  0  0  0  0  0  0  0  0  0  0
   -5.2081    0.5947    0.8972 C   0  0  0  0  0  0  0  0  0  0  0  0
   -6.3056    1.4084    0.7170 C   0  0  0  0  0  0  0  0  0  0  0  0
   -6.2367    2.6773    0.1691 C   0  0  0  0  0  0  0  0  0  0  0  0
   -5.0281    3.1831   -0.2262 C   0  0  0  0  0  0  0  0  0  0  0  0
   -3.9086    2.3925   -0.0588 C   0  0  0  0  0  0  0  0  0  0  0  0
   -3.9820    1.1283    0.4879 C   0  0  0  0  0  0  0  0  0  0  0  0
   -4.8846    4.5099   -0.8100 C   0  0  0  0  0  0  0  0  0  0  0  0
   -3.6059    4.9891   -1.2046 N   0  0  0  0  0  0  0  0  0  0  0  0
   -5.8805    5.2877   -0.9905 N   0  0  0  0  0  0  0  0  0  0  0  0
    0.9735    0.9286   -1.4511 C   0  0  0  0  0  0  0  0  0  0  0  0
    0.1780    0.4427   -2.4646 O   0  0  0  0  0  0  0  0  0  0  0  0
    0.7747   -0.0017   -3.6646 C   0  0  0  0  0  0  0  0  0  0  0  0
    2.3392    0.9712   -1.6298 C   0  0  0  0  0  0  0  0  0  0  0  0
    9.4641    1.1572    0.8189 H   0  0  0  0  0  0  0  0  0  0  0  0
   10.0367   -0.3895    1.6747 H   0  0  0  0  0  0  0  0  0  0  0  0
    9.6258    1.0837    2.5775 H   0  0  0  0  0  0  0  0  0  0  0  0
    7.9234   -0.4917    2.9071 H   0  0  0  0  0  0  0  0  0  0  0  0
    7.1689    0.7623    1.8388 H   0  0  0  0  0  0  0  0  0  0  0  0
    8.2487   -2.0328    1.0292 H   0  0  0  0  0  0  0  0  0  0  0  0
    6.5548   -1.5883    1.2122 H   0  0  0  0  0  0  0  0  0  0  0  0
    7.9042   -2.8232   -1.1163 H   0  0  0  0  0  0  0  0  0  0  0  0
    6.2053   -2.5834   -0.6368 H   0  0  0  0  0  0  0  0  0  0  0  0
    6.8486   -1.9811   -2.2655 H   0  0  0  0  0  0  0  0  0  0  0  0
    8.8564   -0.9853   -2.1925 H   0  0  0  0  0  0  0  0  0  0  0  0
    8.8978    0.5678   -1.3614 H   0  0  0  0  0  0  0  0  0  0  0  0
    9.6995   -0.9131   -0.5850 H   0  0  0  0  0  0  0  0  0  0  0  0
    3.3358    2.2519    1.2681 H   0  0  0  0  0  0  0  0  0  0  0  0
    0.9096    2.1959    1.6330 H   0  0  0  0  0  0  0  0  0  0  0  0
   -2.9970   -2.3348    2.7570 H   0  0  0  0  0  0  0  0  0  0  0  0
   -2.4909   -2.7488    1.0757 H   0  0  0  0  0  0  0  0  0  0  0  0
   -5.5482   -2.0960    2.7431 H   0  0  0  0  0  0  0  0  0  0  0  0
   -6.8334   -0.9258    2.4088 H   0  0  0  0  0  0  0  0  0  0  0  0
   -5.2572   -4.0331    1.2694 H   0  0  0  0  0  0  0  0  0  0  0  0
   -6.3480   -5.4508   -0.3779 H   0  0  0  0  0  0  0  0  0  0  0  0
   -8.3217   -4.7461   -1.6714 H   0  0  0  0  0  0  0  0  0  0  0  0
   -9.2453   -2.4804   -1.2851 H   0  0  0  0  0  0  0  0  0  0  0  0
   -8.2210   -1.0184    0.3286 H   0  0  0  0  0  0  0  0  0  0  0  0
   -7.2795    1.0689    1.0084 H   0  0  0  0  0  0  0  0  0  0  0  0
   -7.1460    3.2755    0.0519 H   0  0  0  0  0  0  0  0  0  0  0  0
   -2.9213    2.7628   -0.3635 H   0  0  0  0  0  0  0  0  0  0  0  0
   -3.0253    5.5032   -0.5176 H   0  0  0  0  0  0  0  0  0  0  0  0
   -3.2889    4.8080   -2.1782 H   0  0  0  0  0  0  0  0  0  0  0  0
   -6.8706    5.1123   -0.7679 H   0  0  0  0  0  0  0  0  0  0  0  0
    1.5678   -0.7558   -3.4996 H   0  0  0  0  0  0  0  0  0  0  0  0
   -0.0132   -0.3298   -4.3645 H   0  0  0  0  0  0  0  0  0  0  0  0
    1.2621    0.9034   -4.1237 H   0  0  0  0  0  0  0  0  0  0  0  0
    2.7835    0.6192   -2.5743 H   0  0  0  0  0  0  0  0  0  0  0  0
  1  2  1  0
  2  3  1  0
  3  4  1  0
  4  5  1  0
  4  6  1  0
  4  7  1  0
  7  8  1  0
  8  9  2  0
  8 10  1  0
 10 11  1  0
 11 12  2  0
 12 13  1  0
 13 14  2  0
 14 15  1  0
 15 16  1  0
 16 17  2  0
 16 18  1  0
 18 19  2  0
 19 20  1  0
 19 21  1  0
 21 22  1  0
 22 23  1  0
 23 24  2  0
 24 25  1  0
 25 26  2  0
 26 27  1  0
 27 28  2  0
 21 29  1  0
 29 30  2  0
 30 31  1  0
 31 32  2  0
 32 33  1  0
 33 34  2  0
 32 35  1  0
 35 36  1  0
 35 37  2  3
 14 38  1  0
 38 39  1  0
 39 40  1  0
 38 41  2  0
 41 11  1  0
 34 18  1  0
 28 23  1  0
 34 29  1  0
  1 42  1  0
  1 43  1  0
  1 44  1  0
  2 45  1  0
  2 46  1  0
  3 47  1  0
  3 48  1  0
  5 49  1  0
  5 50  1  0
  5 51  1  0
  6 52  1  0
  6 53  1  0
  6 54  1  0
 12 55  1  0
 13 56  1  0
 20 57  1  0
 20 58  1  0
 22 59  1  0
 22 60  1  0
 24 61  1  0
 25 62  1  0
 26 63  1  0
 27 64  1  0
 28 65  1  0
 30 66  1  0
 31 67  1  0
 33 68  1  0
 36 69  1  0
 36 70  1  0
 37 71  1  0
 40 72  1  0
 40 73  1  0
 40 74  1  0
 41 75  1  0
M  END
$$$$
[H]OC([H])([H])[C@@]1([H])O[C@]([H])(n2c([H])nc3c(N([H])c4c([H])c([H])c(-c5c([H])c([H])c([H])c([H])c5[H])c([H])c4[H])nc([H])nc32)[C@@]([H])(O[H])[C@]1([H])O[H]
     RDKit          3D

 52 56  0  0  0  0  0  0  0  0999 V2000
   -7.5565    2.0706    1.1095 O   0  0  0  0  0  0  0  0  0  0  0  0
   -6.7653    1.0133    1.6120 C   0  0  0  0  0  0  0  0  0  0  0  0
   -5.8078    0.6350    0.5125 C   0  0  1  0  0  0  0  0  0  0  0  0
   -4.9596   -0.3860    0.8381 O   0  0  0  0  0  0  0  0  0  0  0  0
   -4.7374   -1.1726   -0.2551 C   0  0  1  0  0  0  0  0  0  0  0  0
   -5.4253   -0.5540   -1.4525 C   0  0  1  0  0  0  0  0  0  0  0  0
   -5.9333   -1.5212   -2.3160 O   0  0  0  0  0  0  0  0  0  0  0  0
   -6.5462    0.2064   -0.7563 C   0  0  2  0  0  0  0  0  0  0  0  0
   -7.0057    1.2730   -1.4853 O   0  0  0  0  0  0  0  0  0  0  0  0
   -3.3414   -1.4532   -0.4976 N   0  0  0  0  0  0  0  0  0  0  0  0
   -2.8174   -2.5419   -1.0859 C   0  0  0  0  0  0  0  0  0  0  0  0
   -1.4747   -2.4479   -1.1345 N   0  0  0  0  0  0  0  0  0  0  0  0
   -1.1565   -1.2882   -0.5707 C   0  0  0  0  0  0  0  0  0  0  0  0
    0.0661   -0.6437   -0.3322 C   0  0  0  0  0  0  0  0  0  0  0  0
    1.2466   -1.3113   -0.7270 N   0  0  0  0  0  0  0  0  0  0  0  0
    2.5265   -0.7955   -0.5826 C   0  0  0  0  0  0  0  0  0  0  0  0
    2.8159    0.5299   -0.4977 C   0  0  0  0  0  0  0  0  0  0  0  0
    4.1511    0.9453   -0.3216 C   0  0  0  0  0  0  0  0  0  0  0  0
    5.1830    0.0462   -0.2325 C   0  0  0  0  0  0  0  0  0  0  0  0
    4.8835   -1.2938   -0.3200 C   0  0  0  0  0  0  0  0  0  0  0  0
    3.5908   -1.6962   -0.4902 C   0  0  0  0  0  0  0  0  0  0  0  0
    6.5541    0.4799   -0.0502 C   0  0  0  0  0  0  0  0  0  0  0  0
    7.6303   -0.2231   -0.5543 C   0  0  0  0  0  0  0  0  0  0  0  0
    8.9296    0.1768   -0.3873 C   0  0  0  0  0  0  0  0  0  0  0  0
    9.2160    1.3290    0.3105 C   0  0  0  0  0  0  0  0  0  0  0  0
    8.1507    2.0502    0.8252 C   0  0  0  0  0  0  0  0  0  0  0  0
    6.8422    1.6447    0.6553 C   0  0  0  0  0  0  0  0  0  0  0  0
   -0.0065    0.5421    0.2728 N   0  0  0  0  0  0  0  0  0  0  0  0
   -1.1392    1.1388    0.6558 C   0  0  0  0  0  0  0  0  0  0  0  0
   -2.3244    0.5431    0.4393 N   0  0  0  0  0  0  0  0  0  0  0  0
   -2.3042   -0.6576   -0.1695 C   0  0  0  0  0  0  0  0  0  0  0  0
   -6.9597    2.8829    1.1535 H   0  0  0  0  0  0  0  0  0  0  0  0
   -6.1660    1.3360    2.4731 H   0  0  0  0  0  0  0  0  0  0  0  0
   -7.4605    0.2169    1.8954 H   0  0  0  0  0  0  0  0  0  0  0  0
   -5.2357    1.5421    0.2363 H   0  0  0  0  0  0  0  0  0  0  0  0
   -5.2656   -2.1540   -0.0750 H   0  0  0  0  0  0  0  0  0  0  0  0
   -4.7246    0.1382   -1.9415 H   0  0  0  0  0  0  0  0  0  0  0  0
   -5.6039   -1.3079   -3.2245 H   0  0  0  0  0  0  0  0  0  0  0  0
   -7.3317   -0.5394   -0.5062 H   0  0  0  0  0  0  0  0  0  0  0  0
   -7.7657    1.0127   -2.0370 H   0  0  0  0  0  0  0  0  0  0  0  0
   -3.3463   -3.4098   -1.4870 H   0  0  0  0  0  0  0  0  0  0  0  0
    1.1793   -2.2821   -1.1747 H   0  0  0  0  0  0  0  0  0  0  0  0
    2.0925    1.3257   -0.5726 H   0  0  0  0  0  0  0  0  0  0  0  0
    4.4020    1.9928   -0.2513 H   0  0  0  0  0  0  0  0  0  0  0  0
    5.7026   -2.0036   -0.2495 H   0  0  0  0  0  0  0  0  0  0  0  0
    3.3955   -2.7532   -0.5545 H   0  0  0  0  0  0  0  0  0  0  0  0
    7.3855   -1.1321   -1.1038 H   0  0  0  0  0  0  0  0  0  0  0  0
    9.7238   -0.4206   -0.8081 H   0  0  0  0  0  0  0  0  0  0  0  0
   10.2357    1.6558    0.4494 H   0  0  0  0  0  0  0  0  0  0  0  0
    8.3937    2.9539    1.3713 H   0  0  0  0  0  0  0  0  0  0  0  0
    6.0120    2.2048    1.0552 H   0  0  0  0  0  0  0  0  0  0  0  0
   -1.1480    2.1031    1.1442 H   0  0  0  0  0  0  0  0  0  0  0  0
  1  2  1  0
  2  3  1  0
  3  4  1  0
  4  5  1  0
  5  6  1  0
  6  7  1  0
  6  8  1  0
  8  9  1  0
  5 10  1  0
 10 11  1  0
 11 12  2  0
 12 13  1  0
 13 14  2  0
 14 15  1  0
 15 16  1  0
 16 17  2  0
 17 18  1  0
 18 19  2  0
 19 20  1  0
 20 21  2  0
 19 22  1  0
 22 23  2  0
 23 24  1  0
 24 25  2  0
 25 26  1  0
 26 27  2  0
 14 28  1  0
 28 29  2  0
 29 30  1  0
 30 31  2  0
  8  3  1  0
 31 10  1  0
 31 13  1  0
 21 16  1  0
 27 22  1  0
  1 32  1  0
  2 33  1  0
  2 34  1  0
  3 35  1  6
  5 36  1  1
  6 37  1  6
  7 38  1  0
  8 39  1  1
  9 40  1  0
 11 41  1  0
 15 42  1  0
 17 43  1  0
 18 44  1  0
 20 45  1  0
 21 46  1  0
 23 47  1  0
 24 48  1  0
 25 49  1  0
 26 50  1  0
 27 51  1  0
 29 52  1  0
M  END
$$$$
[H]C1=C([H])C([H])(F)C([H])([H])C([H])=C1N([H])C(=O)C1(C(=O)N([H])c2c([H])c([H])c(Oc3c([H])c([H])nc4c([H])c(OC([H])([H])C([H])([H])C([H])([H])N5C([H])([H])C([H])([H])C([H])([H])C5([H])[H])c(OC([H])([H])[H])c([H])c34)c(F)c2[H])C([H])([H])C1([H])[H]
     RDKit          3D

 81 86  0  0  0  0  0  0  0  0999 V2000
   -3.5877    0.0230   -2.5605 C   0  0  0  0  0  0  0  0  0  0  0  0
   -4.4433   -0.0435   -1.4508 O   0  0  0  0  0  0  0  0  0  0  0  0
   -3.9880   -0.2494   -0.1491 C   0  0  0  0  0  0  0  0  0  0  0  0
   -2.6478   -0.3994    0.1096 C   0  0  0  0  0  0  0  0  0  0  0  0
   -2.1587   -0.6042    1.3755 C   0  0  0  0  0  0  0  0  0  0  0  0
   -0.7923   -0.7567    1.6112 C   0  0  0  0  0  0  0  0  0  0  0  0
    0.0250   -0.6916    0.5279 O   0  0  0  0  0  0  0  0  0  0  0  0
    1.3913   -0.8525    0.4754 C   0  0  0  0  0  0  0  0  0  0  0  0
    2.2342    0.1729    0.0692 C   0  0  0  0  0  0  0  0  0  0  0  0
    3.5918   -0.0103    0.0220 C   0  0  0  0  0  0  0  0  0  0  0  0
    4.2120   -1.2204    0.3732 C   0  0  0  0  0  0  0  0  0  0  0  0
    5.6358   -1.3113    0.3171 N   0  0  0  0  0  0  0  0  0  0  0  0
    6.4056   -2.4553    0.1478 C   0  0  0  0  0  0  0  0  0  0  0  0
    5.7718   -3.5663    0.0427 O   0  0  0  0  0  0  0  0  0  0  0  0
    7.8601   -2.5227    0.0895 C   0  0  0  0  0  0  0  0  0  0  0  0
    8.4588   -3.8753   -0.2867 C   0  0  0  0  0  0  0  0  0  0  0  0
    8.4428   -3.4847    1.1392 C   0  0  0  0  0  0  0  0  0  0  0  0
    8.7035   -1.3424   -0.2300 C   0  0  0  0  0  0  0  0  0  0  0  0
    9.9255   -1.4864    0.1717 O   0  0  0  0  0  0  0  0  0  0  0  0
    8.2626   -0.2155   -0.8859 N   0  0  0  0  0  0  0  0  0  0  0  0
    8.9663    0.9916   -1.2279 C   0  0  0  0  0  0  0  0  0  0  0  0
   10.2261    1.1961   -0.9431 C   0  0  0  0  0  0  0  0  0  0  0  0
   10.9546    2.4310   -1.2907 C   0  0  0  0  0  0  0  0  0  0  0  0
   10.1946    3.4846   -1.9837 C   0  0  0  0  0  0  0  0  0  0  0  0
   10.2335    4.6437   -1.1848 F   0  0  0  0  0  0  0  0  0  0  0  0
    8.8021    3.1813   -2.2644 C   0  0  0  0  0  0  0  0  0  0  0  0
    8.2359    2.0634   -1.9301 C   0  0  0  0  0  0  0  0  0  0  0  0
    3.3805   -2.2291    0.7736 C   0  0  0  0  0  0  0  0  0  0  0  0
    1.9865   -2.0377    0.8203 C   0  0  0  0  0  0  0  0  0  0  0  0
    1.2365   -3.0982    1.2142 F   0  0  0  0  0  0  0  0  0  0  0  0
   -0.4287   -0.9581    2.9201 C   0  0  0  0  0  0  0  0  0  0  0  0
   -1.3521   -1.0070    3.9339 C   0  0  0  0  0  0  0  0  0  0  0  0
   -2.6377   -0.8567    3.6575 N   0  0  0  0  0  0  0  0  0  0  0  0
   -3.0892   -0.6527    2.3915 C   0  0  0  0  0  0  0  0  0  0  0  0
   -4.4416   -0.5052    2.1646 C   0  0  0  0  0  0  0  0  0  0  0  0
   -4.8811   -0.3029    0.8827 C   0  0  0  0  0  0  0  0  0  0  0  0
   -6.2490   -0.1596    0.6965 O   0  0  0  0  0  0  0  0  0  0  0  0
   -7.1921   -0.2052    1.7204 C   0  0  0  0  0  0  0  0  0  0  0  0
   -8.5663   -0.0150    1.1322 C   0  0  0  0  0  0  0  0  0  0  0  0
   -8.6955    1.3020    0.4220 C   0  0  0  0  0  0  0  0  0  0  0  0
  -10.0037    1.4621   -0.1281 N   0  0  0  0  0  0  0  0  0  0  0  0
  -10.2287    2.6808   -0.8350 C   0  0  0  0  0  0  0  0  0  0  0  0
  -11.1566    2.3511   -2.0081 C   0  0  0  0  0  0  0  0  0  0  0  0
  -11.7165    1.0092   -1.5741 C   0  0  0  0  0  0  0  0  0  0  0  0
  -10.4689    0.3786   -0.9383 C   0  0  0  0  0  0  0  0  0  0  0  0
   -4.1462    0.4826   -3.4058 H   0  0  0  0  0  0  0  0  0  0  0  0
   -2.7486    0.7305   -2.3481 H   0  0  0  0  0  0  0  0  0  0  0  0
   -3.2042   -0.9751   -2.8684 H   0  0  0  0  0  0  0  0  0  0  0  0
   -1.9172   -0.3599   -0.6920 H   0  0  0  0  0  0  0  0  0  0  0  0
    1.7492    1.1006   -0.1989 H   0  0  0  0  0  0  0  0  0  0  0  0
    4.2444    0.7990   -0.2985 H   0  0  0  0  0  0  0  0  0  0  0  0
    6.1068   -0.3582    0.4880 H   0  0  0  0  0  0  0  0  0  0  0  0
    7.7266   -4.6220   -0.6534 H   0  0  0  0  0  0  0  0  0  0  0  0
    9.4183   -3.8918   -0.8472 H   0  0  0  0  0  0  0  0  0  0  0  0
    9.4104   -3.1476    1.6028 H   0  0  0  0  0  0  0  0  0  0  0  0
    7.7630   -3.9592    1.8454 H   0  0  0  0  0  0  0  0  0  0  0  0
    7.2650   -0.2466   -1.2614 H   0  0  0  0  0  0  0  0  0  0  0  0
   10.8241    0.4296   -0.4110 H   0  0  0  0  0  0  0  0  0  0  0  0
   11.8456    2.1794   -1.9484 H   0  0  0  0  0  0  0  0  0  0  0  0
   11.3908    2.8108   -0.3161 H   0  0  0  0  0  0  0  0  0  0  0  0
   10.6645    3.7949   -2.9610 H   0  0  0  0  0  0  0  0  0  0  0  0
    8.2315    3.9729   -2.7929 H   0  0  0  0  0  0  0  0  0  0  0  0
    7.1670    1.8981   -2.1758 H   0  0  0  0  0  0  0  0  0  0  0  0
    3.7856   -3.1876    1.0764 H   0  0  0  0  0  0  0  0  0  0  0  0
    0.6075   -1.0712    3.1537 H   0  0  0  0  0  0  0  0  0  0  0  0
   -1.0717   -1.1659    4.9745 H   0  0  0  0  0  0  0  0  0  0  0  0
   -5.1120   -0.5552    3.0169 H   0  0  0  0  0  0  0  0  0  0  0  0
   -7.1820   -1.2490    2.1462 H   0  0  0  0  0  0  0  0  0  0  0  0
   -6.9796    0.4646    2.5680 H   0  0  0  0  0  0  0  0  0  0  0  0
   -9.3685   -0.0413    1.9143 H   0  0  0  0  0  0  0  0  0  0  0  0
   -8.7385   -0.8568    0.4359 H   0  0  0  0  0  0  0  0  0  0  0  0
   -8.5595    2.1075    1.1881 H   0  0  0  0  0  0  0  0  0  0  0  0
   -7.8715    1.4342   -0.3151 H   0  0  0  0  0  0  0  0  0  0  0  0
  -10.7856    3.4045   -0.1999 H   0  0  0  0  0  0  0  0  0  0  0  0
   -9.3011    3.1863   -1.1756 H   0  0  0  0  0  0  0  0  0  0  0  0
  -11.9700    3.1048   -2.1030 H   0  0  0  0  0  0  0  0  0  0  0  0
  -10.5960    2.2617   -2.9622 H   0  0  0  0  0  0  0  0  0  0  0  0
  -12.4672    1.2054   -0.7918 H   0  0  0  0  0  0  0  0  0  0  0  0
  -12.0978    0.4163   -2.4102 H   0  0  0  0  0  0  0  0  0  0  0  0
  -10.7030   -0.5229   -0.3684 H   0  0  0  0  0  0  0  0  0  0  0  0
   -9.7919    0.1704   -1.8195 H   0  0  0  0  0  0  0  0  0  0  0  0
  1  2  1  0
  2  3  1  0
  3  4  2  0
  4  5  1  0
  5  6  2  0
  6  7  1  0
  7  8  1  0
  8  9  2  0
  9 10  1  0
 10 11  2  0
 11 12  1  0
 12 13  1  0
 13 14  2  0
 13 15  1  0
 15 16  1  0
 16 17  1  0
 15 18  1  0
 18 19  2  0
 18 20  1  0
 20 21  1  0
 21 22  2  0
 22 23  1  0
 23 24  1  0
 24 25  1  0
 24 26  1  0
 26 27  2  0
 11 28  1  0
 28 29  2  0
 29 30  1  0
  6 31  1  0
 31 32  2  0
 32 33  1  0
 33 34  2  0
 34 35  1  0
 35 36  2  0
 36 37  1  0
 37 38  1  0
 38 39  1  0
 39 40  1  0
 40 41  1  0
 41 42  1  0
 42 43  1  0
 43 44  1  0
 44 45  1  0
 36  3  1  0
 45 41  1  0
 34  5  1  0
 29  8  1  0
 17 15  1  0
 27 21  1  0
  1 46  1  0
  1 47  1  0
  1 48  1  0
  4 49  1  0
  9 50  1  0
 10 51  1  0
 12 52  1  0
 16 53  1  0
 16 54  1  0
 17 55  1  0
 17 56  1  0
 20 57  1  0
 22 58  1  0
 23 59  1  0
 23 60  1  0
 24 61  1  0
 26 62  1  0
 27 63  1  0
 28 64  1  0
 31 65  1  0
 32 66  1  0
 35 67  1  0
 38 68  1  0
 38 69  1  0
 39 70  1  0
 39 71  1  0
 40 72  1  0
 40 73  1  0
 42 74  1  0
 42 75  1  0
 43 76  1  0
 43 77  1  0
 44 78  1  0
 44 79  1  0
 45 80  1  0
 45 81  1  0
M  END
$$$$
[H]c1nc(Oc2c([H])c([H])c(N([H])C(=O)N([H])c3c([H])c([H])c(C([H])([H])N4C([H])([H])C([H])([H])N(C([H])([H])[H])C([H])([H])C4([H])[H])c(C(F)(F)F)c3[H])c([H])c2[H])c([H])c(N([H])C([H])([H])[H])n1
     RDKit          3D

 65 68  0  0  0  0  0  0  0  0999 V2000
   -9.5124    0.7925    1.0221 C   0  0  0  0  0  0  0  0  0  0  0  0
   -8.2189    0.8348    0.4257 N   0  0  0  0  0  0  0  0  0  0  0  0
   -7.1579    0.4976    1.3201 C   0  0  0  0  0  0  0  0  0  0  0  0
   -5.9144    0.3815    0.3826 C   0  0  0  0  0  0  0  0  0  0  0  0
   -5.9865   -0.9158   -0.1766 N   0  0  0  0  0  0  0  0  0  0  0  0
   -4.8862   -1.3578   -0.9298 C   0  0  0  0  0  0  0  0  0  0  0  0
   -3.6087   -0.8387   -0.3326 C   0  0  0  0  0  0  0  0  0  0  0  0
   -3.1777    0.4551   -0.4204 C   0  0  0  0  0  0  0  0  0  0  0  0
   -1.9708    0.8884    0.1359 C   0  0  0  0  0  0  0  0  0  0  0  0
   -1.1991    0.0060    0.7847 C   0  0  0  0  0  0  0  0  0  0  0  0
    0.0320    0.3748    1.4325 N   0  0  0  0  0  0  0  0  0  0  0  0
    1.1662    0.3796    0.6489 C   0  0  0  0  0  0  0  0  0  0  0  0
    1.1872    0.0982   -0.5497 O   0  0  0  0  0  0  0  0  0  0  0  0
    2.4437    0.7440    1.2776 N   0  0  0  0  0  0  0  0  0  0  0  0
    3.5265    0.6587    0.3310 C   0  0  0  0  0  0  0  0  0  0  0  0
    4.3279    1.7079    0.0261 C   0  0  0  0  0  0  0  0  0  0  0  0
    5.3008    1.5235   -0.9530 C   0  0  0  0  0  0  0  0  0  0  0  0
    5.4710    0.3403   -1.6048 C   0  0  0  0  0  0  0  0  0  0  0  0
    6.4275    0.1048   -2.5986 O   0  0  0  0  0  0  0  0  0  0  0  0
    7.7314   -0.1527   -2.2482 C   0  0  0  0  0  0  0  0  0  0  0  0
    8.0989   -0.1476   -0.8760 C   0  0  0  0  0  0  0  0  0  0  0  0
    9.4021   -0.3926   -0.5114 C   0  0  0  0  0  0  0  0  0  0  0  0
    9.8333   -0.3257    0.8477 N   0  0  0  0  0  0  0  0  0  0  0  0
    9.0208    0.0527    1.9575 C   0  0  0  0  0  0  0  0  0  0  0  0
   10.3001   -0.6385   -1.4952 N   0  0  0  0  0  0  0  0  0  0  0  0
    9.9595   -0.6489   -2.7953 C   0  0  0  0  0  0  0  0  0  0  0  0
    8.6877   -0.4069   -3.1337 N   0  0  0  0  0  0  0  0  0  0  0  0
    4.6281   -0.7284   -1.2650 C   0  0  0  0  0  0  0  0  0  0  0  0
    3.6743   -0.5767   -0.3180 C   0  0  0  0  0  0  0  0  0  0  0  0
   -1.6216   -1.3320    0.8757 C   0  0  0  0  0  0  0  0  0  0  0  0
   -2.8092   -1.7511    0.3236 C   0  0  0  0  0  0  0  0  0  0  0  0
   -3.2349   -3.1394    0.5019 C   0  0  0  0  0  0  0  0  0  0  0  0
   -2.2580   -3.7651    1.3100 F   0  0  0  0  0  0  0  0  0  0  0  0
   -4.4018   -3.2183    1.2775 F   0  0  0  0  0  0  0  0  0  0  0  0
   -3.2838   -3.9272   -0.6009 F   0  0  0  0  0  0  0  0  0  0  0  0
   -7.2661   -1.1378   -0.7291 C   0  0  0  0  0  0  0  0  0  0  0  0
   -8.0488    0.1942   -0.8284 C   0  0  0  0  0  0  0  0  0  0  0  0
  -10.2438    1.1371    0.2956 H   0  0  0  0  0  0  0  0  0  0  0  0
   -9.4554    1.4899    1.9178 H   0  0  0  0  0  0  0  0  0  0  0  0
   -9.6659   -0.2359    1.4130 H   0  0  0  0  0  0  0  0  0  0  0  0
   -6.9468    1.1731    2.1418 H   0  0  0  0  0  0  0  0  0  0  0  0
   -7.2536   -0.5290    1.7605 H   0  0  0  0  0  0  0  0  0  0  0  0
   -5.0890    0.3444    1.1597 H   0  0  0  0  0  0  0  0  0  0  0  0
   -5.8581    1.2385   -0.2540 H   0  0  0  0  0  0  0  0  0  0  0  0
   -4.8620   -2.3583   -1.3115 H   0  0  0  0  0  0  0  0  0  0  0  0
   -4.9449   -0.7318   -1.9059 H   0  0  0  0  0  0  0  0  0  0  0  0
   -3.7731    1.1707   -0.9609 H   0  0  0  0  0  0  0  0  0  0  0  0
   -1.7100    1.9154    0.0264 H   0  0  0  0  0  0  0  0  0  0  0  0
    0.0462    0.6268    2.4557 H   0  0  0  0  0  0  0  0  0  0  0  0
    2.5855    1.0017    2.2321 H   0  0  0  0  0  0  0  0  0  0  0  0
    4.2184    2.6654    0.5239 H   0  0  0  0  0  0  0  0  0  0  0  0
    5.9195    2.3771   -1.1866 H   0  0  0  0  0  0  0  0  0  0  0  0
    7.3267    0.0410   -0.1505 H   0  0  0  0  0  0  0  0  0  0  0  0
   10.8488   -0.5620    1.0496 H   0  0  0  0  0  0  0  0  0  0  0  0
    8.9614   -0.7765    2.7228 H   0  0  0  0  0  0  0  0  0  0  0  0
    9.4624    0.9229    2.5259 H   0  0  0  0  0  0  0  0  0  0  0  0
    7.9943    0.3077    1.6886 H   0  0  0  0  0  0  0  0  0  0  0  0
   10.6531   -0.8404   -3.5827 H   0  0  0  0  0  0  0  0  0  0  0  0
    4.7613   -1.6821   -1.7874 H   0  0  0  0  0  0  0  0  0  0  0  0
    3.0157   -1.3821   -0.0250 H   0  0  0  0  0  0  0  0  0  0  0  0
   -0.9599   -2.0053    1.3897 H   0  0  0  0  0  0  0  0  0  0  0  0
   -7.3263   -1.5920   -1.7220 H   0  0  0  0  0  0  0  0  0  0  0  0
   -7.9219   -1.7732   -0.0711 H   0  0  0  0  0  0  0  0  0  0  0  0
   -8.9743   -0.0519   -1.3761 H   0  0  0  0  0  0  0  0  0  0  0  0
   -7.4705    0.8973   -1.4840 H   0  0  0  0  0  0  0  0  0  0  0  0
  1  2  1  0
  2  3  1  0
  3  4  1  0
  4  5  1  0
  5  6  1  0
  6  7  1  0
  7  8  2  0
  8  9  1  0
  9 10  2  0
 10 11  1  0
 11 12  1  0
 12 13  2  0
 12 14  1  0
 14 15  1  0
 15 16  2  0
 16 17  1  0
 17 18  2  0
 18 19  1  0
 19 20  1  0
 20 21  2  0
 21 22  1  0
 22 23  1  0
 23 24  1  0
 22 25  2  0
 25 26  1  0
 26 27  2  0
 18 28  1  0
 28 29  2  0
 10 30  1  0
 30 31  2  0
 31 32  1  0
 32 33  1  0
 32 34  1  0
 32 35  1  0
  5 36  1  0
 36 37  1  0
 37  2  1  0
 31  7  1  0
 29 15  1  0
 27 20  1  0
  1 38  1  0
  1 39  1  0
  1 40  1  0
  3 41  1  0
  3 42  1  0
  4 43  1  0
  4 44  1  0
  6 45  1  0
  6 46  1  0
  8 47  1  0
  9 48  1  0
 11 49  1  0
 14 50  1  0
 16 51  1  0
 17 52  1  0
 21 53  1  0
 23 54  1  0
 24 55  1  0
 24 56  1  0
 24 57  1  0
 26 58  1  0
 28 59  1  0
 29 60  1  0
 30 61  1  0
 36 62  1  0
 36 63  1  0
 37 64  1  0
 37 65  1  0
M  END
$$$$
[H]c1c([H])c(N([H])C(=O)c2nc3c([H])c([H])c([H])c([H])c3nc2Oc2c([H])c([H])c(OC([H])([H])[H])c([H])c2Cl)c([H])c(S(=O)(=O)N([H])[H])c1[H]
     RDKit          3D

 50 53  0  0  0  0  0  0  0  0999 V2000
    4.2719    4.1513    1.6824 C   0  0  0  0  0  0  0  0  0  0  0  0
    3.8131    4.1951    0.3615 O   0  0  0  0  0  0  0  0  0  0  0  0
    3.2546    3.0828   -0.2666 C   0  0  0  0  0  0  0  0  0  0  0  0
    3.1304    1.8795    0.3976 C   0  0  0  0  0  0  0  0  0  0  0  0
    2.5836    0.7573   -0.1894 C   0  0  0  0  0  0  0  0  0  0  0  0
    2.1463    0.8515   -1.4927 C   0  0  0  0  0  0  0  0  0  0  0  0
    1.5886   -0.2868   -2.0968 O   0  0  0  0  0  0  0  0  0  0  0  0
    1.4434   -1.4869   -1.4223 C   0  0  0  0  0  0  0  0  0  0  0  0
    2.4090   -2.4417   -1.4889 N   0  0  0  0  0  0  0  0  0  0  0  0
    2.3639   -3.6154   -0.8814 C   0  0  0  0  0  0  0  0  0  0  0  0
    3.3888   -4.5516   -0.9894 C   0  0  0  0  0  0  0  0  0  0  0  0
    3.2866   -5.7492   -0.3371 C   0  0  0  0  0  0  0  0  0  0  0  0
    2.1600   -5.9974    0.4163 C   0  0  0  0  0  0  0  0  0  0  0  0
    1.1270   -5.0937    0.5448 C   0  0  0  0  0  0  0  0  0  0  0  0
    1.2479   -3.8899   -0.1210 C   0  0  0  0  0  0  0  0  0  0  0  0
    0.2603   -2.9895   -0.0163 N   0  0  0  0  0  0  0  0  0  0  0  0
    0.3488   -1.7876   -0.6632 C   0  0  0  0  0  0  0  0  0  0  0  0
   -0.8015   -0.8605   -0.5525 C   0  0  0  0  0  0  0  0  0  0  0  0
   -0.7795    0.1462   -1.2819 O   0  0  0  0  0  0  0  0  0  0  0  0
   -1.8506   -1.1377    0.3462 N   0  0  0  0  0  0  0  0  0  0  0  0
   -3.0155   -0.3732    0.5813 C   0  0  0  0  0  0  0  0  0  0  0  0
   -3.8962   -0.7941    1.5844 C   0  0  0  0  0  0  0  0  0  0  0  0
   -5.0568   -0.1383    1.9005 C   0  0  0  0  0  0  0  0  0  0  0  0
   -5.3886    1.0089    1.1935 C   0  0  0  0  0  0  0  0  0  0  0  0
   -4.5614    1.4640    0.2015 C   0  0  0  0  0  0  0  0  0  0  0  0
   -3.3863    0.7627   -0.0878 C   0  0  0  0  0  0  0  0  0  0  0  0
   -4.9924    2.9074   -0.6779 S   0  0  0  0  0  0  0  0  0  0  0  0
   -4.3334    4.2896    0.1052 N   0  0  0  0  0  0  0  0  0  0  0  0
   -6.4903    3.0281   -0.7185 O   0  0  0  0  0  0  0  0  0  0  0  0
   -4.4235    2.8286   -2.0667 O   0  0  0  0  0  0  0  0  0  0  0  0
    2.2528    2.0357   -2.1903 C   0  0  0  0  0  0  0  0  0  0  0  0
    1.6794    2.0935   -3.8437 Cl  0  0  0  0  0  0  0  0  0  0  0  0
    2.8069    3.1413   -1.5689 C   0  0  0  0  0  0  0  0  0  0  0  0
    4.5055    5.1660    2.0314 H   0  0  0  0  0  0  0  0  0  0  0  0
    3.5185    3.7243    2.3861 H   0  0  0  0  0  0  0  0  0  0  0  0
    5.1857    3.5411    1.8137 H   0  0  0  0  0  0  0  0  0  0  0  0
    3.4771    1.8127    1.4243 H   0  0  0  0  0  0  0  0  0  0  0  0
    2.4918   -0.1835    0.3447 H   0  0  0  0  0  0  0  0  0  0  0  0
    4.2653   -4.3417   -1.5837 H   0  0  0  0  0  0  0  0  0  0  0  0
    4.0461   -6.5276   -0.3749 H   0  0  0  0  0  0  0  0  0  0  0  0
    2.0487   -6.9335    0.9439 H   0  0  0  0  0  0  0  0  0  0  0  0
    0.2497   -5.3051    1.1405 H   0  0  0  0  0  0  0  0  0  0  0  0
   -1.7236   -2.0467    0.9060 H   0  0  0  0  0  0  0  0  0  0  0  0
   -3.6710   -1.6852    2.1576 H   0  0  0  0  0  0  0  0  0  0  0  0
   -5.7092   -0.5083    2.6919 H   0  0  0  0  0  0  0  0  0  0  0  0
   -6.3060    1.5128    1.4555 H   0  0  0  0  0  0  0  0  0  0  0  0
   -2.7819    1.1644   -0.8744 H   0  0  0  0  0  0  0  0  0  0  0  0
   -5.0729    5.0183    0.2078 H   0  0  0  0  0  0  0  0  0  0  0  0
   -4.0051    4.0839    1.0801 H   0  0  0  0  0  0  0  0  0  0  0  0
    2.8940    4.0780   -2.1127 H   0  0  0  0  0  0  0  0  0  0  0  0
  1  2  1  0
  2  3  1  0
  3  4  2  0
  4  5  1  0
  5  6  2  0
  6  7  1  0
  7  8  1  0
  8  9  2  0
  9 10  1  0
 10 11  2  0
 11 12  1  0
 12 13  2  0
 13 14  1  0
 14 15  2  0
 15 16  1  0
 16 17  2  0
 17 18  1  0
 18 19  2  0
 18 20  1  0
 20 21  1  0
 21 22  2  0
 22 23  1  0
 23 24  2  0
 24 25  1  0
 25 26  2  0
 25 27  1  0
 27 28  1  0
 27 29  2  0
 27 30  2  0
  6 31  1  0
 31 32  1  0
 31 33  2  0
 33  3  1  0
 17  8  1  0
 26 21  1  0
 15 10  1  0
  1 34  1  0
  1 35  1  0
  1 36  1  0
  4 37  1  0
  5 38  1  0
 11 39  1  0
 12 40  1  0
 13 41  1  0
 14 42  1  0
 20 43  1  0
 22 44  1  0
 23 45  1  0
 24 46  1  0
 26 47  1  0
 28 48  1  0
 28 49  1  0
 33 50  1  0
M  END
$$$$
[H]c1c([H])c(C2([H])Oc3c([H])c(OC([H])([H])[H])c(OC([H])([H])[H])c([H])c3C(=O)c3c([H])c(OC([H])([H])[H])c(OC([H])([H])[H])c([H])c32)c([H])c(OC([H])([H])[H])c1OC([H])([H])[H]
     RDKit          3D

 60 63  0  0  0  0  0  0  0  0999 V2000
    0.6379    1.5729   -1.5053 C   0  0  0  0  0  0  0  0  0  0  0  0
   -0.2379    1.2003   -0.4774 C   0  0  0  0  0  0  0  0  0  0  0  0
   -1.2790    1.9967   -0.1521 C   0  0  0  0  0  0  0  0  0  0  0  0
   -1.4575    3.1900   -0.8567 C   0  0  0  0  0  0  0  0  0  0  0  0
   -2.4980    4.0602   -0.5799 O   0  0  0  0  0  0  0  0  0  0  0  0
   -3.3985    3.7327    0.4443 C   0  0  0  0  0  0  0  0  0  0  0  0
   -0.5961    3.5798   -1.8818 C   0  0  0  0  0  0  0  0  0  0  0  0
   -0.8081    4.7663   -2.5417 O   0  0  0  0  0  0  0  0  0  0  0  0
   -0.0878    5.3320   -3.5728 C   0  0  0  0  0  0  0  0  0  0  0  0
    0.4494    2.7293   -2.1757 C   0  0  0  0  0  0  0  0  0  0  0  0
   -0.1063    0.0194    0.3506 C   0  0  0  0  0  0  0  0  0  0  0  0
   -0.9481   -0.1561    1.5273 C   0  0  0  0  0  0  0  0  0  0  0  0
   -1.9621   -1.0986    1.5624 C   0  0  0  0  0  0  0  0  0  0  0  0
   -2.7260   -1.2418    2.7444 C   0  0  0  0  0  0  0  0  0  0  0  0
   -3.7523   -2.1636    2.8478 O   0  0  0  0  0  0  0  0  0  0  0  0
   -4.0107   -2.9765    1.6992 C   0  0  0  0  0  0  0  0  0  0  0  0
   -2.4435   -0.4542    3.8043 C   0  0  0  0  0  0  0  0  0  0  0  0
   -3.1493   -0.5291    5.0297 O   0  0  0  0  0  0  0  0  0  0  0  0
   -2.8426    0.2932    6.0948 C   0  0  0  0  0  0  0  0  0  0  0  0
   -1.4258    0.4925    3.7636 C   0  0  0  0  0  0  0  0  0  0  0  0
   -0.6809    0.6537    2.6542 C   0  0  0  0  0  0  0  0  0  0  0  0
    0.1366   -1.1994   -0.3179 O   0  0  0  0  0  0  0  0  0  0  0  0
    1.3904   -1.5084   -0.9282 C   0  0  0  0  0  0  0  0  0  0  0  0
    1.8252   -2.7893   -0.7463 C   0  0  0  0  0  0  0  0  0  0  0  0
    3.0450   -3.1577   -1.2827 C   0  0  0  0  0  0  0  0  0  0  0  0
    3.4369   -4.4993   -1.0505 O   0  0  0  0  0  0  0  0  0  0  0  0
    2.5173   -5.3737   -0.4603 C   0  0  0  0  0  0  0  0  0  0  0  0
    3.8039   -2.2624   -1.9890 C   0  0  0  0  0  0  0  0  0  0  0  0
    5.0152   -2.6710   -2.5040 O   0  0  0  0  0  0  0  0  0  0  0  0
    5.9111   -1.8854   -3.2425 C   0  0  0  0  0  0  0  0  0  0  0  0
    3.3387   -0.9563   -2.1715 C   0  0  0  0  0  0  0  0  0  0  0  0
    2.1134   -0.5844   -1.6300 C   0  0  0  0  0  0  0  0  0  0  0  0
    1.8196    0.8212   -1.9853 C   0  0  0  0  0  0  0  0  0  0  0  0
    2.6122    1.4181   -2.7386 O   0  0  0  0  0  0  0  0  0  0  0  0
   -2.0008    1.7645    0.6278 H   0  0  0  0  0  0  0  0  0  0  0  0
   -4.1309    2.9758    0.1235 H   0  0  0  0  0  0  0  0  0  0  0  0
   -3.9986    4.6257    0.7803 H   0  0  0  0  0  0  0  0  0  0  0  0
   -2.8293    3.4464    1.3503 H   0  0  0  0  0  0  0  0  0  0  0  0
    0.9317    4.9085   -3.5936 H   0  0  0  0  0  0  0  0  0  0  0  0
    0.0648    6.4341   -3.3605 H   0  0  0  0  0  0  0  0  0  0  0  0
   -0.5525    5.2071   -4.5809 H   0  0  0  0  0  0  0  0  0  0  0  0
    1.1299    3.0029   -2.9638 H   0  0  0  0  0  0  0  0  0  0  0  0
    0.9503    0.2483    0.8706 H   0  0  0  0  0  0  0  0  0  0  0  0
   -2.1993   -1.7370    0.7320 H   0  0  0  0  0  0  0  0  0  0  0  0
   -3.0996   -3.5703    1.4326 H   0  0  0  0  0  0  0  0  0  0  0  0
   -4.8008   -3.7305    1.8897 H   0  0  0  0  0  0  0  0  0  0  0  0
   -4.2193   -2.3215    0.8314 H   0  0  0  0  0  0  0  0  0  0  0  0
   -3.1729    1.3309    5.9013 H   0  0  0  0  0  0  0  0  0  0  0  0
   -3.4382   -0.0212    7.0023 H   0  0  0  0  0  0  0  0  0  0  0  0
   -1.7476    0.3057    6.3714 H   0  0  0  0  0  0  0  0  0  0  0  0
   -1.2025    1.1239    4.6200 H   0  0  0  0  0  0  0  0  0  0  0  0
    0.1256    1.3655    2.5393 H   0  0  0  0  0  0  0  0  0  0  0  0
    1.2039   -3.4787   -0.1875 H   0  0  0  0  0  0  0  0  0  0  0  0
    2.9770   -6.3998   -0.3842 H   0  0  0  0  0  0  0  0  0  0  0  0
    1.5789   -5.5197   -1.0408 H   0  0  0  0  0  0  0  0  0  0  0  0
    2.3328   -5.0572    0.5837 H   0  0  0  0  0  0  0  0  0  0  0  0
    6.4139   -2.5294   -4.0153 H   0  0  0  0  0  0  0  0  0  0  0  0
    5.4700   -0.9948   -3.7191 H   0  0  0  0  0  0  0  0  0  0  0  0
    6.6841   -1.5044   -2.5272 H   0  0  0  0  0  0  0  0  0  0  0  0
    3.8872   -0.2259   -2.7149 H   0  0  0  0  0  0  0  0  0  0  0  0
  1  2  1  0
  2  3  2  0
  3  4  1  0
  4  5  1  0
  5  6  1  0
  4  7  2  0
  7  8  1  0
  8  9  1  0
  7 10  1  0
  2 11  1  0
 11 12  1  0
 12 13  2  0
 13 14  1  0
 14 15  1  0
 15 16  1  0
 14 17  2  0
 17 18  1  0
 18 19  1  0
 17 20  1  0
 20 21  2  0
 11 22  1  0
 22 23  1  0
 23 24  2  0
 24 25  1  0
 25 26  1  0
 26 27  1  0
 25 28  2  0
 28 29  1  0
 29 30  1  0
 28 31  1  0
 31 32  2  0
 32 33  1  0
 33 34  2  0
 10  1  2  0
 21 12  1  0
 32 23  1  0
 33  1  1  0
  3 35  1  0
  6 36  1  0
  6 37  1  0
  6 38  1  0
  9 39  1  0
  9 40  1  0
  9 41  1  0
 10 42  1  0
 11 43  1  0
 13 44  1  0
 16 45  1  0
 16 46  1  0
 16 47  1  0
 19 48  1  0
 19 49  1  0
 19 50  1  0
 20 51  1  0
 21 52  1  0
 24 53  1  0
 27 54  1  0
 27 55  1  0
 27 56  1  0
 30 57  1  0
 30 58  1  0
 30 59  1  0
 31 60  1  0
M  END
$$$$
[H]c1nc([H])c(-c2c([H])c([H])c(N([H])c3nc(-c4c([H])c([H])c([H])c([H])c4[H])nc(N([H])C4([H])C([H])([H])C([H])([H])C([H])([H])C4([H])[H])n3)c([H])c2OC([H])([H])[H])o1
     RDKit          3D

 56 60  0  0  0  0  0  0  0  0999 V2000
    4.2794   -3.0435   -2.2655 C   0  0  0  0  0  0  0  0  0  0  0  0
    4.8186   -1.9734   -1.5249 O   0  0  0  0  0  0  0  0  0  0  0  0
    3.9837   -1.0869   -0.8058 C   0  0  0  0  0  0  0  0  0  0  0  0
    2.6132   -1.2894   -0.8413 C   0  0  0  0  0  0  0  0  0  0  0  0
    1.7051   -0.4651   -0.1618 C   0  0  0  0  0  0  0  0  0  0  0  0
    0.3379   -0.7691   -0.2546 N   0  0  0  0  0  0  0  0  0  0  0  0
   -0.7710   -0.0004    0.1081 C   0  0  0  0  0  0  0  0  0  0  0  0
   -2.0212   -0.5224   -0.0706 N   0  0  0  0  0  0  0  0  0  0  0  0
   -3.1368    0.1585    0.2419 C   0  0  0  0  0  0  0  0  0  0  0  0
   -4.4367   -0.4036    0.0481 N   0  0  0  0  0  0  0  0  0  0  0  0
   -4.7127   -1.6898   -0.4751 C   0  0  0  0  0  0  0  0  0  0  0  0
   -4.1123   -2.8455    0.2895 C   0  0  0  0  0  0  0  0  0  0  0  0
   -4.5403   -4.0141   -0.6123 C   0  0  0  0  0  0  0  0  0  0  0  0
   -4.3912   -3.4637   -2.0142 C   0  0  0  0  0  0  0  0  0  0  0  0
   -4.2702   -1.9524   -1.8751 C   0  0  0  0  0  0  0  0  0  0  0  0
   -2.9806    1.3783    0.7393 N   0  0  0  0  0  0  0  0  0  0  0  0
   -1.7765    1.9703    0.9481 C   0  0  0  0  0  0  0  0  0  0  0  0
   -0.7055    1.2304    0.6126 N   0  0  0  0  0  0  0  0  0  0  0  0
   -1.6633    3.3073    1.4948 C   0  0  0  0  0  0  0  0  0  0  0  0
   -0.4179    3.8541    1.6798 C   0  0  0  0  0  0  0  0  0  0  0  0
   -0.2656    5.1452    2.2070 C   0  0  0  0  0  0  0  0  0  0  0  0
   -1.3688    5.8647    2.5393 C   0  0  0  0  0  0  0  0  0  0  0  0
   -2.6210    5.3395    2.3633 C   0  0  0  0  0  0  0  0  0  0  0  0
   -2.7640    4.0543    1.8382 C   0  0  0  0  0  0  0  0  0  0  0  0
    2.2738    0.5616    0.5451 C   0  0  0  0  0  0  0  0  0  0  0  0
    3.6288    0.7751    0.5897 C   0  0  0  0  0  0  0  0  0  0  0  0
    4.5066   -0.0591   -0.0949 C   0  0  0  0  0  0  0  0  0  0  0  0
    5.9414    0.2023   -0.0223 C   0  0  0  0  0  0  0  0  0  0  0  0
    6.9927   -0.4499   -0.5887 C   0  0  0  0  0  0  0  0  0  0  0  0
    8.1625    0.1624   -0.2364 N   0  0  0  0  0  0  0  0  0  0  0  0
    7.7961    1.1827    0.5434 C   0  0  0  0  0  0  0  0  0  0  0  0
    6.4927    1.2024    0.6662 O   0  0  0  0  0  0  0  0  0  0  0  0
    3.8450   -3.7726   -1.5616 H   0  0  0  0  0  0  0  0  0  0  0  0
    5.0440   -3.4904   -2.9117 H   0  0  0  0  0  0  0  0  0  0  0  0
    3.4728   -2.6788   -2.9656 H   0  0  0  0  0  0  0  0  0  0  0  0
    2.2629   -2.1213   -1.4228 H   0  0  0  0  0  0  0  0  0  0  0  0
    0.0899   -1.7404   -0.6617 H   0  0  0  0  0  0  0  0  0  0  0  0
   -5.2702    0.2036    0.3232 H   0  0  0  0  0  0  0  0  0  0  0  0
   -5.8244   -1.8771   -0.4482 H   0  0  0  0  0  0  0  0  0  0  0  0
   -3.0223   -2.8717    0.3018 H   0  0  0  0  0  0  0  0  0  0  0  0
   -4.5773   -2.9759    1.2830 H   0  0  0  0  0  0  0  0  0  0  0  0
   -5.6277   -4.2052   -0.4556 H   0  0  0  0  0  0  0  0  0  0  0  0
   -3.9229   -4.9044   -0.4267 H   0  0  0  0  0  0  0  0  0  0  0  0
   -3.5020   -3.8849   -2.5186 H   0  0  0  0  0  0  0  0  0  0  0  0
   -5.3188   -3.6413   -2.6224 H   0  0  0  0  0  0  0  0  0  0  0  0
   -4.9256   -1.4204   -2.6096 H   0  0  0  0  0  0  0  0  0  0  0  0
   -3.2206   -1.7077   -2.0066 H   0  0  0  0  0  0  0  0  0  0  0  0
    0.4490    3.2799    1.4146 H   0  0  0  0  0  0  0  0  0  0  0  0
    0.7054    5.5785    2.3543 H   0  0  0  0  0  0  0  0  0  0  0  0
   -1.2309    6.8748    2.9512 H   0  0  0  0  0  0  0  0  0  0  0  0
   -3.4667    5.9497    2.6422 H   0  0  0  0  0  0  0  0  0  0  0  0
   -3.7664    3.6622    1.7090 H   0  0  0  0  0  0  0  0  0  0  0  0
    1.6575    1.2414    1.1076 H   0  0  0  0  0  0  0  0  0  0  0  0
    4.0337    1.5875    1.1522 H   0  0  0  0  0  0  0  0  0  0  0  0
    7.0206   -1.3135   -1.2251 H   0  0  0  0  0  0  0  0  0  0  0  0
    8.5181    1.8671    0.9859 H   0  0  0  0  0  0  0  0  0  0  0  0
  1  2  1  0
  2  3  1  0
  3  4  2  0
  4  5  1  0
  5  6  1  0
  6  7  1  0
  7  8  2  0
  8  9  1  0
  9 10  1  0
 10 11  1  0
 11 12  1  0
 12 13  1  0
 13 14  1  0
 14 15  1  0
  9 16  2  0
 16 17  1  0
 17 18  2  0
 17 19  1  0
 19 20  2  0
 20 21  1  0
 21 22  2  0
 22 23  1  0
 23 24  2  0
  5 25  2  0
 25 26  1  0
 26 27  2  0
 27 28  1  0
 28 29  2  0
 29 30  1  0
 30 31  2  0
 31 32  1  0
 27  3  1  0
 32 28  1  0
 18  7  1  0
 24 19  1  0
 15 11  1  0
  1 33  1  0
  1 34  1  0
  1 35  1  0
  4 36  1  0
  6 37  1  0
 10 38  1  0
 11 39  1  0
 12 40  1  0
 12 41  1  0
 13 42  1  0
 13 43  1  0
 14 44  1  0
 14 45  1  0
 15 46  1  0
 15 47  1  0
 20 48  1  0
 21 49  1  0
 22 50  1  0
 23 51  1  0
 24 52  1  0
 25 53  1  0
 26 54  1  0
 29 55  1  0
 31 56  1  0
M  END
$$$$
[H]N=C(N([H])[H])N([H])C([H])([H])C([H])([H])C([H])([H])[C@]([H])(C(=O)N([H])[H])N([H])C(=O)[C@@]1([H])N(C(=O)[C@@]([H])(N([H])C(=O)OC([H])([H])c2c([H])c([H])c([H])c([H])c2[H])C([H])([H])c2c([H])c([H])c([H])c([H])c2[H])C([H])([H])C([H])([H])C1([H])[H]
     RDKit          3D

 77 79  0  0  0  0  0  0  0  0999 V2000
    6.3747    3.4693    0.3582 N   0  0  0  0  0  0  0  0  0  0  0  0
    7.3088    2.4946    0.7763 C   0  0  0  0  0  0  0  0  0  0  0  0
    8.5622    2.7550    0.7735 N   0  0  0  0  0  0  0  0  0  0  0  0
    6.8632    1.2280    1.1996 N   0  0  0  0  0  0  0  0  0  0  0  0
    5.5316    0.7381    0.7465 C   0  0  0  0  0  0  0  0  0  0  0  0
    5.6893    0.5080   -0.7187 C   0  0  0  0  0  0  0  0  0  0  0  0
    4.5420   -0.0334   -1.4448 C   0  0  0  0  0  0  0  0  0  0  0  0
    3.2548    0.7112   -1.5334 C   0  0  1  0  0  0  0  0  0  0  0  0
    2.6048    0.9712   -0.2984 N   0  0  0  0  0  0  0  0  0  0  0  0
    1.5543    0.1466    0.2212 C   0  0  0  0  0  0  0  0  0  0  0  0
    1.2144   -0.8391   -0.4670 O   0  0  0  0  0  0  0  0  0  0  0  0
    0.8737    0.4067    1.5037 C   0  0  2  0  0  0  0  0  0  0  0  0
    1.7855    0.2082    2.6837 C   0  0  0  0  0  0  0  0  0  0  0  0
    1.5688   -1.2059    3.1433 C   0  0  0  0  0  0  0  0  0  0  0  0
    0.5375   -1.7716    2.2070 C   0  0  0  0  0  0  0  0  0  0  0  0
   -0.1324   -0.6118    1.6937 N   0  0  0  0  0  0  0  0  0  0  0  0
   -1.5230   -0.3890    1.4092 C   0  0  0  0  0  0  0  0  0  0  0  0
   -1.8660    0.7730    1.0214 O   0  0  0  0  0  0  0  0  0  0  0  0
   -2.5635   -1.4507    1.5505 C   0  0  2  0  0  0  0  0  0  0  0  0
   -2.2541   -2.6246    0.6876 C   0  0  0  0  0  0  0  0  0  0  0  0
   -3.2209   -3.7416    0.7745 C   0  0  0  0  0  0  0  0  0  0  0  0
   -3.0955   -4.7121    1.7810 C   0  0  0  0  0  0  0  0  0  0  0  0
   -3.9681   -5.7679    1.8712 C   0  0  0  0  0  0  0  0  0  0  0  0
   -5.0056   -5.9327    0.9874 C   0  0  0  0  0  0  0  0  0  0  0  0
   -5.1459   -4.9925   -0.0072 C   0  0  0  0  0  0  0  0  0  0  0  0
   -4.2574   -3.9139   -0.1027 C   0  0  0  0  0  0  0  0  0  0  0  0
   -3.8604   -0.8841    1.2517 N   0  0  0  0  0  0  0  0  0  0  0  0
   -4.2824   -0.3126    0.0464 C   0  0  0  0  0  0  0  0  0  0  0  0
   -3.5203   -0.2500   -0.9380 O   0  0  0  0  0  0  0  0  0  0  0  0
   -5.5525    0.2052   -0.1100 O   0  0  0  0  0  0  0  0  0  0  0  0
   -6.0580    0.7963   -1.2789 C   0  0  0  0  0  0  0  0  0  0  0  0
   -5.3038    1.9919   -1.7217 C   0  0  0  0  0  0  0  0  0  0  0  0
   -4.4391    2.0343   -2.7838 C   0  0  0  0  0  0  0  0  0  0  0  0
   -3.7567    3.1659   -3.1587 C   0  0  0  0  0  0  0  0  0  0  0  0
   -3.9564    4.3118   -2.4262 C   0  0  0  0  0  0  0  0  0  0  0  0
   -4.8236    4.3365   -1.3330 C   0  0  0  0  0  0  0  0  0  0  0  0
   -5.4745    3.1719   -1.0109 C   0  0  0  0  0  0  0  0  0  0  0  0
    3.3566    1.9257   -2.3949 C   0  0  0  0  0  0  0  0  0  0  0  0
    3.9742    1.8126   -3.6612 N   0  0  0  0  0  0  0  0  0  0  0  0
    2.9173    3.0479   -2.0467 O   0  0  0  0  0  0  0  0  0  0  0  0
    6.5587    4.0598   -0.4784 H   0  0  0  0  0  0  0  0  0  0  0  0
    5.4943    3.5874    0.9027 H   0  0  0  0  0  0  0  0  0  0  0  0
    8.9563    3.6853    0.4678 H   0  0  0  0  0  0  0  0  0  0  0  0
    7.3925    0.5814    1.8183 H   0  0  0  0  0  0  0  0  0  0  0  0
    4.8448    1.5401    1.0294 H   0  0  0  0  0  0  0  0  0  0  0  0
    5.2757   -0.2138    1.2517 H   0  0  0  0  0  0  0  0  0  0  0  0
    6.5387   -0.2411   -0.8195 H   0  0  0  0  0  0  0  0  0  0  0  0
    6.1294    1.4262   -1.2140 H   0  0  0  0  0  0  0  0  0  0  0  0
    4.8586   -0.3883   -2.4932 H   0  0  0  0  0  0  0  0  0  0  0  0
    4.2614   -1.0421   -0.9663 H   0  0  0  0  0  0  0  0  0  0  0  0
    2.5969    0.0009   -2.1739 H   0  0  0  0  0  0  0  0  0  0  0  0
    2.8372    1.7979    0.2693 H   0  0  0  0  0  0  0  0  0  0  0  0
    0.4124    1.4329    1.5176 H   0  0  0  0  0  0  0  0  0  0  0  0
    1.5268    0.9597    3.4531 H   0  0  0  0  0  0  0  0  0  0  0  0
    2.8487    0.3903    2.3733 H   0  0  0  0  0  0  0  0  0  0  0  0
    2.5109   -1.7741    3.0065 H   0  0  0  0  0  0  0  0  0  0  0  0
    1.2817   -1.2865    4.2112 H   0  0  0  0  0  0  0  0  0  0  0  0
    1.0382   -2.3744    1.4142 H   0  0  0  0  0  0  0  0  0  0  0  0
   -0.1649   -2.4568    2.7511 H   0  0  0  0  0  0  0  0  0  0  0  0
   -2.5694   -1.7130    2.6409 H   0  0  0  0  0  0  0  0  0  0  0  0
   -2.3249   -2.2736   -0.3909 H   0  0  0  0  0  0  0  0  0  0  0  0
   -1.2555   -3.0471    0.7630 H   0  0  0  0  0  0  0  0  0  0  0  0
   -2.2719   -4.5652    2.4665 H   0  0  0  0  0  0  0  0  0  0  0  0
   -3.8408   -6.4883    2.6522 H   0  0  0  0  0  0  0  0  0  0  0  0
   -5.7033   -6.7574    1.0414 H   0  0  0  0  0  0  0  0  0  0  0  0
   -5.9651   -5.1044   -0.7213 H   0  0  0  0  0  0  0  0  0  0  0  0
   -4.3981   -3.2144   -0.8995 H   0  0  0  0  0  0  0  0  0  0  0  0
   -4.6005   -0.8917    2.0273 H   0  0  0  0  0  0  0  0  0  0  0  0
   -6.0594    0.0339   -2.0928 H   0  0  0  0  0  0  0  0  0  0  0  0
   -7.1153    1.0817   -1.1457 H   0  0  0  0  0  0  0  0  0  0  0  0
   -4.2842    1.1309   -3.3587 H   0  0  0  0  0  0  0  0  0  0  0  0
   -3.0746    3.2114   -3.9913 H   0  0  0  0  0  0  0  0  0  0  0  0
   -3.4375    5.1972   -2.7018 H   0  0  0  0  0  0  0  0  0  0  0  0
   -4.9759    5.2564   -0.7536 H   0  0  0  0  0  0  0  0  0  0  0  0
   -6.1505    3.1702   -0.1682 H   0  0  0  0  0  0  0  0  0  0  0  0
    4.8973    2.2233   -3.8893 H   0  0  0  0  0  0  0  0  0  0  0  0
    3.4773    1.2889   -4.4104 H   0  0  0  0  0  0  0  0  0  0  0  0
  1  2  1  0
  2  3  2  3
  2  4  1  0
  4  5  1  0
  5  6  1  0
  6  7  1  0
  7  8  1  0
  8  9  1  0
  9 10  1  0
 10 11  2  0
 10 12  1  0
 12 13  1  0
 13 14  1  0
 14 15  1  0
 15 16  1  0
 16 17  1  0
 17 18  2  0
 17 19  1  0
 19 20  1  0
 20 21  1  0
 21 22  2  0
 22 23  1  0
 23 24  2  0
 24 25  1  0
 25 26  2  0
 19 27  1  0
 27 28  1  0
 28 29  2  0
 28 30  1  0
 30 31  1  0
 31 32  1  0
 32 33  2  0
 33 34  1  0
 34 35  2  0
 35 36  1  0
 36 37  2  0
  8 38  1  0
 38 39  1  0
 38 40  2  0
 16 12  1  0
 26 21  1  0
 37 32  1  0
  1 41  1  0
  1 42  1  0
  3 43  1  0
  4 44  1  0
  5 45  1  0
  5 46  1  0
  6 47  1  0
  6 48  1  0
  7 49  1  0
  7 50  1  0
  8 51  1  6
  9 52  1  0
 12 53  1  6
 13 54  1  0
 13 55  1  0
 14 56  1  0
 14 57  1  0
 15 58  1  0
 15 59  1  0
 19 60  1  1
 20 61  1  0
 20 62  1  0
 22 63  1  0
 23 64  1  0
 24 65  1  0
 25 66  1  0
 26 67  1  0
 27 68  1  0
 31 69  1  0
 31 70  1  0
 33 71  1  0
 34 72  1  0
 35 73  1  0
 36 74  1  0
 37 75  1  0
 39 76  1  0
 39 77  1  0
M  END
$$$$
[H]c1c([H])c(C(F)(F)F)c([H])c([H])c1-c1nc(N2C([H])([H])C([H])([H])C([H])(N3C([H])([H])C([H])([H])OC([H])([H])C3([H])[H])C([H])([H])C2([H])[H])nc(N2C([H])([H])C([H])([H])C([H])(N3C([H])([H])C([H])([H])N(C([H])([H])[H])C([H])([H])C3([H])[H])C([H])([H])C2([H])[H])n1
     RDKit          3D

 82 87  0  0  0  0  0  0  0  0999 V2000
    1.2333    6.7815   -0.2458 C   0  0  0  0  0  0  0  0  0  0  0  0
    1.4127    8.2552   -0.2680 C   0  0  0  0  0  0  0  0  0  0  0  0
    1.0966    8.8647    0.9016 F   0  0  0  0  0  0  0  0  0  0  0  0
    0.6596    8.7541   -1.3507 F   0  0  0  0  0  0  0  0  0  0  0  0
    2.7358    8.4681   -0.6512 F   0  0  0  0  0  0  0  0  0  0  0  0
    0.7323    6.1470    0.8637 C   0  0  0  0  0  0  0  0  0  0  0  0
    0.5973    4.7689    0.8166 C   0  0  0  0  0  0  0  0  0  0  0  0
    0.9383    4.0141   -0.2705 C   0  0  0  0  0  0  0  0  0  0  0  0
    0.7349    2.5854   -0.3517 C   0  0  0  0  0  0  0  0  0  0  0  0
   -0.4925    2.0006   -0.4534 N   0  0  0  0  0  0  0  0  0  0  0  0
   -0.6053    0.6757   -0.4723 C   0  0  0  0  0  0  0  0  0  0  0  0
   -1.8971    0.0666   -0.6647 N   0  0  0  0  0  0  0  0  0  0  0  0
   -3.0095    0.8191   -1.1343 C   0  0  0  0  0  0  0  0  0  0  0  0
   -4.2677    0.4494   -0.3999 C   0  0  0  0  0  0  0  0  0  0  0  0
   -4.4073   -1.0564   -0.4509 C   0  0  0  0  0  0  0  0  0  0  0  0
   -5.6547   -1.5862   -0.0857 N   0  0  0  0  0  0  0  0  0  0  0  0
   -6.0849   -1.3540    1.2437 C   0  0  0  0  0  0  0  0  0  0  0  0
   -7.2948   -0.5147    1.4030 C   0  0  0  0  0  0  0  0  0  0  0  0
   -8.2533   -0.6259    0.3508 N   0  0  0  0  0  0  0  0  0  0  0  0
   -9.1842   -1.7220    0.5406 C   0  0  0  0  0  0  0  0  0  0  0  0
   -7.7176   -0.5872   -0.9794 C   0  0  0  0  0  0  0  0  0  0  0  0
   -6.6466   -1.6249   -1.1040 C   0  0  0  0  0  0  0  0  0  0  0  0
   -3.2544   -1.5933    0.4186 C   0  0  0  0  0  0  0  0  0  0  0  0
   -2.0151   -1.3545   -0.3920 C   0  0  0  0  0  0  0  0  0  0  0  0
    0.4807   -0.0864   -0.3862 N   0  0  0  0  0  0  0  0  0  0  0  0
    1.7312    0.4357   -0.2799 C   0  0  0  0  0  0  0  0  0  0  0  0
    2.8653   -0.4346   -0.2043 N   0  0  0  0  0  0  0  0  0  0  0  0
    2.6533   -1.7620   -0.7578 C   0  0  0  0  0  0  0  0  0  0  0  0
    3.6890   -2.7685   -0.4374 C   0  0  0  0  0  0  0  0  0  0  0  0
    4.8215   -2.2553    0.3848 C   0  0  0  0  0  0  0  0  0  0  0  0
    5.9256   -3.2008    0.4077 N   0  0  0  0  0  0  0  0  0  0  0  0
    6.8117   -2.8182    1.4622 C   0  0  0  0  0  0  0  0  0  0  0  0
    8.2716   -3.0075    1.1413 C   0  0  0  0  0  0  0  0  0  0  0  0
    8.3473   -4.2193    0.4218 O   0  0  0  0  0  0  0  0  0  0  0  0
    7.9050   -3.9445   -0.8587 C   0  0  0  0  0  0  0  0  0  0  0  0
    6.5411   -3.2857   -0.8905 C   0  0  0  0  0  0  0  0  0  0  0  0
    5.1906   -0.8870   -0.0595 C   0  0  0  0  0  0  0  0  0  0  0  0
    4.0626    0.0458    0.4009 C   0  0  0  0  0  0  0  0  0  0  0  0
    1.8043    1.7703   -0.2688 N   0  0  0  0  0  0  0  0  0  0  0  0
    1.4485    4.7158   -1.3778 C   0  0  0  0  0  0  0  0  0  0  0  0
    1.5961    6.0777   -1.3727 C   0  0  0  0  0  0  0  0  0  0  0  0
    0.4462    6.6800    1.7587 H   0  0  0  0  0  0  0  0  0  0  0  0
    0.2001    4.3232    1.7367 H   0  0  0  0  0  0  0  0  0  0  0  0
   -3.1498    0.4951   -2.2146 H   0  0  0  0  0  0  0  0  0  0  0  0
   -2.8134    1.9096   -1.1152 H   0  0  0  0  0  0  0  0  0  0  0  0
   -4.1921    0.7484    0.6425 H   0  0  0  0  0  0  0  0  0  0  0  0
   -5.1037    0.9371   -0.9455 H   0  0  0  0  0  0  0  0  0  0  0  0
   -4.1642   -1.3647   -1.4839 H   0  0  0  0  0  0  0  0  0  0  0  0
   -5.2336   -0.8252    1.7709 H   0  0  0  0  0  0  0  0  0  0  0  0
   -6.1458   -2.3351    1.7616 H   0  0  0  0  0  0  0  0  0  0  0  0
   -7.7986   -0.8224    2.3495 H   0  0  0  0  0  0  0  0  0  0  0  0
   -7.0033    0.5575    1.5637 H   0  0  0  0  0  0  0  0  0  0  0  0
   -9.7628   -1.7931   -0.4159 H   0  0  0  0  0  0  0  0  0  0  0  0
   -8.6170   -2.6476    0.6903 H   0  0  0  0  0  0  0  0  0  0  0  0
   -9.8924   -1.4767    1.3515 H   0  0  0  0  0  0  0  0  0  0  0  0
   -8.5602   -0.9011   -1.6623 H   0  0  0  0  0  0  0  0  0  0  0  0
   -7.4294    0.4196   -1.2918 H   0  0  0  0  0  0  0  0  0  0  0  0
   -7.1341   -2.6183   -1.1229 H   0  0  0  0  0  0  0  0  0  0  0  0
   -6.1409   -1.5205   -2.0922 H   0  0  0  0  0  0  0  0  0  0  0  0
   -3.4380   -2.6416    0.6489 H   0  0  0  0  0  0  0  0  0  0  0  0
   -3.1531   -0.9551    1.3384 H   0  0  0  0  0  0  0  0  0  0  0  0
   -2.0799   -1.9447   -1.3395 H   0  0  0  0  0  0  0  0  0  0  0  0
   -1.1290   -1.7332    0.1695 H   0  0  0  0  0  0  0  0  0  0  0  0
    2.4238   -1.7023   -1.8573 H   0  0  0  0  0  0  0  0  0  0  0  0
    1.6826   -2.1085   -0.2855 H   0  0  0  0  0  0  0  0  0  0  0  0
    4.0282   -3.1958   -1.4326 H   0  0  0  0  0  0  0  0  0  0  0  0
    3.2669   -3.6776    0.0918 H   0  0  0  0  0  0  0  0  0  0  0  0
    4.4483   -2.2183    1.4442 H   0  0  0  0  0  0  0  0  0  0  0  0
    6.6769   -1.8062    1.8471 H   0  0  0  0  0  0  0  0  0  0  0  0
    6.5853   -3.5104    2.3274 H   0  0  0  0  0  0  0  0  0  0  0  0
    8.6092   -2.1738    0.5022 H   0  0  0  0  0  0  0  0  0  0  0  0
    8.8438   -3.1140    2.0880 H   0  0  0  0  0  0  0  0  0  0  0  0
    7.9307   -4.9064   -1.4294 H   0  0  0  0  0  0  0  0  0  0  0  0
    8.5842   -3.2379   -1.4210 H   0  0  0  0  0  0  0  0  0  0  0  0
    5.8834   -3.9627   -1.5102 H   0  0  0  0  0  0  0  0  0  0  0  0
    6.5447   -2.3076   -1.4126 H   0  0  0  0  0  0  0  0  0  0  0  0
    5.1651   -0.8071   -1.1802 H   0  0  0  0  0  0  0  0  0  0  0  0
    6.1753   -0.5167    0.2738 H   0  0  0  0  0  0  0  0  0  0  0  0
    3.9779   -0.1036    1.5093 H   0  0  0  0  0  0  0  0  0  0  0  0
    4.2653    1.0982    0.1730 H   0  0  0  0  0  0  0  0  0  0  0  0
    1.7212    4.1743   -2.2769 H   0  0  0  0  0  0  0  0  0  0  0  0
    1.9809    6.5781   -2.2354 H   0  0  0  0  0  0  0  0  0  0  0  0
  1  2  1  0
  2  3  1  0
  2  4  1  0
  2  5  1  0
  1  6  2  0
  6  7  1  0
  7  8  2  0
  8  9  1  0
  9 10  2  0
 10 11  1  0
 11 12  1  0
 12 13  1  0
 13 14  1  0
 14 15  1  0
 15 16  1  0
 16 17  1  0
 17 18  1  0
 18 19  1  0
 19 20  1  0
 19 21  1  0
 21 22  1  0
 15 23  1  0
 23 24  1  0
 11 25  2  0
 25 26  1  0
 26 27  1  0
 27 28  1  0
 28 29  1  0
 29 30  1  0
 30 31  1  0
 31 32  1  0
 32 33  1  0
 33 34  1  0
 34 35  1  0
 35 36  1  0
 30 37  1  0
 37 38  1  0
 26 39  2  0
  8 40  1  0
 40 41  2  0
 41  1  1  0
 39  9  1  0
 24 12  1  0
 38 27  1  0
 22 16  1  0
 36 31  1  0
  6 42  1  0
  7 43  1  0
 13 44  1  0
 13 45  1  0
 14 46  1  0
 14 47  1  0
 15 48  1  0
 17 49  1  0
 17 50  1  0
 18 51  1  0
 18 52  1  0
 20 53  1  0
 20 54  1  0
 20 55  1  0
 21 56  1  0
 21 57  1  0
 22 58  1  0
 22 59  1  0
 23 60  1  0
 23 61  1  0
 24 62  1  0
 24 63  1  0
 28 64  1  0
 28 65  1  0
 29 66  1  0
 29 67  1  0
 30 68  1  0
 32 69  1  0
 32 70  1  0
 33 71  1  0
 33 72  1  0
 35 73  1  0
 35 74  1  0
 36 75  1  0
 36 76  1  0
 37 77  1  0
 37 78  1  0
 38 79  1  0
 38 80  1  0
 40 81  1  0
 41 82  1  0
M  END
$$$$
[H]c1c([H])c(N([H])c2nn(C([H])([H])C3([H])C([H])([H])C3([H])[H])c3c2C([H])([H])N(C(=O)C([H])([H])[H])C([H])([H])C3([H])[H])c([H])c(S(=O)(=O)C([H])([H])[H])c1[H]
     RDKit          3D

 51 54  0  0  0  0  0  0  0  0999 V2000
   -1.3888    4.9037    0.9084 C   0  0  0  0  0  0  0  0  0  0  0  0
   -2.4817    3.9645    1.3216 C   0  0  0  0  0  0  0  0  0  0  0  0
   -3.4282    4.4745    2.0166 O   0  0  0  0  0  0  0  0  0  0  0  0
   -2.4651    2.5948    0.9625 N   0  0  0  0  0  0  0  0  0  0  0  0
   -3.5543    1.7786    1.4032 C   0  0  0  0  0  0  0  0  0  0  0  0
   -3.6219    0.4491    0.6940 C   0  0  0  0  0  0  0  0  0  0  0  0
   -2.2632   -0.1833    0.5702 C   0  0  0  0  0  0  0  0  0  0  0  0
   -1.1896    0.6497    0.3301 C   0  0  0  0  0  0  0  0  0  0  0  0
   -1.3540    2.1196    0.1795 C   0  0  0  0  0  0  0  0  0  0  0  0
   -0.0722   -0.1743    0.2796 C   0  0  0  0  0  0  0  0  0  0  0  0
    1.2428    0.2999    0.0357 N   0  0  0  0  0  0  0  0  0  0  0  0
    2.4134   -0.4855   -0.0112 C   0  0  0  0  0  0  0  0  0  0  0  0
    2.5097   -1.7671    0.4473 C   0  0  0  0  0  0  0  0  0  0  0  0
    3.7230   -2.4828    0.3387 C   0  0  0  0  0  0  0  0  0  0  0  0
    4.8438   -1.9221   -0.2270 C   0  0  0  0  0  0  0  0  0  0  0  0
    4.7250   -0.6232   -0.6844 C   0  0  0  0  0  0  0  0  0  0  0  0
    3.5503    0.0883   -0.5866 C   0  0  0  0  0  0  0  0  0  0  0  0
    6.1447    0.1201   -1.4134 S   0  0  0  0  0  0  0  0  0  0  0  0
    7.1032    0.9453   -0.1637 C   0  0  0  0  0  0  0  0  0  0  0  0
    6.9658   -0.9171   -2.1213 O   0  0  0  0  0  0  0  0  0  0  0  0
    5.6640    1.1098   -2.4449 O   0  0  0  0  0  0  0  0  0  0  0  0
   -0.5317   -1.4219    0.4873 N   0  0  0  0  0  0  0  0  0  0  0  0
   -1.8409   -1.4548    0.6638 N   0  0  0  0  0  0  0  0  0  0  0  0
   -2.6742   -2.6052    0.8923 C   0  0  0  0  0  0  0  0  0  0  0  0
   -3.1418   -3.3354   -0.3078 C   0  0  0  0  0  0  0  0  0  0  0  0
   -3.9748   -2.7356   -1.3952 C   0  0  0  0  0  0  0  0  0  0  0  0
   -4.6583   -3.5495   -0.3614 C   0  0  0  0  0  0  0  0  0  0  0  0
   -0.6916    5.0762    1.7339 H   0  0  0  0  0  0  0  0  0  0  0  0
   -0.8666    4.5540   -0.0080 H   0  0  0  0  0  0  0  0  0  0  0  0
   -1.9123    5.8679    0.6418 H   0  0  0  0  0  0  0  0  0  0  0  0
   -3.4529    1.6142    2.5009 H   0  0  0  0  0  0  0  0  0  0  0  0
   -4.4936    2.3300    1.1844 H   0  0  0  0  0  0  0  0  0  0  0  0
   -4.3238   -0.1844    1.2415 H   0  0  0  0  0  0  0  0  0  0  0  0
   -4.0427    0.6165   -0.3215 H   0  0  0  0  0  0  0  0  0  0  0  0
   -0.4413    2.6513    0.5799 H   0  0  0  0  0  0  0  0  0  0  0  0
   -1.4589    2.3325   -0.8992 H   0  0  0  0  0  0  0  0  0  0  0  0
    1.3325    1.3467   -0.1203 H   0  0  0  0  0  0  0  0  0  0  0  0
    1.6727   -2.2614    0.9121 H   0  0  0  0  0  0  0  0  0  0  0  0
    3.7689   -3.4878    0.7071 H   0  0  0  0  0  0  0  0  0  0  0  0
    5.7762   -2.4403   -0.3226 H   0  0  0  0  0  0  0  0  0  0  0  0
    3.4701    1.1148   -0.9533 H   0  0  0  0  0  0  0  0  0  0  0  0
    6.5693    0.9856    0.8019 H   0  0  0  0  0  0  0  0  0  0  0  0
    7.3304    1.9812   -0.4764 H   0  0  0  0  0  0  0  0  0  0  0  0
    8.0775    0.4176   -0.0226 H   0  0  0  0  0  0  0  0  0  0  0  0
   -2.0483   -3.3333    1.4955 H   0  0  0  0  0  0  0  0  0  0  0  0
   -3.5253   -2.3797    1.5743 H   0  0  0  0  0  0  0  0  0  0  0  0
   -2.5959   -4.2838   -0.5752 H   0  0  0  0  0  0  0  0  0  0  0  0
   -3.8431   -3.1768   -2.4242 H   0  0  0  0  0  0  0  0  0  0  0  0
   -4.1911   -1.6610   -1.4633 H   0  0  0  0  0  0  0  0  0  0  0  0
   -5.2903   -3.0135    0.3718 H   0  0  0  0  0  0  0  0  0  0  0  0
   -5.0648   -4.5069   -0.6870 H   0  0  0  0  0  0  0  0  0  0  0  0
  1  2  1  0
  2  3  2  0
  2  4  1  0
  4  5  1  0
  5  6  1  0
  6  7  1  0
  7  8  2  0
  8  9  1  0
  8 10  1  0
 10 11  1  0
 11 12  1  0
 12 13  2  0
 13 14  1  0
 14 15  2  0
 15 16  1  0
 16 17  2  0
 16 18  1  0
 18 19  1  0
 18 20  2  0
 18 21  2  0
 10 22  2  0
 22 23  1  0
 23 24  1  0
 24 25  1  0
 25 26  1  0
 26 27  1  0
  9  4  1  0
 17 12  1  0
 27 25  1  0
 23  7  1  0
  1 28  1  0
  1 29  1  0
  1 30  1  0
  5 31  1  0
  5 32  1  0
  6 33  1  0
  6 34  1  0
  9 35  1  0
  9 36  1  0
 11 37  1  0
 13 38  1  0
 14 39  1  0
 15 40  1  0
 17 41  1  0
 19 42  1  0
 19 43  1  0
 19 44  1  0
 24 45  1  0
 24 46  1  0
 25 47  1  0
 26 48  1  0
 26 49  1  0
 27 50  1  0
 27 51  1  0
M  END
$$$$
[H]Oc1c([H])c([H])c([H])c([C@]([H])(c2c([H])c([H])c([H])c([H])c2[H])N([H])C(=O)[C@@]([H])(c2c([H])c([H])c([H])c([H])c2[H])N([H])C(=O)c2c([H])c([H])c([H])c(C([H])(O[H])C(=O)N([H])C([H])([H])C([H])([H])OC([H])([H])[H])c2[H])c1[H]
     RDKit          3D

 75 78  0  0  0  0  0  0  0  0999 V2000
   10.7340   -0.6722   -1.1961 C   0  0  0  0  0  0  0  0  0  0  0  0
   10.3413   -1.5051   -2.2219 O   0  0  0  0  0  0  0  0  0  0  0  0
    9.0306   -1.9414   -2.1540 C   0  0  0  0  0  0  0  0  0  0  0  0
    8.0448   -0.7928   -2.1786 C   0  0  0  0  0  0  0  0  0  0  0  0
    6.6822   -1.2608   -2.1110 N   0  0  0  0  0  0  0  0  0  0  0  0
    5.6010   -0.3439   -2.0993 C   0  0  0  0  0  0  0  0  0  0  0  0
    5.7687    0.9074   -2.1466 O   0  0  0  0  0  0  0  0  0  0  0  0
    4.1929   -0.8249   -2.0258 C   0  0  0  0  0  0  0  0  0  0  0  0
    4.2295   -2.2430   -2.1124 O   0  0  0  0  0  0  0  0  0  0  0  0
    3.6429   -0.5746   -0.6583 C   0  0  0  0  0  0  0  0  0  0  0  0
    4.2048   -1.2590    0.4147 C   0  0  0  0  0  0  0  0  0  0  0  0
    3.7221   -1.0888    1.6984 C   0  0  0  0  0  0  0  0  0  0  0  0
    2.6780   -0.2389    1.9264 C   0  0  0  0  0  0  0  0  0  0  0  0
    2.1109    0.4432    0.8878 C   0  0  0  0  0  0  0  0  0  0  0  0
    2.5959    0.2718   -0.3913 C   0  0  0  0  0  0  0  0  0  0  0  0
    0.9325    1.3323    1.1421 C   0  0  0  0  0  0  0  0  0  0  0  0
    1.0826    2.5240    0.7983 O   0  0  0  0  0  0  0  0  0  0  0  0
   -0.2231    0.7880    1.7274 N   0  0  0  0  0  0  0  0  0  0  0  0
   -1.3939    1.5442    2.0180 C   0  0  1  0  0  0  0  0  0  0  0  0
   -2.2732    1.4859    0.8155 C   0  0  0  0  0  0  0  0  0  0  0  0
   -1.6670    1.7394   -0.2756 O   0  0  0  0  0  0  0  0  0  0  0  0
   -3.6252    1.1897    0.7806 N   0  0  0  0  0  0  0  0  0  0  0  0
   -4.4271    1.1840   -0.4486 C   0  0  1  0  0  0  0  0  0  0  0  0
   -3.8753    0.1382   -1.3899 C   0  0  0  0  0  0  0  0  0  0  0  0
   -3.7568    0.5137   -2.7239 C   0  0  0  0  0  0  0  0  0  0  0  0
   -3.2635   -0.3492   -3.6683 C   0  0  0  0  0  0  0  0  0  0  0  0
   -2.8847   -1.6088   -3.2534 C   0  0  0  0  0  0  0  0  0  0  0  0
   -2.9937   -2.0006   -1.9334 C   0  0  0  0  0  0  0  0  0  0  0  0
   -3.4964   -1.1052   -1.0123 C   0  0  0  0  0  0  0  0  0  0  0  0
   -5.8347    0.9827   -0.2079 C   0  0  0  0  0  0  0  0  0  0  0  0
   -6.2364    0.0365    0.7183 C   0  0  0  0  0  0  0  0  0  0  0  0
   -7.5743   -0.1951    0.9477 C   0  0  0  0  0  0  0  0  0  0  0  0
   -8.5661    0.4890    0.2782 C   0  0  0  0  0  0  0  0  0  0  0  0
   -8.1545    1.4278   -0.6402 C   0  0  0  0  0  0  0  0  0  0  0  0
   -9.1258    2.1351   -1.3303 O   0  0  0  0  0  0  0  0  0  0  0  0
   -6.8006    1.6754   -0.8836 C   0  0  0  0  0  0  0  0  0  0  0  0
   -1.9818    1.1639    3.2798 C   0  0  0  0  0  0  0  0  0  0  0  0
   -2.3787    2.1597    4.1487 C   0  0  0  0  0  0  0  0  0  0  0  0
   -2.9285    1.8407    5.3630 C   0  0  0  0  0  0  0  0  0  0  0  0
   -3.1006    0.5312    5.7496 C   0  0  0  0  0  0  0  0  0  0  0  0
   -2.6996   -0.4530    4.8718 C   0  0  0  0  0  0  0  0  0  0  0  0
   -2.1463   -0.1502    3.6504 C   0  0  0  0  0  0  0  0  0  0  0  0
   10.6395   -1.1356   -0.1905 H   0  0  0  0  0  0  0  0  0  0  0  0
   11.8292   -0.4634   -1.3166 H   0  0  0  0  0  0  0  0  0  0  0  0
   10.1755    0.2810   -1.2426 H   0  0  0  0  0  0  0  0  0  0  0  0
    8.8919   -2.4840   -1.1724 H   0  0  0  0  0  0  0  0  0  0  0  0
    8.8199   -2.6447   -2.9816 H   0  0  0  0  0  0  0  0  0  0  0  0
    8.2134   -0.0613   -1.3781 H   0  0  0  0  0  0  0  0  0  0  0  0
    8.1771   -0.2526   -3.1563 H   0  0  0  0  0  0  0  0  0  0  0  0
    6.4758   -2.2779   -2.0699 H   0  0  0  0  0  0  0  0  0  0  0  0
    3.5639   -0.4185   -2.8122 H   0  0  0  0  0  0  0  0  0  0  0  0
    3.8131   -2.5314   -2.9849 H   0  0  0  0  0  0  0  0  0  0  0  0
    5.0442   -1.9330    0.1783 H   0  0  0  0  0  0  0  0  0  0  0  0
    4.1849   -1.6349    2.5106 H   0  0  0  0  0  0  0  0  0  0  0  0
    2.3108   -0.1159    2.9270 H   0  0  0  0  0  0  0  0  0  0  0  0
    2.1446    0.8197   -1.2096 H   0  0  0  0  0  0  0  0  0  0  0  0
   -0.2178   -0.2507    1.9692 H   0  0  0  0  0  0  0  0  0  0  0  0
   -1.0241    2.6436    2.0679 H   0  0  0  0  0  0  0  0  0  0  0  0
   -4.1424    0.9503    1.6490 H   0  0  0  0  0  0  0  0  0  0  0  0
   -4.1956    2.1315   -0.9423 H   0  0  0  0  0  0  0  0  0  0  0  0
   -4.0560    1.5037   -3.0396 H   0  0  0  0  0  0  0  0  0  0  0  0
   -3.1774   -0.0430   -4.7156 H   0  0  0  0  0  0  0  0  0  0  0  0
   -2.4810   -2.3353   -3.9701 H   0  0  0  0  0  0  0  0  0  0  0  0
   -2.7047   -2.9782   -1.5811 H   0  0  0  0  0  0  0  0  0  0  0  0
   -3.5968   -1.3825    0.0528 H   0  0  0  0  0  0  0  0  0  0  0  0
   -5.5394   -0.5594    1.3010 H   0  0  0  0  0  0  0  0  0  0  0  0
   -7.8857   -0.9444    1.6813 H   0  0  0  0  0  0  0  0  0  0  0  0
   -9.6266    0.2980    0.4653 H   0  0  0  0  0  0  0  0  0  0  0  0
   -9.5190    1.8337   -2.2050 H   0  0  0  0  0  0  0  0  0  0  0  0
   -6.5839    2.4455   -1.6413 H   0  0  0  0  0  0  0  0  0  0  0  0
   -2.2707    3.2140    3.9001 H   0  0  0  0  0  0  0  0  0  0  0  0
   -3.2496    2.6298    6.0669 H   0  0  0  0  0  0  0  0  0  0  0  0
   -3.5462    0.2896    6.7292 H   0  0  0  0  0  0  0  0  0  0  0  0
   -2.8159   -1.5157    5.1361 H   0  0  0  0  0  0  0  0  0  0  0  0
   -1.8380   -0.9744    2.9742 H   0  0  0  0  0  0  0  0  0  0  0  0
  1  2  1  0
  2  3  1  0
  3  4  1  0
  4  5  1  0
  5  6  1  0
  6  7  2  0
  6  8  1  0
  8  9  1  0
  8 10  1  0
 10 11  2  0
 11 12  1  0
 12 13  2  0
 13 14  1  0
 14 15  2  0
 14 16  1  0
 16 17  2  0
 16 18  1  0
 18 19  1  0
 19 20  1  0
 20 21  2  0
 20 22  1  0
 22 23  1  0
 23 24  1  0
 24 25  2  0
 25 26  1  0
 26 27  2  0
 27 28  1  0
 28 29  2  0
 23 30  1  0
 30 31  2  0
 31 32  1  0
 32 33  2  0
 33 34  1  0
 34 35  1  0
 34 36  2  0
 19 37  1  0
 37 38  2  0
 38 39  1  0
 39 40  2  0
 40 41  1  0
 41 42  2  0
 15 10  1  0
 29 24  1  0
 36 30  1  0
 42 37  1  0
  1 43  1  0
  1 44  1  0
  1 45  1  0
  3 46  1  0
  3 47  1  0
  4 48  1  0
  4 49  1  0
  5 50  1  0
  8 51  1  0
  9 52  1  0
 11 53  1  0
 12 54  1  0
 13 55  1  0
 15 56  1  0
 18 57  1  0
 19 58  1  1
 22 59  1  0
 23 60  1  6
 25 61  1  0
 26 62  1  0
 27 63  1  0
 28 64  1  0
 29 65  1  0
 31 66  1  0
 32 67  1  0
 33 68  1  0
 35 69  1  0
 36 70  1  0
 38 71  1  0
 39 72  1  0
 40 73  1  0
 41 74  1  0
 42 75  1  0
M  END
$$$$
[H]c1c([H])c(-c2c([H])c([H])c(C([H])(C#N)C([H])([H])[H])c([H])c2[H])c([H])c([H])c1C(=O)[C@@]([H])(N([H])C(=O)C([H])([H])C([H])([H])C([H])([H])C([H])([H])C([H])([H])C([H])([H])C([H])([H])C([H])([H])C([H])([H])C([H])([H])C#N)C([H])([H])SC([H])(N([H])[H])N([H])[H]
     RDKit          3D

 80 81  0  0  0  0  0  0  0  0999 V2000
  -11.4221    2.7596   -0.1735 C   0  0  0  0  0  0  0  0  0  0  0  0
  -10.6258    1.9981   -1.2300 C   0  0  0  0  0  0  0  0  0  0  0  0
  -10.4504    2.8429   -2.3970 C   0  0  0  0  0  0  0  0  0  0  0  0
  -10.3275    3.5302   -3.3431 N   0  0  0  0  0  0  0  0  0  0  0  0
   -9.2935    1.6065   -0.6964 C   0  0  0  0  0  0  0  0  0  0  0  0
   -8.1090    2.0949   -1.2542 C   0  0  0  0  0  0  0  0  0  0  0  0
   -6.8985    1.7104   -0.7161 C   0  0  0  0  0  0  0  0  0  0  0  0
   -6.7745    0.8604    0.3575 C   0  0  0  0  0  0  0  0  0  0  0  0
   -7.9463    0.3789    0.9093 C   0  0  0  0  0  0  0  0  0  0  0  0
   -9.1671    0.7573    0.3769 C   0  0  0  0  0  0  0  0  0  0  0  0
   -5.4628    0.4743    0.8627 C   0  0  0  0  0  0  0  0  0  0  0  0
   -4.3947    0.3506    0.0000 C   0  0  0  0  0  0  0  0  0  0  0  0
   -3.1316   -0.0149    0.4450 C   0  0  0  0  0  0  0  0  0  0  0  0
   -2.8916   -0.2708    1.7783 C   0  0  0  0  0  0  0  0  0  0  0  0
   -3.9735   -0.1437    2.6456 C   0  0  0  0  0  0  0  0  0  0  0  0
   -5.2310    0.2213    2.1930 C   0  0  0  0  0  0  0  0  0  0  0  0
   -1.5820   -0.6859    2.2830 C   0  0  0  0  0  0  0  0  0  0  0  0
   -1.3906   -0.7987    3.5159 O   0  0  0  0  0  0  0  0  0  0  0  0
   -0.4874   -0.9698    1.3091 C   0  0  2  0  0  0  0  0  0  0  0  0
   -0.8603   -2.3031    0.6580 C   0  0  0  0  0  0  0  0  0  0  0  0
    0.3172   -2.8470   -0.5733 S   0  0  0  0  0  0  0  0  0  0  0  0
    0.3622   -1.7488   -2.0127 C   0  0  0  0  0  0  0  0  0  0  0  0
    1.3230   -2.2696   -2.9971 N   0  0  0  0  0  0  0  0  0  0  0  0
   -0.9181   -1.5805   -2.6435 N   0  0  0  0  0  0  0  0  0  0  0  0
    0.7332   -1.1634    2.0842 N   0  0  0  0  0  0  0  0  0  0  0  0
    1.8811   -0.4138    1.7669 C   0  0  0  0  0  0  0  0  0  0  0  0
    1.8173    0.4077    0.8144 O   0  0  0  0  0  0  0  0  0  0  0  0
    3.1504   -0.5660    2.5204 C   0  0  0  0  0  0  0  0  0  0  0  0
    4.2836    0.2497    2.0011 C   0  0  0  0  0  0  0  0  0  0  0  0
    4.7179   -0.0448    0.6078 C   0  0  0  0  0  0  0  0  0  0  0  0
    5.1844   -1.4668    0.4234 C   0  0  0  0  0  0  0  0  0  0  0  0
    5.6285   -1.7808   -0.9728 C   0  0  0  0  0  0  0  0  0  0  0  0
    6.7771   -0.9789   -1.4814 C   0  0  0  0  0  0  0  0  0  0  0  0
    8.0460   -1.1420   -0.6532 C   0  0  0  0  0  0  0  0  0  0  0  0
    9.1800   -0.3495   -1.2229 C   0  0  0  0  0  0  0  0  0  0  0  0
    8.9180    1.1157   -1.2935 C   0  0  0  0  0  0  0  0  0  0  0  0
    8.6816    1.6852    0.0674 C   0  0  0  0  0  0  0  0  0  0  0  0
    8.4266    3.1221   -0.1120 C   0  0  0  0  0  0  0  0  0  0  0  0
    8.2087    4.2511   -0.2510 N   0  0  0  0  0  0  0  0  0  0  0  0
  -12.1963    2.0784    0.2362 H   0  0  0  0  0  0  0  0  0  0  0  0
  -11.9375    3.5820   -0.6945 H   0  0  0  0  0  0  0  0  0  0  0  0
  -10.7129    3.0987    0.5893 H   0  0  0  0  0  0  0  0  0  0  0  0
  -11.2281    1.1057   -1.5198 H   0  0  0  0  0  0  0  0  0  0  0  0
   -8.1825    2.7665   -2.0988 H   0  0  0  0  0  0  0  0  0  0  0  0
   -5.9523    2.0785   -1.1378 H   0  0  0  0  0  0  0  0  0  0  0  0
   -7.8649   -0.2843    1.7504 H   0  0  0  0  0  0  0  0  0  0  0  0
  -10.0811    0.3778    0.8121 H   0  0  0  0  0  0  0  0  0  0  0  0
   -4.5544    0.5471   -1.0650 H   0  0  0  0  0  0  0  0  0  0  0  0
   -2.3119   -0.0986   -0.2679 H   0  0  0  0  0  0  0  0  0  0  0  0
   -3.8084   -0.3408    3.7014 H   0  0  0  0  0  0  0  0  0  0  0  0
   -6.0826    0.3224    2.8605 H   0  0  0  0  0  0  0  0  0  0  0  0
   -0.4001   -0.2220    0.5249 H   0  0  0  0  0  0  0  0  0  0  0  0
   -0.7953   -3.0560    1.5057 H   0  0  0  0  0  0  0  0  0  0  0  0
   -1.9037   -2.3412    0.3287 H   0  0  0  0  0  0  0  0  0  0  0  0
    0.7511   -0.7728   -1.7009 H   0  0  0  0  0  0  0  0  0  0  0  0
    0.9310   -2.1410   -3.9764 H   0  0  0  0  0  0  0  0  0  0  0  0
    1.3846   -3.3277   -2.8961 H   0  0  0  0  0  0  0  0  0  0  0  0
   -1.6121   -2.1956   -2.1650 H   0  0  0  0  0  0  0  0  0  0  0  0
   -1.2219   -0.5884   -2.5022 H   0  0  0  0  0  0  0  0  0  0  0  0
    0.7317   -1.8454    2.8506 H   0  0  0  0  0  0  0  0  0  0  0  0
    3.3914   -1.6477    2.5853 H   0  0  0  0  0  0  0  0  0  0  0  0
    2.9689   -0.2097    3.5777 H   0  0  0  0  0  0  0  0  0  0  0  0
    5.1369    0.2222    2.7078 H   0  0  0  0  0  0  0  0  0  0  0  0
    3.9377    1.3261    2.0194 H   0  0  0  0  0  0  0  0  0  0  0  0
    5.6119    0.6167    0.4109 H   0  0  0  0  0  0  0  0  0  0  0  0
    3.9991    0.2146   -0.1784 H   0  0  0  0  0  0  0  0  0  0  0  0
    4.3654   -2.1907    0.6589 H   0  0  0  0  0  0  0  0  0  0  0  0
    5.9945   -1.7088    1.1541 H   0  0  0  0  0  0  0  0  0  0  0  0
    4.7776   -1.6049   -1.6689 H   0  0  0  0  0  0  0  0  0  0  0  0
    5.9216   -2.8498   -0.9888 H   0  0  0  0  0  0  0  0  0  0  0  0
    6.5405    0.0806   -1.6568 H   0  0  0  0  0  0  0  0  0  0  0  0
    7.0404   -1.4031   -2.4948 H   0  0  0  0  0  0  0  0  0  0  0  0
    7.8237   -0.8021    0.3744 H   0  0  0  0  0  0  0  0  0  0  0  0
    8.3515   -2.2165   -0.6602 H   0  0  0  0  0  0  0  0  0  0  0  0
    9.3898   -0.7508   -2.2477 H   0  0  0  0  0  0  0  0  0  0  0  0
   10.0885   -0.5068   -0.5810 H   0  0  0  0  0  0  0  0  0  0  0  0
    9.8077    1.6626   -1.7062 H   0  0  0  0  0  0  0  0  0  0  0  0
    8.0657    1.3512   -1.9880 H   0  0  0  0  0  0  0  0  0  0  0  0
    7.8903    1.1793    0.6405 H   0  0  0  0  0  0  0  0  0  0  0  0
    9.6459    1.6159    0.6482 H   0  0  0  0  0  0  0  0  0  0  0  0
  1  2  1  0
  2  3  1  0
  3  4  3  0
  2  5  1  0
  5  6  2  0
  6  7  1  0
  7  8  2  0
  8  9  1  0
  9 10  2  0
  8 11  1  0
 11 12  2  0
 12 13  1  0
 13 14  2  0
 14 15  1  0
 15 16  2  0
 14 17  1  0
 17 18  2  0
 17 19  1  0
 19 20  1  0
 20 21  1  0
 21 22  1  0
 22 23  1  0
 22 24  1  0
 19 25  1  0
 25 26  1  0
 26 27  2  0
 26 28  1  0
 28 29  1  0
 29 30  1  0
 30 31  1  0
 31 32  1  0
 32 33  1  0
 33 34  1  0
 34 35  1  0
 35 36  1  0
 36 37  1  0
 37 38  1  0
 38 39  3  0
 10  5  1  0
 16 11  1  0
  1 40  1  0
  1 41  1  0
  1 42  1  0
  2 43  1  0
  6 44  1  0
  7 45  1  0
  9 46  1  0
 10 47  1  0
 12 48  1  0
 13 49  1  0
 15 50  1  0
 16 51  1  0
 19 52  1  6
 20 53  1  0
 20 54  1  0
 22 55  1  0
 23 56  1  0
 23 57  1  0
 24 58  1  0
 24 59  1  0
 25 60  1  0
 28 61  1  0
 28 62  1  0
 29 63  1  0
 29 64  1  0
 30 65  1  0
 30 66  1  0
 31 67  1  0
 31 68  1  0
 32 69  1  0
 32 70  1  0
 33 71  1  0
 33 72  1  0
 34 73  1  0
 34 74  1  0
 35 75  1  0
 35 76  1  0
 36 77  1  0
 36 78  1  0
 37 79  1  0
 37 80  1  0
M  END
$$$$
[H]O[C@]([H])(C([H])([H])[H])[C@@]([H])(C(=O)N([H])[C@]([H])(C(=O)C([H])([H])C([H])([H])C([H])([H])C([H])([H])C([H])([H])C([H])([H])C([H])([H])C#N)C([H])([H])C([H])([H])c1c([H])c([H])c([H])c([H])c1[H])N([H])C(=O)OC([H])([H])c1c([H])c([H])c([H])c([H])c1[H]
     RDKit          3D

 77 78  0  0  0  0  0  0  0  0999 V2000
   -2.2758   -0.5710   -2.3719 C   0  0  0  0  0  0  0  0  0  0  0  0
   -1.5849   -1.3657   -1.2473 C   0  0  1  0  0  0  0  0  0  0  0  0
   -0.2761   -1.3258   -1.3094 O   0  0  0  0  0  0  0  0  0  0  0  0
   -2.1278   -0.5888    0.0337 C   0  0  2  0  0  0  0  0  0  0  0  0
   -3.4968   -0.7538   -0.0396 N   0  0  0  0  0  0  0  0  0  0  0  0
   -4.7879   -0.3543    0.2053 C   0  0  0  0  0  0  0  0  0  0  0  0
   -5.1235    0.7463    0.8234 O   0  0  0  0  0  0  0  0  0  0  0  0
   -5.8881   -1.0426   -0.1807 O   0  0  0  0  0  0  0  0  0  0  0  0
   -6.9770   -1.5994   -0.4820 C   0  0  0  0  0  0  0  0  0  0  0  0
   -8.0295   -2.2281    0.3359 C   0  0  0  0  0  0  0  0  0  0  0  0
   -9.0599   -1.5086    0.8616 C   0  0  0  0  0  0  0  0  0  0  0  0
  -10.0618   -2.1438    1.5310 C   0  0  0  0  0  0  0  0  0  0  0  0
  -10.0214   -3.5347    1.6748 C   0  0  0  0  0  0  0  0  0  0  0  0
   -8.9664   -4.2564    1.1388 C   0  0  0  0  0  0  0  0  0  0  0  0
   -7.9668   -3.6307    0.4719 C   0  0  0  0  0  0  0  0  0  0  0  0
   -1.5374    0.7829   -0.1704 C   0  0  0  0  0  0  0  0  0  0  0  0
   -2.1886    1.7928   -0.4723 O   0  0  0  0  0  0  0  0  0  0  0  0
   -0.1056    0.9277   -0.0154 N   0  0  0  0  0  0  0  0  0  0  0  0
    0.7322    2.0226   -0.2440 C   0  0  1  0  0  0  0  0  0  0  0  0
    1.3399    3.0173    0.6743 C   0  0  0  0  0  0  0  0  0  0  0  0
    1.9163    4.0654   -0.2799 C   0  0  0  0  0  0  0  0  0  0  0  0
    2.4434    5.2890    0.2262 C   0  0  0  0  0  0  0  0  0  0  0  0
    3.7679    5.6735    0.1462 C   0  0  0  0  0  0  0  0  0  0  0  0
    4.1546    6.8873    0.5846 C   0  0  0  0  0  0  0  0  0  0  0  0
    3.2335    7.7780    1.1178 C   0  0  0  0  0  0  0  0  0  0  0  0
    1.9167    7.3939    1.1982 C   0  0  0  0  0  0  0  0  0  0  0  0
    1.5214    6.1928    0.7708 C   0  0  0  0  0  0  0  0  0  0  0  0
    1.8449    1.4072   -1.1369 C   0  0  0  0  0  0  0  0  0  0  0  0
    1.8256    1.4667   -2.2940 O   0  0  0  0  0  0  0  0  0  0  0  0
    2.9447    0.6721   -0.3872 C   0  0  0  0  0  0  0  0  0  0  0  0
    3.2790   -0.4961   -1.3099 C   0  0  0  0  0  0  0  0  0  0  0  0
    3.9867   -1.6068   -0.7529 C   0  0  0  0  0  0  0  0  0  0  0  0
    5.3285   -1.6514   -0.1647 C   0  0  0  0  0  0  0  0  0  0  0  0
    5.5533   -3.1441    0.1557 C   0  0  0  0  0  0  0  0  0  0  0  0
    6.9096   -3.3602    0.7552 C   0  0  0  0  0  0  0  0  0  0  0  0
    7.0868   -4.8778    0.9857 C   0  0  0  0  0  0  0  0  0  0  0  0
    6.9790   -5.5500   -0.3140 C   0  0  0  0  0  0  0  0  0  0  0  0
    6.8766   -6.0822   -1.3584 N   0  0  0  0  0  0  0  0  0  0  0  0
   -2.8592   -1.2391   -3.0265 H   0  0  0  0  0  0  0  0  0  0  0  0
   -3.0494    0.1297   -1.9470 H   0  0  0  0  0  0  0  0  0  0  0  0
   -1.5332    0.0634   -2.8780 H   0  0  0  0  0  0  0  0  0  0  0  0
   -1.9476   -2.4089   -1.1474 H   0  0  0  0  0  0  0  0  0  0  0  0
    0.0099   -0.8522   -2.1340 H   0  0  0  0  0  0  0  0  0  0  0  0
   -1.7141   -1.0634    0.9233 H   0  0  0  0  0  0  0  0  0  0  0  0
   -3.5826   -1.8850   -0.4812 H   0  0  0  0  0  0  0  0  0  0  0  0
   -6.6608   -2.4640   -1.2408 H   0  0  0  0  0  0  0  0  0  0  0  0
   -7.5741   -0.9877   -1.3160 H   0  0  0  0  0  0  0  0  0  0  0  0
   -9.0900   -0.4145    0.7614 H   0  0  0  0  0  0  0  0  0  0  0  0
  -10.8890   -1.5983    1.9739 H   0  0  0  0  0  0  0  0  0  0  0  0
  -10.8030   -4.0331    2.2100 H   0  0  0  0  0  0  0  0  0  0  0  0
   -8.9293   -5.3421    1.2454 H   0  0  0  0  0  0  0  0  0  0  0  0
   -7.0891   -4.1403    0.0586 H   0  0  0  0  0  0  0  0  0  0  0  0
    0.3360    0.0162    0.4023 H   0  0  0  0  0  0  0  0  0  0  0  0
    0.1689    2.7260   -1.0334 H   0  0  0  0  0  0  0  0  0  0  0  0
    0.5268    3.5486    1.2631 H   0  0  0  0  0  0  0  0  0  0  0  0
    2.1041    2.6269    1.3817 H   0  0  0  0  0  0  0  0  0  0  0  0
    1.1111    4.1975   -1.0702 H   0  0  0  0  0  0  0  0  0  0  0  0
    2.7344    3.4986   -0.8545 H   0  0  0  0  0  0  0  0  0  0  0  0
    4.5055    4.9433   -0.2798 H   0  0  0  0  0  0  0  0  0  0  0  0
    5.2246    7.1535    0.4904 H   0  0  0  0  0  0  0  0  0  0  0  0
    3.4792    8.7546    1.4723 H   0  0  0  0  0  0  0  0  0  0  0  0
    1.1864    8.0936    1.6171 H   0  0  0  0  0  0  0  0  0  0  0  0
    0.4678    5.8949    0.8442 H   0  0  0  0  0  0  0  0  0  0  0  0
    2.6329    0.3314    0.6186 H   0  0  0  0  0  0  0  0  0  0  0  0
    3.8044    1.3425   -0.3039 H   0  0  0  0  0  0  0  0  0  0  0  0
    3.8919   -0.0293   -2.1868 H   0  0  0  0  0  0  0  0  0  0  0  0
    2.3502   -0.8175   -1.8585 H   0  0  0  0  0  0  0  0  0  0  0  0
    3.2794   -2.1161    0.0455 H   0  0  0  0  0  0  0  0  0  0  0  0
    3.9149   -2.4893   -1.5386 H   0  0  0  0  0  0  0  0  0  0  0  0
    6.1537   -1.3246   -0.8038 H   0  0  0  0  0  0  0  0  0  0  0  0
    5.4142   -1.0836    0.7830 H   0  0  0  0  0  0  0  0  0  0  0  0
    5.4247   -3.7169   -0.7832 H   0  0  0  0  0  0  0  0  0  0  0  0
    4.7565   -3.5299    0.8608 H   0  0  0  0  0  0  0  0  0  0  0  0
    7.7225   -3.0142    0.1477 H   0  0  0  0  0  0  0  0  0  0  0  0
    6.9821   -2.8946    1.7836 H   0  0  0  0  0  0  0  0  0  0  0  0
    6.2959   -5.2798    1.6363 H   0  0  0  0  0  0  0  0  0  0  0  0
    8.0779   -5.0393    1.3902 H   0  0  0  0  0  0  0  0  0  0  0  0
  1  2  1  0
  2  3  1  0
  2  4  1  0
  4  5  1  0
  5  6  1  0
  6  7  2  0
  6  8  1  0
  8  9  1  0
  9 10  1  0
 10 11  2  0
 11 12  1  0
 12 13  2  0
 13 14  1  0
 14 15  2  0
  4 16  1  0
 16 17  2  0
 16 18  1  0
 18 19  1  0
 19 20  1  0
 20 21  1  0
 21 22  1  0
 22 23  2  0
 23 24  1  0
 24 25  2  0
 25 26  1  0
 26 27  2  0
 19 28  1  0
 28 29  2  0
 28 30  1  0
 30 31  1  0
 31 32  1  0
 32 33  1  0
 33 34  1  0
 34 35  1  0
 35 36  1  0
 36 37  1  0
 37 38  3  0
 15 10  1  0
 27 22  1  0
  1 39  1  0
  1 40  1  0
  1 41  1  0
  2 42  1  1
  3 43  1  0
  4 44  1  1
  5 45  1  0
  9 46  1  0
  9 47  1  0
 11 48  1  0
 12 49  1  0
 13 50  1  0
 14 51  1  0
 15 52  1  0
 18 53  1  0
 19 54  1  6
 20 55  1  0
 20 56  1  0
 21 57  1  0
 21 58  1  0
 23 59  1  0
 24 60  1  0
 25 61  1  0
 26 62  1  0
 27 63  1  0
 30 64  1  0
 30 65  1  0
 31 66  1  0
 31 67  1  0
 32 68  1  0
 32 69  1  0
 33 70  1  0
 33 71  1  0
 34 72  1  0
 34 73  1  0
 35 74  1  0
 35 75  1  0
 36 76  1  0
 36 77  1  0
M  END
$$$$
[H]c1nc([H])c(-c2c([H])c([H])c(N([H])c3nc([H])c(-c4c([H])c([H])c([H])c([H])c4[H])o3)c([H])c2OC([H])([H])[H])o1
     RDKit          3D

 40 43  0  0  0  0  0  0  0  0999 V2000
   -1.2634    2.1400   -0.8377 C   0  0  0  0  0  0  0  0  0  0  0  0
   -2.4037    1.6850   -0.1323 O   0  0  0  0  0  0  0  0  0  0  0  0
   -2.3142    0.5075    0.5936 C   0  0  0  0  0  0  0  0  0  0  0  0
   -1.1158   -0.2227    0.6303 C   0  0  0  0  0  0  0  0  0  0  0  0
   -0.9685   -1.3897    1.3285 C   0  0  0  0  0  0  0  0  0  0  0  0
    0.2082   -2.1728    1.4072 N   0  0  0  0  0  0  0  0  0  0  0  0
    1.4488   -1.9153    0.7932 C   0  0  0  0  0  0  0  0  0  0  0  0
    2.5448   -2.6943    0.8984 N   0  0  0  0  0  0  0  0  0  0  0  0
    3.5324   -2.1504    0.1916 C   0  0  0  0  0  0  0  0  0  0  0  0
    3.0036   -1.0035   -0.3554 C   0  0  0  0  0  0  0  0  0  0  0  0
    1.7770   -0.9277    0.0391 O   0  0  0  0  0  0  0  0  0  0  0  0
    3.7589   -0.0971   -1.2115 C   0  0  0  0  0  0  0  0  0  0  0  0
    5.0593   -0.3715   -1.5048 C   0  0  0  0  0  0  0  0  0  0  0  0
    5.7626    0.5023   -2.3212 C   0  0  0  0  0  0  0  0  0  0  0  0
    5.1381    1.6355   -2.8247 C   0  0  0  0  0  0  0  0  0  0  0  0
    3.8156    1.9107   -2.5239 C   0  0  0  0  0  0  0  0  0  0  0  0
    3.1350    1.0454   -1.7212 C   0  0  0  0  0  0  0  0  0  0  0  0
   -2.1041   -1.8265    2.0206 C   0  0  0  0  0  0  0  0  0  0  0  0
   -3.2756   -1.1095    1.9825 C   0  0  0  0  0  0  0  0  0  0  0  0
   -3.4156    0.0630    1.2782 C   0  0  0  0  0  0  0  0  0  0  0  0
   -4.6809    0.8030    1.2593 C   0  0  0  0  0  0  0  0  0  0  0  0
   -5.8265    0.4031    1.9312 C   0  0  0  0  0  0  0  0  0  0  0  0
   -6.7802    1.3145    1.6893 N   0  0  0  0  0  0  0  0  0  0  0  0
   -6.2069    2.2286    0.8933 C   0  0  0  0  0  0  0  0  0  0  0  0
   -4.9583    1.9185    0.6413 O   0  0  0  0  0  0  0  0  0  0  0  0
   -0.9678    1.2870   -1.5113 H   0  0  0  0  0  0  0  0  0  0  0  0
   -0.4216    2.2765   -0.0996 H   0  0  0  0  0  0  0  0  0  0  0  0
   -1.4521    3.0633   -1.3883 H   0  0  0  0  0  0  0  0  0  0  0  0
   -0.2653    0.1571    0.0780 H   0  0  0  0  0  0  0  0  0  0  0  0
    0.1470   -3.0691    2.0061 H   0  0  0  0  0  0  0  0  0  0  0  0
    4.5187   -2.5621    0.1000 H   0  0  0  0  0  0  0  0  0  0  0  0
    5.5736   -1.2550   -1.1222 H   0  0  0  0  0  0  0  0  0  0  0  0
    6.8054    0.2986   -2.5669 H   0  0  0  0  0  0  0  0  0  0  0  0
    5.6835    2.3227   -3.4639 H   0  0  0  0  0  0  0  0  0  0  0  0
    3.3345    2.7992   -2.9217 H   0  0  0  0  0  0  0  0  0  0  0  0
    2.0892    1.1887   -1.4355 H   0  0  0  0  0  0  0  0  0  0  0  0
   -2.0421   -2.7421    2.5877 H   0  0  0  0  0  0  0  0  0  0  0  0
   -4.1630   -1.4483    2.5217 H   0  0  0  0  0  0  0  0  0  0  0  0
   -5.9541   -0.4778    2.5447 H   0  0  0  0  0  0  0  0  0  0  0  0
   -6.7567    3.1076    0.5261 H   0  0  0  0  0  0  0  0  0  0  0  0
  1  2  1  0
  2  3  1  0
  3  4  2  0
  4  5  1  0
  5  6  1  0
  6  7  1  0
  7  8  2  0
  8  9  1  0
  9 10  2  0
 10 11  1  0
 10 12  1  0
 12 13  2  0
 13 14  1  0
 14 15  2  0
 15 16  1  0
 16 17  2  0
  5 18  2  0
 18 19  1  0
 19 20  2  0
 20 21  1  0
 21 22  2  0
 22 23  1  0
 23 24  2  0
 24 25  1  0
 20  3  1  0
 25 21  1  0
 11  7  1  0
 17 12  1  0
  1 26  1  0
  1 27  1  0
  1 28  1  0
  4 29  1  0
  6 30  1  0
  9 31  1  0
 13 32  1  0
 14 33  1  0
 15 34  1  0
 16 35  1  0
 17 36  1  0
 18 37  1  0
 19 38  1  0
 22 39  1  0
 24 40  1  0
M  END
$$$$
[H]c1c([H])c([H])c2c(c1[H])c1c3c(c4c5c([H])c([H])c([H])c([H])c5n5c4c1n2[C@@]1(C([H])([H])[H])O[C@]5([H])C([H])([H])[C@@]([H])(N([H])C([H])([H])[H])[C@@]1([H])OC([H])([H])[H])C(=O)N([H])C3([H])[H]
     RDKit          3D

 61 68  0  0  0  0  0  0  0  0999 V2000
   -3.3415   -2.0929    0.8927 C   0  0  0  0  0  0  0  0  0  0  0  0
   -2.7520   -0.8244    0.5060 N   0  0  0  0  0  0  0  0  0  0  0  0
   -2.5947   -0.7699   -0.9652 C   0  0  2  0  0  0  0  0  0  0  0  0
   -1.6635   -1.8336   -1.3456 C   0  0  0  0  0  0  0  0  0  0  0  0
   -0.4098   -1.3263   -1.9401 C   0  0  1  0  0  0  0  0  0  0  0  0
   -0.2904   -0.0961   -2.3609 O   0  0  0  0  0  0  0  0  0  0  0  0
   -0.9141    0.9817   -1.7381 C   0  0  1  0  0  0  0  0  0  0  0  0
   -0.8729    2.0231   -2.8643 C   0  0  0  0  0  0  0  0  0  0  0  0
   -2.2914    0.6326   -1.4119 C   0  0  2  0  0  0  0  0  0  0  0  0
   -2.9229    1.4324   -0.4622 O   0  0  0  0  0  0  0  0  0  0  0  0
   -4.0664    2.0564   -0.9455 C   0  0  0  0  0  0  0  0  0  0  0  0
   -0.0747    1.3904   -0.5981 N   0  0  0  0  0  0  0  0  0  0  0  0
    0.0066    2.5943   -0.0347 C   0  0  0  0  0  0  0  0  0  0  0  0
   -0.6403    3.7755   -0.2701 C   0  0  0  0  0  0  0  0  0  0  0  0
   -0.3753    4.9057    0.4704 C   0  0  0  0  0  0  0  0  0  0  0  0
    0.5715    4.8915    1.4994 C   0  0  0  0  0  0  0  0  0  0  0  0
    1.2169    3.7192    1.7374 C   0  0  0  0  0  0  0  0  0  0  0  0
    0.9447    2.6014    0.9941 C   0  0  0  0  0  0  0  0  0  0  0  0
    1.4533    1.3308    1.0530 C   0  0  0  0  0  0  0  0  0  0  0  0
    2.4134    0.7192    1.8621 C   0  0  0  0  0  0  0  0  0  0  0  0
    3.2252    1.2814    2.9656 C   0  0  0  0  0  0  0  0  0  0  0  0
    4.0513    0.2282    3.4563 N   0  0  0  0  0  0  0  0  0  0  0  0
    3.7725   -0.9500    2.6928 C   0  0  0  0  0  0  0  0  0  0  0  0
    4.3602   -2.0093    2.9202 O   0  0  0  0  0  0  0  0  0  0  0  0
    2.7553   -0.6238    1.7110 C   0  0  0  0  0  0  0  0  0  0  0  0
    2.1006   -1.3257    0.7242 C   0  0  0  0  0  0  0  0  0  0  0  0
    2.1422   -2.6347    0.2794 C   0  0  0  0  0  0  0  0  0  0  0  0
    2.8759   -3.7217    0.6638 C   0  0  0  0  0  0  0  0  0  0  0  0
    2.6892   -4.9254    0.0128 C   0  0  0  0  0  0  0  0  0  0  0  0
    1.7808   -5.0386   -1.0084 C   0  0  0  0  0  0  0  0  0  0  0  0
    1.0343   -3.9515   -1.4066 C   0  0  0  0  0  0  0  0  0  0  0  0
    1.2263   -2.7646   -0.7562 C   0  0  0  0  0  0  0  0  0  0  0  0
    0.6469   -1.5975   -0.9447 N   0  0  0  0  0  0  0  0  0  0  0  0
    1.1358   -0.7009   -0.0851 C   0  0  0  0  0  0  0  0  0  0  0  0
    0.8119    0.6350    0.0794 C   0  0  0  0  0  0  0  0  0  0  0  0
   -3.9345   -1.8764    1.8249 H   0  0  0  0  0  0  0  0  0  0  0  0
   -2.5804   -2.8202    1.1896 H   0  0  0  0  0  0  0  0  0  0  0  0
   -4.0376   -2.4413    0.1071 H   0  0  0  0  0  0  0  0  0  0  0  0
   -1.8252   -0.7857    0.9817 H   0  0  0  0  0  0  0  0  0  0  0  0
   -3.6418   -1.0758   -1.3069 H   0  0  0  0  0  0  0  0  0  0  0  0
   -1.4743   -2.5407   -0.4944 H   0  0  0  0  0  0  0  0  0  0  0  0
   -2.1827   -2.5069   -2.1019 H   0  0  0  0  0  0  0  0  0  0  0  0
   -0.1764   -2.0147   -2.8352 H   0  0  0  0  0  0  0  0  0  0  0  0
   -1.8561    2.5173   -2.9808 H   0  0  0  0  0  0  0  0  0  0  0  0
   -0.0367    2.7359   -2.7018 H   0  0  0  0  0  0  0  0  0  0  0  0
   -0.6761    1.5932   -3.8662 H   0  0  0  0  0  0  0  0  0  0  0  0
   -2.9127    0.7625   -2.3525 H   0  0  0  0  0  0  0  0  0  0  0  0
   -4.5472    2.6842   -0.1440 H   0  0  0  0  0  0  0  0  0  0  0  0
   -3.8494    2.7776   -1.7563 H   0  0  0  0  0  0  0  0  0  0  0  0
   -4.7942    1.3294   -1.3803 H   0  0  0  0  0  0  0  0  0  0  0  0
   -1.3647    3.8112   -1.0348 H   0  0  0  0  0  0  0  0  0  0  0  0
   -0.8845    5.8355    0.2847 H   0  0  0  0  0  0  0  0  0  0  0  0
    0.7949    5.7654    2.0918 H   0  0  0  0  0  0  0  0  0  0  0  0
    1.9682    3.6487    2.5304 H   0  0  0  0  0  0  0  0  0  0  0  0
    3.8868    2.0907    2.5395 H   0  0  0  0  0  0  0  0  0  0  0  0
    2.5967    1.6993    3.7873 H   0  0  0  0  0  0  0  0  0  0  0  0
    4.7363    0.3270    4.2421 H   0  0  0  0  0  0  0  0  0  0  0  0
    3.5871   -3.7061    1.4353 H   0  0  0  0  0  0  0  0  0  0  0  0
    3.2659   -5.8106    0.3031 H   0  0  0  0  0  0  0  0  0  0  0  0
    1.6292   -5.9934   -1.5280 H   0  0  0  0  0  0  0  0  0  0  0  0
    0.3048   -4.0175   -2.2172 H   0  0  0  0  0  0  0  0  0  0  0  0
  1  2  1  0
  2  3  1  0
  3  4  1  0
  4  5  1  0
  5  6  1  0
  6  7  1  0
  7  8  1  6
  7  9  1  0
  9 10  1  0
 10 11  1  0
  7 12  1  0
 12 13  1  0
 13 14  2  0
 14 15  1  0
 15 16  2  0
 16 17  1  0
 17 18  2  0
 18 19  1  0
 19 20  2  0
 20 21  1  0
 21 22  1  0
 22 23  1  0
 23 24  2  0
 23 25  1  0
 25 26  2  0
 26 27  1  0
 27 28  2  0
 28 29  1  0
 29 30  2  0
 30 31  1  0
 31 32  2  0
 32 33  1  0
 33 34  1  0
 34 35  2  0
  9  3  1  0
 35 12  1  0
 33  5  1  0
 18 13  1  0
 35 19  1  0
 25 20  1  0
 34 26  1  0
 32 27  1  0
  1 36  1  0
  1 37  1  0
  1 38  1  0
  2 39  1  0
  3 40  1  6
  4 41  1  0
  4 42  1  0
  5 43  1  6
  8 44  1  0
  8 45  1  0
  8 46  1  0
  9 47  1  6
 11 48  1  0
 11 49  1  0
 11 50  1  0
 14 51  1  0
 15 52  1  0
 16 53  1  0
 17 54  1  0
 21 55  1  0
 21 56  1  0
 22 57  1  0
 28 58  1  0
 29 59  1  0
 30 60  1  0
 31 61  1  0
M  END
$$$$
[H]c1c([H])c([H])c(C([H])([H])OC(=O)N([H])[C@]([H])(C(=O)N([H])[C@]([H])(C(=O)N([H])[C@]([H])(C(=O)N2C([H])([H])C([H])([H])C([H])([H])C([H])([H])C2([H])[H])C([H])([H])C([H])([H])C([H])([H])N=C(N([H])[H])N([H])[H])C([H])([H])C([H])(C([H])([H])[H])C([H])([H])[H])C([H])([H])C([H])(C([H])([H])[H])C([H])([H])[H])c([H])c1[H]
     RDKit          3D

 94 95  0  0  0  0  0  0  0  0999 V2000
    0.9318    4.1749    0.9459 C   0  0  0  0  0  0  0  0  0  0  0  0
    0.3498    3.9967   -0.4387 C   0  0  0  0  0  0  0  0  0  0  0  0
   -0.5558    5.1989   -0.6673 C   0  0  0  0  0  0  0  0  0  0  0  0
   -0.4812    2.7336   -0.5356 C   0  0  0  0  0  0  0  0  0  0  0  0
    0.2861    1.5048   -0.2365 C   0  0  2  0  0  0  0  0  0  0  0  0
    1.4306    1.2720   -1.1298 N   0  0  0  0  0  0  0  0  0  0  0  0
    2.6453    0.7485   -0.6515 C   0  0  0  0  0  0  0  0  0  0  0  0
    2.7561    0.4481    0.5872 O   0  0  0  0  0  0  0  0  0  0  0  0
    3.8319    0.4986   -1.4724 C   0  0  2  0  0  0  0  0  0  0  0  0
    3.8101    0.9539   -2.8756 C   0  0  0  0  0  0  0  0  0  0  0  0
    3.7029    2.4057   -3.1449 C   0  0  0  0  0  0  0  0  0  0  0  0
    4.8498    3.2157   -2.5689 C   0  0  0  0  0  0  0  0  0  0  0  0
    3.7973    2.5619   -4.6757 C   0  0  0  0  0  0  0  0  0  0  0  0
    4.3302   -0.8195   -1.2089 N   0  0  0  0  0  0  0  0  0  0  0  0
    5.5037   -1.1626   -0.4897 C   0  0  0  0  0  0  0  0  0  0  0  0
    6.2711   -0.2728    0.0202 O   0  0  0  0  0  0  0  0  0  0  0  0
    5.8969   -2.4615   -0.2911 O   0  0  0  0  0  0  0  0  0  0  0  0
    7.0280   -2.9011    0.3974 C   0  0  0  0  0  0  0  0  0  0  0  0
    7.1203   -2.5545    1.8100 C   0  0  0  0  0  0  0  0  0  0  0  0
    6.0473   -2.0761    2.4990 C   0  0  0  0  0  0  0  0  0  0  0  0
    6.1547   -1.7601    3.8360 C   0  0  0  0  0  0  0  0  0  0  0  0
    7.3665   -1.9401    4.4555 C   0  0  0  0  0  0  0  0  0  0  0  0
    8.4940   -2.4268    3.7975 C   0  0  0  0  0  0  0  0  0  0  0  0
    8.3141   -2.7207    2.4633 C   0  0  0  0  0  0  0  0  0  0  0  0
   -0.6077    0.3057   -0.2834 C   0  0  0  0  0  0  0  0  0  0  0  0
   -0.2153   -0.6994   -0.9243 O   0  0  0  0  0  0  0  0  0  0  0  0
   -1.8587    0.2598    0.3572 N   0  0  0  0  0  0  0  0  0  0  0  0
   -2.6765   -0.9730    0.2923 C   0  0  1  0  0  0  0  0  0  0  0  0
   -3.2435   -1.1869    1.6517 C   0  0  0  0  0  0  0  0  0  0  0  0
   -4.1190   -0.0611    2.1290 C   0  0  0  0  0  0  0  0  0  0  0  0
   -4.6700   -0.3585    3.5242 C   0  0  0  0  0  0  0  0  0  0  0  0
   -5.5167    0.7516    3.9641 N   0  0  0  0  0  0  0  0  0  0  0  0
   -6.7966    0.6547    3.7926 C   0  0  0  0  0  0  0  0  0  0  0  0
   -7.6497    1.7072    4.2029 N   0  0  0  0  0  0  0  0  0  0  0  0
   -7.4031   -0.4761    3.2079 N   0  0  0  0  0  0  0  0  0  0  0  0
   -3.6864   -0.8095   -0.7661 C   0  0  0  0  0  0  0  0  0  0  0  0
   -3.8295    0.2966   -1.3209 O   0  0  0  0  0  0  0  0  0  0  0  0
   -4.4971   -1.8979   -1.1669 N   0  0  0  0  0  0  0  0  0  0  0  0
   -4.3407   -3.2036   -0.5547 C   0  0  0  0  0  0  0  0  0  0  0  0
   -4.6318   -4.2351   -1.6303 C   0  0  0  0  0  0  0  0  0  0  0  0
   -6.1361   -4.2067   -1.8547 C   0  0  0  0  0  0  0  0  0  0  0  0
   -6.6048   -2.7819   -2.0063 C   0  0  0  0  0  0  0  0  0  0  0  0
   -5.5099   -1.7836   -2.2019 C   0  0  0  0  0  0  0  0  0  0  0  0
    1.9527    3.7278    1.0270 H   0  0  0  0  0  0  0  0  0  0  0  0
    0.2760    3.7723    1.7461 H   0  0  0  0  0  0  0  0  0  0  0  0
    1.0569    5.2458    1.1379 H   0  0  0  0  0  0  0  0  0  0  0  0
    1.1666    4.0450   -1.1625 H   0  0  0  0  0  0  0  0  0  0  0  0
   -0.6285    5.4652   -1.7298 H   0  0  0  0  0  0  0  0  0  0  0  0
   -0.1356    6.0926   -0.1233 H   0  0  0  0  0  0  0  0  0  0  0  0
   -1.5358    4.9858   -0.1848 H   0  0  0  0  0  0  0  0  0  0  0  0
   -0.7831    2.6675   -1.6241 H   0  0  0  0  0  0  0  0  0  0  0  0
   -1.4096    2.8507    0.0188 H   0  0  0  0  0  0  0  0  0  0  0  0
    0.7305    1.4548    0.7886 H   0  0  0  0  0  0  0  0  0  0  0  0
    1.2837    1.4874   -2.1394 H   0  0  0  0  0  0  0  0  0  0  0  0
    4.6368    1.1547   -0.9062 H   0  0  0  0  0  0  0  0  0  0  0  0
    4.6510    0.4885   -3.4777 H   0  0  0  0  0  0  0  0  0  0  0  0
    2.8841    0.4985   -3.3541 H   0  0  0  0  0  0  0  0  0  0  0  0
    2.7972    2.9004   -2.8606 H   0  0  0  0  0  0  0  0  0  0  0  0
    4.6339    4.2740   -2.8227 H   0  0  0  0  0  0  0  0  0  0  0  0
    4.8744    3.1556   -1.4641 H   0  0  0  0  0  0  0  0  0  0  0  0
    5.8189    2.9688   -3.0348 H   0  0  0  0  0  0  0  0  0  0  0  0
    4.7387    2.1278   -5.0482 H   0  0  0  0  0  0  0  0  0  0  0  0
    3.6724    3.6051   -4.9926 H   0  0  0  0  0  0  0  0  0  0  0  0
    2.9859    1.9091   -5.0700 H   0  0  0  0  0  0  0  0  0  0  0  0
    3.7715   -1.6194   -1.5845 H   0  0  0  0  0  0  0  0  0  0  0  0
    7.9801   -2.6344   -0.1685 H   0  0  0  0  0  0  0  0  0  0  0  0
    7.0156   -4.0329    0.2763 H   0  0  0  0  0  0  0  0  0  0  0  0
    5.0596   -1.9262    2.0306 H   0  0  0  0  0  0  0  0  0  0  0  0
    5.3112   -1.3755    4.4052 H   0  0  0  0  0  0  0  0  0  0  0  0
    7.4942   -1.7036    5.5173 H   0  0  0  0  0  0  0  0  0  0  0  0
    9.4370   -2.5624    4.3081 H   0  0  0  0  0  0  0  0  0  0  0  0
    9.1656   -3.0999    1.9224 H   0  0  0  0  0  0  0  0  0  0  0  0
   -2.1847    1.1045    0.8670 H   0  0  0  0  0  0  0  0  0  0  0  0
   -1.9621   -1.7811    0.0523 H   0  0  0  0  0  0  0  0  0  0  0  0
   -3.8054   -2.1144    1.8109 H   0  0  0  0  0  0  0  0  0  0  0  0
   -2.3907   -1.2352    2.3934 H   0  0  0  0  0  0  0  0  0  0  0  0
   -3.6659    0.9185    2.1884 H   0  0  0  0  0  0  0  0  0  0  0  0
   -5.0367    0.0265    1.4766 H   0  0  0  0  0  0  0  0  0  0  0  0
   -5.2606   -1.2856    3.5543 H   0  0  0  0  0  0  0  0  0  0  0  0
   -3.8675   -0.4418    4.2857 H   0  0  0  0  0  0  0  0  0  0  0  0
   -8.1829    2.2234    3.4932 H   0  0  0  0  0  0  0  0  0  0  0  0
   -7.7214    1.9390    5.2038 H   0  0  0  0  0  0  0  0  0  0  0  0
   -7.6236   -1.3010    3.7895 H   0  0  0  0  0  0  0  0  0  0  0  0
   -7.6290   -0.4871    2.2005 H   0  0  0  0  0  0  0  0  0  0  0  0
   -5.1119   -3.3238    0.2170 H   0  0  0  0  0  0  0  0  0  0  0  0
   -3.3370   -3.3638   -0.1097 H   0  0  0  0  0  0  0  0  0  0  0  0
   -4.1664   -3.9838   -2.6050 H   0  0  0  0  0  0  0  0  0  0  0  0
   -4.2765   -5.2391   -1.3467 H   0  0  0  0  0  0  0  0  0  0  0  0
   -6.4110   -4.8297   -2.7160 H   0  0  0  0  0  0  0  0  0  0  0  0
   -6.5888   -4.6837   -0.9396 H   0  0  0  0  0  0  0  0  0  0  0  0
   -7.2968   -2.5053   -1.1810 H   0  0  0  0  0  0  0  0  0  0  0  0
   -7.2382   -2.7533   -2.9424 H   0  0  0  0  0  0  0  0  0  0  0  0
   -5.9835   -0.7679   -2.1499 H   0  0  0  0  0  0  0  0  0  0  0  0
   -5.0496   -1.9579   -3.2075 H   0  0  0  0  0  0  0  0  0  0  0  0
  1  2  1  0
  2  3  1  0
  2  4  1  0
  4  5  1  0
  5  6  1  0
  6  7  1  0
  7  8  2  0
  7  9  1  0
  9 10  1  0
 10 11  1  0
 11 12  1  0
 11 13  1  0
  9 14  1  0
 14 15  1  0
 15 16  2  0
 15 17  1  0
 17 18  1  0
 18 19  1  0
 19 20  2  0
 20 21  1  0
 21 22  2  0
 22 23  1  0
 23 24  2  0
  5 25  1  0
 25 26  2  0
 25 27  1  0
 27 28  1  0
 28 29  1  0
 29 30  1  0
 30 31  1  0
 31 32  1  0
 32 33  2  3
 33 34  1  0
 33 35  1  0
 28 36  1  0
 36 37  2  0
 36 38  1  0
 38 39  1  0
 39 40  1  0
 40 41  1  0
 41 42  1  0
 42 43  1  0
 24 19  1  0
 43 38  1  0
  1 44  1  0
  1 45  1  0
  1 46  1  0
  2 47  1  0
  3 48  1  0
  3 49  1  0
  3 50  1  0
  4 51  1  0
  4 52  1  0
  5 53  1  1
  6 54  1  0
  9 55  1  1
 10 56  1  0
 10 57  1  0
 11 58  1  0
 12 59  1  0
 12 60  1  0
 12 61  1  0
 13 62  1  0
 13 63  1  0
 13 64  1  0
 14 65  1  0
 18 66  1  0
 18 67  1  0
 20 68  1  0
 21 69  1  0
 22 70  1  0
 23 71  1  0
 24 72  1  0
 27 73  1  0
 28 74  1  6
 29 75  1  0
 29 76  1  0
 30 77  1  0
 30 78  1  0
 31 79  1  0
 31 80  1  0
 34 81  1  0
 34 82  1  0
 35 83  1  0
 35 84  1  0
 39 85  1  0
 39 86  1  0
 40 87  1  0
 40 88  1  0
 41 89  1  0
 41 90  1  0
 42 91  1  0
 42 92  1  0
 43 93  1  0
 43 94  1  0
M  END
$$$$
[H]c1nc2c([H])c(OC([H])([H])[H])c(OC([H])([H])[H])c([H])c2c(Oc2c([H])c([H])c(N([H])C(=O)N([H])c3c([H])c([H])c(C(F)(F)F)c([H])c3[H])c([H])c2[H])c1[H]
     RDKit          3D

 55 58  0  0  0  0  0  0  0  0999 V2000
   -9.7768   -0.1101   -0.9493 C   0  0  0  0  0  0  0  0  0  0  0  0
   -8.5172   -0.6698   -0.9479 O   0  0  0  0  0  0  0  0  0  0  0  0
   -7.3071   -0.2045   -0.5837 C   0  0  0  0  0  0  0  0  0  0  0  0
   -7.1137    1.0491   -0.0770 C   0  0  0  0  0  0  0  0  0  0  0  0
   -5.8338    1.4740    0.2790 C   0  0  0  0  0  0  0  0  0  0  0  0
   -5.6173    2.6911    0.7799 N   0  0  0  0  0  0  0  0  0  0  0  0
   -4.3951    3.1339    1.1355 C   0  0  0  0  0  0  0  0  0  0  0  0
   -3.2895    2.3176    0.9911 C   0  0  0  0  0  0  0  0  0  0  0  0
   -3.4488    1.0574    0.4845 C   0  0  0  0  0  0  0  0  0  0  0  0
   -2.4653    0.1551    0.2897 O   0  0  0  0  0  0  0  0  0  0  0  0
   -1.1419    0.1440    0.4889 C   0  0  0  0  0  0  0  0  0  0  0  0
   -0.6363   -0.3322    1.6681 C   0  0  0  0  0  0  0  0  0  0  0  0
    0.6897   -0.3833    1.9517 C   0  0  0  0  0  0  0  0  0  0  0  0
    1.6700    0.0642    1.0223 C   0  0  0  0  0  0  0  0  0  0  0  0
    3.0051    0.0029    1.4095 N   0  0  0  0  0  0  0  0  0  0  0  0
    4.1297   -0.0925    0.5028 C   0  0  0  0  0  0  0  0  0  0  0  0
    3.8647   -0.1196   -0.6708 O   0  0  0  0  0  0  0  0  0  0  0  0
    5.4007   -0.1376    1.1280 N   0  0  0  0  0  0  0  0  0  0  0  0
    6.6119   -0.1981    0.4039 C   0  0  0  0  0  0  0  0  0  0  0  0
    7.7433   -0.6909    1.0583 C   0  0  0  0  0  0  0  0  0  0  0  0
    8.9699   -0.6562    0.4118 C   0  0  0  0  0  0  0  0  0  0  0  0
    9.1359   -0.1564   -0.8591 C   0  0  0  0  0  0  0  0  0  0  0  0
    8.0225    0.3269   -1.5198 C   0  0  0  0  0  0  0  0  0  0  0  0
    6.7946    0.2969   -0.8810 C   0  0  0  0  0  0  0  0  0  0  0  0
   10.5191   -0.0201   -1.4039 C   0  0  0  0  0  0  0  0  0  0  0  0
   11.0674    1.1249   -0.7922 F   0  0  0  0  0  0  0  0  0  0  0  0
   10.5164    0.1245   -2.7629 F   0  0  0  0  0  0  0  0  0  0  0  0
   11.2738   -1.0821   -1.0424 F   0  0  0  0  0  0  0  0  0  0  0  0
    1.1590    0.5429   -0.1624 C   0  0  0  0  0  0  0  0  0  0  0  0
   -0.2032    0.5844   -0.4302 C   0  0  0  0  0  0  0  0  0  0  0  0
   -4.7464    0.6476    0.1285 C   0  0  0  0  0  0  0  0  0  0  0  0
   -4.9808   -0.6151   -0.3872 C   0  0  0  0  0  0  0  0  0  0  0  0
   -6.2178   -1.0717   -0.7485 C   0  0  0  0  0  0  0  0  0  0  0  0
   -6.4271   -2.3455   -1.2668 O   0  0  0  0  0  0  0  0  0  0  0  0
   -5.3735   -3.2594   -1.4545 C   0  0  0  0  0  0  0  0  0  0  0  0
   -9.8883    0.8262   -0.3562 H   0  0  0  0  0  0  0  0  0  0  0  0
  -10.2090    0.0620   -1.9696 H   0  0  0  0  0  0  0  0  0  0  0  0
  -10.4777   -0.8525   -0.4814 H   0  0  0  0  0  0  0  0  0  0  0  0
   -7.9285    1.7584    0.0620 H   0  0  0  0  0  0  0  0  0  0  0  0
   -4.3447    4.1364    1.5240 H   0  0  0  0  0  0  0  0  0  0  0  0
   -2.3309    2.7063    1.2914 H   0  0  0  0  0  0  0  0  0  0  0  0
   -1.2967   -0.7062    2.4657 H   0  0  0  0  0  0  0  0  0  0  0  0
    1.0679   -0.7562    2.8882 H   0  0  0  0  0  0  0  0  0  0  0  0
    3.1990    0.0575    2.4419 H   0  0  0  0  0  0  0  0  0  0  0  0
    5.4591   -0.1259    2.1966 H   0  0  0  0  0  0  0  0  0  0  0  0
    7.6784   -1.0983    2.0477 H   0  0  0  0  0  0  0  0  0  0  0  0
    9.8509   -1.0475    0.9251 H   0  0  0  0  0  0  0  0  0  0  0  0
    8.1151    0.7213   -2.5004 H   0  0  0  0  0  0  0  0  0  0  0  0
    5.9442    0.6818   -1.3934 H   0  0  0  0  0  0  0  0  0  0  0  0
    1.8630    0.9228   -0.9125 H   0  0  0  0  0  0  0  0  0  0  0  0
   -0.5254    0.9730   -1.4051 H   0  0  0  0  0  0  0  0  0  0  0  0
   -4.1085   -1.2572   -0.4937 H   0  0  0  0  0  0  0  0  0  0  0  0
   -5.7324   -4.3210   -1.4610 H   0  0  0  0  0  0  0  0  0  0  0  0
   -4.5890   -3.2091   -0.6819 H   0  0  0  0  0  0  0  0  0  0  0  0
   -4.8290   -3.0639   -2.4301 H   0  0  0  0  0  0  0  0  0  0  0  0
  1  2  1  0
  2  3  1  0
  3  4  2  0
  4  5  1  0
  5  6  2  0
  6  7  1  0
  7  8  2  0
  8  9  1  0
  9 10  1  0
 10 11  1  0
 11 12  2  0
 12 13  1  0
 13 14  2  0
 14 15  1  0
 15 16  1  0
 16 17  2  0
 16 18  1  0
 18 19  1  0
 19 20  2  0
 20 21  1  0
 21 22  2  0
 22 23  1  0
 23 24  2  0
 22 25  1  0
 25 26  1  0
 25 27  1  0
 25 28  1  0
 14 29  1  0
 29 30  2  0
  9 31  2  0
 31 32  1  0
 32 33  2  0
 33 34  1  0
 34 35  1  0
 33  3  1  0
 31  5  1  0
 30 11  1  0
 24 19  1  0
  1 36  1  0
  1 37  1  0
  1 38  1  0
  4 39  1  0
  7 40  1  0
  8 41  1  0
 12 42  1  0
 13 43  1  0
 15 44  1  0
 18 45  1  0
 20 46  1  0
 21 47  1  0
 23 48  1  0
 24 49  1  0
 29 50  1  0
 30 51  1  0
 32 52  1  0
 35 53  1  0
 35 54  1  0
 35 55  1  0
M  END
$$$$
[H]OC(=O)C([H])([H])[C@@]([H])(C([H])=O)N([H])C(=O)[C@@]1([H])N2C(=O)[C@@]([H])(N([H])C(=O)c3c([H])c([H])c([H])c([H])c3[H])C([H])([H])C([H])([H])C(=O)N2C([H])([H])C([H])([H])C1([H])[H]
     RDKit          3D

 56 58  0  0  0  0  0  0  0  0999 V2000
    6.6420   -0.8597   -2.0798 O   0  0  0  0  0  0  0  0  0  0  0  0
    5.6351   -1.5048   -1.4052 C   0  0  0  0  0  0  0  0  0  0  0  0
    5.5375   -2.7566   -1.5826 O   0  0  0  0  0  0  0  0  0  0  0  0
    4.6981   -0.7804   -0.5078 C   0  0  0  0  0  0  0  0  0  0  0  0
    3.4955   -0.3752   -1.3368 C   0  0  2  0  0  0  0  0  0  0  0  0
    2.5144    0.3298   -0.5724 N   0  0  0  0  0  0  0  0  0  0  0  0
    2.1750    1.6892   -0.7052 C   0  0  0  0  0  0  0  0  0  0  0  0
    2.7682    2.3841   -1.5616 O   0  0  0  0  0  0  0  0  0  0  0  0
    1.1171    2.3286    0.1564 C   0  0  2  0  0  0  0  0  0  0  0  0
    1.8375    3.3428    1.0174 C   0  0  0  0  0  0  0  0  0  0  0  0
    1.3385    3.3470    2.4484 C   0  0  0  0  0  0  0  0  0  0  0  0
    1.7674    1.9801    3.0118 C   0  0  0  0  0  0  0  0  0  0  0  0
    0.9351    1.0418    2.2932 N   0  0  0  0  0  0  0  0  0  0  0  0
    0.4957    1.3470    1.0025 N   0  0  0  0  0  0  0  0  0  0  0  0
   -0.6393    0.6829    0.4107 C   0  0  0  0  0  0  0  0  0  0  0  0
   -0.7577    0.9214   -0.8083 O   0  0  0  0  0  0  0  0  0  0  0  0
   -1.6446   -0.1984    0.9889 C   0  0  2  0  0  0  0  0  0  0  0  0
   -1.2644   -1.2537    1.9213 C   0  0  0  0  0  0  0  0  0  0  0  0
    0.0795   -1.3726    2.4950 C   0  0  0  0  0  0  0  0  0  0  0  0
    0.6693   -0.1403    3.0785 C   0  0  0  0  0  0  0  0  0  0  0  0
    0.9571   -0.1009    4.3022 O   0  0  0  0  0  0  0  0  0  0  0  0
   -2.5069   -0.7091   -0.0838 N   0  0  0  0  0  0  0  0  0  0  0  0
   -3.8657   -0.3783   -0.2186 C   0  0  0  0  0  0  0  0  0  0  0  0
   -4.3538    0.3998    0.6377 O   0  0  0  0  0  0  0  0  0  0  0  0
   -4.7288   -0.8802   -1.2788 C   0  0  0  0  0  0  0  0  0  0  0  0
   -6.0745   -0.5850   -1.2620 C   0  0  0  0  0  0  0  0  0  0  0  0
   -6.9468   -1.0220   -2.2278 C   0  0  0  0  0  0  0  0  0  0  0  0
   -6.4716   -1.7908   -3.2663 C   0  0  0  0  0  0  0  0  0  0  0  0
   -5.1326   -2.0862   -3.2855 C   0  0  0  0  0  0  0  0  0  0  0  0
   -4.2586   -1.6480   -2.3171 C   0  0  0  0  0  0  0  0  0  0  0  0
    2.8979   -1.5133   -2.0520 C   0  0  0  0  0  0  0  0  0  0  0  0
    1.6992   -1.7527   -1.9335 O   0  0  0  0  0  0  0  0  0  0  0  0
    7.4489   -0.4224   -1.6691 H   0  0  0  0  0  0  0  0  0  0  0  0
    5.2286    0.1476   -0.2040 H   0  0  0  0  0  0  0  0  0  0  0  0
    4.4322   -1.4113    0.3563 H   0  0  0  0  0  0  0  0  0  0  0  0
    3.9185    0.3267   -2.1151 H   0  0  0  0  0  0  0  0  0  0  0  0
    1.9998   -0.2391    0.1632 H   0  0  0  0  0  0  0  0  0  0  0  0
    0.3817    2.7725   -0.5223 H   0  0  0  0  0  0  0  0  0  0  0  0
    1.8222    4.3460    0.5678 H   0  0  0  0  0  0  0  0  0  0  0  0
    2.9316    3.0844    1.1004 H   0  0  0  0  0  0  0  0  0  0  0  0
    0.2426    3.3661    2.4059 H   0  0  0  0  0  0  0  0  0  0  0  0
    1.7962    4.1711    2.9878 H   0  0  0  0  0  0  0  0  0  0  0  0
    1.5651    1.9880    4.0948 H   0  0  0  0  0  0  0  0  0  0  0  0
    2.8497    1.7991    2.8084 H   0  0  0  0  0  0  0  0  0  0  0  0
   -2.3422    0.5011    1.5626 H   0  0  0  0  0  0  0  0  0  0  0  0
   -1.4545   -2.2436    1.3864 H   0  0  0  0  0  0  0  0  0  0  0  0
   -1.9986   -1.3343    2.7851 H   0  0  0  0  0  0  0  0  0  0  0  0
    0.7954   -1.7099    1.6860 H   0  0  0  0  0  0  0  0  0  0  0  0
    0.0736   -2.1782    3.2646 H   0  0  0  0  0  0  0  0  0  0  0  0
   -2.0788   -1.3504   -0.7782 H   0  0  0  0  0  0  0  0  0  0  0  0
   -6.5155    0.0219   -0.4678 H   0  0  0  0  0  0  0  0  0  0  0  0
   -8.0148   -0.7825   -2.2089 H   0  0  0  0  0  0  0  0  0  0  0  0
   -7.1592   -2.1487   -4.0498 H   0  0  0  0  0  0  0  0  0  0  0  0
   -4.7662   -2.7012   -4.1240 H   0  0  0  0  0  0  0  0  0  0  0  0
   -3.2058   -1.9050   -2.3710 H   0  0  0  0  0  0  0  0  0  0  0  0
    3.4346   -2.1840   -2.6967 H   0  0  0  0  0  0  0  0  0  0  0  0
  1  2  1  0
  2  3  2  0
  2  4  1  0
  4  5  1  0
  5  6  1  0
  6  7  1  0
  7  8  2  0
  7  9  1  0
  9 10  1  0
 10 11  1  0
 11 12  1  0
 12 13  1  0
 13 14  1  0
 14 15  1  0
 15 16  2  0
 15 17  1  0
 17 18  1  0
 18 19  1  0
 19 20  1  0
 20 21  2  0
 17 22  1  0
 22 23  1  0
 23 24  2  0
 23 25  1  0
 25 26  2  0
 26 27  1  0
 27 28  2  0
 28 29  1  0
 29 30  2  0
  5 31  1  0
 31 32  2  0
 14  9  1  0
 30 25  1  0
 20 13  1  0
  1 33  1  0
  4 34  1  0
  4 35  1  0
  5 36  1  6
  6 37  1  0
  9 38  1  6
 10 39  1  0
 10 40  1  0
 11 41  1  0
 11 42  1  0
 12 43  1  0
 12 44  1  0
 17 45  1  1
 18 46  1  0
 18 47  1  0
 19 48  1  0
 19 49  1  0
 22 50  1  0
 26 51  1  0
 27 52  1  0
 28 53  1  0
 29 54  1  0
 30 55  1  0
 31 56  1  0
M  END
$$$$
[H]c1c([H])c([H])c(C([H])([H])[C@@]([H])(C(=O)N([H])[H])N([H])C(=O)[C@@]([H])(N([H])C(=O)[C@@]([H])(C(=O)N([H])[C@]([H])(C(=O)N([H])[C@]([H])(C(=O)N([H])[C@]([H])(C(=O)N([H])[H])C([H])([H])C([H])(C([H])([H])[H])C([H])([H])[H])C([H])([H])C([H])([H])C(=O)N([H])[H])C([H])([H])C([H])([H])C(=O)N([H])[H])N([H])C(=O)C([H])([H])[H])C([H])([H])C([H])([H])C([H])([H])N=C(N([H])[H])N([H])[H])c([H])c1[H]
     RDKit          3D

116116  0  0  0  0  0  0  0  0999 V2000
    7.6371   -2.9332   -1.6798 C   0  0  0  0  0  0  0  0  0  0  0  0
    7.5393   -1.4361   -1.9656 C   0  0  0  0  0  0  0  0  0  0  0  0
    6.0915   -1.0697   -1.9562 C   0  0  0  0  0  0  0  0  0  0  0  0
    8.4805   -0.6315   -1.1896 C   0  0  0  0  0  0  0  0  0  0  0  0
    8.4499   -0.6325    0.2913 C   0  0  2  0  0  0  0  0  0  0  0  0
    7.2579   -0.1167    0.8687 N   0  0  0  0  0  0  0  0  0  0  0  0
    6.1811   -0.7676    1.4836 C   0  0  0  0  0  0  0  0  0  0  0  0
    6.1683   -2.0162    1.5727 O   0  0  0  0  0  0  0  0  0  0  0  0
    5.0171    0.0084    2.0452 C   0  0  2  0  0  0  0  0  0  0  0  0
    5.1595    0.0640    3.5561 C   0  0  0  0  0  0  0  0  0  0  0  0
    4.0155    0.8182    4.1464 C   0  0  0  0  0  0  0  0  0  0  0  0
    3.8965    2.2273    3.7227 C   0  0  0  0  0  0  0  0  0  0  0  0
    2.6502    2.9237    3.7753 N   0  0  0  0  0  0  0  0  0  0  0  0
    4.8991    2.8536    3.3030 O   0  0  0  0  0  0  0  0  0  0  0  0
    3.7381   -0.5878    1.6452 N   0  0  0  0  0  0  0  0  0  0  0  0
    2.8674    0.0930    0.8011 C   0  0  0  0  0  0  0  0  0  0  0  0
    3.2808    1.2558    0.3936 O   0  0  0  0  0  0  0  0  0  0  0  0
    1.5425   -0.2552    0.2775 C   0  0  2  0  0  0  0  0  0  0  0  0
    1.6641   -0.8365   -1.1353 C   0  0  0  0  0  0  0  0  0  0  0  0
    0.3318   -1.2205   -1.7140 C   0  0  0  0  0  0  0  0  0  0  0  0
    0.5538   -1.7874   -3.0772 C   0  0  0  0  0  0  0  0  0  0  0  0
   -0.5901   -1.9756   -3.8883 N   0  0  0  0  0  0  0  0  0  0  0  0
    1.7060   -2.0658   -3.4382 O   0  0  0  0  0  0  0  0  0  0  0  0
    0.6973    0.9321    0.3297 N   0  0  0  0  0  0  0  0  0  0  0  0
    0.5591    1.9386   -0.6228 C   0  0  0  0  0  0  0  0  0  0  0  0
    1.2229    1.8485   -1.7121 O   0  0  0  0  0  0  0  0  0  0  0  0
   -0.2957    3.1178   -0.4570 C   0  0  1  0  0  0  0  0  0  0  0  0
   -0.1600    4.0923   -1.4973 N   0  0  0  0  0  0  0  0  0  0  0  0
    0.3098    5.3830   -1.3281 C   0  0  0  0  0  0  0  0  0  0  0  0
    0.4352    6.3566   -2.4691 C   0  0  0  0  0  0  0  0  0  0  0  0
    0.6889    5.8937   -0.2052 O   0  0  0  0  0  0  0  0  0  0  0  0
   -1.7169    2.8517   -0.2106 C   0  0  0  0  0  0  0  0  0  0  0  0
   -2.4320    3.9167   -0.0723 O   0  0  0  0  0  0  0  0  0  0  0  0
   -2.3287    1.5928   -0.1245 N   0  0  0  0  0  0  0  0  0  0  0  0
   -3.7169    1.3708    0.1307 C   0  0  1  0  0  0  0  0  0  0  0  0
   -4.6334    2.0134   -0.9083 C   0  0  0  0  0  0  0  0  0  0  0  0
   -4.4365    1.5521   -2.3034 C   0  0  0  0  0  0  0  0  0  0  0  0
   -5.4572    2.3771   -3.1377 C   0  0  0  0  0  0  0  0  0  0  0  0
   -6.7782    2.1116   -2.6750 N   0  0  0  0  0  0  0  0  0  0  0  0
   -7.4962    3.0126   -2.1199 C   0  0  0  0  0  0  0  0  0  0  0  0
   -8.8221    2.7058   -1.6630 N   0  0  0  0  0  0  0  0  0  0  0  0
   -7.0462    4.3492   -1.9369 N   0  0  0  0  0  0  0  0  0  0  0  0
   -4.0537   -0.0256    0.3871 C   0  0  0  0  0  0  0  0  0  0  0  0
   -3.0274   -0.8270    0.4054 O   0  0  0  0  0  0  0  0  0  0  0  0
   -5.2800   -0.6260    0.6056 N   0  0  0  0  0  0  0  0  0  0  0  0
   -5.3411   -2.0885    0.8307 C   0  0  1  0  0  0  0  0  0  0  0  0
   -6.3826   -2.4324    1.8245 C   0  0  0  0  0  0  0  0  0  0  0  0
   -6.5825   -3.8419    2.1338 C   0  0  0  0  0  0  0  0  0  0  0  0
   -5.8036   -4.5233    3.0645 C   0  0  0  0  0  0  0  0  0  0  0  0
   -5.9902   -5.8399    3.3745 C   0  0  0  0  0  0  0  0  0  0  0  0
   -7.0047   -6.5430    2.7353 C   0  0  0  0  0  0  0  0  0  0  0  0
   -7.7971   -5.9032    1.8072 C   0  0  0  0  0  0  0  0  0  0  0  0
   -7.5904   -4.5795    1.5120 C   0  0  0  0  0  0  0  0  0  0  0  0
   -5.4714   -2.6992   -0.5004 C   0  0  0  0  0  0  0  0  0  0  0  0
   -5.3673   -4.0950   -0.6651 N   0  0  0  0  0  0  0  0  0  0  0  0
   -5.6690   -1.9998   -1.5083 O   0  0  0  0  0  0  0  0  0  0  0  0
    9.6540    0.1508    0.7412 C   0  0  0  0  0  0  0  0  0  0  0  0
   10.9681   -0.1122    0.3403 N   0  0  0  0  0  0  0  0  0  0  0  0
    9.4552    1.1255    1.5460 O   0  0  0  0  0  0  0  0  0  0  0  0
    8.5899   -3.3454   -2.1030 H   0  0  0  0  0  0  0  0  0  0  0  0
    7.5172   -3.1810   -0.6207 H   0  0  0  0  0  0  0  0  0  0  0  0
    6.8194   -3.4168   -2.2457 H   0  0  0  0  0  0  0  0  0  0  0  0
    7.8287   -1.3957   -3.0844 H   0  0  0  0  0  0  0  0  0  0  0  0
    5.6260   -1.2648   -2.9893 H   0  0  0  0  0  0  0  0  0  0  0  0
    5.9332   -0.0228   -1.6562 H   0  0  0  0  0  0  0  0  0  0  0  0
    5.5049   -1.7691   -1.2929 H   0  0  0  0  0  0  0  0  0  0  0  0
    9.5284   -0.8457   -1.5818 H   0  0  0  0  0  0  0  0  0  0  0  0
    8.3488    0.4530   -1.5366 H   0  0  0  0  0  0  0  0  0  0  0  0
    8.6154   -1.6765    0.6974 H   0  0  0  0  0  0  0  0  0  0  0  0
    7.1663    0.9538    0.8239 H   0  0  0  0  0  0  0  0  0  0  0  0
    5.1123    1.0399    1.6626 H   0  0  0  0  0  0  0  0  0  0  0  0
    5.2016   -0.9246    4.0225 H   0  0  0  0  0  0  0  0  0  0  0  0
    6.0804    0.6593    3.7633 H   0  0  0  0  0  0  0  0  0  0  0  0
    3.9801    0.7368    5.2607 H   0  0  0  0  0  0  0  0  0  0  0  0
    3.0778    0.2974    3.8098 H   0  0  0  0  0  0  0  0  0  0  0  0
    2.5764    3.8451    3.3124 H   0  0  0  0  0  0  0  0  0  0  0  0
    1.8146    2.5390    4.2571 H   0  0  0  0  0  0  0  0  0  0  0  0
    3.5111   -1.5164    2.0155 H   0  0  0  0  0  0  0  0  0  0  0  0
    1.0688   -1.0424    0.8588 H   0  0  0  0  0  0  0  0  0  0  0  0
    2.1962   -1.8190   -0.9659 H   0  0  0  0  0  0  0  0  0  0  0  0
    2.3202   -0.2703   -1.7903 H   0  0  0  0  0  0  0  0  0  0  0  0
   -0.4257   -0.4335   -1.7388 H   0  0  0  0  0  0  0  0  0  0  0  0
   -0.0386   -2.0897   -1.1002 H   0  0  0  0  0  0  0  0  0  0  0  0
   -1.4787   -2.4483   -3.5637 H   0  0  0  0  0  0  0  0  0  0  0  0
   -0.5610   -1.6320   -4.8712 H   0  0  0  0  0  0  0  0  0  0  0  0
    0.0974    1.0674    1.2156 H   0  0  0  0  0  0  0  0  0  0  0  0
    0.0507    3.6623    0.5039 H   0  0  0  0  0  0  0  0  0  0  0  0
   -0.4410    3.8282   -2.5030 H   0  0  0  0  0  0  0  0  0  0  0  0
    0.0377    5.8590   -3.3659 H   0  0  0  0  0  0  0  0  0  0  0  0
    1.4627    6.7205   -2.5887 H   0  0  0  0  0  0  0  0  0  0  0  0
   -0.1913    7.2572   -2.2377 H   0  0  0  0  0  0  0  0  0  0  0  0
   -1.7427    0.7375   -0.2518 H   0  0  0  0  0  0  0  0  0  0  0  0
   -3.9535    1.9858    1.0557 H   0  0  0  0  0  0  0  0  0  0  0  0
   -4.5231    3.1026   -0.8548 H   0  0  0  0  0  0  0  0  0  0  0  0
   -5.6667    1.7083   -0.5983 H   0  0  0  0  0  0  0  0  0  0  0  0
   -3.4429    1.7787   -2.7412 H   0  0  0  0  0  0  0  0  0  0  0  0
   -4.6462    0.5043   -2.5024 H   0  0  0  0  0  0  0  0  0  0  0  0
   -5.1993    3.4312   -2.8966 H   0  0  0  0  0  0  0  0  0  0  0  0
   -5.3042    2.1838   -4.2150 H   0  0  0  0  0  0  0  0  0  0  0  0
   -9.4808    3.4751   -1.5089 H   0  0  0  0  0  0  0  0  0  0  0  0
   -9.0701    1.7197   -1.5083 H   0  0  0  0  0  0  0  0  0  0  0  0
   -7.4049    5.0794   -2.5776 H   0  0  0  0  0  0  0  0  0  0  0  0
   -6.3808    4.6020   -1.1900 H   0  0  0  0  0  0  0  0  0  0  0  0
   -6.1513   -0.0497    0.6168 H   0  0  0  0  0  0  0  0  0  0  0  0
   -4.3340   -2.4103    1.2226 H   0  0  0  0  0  0  0  0  0  0  0  0
   -7.3567   -2.0162    1.4832 H   0  0  0  0  0  0  0  0  0  0  0  0
   -6.1780   -1.8739    2.7890 H   0  0  0  0  0  0  0  0  0  0  0  0
   -5.0152   -3.9757    3.5605 H   0  0  0  0  0  0  0  0  0  0  0  0
   -5.3809   -6.3629    4.0955 H   0  0  0  0  0  0  0  0  0  0  0  0
   -7.1367   -7.5787    2.9866 H   0  0  0  0  0  0  0  0  0  0  0  0
   -8.5808   -6.4949    1.3267 H   0  0  0  0  0  0  0  0  0  0  0  0
   -8.2331   -4.1099    0.7768 H   0  0  0  0  0  0  0  0  0  0  0  0
   -5.7534   -4.6136   -1.4713 H   0  0  0  0  0  0  0  0  0  0  0  0
   -4.8622   -4.6607    0.0647 H   0  0  0  0  0  0  0  0  0  0  0  0
   11.6853   -0.3545    1.0714 H   0  0  0  0  0  0  0  0  0  0  0  0
   11.3349   -0.1000   -0.6370 H   0  0  0  0  0  0  0  0  0  0  0  0
  1  2  1  0
  2  3  1  0
  2  4  1  0
  4  5  1  0
  5  6  1  0
  6  7  1  0
  7  8  2  0
  7  9  1  0
  9 10  1  0
 10 11  1  0
 11 12  1  0
 12 13  1  0
 12 14  2  0
  9 15  1  0
 15 16  1  0
 16 17  2  0
 16 18  1  0
 18 19  1  0
 19 20  1  0
 20 21  1  0
 21 22  1  0
 21 23  2  0
 18 24  1  0
 24 25  1  0
 25 26  2  0
 25 27  1  0
 27 28  1  0
 28 29  1  0
 29 30  1  0
 29 31  2  0
 27 32  1  0
 32 33  2  0
 32 34  1  0
 34 35  1  0
 35 36  1  0
 36 37  1  0
 37 38  1  0
 38 39  1  0
 39 40  2  3
 40 41  1  0
 40 42  1  0
 35 43  1  0
 43 44  2  0
 43 45  1  0
 45 46  1  0
 46 47  1  0
 47 48  1  0
 48 49  2  0
 49 50  1  0
 50 51  2  0
 51 52  1  0
 52 53  2  0
 46 54  1  0
 54 55  1  0
 54 56  2  0
  5 57  1  0
 57 58  1  0
 57 59  2  0
 53 48  1  0
  1 60  1  0
  1 61  1  0
  1 62  1  0
  2 63  1  0
  3 64  1  0
  3 65  1  0
  3 66  1  0
  4 67  1  0
  4 68  1  0
  5 69  1  1
  6 70  1  0
  9 71  1  6
 10 72  1  0
 10 73  1  0
 11 74  1  0
 11 75  1  0
 13 76  1  0
 13 77  1  0
 15 78  1  0
 18 79  1  1
 19 80  1  0
 19 81  1  0
 20 82  1  0
 20 83  1  0
 22 84  1  0
 22 85  1  0
 24 86  1  0
 27 87  1  1
 28 88  1  0
 30 89  1  0
 30 90  1  0
 30 91  1  0
 34 92  1  0
 35 93  1  1
 36 94  1  0
 36 95  1  0
 37 96  1  0
 37 97  1  0
 38 98  1  0
 38 99  1  0
 41100  1  0
 41101  1  0
 42102  1  0
 42103  1  0
 45104  1  0
 46105  1  1
 47106  1  0
 47107  1  0
 49108  1  0
 50109  1  0
 51110  1  0
 52111  1  0
 53112  1  0
 55113  1  0
 55114  1  0
 58115  1  0
 58116  1  0
M  END
$$$$
[H]OC(=O)c1c([H])c([H])c(C(=O)[C@]2([H])C([H])([H])C([H])([H])[C@]([H])(N([H])C(=O)/C([H])=C(/[H])c3nc([H])c([H])c([H])c3-c3nc([H])c([H])c([H])n3)C([H])([H])C2([H])[H])c([H])c1[H]
     RDKit          3D

 58 61  0  0  0  0  0  0  0  0999 V2000
    9.9182   -1.5757   -0.9157 O   0  0  0  0  0  0  0  0  0  0  0  0
    9.2779   -0.4858   -1.4773 C   0  0  0  0  0  0  0  0  0  0  0  0
    9.8384    0.1233   -2.4167 O   0  0  0  0  0  0  0  0  0  0  0  0
    7.9734   -0.0057   -1.0282 C   0  0  0  0  0  0  0  0  0  0  0  0
    7.2852   -0.6155   -0.0011 C   0  0  0  0  0  0  0  0  0  0  0  0
    6.0371   -0.1497    0.4228 C   0  0  0  0  0  0  0  0  0  0  0  0
    5.4226    0.9387   -0.1564 C   0  0  0  0  0  0  0  0  0  0  0  0
    6.1447    1.5436   -1.2014 C   0  0  0  0  0  0  0  0  0  0  0  0
    7.3681    1.0839   -1.6134 C   0  0  0  0  0  0  0  0  0  0  0  0
    4.1233    1.4502    0.2242 C   0  0  0  0  0  0  0  0  0  0  0  0
    3.7202    2.5059   -0.3088 O   0  0  0  0  0  0  0  0  0  0  0  0
    3.2834    0.7630    1.2013 C   0  0  2  0  0  0  0  0  0  0  0  0
    2.7596   -0.5741    0.7900 C   0  0  0  0  0  0  0  0  0  0  0  0
    1.7328   -0.3856   -0.3138 C   0  0  0  0  0  0  0  0  0  0  0  0
    0.5520    0.3056    0.3336 C   0  0  1  0  0  0  0  0  0  0  0  0
    1.0347    1.7113    0.6958 C   0  0  0  0  0  0  0  0  0  0  0  0
    2.1383    1.6034    1.7131 C   0  0  0  0  0  0  0  0  0  0  0  0
   -0.5691    0.4341   -0.5286 N   0  0  0  0  0  0  0  0  0  0  0  0
   -1.8496   -0.1582   -0.1017 C   0  0  0  0  0  0  0  0  0  0  0  0
   -1.7700   -0.7092    0.9947 O   0  0  0  0  0  0  0  0  0  0  0  0
   -2.8987    0.0305   -1.0318 C   0  0  0  0  0  0  0  0  0  0  0  0
   -4.1218   -0.3783   -0.9540 C   0  0  0  0  0  0  0  0  0  0  0  0
   -4.6870   -1.1345    0.1126 C   0  0  0  0  0  0  0  0  0  0  0  0
   -4.0064   -1.9053    0.9749 N   0  0  0  0  0  0  0  0  0  0  0  0
   -4.5173   -2.6094    1.9920 C   0  0  0  0  0  0  0  0  0  0  0  0
   -5.8699   -2.5989    2.2535 C   0  0  0  0  0  0  0  0  0  0  0  0
   -6.6252   -1.8318    1.4149 C   0  0  0  0  0  0  0  0  0  0  0  0
   -6.0640   -1.0963    0.3486 C   0  0  0  0  0  0  0  0  0  0  0  0
   -6.9755   -0.2990   -0.4355 C   0  0  0  0  0  0  0  0  0  0  0  0
   -6.7208    0.6274   -1.3391 N   0  0  0  0  0  0  0  0  0  0  0  0
   -7.6039    1.3290   -2.0457 C   0  0  0  0  0  0  0  0  0  0  0  0
   -8.9413    1.0920   -1.8411 C   0  0  0  0  0  0  0  0  0  0  0  0
   -9.2751    0.1384   -0.9125 C   0  0  0  0  0  0  0  0  0  0  0  0
   -8.3252   -0.5216   -0.2452 N   0  0  0  0  0  0  0  0  0  0  0  0
    9.3194   -2.3603   -0.6195 H   0  0  0  0  0  0  0  0  0  0  0  0
    7.7597   -1.4733    0.4611 H   0  0  0  0  0  0  0  0  0  0  0  0
    5.5468   -0.6473    1.2407 H   0  0  0  0  0  0  0  0  0  0  0  0
    5.6702    2.4038   -1.6658 H   0  0  0  0  0  0  0  0  0  0  0  0
    7.8766    1.6046   -2.4360 H   0  0  0  0  0  0  0  0  0  0  0  0
    3.9735    0.5975    2.1007 H   0  0  0  0  0  0  0  0  0  0  0  0
    2.1924   -0.9622    1.6887 H   0  0  0  0  0  0  0  0  0  0  0  0
    3.4801   -1.3486    0.5562 H   0  0  0  0  0  0  0  0  0  0  0  0
    2.1787    0.2700   -1.0619 H   0  0  0  0  0  0  0  0  0  0  0  0
    1.4251   -1.3721   -0.6974 H   0  0  0  0  0  0  0  0  0  0  0  0
    0.3196   -0.2433    1.2544 H   0  0  0  0  0  0  0  0  0  0  0  0
    0.1336    2.1761    1.1985 H   0  0  0  0  0  0  0  0  0  0  0  0
    1.2944    2.2574   -0.2088 H   0  0  0  0  0  0  0  0  0  0  0  0
    1.7053    1.0307    2.5799 H   0  0  0  0  0  0  0  0  0  0  0  0
    2.4789    2.5858    2.0673 H   0  0  0  0  0  0  0  0  0  0  0  0
   -0.5023    0.9280   -1.4355 H   0  0  0  0  0  0  0  0  0  0  0  0
   -2.6396    0.6231   -1.9815 H   0  0  0  0  0  0  0  0  0  0  0  0
   -4.7755   -0.1568   -1.8610 H   0  0  0  0  0  0  0  0  0  0  0  0
   -3.8869   -3.2120    2.6455 H   0  0  0  0  0  0  0  0  0  0  0  0
   -6.2879   -3.1661    3.0722 H   0  0  0  0  0  0  0  0  0  0  0  0
   -7.6920   -1.7904    1.5857 H   0  0  0  0  0  0  0  0  0  0  0  0
   -7.3196    2.0718   -2.7686 H   0  0  0  0  0  0  0  0  0  0  0  0
   -9.7085    1.6165   -2.3717 H   0  0  0  0  0  0  0  0  0  0  0  0
  -10.3309   -0.0787   -0.7215 H   0  0  0  0  0  0  0  0  0  0  0  0
  1  2  1  0
  2  3  2  0
  2  4  1  0
  4  5  2  0
  5  6  1  0
  6  7  2  0
  7  8  1  0
  8  9  2  0
  7 10  1  0
 10 11  2  0
 10 12  1  0
 12 13  1  0
 13 14  1  0
 14 15  1  0
 15 16  1  0
 16 17  1  0
 15 18  1  0
 18 19  1  0
 19 20  2  0
 19 21  1  0
 21 22  2  0
 22 23  1  0
 23 24  2  0
 24 25  1  0
 25 26  2  0
 26 27  1  0
 27 28  2  0
 28 29  1  0
 29 30  2  0
 30 31  1  0
 31 32  2  0
 32 33  1  0
 33 34  2  0
  9  4  1  0
 17 12  1  0
 28 23  1  0
 34 29  1  0
  1 35  1  0
  5 36  1  0
  6 37  1  0
  8 38  1  0
  9 39  1  0
 12 40  1  1
 13 41  1  0
 13 42  1  0
 14 43  1  0
 14 44  1  0
 15 45  1  1
 16 46  1  0
 16 47  1  0
 17 48  1  0
 17 49  1  0
 18 50  1  0
 21 51  1  0
 22 52  1  0
 25 53  1  0
 26 54  1  0
 27 55  1  0
 31 56  1  0
 32 57  1  0
 33 58  1  0
M  END
$$$$
[H]c1nc(C([H])([H])Oc2c([H])c([H])c(C(=O)N([H])C([H])([H])c3c([H])c([H])c(F)c([H])c3[H])c(Cl)c2[H])n(C([H])(C([H])([H])[H])C([H])([H])[H])c1[H]
     RDKit          3D

 49 51  0  0  0  0  0  0  0  0999 V2000
   -4.3067    2.0489    0.2412 C   0  0  0  0  0  0  0  0  0  0  0  0
   -5.1970    1.0031    0.7441 C   0  0  0  0  0  0  0  0  0  0  0  0
   -6.5607    1.2051    0.0545 C   0  0  0  0  0  0  0  0  0  0  0  0
   -4.8677   -0.3621    0.5783 N   0  0  0  0  0  0  0  0  0  0  0  0
   -5.2315   -1.2880    1.5101 C   0  0  0  0  0  0  0  0  0  0  0  0
   -4.8109   -2.5107    1.1148 C   0  0  0  0  0  0  0  0  0  0  0  0
   -4.1931   -2.3201   -0.0562 N   0  0  0  0  0  0  0  0  0  0  0  0
   -4.2137   -1.0320   -0.4016 C   0  0  0  0  0  0  0  0  0  0  0  0
   -3.6767   -0.3900   -1.5879 C   0  0  0  0  0  0  0  0  0  0  0  0
   -2.4543    0.2374   -1.5069 O   0  0  0  0  0  0  0  0  0  0  0  0
   -1.1858   -0.1656   -1.2620 C   0  0  0  0  0  0  0  0  0  0  0  0
   -0.7440   -1.4474   -1.0281 C   0  0  0  0  0  0  0  0  0  0  0  0
    0.6036   -1.7389   -0.7830 C   0  0  0  0  0  0  0  0  0  0  0  0
    1.5448   -0.7500   -0.7664 C   0  0  0  0  0  0  0  0  0  0  0  0
    1.1363    0.5430   -0.9967 C   0  0  0  0  0  0  0  0  0  0  0  0
    2.3388    1.8192   -0.9760 Cl  0  0  0  0  0  0  0  0  0  0  0  0
   -0.1828    0.8256   -1.2362 C   0  0  0  0  0  0  0  0  0  0  0  0
    2.9360   -1.1233   -0.5029 C   0  0  0  0  0  0  0  0  0  0  0  0
    3.7260   -1.4178   -1.4462 O   0  0  0  0  0  0  0  0  0  0  0  0
    3.4223   -1.1617    0.8201 N   0  0  0  0  0  0  0  0  0  0  0  0
    4.7765   -1.5176    1.1623 C   0  0  0  0  0  0  0  0  0  0  0  0
    5.6478   -0.3389    0.8803 C   0  0  0  0  0  0  0  0  0  0  0  0
    6.4783   -0.2637   -0.2154 C   0  0  0  0  0  0  0  0  0  0  0  0
    7.2758    0.8659   -0.4335 C   0  0  0  0  0  0  0  0  0  0  0  0
    7.2380    1.9156    0.4472 C   0  0  0  0  0  0  0  0  0  0  0  0
    8.0051    3.0331    0.2623 F   0  0  0  0  0  0  0  0  0  0  0  0
    6.4142    1.8515    1.5422 C   0  0  0  0  0  0  0  0  0  0  0  0
    5.6385    0.7481    1.7508 C   0  0  0  0  0  0  0  0  0  0  0  0
   -4.7026    3.0249    0.6727 H   0  0  0  0  0  0  0  0  0  0  0  0
   -4.4220    2.2259   -0.8575 H   0  0  0  0  0  0  0  0  0  0  0  0
   -3.2661    2.0347    0.5938 H   0  0  0  0  0  0  0  0  0  0  0  0
   -5.4233    1.2339    1.8278 H   0  0  0  0  0  0  0  0  0  0  0  0
   -6.4194    1.6870   -0.9477 H   0  0  0  0  0  0  0  0  0  0  0  0
   -7.2234    1.8520    0.6271 H   0  0  0  0  0  0  0  0  0  0  0  0
   -7.0512    0.2360   -0.1645 H   0  0  0  0  0  0  0  0  0  0  0  0
   -5.7785   -1.1156    2.4465 H   0  0  0  0  0  0  0  0  0  0  0  0
   -4.9474   -3.4667    1.6446 H   0  0  0  0  0  0  0  0  0  0  0  0
   -4.4350    0.2091   -2.1561 H   0  0  0  0  0  0  0  0  0  0  0  0
   -3.5150   -1.2363   -2.3473 H   0  0  0  0  0  0  0  0  0  0  0  0
   -1.4591   -2.2428   -1.0490 H   0  0  0  0  0  0  0  0  0  0  0  0
    0.9110   -2.7698   -0.6019 H   0  0  0  0  0  0  0  0  0  0  0  0
   -0.4970    1.8559   -1.4181 H   0  0  0  0  0  0  0  0  0  0  0  0
    2.7811   -0.9222    1.6046 H   0  0  0  0  0  0  0  0  0  0  0  0
    5.1662   -2.3315    0.5148 H   0  0  0  0  0  0  0  0  0  0  0  0
    4.9003   -1.7615    2.2268 H   0  0  0  0  0  0  0  0  0  0  0  0
    6.5292   -1.0704   -0.9156 H   0  0  0  0  0  0  0  0  0  0  0  0
    7.9095    0.8772   -1.3060 H   0  0  0  0  0  0  0  0  0  0  0  0
    6.3924    2.7009    2.2438 H   0  0  0  0  0  0  0  0  0  0  0  0
    4.9935    0.7108    2.6180 H   0  0  0  0  0  0  0  0  0  0  0  0
  1  2  1  0
  2  3  1  0
  2  4  1  0
  4  5  1  0
  5  6  2  0
  6  7  1  0
  7  8  2  0
  8  9  1  0
  9 10  1  0
 10 11  1  0
 11 12  2  0
 12 13  1  0
 13 14  2  0
 14 15  1  0
 15 16  1  0
 15 17  2  0
 14 18  1  0
 18 19  2  0
 18 20  1  0
 20 21  1  0
 21 22  1  0
 22 23  2  0
 23 24  1  0
 24 25  2  0
 25 26  1  0
 25 27  1  0
 27 28  2  0
  8  4  1  0
 17 11  1  0
 28 22  1  0
  1 29  1  0
  1 30  1  0
  1 31  1  0
  2 32  1  0
  3 33  1  0
  3 34  1  0
  3 35  1  0
  5 36  1  0
  6 37  1  0
  9 38  1  0
  9 39  1  0
 12 40  1  0
 13 41  1  0
 17 42  1  0
 20 43  1  0
 21 44  1  0
 21 45  1  0
 23 46  1  0
 24 47  1  0
 27 48  1  0
 28 49  1  0
M  END
$$$$
[H]c1c([H])c(C([H])([H])[H])c(N([H])C(=O)N([H])S(=O)(=O)c2c([H])c([H])c(C(=O)N3C([H])([H])C([H])([H])N(C([H])([H])[H])C([H])([H])C3([H])[H])c([H])c2[H])c([H])c1OC(F)(F)F
     RDKit          3D

 57 59  0  0  0  0  0  0  0  0999 V2000
    9.0089    1.1467    0.5651 C   0  0  0  0  0  0  0  0  0  0  0  0
    7.6027    1.0171    0.1441 N   0  0  0  0  0  0  0  0  0  0  0  0
    7.2684   -0.3536    0.0336 C   0  0  0  0  0  0  0  0  0  0  0  0
    5.8210   -0.7469    0.1114 C   0  0  0  0  0  0  0  0  0  0  0  0
    5.0696    0.1617    0.8861 N   0  0  0  0  0  0  0  0  0  0  0  0
    5.8986    0.9691    1.8502 C   0  0  0  0  0  0  0  0  0  0  0  0
    6.7579    1.8202    0.9618 C   0  0  0  0  0  0  0  0  0  0  0  0
    3.6999    0.3724    0.9099 C   0  0  0  0  0  0  0  0  0  0  0  0
    3.3153    1.3657    1.6874 O   0  0  0  0  0  0  0  0  0  0  0  0
    2.6617   -0.3378    0.2024 C   0  0  0  0  0  0  0  0  0  0  0  0
    2.7637   -1.5508   -0.4142 C   0  0  0  0  0  0  0  0  0  0  0  0
    1.6649   -2.1025   -1.0889 C   0  0  0  0  0  0  0  0  0  0  0  0
    0.4620   -1.4626   -1.1581 C   0  0  0  0  0  0  0  0  0  0  0  0
    0.3406   -0.2388   -0.5426 C   0  0  0  0  0  0  0  0  0  0  0  0
    1.3976    0.2967    0.1087 C   0  0  0  0  0  0  0  0  0  0  0  0
   -0.9342   -2.1721   -1.9109 S   0  0  0  0  0  0  0  0  0  0  0  0
   -0.8019   -3.6961   -1.8253 O   0  0  0  0  0  0  0  0  0  0  0  0
   -1.0451   -1.8011   -3.3561 O   0  0  0  0  0  0  0  0  0  0  0  0
   -2.3734   -1.7921   -1.0737 N   0  0  0  0  0  0  0  0  0  0  0  0
   -3.3674   -0.9594   -1.7334 C   0  0  0  0  0  0  0  0  0  0  0  0
   -2.9962   -0.6277   -2.9176 O   0  0  0  0  0  0  0  0  0  0  0  0
   -4.5369   -0.5790   -1.1727 N   0  0  0  0  0  0  0  0  0  0  0  0
   -5.7127   -0.1958   -0.6107 C   0  0  0  0  0  0  0  0  0  0  0  0
   -6.5513    0.8626   -0.9612 C   0  0  0  0  0  0  0  0  0  0  0  0
   -7.6692    1.2205   -0.2501 C   0  0  0  0  0  0  0  0  0  0  0  0
   -8.4351    2.2822   -0.6791 O   0  0  0  0  0  0  0  0  0  0  0  0
   -8.2390    3.6230   -0.2861 C   0  0  0  0  0  0  0  0  0  0  0  0
   -8.3930    3.6584    1.0886 F   0  0  0  0  0  0  0  0  0  0  0  0
   -9.1703    4.4056   -0.9359 F   0  0  0  0  0  0  0  0  0  0  0  0
   -6.9622    4.0435   -0.6252 F   0  0  0  0  0  0  0  0  0  0  0  0
   -8.0225    0.5336    0.8733 C   0  0  0  0  0  0  0  0  0  0  0  0
   -7.2397   -0.5187    1.2700 C   0  0  0  0  0  0  0  0  0  0  0  0
   -6.1314   -0.8670    0.5529 C   0  0  0  0  0  0  0  0  0  0  0  0
   -5.3676   -2.0327    1.0317 C   0  0  0  0  0  0  0  0  0  0  0  0
    9.6484    1.3156   -0.3108 H   0  0  0  0  0  0  0  0  0  0  0  0
    9.3271    0.2062    1.0856 H   0  0  0  0  0  0  0  0  0  0  0  0
    9.0926    2.0214    1.2544 H   0  0  0  0  0  0  0  0  0  0  0  0
    7.6307   -0.7684   -0.9649 H   0  0  0  0  0  0  0  0  0  0  0  0
    7.8388   -0.9568    0.8110 H   0  0  0  0  0  0  0  0  0  0  0  0
    5.4051   -0.8072   -0.9379 H   0  0  0  0  0  0  0  0  0  0  0  0
    5.7572   -1.7683    0.5460 H   0  0  0  0  0  0  0  0  0  0  0  0
    6.4520    0.2287    2.4299 H   0  0  0  0  0  0  0  0  0  0  0  0
    5.2368    1.6022    2.4589 H   0  0  0  0  0  0  0  0  0  0  0  0
    6.1081    2.4533    0.3401 H   0  0  0  0  0  0  0  0  0  0  0  0
    7.4180    2.4082    1.6460 H   0  0  0  0  0  0  0  0  0  0  0  0
    3.6802   -2.1074   -0.3683 H   0  0  0  0  0  0  0  0  0  0  0  0
    1.8157   -3.0780   -1.5647 H   0  0  0  0  0  0  0  0  0  0  0  0
   -0.6210    0.2955   -0.5857 H   0  0  0  0  0  0  0  0  0  0  0  0
    1.3158    1.2666    0.6086 H   0  0  0  0  0  0  0  0  0  0  0  0
   -2.5489   -2.1281   -0.1349 H   0  0  0  0  0  0  0  0  0  0  0  0
   -4.9711   -0.1309   -2.3941 H   0  0  0  0  0  0  0  0  0  0  0  0
   -6.2819    1.4485   -1.8608 H   0  0  0  0  0  0  0  0  0  0  0  0
   -8.9044    0.8273    1.4274 H   0  0  0  0  0  0  0  0  0  0  0  0
   -7.5522   -1.0451    2.1808 H   0  0  0  0  0  0  0  0  0  0  0  0
   -4.6347   -1.6564    1.8083 H   0  0  0  0  0  0  0  0  0  0  0  0
   -6.0903   -2.7322    1.5492 H   0  0  0  0  0  0  0  0  0  0  0  0
   -4.9057   -2.6391    0.2402 H   0  0  0  0  0  0  0  0  0  0  0  0
  1  2  1  0
  2  3  1  0
  3  4  1  0
  4  5  1  0
  5  6  1  0
  6  7  1  0
  5  8  1  0
  8  9  2  0
  8 10  1  0
 10 11  2  0
 11 12  1  0
 12 13  2  0
 13 14  1  0
 14 15  2  0
 13 16  1  0
 16 17  2  0
 16 18  2  0
 16 19  1  0
 19 20  1  0
 20 21  2  0
 20 22  1  0
 22 23  1  0
 23 24  2  0
 24 25  1  0
 25 26  1  0
 26 27  1  0
 27 28  1  0
 27 29  1  0
 27 30  1  0
 25 31  2  0
 31 32  1  0
 32 33  2  0
 33 34  1  0
  7  2  1  0
 15 10  1  0
 33 23  1  0
  1 35  1  0
  1 36  1  0
  1 37  1  0
  3 38  1  0
  3 39  1  0
  4 40  1  0
  4 41  1  0
  6 42  1  0
  6 43  1  0
  7 44  1  0
  7 45  1  0
 11 46  1  0
 12 47  1  0
 14 48  1  0
 15 49  1  0
 19 50  1  0
 22 51  1  0
 24 52  1  0
 31 53  1  0
 32 54  1  0
 34 55  1  0
 34 56  1  0
 34 57  1  0
M  END
$$$$
[H]c1c([H])c([H])c2c(c1[H])N=c1c([H])c([H])c(F)c([H])c1=C(N1C([H])([H])C([H])([H])N(C([H])([H])[H])C([H])([H])C1([H])[H])N2[H]
     RDKit          3D

 42 45  0  0  0  0  0  0  0  0999 V2000
    4.9503    0.6405    0.6478 C   0  0  0  0  0  0  0  0  0  0  0  0
    3.5891    1.0689    0.7105 N   0  0  0  0  0  0  0  0  0  0  0  0
    3.0165    1.4657   -0.5299 C   0  0  0  0  0  0  0  0  0  0  0  0
    1.9303    0.5743   -1.0484 C   0  0  0  0  0  0  0  0  0  0  0  0
    1.2051   -0.1112   -0.0234 N   0  0  0  0  0  0  0  0  0  0  0  0
    1.8656   -0.6540    1.1520 C   0  0  0  0  0  0  0  0  0  0  0  0
    2.7780    0.4436    1.6726 C   0  0  0  0  0  0  0  0  0  0  0  0
   -0.1945   -0.2113   -0.1292 C   0  0  0  0  0  0  0  0  0  0  0  0
   -0.7666   -1.2555   -0.6759 C   0  0  0  0  0  0  0  0  0  0  0  0
    0.1868   -2.1613   -1.0925 C   0  0  0  0  0  0  0  0  0  0  0  0
   -0.2200   -3.3570   -1.7086 C   0  0  0  0  0  0  0  0  0  0  0  0
    0.7637   -4.2141   -2.0996 F   0  0  0  0  0  0  0  0  0  0  0  0
   -1.5408   -3.6366   -1.9014 C   0  0  0  0  0  0  0  0  0  0  0  0
   -2.5031   -2.7450   -1.4922 C   0  0  0  0  0  0  0  0  0  0  0  0
   -2.1015   -1.5725   -0.8879 C   0  0  0  0  0  0  0  0  0  0  0  0
   -3.1391   -0.9029   -0.5931 N   0  0  0  0  0  0  0  0  0  0  0  0
   -3.3537    0.3554    0.0298 C   0  0  0  0  0  0  0  0  0  0  0  0
   -4.6775    0.7192    0.1598 C   0  0  0  0  0  0  0  0  0  0  0  0
   -5.0322    1.9166    0.7465 C   0  0  0  0  0  0  0  0  0  0  0  0
   -4.0029    2.7216    1.1913 C   0  0  0  0  0  0  0  0  0  0  0  0
   -2.6658    2.3571    1.0614 C   0  0  0  0  0  0  0  0  0  0  0  0
   -2.3173    1.1595    0.4743 C   0  0  0  0  0  0  0  0  0  0  0  0
   -0.9145    0.9291    0.4144 N   0  0  0  0  0  0  0  0  0  0  0  0
    5.6249    1.5204    0.7702 H   0  0  0  0  0  0  0  0  0  0  0  0
    5.1498    0.2004   -0.3626 H   0  0  0  0  0  0  0  0  0  0  0  0
    5.1289   -0.0965    1.4609 H   0  0  0  0  0  0  0  0  0  0  0  0
    3.8336    1.5131   -1.2804 H   0  0  0  0  0  0  0  0  0  0  0  0
    2.6397    2.5046   -0.4220 H   0  0  0  0  0  0  0  0  0  0  0  0
    1.2455    1.2145   -1.6589 H   0  0  0  0  0  0  0  0  0  0  0  0
    2.3713   -0.1517   -1.7488 H   0  0  0  0  0  0  0  0  0  0  0  0
    2.4848   -1.5310    0.9738 H   0  0  0  0  0  0  0  0  0  0  0  0
    1.1484   -0.8928    1.9624 H   0  0  0  0  0  0  0  0  0  0  0  0
    3.4304   -0.0376    2.4319 H   0  0  0  0  0  0  0  0  0  0  0  0
    2.1216    1.1463    2.2516 H   0  0  0  0  0  0  0  0  0  0  0  0
    1.2444   -1.9875   -0.9633 H   0  0  0  0  0  0  0  0  0  0  0  0
   -1.8207   -4.5810   -2.3864 H   0  0  0  0  0  0  0  0  0  0  0  0
   -3.5433   -2.9956   -1.6592 H   0  0  0  0  0  0  0  0  0  0  0  0
   -5.4600    0.0599   -0.2021 H   0  0  0  0  0  0  0  0  0  0  0  0
   -6.0616    2.2308    0.8633 H   0  0  0  0  0  0  0  0  0  0  0  0
   -4.2228    3.6775    1.6622 H   0  0  0  0  0  0  0  0  0  0  0  0
   -1.8643    3.0001    1.4159 H   0  0  0  0  0  0  0  0  0  0  0  0
   -0.3064    1.6759    0.8132 H   0  0  0  0  0  0  0  0  0  0  0  0
  1  2  1  0
  2  3  1  0
  3  4  1  0
  4  5  1  0
  5  6  1  0
  6  7  1  0
  5  8  1  0
  8  9  2  0
  9 10  1  0
 10 11  2  0
 11 12  1  0
 11 13  1  0
 13 14  2  0
 14 15  1  0
 15 16  2  0
 16 17  1  0
 17 18  2  0
 18 19  1  0
 19 20  2  0
 20 21  1  0
 21 22  2  0
 22 23  1  0
  7  2  1  0
 23  8  1  0
 15  9  1  0
 22 17  1  0
  1 24  1  0
  1 25  1  0
  1 26  1  0
  3 27  1  0
  3 28  1  0
  4 29  1  0
  4 30  1  0
  6 31  1  0
  6 32  1  0
  7 33  1  0
  7 34  1  0
 10 35  1  0
 13 36  1  0
 14 37  1  0
 18 38  1  0
 19 39  1  0
 20 40  1  0
 21 41  1  0
 23 42  1  0
M  END
$$$$
[H]c1nn(C([H])([H])C([H])([H])N(c2nc([H])c(C3([H])C([H])([H])C([H])([H])C([H])([H])C3([H])[H])c([H])c2[H])C([H])(C([H])([H])[H])C([H])([H])[H])c([H])c1-c1c([H])c([H])c2c(c([H])nn2[H])c1[H]
     RDKit          3D

 61 65  0  0  0  0  0  0  0  0999 V2000
    0.5655    0.1956   -1.5744 C   0  0  0  0  0  0  0  0  0  0  0  0
    0.1202    1.4798   -0.9603 C   0  0  0  0  0  0  0  0  0  0  0  0
    1.2274    2.5229   -0.9803 C   0  0  0  0  0  0  0  0  0  0  0  0
   -0.5183    1.3972    0.3263 N   0  0  0  0  0  0  0  0  0  0  0  0
   -0.0852    1.6027    1.6170 C   0  0  0  0  0  0  0  0  0  0  0  0
    0.8183    0.8534    2.4492 C   0  0  0  0  0  0  0  0  0  0  0  0
    2.1712    0.7552    2.0073 N   0  0  0  0  0  0  0  0  0  0  0  0
    2.8140   -0.1779    1.2890 C   0  0  0  0  0  0  0  0  0  0  0  0
    4.1357    0.1590    1.0984 C   0  0  0  0  0  0  0  0  0  0  0  0
    4.2674    1.3688    1.7507 C   0  0  0  0  0  0  0  0  0  0  0  0
    3.0807    1.6815    2.2724 N   0  0  0  0  0  0  0  0  0  0  0  0
    5.1980   -0.5543    0.3820 C   0  0  0  0  0  0  0  0  0  0  0  0
    4.9000   -1.3173   -0.7079 C   0  0  0  0  0  0  0  0  0  0  0  0
    5.8969   -2.0008   -1.4020 C   0  0  0  0  0  0  0  0  0  0  0  0
    7.2240   -1.9257   -1.0049 C   0  0  0  0  0  0  0  0  0  0  0  0
    8.3716   -2.4487   -1.4503 N   0  0  0  0  0  0  0  0  0  0  0  0
    9.3511   -2.0285   -0.6680 N   0  0  0  0  0  0  0  0  0  0  0  0
    8.8960   -1.2355    0.2942 C   0  0  0  0  0  0  0  0  0  0  0  0
    7.5323   -1.1440    0.1122 C   0  0  0  0  0  0  0  0  0  0  0  0
    6.5189   -0.4845    0.7705 C   0  0  0  0  0  0  0  0  0  0  0  0
   -1.9282    0.9917    0.2022 C   0  0  0  0  0  0  0  0  0  0  0  0
   -2.9290    1.9121    0.0057 C   0  0  0  0  0  0  0  0  0  0  0  0
   -4.2565    1.5563   -0.1138 C   0  0  0  0  0  0  0  0  0  0  0  0
   -4.5974    0.2055   -0.0315 C   0  0  0  0  0  0  0  0  0  0  0  0
   -3.5865   -0.6769    0.1630 C   0  0  0  0  0  0  0  0  0  0  0  0
   -2.2895   -0.2994    0.2769 N   0  0  0  0  0  0  0  0  0  0  0  0
   -6.0169   -0.1310   -0.1653 C   0  0  0  0  0  0  0  0  0  0  0  0
   -6.3327   -1.1603   -1.2076 C   0  0  0  0  0  0  0  0  0  0  0  0
   -7.8090   -1.4456   -0.8991 C   0  0  0  0  0  0  0  0  0  0  0  0
   -7.9228   -1.3131    0.6158 C   0  0  0  0  0  0  0  0  0  0  0  0
   -6.5826   -0.7868    1.0927 C   0  0  0  0  0  0  0  0  0  0  0  0
   -0.1034   -0.1630   -2.4064 H   0  0  0  0  0  0  0  0  0  0  0  0
    1.5812    0.2843   -2.0595 H   0  0  0  0  0  0  0  0  0  0  0  0
    0.5383   -0.6378   -0.8348 H   0  0  0  0  0  0  0  0  0  0  0  0
   -0.6165    1.8999   -1.7259 H   0  0  0  0  0  0  0  0  0  0  0  0
    1.2902    3.0609   -1.9575 H   0  0  0  0  0  0  0  0  0  0  0  0
    0.9623    3.2893   -0.2296 H   0  0  0  0  0  0  0  0  0  0  0  0
    2.2292    2.0788   -0.8247 H   0  0  0  0  0  0  0  0  0  0  0  0
    0.2950    2.7232    1.6216 H   0  0  0  0  0  0  0  0  0  0  0  0
   -1.0296    1.7932    2.2723 H   0  0  0  0  0  0  0  0  0  0  0  0
    0.8800    1.3632    3.4783 H   0  0  0  0  0  0  0  0  0  0  0  0
    0.4263   -0.1601    2.7804 H   0  0  0  0  0  0  0  0  0  0  0  0
    2.3718   -1.1065    0.8876 H   0  0  0  0  0  0  0  0  0  0  0  0
    5.1900    1.9376    1.8081 H   0  0  0  0  0  0  0  0  0  0  0  0
    3.8758   -1.4030   -1.0509 H   0  0  0  0  0  0  0  0  0  0  0  0
    5.6751   -2.6099   -2.2685 H   0  0  0  0  0  0  0  0  0  0  0  0
    8.4247   -3.0752   -2.2788 H   0  0  0  0  0  0  0  0  0  0  0  0
    9.4182   -0.7302    1.0883 H   0  0  0  0  0  0  0  0  0  0  0  0
    6.7867    0.1112    1.6298 H   0  0  0  0  0  0  0  0  0  0  0  0
   -2.6825    2.9601   -0.0604 H   0  0  0  0  0  0  0  0  0  0  0  0
   -4.9921    2.3320   -0.2675 H   0  0  0  0  0  0  0  0  0  0  0  0
   -3.7987   -1.7249    0.2325 H   0  0  0  0  0  0  0  0  0  0  0  0
   -6.6546    0.7463   -0.3478 H   0  0  0  0  0  0  0  0  0  0  0  0
   -5.7799   -2.1062   -1.0543 H   0  0  0  0  0  0  0  0  0  0  0  0
   -6.2950   -0.7712   -2.2350 H   0  0  0  0  0  0  0  0  0  0  0  0
   -8.4600   -0.6548   -1.3476 H   0  0  0  0  0  0  0  0  0  0  0  0
   -8.1153   -2.4379   -1.2602 H   0  0  0  0  0  0  0  0  0  0  0  0
   -8.2103   -2.2674    1.0948 H   0  0  0  0  0  0  0  0  0  0  0  0
   -8.7314   -0.5786    0.8880 H   0  0  0  0  0  0  0  0  0  0  0  0
   -5.9583   -1.6398    1.4013 H   0  0  0  0  0  0  0  0  0  0  0  0
   -6.7520   -0.0653    1.8983 H   0  0  0  0  0  0  0  0  0  0  0  0
  1  2  1  0
  2  3  1  0
  2  4  1  0
  4  5  1  0
  5  6  1  0
  6  7  1  0
  7  8  1  0
  8  9  2  0
  9 10  1  0
 10 11  2  0
  9 12  1  0
 12 13  2  0
 13 14  1  0
 14 15  2  0
 15 16  1  0
 16 17  1  0
 17 18  2  0
 18 19  1  0
 19 20  2  0
  4 21  1  0
 21 22  2  0
 22 23  1  0
 23 24  2  0
 24 25  1  0
 25 26  2  0
 24 27  1  0
 27 28  1  0
 28 29  1  0
 29 30  1  0
 30 31  1  0
 11  7  1  0
 20 12  1  0
 26 21  1  0
 31 27  1  0
 19 15  1  0
  1 32  1  0
  1 33  1  0
  1 34  1  0
  2 35  1  0
  3 36  1  0
  3 37  1  0
  3 38  1  0
  5 39  1  0
  5 40  1  0
  6 41  1  0
  6 42  1  0
  8 43  1  0
 10 44  1  0
 13 45  1  0
 14 46  1  0
 16 47  1  0
 18 48  1  0
 20 49  1  0
 22 50  1  0
 23 51  1  0
 25 52  1  0
 27 53  1  0
 28 54  1  0
 28 55  1  0
 29 56  1  0
 29 57  1  0
 30 58  1  0
 30 59  1  0
 31 60  1  0
 31 61  1  0
M  END
$$$$
[H]c1nc(C(F)(F)F)c([H])c(C(=O)N([H])c2c([H])c([H])c(C([H])([H])[H])c(C(=O)N([H])c3c([H])c([H])c([H])c(C(=O)N([H])C(C([H])([H])[H])(C([H])([H])[H])C([H])([H])[H])c3[H])c2[H])c1[H]
     RDKit          3D

 61 63  0  0  0  0  0  0  0  0999 V2000
    0.9295    3.4819   -3.0835 C   0  0  0  0  0  0  0  0  0  0  0  0
    1.9035    2.5554   -2.4650 C   0  0  0  0  0  0  0  0  0  0  0  0
    3.2767    2.8176   -2.4811 C   0  0  0  0  0  0  0  0  0  0  0  0
    4.1829    1.9329   -1.8896 C   0  0  0  0  0  0  0  0  0  0  0  0
    3.7326    0.7957   -1.2854 C   0  0  0  0  0  0  0  0  0  0  0  0
    4.5650   -0.1277   -0.6087 N   0  0  0  0  0  0  0  0  0  0  0  0
    5.7200    0.2579    0.0845 C   0  0  0  0  0  0  0  0  0  0  0  0
    6.0842    1.4396    0.1540 O   0  0  0  0  0  0  0  0  0  0  0  0
    6.5267   -0.7623    0.7553 C   0  0  0  0  0  0  0  0  0  0  0  0
    7.1007   -1.8268    0.0978 C   0  0  0  0  0  0  0  0  0  0  0  0
    7.8373   -2.7479    0.8498 C   0  0  0  0  0  0  0  0  0  0  0  0
    8.0060   -2.6375    2.1784 N   0  0  0  0  0  0  0  0  0  0  0  0
    7.4569   -1.6089    2.8476 C   0  0  0  0  0  0  0  0  0  0  0  0
    6.7346   -0.6978    2.1370 C   0  0  0  0  0  0  0  0  0  0  0  0
    7.6210   -1.4633    4.3355 C   0  0  0  0  0  0  0  0  0  0  0  0
    8.7612   -2.0590    4.7911 F   0  0  0  0  0  0  0  0  0  0  0  0
    7.4650   -0.1580    4.6930 F   0  0  0  0  0  0  0  0  0  0  0  0
    6.5342   -2.1636    4.8852 F   0  0  0  0  0  0  0  0  0  0  0  0
    2.3431    0.5605   -1.2877 C   0  0  0  0  0  0  0  0  0  0  0  0
    1.4543    1.4185   -1.8609 C   0  0  0  0  0  0  0  0  0  0  0  0
    0.0249    1.1142   -1.7741 C   0  0  0  0  0  0  0  0  0  0  0  0
   -0.7919    1.9981   -1.3712 O   0  0  0  0  0  0  0  0  0  0  0  0
   -0.4946   -0.1500   -2.1253 N   0  0  0  0  0  0  0  0  0  0  0  0
   -1.8363   -0.5510   -2.0460 C   0  0  0  0  0  0  0  0  0  0  0  0
   -2.2769   -1.5284   -2.9239 C   0  0  0  0  0  0  0  0  0  0  0  0
   -3.5722   -1.9960   -2.8379 C   0  0  0  0  0  0  0  0  0  0  0  0
   -4.4307   -1.4872   -1.8729 C   0  0  0  0  0  0  0  0  0  0  0  0
   -4.0329   -0.5226   -0.9898 C   0  0  0  0  0  0  0  0  0  0  0  0
   -2.7137   -0.0627   -1.0955 C   0  0  0  0  0  0  0  0  0  0  0  0
   -4.8748    0.0371    0.0764 C   0  0  0  0  0  0  0  0  0  0  0  0
   -4.6234    1.2184    0.5072 O   0  0  0  0  0  0  0  0  0  0  0  0
   -5.9493   -0.6635    0.6595 N   0  0  0  0  0  0  0  0  0  0  0  0
   -6.7406   -0.0956    1.7133 C   0  0  0  0  0  0  0  0  0  0  0  0
   -5.9485    0.2094    2.9677 C   0  0  0  0  0  0  0  0  0  0  0  0
   -7.4163    1.1929    1.2943 C   0  0  0  0  0  0  0  0  0  0  0  0
   -7.7975   -1.1245    2.1481 C   0  0  0  0  0  0  0  0  0  0  0  0
    1.5089    4.3448   -3.5311 H   0  0  0  0  0  0  0  0  0  0  0  0
    0.2880    3.9952   -2.3111 H   0  0  0  0  0  0  0  0  0  0  0  0
    0.3558    3.0531   -3.9088 H   0  0  0  0  0  0  0  0  0  0  0  0
    3.6080    3.7218   -2.9617 H   0  0  0  0  0  0  0  0  0  0  0  0
    5.2452    2.1416   -1.9240 H   0  0  0  0  0  0  0  0  0  0  0  0
    4.2580   -1.1543   -0.6536 H   0  0  0  0  0  0  0  0  0  0  0  0
    6.9721   -1.9232   -0.9607 H   0  0  0  0  0  0  0  0  0  0  0  0
    8.2965   -3.5939    0.3326 H   0  0  0  0  0  0  0  0  0  0  0  0
    6.2933    0.1333    2.6762 H   0  0  0  0  0  0  0  0  0  0  0  0
    2.0072   -0.3467   -0.8074 H   0  0  0  0  0  0  0  0  0  0  0  0
    0.2094   -0.8600   -2.4825 H   0  0  0  0  0  0  0  0  0  0  0  0
   -1.6059   -1.9307   -3.6846 H   0  0  0  0  0  0  0  0  0  0  0  0
   -3.8762   -2.7614   -3.5449 H   0  0  0  0  0  0  0  0  0  0  0  0
   -5.4369   -1.8683   -1.8270 H   0  0  0  0  0  0  0  0  0  0  0  0
   -2.4285    0.6890   -0.3737 H   0  0  0  0  0  0  0  0  0  0  0  0
   -6.1544   -1.6172    0.3000 H   0  0  0  0  0  0  0  0  0  0  0  0
   -5.8967   -0.6742    3.6409 H   0  0  0  0  0  0  0  0  0  0  0  0
   -6.5478    0.9733    3.5460 H   0  0  0  0  0  0  0  0  0  0  0  0
   -4.9715    0.6572    2.7861 H   0  0  0  0  0  0  0  0  0  0  0  0
   -8.4012    1.2078    1.8037 H   0  0  0  0  0  0  0  0  0  0  0  0
   -7.5746    1.2763    0.2173 H   0  0  0  0  0  0  0  0  0  0  0  0
   -6.7588    2.0312    1.6167 H   0  0  0  0  0  0  0  0  0  0  0  0
   -7.3002   -1.9957    2.6247 H   0  0  0  0  0  0  0  0  0  0  0  0
   -8.4399   -0.6848    2.9511 H   0  0  0  0  0  0  0  0  0  0  0  0
   -8.4102   -1.4103    1.2986 H   0  0  0  0  0  0  0  0  0  0  0  0
  1  2  1  0
  2  3  2  0
  3  4  1  0
  4  5  2  0
  5  6  1  0
  6  7  1  0
  7  8  2  0
  7  9  1  0
  9 10  2  0
 10 11  1  0
 11 12  2  0
 12 13  1  0
 13 14  2  0
 13 15  1  0
 15 16  1  0
 15 17  1  0
 15 18  1  0
  5 19  1  0
 19 20  2  0
 20 21  1  0
 21 22  2  0
 21 23  1  0
 23 24  1  0
 24 25  2  0
 25 26  1  0
 26 27  2  0
 27 28  1  0
 28 29  2  0
 28 30  1  0
 30 31  2  0
 30 32  1  0
 32 33  1  0
 33 34  1  0
 33 35  1  0
 33 36  1  0
 20  2  1  0
 29 24  1  0
 14  9  1  0
  1 37  1  0
  1 38  1  0
  1 39  1  0
  3 40  1  0
  4 41  1  0
  6 42  1  0
 10 43  1  0
 11 44  1  0
 14 45  1  0
 19 46  1  0
 23 47  1  0
 25 48  1  0
 26 49  1  0
 27 50  1  0
 29 51  1  0
 32 52  1  0
 34 53  1  0
 34 54  1  0
 34 55  1  0
 35 56  1  0
 35 57  1  0
 35 58  1  0
 36 59  1  0
 36 60  1  0
 36 61  1  0
M  END
$$$$
[H]OC(=O)C([H])([H])[C@@]([H])(C(=O)N([H])C([H])(C([H])([H])O[H])C([H])([H])O[H])N([H])C(=O)[C@@]1([H])C([H])([H])[C@]([H])(C(=O)N([H])C([H])([H])C(=O)N([H])[C@]([H])(C(=O)O[H])C([H])([H])c2c([H])c([H])c(O[H])c([H])c2[H])N([H])[C@]1([H])C([H])([H])OC([H])([H])C([H])([H])N(C([H])([H])C([H])([H])[H])C([H])([H])C([H])([H])[H]
     RDKit          3D

 97 98  0  0  0  0  0  0  0  0999 V2000
   -2.3674    7.3828    1.6828 C   0  0  0  0  0  0  0  0  0  0  0  0
   -3.6585    7.1839    0.9506 C   0  0  0  0  0  0  0  0  0  0  0  0
   -4.2687    5.9016    1.4734 N   0  0  0  0  0  0  0  0  0  0  0  0
   -5.5531    5.7878    0.8000 C   0  0  0  0  0  0  0  0  0  0  0  0
   -6.4412    4.8121    1.4734 C   0  0  0  0  0  0  0  0  0  0  0  0
   -3.2942    4.8993    1.0151 C   0  0  0  0  0  0  0  0  0  0  0  0
   -3.6263    3.5416    1.5009 C   0  0  0  0  0  0  0  0  0  0  0  0
   -2.6415    2.6314    1.0820 O   0  0  0  0  0  0  0  0  0  0  0  0
   -2.5729    2.5605   -0.2693 C   0  0  0  0  0  0  0  0  0  0  0  0
   -1.5350    1.5324   -0.6559 C   0  0  1  0  0  0  0  0  0  0  0  0
   -0.2009    1.8921   -0.1445 N   0  0  0  0  0  0  0  0  0  0  0  0
    0.5535    0.6850   -0.3718 C   0  0  2  0  0  0  0  0  0  0  0  0
   -0.3948   -0.4418   -0.0796 C   0  0  0  0  0  0  0  0  0  0  0  0
   -1.7627    0.1814   -0.0427 C   0  0  2  0  0  0  0  0  0  0  0  0
   -2.7867   -0.5462   -0.8122 C   0  0  0  0  0  0  0  0  0  0  0  0
   -3.4983    0.0651   -1.6462 O   0  0  0  0  0  0  0  0  0  0  0  0
   -2.9748   -1.9235   -0.6142 N   0  0  0  0  0  0  0  0  0  0  0  0
   -4.0164   -2.6817   -1.3606 C   0  0  1  0  0  0  0  0  0  0  0  0
   -3.2266   -3.4398   -2.4470 C   0  0  0  0  0  0  0  0  0  0  0  0
   -4.0818   -4.2551   -3.3235 C   0  0  0  0  0  0  0  0  0  0  0  0
   -3.5132   -5.0218   -4.3563 O   0  0  0  0  0  0  0  0  0  0  0  0
   -5.3103   -4.3005   -3.1934 O   0  0  0  0  0  0  0  0  0  0  0  0
   -4.6492   -3.6146   -0.4209 C   0  0  0  0  0  0  0  0  0  0  0  0
   -3.9241   -4.2934    0.3704 O   0  0  0  0  0  0  0  0  0  0  0  0
   -6.0416   -3.7892   -0.3529 N   0  0  0  0  0  0  0  0  0  0  0  0
   -6.6580   -4.7272    0.5793 C   0  0  0  0  0  0  0  0  0  0  0  0
   -7.6368   -5.5680   -0.1987 C   0  0  0  0  0  0  0  0  0  0  0  0
   -8.2789   -6.4995    0.6152 O   0  0  0  0  0  0  0  0  0  0  0  0
   -7.3053   -3.9188    1.6800 C   0  0  0  0  0  0  0  0  0  0  0  0
   -8.2658   -3.0664    1.2073 O   0  0  0  0  0  0  0  0  0  0  0  0
    1.7442    0.6234    0.5431 C   0  0  0  0  0  0  0  0  0  0  0  0
    1.6458    1.0708    1.7140 O   0  0  0  0  0  0  0  0  0  0  0  0
    2.9409    0.0582    0.0361 N   0  0  0  0  0  0  0  0  0  0  0  0
    4.0889   -0.0134    0.9092 C   0  0  0  0  0  0  0  0  0  0  0  0
    5.2814   -0.5680    0.2566 C   0  0  0  0  0  0  0  0  0  0  0  0
    5.2118   -0.8997   -0.9535 O   0  0  0  0  0  0  0  0  0  0  0  0
    6.4909   -0.7228    0.9860 N   0  0  0  0  0  0  0  0  0  0  0  0
    7.7104   -1.2675    0.3352 C   0  0  1  0  0  0  0  0  0  0  0  0
    8.7816   -0.2548    0.5417 C   0  0  0  0  0  0  0  0  0  0  0  0
   10.1020   -0.5725   -0.0362 C   0  0  0  0  0  0  0  0  0  0  0  0
   10.3977   -0.1937   -1.3584 C   0  0  0  0  0  0  0  0  0  0  0  0
   11.6097   -0.4467   -1.9466 C   0  0  0  0  0  0  0  0  0  0  0  0
   12.6144   -1.0950   -1.2610 C   0  0  0  0  0  0  0  0  0  0  0  0
   13.8535   -1.3480   -1.8806 O   0  0  0  0  0  0  0  0  0  0  0  0
   12.3534   -1.4774    0.0350 C   0  0  0  0  0  0  0  0  0  0  0  0
   11.1205   -1.2179    0.6274 C   0  0  0  0  0  0  0  0  0  0  0  0
    7.9829   -2.6188    0.8230 C   0  0  0  0  0  0  0  0  0  0  0  0
    9.0278   -3.3617    0.3180 O   0  0  0  0  0  0  0  0  0  0  0  0
    7.2607   -3.1265    1.7161 O   0  0  0  0  0  0  0  0  0  0  0  0
   -2.2153    8.4687    1.9628 H   0  0  0  0  0  0  0  0  0  0  0  0
   -1.5087    7.0460    1.0385 H   0  0  0  0  0  0  0  0  0  0  0  0
   -2.3546    6.7488    2.5807 H   0  0  0  0  0  0  0  0  0  0  0  0
   -3.4444    7.0229   -0.1208 H   0  0  0  0  0  0  0  0  0  0  0  0
   -4.3537    8.0077    1.1183 H   0  0  0  0  0  0  0  0  0  0  0  0
   -5.4122    5.5086   -0.2673 H   0  0  0  0  0  0  0  0  0  0  0  0
   -6.0044    6.8136    0.8619 H   0  0  0  0  0  0  0  0  0  0  0  0
   -6.7890    3.9671    0.8275 H   0  0  0  0  0  0  0  0  0  0  0  0
   -5.9951    4.4191    2.4019 H   0  0  0  0  0  0  0  0  0  0  0  0
   -7.4142    5.3537    1.7192 H   0  0  0  0  0  0  0  0  0  0  0  0
   -3.3189    4.9577   -0.1219 H   0  0  0  0  0  0  0  0  0  0  0  0
   -2.2782    5.2223    1.2859 H   0  0  0  0  0  0  0  0  0  0  0  0
   -4.5835    3.2119    0.9649 H   0  0  0  0  0  0  0  0  0  0  0  0
   -3.8083    3.4802    2.5775 H   0  0  0  0  0  0  0  0  0  0  0  0
   -3.5121    2.3177   -0.7939 H   0  0  0  0  0  0  0  0  0  0  0  0
   -2.2603    3.5553   -0.7384 H   0  0  0  0  0  0  0  0  0  0  0  0
   -1.4647    1.5209   -1.7563 H   0  0  0  0  0  0  0  0  0  0  0  0
    0.1987    2.6719   -0.7424 H   0  0  0  0  0  0  0  0  0  0  0  0
    0.8853    0.6998   -1.4250 H   0  0  0  0  0  0  0  0  0  0  0  0
   -0.1643   -0.8050    0.9435 H   0  0  0  0  0  0  0  0  0  0  0  0
   -0.3261   -1.2581   -0.8334 H   0  0  0  0  0  0  0  0  0  0  0  0
   -2.1305    0.2781    1.0177 H   0  0  0  0  0  0  0  0  0  0  0  0
   -2.3935   -2.4442    0.0542 H   0  0  0  0  0  0  0  0  0  0  0  0
   -4.6610   -1.9991   -1.8735 H   0  0  0  0  0  0  0  0  0  0  0  0
   -2.4344   -4.0569   -1.9654 H   0  0  0  0  0  0  0  0  0  0  0  0
   -2.7161   -2.6702   -3.0708 H   0  0  0  0  0  0  0  0  0  0  0  0
   -2.7954   -4.6272   -4.9782 H   0  0  0  0  0  0  0  0  0  0  0  0
   -6.6806   -3.2465   -0.9563 H   0  0  0  0  0  0  0  0  0  0  0  0
   -5.8722   -5.3481    1.0819 H   0  0  0  0  0  0  0  0  0  0  0  0
   -7.0437   -6.0618   -1.0133 H   0  0  0  0  0  0  0  0  0  0  0  0
   -8.3505   -4.9065   -0.7088 H   0  0  0  0  0  0  0  0  0  0  0  0
   -7.8842   -7.3837    0.3876 H   0  0  0  0  0  0  0  0  0  0  0  0
   -7.6639   -4.6465    2.4405 H   0  0  0  0  0  0  0  0  0  0  0  0
   -6.4708   -3.3503    2.1694 H   0  0  0  0  0  0  0  0  0  0  0  0
   -8.4208   -3.1246    0.2528 H   0  0  0  0  0  0  0  0  0  0  0  0
    3.0183   -0.2994   -0.9252 H   0  0  0  0  0  0  0  0  0  0  0  0
    4.2811    1.0344    1.2716 H   0  0  0  0  0  0  0  0  0  0  0  0
    3.8199   -0.6850    1.7744 H   0  0  0  0  0  0  0  0  0  0  0  0
    6.5472   -0.4590    1.9928 H   0  0  0  0  0  0  0  0  0  0  0  0
    7.4262   -1.3751   -0.7431 H   0  0  0  0  0  0  0  0  0  0  0  0
    8.3791    0.7149    0.1232 H   0  0  0  0  0  0  0  0  0  0  0  0
    8.8621   -0.0249    1.6446 H   0  0  0  0  0  0  0  0  0  0  0  0
    9.5857    0.3202   -1.8824 H   0  0  0  0  0  0  0  0  0  0  0  0
   11.7944   -0.1337   -2.9721 H   0  0  0  0  0  0  0  0  0  0  0  0
   14.5729   -0.6471   -1.7962 H   0  0  0  0  0  0  0  0  0  0  0  0
   13.1380   -1.9870    0.5744 H   0  0  0  0  0  0  0  0  0  0  0  0
   10.9062   -1.5230    1.6606 H   0  0  0  0  0  0  0  0  0  0  0  0
    9.0233   -3.8160   -0.5896 H   0  0  0  0  0  0  0  0  0  0  0  0
  1  2  1  0
  2  3  1  0
  3  4  1  0
  4  5  1  0
  3  6  1  0
  6  7  1  0
  7  8  1  0
  8  9  1  0
  9 10  1  0
 10 11  1  0
 11 12  1  0
 12 13  1  0
 13 14  1  0
 14 15  1  0
 15 16  2  0
 15 17  1  0
 17 18  1  0
 18 19  1  0
 19 20  1  0
 20 21  1  0
 20 22  2  0
 18 23  1  0
 23 24  2  0
 23 25  1  0
 25 26  1  0
 26 27  1  0
 27 28  1  0
 26 29  1  0
 29 30  1  0
 12 31  1  0
 31 32  2  0
 31 33  1  0
 33 34  1  0
 34 35  1  0
 35 36  2  0
 35 37  1  0
 37 38  1  0
 38 39  1  0
 39 40  1  0
 40 41  2  0
 41 42  1  0
 42 43  2  0
 43 44  1  0
 43 45  1  0
 45 46  2  0
 38 47  1  0
 47 48  1  0
 47 49  2  0
 14 10  1  0
 46 40  1  0
  1 50  1  0
  1 51  1  0
  1 52  1  0
  2 53  1  0
  2 54  1  0
  4 55  1  0
  4 56  1  0
  5 57  1  0
  5 58  1  0
  5 59  1  0
  6 60  1  0
  6 61  1  0
  7 62  1  0
  7 63  1  0
  9 64  1  0
  9 65  1  0
 10 66  1  6
 11 67  1  0
 12 68  1  6
 13 69  1  0
 13 70  1  0
 14 71  1  1
 17 72  1  0
 18 73  1  6
 19 74  1  0
 19 75  1  0
 21 76  1  0
 25 77  1  0
 26 78  1  0
 27 79  1  0
 27 80  1  0
 28 81  1  0
 29 82  1  0
 29 83  1  0
 30 84  1  0
 33 85  1  0
 34 86  1  0
 34 87  1  0
 37 88  1  0
 38 89  1  6
 39 90  1  0
 39 91  1  0
 41 92  1  0
 42 93  1  0
 44 94  1  0
 45 95  1  0
 46 96  1  0
 48 97  1  0
M  END
$$$$
[H]C1=C(C(=O)[O-])N2C(=O)/C(=C(\[H])c3nc4n(c3[H])C([H])([H])C([H])([H])C4([H])[H])[C@]2([H])S1
     RDKit          3D

 30 33  0  0  0  0  0  0  0  0999 V2000
    6.0507    1.3275    1.7406 O   0  0  0  0  0  0  0  0  0  0  0  0
    5.4491    0.4738    0.8259 C   0  0  0  0  0  0  0  0  0  0  0  0
    6.1393   -0.1603   -0.0139 O   0  0  0  0  0  0  0  0  0  0  0  0
    3.9869    0.2559    0.7761 C   0  0  0  0  0  0  0  0  0  0  0  0
    3.2248    0.9026    1.6329 C   0  0  0  0  0  0  0  0  0  0  0  0
    1.5283    0.4262    1.3154 S   0  0  0  0  0  0  0  0  0  0  0  0
    2.0087   -1.0179    0.3240 C   0  0  2  0  0  0  0  0  0  0  0  0
    3.3222   -0.5763   -0.1062 N   0  0  0  0  0  0  0  0  0  0  0  0
    3.0796   -1.3451   -1.2809 C   0  0  0  0  0  0  0  0  0  0  0  0
    3.6812   -2.0370   -2.1431 O   0  0  0  0  0  0  0  0  0  0  0  0
    1.6663   -0.9877   -1.0970 C   0  0  0  0  0  0  0  0  0  0  0  0
    0.6026   -0.7538   -1.8065 C   0  0  0  0  0  0  0  0  0  0  0  0
   -0.6352   -0.4231   -1.1147 C   0  0  0  0  0  0  0  0  0  0  0  0
   -1.5475    0.5305   -1.5306 C   0  0  0  0  0  0  0  0  0  0  0  0
   -2.5902    0.5827   -0.6549 N   0  0  0  0  0  0  0  0  0  0  0  0
   -3.8379    1.2892   -0.4380 C   0  0  0  0  0  0  0  0  0  0  0  0
   -4.5733    0.3761    0.5243 C   0  0  0  0  0  0  0  0  0  0  0  0
   -3.4689   -0.3038    1.2899 C   0  0  0  0  0  0  0  0  0  0  0  0
   -2.3546   -0.3162    0.2997 C   0  0  0  0  0  0  0  0  0  0  0  0
   -1.1617   -0.9256    0.0149 N   0  0  0  0  0  0  0  0  0  0  0  0
    3.5047    1.6008    2.4027 H   0  0  0  0  0  0  0  0  0  0  0  0
    2.0124   -1.9890    0.8372 H   0  0  0  0  0  0  0  0  0  0  0  0
    0.6981   -0.8186   -2.8938 H   0  0  0  0  0  0  0  0  0  0  0  0
   -1.4403    1.1376   -2.4190 H   0  0  0  0  0  0  0  0  0  0  0  0
   -4.4475    1.4003   -1.3535 H   0  0  0  0  0  0  0  0  0  0  0  0
   -3.6344    2.2744   -0.0120 H   0  0  0  0  0  0  0  0  0  0  0  0
   -5.2494    0.9754    1.1933 H   0  0  0  0  0  0  0  0  0  0  0  0
   -5.1267   -0.3695   -0.0774 H   0  0  0  0  0  0  0  0  0  0  0  0
   -3.1645    0.2792    2.1837 H   0  0  0  0  0  0  0  0  0  0  0  0
   -3.7228   -1.3429    1.5810 H   0  0  0  0  0  0  0  0  0  0  0  0
  1  2  1  0
  2  3  2  0
  2  4  1  0
  4  5  2  0
  5  6  1  0
  6  7  1  0
  7  8  1  0
  8  9  1  0
  9 10  2  0
  9 11  1  0
 11 12  2  0
 12 13  1  0
 13 14  2  0
 14 15  1  0
 15 16  1  0
 16 17  1  0
 17 18  1  0
 18 19  1  0
 19 20  2  0
  8  4  1  0
 20 13  1  0
 11  7  1  0
 19 15  1  0
  5 21  1  0
  7 22  1  1
 12 23  1  0
 14 24  1  0
 16 25  1  0
 16 26  1  0
 17 27  1  0
 17 28  1  0
 18 29  1  0
 18 30  1  0
M  CHG  1   1  -1
M  END
$$$$
[H]OC(=O)C([H])([H])[C@@]([H])(C([H])=O)N([H])C(=O)[C@@]([H])(N([H])C(=O)[C@@]([H])(N([H])C(=O)[C@@]([H])(N([H])C(=O)c1c([H])c([H])c2c([H])c([H])c([H])c([H])c2c1[H])C(C([H])([H])[H])(C([H])([H])[H])C([H])([H])[H])C([H])([H])C([H])(C([H])([H])[H])C([H])([H])[H])C([H])([H])C(=O)O[H]
     RDKit          3D

 84 85  0  0  0  0  0  0  0  0999 V2000
    1.8859   -3.8683   -0.8597 C   0  0  0  0  0  0  0  0  0  0  0  0
    1.6391   -3.6743    0.5646 C   0  0  0  0  0  0  0  0  0  0  0  0
    2.4904   -4.7778    1.2862 C   0  0  0  0  0  0  0  0  0  0  0  0
    2.0112   -2.4157    1.2657 C   0  0  0  0  0  0  0  0  0  0  0  0
    1.3501   -1.1728    0.6147 C   0  0  2  0  0  0  0  0  0  0  0  0
    0.0069   -1.4389    0.5141 N   0  0  0  0  0  0  0  0  0  0  0  0
   -1.1463   -0.7886    0.9543 C   0  0  0  0  0  0  0  0  0  0  0  0
   -0.9554    0.3265    1.5433 O   0  0  0  0  0  0  0  0  0  0  0  0
   -2.5276   -1.2996    0.8192 C   0  0  1  0  0  0  0  0  0  0  0  0
   -3.5384   -0.3164    0.6229 N   0  0  0  0  0  0  0  0  0  0  0  0
   -4.4333    0.1359    1.6855 C   0  0  0  0  0  0  0  0  0  0  0  0
   -4.3256   -0.2187    2.8474 O   0  0  0  0  0  0  0  0  0  0  0  0
   -5.5017    1.0379    1.2768 C   0  0  0  0  0  0  0  0  0  0  0  0
   -6.7394    0.4526    0.8994 C   0  0  0  0  0  0  0  0  0  0  0  0
   -7.7769    1.1559    0.4429 C   0  0  0  0  0  0  0  0  0  0  0  0
   -7.7040    2.5317    0.3005 C   0  0  0  0  0  0  0  0  0  0  0  0
   -8.7515    3.2593   -0.1654 C   0  0  0  0  0  0  0  0  0  0  0  0
   -8.6356    4.6175   -0.2820 C   0  0  0  0  0  0  0  0  0  0  0  0
   -7.4531    5.2872    0.0756 C   0  0  0  0  0  0  0  0  0  0  0  0
   -6.4270    4.4951    0.5403 C   0  0  0  0  0  0  0  0  0  0  0  0
   -6.5371    3.1590    0.6526 C   0  0  0  0  0  0  0  0  0  0  0  0
   -5.4439    2.3899    1.1349 C   0  0  0  0  0  0  0  0  0  0  0  0
   -2.7551   -2.3326   -0.2476 C   0  0  0  0  0  0  0  0  0  0  0  0
   -2.4044   -1.7838   -1.6050 C   0  0  0  0  0  0  0  0  0  0  0  0
   -4.3350   -2.3990   -0.3236 C   0  0  0  0  0  0  0  0  0  0  0  0
   -2.3771   -3.7254    0.0295 C   0  0  0  0  0  0  0  0  0  0  0  0
    2.2179   -0.6462   -0.4135 C   0  0  0  0  0  0  0  0  0  0  0  0
    1.8287   -0.4107   -1.6043 O   0  0  0  0  0  0  0  0  0  0  0  0
    3.5718   -0.3851   -0.0959 N   0  0  0  0  0  0  0  0  0  0  0  0
    4.7333    0.0422   -0.6759 C   0  0  1  0  0  0  0  0  0  0  0  0
    4.9911   -0.8541   -1.9804 C   0  0  0  0  0  0  0  0  0  0  0  0
    5.1969   -2.2325   -1.6230 C   0  0  0  0  0  0  0  0  0  0  0  0
    5.3386   -3.2348   -2.6257 O   0  0  0  0  0  0  0  0  0  0  0  0
    5.2520   -2.6446   -0.4639 O   0  0  0  0  0  0  0  0  0  0  0  0
    5.0789    1.3865   -1.0745 C   0  0  0  0  0  0  0  0  0  0  0  0
    5.0630    1.5846   -2.3890 O   0  0  0  0  0  0  0  0  0  0  0  0
    5.4087    2.4807   -0.3175 N   0  0  0  0  0  0  0  0  0  0  0  0
    5.7962    3.8174   -0.6040 C   0  0  1  0  0  0  0  0  0  0  0  0
    6.8107    4.3520    0.4167 C   0  0  0  0  0  0  0  0  0  0  0  0
    6.2100    4.4322    1.7251 C   0  0  0  0  0  0  0  0  0  0  0  0
    6.7007    3.7330    2.7974 O   0  0  0  0  0  0  0  0  0  0  0  0
    5.1700    5.1618    1.9214 O   0  0  0  0  0  0  0  0  0  0  0  0
    6.2640    4.2161   -1.9225 C   0  0  0  0  0  0  0  0  0  0  0  0
    5.6600    4.0216   -2.9273 O   0  0  0  0  0  0  0  0  0  0  0  0
    2.2583   -3.0556   -1.4588 H   0  0  0  0  0  0  0  0  0  0  0  0
    0.8755   -4.2013   -1.3048 H   0  0  0  0  0  0  0  0  0  0  0  0
    2.5277   -4.7602   -1.0955 H   0  0  0  0  0  0  0  0  0  0  0  0
    0.5911   -3.9352    0.9151 H   0  0  0  0  0  0  0  0  0  0  0  0
    2.4091   -5.6607    0.6440 H   0  0  0  0  0  0  0  0  0  0  0  0
    3.5209   -4.3999    1.1660 H   0  0  0  0  0  0  0  0  0  0  0  0
    2.1784   -4.9212    2.3069 H   0  0  0  0  0  0  0  0  0  0  0  0
    3.0925   -2.3154    1.3188 H   0  0  0  0  0  0  0  0  0  0  0  0
    1.6619   -2.5120    2.3137 H   0  0  0  0  0  0  0  0  0  0  0  0
    1.5271   -0.3953    1.5019 H   0  0  0  0  0  0  0  0  0  0  0  0
   -0.2212   -2.3431   -0.0587 H   0  0  0  0  0  0  0  0  0  0  0  0
   -2.7612   -1.8297    1.8257 H   0  0  0  0  0  0  0  0  0  0  0  0
   -3.6676    0.0966   -0.3534 H   0  0  0  0  0  0  0  0  0  0  0  0
   -6.7766   -0.6401    1.0337 H   0  0  0  0  0  0  0  0  0  0  0  0
   -8.7474    0.7050    0.1608 H   0  0  0  0  0  0  0  0  0  0  0  0
   -9.6543    2.7255   -0.4326 H   0  0  0  0  0  0  0  0  0  0  0  0
   -9.4729    5.1994   -0.6578 H   0  0  0  0  0  0  0  0  0  0  0  0
   -7.3228    6.3589   -0.0146 H   0  0  0  0  0  0  0  0  0  0  0  0
   -5.4675    4.9714    0.8368 H   0  0  0  0  0  0  0  0  0  0  0  0
   -4.5055    2.9007    1.3910 H   0  0  0  0  0  0  0  0  0  0  0  0
   -1.8407   -0.8277   -1.5059 H   0  0  0  0  0  0  0  0  0  0  0  0
   -3.2252   -1.5781   -2.2943 H   0  0  0  0  0  0  0  0  0  0  0  0
   -1.7673   -2.5578   -2.1076 H   0  0  0  0  0  0  0  0  0  0  0  0
   -4.5304   -3.3530   -0.8676 H   0  0  0  0  0  0  0  0  0  0  0  0
   -4.7093   -1.5561   -0.9635 H   0  0  0  0  0  0  0  0  0  0  0  0
   -4.7619   -2.4312    0.7012 H   0  0  0  0  0  0  0  0  0  0  0  0
   -1.6730   -4.0598   -0.7958 H   0  0  0  0  0  0  0  0  0  0  0  0
   -1.8520   -3.7521    1.0009 H   0  0  0  0  0  0  0  0  0  0  0  0
   -3.2703   -4.4102    0.0120 H   0  0  0  0  0  0  0  0  0  0  0  0
    3.7879   -0.5935    1.0312 H   0  0  0  0  0  0  0  0  0  0  0  0
    5.6747   -0.3866   -0.0824 H   0  0  0  0  0  0  0  0  0  0  0  0
    5.8427   -0.3754   -2.5156 H   0  0  0  0  0  0  0  0  0  0  0  0
    4.0701   -0.6757   -2.5809 H   0  0  0  0  0  0  0  0  0  0  0  0
    5.3536   -2.8985   -3.6147 H   0  0  0  0  0  0  0  0  0  0  0  0
    5.2342    2.3616    0.8015 H   0  0  0  0  0  0  0  0  0  0  0  0
    4.8259    4.4158   -0.5359 H   0  0  0  0  0  0  0  0  0  0  0  0
    7.6109    3.5140    0.4124 H   0  0  0  0  0  0  0  0  0  0  0  0
    7.3423    5.2760    0.0847 H   0  0  0  0  0  0  0  0  0  0  0  0
    7.6848    3.7282    3.0865 H   0  0  0  0  0  0  0  0  0  0  0  0
    7.2498    4.7155   -2.0345 H   0  0  0  0  0  0  0  0  0  0  0  0
  1  2  1  0
  2  3  1  0
  2  4  1  0
  4  5  1  0
  5  6  1  0
  6  7  1  0
  7  8  2  0
  7  9  1  0
  9 10  1  0
 10 11  1  0
 11 12  2  0
 11 13  1  0
 13 14  2  0
 14 15  1  0
 15 16  2  0
 16 17  1  0
 17 18  2  0
 18 19  1  0
 19 20  2  0
 20 21  1  0
 21 22  2  0
  9 23  1  0
 23 24  1  0
 23 25  1  0
 23 26  1  0
  5 27  1  0
 27 28  2  0
 27 29  1  0
 29 30  1  0
 30 31  1  0
 31 32  1  0
 32 33  1  0
 32 34  2  0
 30 35  1  0
 35 36  2  0
 35 37  1  0
 37 38  1  0
 38 39  1  0
 39 40  1  0
 40 41  1  0
 40 42  2  0
 38 43  1  0
 43 44  2  0
 22 13  1  0
 21 16  1  0
  1 45  1  0
  1 46  1  0
  1 47  1  0
  2 48  1  0
  3 49  1  0
  3 50  1  0
  3 51  1  0
  4 52  1  0
  4 53  1  0
  5 54  1  1
  6 55  1  0
  9 56  1  1
 10 57  1  0
 14 58  1  0
 15 59  1  0
 17 60  1  0
 18 61  1  0
 19 62  1  0
 20 63  1  0
 22 64  1  0
 24 65  1  0
 24 66  1  0
 24 67  1  0
 25 68  1  0
 25 69  1  0
 25 70  1  0
 26 71  1  0
 26 72  1  0
 26 73  1  0
 29 74  1  0
 30 75  1  1
 31 76  1  0
 31 77  1  0
 33 78  1  0
 37 79  1  0
 38 80  1  1
 39 81  1  0
 39 82  1  0
 41 83  1  0
 43 84  1  0
M  END
$$$$
[H]c1nc(N([H])c2c([H])c([H])c(C3([H])N(C([H])([H])[H])C([H])([H])N(Cl)C([H])([H])C3([H])[H])c(Cl)c2[H])c([H])c([H])c1Br
     RDKit          3D

 40 42  0  0  0  0  0  0  0  0999 V2000
   -3.7251    0.7959    1.0728 C   0  0  0  0  0  0  0  0  0  0  0  0
   -3.4193    0.0320    2.2321 N   0  0  0  0  0  0  0  0  0  0  0  0
   -2.9858    0.9181    3.6278 Cl  0  0  0  0  0  0  0  0  0  0  0  0
   -2.5360   -1.0827    2.0037 C   0  0  0  0  0  0  0  0  0  0  0  0
   -2.9630   -1.6588    0.7123 C   0  0  0  0  0  0  0  0  0  0  0  0
   -2.5664   -0.7933   -0.4386 C   0  0  0  0  0  0  0  0  0  0  0  0
   -1.1947   -0.2756   -0.4989 C   0  0  0  0  0  0  0  0  0  0  0  0
   -0.1413   -1.0790   -0.8984 C   0  0  0  0  0  0  0  0  0  0  0  0
   -0.3958   -2.8270   -1.1654 Cl  0  0  0  0  0  0  0  0  0  0  0  0
    1.1170   -0.5769   -1.1132 C   0  0  0  0  0  0  0  0  0  0  0  0
    1.4106    0.7594   -0.9412 C   0  0  0  0  0  0  0  0  0  0  0  0
    2.6770    1.3579   -1.0994 N   0  0  0  0  0  0  0  0  0  0  0  0
    3.8669    0.8707   -0.5688 C   0  0  0  0  0  0  0  0  0  0  0  0
    3.9988   -0.1829    0.2542 N   0  0  0  0  0  0  0  0  0  0  0  0
    5.1697   -0.6281    0.7199 C   0  0  0  0  0  0  0  0  0  0  0  0
    6.3704    0.0063    0.3523 C   0  0  0  0  0  0  0  0  0  0  0  0
    8.0118   -0.6438    1.0327 Br  0  0  0  0  0  0  0  0  0  0  0  0
    6.3013    1.0866   -0.4895 C   0  0  0  0  0  0  0  0  0  0  0  0
    5.0636    1.4900   -0.9270 C   0  0  0  0  0  0  0  0  0  0  0  0
    0.3803    1.5747   -0.5481 C   0  0  0  0  0  0  0  0  0  0  0  0
   -0.8962    1.0569   -0.3302 C   0  0  0  0  0  0  0  0  0  0  0  0
   -3.4183    0.3973   -0.2219 N   0  0  0  0  0  0  0  0  0  0  0  0
   -4.5077    0.4892   -1.1673 C   0  0  0  0  0  0  0  0  0  0  0  0
   -4.8814    0.9519    1.1223 H   0  0  0  0  0  0  0  0  0  0  0  0
   -3.3956    1.8788    1.2724 H   0  0  0  0  0  0  0  0  0  0  0  0
   -1.4474   -0.8096    1.9687 H   0  0  0  0  0  0  0  0  0  0  0  0
   -2.7329   -1.8080    2.8168 H   0  0  0  0  0  0  0  0  0  0  0  0
   -4.0867   -1.6776    0.7249 H   0  0  0  0  0  0  0  0  0  0  0  0
   -2.6974   -2.7351    0.5780 H   0  0  0  0  0  0  0  0  0  0  0  0
   -2.8500   -1.2033   -1.4152 H   0  0  0  0  0  0  0  0  0  0  0  0
    1.9403   -1.2076   -1.4114 H   0  0  0  0  0  0  0  0  0  0  0  0
    2.6853    2.2438   -1.6885 H   0  0  0  0  0  0  0  0  0  0  0  0
    5.2469   -1.4844    1.4017 H   0  0  0  0  0  0  0  0  0  0  0  0
    7.1959    1.5793   -0.8034 H   0  0  0  0  0  0  0  0  0  0  0  0
    5.0029    2.3521   -1.5867 H   0  0  0  0  0  0  0  0  0  0  0  0
    0.5450    2.6512   -0.4179 H   0  0  0  0  0  0  0  0  0  0  0  0
   -1.6229    1.8024   -0.0561 H   0  0  0  0  0  0  0  0  0  0  0  0
   -5.4638    0.3652   -0.5744 H   0  0  0  0  0  0  0  0  0  0  0  0
   -4.4319   -0.2869   -1.9388 H   0  0  0  0  0  0  0  0  0  0  0  0
   -4.6239    1.5232   -1.5923 H   0  0  0  0  0  0  0  0  0  0  0  0
  1  2  1  0
  2  3  1  0
  2  4  1  0
  4  5  1  0
  5  6  1  0
  6  7  1  0
  7  8  2  0
  8  9  1  0
  8 10  1  0
 10 11  2  0
 11 12  1  0
 12 13  1  0
 13 14  2  0
 14 15  1  0
 15 16  2  0
 16 17  1  0
 16 18  1  0
 18 19  2  0
 11 20  1  0
 20 21  2  0
  6 22  1  0
 22 23  1  0
 22  1  1  0
 21  7  1  0
 19 13  1  0
  1 24  1  0
  1 25  1  0
  4 26  1  0
  4 27  1  0
  5 28  1  0
  5 29  1  0
  6 30  1  0
 10 31  1  0
 12 32  1  0
 15 33  1  0
 18 34  1  0
 19 35  1  0
 20 36  1  0
 21 37  1  0
 23 38  1  0
 23 39  1  0
 23 40  1  0
M  END
$$$$
[H]OC(=O)c1c([H])c([H])c(-c2c([H])c(/C([H])=N/n3c([H])nc(C([H])([H])[H])c3[H])c([H])c(S(=O)(=O)F)c2[H])c([H])c1OC([H])([H])C1([H])C([H])([H])C1([H])[H]
     RDKit          3D

 52 55  0  0  0  0  0  0  0  0999 V2000
   -0.0807    1.6859    0.3110 C   0  0  0  0  0  0  0  0  0  0  0  0
    0.0643    0.3041    0.4734 C   0  0  0  0  0  0  0  0  0  0  0  0
   -1.0795   -0.5426    0.7716 C   0  0  0  0  0  0  0  0  0  0  0  0
   -2.3350   -0.2570    0.3072 C   0  0  0  0  0  0  0  0  0  0  0  0
   -3.4314   -1.0688    0.5965 C   0  0  0  0  0  0  0  0  0  0  0  0
   -4.6925   -0.7923    0.1367 O   0  0  0  0  0  0  0  0  0  0  0  0
   -5.0029    0.3322   -0.6688 C   0  0  0  0  0  0  0  0  0  0  0  0
   -6.4619    0.3278   -0.9879 C   0  0  0  0  0  0  0  0  0  0  0  0
   -6.9459    1.4892   -1.8567 C   0  0  0  0  0  0  0  0  0  0  0  0
   -6.9575    0.0949   -2.3707 C   0  0  0  0  0  0  0  0  0  0  0  0
   -3.2336   -2.1890    1.3738 C   0  0  0  0  0  0  0  0  0  0  0  0
   -4.3511   -3.0499    1.6904 C   0  0  0  0  0  0  0  0  0  0  0  0
   -4.1764   -4.0647    2.3940 O   0  0  0  0  0  0  0  0  0  0  0  0
   -5.6112   -2.7587    1.2205 O   0  0  0  0  0  0  0  0  0  0  0  0
   -1.9613   -2.5054    1.8621 C   0  0  0  0  0  0  0  0  0  0  0  0
   -0.9029   -1.6652    1.5457 C   0  0  0  0  0  0  0  0  0  0  0  0
    1.3431   -0.1960    0.3299 C   0  0  0  0  0  0  0  0  0  0  0  0
    2.4425    0.5810    0.0437 C   0  0  0  0  0  0  0  0  0  0  0  0
    3.7862   -0.0122   -0.1010 C   0  0  0  0  0  0  0  0  0  0  0  0
    4.8128    0.7171   -0.3698 N   0  0  0  0  0  0  0  0  0  0  0  0
    6.1143    0.2368   -0.5227 N   0  0  0  0  0  0  0  0  0  0  0  0
    6.6957   -0.8477   -0.0104 C   0  0  0  0  0  0  0  0  0  0  0  0
    7.9999   -0.8961   -0.4543 C   0  0  0  0  0  0  0  0  0  0  0  0
    9.0455   -1.9088   -0.1596 C   0  0  0  0  0  0  0  0  0  0  0  0
    8.2027    0.1708   -1.2411 N   0  0  0  0  0  0  0  0  0  0  0  0
    7.0441    0.8519   -1.2730 C   0  0  0  0  0  0  0  0  0  0  0  0
    2.2450    1.9364   -0.1065 C   0  0  0  0  0  0  0  0  0  0  0  0
    0.9929    2.4984    0.0243 C   0  0  0  0  0  0  0  0  0  0  0  0
    0.7719    4.2415   -0.1736 S   0  0  0  0  0  0  0  0  0  0  0  0
   -0.3097    4.7349    0.7160 O   0  0  0  0  0  0  0  0  0  0  0  0
    0.4489    4.5179   -1.7897 F   0  0  0  0  0  0  0  0  0  0  0  0
    2.0782    4.9086    0.1465 O   0  0  0  0  0  0  0  0  0  0  0  0
   -1.0426    2.1400    0.4084 H   0  0  0  0  0  0  0  0  0  0  0  0
   -2.4990    0.6159   -0.3010 H   0  0  0  0  0  0  0  0  0  0  0  0
   -4.7524    1.2811   -0.1501 H   0  0  0  0  0  0  0  0  0  0  0  0
   -4.4368    0.3357   -1.6205 H   0  0  0  0  0  0  0  0  0  0  0  0
   -7.1509    0.0034   -0.1844 H   0  0  0  0  0  0  0  0  0  0  0  0
   -6.1624    2.1527   -2.2729 H   0  0  0  0  0  0  0  0  0  0  0  0
   -7.8705    1.9984   -1.5883 H   0  0  0  0  0  0  0  0  0  0  0  0
   -7.9571   -0.3531   -2.5147 H   0  0  0  0  0  0  0  0  0  0  0  0
   -6.1846   -0.2381   -3.0898 H   0  0  0  0  0  0  0  0  0  0  0  0
   -6.3019   -3.4678    1.0219 H   0  0  0  0  0  0  0  0  0  0  0  0
   -1.8003   -3.3871    2.4753 H   0  0  0  0  0  0  0  0  0  0  0  0
    0.0566   -1.9617    1.9517 H   0  0  0  0  0  0  0  0  0  0  0  0
    1.4740   -1.2794    0.4547 H   0  0  0  0  0  0  0  0  0  0  0  0
    3.9478   -1.0722    0.0134 H   0  0  0  0  0  0  0  0  0  0  0  0
    6.2337   -1.5688    0.6401 H   0  0  0  0  0  0  0  0  0  0  0  0
    9.1939   -1.9167    0.9366 H   0  0  0  0  0  0  0  0  0  0  0  0
    8.6634   -2.8787   -0.5534 H   0  0  0  0  0  0  0  0  0  0  0  0
   10.0209   -1.6248   -0.6014 H   0  0  0  0  0  0  0  0  0  0  0  0
    6.9270    1.7751   -1.8472 H   0  0  0  0  0  0  0  0  0  0  0  0
    3.0864    2.5714   -0.3308 H   0  0  0  0  0  0  0  0  0  0  0  0
  1  2  2  0
  2  3  1  0
  3  4  2  0
  4  5  1  0
  5  6  1  0
  6  7  1  0
  7  8  1  0
  8  9  1  0
  9 10  1  0
  5 11  2  0
 11 12  1  0
 12 13  2  0
 12 14  1  0
 11 15  1  0
 15 16  2  0
  2 17  1  0
 17 18  2  0
 18 19  1  0
 19 20  2  0
 20 21  1  0
 21 22  1  0
 22 23  2  0
 23 24  1  0
 23 25  1  0
 25 26  2  0
 18 27  1  0
 27 28  2  0
 28 29  1  0
 29 30  2  0
 29 31  1  0
 29 32  2  0
 28  1  1  0
 16  3  1  0
 26 21  1  0
 10  8  1  0
  1 33  1  0
  4 34  1  0
  7 35  1  0
  7 36  1  0
  8 37  1  0
  9 38  1  0
  9 39  1  0
 10 40  1  0
 10 41  1  0
 14 42  1  0
 15 43  1  0
 16 44  1  0
 17 45  1  0
 19 46  1  0
 22 47  1  0
 24 48  1  0
 24 49  1  0
 24 50  1  0
 26 51  1  0
 27 52  1  0
M  END
$$$$
[H]N=C(N([H])[H])N([H])C([H])([H])C([H])([H])C([H])([H])[C@@]([H])(C(=O)N([H])[C@]([H])(C(=O)N([H])[H])C([H])([H])c1c([H])c([H])c([H])c([H])c1[H])N([H])C(=O)[C@@]([H])(N([H])C(=O)[C@@]([H])(N([H])C(=O)[C@@]1([H])N(S(=O)(=O)c2c([H])c([H])c([H])c(C(F)(F)F)c2[H])C([H])([H])C([H])([H])C1([H])[H])C([H])(C([H])([H])[H])C([H])([H])[H])C([H])([H])C([H])([H])C([H])([H])N([H])C(=N[H])N([H])[H]
     RDKit          3D

116118  0  0  0  0  0  0  0  0999 V2000
    3.7534    0.0423   -3.3370 C   0  0  0  0  0  0  0  0  0  0  0  0
    3.5648    0.6379   -1.9665 C   0  0  0  0  0  0  0  0  0  0  0  0
    4.7411    1.4967   -1.6412 C   0  0  0  0  0  0  0  0  0  0  0  0
    3.4508   -0.4671   -0.8935 C   0  0  2  0  0  0  0  0  0  0  0  0
    4.6380   -1.2713   -0.8928 N   0  0  0  0  0  0  0  0  0  0  0  0
    5.6803   -1.0795    0.0844 C   0  0  0  0  0  0  0  0  0  0  0  0
    5.5706   -0.2007    0.9592 O   0  0  0  0  0  0  0  0  0  0  0  0
    6.8796   -1.9551    0.0019 C   0  0  2  0  0  0  0  0  0  0  0  0
    6.5614   -3.2878    0.6959 C   0  0  0  0  0  0  0  0  0  0  0  0
    7.8780   -3.7580    1.1803 C   0  0  0  0  0  0  0  0  0  0  0  0
    8.5845   -2.4746    1.5284 C   0  0  0  0  0  0  0  0  0  0  0  0
    8.0052   -1.4587    0.7130 N   0  0  0  0  0  0  0  0  0  0  0  0
    9.1945   -0.7068   -0.2799 S   0  0  0  0  0  0  0  0  0  0  0  0
    8.7738   -0.8014   -1.7451 O   0  0  0  0  0  0  0  0  0  0  0  0
   10.5129   -1.4492   -0.1679 O   0  0  0  0  0  0  0  0  0  0  0  0
    9.4202    0.9865    0.0693 C   0  0  0  0  0  0  0  0  0  0  0  0
   10.4047    1.3960    0.9591 C   0  0  0  0  0  0  0  0  0  0  0  0
   10.5865    2.7243    1.2344 C   0  0  0  0  0  0  0  0  0  0  0  0
    9.8067    3.7160    0.6471 C   0  0  0  0  0  0  0  0  0  0  0  0
    8.8229    3.3218   -0.2413 C   0  0  0  0  0  0  0  0  0  0  0  0
    8.6607    1.9749   -0.5007 C   0  0  0  0  0  0  0  0  0  0  0  0
    7.9531    4.3291   -0.9161 C   0  0  0  0  0  0  0  0  0  0  0  0
    8.4454    5.6082   -0.6248 F   0  0  0  0  0  0  0  0  0  0  0  0
    7.9441    4.1053   -2.2515 F   0  0  0  0  0  0  0  0  0  0  0  0
    6.6905    4.2305   -0.3803 F   0  0  0  0  0  0  0  0  0  0  0  0
    2.1808   -1.1869   -1.0937 C   0  0  0  0  0  0  0  0  0  0  0  0
    2.1498   -2.2051   -1.8066 O   0  0  0  0  0  0  0  0  0  0  0  0
    1.0146   -0.7132   -0.4759 N   0  0  0  0  0  0  0  0  0  0  0  0
   -0.3262   -1.2560   -0.5842 C   0  0  1  0  0  0  0  0  0  0  0  0
   -0.6230   -2.3977    0.3144 C   0  0  0  0  0  0  0  0  0  0  0  0
   -0.4867   -2.1654    1.7905 C   0  0  0  0  0  0  0  0  0  0  0  0
   -0.8479   -3.4859    2.4523 C   0  0  0  0  0  0  0  0  0  0  0  0
   -0.7315   -3.5006    3.8681 N   0  0  0  0  0  0  0  0  0  0  0  0
   -1.5482   -2.7818    4.7298 C   0  0  0  0  0  0  0  0  0  0  0  0
   -1.8357   -1.4269    4.5747 N   0  0  0  0  0  0  0  0  0  0  0  0
   -2.0683   -3.3918    5.7636 N   0  0  0  0  0  0  0  0  0  0  0  0
   -1.3425   -0.2021   -0.6576 C   0  0  0  0  0  0  0  0  0  0  0  0
   -0.9715    1.0011   -0.6394 O   0  0  0  0  0  0  0  0  0  0  0  0
   -2.7189   -0.4683   -0.7460 N   0  0  0  0  0  0  0  0  0  0  0  0
   -3.7709    0.5202   -0.8159 C   0  0  1  0  0  0  0  0  0  0  0  0
   -4.5640    0.5857   -2.0473 C   0  0  0  0  0  0  0  0  0  0  0  0
   -5.2944   -0.6548   -2.4876 C   0  0  0  0  0  0  0  0  0  0  0  0
   -5.9895   -0.2512   -3.7968 C   0  0  0  0  0  0  0  0  0  0  0  0
   -6.6624   -1.3099   -4.4541 N   0  0  0  0  0  0  0  0  0  0  0  0
   -7.8276   -1.9794   -4.0131 C   0  0  0  0  0  0  0  0  0  0  0  0
   -9.0459   -1.7846   -4.7947 N   0  0  0  0  0  0  0  0  0  0  0  0
   -7.8073   -2.7167   -3.0106 N   0  0  0  0  0  0  0  0  0  0  0  0
   -4.4229    0.8384    0.4635 C   0  0  0  0  0  0  0  0  0  0  0  0
   -3.7247    0.9697    1.5252 O   0  0  0  0  0  0  0  0  0  0  0  0
   -5.8534    1.0192    0.6136 N   0  0  0  0  0  0  0  0  0  0  0  0
   -6.3361    1.3692    1.9451 C   0  0  1  0  0  0  0  0  0  0  0  0
   -7.7145    1.8828    1.9533 C   0  0  0  0  0  0  0  0  0  0  0  0
   -7.9630    3.0873    1.1656 C   0  0  0  0  0  0  0  0  0  0  0  0
   -8.4059    2.9849   -0.1559 C   0  0  0  0  0  0  0  0  0  0  0  0
   -8.6468    4.1633   -0.8737 C   0  0  0  0  0  0  0  0  0  0  0  0
   -8.4566    5.3707   -0.3002 C   0  0  0  0  0  0  0  0  0  0  0  0
   -8.0217    5.5280    1.0046 C   0  0  0  0  0  0  0  0  0  0  0  0
   -7.7890    4.3493    1.6935 C   0  0  0  0  0  0  0  0  0  0  0  0
   -6.2655    0.1487    2.8433 C   0  0  0  0  0  0  0  0  0  0  0  0
   -6.3584    0.2704    4.2455 N   0  0  0  0  0  0  0  0  0  0  0  0
   -6.1088   -0.9702    2.2855 O   0  0  0  0  0  0  0  0  0  0  0  0
    4.2325    0.8603   -3.9605 H   0  0  0  0  0  0  0  0  0  0  0  0
    4.3529   -0.8699   -3.3438 H   0  0  0  0  0  0  0  0  0  0  0  0
    2.7379   -0.0874   -3.7604 H   0  0  0  0  0  0  0  0  0  0  0  0
    2.6462    1.2241   -1.8734 H   0  0  0  0  0  0  0  0  0  0  0  0
    5.7022    0.9206   -1.6771 H   0  0  0  0  0  0  0  0  0  0  0  0
    4.6902    1.9685   -0.6408 H   0  0  0  0  0  0  0  0  0  0  0  0
    4.8361    2.3630   -2.3482 H   0  0  0  0  0  0  0  0  0  0  0  0
    3.4158    0.1041    0.0544 H   0  0  0  0  0  0  0  0  0  0  0  0
    4.7572   -2.0094   -1.6011 H   0  0  0  0  0  0  0  0  0  0  0  0
    7.1686   -2.1974   -1.0371 H   0  0  0  0  0  0  0  0  0  0  0  0
    5.9043   -3.0082    1.5614 H   0  0  0  0  0  0  0  0  0  0  0  0
    6.0372   -3.9603   -0.0053 H   0  0  0  0  0  0  0  0  0  0  0  0
    7.8023   -4.4593    2.0419 H   0  0  0  0  0  0  0  0  0  0  0  0
    8.4063   -4.2689    0.3207 H   0  0  0  0  0  0  0  0  0  0  0  0
    9.6863   -2.5828    1.3524 H   0  0  0  0  0  0  0  0  0  0  0  0
    8.4858   -2.3224    2.6167 H   0  0  0  0  0  0  0  0  0  0  0  0
   11.0207    0.6456    1.4327 H   0  0  0  0  0  0  0  0  0  0  0  0
   11.3728    3.0384    1.9463 H   0  0  0  0  0  0  0  0  0  0  0  0
    9.9587    4.7517    0.8629 H   0  0  0  0  0  0  0  0  0  0  0  0
    7.9005    1.6972   -1.1992 H   0  0  0  0  0  0  0  0  0  0  0  0
    1.0787    0.1411    0.1455 H   0  0  0  0  0  0  0  0  0  0  0  0
   -0.3103   -1.7429   -1.6321 H   0  0  0  0  0  0  0  0  0  0  0  0
   -1.6697   -2.7468    0.1171 H   0  0  0  0  0  0  0  0  0  0  0  0
    0.0560   -3.2344    0.0188 H   0  0  0  0  0  0  0  0  0  0  0  0
    0.5649   -1.9689    2.0955 H   0  0  0  0  0  0  0  0  0  0  0  0
   -1.1446   -1.3647    2.1289 H   0  0  0  0  0  0  0  0  0  0  0  0
   -0.0983   -4.2339    2.0368 H   0  0  0  0  0  0  0  0  0  0  0  0
   -1.8213   -3.8665    2.0711 H   0  0  0  0  0  0  0  0  0  0  0  0
    0.0305   -4.1083    4.3380 H   0  0  0  0  0  0  0  0  0  0  0  0
   -2.6235   -1.1313    3.9609 H   0  0  0  0  0  0  0  0  0  0  0  0
   -1.2871   -0.6887    5.0557 H   0  0  0  0  0  0  0  0  0  0  0  0
   -1.8676   -4.3940    5.9198 H   0  0  0  0  0  0  0  0  0  0  0  0
   -3.0750   -1.4773   -0.7733 H   0  0  0  0  0  0  0  0  0  0  0  0
   -3.0912    1.5071   -0.9316 H   0  0  0  0  0  0  0  0  0  0  0  0
   -3.9326    0.8895   -2.9469 H   0  0  0  0  0  0  0  0  0  0  0  0
   -5.3475    1.4029   -2.0048 H   0  0  0  0  0  0  0  0  0  0  0  0
   -4.6192   -1.4900   -2.6933 H   0  0  0  0  0  0  0  0  0  0  0  0
   -6.1411   -0.9236   -1.7987 H   0  0  0  0  0  0  0  0  0  0  0  0
   -6.7705    0.5387   -3.5716 H   0  0  0  0  0  0  0  0  0  0  0  0
   -5.2345    0.2480   -4.4685 H   0  0  0  0  0  0  0  0  0  0  0  0
   -6.2631   -1.6667   -5.3940 H   0  0  0  0  0  0  0  0  0  0  0  0
   -9.1561   -2.2231   -5.7237 H   0  0  0  0  0  0  0  0  0  0  0  0
   -9.8129   -1.2003   -4.4192 H   0  0  0  0  0  0  0  0  0  0  0  0
   -7.1301   -3.0000   -2.3591 H   0  0  0  0  0  0  0  0  0  0  0  0
   -6.5104    0.9102   -0.1634 H   0  0  0  0  0  0  0  0  0  0  0  0
   -5.6279    2.0775    2.4591 H   0  0  0  0  0  0  0  0  0  0  0  0
   -8.4198    1.0774    1.6087 H   0  0  0  0  0  0  0  0  0  0  0  0
   -8.0256    2.0602    3.0128 H   0  0  0  0  0  0  0  0  0  0  0  0
   -8.5454    2.0017   -0.5740 H   0  0  0  0  0  0  0  0  0  0  0  0
   -8.9975    4.0439   -1.9036 H   0  0  0  0  0  0  0  0  0  0  0  0
   -8.6519    6.2789   -0.8585 H   0  0  0  0  0  0  0  0  0  0  0  0
   -7.8719    6.4819    1.4592 H   0  0  0  0  0  0  0  0  0  0  0  0
   -7.4332    4.4092    2.7108 H   0  0  0  0  0  0  0  0  0  0  0  0
   -7.1532   -0.0272    4.8193 H   0  0  0  0  0  0  0  0  0  0  0  0
   -5.5506    0.7130    4.8024 H   0  0  0  0  0  0  0  0  0  0  0  0
  1  2  1  0
  2  3  1  0
  2  4  1  0
  4  5  1  0
  5  6  1  0
  6  7  2  0
  6  8  1  0
  8  9  1  0
  9 10  1  0
 10 11  1  0
 11 12  1  0
 12 13  1  0
 13 14  2  0
 13 15  2  0
 13 16  1  0
 16 17  2  0
 17 18  1  0
 18 19  2  0
 19 20  1  0
 20 21  2  0
 20 22  1  0
 22 23  1  0
 22 24  1  0
 22 25  1  0
  4 26  1  0
 26 27  2  0
 26 28  1  0
 28 29  1  0
 29 30  1  0
 30 31  1  0
 31 32  1  0
 32 33  1  0
 33 34  1  0
 34 35  1  0
 34 36  2  3
 29 37  1  0
 37 38  2  0
 37 39  1  0
 39 40  1  0
 40 41  1  0
 41 42  1  0
 42 43  1  0
 43 44  1  0
 44 45  1  0
 45 46  1  0
 45 47  2  3
 40 48  1  0
 48 49  2  0
 48 50  1  0
 50 51  1  0
 51 52  1  0
 52 53  1  0
 53 54  2  0
 54 55  1  0
 55 56  2  0
 56 57  1  0
 57 58  2  0
 51 59  1  0
 59 60  1  0
 59 61  2  0
 12  8  1  0
 21 16  1  0
 58 53  1  0
  1 62  1  0
  1 63  1  0
  1 64  1  0
  2 65  1  0
  3 66  1  0
  3 67  1  0
  3 68  1  0
  4 69  1  1
  5 70  1  0
  8 71  1  6
  9 72  1  0
  9 73  1  0
 10 74  1  0
 10 75  1  0
 11 76  1  0
 11 77  1  0
 17 78  1  0
 18 79  1  0
 19 80  1  0
 21 81  1  0
 28 82  1  0
 29 83  1  6
 30 84  1  0
 30 85  1  0
 31 86  1  0
 31 87  1  0
 32 88  1  0
 32 89  1  0
 33 90  1  0
 35 91  1  0
 35 92  1  0
 36 93  1  0
 39 94  1  0
 40 95  1  6
 41 96  1  0
 41 97  1  0
 42 98  1  0
 42 99  1  0
 43100  1  0
 43101  1  0
 44102  1  0
 46103  1  0
 46104  1  0
 47105  1  0
 50106  1  0
 51107  1  1
 52108  1  0
 52109  1  0
 54110  1  0
 55111  1  0
 56112  1  0
 57113  1  0
 58114  1  0
 60115  1  0
 60116  1  0
M  END
$$$$
[H]OC(=O)C([H])([H])Oc1c([H])c([H])c(N([H])C(=O)c2c([H])c([H])c([H])c(OC([H])([H])C([H])([H])[H])c2[H])c(F)c1[H]
     RDKit          3D

 40 41  0  0  0  0  0  0  0  0999 V2000
   -7.0311   -0.2941    0.5158 C   0  0  0  0  0  0  0  0  0  0  0  0
   -6.0864   -1.4309    0.3060 C   0  0  0  0  0  0  0  0  0  0  0  0
   -4.7366   -1.1120    0.3145 O   0  0  0  0  0  0  0  0  0  0  0  0
   -4.0632   -0.2622   -0.5220 C   0  0  0  0  0  0  0  0  0  0  0  0
   -4.6898    0.4137   -1.5355 C   0  0  0  0  0  0  0  0  0  0  0  0
   -3.9977    1.2775   -2.3826 C   0  0  0  0  0  0  0  0  0  0  0  0
   -2.6599    1.4575   -2.2011 C   0  0  0  0  0  0  0  0  0  0  0  0
   -1.9976    0.7962   -1.1952 C   0  0  0  0  0  0  0  0  0  0  0  0
   -2.6914   -0.0509   -0.3685 C   0  0  0  0  0  0  0  0  0  0  0  0
   -0.5445    1.0548   -1.0634 C   0  0  0  0  0  0  0  0  0  0  0  0
   -0.0763    2.0770   -1.6217 O   0  0  0  0  0  0  0  0  0  0  0  0
    0.2472    0.1701   -0.3362 N   0  0  0  0  0  0  0  0  0  0  0  0
    1.6423    0.2227   -0.0823 C   0  0  0  0  0  0  0  0  0  0  0  0
    2.4903    1.2035   -0.5335 C   0  0  0  0  0  0  0  0  0  0  0  0
    3.8632    1.2206   -0.2616 C   0  0  0  0  0  0  0  0  0  0  0  0
    4.3895    0.1988    0.4989 C   0  0  0  0  0  0  0  0  0  0  0  0
    5.7379    0.1778    0.7901 O   0  0  0  0  0  0  0  0  0  0  0  0
    6.2699   -0.8654    1.5655 C   0  0  0  0  0  0  0  0  0  0  0  0
    7.7329   -0.6856    1.7521 C   0  0  0  0  0  0  0  0  0  0  0  0
    8.3697    0.4037    1.1881 O   0  0  0  0  0  0  0  0  0  0  0  0
    8.3862   -1.5205    2.4195 O   0  0  0  0  0  0  0  0  0  0  0  0
    3.5897   -0.8106    0.9784 C   0  0  0  0  0  0  0  0  0  0  0  0
    2.2509   -0.7807    0.6835 C   0  0  0  0  0  0  0  0  0  0  0  0
    1.4460   -1.7757    1.1528 F   0  0  0  0  0  0  0  0  0  0  0  0
   -7.8341   -0.2395   -0.2433 H   0  0  0  0  0  0  0  0  0  0  0  0
   -7.5221   -0.4187    1.5023 H   0  0  0  0  0  0  0  0  0  0  0  0
   -6.4170    0.6439    0.5543 H   0  0  0  0  0  0  0  0  0  0  0  0
   -6.3090   -1.8298   -0.7290 H   0  0  0  0  0  0  0  0  0  0  0  0
   -6.3463   -2.2609    0.9971 H   0  0  0  0  0  0  0  0  0  0  0  0
   -5.7385    0.3043   -1.7207 H   0  0  0  0  0  0  0  0  0  0  0  0
   -4.5260    1.7931   -3.1705 H   0  0  0  0  0  0  0  0  0  0  0  0
   -2.1529    2.1465   -2.8903 H   0  0  0  0  0  0  0  0  0  0  0  0
   -2.1946   -0.5804    0.4346 H   0  0  0  0  0  0  0  0  0  0  0  0
   -0.2544   -0.6823    0.0974 H   0  0  0  0  0  0  0  0  0  0  0  0
    2.1247    2.0151   -1.1268 H   0  0  0  0  0  0  0  0  0  0  0  0
    4.5061    2.0065   -0.6308 H   0  0  0  0  0  0  0  0  0  0  0  0
    6.0702   -1.8242    1.0437 H   0  0  0  0  0  0  0  0  0  0  0  0
    5.7481   -0.9269    2.5474 H   0  0  0  0  0  0  0  0  0  0  0  0
    8.9788    1.0257    1.6879 H   0  0  0  0  0  0  0  0  0  0  0  0
    4.0261   -1.6204    1.5851 H   0  0  0  0  0  0  0  0  0  0  0  0
  1  2  1  0
  2  3  1  0
  3  4  1  0
  4  5  2  0
  5  6  1  0
  6  7  2  0
  7  8  1  0
  8  9  2  0
  8 10  1  0
 10 11  2  0
 10 12  1  0
 12 13  1  0
 13 14  2  0
 14 15  1  0
 15 16  2  0
 16 17  1  0
 17 18  1  0
 18 19  1  0
 19 20  1  0
 19 21  2  0
 16 22  1  0
 22 23  2  0
 23 24  1  0
  9  4  1  0
 23 13  1  0
  1 25  1  0
  1 26  1  0
  1 27  1  0
  2 28  1  0
  2 29  1  0
  5 30  1  0
  6 31  1  0
  7 32  1  0
  9 33  1  0
 12 34  1  0
 14 35  1  0
 15 36  1  0
 18 37  1  0
 18 38  1  0
 20 39  1  0
 22 40  1  0
M  END
$$$$
[H]OC(=O)c1c([H])c([H])c(N([H])C(=O)c2c([H])c([H])c(OC([H])(C([H])([H])[H])C([H])([H])[H])c(C(=O)N([H])c3c([H])c([H])c([H])c(C(F)(F)F)c3[H])c2[H])c([H])c1[H]
     RDKit          3D

 56 58  0  0  0  0  0  0  0  0999 V2000
   -3.7234    2.9790   -1.3900 C   0  0  0  0  0  0  0  0  0  0  0  0
   -2.7183    3.2513   -0.2445 C   0  0  0  0  0  0  0  0  0  0  0  0
   -3.3967    4.1783    0.7601 C   0  0  0  0  0  0  0  0  0  0  0  0
   -2.3304    2.1075    0.3473 O   0  0  0  0  0  0  0  0  0  0  0  0
   -1.0080    1.5512    0.2623 C   0  0  0  0  0  0  0  0  0  0  0  0
   -0.1500    2.1794   -0.6397 C   0  0  0  0  0  0  0  0  0  0  0  0
    1.1730    1.6887   -0.7425 C   0  0  0  0  0  0  0  0  0  0  0  0
    1.5594    0.5712    0.0833 C   0  0  0  0  0  0  0  0  0  0  0  0
    0.5867    0.1046    0.8692 C   0  0  0  0  0  0  0  0  0  0  0  0
   -0.8104    0.5842    1.0060 C   0  0  0  0  0  0  0  0  0  0  0  0
   -1.5360   -0.6237    1.6382 C   0  0  0  0  0  0  0  0  0  0  0  0
   -1.1053   -1.0483    2.7395 O   0  0  0  0  0  0  0  0  0  0  0  0
   -2.5370   -0.9320    0.8171 N   0  0  0  0  0  0  0  0  0  0  0  0
   -3.6369   -1.3252    0.0024 C   0  0  0  0  0  0  0  0  0  0  0  0
   -3.7588   -0.9958   -1.2483 C   0  0  0  0  0  0  0  0  0  0  0  0
   -4.9328   -1.4688   -1.8689 C   0  0  0  0  0  0  0  0  0  0  0  0
   -5.9029   -2.2143   -1.2708 C   0  0  0  0  0  0  0  0  0  0  0  0
   -5.6066   -2.4867    0.1946 C   0  0  0  0  0  0  0  0  0  0  0  0
   -4.5214   -2.0438    0.7786 C   0  0  0  0  0  0  0  0  0  0  0  0
   -6.5994   -3.3913    0.7247 C   0  0  0  0  0  0  0  0  0  0  0  0
   -7.2829   -4.1042   -0.3000 F   0  0  0  0  0  0  0  0  0  0  0  0
   -6.0302   -4.3114    1.5450 F   0  0  0  0  0  0  0  0  0  0  0  0
   -7.4934   -2.6709    1.4735 F   0  0  0  0  0  0  0  0  0  0  0  0
    2.8903    0.0556    0.1268 C   0  0  0  0  0  0  0  0  0  0  0  0
    3.1328   -0.8070    1.0176 O   0  0  0  0  0  0  0  0  0  0  0  0
    3.8892    0.4961   -0.7621 N   0  0  0  0  0  0  0  0  0  0  0  0
    5.1633   -0.0044   -0.5702 C   0  0  0  0  0  0  0  0  0  0  0  0
    6.2657    0.6977   -0.2518 C   0  0  0  0  0  0  0  0  0  0  0  0
    7.5305    0.2976    0.0906 C   0  0  0  0  0  0  0  0  0  0  0  0
    7.7225   -1.1031    0.1173 C   0  0  0  0  0  0  0  0  0  0  0  0
    6.6108   -1.8623   -0.2132 C   0  0  0  0  0  0  0  0  0  0  0  0
    5.3334   -1.4899   -0.5819 C   0  0  0  0  0  0  0  0  0  0  0  0
    9.0215   -1.7226    0.3861 C   0  0  0  0  0  0  0  0  0  0  0  0
    9.1811   -3.0860    0.0132 O   0  0  0  0  0  0  0  0  0  0  0  0
   10.0243   -1.1871    0.8996 O   0  0  0  0  0  0  0  0  0  0  0  0
   -3.9139    3.9522   -1.9051 H   0  0  0  0  0  0  0  0  0  0  0  0
   -4.6121    2.4646   -0.9848 H   0  0  0  0  0  0  0  0  0  0  0  0
   -3.2452    2.2817   -2.0928 H   0  0  0  0  0  0  0  0  0  0  0  0
   -1.9066    3.9135   -0.6236 H   0  0  0  0  0  0  0  0  0  0  0  0
   -3.8129    5.0724    0.2126 H   0  0  0  0  0  0  0  0  0  0  0  0
   -4.1738    3.6395    1.3497 H   0  0  0  0  0  0  0  0  0  0  0  0
   -2.6441    4.5233    1.4616 H   0  0  0  0  0  0  0  0  0  0  0  0
   -0.4737    2.9801   -1.1985 H   0  0  0  0  0  0  0  0  0  0  0  0
    1.9109    2.1258   -1.3494 H   0  0  0  0  0  0  0  0  0  0  0  0
    0.8101   -0.8004    1.3920 H   0  0  0  0  0  0  0  0  0  0  0  0
   -1.6866   -0.7908   -0.2990 H   0  0  0  0  0  0  0  0  0  0  0  0
   -3.0515   -0.3509   -1.8629 H   0  0  0  0  0  0  0  0  0  0  0  0
   -5.0200   -1.1806   -2.8684 H   0  0  0  0  0  0  0  0  0  0  0  0
   -6.7643   -2.5754   -1.7382 H   0  0  0  0  0  0  0  0  0  0  0  0
   -4.3331   -2.1975    1.8673 H   0  0  0  0  0  0  0  0  0  0  0  0
    3.6309    1.2098   -1.4607 H   0  0  0  0  0  0  0  0  0  0  0  0
    6.1279    1.8288   -0.3596 H   0  0  0  0  0  0  0  0  0  0  0  0
    8.3140    0.8797    0.2095 H   0  0  0  0  0  0  0  0  0  0  0  0
    6.6870   -2.9598   -0.0473 H   0  0  0  0  0  0  0  0  0  0  0  0
    4.6697   -2.1369   -1.0302 H   0  0  0  0  0  0  0  0  0  0  0  0
    8.4835   -3.7428    0.0658 H   0  0  0  0  0  0  0  0  0  0  0  0
  1  2  1  0
  2  3  1  0
  2  4  1  0
  4  5  1  0
  5  6  2  0
  6  7  1  0
  7  8  2  0
  8  9  1  0
  9 10  2  0
 10 11  1  0
 11 12  2  0
 11 13  1  0
 13 14  1  0
 14 15  2  0
 15 16  1  0
 16 17  2  0
 17 18  1  0
 18 19  2  0
 18 20  1  0
 20 21  1  0
 20 22  1  0
 20 23  1  0
  8 24  1  0
 24 25  2  0
 24 26  1  0
 26 27  1  0
 27 28  2  0
 28 29  1  0
 29 30  2  0
 30 31  1  0
 31 32  2  0
 30 33  1  0
 33 34  1  0
 33 35  2  0
 10  5  1  0
 19 14  1  0
 32 27  1  0
  1 36  1  0
  1 37  1  0
  1 38  1  0
  2 39  1  0
  3 40  1  0
  3 41  1  0
  3 42  1  0
  6 43  1  0
  7 44  1  0
  9 45  1  0
 13 46  1  0
 15 47  1  0
 16 48  1  0
 17 49  1  0
 19 50  1  0
 26 51  1  0
 28 52  1  0
 29 53  1  0
 31 54  1  0
 32 55  1  0
 34 56  1  0
M  END
$$$$
[H]OC(=O)c1[se]c(-c2c([H])c([H])c(OC([H])(C([H])([H])[H])C([H])([H])[H])c(C#N)c2[H])nc1C([H])([H])[H]
     RDKit          3D

 35 36  0  0  0  0  0  0  0  0999 V2000
   -5.2725    1.2153   -0.3579 C   0  0  0  0  0  0  0  0  0  0  0  0
   -4.4408    0.1998    0.4107 C   0  0  0  0  0  0  0  0  0  0  0  0
   -5.4312   -0.8278    0.9341 C   0  0  0  0  0  0  0  0  0  0  0  0
   -3.4695   -0.3400   -0.4038 O   0  0  0  0  0  0  0  0  0  0  0  0
   -2.1159   -0.2364   -0.2572 C   0  0  0  0  0  0  0  0  0  0  0  0
   -1.4662    0.4365    0.7465 C   0  0  0  0  0  0  0  0  0  0  0  0
   -0.0888    0.4837    0.8085 C   0  0  0  0  0  0  0  0  0  0  0  0
    0.6804   -0.1494   -0.1446 C   0  0  0  0  0  0  0  0  0  0  0  0
    0.0222   -0.8190   -1.1432 C   0  0  0  0  0  0  0  0  0  0  0  0
   -1.3406   -0.8829   -1.2303 C   0  0  0  0  0  0  0  0  0  0  0  0
   -1.9794   -1.6020   -2.3032 C   0  0  0  0  0  0  0  0  0  0  0  0
   -2.4640   -2.1760   -3.1599 N   0  0  0  0  0  0  0  0  0  0  0  0
    2.1163   -0.1001   -0.0798 C   0  0  0  0  0  0  0  0  0  0  0  0
    3.1908   -0.4460   -0.6046 N   0  0  0  0  0  0  0  0  0  0  0  0
    4.4194   -0.2819   -0.3665 C   0  0  0  0  0  0  0  0  0  0  0  0
    5.4961   -0.9065   -1.3050 C   0  0  0  0  0  0  0  0  0  0  0  0
    4.9237    0.4162    0.6757 C   0  0  0  0  0  0  0  0  0  0  0  0
    3.0679    0.9718    1.5196 Se  0  0  0  0  0  2  0  0  0  0  0  0
    6.1240    0.8259    1.2818 C   0  0  0  0  0  0  0  0  0  0  0  0
    6.1302    1.5951    2.4337 O   0  0  0  0  0  0  0  0  0  0  0  0
    7.2154    0.5177    0.8134 O   0  0  0  0  0  0  0  0  0  0  0  0
   -6.1564    1.4325    0.2810 H   0  0  0  0  0  0  0  0  0  0  0  0
   -5.6407    0.8053   -1.3130 H   0  0  0  0  0  0  0  0  0  0  0  0
   -4.6832    2.1443   -0.4695 H   0  0  0  0  0  0  0  0  0  0  0  0
   -3.9883    0.7581    1.2439 H   0  0  0  0  0  0  0  0  0  0  0  0
   -4.9836   -1.8444    0.9336 H   0  0  0  0  0  0  0  0  0  0  0  0
   -6.3871   -0.8136    0.3469 H   0  0  0  0  0  0  0  0  0  0  0  0
   -5.6995   -0.5210    1.9643 H   0  0  0  0  0  0  0  0  0  0  0  0
   -2.0233    0.9475    1.5152 H   0  0  0  0  0  0  0  0  0  0  0  0
    0.3632    1.0236    1.6141 H   0  0  0  0  0  0  0  0  0  0  0  0
    0.6332   -1.3073   -1.8784 H   0  0  0  0  0  0  0  0  0  0  0  0
    6.2458   -0.1636   -1.5456 H   0  0  0  0  0  0  0  0  0  0  0  0
    5.0368   -1.2306   -2.2534 H   0  0  0  0  0  0  0  0  0  0  0  0
    5.9963   -1.7324   -0.7615 H   0  0  0  0  0  0  0  0  0  0  0  0
    5.9691    2.6076    2.3534 H   0  0  0  0  0  0  0  0  0  0  0  0
  1  2  1  0
  2  3  1  0
  2  4  1  0
  4  5  1  0
  5  6  2  0
  6  7  1  0
  7  8  2  0
  8  9  1  0
  9 10  2  0
 10 11  1  0
 11 12  3  0
  8 13  1  0
 13 14  2  0
 14 15  1  0
 15 16  1  0
 15 17  2  0
 17 18  1  0
 17 19  1  0
 19 20  1  0
 19 21  2  0
 10  5  1  0
 18 13  1  0
  1 22  1  0
  1 23  1  0
  1 24  1  0
  2 25  1  0
  3 26  1  0
  3 27  1  0
  3 28  1  0
  6 29  1  0
  7 30  1  0
  9 31  1  0
 16 32  1  0
 16 33  1  0
 16 34  1  0
 20 35  1  0
M  END
$$$$
[H]OC([H])([H])C1([H])C([H])([H])C([H])([H])C([H])([H])[C@@](N([H])C(=O)[C@]([H])(C#N)C([H])([H])C([H])([H])[H])(C([H])([H])[H])C1([H])[H]
     RDKit          3D

 39 39  0  0  0  0  0  0  0  0999 V2000
    3.6623   -1.2125    0.6717 C   0  0  0  0  0  0  0  0  0  0  0  0
    3.3472    0.0525    1.4432 C   0  0  0  0  0  0  0  0  0  0  0  0
    3.1739    1.2229    0.4822 C   0  0  1  0  0  0  0  0  0  0  0  0
    4.3902    1.4154   -0.2643 C   0  0  0  0  0  0  0  0  0  0  0  0
    5.3548    1.5862   -0.8572 N   0  0  0  0  0  0  0  0  0  0  0  0
    1.9921    1.0040   -0.3881 C   0  0  0  0  0  0  0  0  0  0  0  0
    2.2043    0.9588   -1.6273 O   0  0  0  0  0  0  0  0  0  0  0  0
    0.7027    0.8580    0.1932 N   0  0  0  0  0  0  0  0  0  0  0  0
   -0.4989    0.6450   -0.5295 C   0  0  1  0  0  0  0  0  0  0  0  0
   -0.8637    1.7142   -1.5104 C   0  0  0  0  0  0  0  0  0  0  0  0
   -0.3803   -0.7140   -1.2286 C   0  0  0  0  0  0  0  0  0  0  0  0
   -0.9206   -1.7869   -0.3066 C   0  0  0  0  0  0  0  0  0  0  0  0
   -2.4293   -1.6721   -0.2758 C   0  0  0  0  0  0  0  0  0  0  0  0
   -2.7723   -0.2115   -0.2443 C   0  0  0  0  0  0  0  0  0  0  0  0
   -4.0566    0.0910    0.4582 C   0  0  0  0  0  0  0  0  0  0  0  0
   -4.0803   -0.3024    1.7803 O   0  0  0  0  0  0  0  0  0  0  0  0
   -1.6453    0.5191    0.4490 C   0  0  0  0  0  0  0  0  0  0  0  0
    3.6461   -1.0675   -0.4195 H   0  0  0  0  0  0  0  0  0  0  0  0
    4.6883   -1.5692    0.9289 H   0  0  0  0  0  0  0  0  0  0  0  0
    2.8894   -1.9768    0.8995 H   0  0  0  0  0  0  0  0  0  0  0  0
    2.4664   -0.0717    2.0925 H   0  0  0  0  0  0  0  0  0  0  0  0
    4.2088    0.3026    2.0976 H   0  0  0  0  0  0  0  0  0  0  0  0
    2.9705    2.1119    1.1433 H   0  0  0  0  0  0  0  0  0  0  0  0
    0.6373    0.9122    1.2331 H   0  0  0  0  0  0  0  0  0  0  0  0
   -0.0055    2.2142   -1.9818 H   0  0  0  0  0  0  0  0  0  0  0  0
   -1.4427    1.2384   -2.3308 H   0  0  0  0  0  0  0  0  0  0  0  0
   -1.5100    2.4504   -1.0232 H   0  0  0  0  0  0  0  0  0  0  0  0
   -1.0106   -0.6799   -2.1369 H   0  0  0  0  0  0  0  0  0  0  0  0
    0.6740   -0.9618   -1.4481 H   0  0  0  0  0  0  0  0  0  0  0  0
   -0.4998   -1.6231    0.7026 H   0  0  0  0  0  0  0  0  0  0  0  0
   -0.5899   -2.7929   -0.6407 H   0  0  0  0  0  0  0  0  0  0  0  0
   -2.8660   -2.1824   -1.1598 H   0  0  0  0  0  0  0  0  0  0  0  0
   -2.7959   -2.2261    0.6153 H   0  0  0  0  0  0  0  0  0  0  0  0
   -2.8306    0.1655   -1.2707 H   0  0  0  0  0  0  0  0  0  0  0  0
   -4.2145    1.1831    0.4244 H   0  0  0  0  0  0  0  0  0  0  0  0
   -4.9048   -0.3819   -0.0895 H   0  0  0  0  0  0  0  0  0  0  0  0
   -3.2954   -0.8494    2.0509 H   0  0  0  0  0  0  0  0  0  0  0  0
   -1.3617    0.0848    1.4097 H   0  0  0  0  0  0  0  0  0  0  0  0
   -2.0336    1.5523    0.6578 H   0  0  0  0  0  0  0  0  0  0  0  0
  1  2  1  0
  2  3  1  0
  3  4  1  0
  4  5  3  0
  3  6  1  0
  6  7  2  0
  6  8  1  0
  9  8  1  1
  9 10  1  0
  9 11  1  0
 11 12  1  0
 12 13  1  0
 13 14  1  0
 14 15  1  0
 15 16  1  0
 14 17  1  0
 17  9  1  0
  1 18  1  0
  1 19  1  0
  1 20  1  0
  2 21  1  0
  2 22  1  0
  3 23  1  1
  8 24  1  0
 10 25  1  0
 10 26  1  0
 10 27  1  0
 11 28  1  0
 11 29  1  0
 12 30  1  0
 12 31  1  0
 13 32  1  0
 13 33  1  0
 14 34  1  0
 15 35  1  0
 15 36  1  0
 16 37  1  0
 17 38  1  0
 17 39  1  0
M  END
$$$$
[H]c1nc([H])c(C([H])([H])N2C([H])([H])C([H])([H])C([H])(N([H])C(=O)c3nc4c([H])c(Cl)c([H])c([H])c4n3[H])C([H])([H])C2([H])[H])c([H])c1[H]
     RDKit          3D

 46 49  0  0  0  0  0  0  0  0999 V2000
    8.5872    1.7169    1.9453 Cl  0  0  0  0  0  0  0  0  0  0  0  0
    7.4146    0.7412    1.0471 C   0  0  0  0  0  0  0  0  0  0  0  0
    7.8765   -0.2917    0.2602 C   0  0  0  0  0  0  0  0  0  0  0  0
    6.9552   -1.0553   -0.4430 C   0  0  0  0  0  0  0  0  0  0  0  0
    5.6015   -0.8009   -0.3686 C   0  0  0  0  0  0  0  0  0  0  0  0
    4.4986   -1.3407   -0.9092 N   0  0  0  0  0  0  0  0  0  0  0  0
    3.3917   -0.7227   -0.5183 C   0  0  0  0  0  0  0  0  0  0  0  0
    3.7975    0.2722    0.3216 N   0  0  0  0  0  0  0  0  0  0  0  0
    5.1363    0.2308    0.4171 C   0  0  0  0  0  0  0  0  0  0  0  0
    6.0653    1.0021    1.1273 C   0  0  0  0  0  0  0  0  0  0  0  0
    1.9963   -0.9843   -0.8635 C   0  0  0  0  0  0  0  0  0  0  0  0
    1.8258   -1.9445   -1.6543 O   0  0  0  0  0  0  0  0  0  0  0  0
    0.9569   -0.1989   -0.3301 N   0  0  0  0  0  0  0  0  0  0  0  0
   -0.4400   -0.3809   -0.6113 C   0  0  0  0  0  0  0  0  0  0  0  0
   -1.2750   -0.7260    0.5588 C   0  0  0  0  0  0  0  0  0  0  0  0
   -2.1493    0.3781    1.0804 C   0  0  0  0  0  0  0  0  0  0  0  0
   -2.6828    1.2415    0.0826 N   0  0  0  0  0  0  0  0  0  0  0  0
   -3.6622    0.6790   -0.7800 C   0  0  0  0  0  0  0  0  0  0  0  0
   -4.8297    0.2338    0.0273 C   0  0  0  0  0  0  0  0  0  0  0  0
   -5.0343   -1.0700    0.3716 C   0  0  0  0  0  0  0  0  0  0  0  0
   -6.1269   -1.4310    1.1183 C   0  0  0  0  0  0  0  0  0  0  0  0
   -7.0301   -0.4735    1.5278 C   0  0  0  0  0  0  0  0  0  0  0  0
   -6.8141    0.8141    1.1790 N   0  0  0  0  0  0  0  0  0  0  0  0
   -5.7595    1.1886    0.4540 C   0  0  0  0  0  0  0  0  0  0  0  0
   -1.5802    1.8589   -0.6167 C   0  0  0  0  0  0  0  0  0  0  0  0
   -0.9065    0.7950   -1.4202 C   0  0  0  0  0  0  0  0  0  0  0  0
    8.9398   -0.4675    0.2210 H   0  0  0  0  0  0  0  0  0  0  0  0
    7.3107   -1.8603   -1.0568 H   0  0  0  0  0  0  0  0  0  0  0  0
    4.5075   -2.1527   -1.5618 H   0  0  0  0  0  0  0  0  0  0  0  0
    5.6992    1.8024    1.7362 H   0  0  0  0  0  0  0  0  0  0  0  0
    1.2025    0.5800    0.3218 H   0  0  0  0  0  0  0  0  0  0  0  0
   -0.4971   -1.2605   -1.3256 H   0  0  0  0  0  0  0  0  0  0  0  0
   -1.9358   -1.6056    0.3964 H   0  0  0  0  0  0  0  0  0  0  0  0
   -0.6279   -1.0445    1.4312 H   0  0  0  0  0  0  0  0  0  0  0  0
   -1.5891    1.0462    1.8001 H   0  0  0  0  0  0  0  0  0  0  0  0
   -2.9875   -0.0117    1.6921 H   0  0  0  0  0  0  0  0  0  0  0  0
   -3.2754   -0.2042   -1.3529 H   0  0  0  0  0  0  0  0  0  0  0  0
   -4.0311    1.4676   -1.4581 H   0  0  0  0  0  0  0  0  0  0  0  0
   -4.2970   -1.8110    0.0303 H   0  0  0  0  0  0  0  0  0  0  0  0
   -6.2560   -2.4806    1.3731 H   0  0  0  0  0  0  0  0  0  0  0  0
   -7.8985   -0.7616    2.1215 H   0  0  0  0  0  0  0  0  0  0  0  0
   -5.5931    2.2396    0.1755 H   0  0  0  0  0  0  0  0  0  0  0  0
   -0.9265    2.3511    0.1157 H   0  0  0  0  0  0  0  0  0  0  0  0
   -1.9377    2.6365   -1.3115 H   0  0  0  0  0  0  0  0  0  0  0  0
   -1.5930    0.5205   -2.2488 H   0  0  0  0  0  0  0  0  0  0  0  0
   -0.0266    1.2846   -1.9334 H   0  0  0  0  0  0  0  0  0  0  0  0
  1  2  1  0
  2  3  2  0
  3  4  1  0
  4  5  2  0
  5  6  1  0
  6  7  1  0
  7  8  2  0
  8  9  1  0
  9 10  2  0
  7 11  1  0
 11 12  2  0
 11 13  1  0
 13 14  1  0
 14 15  1  0
 15 16  1  0
 16 17  1  0
 17 18  1  0
 18 19  1  0
 19 20  2  0
 20 21  1  0
 21 22  2  0
 22 23  1  0
 23 24  2  0
 17 25  1  0
 25 26  1  0
 10  2  1  0
 26 14  1  0
  9  5  1  0
 24 19  1  0
  3 27  1  0
  4 28  1  0
  6 29  1  0
 10 30  1  0
 13 31  1  0
 14 32  1  0
 15 33  1  0
 15 34  1  0
 16 35  1  0
 16 36  1  0
 18 37  1  0
 18 38  1  0
 20 39  1  0
 21 40  1  0
 22 41  1  0
 24 42  1  0
 25 43  1  0
 25 44  1  0
 26 45  1  0
 26 46  1  0
M  END
$$$$
[H]OC(=O)C([H])([H])[C@@]([H])(C([H])=O)N([H])C(=O)[C@@]([H])(C([H])([H])C(=O)N([H])C([H])([H])C([H])([H])c1c([H])c([H])c([H])c([H])c1[H])C([H])(C([H])([H])[H])C([H])([H])[H]
     RDKit          3D

 52 52  0  0  0  0  0  0  0  0999 V2000
   -2.5799   -3.9778   -0.7402 C   0  0  0  0  0  0  0  0  0  0  0  0
   -2.5577   -2.4881   -0.4694 C   0  0  0  0  0  0  0  0  0  0  0  0
   -3.0062   -2.3154    0.9564 C   0  0  0  0  0  0  0  0  0  0  0  0
   -1.2511   -1.8411   -0.8109 C   0  0  2  0  0  0  0  0  0  0  0  0
   -0.0855   -2.3471   -0.0701 C   0  0  0  0  0  0  0  0  0  0  0  0
    1.2179   -1.7043   -0.4826 C   0  0  0  0  0  0  0  0  0  0  0  0
    1.1827   -0.8284   -1.3604 O   0  0  0  0  0  0  0  0  0  0  0  0
    2.3884   -2.1241    0.1303 N   0  0  0  0  0  0  0  0  0  0  0  0
    3.7360   -1.7940    0.0310 C   0  0  0  0  0  0  0  0  0  0  0  0
    4.1960   -0.4698    0.4473 C   0  0  0  0  0  0  0  0  0  0  0  0
    3.7032    0.7309   -0.1911 C   0  0  0  0  0  0  0  0  0  0  0  0
    4.2242    1.1135   -1.4355 C   0  0  0  0  0  0  0  0  0  0  0  0
    3.8377    2.2876   -2.0104 C   0  0  0  0  0  0  0  0  0  0  0  0
    2.9284    3.1484   -1.4092 C   0  0  0  0  0  0  0  0  0  0  0  0
    2.4118    2.7831   -0.1903 C   0  0  0  0  0  0  0  0  0  0  0  0
    2.7872    1.6042    0.4074 C   0  0  0  0  0  0  0  0  0  0  0  0
   -1.4473   -0.3716   -0.7325 C   0  0  0  0  0  0  0  0  0  0  0  0
   -1.3954    0.3314   -1.8130 O   0  0  0  0  0  0  0  0  0  0  0  0
   -1.6963    0.3580    0.4355 N   0  0  0  0  0  0  0  0  0  0  0  0
   -1.8955    1.8167    0.4041 C   0  0  1  0  0  0  0  0  0  0  0  0
   -3.3648    2.1130    0.6834 C   0  0  0  0  0  0  0  0  0  0  0  0
   -3.6124    3.5598    0.6374 C   0  0  0  0  0  0  0  0  0  0  0  0
   -2.6498    4.4390    0.1892 O   0  0  0  0  0  0  0  0  0  0  0  0
   -4.7407    4.0138    1.0178 O   0  0  0  0  0  0  0  0  0  0  0  0
   -1.0561    2.3970    1.4686 C   0  0  0  0  0  0  0  0  0  0  0  0
   -0.3812    1.6403    2.1801 O   0  0  0  0  0  0  0  0  0  0  0  0
   -3.6509   -4.2738   -0.6993 H   0  0  0  0  0  0  0  0  0  0  0  0
   -2.0869   -4.5593    0.0720 H   0  0  0  0  0  0  0  0  0  0  0  0
   -2.2283   -4.2396   -1.7519 H   0  0  0  0  0  0  0  0  0  0  0  0
   -3.3450   -2.0435   -1.1122 H   0  0  0  0  0  0  0  0  0  0  0  0
   -2.1546   -2.3713    1.6486 H   0  0  0  0  0  0  0  0  0  0  0  0
   -3.6965   -3.1878    1.1800 H   0  0  0  0  0  0  0  0  0  0  0  0
   -3.6400   -1.4099    1.0619 H   0  0  0  0  0  0  0  0  0  0  0  0
   -1.0617   -2.0683   -1.9021 H   0  0  0  0  0  0  0  0  0  0  0  0
    0.0269   -3.4252   -0.0092 H   0  0  0  0  0  0  0  0  0  0  0  0
   -0.2022   -2.0070    1.0047 H   0  0  0  0  0  0  0  0  0  0  0  0
    2.1953   -2.9146    0.8863 H   0  0  0  0  0  0  0  0  0  0  0  0
    4.0332   -2.0070   -1.0611 H   0  0  0  0  0  0  0  0  0  0  0  0
    4.3782   -2.5861    0.5837 H   0  0  0  0  0  0  0  0  0  0  0  0
    5.3400   -0.4684    0.4576 H   0  0  0  0  0  0  0  0  0  0  0  0
    4.0045   -0.3025    1.5779 H   0  0  0  0  0  0  0  0  0  0  0  0
    4.9411    0.4621   -1.9386 H   0  0  0  0  0  0  0  0  0  0  0  0
    4.2418    2.5852   -2.9776 H   0  0  0  0  0  0  0  0  0  0  0  0
    2.6310    4.0812   -1.8803 H   0  0  0  0  0  0  0  0  0  0  0  0
    1.6947    3.4438    0.3027 H   0  0  0  0  0  0  0  0  0  0  0  0
    2.3782    1.3333    1.3537 H   0  0  0  0  0  0  0  0  0  0  0  0
   -1.7446   -0.0500    1.3838 H   0  0  0  0  0  0  0  0  0  0  0  0
   -1.6636    2.2603   -0.5693 H   0  0  0  0  0  0  0  0  0  0  0  0
   -3.9447    1.6421   -0.1412 H   0  0  0  0  0  0  0  0  0  0  0  0
   -3.6916    1.6938    1.6616 H   0  0  0  0  0  0  0  0  0  0  0  0
   -2.6352    4.8861   -0.7076 H   0  0  0  0  0  0  0  0  0  0  0  0
   -1.0128    3.4514    1.6445 H   0  0  0  0  0  0  0  0  0  0  0  0
  1  2  1  0
  2  3  1  0
  2  4  1  0
  4  5  1  0
  5  6  1  0
  6  7  2  0
  6  8  1  0
  8  9  1  0
  9 10  1  0
 10 11  1  0
 11 12  2  0
 12 13  1  0
 13 14  2  0
 14 15  1  0
 15 16  2  0
  4 17  1  0
 17 18  2  0
 17 19  1  0
 19 20  1  0
 20 21  1  0
 21 22  1  0
 22 23  1  0
 22 24  2  0
 20 25  1  0
 25 26  2  0
 16 11  1  0
  1 27  1  0
  1 28  1  0
  1 29  1  0
  2 30  1  0
  3 31  1  0
  3 32  1  0
  3 33  1  0
  4 34  1  6
  5 35  1  0
  5 36  1  0
  8 37  1  0
  9 38  1  0
  9 39  1  0
 10 40  1  0
 10 41  1  0
 12 42  1  0
 13 43  1  0
 14 44  1  0
 15 45  1  0
 16 46  1  0
 19 47  1  0
 20 48  1  6
 21 49  1  0
 21 50  1  0
 23 51  1  0
 25 52  1  0
M  END
$$$$
[H]OC(=O)C([H])([H])C([H])([H])[C@@]([H])(C(=O)N([H])[C@]([H])(C(=O)N([H])[C@]([H])(C(=O)N1C([H])([H])C([H])([H])C([H])([H])[C@@]1([H])C(=O)N([H])[C@]([H])(C(=O)N([H])[H])C([H])(C([H])([H])[H])C([H])([H])[H])C([H])([H])C(=O)O[H])C([H])([H])C(=O)O[H])N([H])C(=O)[C@@]([H])(N([H])C(=O)[C@@]1([H])N(C([H])([H])[H])C([H])([H])C([H])([H])C1([H])[H])C([H])([H])C(=O)O[H]
     RDKit          3D

106107  0  0  0  0  0  0  0  0999 V2000
   -9.5800    3.7093   -0.8088 C   0  0  0  0  0  0  0  0  0  0  0  0
   -9.6103    2.2565   -0.4690 C   0  0  0  0  0  0  0  0  0  0  0  0
  -10.8146    1.8792    0.3807 C   0  0  0  0  0  0  0  0  0  0  0  0
   -8.3065    1.8834    0.2100 C   0  0  2  0  0  0  0  0  0  0  0  0
   -8.2885    0.4667    0.5465 N   0  0  0  0  0  0  0  0  0  0  0  0
   -7.3207   -0.3975   -0.0465 C   0  0  0  0  0  0  0  0  0  0  0  0
   -6.5062    0.1854   -0.8578 O   0  0  0  0  0  0  0  0  0  0  0  0
   -7.1764   -1.7853    0.1615 C   0  0  2  0  0  0  0  0  0  0  0  0
   -7.7134   -2.4815    1.3748 C   0  0  0  0  0  0  0  0  0  0  0  0
   -7.2355   -3.9320    1.0376 C   0  0  0  0  0  0  0  0  0  0  0  0
   -6.2181   -3.7503   -0.0980 C   0  0  0  0  0  0  0  0  0  0  0  0
   -5.8126   -2.3711    0.1838 N   0  0  0  0  0  0  0  0  0  0  0  0
   -4.6146   -1.7362    0.4803 C   0  0  0  0  0  0  0  0  0  0  0  0
   -4.6713   -0.4941    0.8670 O   0  0  0  0  0  0  0  0  0  0  0  0
   -3.2580   -2.2814    0.4122 C   0  0  2  0  0  0  0  0  0  0  0  0
   -3.0526   -3.4138    1.3518 C   0  0  0  0  0  0  0  0  0  0  0  0
   -1.6574   -3.9519    1.2756 C   0  0  0  0  0  0  0  0  0  0  0  0
   -1.3896   -4.9722    0.3922 O   0  0  0  0  0  0  0  0  0  0  0  0
   -0.7473   -3.4994    1.9851 O   0  0  0  0  0  0  0  0  0  0  0  0
   -2.2855   -1.2111    0.6237 N   0  0  0  0  0  0  0  0  0  0  0  0
   -1.3294   -0.8636   -0.3435 C   0  0  0  0  0  0  0  0  0  0  0  0
   -1.3232   -1.5164   -1.4206 O   0  0  0  0  0  0  0  0  0  0  0  0
   -0.3132    0.2149   -0.2159 C   0  0  2  0  0  0  0  0  0  0  0  0
   -0.8329    1.5278   -0.6707 C   0  0  0  0  0  0  0  0  0  0  0  0
    0.1324    2.6380   -0.5912 C   0  0  0  0  0  0  0  0  0  0  0  0
   -0.2760    3.9282   -0.9148 O   0  0  0  0  0  0  0  0  0  0  0  0
    1.3396    2.5333   -0.2440 O   0  0  0  0  0  0  0  0  0  0  0  0
    0.8933   -0.2033   -0.9507 N   0  0  0  0  0  0  0  0  0  0  0  0
    2.0641   -0.5486   -0.2776 C   0  0  0  0  0  0  0  0  0  0  0  0
    2.0559   -0.4841    1.0019 O   0  0  0  0  0  0  0  0  0  0  0  0
    3.3165   -0.9770   -0.8993 C   0  0  2  0  0  0  0  0  0  0  0  0
    3.2796   -2.3684   -1.5012 C   0  0  0  0  0  0  0  0  0  0  0  0
    2.2630   -2.5355   -2.5879 C   0  0  0  0  0  0  0  0  0  0  0  0
    2.3232   -3.9536   -3.1341 C   0  0  0  0  0  0  0  0  0  0  0  0
    3.2022   -4.8768   -2.5884 O   0  0  0  0  0  0  0  0  0  0  0  0
    1.5937   -4.3284   -4.0764 O   0  0  0  0  0  0  0  0  0  0  0  0
    4.3905   -1.0089    0.0938 N   0  0  0  0  0  0  0  0  0  0  0  0
    5.5493   -0.2397   -0.0679 C   0  0  0  0  0  0  0  0  0  0  0  0
    5.6219    0.4858   -1.1269 O   0  0  0  0  0  0  0  0  0  0  0  0
    6.6680   -0.2121    0.8878 C   0  0  2  0  0  0  0  0  0  0  0  0
    6.2378    0.1657    2.2839 C   0  0  0  0  0  0  0  0  0  0  0  0
    5.6174    1.4829    2.3904 C   0  0  0  0  0  0  0  0  0  0  0  0
    5.3862    2.2899    1.2862 O   0  0  0  0  0  0  0  0  0  0  0  0
    5.2555    1.9574    3.5072 O   0  0  0  0  0  0  0  0  0  0  0  0
    7.7177    0.6459    0.3926 N   0  0  0  0  0  0  0  0  0  0  0  0
    9.0395    0.2290    0.1878 C   0  0  0  0  0  0  0  0  0  0  0  0
    9.3550   -0.9736    0.4488 O   0  0  0  0  0  0  0  0  0  0  0  0
   10.0553    1.1723   -0.3249 C   0  0  2  0  0  0  0  0  0  0  0  0
   11.1644    1.4084    0.6640 C   0  0  0  0  0  0  0  0  0  0  0  0
   10.7729    2.6842    1.3513 C   0  0  0  0  0  0  0  0  0  0  0  0
    9.7521    3.3420    0.4755 C   0  0  0  0  0  0  0  0  0  0  0  0
    9.4442    2.4387   -0.5913 N   0  0  0  0  0  0  0  0  0  0  0  0
    9.9431    2.8770   -1.8881 C   0  0  0  0  0  0  0  0  0  0  0  0
   -8.0084    2.6969    1.4033 C   0  0  0  0  0  0  0  0  0  0  0  0
   -7.9080    4.1042    1.4148 N   0  0  0  0  0  0  0  0  0  0  0  0
   -7.8148    2.1394    2.5453 O   0  0  0  0  0  0  0  0  0  0  0  0
   -8.5504    4.0358   -1.0676 H   0  0  0  0  0  0  0  0  0  0  0  0
  -10.0274    4.3490   -0.0313 H   0  0  0  0  0  0  0  0  0  0  0  0
  -10.2332    3.8760   -1.7192 H   0  0  0  0  0  0  0  0  0  0  0  0
   -9.6602    1.6600   -1.4126 H   0  0  0  0  0  0  0  0  0  0  0  0
  -10.8764    2.4742    1.2988 H   0  0  0  0  0  0  0  0  0  0  0  0
  -11.7148    2.0946   -0.2277 H   0  0  0  0  0  0  0  0  0  0  0  0
  -10.8123    0.7838    0.5405 H   0  0  0  0  0  0  0  0  0  0  0  0
   -7.4939    2.0643   -0.5293 H   0  0  0  0  0  0  0  0  0  0  0  0
   -8.9737    0.1102    1.2098 H   0  0  0  0  0  0  0  0  0  0  0  0
   -7.6891   -2.3701   -0.7190 H   0  0  0  0  0  0  0  0  0  0  0  0
   -8.8041   -2.4542    1.4929 H   0  0  0  0  0  0  0  0  0  0  0  0
   -7.1353   -2.2179    2.2898 H   0  0  0  0  0  0  0  0  0  0  0  0
   -8.0987   -4.5204    0.6798 H   0  0  0  0  0  0  0  0  0  0  0  0
   -6.7800   -4.4102    1.8975 H   0  0  0  0  0  0  0  0  0  0  0  0
   -5.4987   -4.4916   -0.2235 H   0  0  0  0  0  0  0  0  0  0  0  0
   -6.8293   -3.7218   -1.0572 H   0  0  0  0  0  0  0  0  0  0  0  0
   -3.0581   -2.6598   -0.6275 H   0  0  0  0  0  0  0  0  0  0  0  0
   -3.2643   -3.1785    2.4189 H   0  0  0  0  0  0  0  0  0  0  0  0
   -3.7768   -4.2266    1.1115 H   0  0  0  0  0  0  0  0  0  0  0  0
   -1.2111   -4.7155   -0.5944 H   0  0  0  0  0  0  0  0  0  0  0  0
   -2.2921   -0.6827    1.5182 H   0  0  0  0  0  0  0  0  0  0  0  0
    0.0092    0.3150    0.8560 H   0  0  0  0  0  0  0  0  0  0  0  0
   -1.7523    1.8500   -0.1299 H   0  0  0  0  0  0  0  0  0  0  0  0
   -1.0684    1.4117   -1.7713 H   0  0  0  0  0  0  0  0  0  0  0  0
    0.1310    4.3943   -1.7273 H   0  0  0  0  0  0  0  0  0  0  0  0
    0.8474   -0.2159   -1.9881 H   0  0  0  0  0  0  0  0  0  0  0  0
    3.6084   -0.2421   -1.6721 H   0  0  0  0  0  0  0  0  0  0  0  0
    3.1093   -3.1018   -0.6594 H   0  0  0  0  0  0  0  0  0  0  0  0
    4.2756   -2.6457   -1.9269 H   0  0  0  0  0  0  0  0  0  0  0  0
    1.2167   -2.4680   -2.2141 H   0  0  0  0  0  0  0  0  0  0  0  0
    2.4138   -1.8508   -3.4379 H   0  0  0  0  0  0  0  0  0  0  0  0
    2.8421   -5.6008   -1.9855 H   0  0  0  0  0  0  0  0  0  0  0  0
    4.2693   -1.6124    0.9167 H   0  0  0  0  0  0  0  0  0  0  0  0
    7.1438   -1.2320    0.9964 H   0  0  0  0  0  0  0  0  0  0  0  0
    5.5274   -0.5823    2.7050 H   0  0  0  0  0  0  0  0  0  0  0  0
    7.1224    0.1487    2.9553 H   0  0  0  0  0  0  0  0  0  0  0  0
    5.6635    3.2728    1.2421 H   0  0  0  0  0  0  0  0  0  0  0  0
    7.4553    1.6543    0.1724 H   0  0  0  0  0  0  0  0  0  0  0  0
   10.4938    0.7303   -1.2507 H   0  0  0  0  0  0  0  0  0  0  0  0
   12.1038    1.5844    0.0707 H   0  0  0  0  0  0  0  0  0  0  0  0
   11.3170    0.5508    1.3549 H   0  0  0  0  0  0  0  0  0  0  0  0
   10.3416    2.4925    2.3612 H   0  0  0  0  0  0  0  0  0  0  0  0
   11.6588    3.3445    1.4890 H   0  0  0  0  0  0  0  0  0  0  0  0
    8.8001    3.5390    1.0246 H   0  0  0  0  0  0  0  0  0  0  0  0
   10.1742    4.2719    0.0135 H   0  0  0  0  0  0  0  0  0  0  0  0
    9.9499    3.9813   -1.9525 H   0  0  0  0  0  0  0  0  0  0  0  0
   11.0229    2.5539   -1.9214 H   0  0  0  0  0  0  0  0  0  0  0  0
    9.3496    2.3801   -2.6521 H   0  0  0  0  0  0  0  0  0  0  0  0
   -8.5722    4.7783    1.8180 H   0  0  0  0  0  0  0  0  0  0  0  0
   -7.0432    4.5244    0.9550 H   0  0  0  0  0  0  0  0  0  0  0  0
  1  2  1  0
  2  3  1  0
  2  4  1  0
  4  5  1  0
  5  6  1  0
  6  7  2  0
  6  8  1  0
  8  9  1  0
  9 10  1  0
 10 11  1  0
 11 12  1  0
 12 13  1  0
 13 14  2  0
 13 15  1  0
 15 16  1  0
 16 17  1  0
 17 18  1  0
 17 19  2  0
 15 20  1  0
 20 21  1  0
 21 22  2  0
 21 23  1  0
 23 24  1  0
 24 25  1  0
 25 26  1  0
 25 27  2  0
 23 28  1  0
 28 29  1  0
 29 30  2  0
 29 31  1  0
 31 32  1  0
 32 33  1  0
 33 34  1  0
 34 35  1  0
 34 36  2  0
 31 37  1  0
 37 38  1  0
 38 39  2  0
 38 40  1  0
 40 41  1  0
 41 42  1  0
 42 43  1  0
 42 44  2  0
 40 45  1  0
 45 46  1  0
 46 47  2  0
 46 48  1  0
 48 49  1  0
 49 50  1  0
 50 51  1  0
 51 52  1  0
 52 53  1  0
  4 54  1  0
 54 55  1  0
 54 56  2  0
 12  8  1  0
 52 48  1  0
  1 57  1  0
  1 58  1  0
  1 59  1  0
  2 60  1  0
  3 61  1  0
  3 62  1  0
  3 63  1  0
  4 64  1  6
  5 65  1  0
  8 66  1  6
  9 67  1  0
  9 68  1  0
 10 69  1  0
 10 70  1  0
 11 71  1  0
 11 72  1  0
 15 73  1  6
 16 74  1  0
 16 75  1  0
 18 76  1  0
 20 77  1  0
 23 78  1  1
 24 79  1  0
 24 80  1  0
 26 81  1  0
 28 82  1  0
 31 83  1  6
 32 84  1  0
 32 85  1  0
 33 86  1  0
 33 87  1  0
 35 88  1  0
 37 89  1  0
 40 90  1  1
 41 91  1  0
 41 92  1  0
 43 93  1  0
 45 94  1  0
 48 95  1  6
 49 96  1  0
 49 97  1  0
 50 98  1  0
 50 99  1  0
 51100  1  0
 51101  1  0
 53102  1  0
 53103  1  0
 53104  1  0
 55105  1  0
 55106  1  0
M  END
$$$$
[H]OC(=O)[C@]1([H])C([H])([H])S[C@]([H])(C([H])([H])[H])N(C(=O)c2c([H])c([H])c([H])c([H])c2[H])C(=O)[C@]1([H])N([H])C(=O)OC([H])([H])c1c([H])c([H])c([H])c([H])c1[H]
     RDKit          3D

 53 55  0  0  0  0  0  0  0  0999 V2000
    2.7288   -0.7651   -0.1874 O   0  0  0  0  0  0  0  0  0  0  0  0
    1.9502   -0.5885    0.7749 C   0  0  0  0  0  0  0  0  0  0  0  0
    2.3796   -0.8515    2.0425 O   0  0  0  0  0  0  0  0  0  0  0  0
    3.6495   -1.3170    2.4258 C   0  0  0  0  0  0  0  0  0  0  0  0
    4.6696   -0.3328    2.0049 C   0  0  0  0  0  0  0  0  0  0  0  0
    5.5520   -0.6037    0.9853 C   0  0  0  0  0  0  0  0  0  0  0  0
    6.5149    0.2901    0.5678 C   0  0  0  0  0  0  0  0  0  0  0  0
    6.5995    1.5077    1.1967 C   0  0  0  0  0  0  0  0  0  0  0  0
    5.7310    1.8017    2.2162 C   0  0  0  0  0  0  0  0  0  0  0  0
    4.7583    0.8885    2.6320 C   0  0  0  0  0  0  0  0  0  0  0  0
    0.6318   -0.1174    0.5377 N   0  0  0  0  0  0  0  0  0  0  0  0
    0.1275    0.1780   -0.8027 C   0  0  1  0  0  0  0  0  0  0  0  0
   -1.0093   -0.6715   -1.1247 C   0  0  0  0  0  0  0  0  0  0  0  0
   -0.9705   -1.8841   -0.6988 O   0  0  0  0  0  0  0  0  0  0  0  0
   -2.2450   -0.4385   -1.8669 N   0  0  0  0  0  0  0  0  0  0  0  0
   -3.4632   -0.8290   -1.3080 C   0  0  0  0  0  0  0  0  0  0  0  0
   -3.8429   -1.3426   -0.0216 C   0  0  0  0  0  0  0  0  0  0  0  0
   -5.1027   -2.0009    0.0481 C   0  0  0  0  0  0  0  0  0  0  0  0
   -5.6283   -2.4748    1.2170 C   0  0  0  0  0  0  0  0  0  0  0  0
   -4.9152   -2.3120    2.3773 C   0  0  0  0  0  0  0  0  0  0  0  0
   -3.6977   -1.6792    2.3346 C   0  0  0  0  0  0  0  0  0  0  0  0
   -3.1756   -1.2048    1.1587 C   0  0  0  0  0  0  0  0  0  0  0  0
   -4.4729   -0.7034   -2.1250 O   0  0  0  0  0  0  0  0  0  0  0  0
   -2.2208    0.1552   -3.1686 C   0  0  1  0  0  0  0  0  0  0  0  0
   -3.3102   -0.0819   -4.1305 C   0  0  0  0  0  0  0  0  0  0  0  0
   -1.9955    1.9686   -2.8470 S   0  0  0  0  0  0  0  0  0  0  0  0
   -0.2468    2.1301   -2.3736 C   0  0  0  0  0  0  0  0  0  0  0  0
   -0.0012    1.6397   -0.9449 C   0  0  1  0  0  0  0  0  0  0  0  0
   -0.8034    2.3870    0.0034 C   0  0  0  0  0  0  0  0  0  0  0  0
   -0.9557    3.7783   -0.2138 O   0  0  0  0  0  0  0  0  0  0  0  0
   -1.3805    1.9490    0.9975 O   0  0  0  0  0  0  0  0  0  0  0  0
    3.8259   -2.3169    1.9539 H   0  0  0  0  0  0  0  0  0  0  0  0
    3.6538   -1.4531    3.5437 H   0  0  0  0  0  0  0  0  0  0  0  0
    5.4674   -1.5695    0.5037 H   0  0  0  0  0  0  0  0  0  0  0  0
    7.1888    0.0196   -0.2480 H   0  0  0  0  0  0  0  0  0  0  0  0
    7.3390    2.2413    0.9036 H   0  0  0  0  0  0  0  0  0  0  0  0
    5.7899    2.7735    2.7266 H   0  0  0  0  0  0  0  0  0  0  0  0
    4.0728    1.1106    3.4309 H   0  0  0  0  0  0  0  0  0  0  0  0
    0.0172    0.0115    1.3801 H   0  0  0  0  0  0  0  0  0  0  0  0
    1.0275   -0.0977   -1.4738 H   0  0  0  0  0  0  0  0  0  0  0  0
   -5.6868   -2.1499   -0.8454 H   0  0  0  0  0  0  0  0  0  0  0  0
   -6.5907   -2.9776    1.2691 H   0  0  0  0  0  0  0  0  0  0  0  0
   -5.3101   -2.6797    3.3177 H   0  0  0  0  0  0  0  0  0  0  0  0
   -3.1504   -1.5645    3.2837 H   0  0  0  0  0  0  0  0  0  0  0  0
   -2.2498   -0.6973    1.2195 H   0  0  0  0  0  0  0  0  0  0  0  0
   -1.2184   -0.1162   -3.6765 H   0  0  0  0  0  0  0  0  0  0  0  0
   -3.6639   -1.1138   -4.2166 H   0  0  0  0  0  0  0  0  0  0  0  0
   -2.9449    0.2313   -5.1866 H   0  0  0  0  0  0  0  0  0  0  0  0
   -4.1481    0.6235   -3.9813 H   0  0  0  0  0  0  0  0  0  0  0  0
    0.4310    1.6140   -3.0546 H   0  0  0  0  0  0  0  0  0  0  0  0
    0.0154    3.2117   -2.3750 H   0  0  0  0  0  0  0  0  0  0  0  0
    1.0789    2.0288   -0.7629 H   0  0  0  0  0  0  0  0  0  0  0  0
   -0.7998    4.3952    0.5814 H   0  0  0  0  0  0  0  0  0  0  0  0
  1  2  2  0
  2  3  1  0
  3  4  1  0
  4  5  1  0
  5  6  2  0
  6  7  1  0
  7  8  2  0
  8  9  1  0
  9 10  2  0
  2 11  1  0
 11 12  1  0
 12 13  1  0
 13 14  2  0
 13 15  1  0
 15 16  1  0
 16 17  1  0
 17 18  2  0
 18 19  1  0
 19 20  2  0
 20 21  1  0
 21 22  2  0
 16 23  2  0
 15 24  1  0
 24 25  1  0
 24 26  1  0
 26 27  1  0
 27 28  1  0
 28 29  1  0
 29 30  1  0
 29 31  2  0
 10  5  1  0
 28 12  1  0
 22 17  1  0
  4 32  1  0
  4 33  1  0
  6 34  1  0
  7 35  1  0
  8 36  1  0
  9 37  1  0
 10 38  1  0
 11 39  1  0
 12 40  1  6
 18 41  1  0
 19 42  1  0
 20 43  1  0
 21 44  1  0
 22 45  1  0
 24 46  1  6
 25 47  1  0
 25 48  1  0
 25 49  1  0
 27 50  1  0
 27 51  1  0
 28 52  1  1
 30 53  1  0
M  END
$$$$
[H]OC(=O)C([H])([H])[C@]([H])(O[H])[C@@]([H])(C(=O)O[H])N([H])C(=O)[C@@]([H])(N([H])C(=O)[C@@]([H])(N([H])C(=O)[C@@]([H])(N([H])C(=O)C([H])([H])[C@]([H])(O[H])[C@@]([H])(N([H])C(=O)[C@@]([H])(N([H])C(=O)C([H])([H])[H])C([H])(C([H])([H])[H])C([H])([H])[H])C([H])([H])C([H])(C([H])([H])[H])C([H])([H])[H])C([H])([H])[H])C([H])([H])C([H])(C([H])([H])[H])C([H])([H])[H])C([H])([H])C([H])(C([H])([H])[H])C([H])([H])[H]
     RDKit          3D

115114  0  0  0  0  0  0  0  0999 V2000
    1.0756    4.9495   -0.5978 C   0  0  0  0  0  0  0  0  0  0  0  0
    1.4766    3.7461   -1.4695 C   0  0  0  0  0  0  0  0  0  0  0  0
    2.4087    4.3723   -2.5232 C   0  0  0  0  0  0  0  0  0  0  0  0
    2.1795    2.7983   -0.5934 C   0  0  0  0  0  0  0  0  0  0  0  0
    2.6514    1.5094   -1.1341 C   0  0  2  0  0  0  0  0  0  0  0  0
    1.6591    0.5801   -1.5672 N   0  0  0  0  0  0  0  0  0  0  0  0
    0.2892    0.5096   -1.4202 C   0  0  0  0  0  0  0  0  0  0  0  0
   -0.4262    1.3078   -0.8153 O   0  0  0  0  0  0  0  0  0  0  0  0
   -0.3922   -0.6669   -2.0730 C   0  0  2  0  0  0  0  0  0  0  0  0
    0.0773   -0.8267   -3.4900 C   0  0  0  0  0  0  0  0  0  0  0  0
   -1.8010   -0.6149   -2.0023 N   0  0  0  0  0  0  0  0  0  0  0  0
   -2.5261   -1.4872   -1.1295 C   0  0  0  0  0  0  0  0  0  0  0  0
   -1.8875   -2.2760   -0.4024 O   0  0  0  0  0  0  0  0  0  0  0  0
   -4.0162   -1.4136   -1.1357 C   0  0  0  0  0  0  0  0  0  0  0  0
   -4.5711   -2.2634   -0.0654 C   0  0  2  0  0  0  0  0  0  0  0  0
   -4.1149   -3.5917   -0.2370 O   0  0  0  0  0  0  0  0  0  0  0  0
   -6.1140   -2.3722   -0.1847 C   0  0  2  0  0  0  0  0  0  0  0  0
   -6.4554   -3.1339   -1.4274 C   0  0  0  0  0  0  0  0  0  0  0  0
   -7.9250   -3.3037   -1.6000 C   0  0  0  0  0  0  0  0  0  0  0  0
   -8.6116   -4.0832   -0.5155 C   0  0  0  0  0  0  0  0  0  0  0  0
   -8.2395   -4.0627   -2.9020 C   0  0  0  0  0  0  0  0  0  0  0  0
   -6.7133   -1.0721   -0.0888 N   0  0  0  0  0  0  0  0  0  0  0  0
   -7.6846   -0.6162    0.8062 C   0  0  0  0  0  0  0  0  0  0  0  0
   -8.1931   -1.3730    1.7227 O   0  0  0  0  0  0  0  0  0  0  0  0
   -8.2381    0.7539    0.8061 C   0  0  1  0  0  0  0  0  0  0  0  0
   -9.2622    0.9559    1.7726 N   0  0  0  0  0  0  0  0  0  0  0  0
   -9.2455    1.4368    3.0829 C   0  0  0  0  0  0  0  0  0  0  0  0
   -8.2731    1.8157    3.7554 O   0  0  0  0  0  0  0  0  0  0  0  0
  -10.5713    1.5259    3.8163 C   0  0  0  0  0  0  0  0  0  0  0  0
   -7.2252    1.8393    0.6189 C   0  0  0  0  0  0  0  0  0  0  0  0
   -6.1343    1.9337    1.6215 C   0  0  0  0  0  0  0  0  0  0  0  0
   -7.9219    3.2064    0.5361 C   0  0  0  0  0  0  0  0  0  0  0  0
    3.5865    0.7505   -0.2365 C   0  0  0  0  0  0  0  0  0  0  0  0
    3.0987    0.0268    0.6692 O   0  0  0  0  0  0  0  0  0  0  0  0
    4.9808    0.8080   -0.3841 N   0  0  0  0  0  0  0  0  0  0  0  0
    5.9613    0.1164    0.3789 C   0  0  1  0  0  0  0  0  0  0  0  0
    6.5627   -1.0775   -0.3561 C   0  0  0  0  0  0  0  0  0  0  0  0
    5.5644   -2.1304   -0.7092 C   0  0  0  0  0  0  0  0  0  0  0  0
    6.3259   -3.2158   -1.5043 C   0  0  0  0  0  0  0  0  0  0  0  0
    5.1593   -2.8976    0.5662 C   0  0  0  0  0  0  0  0  0  0  0  0
    7.0556    1.0490    0.8037 C   0  0  0  0  0  0  0  0  0  0  0  0
    6.7253    2.2211    1.2039 O   0  0  0  0  0  0  0  0  0  0  0  0
    8.4064    0.6700    0.7633 N   0  0  0  0  0  0  0  0  0  0  0  0
    9.5037    1.5279    1.1557 C   0  0  1  0  0  0  0  0  0  0  0  0
   10.5771    0.6838    1.7777 C   0  0  1  0  0  0  0  0  0  0  0  0
   11.6103    1.5379    2.1648 O   0  0  0  0  0  0  0  0  0  0  0  0
   10.1153   -0.0709    2.9990 C   0  0  0  0  0  0  0  0  0  0  0  0
   11.2640   -0.8897    3.5007 C   0  0  0  0  0  0  0  0  0  0  0  0
   11.1147   -1.6516    4.6396 O   0  0  0  0  0  0  0  0  0  0  0  0
   12.3905   -0.9029    2.8939 O   0  0  0  0  0  0  0  0  0  0  0  0
   10.0884    2.1108   -0.1149 C   0  0  0  0  0  0  0  0  0  0  0  0
   11.1621    2.9434   -0.1119 O   0  0  0  0  0  0  0  0  0  0  0  0
    9.5299    1.7851   -1.2014 O   0  0  0  0  0  0  0  0  0  0  0  0
    1.4009    4.8139    0.4530 H   0  0  0  0  0  0  0  0  0  0  0  0
   -0.0337    5.0236   -0.5793 H   0  0  0  0  0  0  0  0  0  0  0  0
    1.4644    5.9008   -0.9549 H   0  0  0  0  0  0  0  0  0  0  0  0
    0.6269    3.3596   -1.9816 H   0  0  0  0  0  0  0  0  0  0  0  0
    2.9317    3.6196   -3.1098 H   0  0  0  0  0  0  0  0  0  0  0  0
    3.0381    5.1470   -2.0440 H   0  0  0  0  0  0  0  0  0  0  0  0
    1.7169    4.9189   -3.2091 H   0  0  0  0  0  0  0  0  0  0  0  0
    3.0191    3.3499   -0.0410 H   0  0  0  0  0  0  0  0  0  0  0  0
    1.4742    2.5835    0.2715 H   0  0  0  0  0  0  0  0  0  0  0  0
    3.2125    1.7432   -2.1369 H   0  0  0  0  0  0  0  0  0  0  0  0
    2.0884   -0.2793   -2.1525 H   0  0  0  0  0  0  0  0  0  0  0  0
   -0.0635   -1.5899   -1.5083 H   0  0  0  0  0  0  0  0  0  0  0  0
   -0.7678   -0.8180   -4.2082 H   0  0  0  0  0  0  0  0  0  0  0  0
    0.7483   -1.6920   -3.5696 H   0  0  0  0  0  0  0  0  0  0  0  0
    0.7423    0.0639   -3.7137 H   0  0  0  0  0  0  0  0  0  0  0  0
   -2.3516    0.0656   -2.5945 H   0  0  0  0  0  0  0  0  0  0  0  0
   -4.3795   -1.6288   -2.1724 H   0  0  0  0  0  0  0  0  0  0  0  0
   -4.2540   -0.3229   -1.0071 H   0  0  0  0  0  0  0  0  0  0  0  0
   -4.3363   -1.9262    0.9228 H   0  0  0  0  0  0  0  0  0  0  0  0
   -4.6063   -4.2212    0.3406 H   0  0  0  0  0  0  0  0  0  0  0  0
   -6.4190   -2.9773    0.6824 H   0  0  0  0  0  0  0  0  0  0  0  0
   -6.0441   -4.1794   -1.2523 H   0  0  0  0  0  0  0  0  0  0  0  0
   -5.9603   -2.7650   -2.3513 H   0  0  0  0  0  0  0  0  0  0  0  0
   -8.4425   -2.2941   -1.6532 H   0  0  0  0  0  0  0  0  0  0  0  0
   -8.1205   -3.9763    0.4515 H   0  0  0  0  0  0  0  0  0  0  0  0
   -9.6376   -3.6240   -0.3629 H   0  0  0  0  0  0  0  0  0  0  0  0
   -8.7626   -5.1498   -0.8017 H   0  0  0  0  0  0  0  0  0  0  0  0
   -9.2840   -3.7685   -3.1962 H   0  0  0  0  0  0  0  0  0  0  0  0
   -7.5818   -3.6481   -3.6695 H   0  0  0  0  0  0  0  0  0  0  0  0
   -8.1579   -5.1490   -2.7525 H   0  0  0  0  0  0  0  0  0  0  0  0
   -6.3913   -0.3003   -0.7860 H   0  0  0  0  0  0  0  0  0  0  0  0
   -8.7851    0.7876   -0.2387 H   0  0  0  0  0  0  0  0  0  0  0  0
  -10.2771    0.6793    1.4410 H   0  0  0  0  0  0  0  0  0  0  0  0
  -10.7839    0.6392    4.4083 H   0  0  0  0  0  0  0  0  0  0  0  0
  -10.5618    2.3919    4.4982 H   0  0  0  0  0  0  0  0  0  0  0  0
  -11.3985    1.6172    3.0739 H   0  0  0  0  0  0  0  0  0  0  0  0
   -6.7263    1.7512   -0.3959 H   0  0  0  0  0  0  0  0  0  0  0  0
   -5.1440    2.0028    1.0565 H   0  0  0  0  0  0  0  0  0  0  0  0
   -5.9977    1.0207    2.2444 H   0  0  0  0  0  0  0  0  0  0  0  0
   -6.1361    2.8785    2.2126 H   0  0  0  0  0  0  0  0  0  0  0  0
   -7.2754    3.9147   -0.0427 H   0  0  0  0  0  0  0  0  0  0  0  0
   -8.2388    3.5849    1.5046 H   0  0  0  0  0  0  0  0  0  0  0  0
   -8.8438    3.0707   -0.1057 H   0  0  0  0  0  0  0  0  0  0  0  0
    5.3077    1.4741   -1.1755 H   0  0  0  0  0  0  0  0  0  0  0  0
    5.5076   -0.3096    1.2802 H   0  0  0  0  0  0  0  0  0  0  0  0
    7.1996   -0.8193   -1.1885 H   0  0  0  0  0  0  0  0  0  0  0  0
    7.2310   -1.5655    0.4311 H   0  0  0  0  0  0  0  0  0  0  0  0
    4.6878   -1.8619   -1.2390 H   0  0  0  0  0  0  0  0  0  0  0  0
    7.3353   -3.3167   -1.1175 H   0  0  0  0  0  0  0  0  0  0  0  0
    6.2774   -3.0012   -2.5960 H   0  0  0  0  0  0  0  0  0  0  0  0
    5.8030   -4.1980   -1.3529 H   0  0  0  0  0  0  0  0  0  0  0  0
    4.8991   -3.9300    0.2965 H   0  0  0  0  0  0  0  0  0  0  0  0
    4.3229   -2.4211    1.0718 H   0  0  0  0  0  0  0  0  0  0  0  0
    6.0731   -2.9585    1.2401 H   0  0  0  0  0  0  0  0  0  0  0  0
    8.6346   -0.3082    0.4226 H   0  0  0  0  0  0  0  0  0  0  0  0
    9.2539    2.3758    1.7748 H   0  0  0  0  0  0  0  0  0  0  0  0
   11.0188   -0.0276    1.0251 H   0  0  0  0  0  0  0  0  0  0  0  0
   11.8388    1.4241    3.1172 H   0  0  0  0  0  0  0  0  0  0  0  0
    9.8839    0.6625    3.8256 H   0  0  0  0  0  0  0  0  0  0  0  0
    9.2044   -0.6492    2.8631 H   0  0  0  0  0  0  0  0  0  0  0  0
   11.5410   -2.5908    4.6219 H   0  0  0  0  0  0  0  0  0  0  0  0
   11.2221    3.9255   -0.0436 H   0  0  0  0  0  0  0  0  0  0  0  0
  1  2  1  0
  2  3  1  0
  2  4  1  0
  4  5  1  0
  5  6  1  0
  6  7  1  0
  7  8  2  0
  7  9  1  0
  9 10  1  0
  9 11  1  0
 11 12  1  0
 12 13  2  0
 12 14  1  0
 14 15  1  0
 15 16  1  0
 15 17  1  0
 17 18  1  0
 18 19  1  0
 19 20  1  0
 19 21  1  0
 17 22  1  0
 22 23  1  0
 23 24  2  0
 23 25  1  0
 25 26  1  0
 26 27  1  0
 27 28  2  0
 27 29  1  0
 25 30  1  0
 30 31  1  0
 30 32  1  0
  5 33  1  0
 33 34  2  0
 33 35  1  0
 35 36  1  0
 36 37  1  0
 37 38  1  0
 38 39  1  0
 38 40  1  0
 36 41  1  0
 41 42  2  0
 41 43  1  0
 43 44  1  0
 44 45  1  0
 45 46  1  0
 45 47  1  0
 47 48  1  0
 48 49  1  0
 48 50  2  0
 44 51  1  0
 51 52  1  0
 51 53  2  0
  1 54  1  0
  1 55  1  0
  1 56  1  0
  2 57  1  0
  3 58  1  0
  3 59  1  0
  3 60  1  0
  4 61  1  0
  4 62  1  0
  5 63  1  6
  6 64  1  0
  9 65  1  1
 10 66  1  0
 10 67  1  0
 10 68  1  0
 11 69  1  0
 14 70  1  0
 14 71  1  0
 15 72  1  1
 16 73  1  0
 17 74  1  1
 18 75  1  0
 18 76  1  0
 19 77  1  0
 20 78  1  0
 20 79  1  0
 20 80  1  0
 21 81  1  0
 21 82  1  0
 21 83  1  0
 22 84  1  0
 25 85  1  6
 26 86  1  0
 29 87  1  0
 29 88  1  0
 29 89  1  0
 30 90  1  0
 31 91  1  0
 31 92  1  0
 31 93  1  0
 32 94  1  0
 32 95  1  0
 32 96  1  0
 35 97  1  0
 36 98  1  1
 37 99  1  0
 37100  1  0
 38101  1  0
 39102  1  0
 39103  1  0
 39104  1  0
 40105  1  0
 40106  1  0
 40107  1  0
 43108  1  0
 44109  1  1
 45110  1  6
 46111  1  0
 47112  1  0
 47113  1  0
 49114  1  0
 52115  1  0
M  END
$$$$
[H]O[C@]1([H])[C@@]([H])(C([H])([H])OP(=O)(O[H])O[H])O[C@@]([H])(n2c([H])nc3c(N([H])[H])nc([H])nc32)[C@]1([H])O[H]
     RDKit          3D

 37 39  0  0  0  0  0  0  0  0999 V2000
   -6.0211    1.9756    0.8594 N   0  0  0  0  0  0  0  0  0  0  0  0
   -5.0748    1.2538    0.0905 C   0  0  0  0  0  0  0  0  0  0  0  0
   -5.2578    0.8694   -1.1829 N   0  0  0  0  0  0  0  0  0  0  0  0
   -4.3488    0.1843   -1.8990 C   0  0  0  0  0  0  0  0  0  0  0  0
   -3.1811   -0.1473   -1.3304 N   0  0  0  0  0  0  0  0  0  0  0  0
   -2.9234    0.1947   -0.0778 C   0  0  0  0  0  0  0  0  0  0  0  0
   -1.8353   -0.0201    0.7075 N   0  0  0  0  0  0  0  0  0  0  0  0
   -2.1271    0.5505    1.8894 C   0  0  0  0  0  0  0  0  0  0  0  0
   -3.3371    1.1003    1.8596 N   0  0  0  0  0  0  0  0  0  0  0  0
   -3.8640    0.8989    0.6504 C   0  0  0  0  0  0  0  0  0  0  0  0
   -0.6097   -0.6937    0.4210 C   0  0  2  0  0  0  0  0  0  0  0  0
    0.4598   -0.0503    1.0874 O   0  0  0  0  0  0  0  0  0  0  0  0
    1.5661   -0.6828    0.5295 C   0  0  2  0  0  0  0  0  0  0  0  0
    2.8486    0.0646    0.8258 C   0  0  0  0  0  0  0  0  0  0  0  0
    3.9454   -0.5778    0.2633 O   0  0  0  0  0  0  0  0  0  0  0  0
    5.3855    0.2125    0.5649 P   0  0  0  0  0  0  0  0  0  0  0  0
    6.5219   -0.9206    1.1082 O   0  0  0  0  0  0  0  0  0  0  0  0
    5.9767    1.0314   -0.8005 O   0  0  0  0  0  0  0  0  0  0  0  0
    5.1458    1.2045    1.6953 O   0  0  0  0  0  0  0  0  0  0  0  0
    1.2859   -0.5111   -0.9565 C   0  0  1  0  0  0  0  0  0  0  0  0
    1.9509   -1.4725   -1.7109 O   0  0  0  0  0  0  0  0  0  0  0  0
   -0.2265   -0.7010   -1.0267 C   0  0  1  0  0  0  0  0  0  0  0  0
   -0.5054   -1.9497   -1.5787 O   0  0  0  0  0  0  0  0  0  0  0  0
   -5.7942    2.8708    1.2960 H   0  0  0  0  0  0  0  0  0  0  0  0
   -6.9716    1.5626    0.9701 H   0  0  0  0  0  0  0  0  0  0  0  0
   -4.5862   -0.0873   -2.9349 H   0  0  0  0  0  0  0  0  0  0  0  0
   -1.4686    0.5659    2.7594 H   0  0  0  0  0  0  0  0  0  0  0  0
   -0.5812   -1.7492    0.8005 H   0  0  0  0  0  0  0  0  0  0  0  0
    1.6094   -1.7330    0.8212 H   0  0  0  0  0  0  0  0  0  0  0  0
    2.8347    1.0906    0.4598 H   0  0  0  0  0  0  0  0  0  0  0  0
    3.0194    0.0832    1.9260 H   0  0  0  0  0  0  0  0  0  0  0  0
    6.3982   -1.8059    0.7185 H   0  0  0  0  0  0  0  0  0  0  0  0
    6.6715    0.5339   -1.2724 H   0  0  0  0  0  0  0  0  0  0  0  0
    1.5778    0.5232   -1.2172 H   0  0  0  0  0  0  0  0  0  0  0  0
    1.9513   -1.1771   -2.6417 H   0  0  0  0  0  0  0  0  0  0  0  0
   -0.6194    0.1289   -1.6139 H   0  0  0  0  0  0  0  0  0  0  0  0
    0.1847   -2.6206   -1.3308 H   0  0  0  0  0  0  0  0  0  0  0  0
  1  2  1  0
  2  3  2  0
  3  4  1  0
  4  5  2  0
  5  6  1  0
  6  7  1  0
  7  8  1  0
  8  9  2  0
  9 10  1  0
  7 11  1  0
 11 12  1  0
 12 13  1  0
 13 14  1  0
 14 15  1  0
 15 16  1  0
 16 17  1  0
 16 18  1  0
 16 19  2  0
 13 20  1  0
 20 21  1  0
 20 22  1  0
 22 23  1  0
 10  2  1  0
 22 11  1  0
 10  6  2  0
  1 24  1  0
  1 25  1  0
  4 26  1  0
  8 27  1  0
 11 28  1  1
 13 29  1  6
 14 30  1  0
 14 31  1  0
 17 32  1  0
 18 33  1  0
 20 34  1  6
 21 35  1  0
 22 36  1  6
 23 37  1  0
M  END
$$$$
[H]c1c([H])c([H])c(C([H])([H])[C@@]([H])(C(=O)N([H])[C@]([H])(C(=O)N([H])[C@]([H])(C(=O)N([H])[C@]([H])(C(=O)N2C([H])([H])C([H])([H])OC([H])([H])C2([H])[H])C([H])([H])C([H])(C([H])([H])[H])C([H])([H])[H])C([H])([H])C([H])(C([H])([H])[H])C([H])([H])[H])C([H])([H])c2c([H])c([H])c([H])c([H])c2[H])N([H])C(=O)[C@@]([H])(N([H])[H])C([H])([H])C([H])([H])C([H])([H])N=C(N([H])[H])N([H])[H])c([H])c1[H]
     RDKit          3D

116118  0  0  0  0  0  0  0  0999 V2000
   -3.4228    1.7123   -2.8328 C   0  0  0  0  0  0  0  0  0  0  0  0
   -1.9859    1.7946   -2.4815 C   0  0  0  0  0  0  0  0  0  0  0  0
   -1.4674    3.1185   -3.0649 C   0  0  0  0  0  0  0  0  0  0  0  0
   -1.5851    1.7605   -1.0775 C   0  0  0  0  0  0  0  0  0  0  0  0
   -1.8981    0.5936   -0.2325 C   0  0  2  0  0  0  0  0  0  0  0  0
   -1.3068   -0.6279   -0.7342 N   0  0  0  0  0  0  0  0  0  0  0  0
   -0.1913   -1.2942   -0.2582 C   0  0  0  0  0  0  0  0  0  0  0  0
    0.4584   -0.9028    0.7178 O   0  0  0  0  0  0  0  0  0  0  0  0
    0.2665   -2.5465   -0.9593 C   0  0  2  0  0  0  0  0  0  0  0  0
   -0.7464   -3.6314   -0.8812 C   0  0  0  0  0  0  0  0  0  0  0  0
   -0.3462   -4.8759   -1.5698 C   0  0  0  0  0  0  0  0  0  0  0  0
   -0.6238   -5.0491   -2.9280 C   0  0  0  0  0  0  0  0  0  0  0  0
   -0.3001   -6.1941   -3.6205 C   0  0  0  0  0  0  0  0  0  0  0  0
    0.3308   -7.2262   -2.9447 C   0  0  0  0  0  0  0  0  0  0  0  0
    0.6174   -7.0781   -1.5973 C   0  0  0  0  0  0  0  0  0  0  0  0
    0.2776   -5.9125   -0.9308 C   0  0  0  0  0  0  0  0  0  0  0  0
    1.5574   -2.9810   -0.3764 N   0  0  0  0  0  0  0  0  0  0  0  0
    2.7457   -2.3837   -0.8015 C   0  0  0  0  0  0  0  0  0  0  0  0
    2.5472   -1.4286   -1.7212 O   0  0  0  0  0  0  0  0  0  0  0  0
    4.1463   -2.5225   -0.5110 C   0  0  2  0  0  0  0  0  0  0  0  0
    4.6853   -3.3393    0.5704 C   0  0  0  0  0  0  0  0  0  0  0  0
    4.3635   -3.0685    1.9493 C   0  0  0  0  0  0  0  0  0  0  0  0
    5.1143   -2.0884    2.6249 C   0  0  0  0  0  0  0  0  0  0  0  0
    4.8876   -1.8082    3.9493 C   0  0  0  0  0  0  0  0  0  0  0  0
    3.9038   -2.4967    4.6456 C   0  0  0  0  0  0  0  0  0  0  0  0
    3.1402   -3.4659    4.0311 C   0  0  0  0  0  0  0  0  0  0  0  0
    3.4161   -3.7075    2.6837 C   0  0  0  0  0  0  0  0  0  0  0  0
    4.7950   -1.1875   -0.5118 N   0  0  0  0  0  0  0  0  0  0  0  0
    5.5251   -0.6997   -1.6078 C   0  0  0  0  0  0  0  0  0  0  0  0
    5.6590   -1.4131   -2.6590 O   0  0  0  0  0  0  0  0  0  0  0  0
    6.1645    0.6511   -1.5971 C   0  0  1  0  0  0  0  0  0  0  0  0
    5.9879    1.1685   -0.2514 N   0  0  0  0  0  0  0  0  0  0  0  0
    7.5826    0.5872   -2.0183 C   0  0  0  0  0  0  0  0  0  0  0  0
    8.3433    1.8594   -2.0767 C   0  0  0  0  0  0  0  0  0  0  0  0
    8.4873    2.6289   -0.8083 C   0  0  0  0  0  0  0  0  0  0  0  0
    9.2783    3.8276   -1.1360 N   0  0  0  0  0  0  0  0  0  0  0  0
    9.1116    4.8502   -0.3716 C   0  0  0  0  0  0  0  0  0  0  0  0
    8.2089    4.7807    0.7098 N   0  0  0  0  0  0  0  0  0  0  0  0
    9.8302    6.0306   -0.6334 N   0  0  0  0  0  0  0  0  0  0  0  0
   -3.3454    0.4263    0.1167 C   0  0  0  0  0  0  0  0  0  0  0  0
   -3.8731   -0.7242   -0.0009 O   0  0  0  0  0  0  0  0  0  0  0  0
   -4.0726    1.5058    0.5511 N   0  0  0  0  0  0  0  0  0  0  0  0
   -5.4193    1.7373    0.9355 C   0  0  1  0  0  0  0  0  0  0  0  0
   -6.4286    0.6749    0.6667 C   0  0  0  0  0  0  0  0  0  0  0  0
   -6.7426    0.3643   -0.7493 C   0  0  0  0  0  0  0  0  0  0  0  0
   -7.3001    1.5863   -1.4872 C   0  0  0  0  0  0  0  0  0  0  0  0
   -7.9192   -0.6335   -0.7602 C   0  0  0  0  0  0  0  0  0  0  0  0
   -5.4897    2.2333    2.3046 C   0  0  0  0  0  0  0  0  0  0  0  0
   -4.3806    2.1256    2.9734 O   0  0  0  0  0  0  0  0  0  0  0  0
   -6.5442    2.8043    3.0068 N   0  0  0  0  0  0  0  0  0  0  0  0
   -6.3146    3.1840    4.4196 C   0  0  0  0  0  0  0  0  0  0  0  0
   -7.3692    2.4558    5.2215 C   0  0  0  0  0  0  0  0  0  0  0  0
   -8.6239    2.8564    4.7460 O   0  0  0  0  0  0  0  0  0  0  0  0
   -8.8566    2.4015    3.4444 C   0  0  0  0  0  0  0  0  0  0  0  0
   -7.8694    3.1338    2.5588 C   0  0  0  0  0  0  0  0  0  0  0  0
   -3.9409    2.7159   -2.7403 H   0  0  0  0  0  0  0  0  0  0  0  0
   -3.4501    1.5623   -3.9589 H   0  0  0  0  0  0  0  0  0  0  0  0
   -4.0022    0.8928   -2.4187 H   0  0  0  0  0  0  0  0  0  0  0  0
   -1.4552    1.0178   -3.0777 H   0  0  0  0  0  0  0  0  0  0  0  0
   -0.3660    3.2034   -2.9520 H   0  0  0  0  0  0  0  0  0  0  0  0
   -1.8005    3.1405   -4.1166 H   0  0  0  0  0  0  0  0  0  0  0  0
   -2.0127    3.9257   -2.5325 H   0  0  0  0  0  0  0  0  0  0  0  0
   -0.4539    1.8801   -1.0505 H   0  0  0  0  0  0  0  0  0  0  0  0
   -1.9200    2.6936   -0.5331 H   0  0  0  0  0  0  0  0  0  0  0  0
   -1.3739    0.7818    0.7477 H   0  0  0  0  0  0  0  0  0  0  0  0
   -1.8241   -1.0221   -1.5671 H   0  0  0  0  0  0  0  0  0  0  0  0
    0.4235   -2.2785   -2.0492 H   0  0  0  0  0  0  0  0  0  0  0  0
   -1.7122   -3.2985   -1.3404 H   0  0  0  0  0  0  0  0  0  0  0  0
   -0.9510   -3.9320    0.1981 H   0  0  0  0  0  0  0  0  0  0  0  0
   -1.1134   -4.2612   -3.4851 H   0  0  0  0  0  0  0  0  0  0  0  0
   -0.5110   -6.3361   -4.6707 H   0  0  0  0  0  0  0  0  0  0  0  0
    0.6032   -8.1471   -3.4527 H   0  0  0  0  0  0  0  0  0  0  0  0
    1.1034   -7.8932   -1.1176 H   0  0  0  0  0  0  0  0  0  0  0  0
    0.5238   -5.8635    0.1165 H   0  0  0  0  0  0  0  0  0  0  0  0
    1.5492   -3.7242    0.3255 H   0  0  0  0  0  0  0  0  0  0  0  0
    4.5920   -2.9715   -1.4874 H   0  0  0  0  0  0  0  0  0  0  0  0
    4.5116   -4.4416    0.4019 H   0  0  0  0  0  0  0  0  0  0  0  0
    5.8291   -3.2880    0.4939 H   0  0  0  0  0  0  0  0  0  0  0  0
    5.8795   -1.5693    2.0795 H   0  0  0  0  0  0  0  0  0  0  0  0
    5.4808   -1.0419    4.4586 H   0  0  0  0  0  0  0  0  0  0  0  0
    3.7122   -2.2923    5.6739 H   0  0  0  0  0  0  0  0  0  0  0  0
    2.3663   -4.0293    4.5301 H   0  0  0  0  0  0  0  0  0  0  0  0
    2.8354   -4.4732    2.1709 H   0  0  0  0  0  0  0  0  0  0  0  0
    4.7086   -0.5675    0.3187 H   0  0  0  0  0  0  0  0  0  0  0  0
    5.6232    1.3469   -2.2869 H   0  0  0  0  0  0  0  0  0  0  0  0
    4.9877    1.4112   -0.0918 H   0  0  0  0  0  0  0  0  0  0  0  0
    6.4044    0.5746    0.4748 H   0  0  0  0  0  0  0  0  0  0  0  0
    7.5880    0.1715   -3.0742 H   0  0  0  0  0  0  0  0  0  0  0  0
    8.1660   -0.1885   -1.4412 H   0  0  0  0  0  0  0  0  0  0  0  0
    7.9452    2.5050   -2.9028 H   0  0  0  0  0  0  0  0  0  0  0  0
    9.3828    1.5870   -2.4384 H   0  0  0  0  0  0  0  0  0  0  0  0
    8.9403    2.0339   -0.0019 H   0  0  0  0  0  0  0  0  0  0  0  0
    7.5059    3.0621   -0.4679 H   0  0  0  0  0  0  0  0  0  0  0  0
    7.2879    5.2832    0.7311 H   0  0  0  0  0  0  0  0  0  0  0  0
    8.4834    4.1878    1.5378 H   0  0  0  0  0  0  0  0  0  0  0  0
   10.7118    6.0543   -1.2116 H   0  0  0  0  0  0  0  0  0  0  0  0
    9.4755    6.9262   -0.2359 H   0  0  0  0  0  0  0  0  0  0  0  0
   -3.4907    2.4404    0.6369 H   0  0  0  0  0  0  0  0  0  0  0  0
   -5.7624    2.5426    0.1568 H   0  0  0  0  0  0  0  0  0  0  0  0
   -7.3760    0.9168    1.1711 H   0  0  0  0  0  0  0  0  0  0  0  0
   -6.1253   -0.3101    1.1360 H   0  0  0  0  0  0  0  0  0  0  0  0
   -5.9658   -0.0667   -1.3218 H   0  0  0  0  0  0  0  0  0  0  0  0
   -8.1562    1.9663   -0.9300 H   0  0  0  0  0  0  0  0  0  0  0  0
   -7.6531    1.1816   -2.4602 H   0  0  0  0  0  0  0  0  0  0  0  0
   -6.5125    2.3095   -1.7198 H   0  0  0  0  0  0  0  0  0  0  0  0
   -8.8763   -0.0762   -0.6450 H   0  0  0  0  0  0  0  0  0  0  0  0
   -7.8289   -1.3250    0.0839 H   0  0  0  0  0  0  0  0  0  0  0  0
   -7.9643   -1.1928   -1.7181 H   0  0  0  0  0  0  0  0  0  0  0  0
   -6.5431    4.2868    4.4703 H   0  0  0  0  0  0  0  0  0  0  0  0
   -5.2934    2.9615    4.7248 H   0  0  0  0  0  0  0  0  0  0  0  0
   -7.3184    2.7534    6.2937 H   0  0  0  0  0  0  0  0  0  0  0  0
   -7.2677    1.3728    5.0628 H   0  0  0  0  0  0  0  0  0  0  0  0
   -9.8722    2.7015    3.1742 H   0  0  0  0  0  0  0  0  0  0  0  0
   -8.6699    1.3154    3.3534 H   0  0  0  0  0  0  0  0  0  0  0  0
   -8.0026    4.2357    2.8446 H   0  0  0  0  0  0  0  0  0  0  0  0
   -8.0632    3.0822    1.4957 H   0  0  0  0  0  0  0  0  0  0  0  0
  1  2  1  0
  2  3  1  0
  2  4  1  0
  4  5  1  0
  5  6  1  0
  6  7  1  0
  7  8  2  0
  7  9  1  0
  9 10  1  0
 10 11  1  0
 11 12  2  0
 12 13  1  0
 13 14  2  0
 14 15  1  0
 15 16  2  0
  9 17  1  0
 17 18  1  0
 18 19  2  0
 18 20  1  0
 20 21  1  0
 21 22  1  0
 22 23  2  0
 23 24  1  0
 24 25  2  0
 25 26  1  0
 26 27  2  0
 20 28  1  0
 28 29  1  0
 29 30  2  0
 29 31  1  0
 31 32  1  0
 31 33  1  0
 33 34  1  0
 34 35  1  0
 35 36  1  0
 36 37  2  3
 37 38  1  0
 37 39  1  0
  5 40  1  0
 40 41  2  0
 40 42  1  0
 42 43  1  0
 43 44  1  0
 44 45  1  0
 45 46  1  0
 45 47  1  0
 43 48  1  0
 48 49  2  0
 48 50  1  0
 50 51  1  0
 51 52  1  0
 52 53  1  0
 53 54  1  0
 54 55  1  0
 16 11  1  0
 27 22  1  0
 55 50  1  0
  1 56  1  0
  1 57  1  0
  1 58  1  0
  2 59  1  0
  3 60  1  0
  3 61  1  0
  3 62  1  0
  4 63  1  0
  4 64  1  0
  5 65  1  1
  6 66  1  0
  9 67  1  6
 10 68  1  0
 10 69  1  0
 12 70  1  0
 13 71  1  0
 14 72  1  0
 15 73  1  0
 16 74  1  0
 17 75  1  0
 20 76  1  6
 21 77  1  0
 21 78  1  0
 23 79  1  0
 24 80  1  0
 25 81  1  0
 26 82  1  0
 27 83  1  0
 28 84  1  0
 31 85  1  6
 32 86  1  0
 32 87  1  0
 33 88  1  0
 33 89  1  0
 34 90  1  0
 34 91  1  0
 35 92  1  0
 35 93  1  0
 38 94  1  0
 38 95  1  0
 39 96  1  0
 39 97  1  0
 42 98  1  0
 43 99  1  6
 44100  1  0
 44101  1  0
 45102  1  0
 46103  1  0
 46104  1  0
 46105  1  0
 47106  1  0
 47107  1  0
 47108  1  0
 51109  1  0
 51110  1  0
 52111  1  0
 52112  1  0
 54113  1  0
 54114  1  0
 55115  1  0
 55116  1  0
M  END
$$$$
[H]c1c([H])c([H])c2c(c1[H])c1c3c(c4c5c([H])c([H])c([H])c([H])c5n5c4c1n2[C@@]1(C([H])([H])[H])O[C@]5([H])C([H])([H])[C@]([H])(N([H])C([H])([H])[H])[C@]1([H])OC([H])([H])[H])C(=O)N([H])C3([H])[H]
     RDKit          3D

 61 68  0  0  0  0  0  0  0  0999 V2000
   -4.0469   -1.7704    1.7208 C   0  0  0  0  0  0  0  0  0  0  0  0
   -2.8051   -1.1267    1.8532 N   0  0  0  0  0  0  0  0  0  0  0  0
   -2.0631   -0.7295    0.7453 C   0  0  1  0  0  0  0  0  0  0  0  0
   -1.6837   -1.8762   -0.1711 C   0  0  0  0  0  0  0  0  0  0  0  0
   -0.8984   -1.4098   -1.3642 C   0  0  1  0  0  0  0  0  0  0  0  0
   -1.1746   -0.2090   -1.8664 O   0  0  0  0  0  0  0  0  0  0  0  0
   -1.4577    0.8633   -1.0142 C   0  0  1  0  0  0  0  0  0  0  0  0
   -2.0247    1.8974   -1.9699 C   0  0  0  0  0  0  0  0  0  0  0  0
   -2.5753    0.3728   -0.1181 C   0  0  1  0  0  0  0  0  0  0  0  0
   -3.5198   -0.1711   -0.9735 O   0  0  0  0  0  0  0  0  0  0  0  0
   -4.7628    0.3638   -0.9969 C   0  0  0  0  0  0  0  0  0  0  0  0
   -0.2701    1.3169   -0.3284 N   0  0  0  0  0  0  0  0  0  0  0  0
   -0.0959    2.5647    0.1722 C   0  0  0  0  0  0  0  0  0  0  0  0
   -0.9035    3.6566    0.2781 C   0  0  0  0  0  0  0  0  0  0  0  0
   -0.4867    4.8568    0.8587 C   0  0  0  0  0  0  0  0  0  0  0  0
    0.7815    4.9813    1.3559 C   0  0  0  0  0  0  0  0  0  0  0  0
    1.6018    3.8897    1.2562 C   0  0  0  0  0  0  0  0  0  0  0  0
    1.2013    2.7011    0.6855 C   0  0  0  0  0  0  0  0  0  0  0  0
    1.8231    1.4953    0.4914 C   0  0  0  0  0  0  0  0  0  0  0  0
    3.0935    1.0534    0.7971 C   0  0  0  0  0  0  0  0  0  0  0  0
    4.2347    1.7462    1.4443 C   0  0  0  0  0  0  0  0  0  0  0  0
    5.2812    0.7805    1.4850 N   0  0  0  0  0  0  0  0  0  0  0  0
    4.8379   -0.4605    0.9036 C   0  0  0  0  0  0  0  0  0  0  0  0
    5.5848   -1.4446    0.8345 O   0  0  0  0  0  0  0  0  0  0  0  0
    3.4679   -0.2585    0.4835 C   0  0  0  0  0  0  0  0  0  0  0  0
    2.5253   -1.0802   -0.1335 C   0  0  0  0  0  0  0  0  0  0  0  0
    2.5255   -2.4091   -0.5522 C   0  0  0  0  0  0  0  0  0  0  0  0
    3.4661   -3.3824   -0.5335 C   0  0  0  0  0  0  0  0  0  0  0  0
    3.1394   -4.6508   -1.0457 C   0  0  0  0  0  0  0  0  0  0  0  0
    1.8931   -4.8946   -1.5532 C   0  0  0  0  0  0  0  0  0  0  0  0
    0.9234   -3.9194   -1.5814 C   0  0  0  0  0  0  0  0  0  0  0  0
    1.2579   -2.6757   -1.0743 C   0  0  0  0  0  0  0  0  0  0  0  0
    0.5170   -1.5633   -0.9812 N   0  0  0  0  0  0  0  0  0  0  0  0
    1.2574   -0.6011   -0.4262 C   0  0  0  0  0  0  0  0  0  0  0  0
    0.9293    0.6883   -0.1091 C   0  0  0  0  0  0  0  0  0  0  0  0
   -4.8662   -1.0159    1.9108 H   0  0  0  0  0  0  0  0  0  0  0  0
   -4.1813   -2.6236    2.4398 H   0  0  0  0  0  0  0  0  0  0  0  0
   -4.2705   -2.2084    0.7307 H   0  0  0  0  0  0  0  0  0  0  0  0
   -2.8232   -0.4664    2.6590 H   0  0  0  0  0  0  0  0  0  0  0  0
   -1.0753   -0.3131    1.1783 H   0  0  0  0  0  0  0  0  0  0  0  0
   -1.0881   -2.5934    0.4138 H   0  0  0  0  0  0  0  0  0  0  0  0
   -2.6116   -2.3396   -0.5348 H   0  0  0  0  0  0  0  0  0  0  0  0
   -1.0616   -2.1696   -2.1624 H   0  0  0  0  0  0  0  0  0  0  0  0
   -2.9480    2.3656   -1.6768 H   0  0  0  0  0  0  0  0  0  0  0  0
   -1.2023    2.6448   -2.1814 H   0  0  0  0  0  0  0  0  0  0  0  0
   -2.2291    1.4720   -2.9983 H   0  0  0  0  0  0  0  0  0  0  0  0
   -3.0338    1.1533    0.4695 H   0  0  0  0  0  0  0  0  0  0  0  0
   -5.2481    0.3628   -0.0036 H   0  0  0  0  0  0  0  0  0  0  0  0
   -4.9197    1.3034   -1.5454 H   0  0  0  0  0  0  0  0  0  0  0  0
   -5.3837   -0.3816   -1.6336 H   0  0  0  0  0  0  0  0  0  0  0  0
   -1.9195    3.5996   -0.0805 H   0  0  0  0  0  0  0  0  0  0  0  0
   -1.1927    5.6764    0.9018 H   0  0  0  0  0  0  0  0  0  0  0  0
    1.1278    5.9226    1.8176 H   0  0  0  0  0  0  0  0  0  0  0  0
    2.6056    3.9573    1.6392 H   0  0  0  0  0  0  0  0  0  0  0  0
    4.5809    2.6270    0.8499 H   0  0  0  0  0  0  0  0  0  0  0  0
    3.9928    2.1189    2.4526 H   0  0  0  0  0  0  0  0  0  0  0  0
    6.2242    0.9648    1.8822 H   0  0  0  0  0  0  0  0  0  0  0  0
    4.4453   -3.2357   -0.1500 H   0  0  0  0  0  0  0  0  0  0  0  0
    3.9157   -5.4107   -1.0164 H   0  0  0  0  0  0  0  0  0  0  0  0
    1.6559   -5.8901   -1.9485 H   0  0  0  0  0  0  0  0  0  0  0  0
   -0.0671   -4.1156   -1.9855 H   0  0  0  0  0  0  0  0  0  0  0  0
  1  2  1  0
  2  3  1  0
  3  4  1  0
  4  5  1  0
  5  6  1  0
  6  7  1  0
  7  8  1  6
  7  9  1  0
  9 10  1  0
 10 11  1  0
  7 12  1  0
 12 13  1  0
 13 14  2  0
 14 15  1  0
 15 16  2  0
 16 17  1  0
 17 18  2  0
 18 19  1  0
 19 20  2  0
 20 21  1  0
 21 22  1  0
 22 23  1  0
 23 24  2  0
 23 25  1  0
 25 26  2  0
 26 27  1  0
 27 28  2  0
 28 29  1  0
 29 30  2  0
 30 31  1  0
 31 32  2  0
 32 33  1  0
 33 34  1  0
 34 35  2  0
  9  3  1  0
 35 12  1  0
 33  5  1  0
 18 13  1  0
 35 19  1  0
 25 20  1  0
 34 26  1  0
 32 27  1  0
  1 36  1  0
  1 37  1  0
  1 38  1  0
  2 39  1  0
  3 40  1  1
  4 41  1  0
  4 42  1  0
  5 43  1  6
  8 44  1  0
  8 45  1  0
  8 46  1  0
  9 47  1  1
 11 48  1  0
 11 49  1  0
 11 50  1  0
 14 51  1  0
 15 52  1  0
 16 53  1  0
 17 54  1  0
 21 55  1  0
 21 56  1  0
 22 57  1  0
 28 58  1  0
 29 59  1  0
 30 60  1  0
 31 61  1  0
M  END
$$$$
[H]c1nc2c([H])c([H])c(F)c([H])c2c([H])c1C(=O)N([H])C([H])([H])c1c([H])c([H])c([H])c2c1c(N1C([H])([H])C([H])([H])C([H])([H])C1([H])[H])nn2[H]
     RDKit          3D

 49 53  0  0  0  0  0  0  0  0999 V2000
    8.2656   -1.2112   -1.6827 F   0  0  0  0  0  0  0  0  0  0  0  0
    7.3198   -0.4731   -1.0241 C   0  0  0  0  0  0  0  0  0  0  0  0
    7.7169    0.5613   -0.1882 C   0  0  0  0  0  0  0  0  0  0  0  0
    6.7666    1.3079    0.4781 C   0  0  0  0  0  0  0  0  0  0  0  0
    5.4461    1.0159    0.3038 C   0  0  0  0  0  0  0  0  0  0  0  0
    4.5102    1.7159    0.9317 N   0  0  0  0  0  0  0  0  0  0  0  0
    3.1942    1.4703    0.7965 C   0  0  0  0  0  0  0  0  0  0  0  0
    2.7071    0.4595   -0.0151 C   0  0  0  0  0  0  0  0  0  0  0  0
    3.6651   -0.2894   -0.6848 C   0  0  0  0  0  0  0  0  0  0  0  0
    5.0012   -0.0110   -0.5235 C   0  0  0  0  0  0  0  0  0  0  0  0
    5.9789   -0.7441   -1.1801 C   0  0  0  0  0  0  0  0  0  0  0  0
    1.3188    0.1468   -0.1960 C   0  0  0  0  0  0  0  0  0  0  0  0
    1.0255   -0.7608   -1.0541 O   0  0  0  0  0  0  0  0  0  0  0  0
    0.2846    0.7965    0.5297 N   0  0  0  0  0  0  0  0  0  0  0  0
   -1.1320    0.4836    0.3589 C   0  0  0  0  0  0  0  0  0  0  0  0
   -1.5172   -0.8478    0.8021 C   0  0  0  0  0  0  0  0  0  0  0  0
   -0.6039   -1.6414    1.4738 C   0  0  0  0  0  0  0  0  0  0  0  0
   -0.9166   -2.8941    1.9605 C   0  0  0  0  0  0  0  0  0  0  0  0
   -2.1804   -3.3746    1.7738 C   0  0  0  0  0  0  0  0  0  0  0  0
   -3.1136   -2.6320    1.1197 C   0  0  0  0  0  0  0  0  0  0  0  0
   -4.3821   -2.9083    0.8100 N   0  0  0  0  0  0  0  0  0  0  0  0
   -4.8626   -1.8869    0.1567 N   0  0  0  0  0  0  0  0  0  0  0  0
   -3.8890   -0.9014    0.0273 C   0  0  0  0  0  0  0  0  0  0  0  0
   -4.1496    0.3328   -0.6183 N   0  0  0  0  0  0  0  0  0  0  0  0
   -4.5109    1.5877   -0.0443 C   0  0  0  0  0  0  0  0  0  0  0  0
   -4.0337    2.6192   -1.0084 C   0  0  0  0  0  0  0  0  0  0  0  0
   -4.3116    1.9335   -2.3501 C   0  0  0  0  0  0  0  0  0  0  0  0
   -4.1103    0.4802   -2.0548 C   0  0  0  0  0  0  0  0  0  0  0  0
   -2.7866   -1.3750    0.6358 C   0  0  0  0  0  0  0  0  0  0  0  0
    8.7858    0.7699   -0.0700 H   0  0  0  0  0  0  0  0  0  0  0  0
    7.0847    2.0983    1.1161 H   0  0  0  0  0  0  0  0  0  0  0  0
    2.4568    2.0612    1.3225 H   0  0  0  0  0  0  0  0  0  0  0  0
    3.3660   -1.1136   -1.3513 H   0  0  0  0  0  0  0  0  0  0  0  0
    5.6815   -1.5499   -1.8326 H   0  0  0  0  0  0  0  0  0  0  0  0
    0.5372    1.5272    1.2156 H   0  0  0  0  0  0  0  0  0  0  0  0
   -1.7359    1.3062    0.8005 H   0  0  0  0  0  0  0  0  0  0  0  0
   -1.3098    0.5565   -0.7282 H   0  0  0  0  0  0  0  0  0  0  0  0
    0.4194   -1.3242    1.6829 H   0  0  0  0  0  0  0  0  0  0  0  0
   -0.1932   -3.4954    2.4795 H   0  0  0  0  0  0  0  0  0  0  0  0
   -2.4758   -4.3632    2.1425 H   0  0  0  0  0  0  0  0  0  0  0  0
   -4.9196   -3.7905    1.0429 H   0  0  0  0  0  0  0  0  0  0  0  0
   -5.6291    1.6694   -0.0218 H   0  0  0  0  0  0  0  0  0  0  0  0
   -4.0853    1.7127    0.9780 H   0  0  0  0  0  0  0  0  0  0  0  0
   -2.9664    2.8748   -0.9089 H   0  0  0  0  0  0  0  0  0  0  0  0
   -4.5876    3.5845   -0.9639 H   0  0  0  0  0  0  0  0  0  0  0  0
   -5.3554    2.1697   -2.6581 H   0  0  0  0  0  0  0  0  0  0  0  0
   -3.6449    2.3206   -3.1324 H   0  0  0  0  0  0  0  0  0  0  0  0
   -4.9802   -0.0641   -2.5081 H   0  0  0  0  0  0  0  0  0  0  0  0
   -3.1489    0.0899   -2.4809 H   0  0  0  0  0  0  0  0  0  0  0  0
  1  2  1  0
  2  3  2  0
  3  4  1  0
  4  5  2  0
  5  6  1  0
  6  7  2  0
  7  8  1  0
  8  9  2  0
  9 10  1  0
 10 11  2  0
  8 12  1  0
 12 13  2  0
 12 14  1  0
 14 15  1  0
 15 16  1  0
 16 17  2  0
 17 18  1  0
 18 19  2  0
 19 20  1  0
 20 21  1  0
 21 22  1  0
 22 23  2  0
 23 24  1  0
 24 25  1  0
 25 26  1  0
 26 27  1  0
 27 28  1  0
 23 29  1  0
 11  2  1  0
 29 16  1  0
 10  5  1  0
 29 20  2  0
 28 24  1  0
  3 30  1  0
  4 31  1  0
  7 32  1  0
  9 33  1  0
 11 34  1  0
 14 35  1  0
 15 36  1  0
 15 37  1  0
 17 38  1  0
 18 39  1  0
 19 40  1  0
 21 41  1  0
 25 42  1  0
 25 43  1  0
 26 44  1  0
 26 45  1  0
 27 46  1  0
 27 47  1  0
 28 48  1  0
 28 49  1  0
M  END
$$$$
[H]OC([H])([H])[C@@]1([H])O[C@]([H])(C([H])([H])O[H])[C@]([H])(O[H])[C@]1([H])O[H]
     RDKit          3D

 23 23  0  0  0  0  0  0  0  0999 V2000
   -1.0206   -0.9428   -0.0138 C   0  0  1  0  0  0  0  0  0  0  0  0
   -1.6235   -1.4631   -1.1375 O   0  0  0  0  0  0  0  0  0  0  0  0
    0.4481   -1.3800    0.0780 C   0  0  1  0  0  0  0  0  0  0  0  0
    0.9297   -1.7284   -1.1783 O   0  0  0  0  0  0  0  0  0  0  0  0
    1.0932   -0.1636    0.6434 C   0  0  1  0  0  0  0  0  0  0  0  0
    2.0850    0.4851   -0.2926 C   0  0  0  0  0  0  0  0  0  0  0  0
    3.1224   -0.3503   -0.6402 O   0  0  0  0  0  0  0  0  0  0  0  0
    0.1066    0.7707    0.9158 O   0  0  0  0  0  0  0  0  0  0  0  0
   -0.8415    0.5591   -0.0819 C   0  0  2  0  0  0  0  0  0  0  0  0
   -2.1227    1.3021    0.1529 C   0  0  0  0  0  0  0  0  0  0  0  0
   -1.8032    2.6672    0.1944 O   0  0  0  0  0  0  0  0  0  0  0  0
   -1.5450   -1.2418    0.9342 H   0  0  0  0  0  0  0  0  0  0  0  0
   -2.6027   -1.3643   -1.0185 H   0  0  0  0  0  0  0  0  0  0  0  0
    0.5157   -2.2801    0.7209 H   0  0  0  0  0  0  0  0  0  0  0  0
    0.7106   -2.6655   -1.3638 H   0  0  0  0  0  0  0  0  0  0  0  0
    1.6497   -0.4406    1.5694 H   0  0  0  0  0  0  0  0  0  0  0  0
    1.6111    0.9280   -1.1823 H   0  0  0  0  0  0  0  0  0  0  0  0
    2.5317    1.3482    0.2800 H   0  0  0  0  0  0  0  0  0  0  0  0
    4.0210    0.0635   -0.4930 H   0  0  0  0  0  0  0  0  0  0  0  0
   -0.4750    0.7965   -1.0910 H   0  0  0  0  0  0  0  0  0  0  0  0
   -2.7810    1.1299   -0.7028 H   0  0  0  0  0  0  0  0  0  0  0  0
   -2.5591    1.0344    1.1308 H   0  0  0  0  0  0  0  0  0  0  0  0
   -1.4504    2.9361   -0.6934 H   0  0  0  0  0  0  0  0  0  0  0  0
  1  2  1  0
  1  3  1  0
  3  4  1  0
  3  5  1  0
  5  6  1  0
  6  7  1  0
  5  8  1  0
  8  9  1  0
  9 10  1  0
 10 11  1  0
  9  1  1  0
  1 12  1  1
  2 13  1  0
  3 14  1  1
  4 15  1  0
  5 16  1  1
  6 17  1  0
  6 18  1  0
  7 19  1  0
  9 20  1  6
 10 21  1  0
 10 22  1  0
 11 23  1  0
M  END
$$$$
[H]Oc1c([H])c([H])c2c(c1[H])C([H])([H])C([H])([H])[C@@]1([H])[C@]3([H])C([H])([H])C([H])([H])[C@]([H])(C([H])([H])C([H])(O[H])C([H])([H])C([H])([H])C([H])([H])C([H])([H])[H])[C@@]3(C([H])([H])[H])C([H])([H])C([H])([H])[C@@]21[H]
     RDKit          3D

 62 65  0  0  0  0  0  0  0  0999 V2000
    6.5620    0.7595   -0.8164 C   0  0  0  0  0  0  0  0  0  0  0  0
    5.7016   -0.2983   -0.1540 C   0  0  0  0  0  0  0  0  0  0  0  0
    4.6177    0.4181    0.6242 C   0  0  0  0  0  0  0  0  0  0  0  0
    3.8199    1.2431   -0.3804 C   0  0  0  0  0  0  0  0  0  0  0  0
    2.7147    2.0005    0.2710 C   0  0  0  0  0  0  0  0  0  0  0  0
    3.2575    2.8856    1.2554 O   0  0  0  0  0  0  0  0  0  0  0  0
    1.6312    1.1812    0.8167 C   0  0  0  0  0  0  0  0  0  0  0  0
    0.8126    0.3457   -0.0553 C   0  0  1  0  0  0  0  0  0  0  0  0
    1.4086   -0.7585   -0.8566 C   0  0  0  0  0  0  0  0  0  0  0  0
    0.2805   -1.8130   -1.0185 C   0  0  0  0  0  0  0  0  0  0  0  0
   -0.9023   -1.1308   -0.4271 C   0  0  1  0  0  0  0  0  0  0  0  0
   -2.0266   -1.9913   -0.0167 C   0  0  2  0  0  0  0  0  0  0  0  0
   -2.7763   -2.4406   -1.2497 C   0  0  0  0  0  0  0  0  0  0  0  0
   -3.2850   -1.3059   -2.0678 C   0  0  0  0  0  0  0  0  0  0  0  0
   -3.8839   -0.2099   -1.2964 C   0  0  0  0  0  0  0  0  0  0  0  0
   -4.5993    0.8014   -1.9570 C   0  0  0  0  0  0  0  0  0  0  0  0
   -5.1654    1.8312   -1.2750 C   0  0  0  0  0  0  0  0  0  0  0  0
   -5.8835    2.8476   -1.9323 O   0  0  0  0  0  0  0  0  0  0  0  0
   -5.0350    1.8819    0.0800 C   0  0  0  0  0  0  0  0  0  0  0  0
   -4.3249    0.8768    0.7301 C   0  0  0  0  0  0  0  0  0  0  0  0
   -3.7424   -0.1751    0.0683 C   0  0  0  0  0  0  0  0  0  0  0  0
   -3.0150   -1.1970    0.8109 C   0  0  2  0  0  0  0  0  0  0  0  0
   -2.2880   -0.5768    1.9680 C   0  0  0  0  0  0  0  0  0  0  0  0
   -1.2352    0.3985    1.4345 C   0  0  0  0  0  0  0  0  0  0  0  0
   -0.2131   -0.4389    0.7603 C   0  0  2  0  0  0  0  0  0  0  0  0
    0.4906   -1.4204    1.6319 C   0  0  0  0  0  0  0  0  0  0  0  0
    6.2118    0.8621   -1.8518 H   0  0  0  0  0  0  0  0  0  0  0  0
    7.6330    0.4570   -0.7563 H   0  0  0  0  0  0  0  0  0  0  0  0
    6.4778    1.7036   -0.2379 H   0  0  0  0  0  0  0  0  0  0  0  0
    5.2101   -0.9342   -0.9254 H   0  0  0  0  0  0  0  0  0  0  0  0
    6.2837   -0.9178    0.5639 H   0  0  0  0  0  0  0  0  0  0  0  0
    5.1299    1.0594    1.3634 H   0  0  0  0  0  0  0  0  0  0  0  0
    3.9635   -0.2634    1.1753 H   0  0  0  0  0  0  0  0  0  0  0  0
    3.5684    0.6011   -1.2207 H   0  0  0  0  0  0  0  0  0  0  0  0
    4.5374    2.0085   -0.8206 H   0  0  0  0  0  0  0  0  0  0  0  0
    2.2951    2.7670   -0.4826 H   0  0  0  0  0  0  0  0  0  0  0  0
    2.9414    2.5393    2.1281 H   0  0  0  0  0  0  0  0  0  0  0  0
    0.9033    1.9015    1.3305 H   0  0  0  0  0  0  0  0  0  0  0  0
    1.9911    0.5917    1.7415 H   0  0  0  0  0  0  0  0  0  0  0  0
    0.2207    1.0476   -0.7257 H   0  0  0  0  0  0  0  0  0  0  0  0
    2.2924   -1.2439   -0.4275 H   0  0  0  0  0  0  0  0  0  0  0  0
    1.6202   -0.4666   -1.9131 H   0  0  0  0  0  0  0  0  0  0  0  0
    0.5651   -2.7096   -0.3949 H   0  0  0  0  0  0  0  0  0  0  0  0
    0.1820   -2.1622   -2.0415 H   0  0  0  0  0  0  0  0  0  0  0  0
   -1.2300   -0.3487   -1.1397 H   0  0  0  0  0  0  0  0  0  0  0  0
   -1.7450   -2.8850    0.5401 H   0  0  0  0  0  0  0  0  0  0  0  0
   -3.6417   -3.0424   -0.9008 H   0  0  0  0  0  0  0  0  0  0  0  0
   -2.1627   -3.0916   -1.9014 H   0  0  0  0  0  0  0  0  0  0  0  0
   -2.5102   -0.9085   -2.7787 H   0  0  0  0  0  0  0  0  0  0  0  0
   -4.1031   -1.7167   -2.7292 H   0  0  0  0  0  0  0  0  0  0  0  0
   -4.6975    0.7523   -3.0353 H   0  0  0  0  0  0  0  0  0  0  0  0
   -6.2956    3.6032   -1.4040 H   0  0  0  0  0  0  0  0  0  0  0  0
   -5.4777    2.6921    0.6391 H   0  0  0  0  0  0  0  0  0  0  0  0
   -4.2587    0.9739    1.8018 H   0  0  0  0  0  0  0  0  0  0  0  0
   -3.7698   -1.9274    1.2063 H   0  0  0  0  0  0  0  0  0  0  0  0
   -1.6741   -1.4107    2.4243 H   0  0  0  0  0  0  0  0  0  0  0  0
   -2.9015   -0.1735    2.7629 H   0  0  0  0  0  0  0  0  0  0  0  0
   -1.6539    1.1083    0.7175 H   0  0  0  0  0  0  0  0  0  0  0  0
   -0.7454    0.9199    2.2918 H   0  0  0  0  0  0  0  0  0  0  0  0
    0.0367   -2.4521    1.5746 H   0  0  0  0  0  0  0  0  0  0  0  0
    1.5611   -1.5442    1.4464 H   0  0  0  0  0  0  0  0  0  0  0  0
    0.3212   -1.1043    2.6993 H   0  0  0  0  0  0  0  0  0  0  0  0
  1  2  1  0
  2  3  1  0
  3  4  1  0
  4  5  1  0
  5  6  1  0
  5  7  1  0
  7  8  1  0
  8  9  1  0
  9 10  1  0
 10 11  1  0
 11 12  1  0
 12 13  1  0
 13 14  1  0
 14 15  1  0
 15 16  2  0
 16 17  1  0
 17 18  1  0
 17 19  2  0
 19 20  1  0
 20 21  2  0
 21 22  1  0
 22 23  1  0
 23 24  1  0
 24 25  1  0
 25 26  1  1
 25  8  1  0
 25 11  1  0
 22 12  1  0
 21 15  1  0
  1 27  1  0
  1 28  1  0
  1 29  1  0
  2 30  1  0
  2 31  1  0
  3 32  1  0
  3 33  1  0
  4 34  1  0
  4 35  1  0
  5 36  1  0
  6 37  1  0
  7 38  1  0
  7 39  1  0
  8 40  1  6
  9 41  1  0
  9 42  1  0
 10 43  1  0
 10 44  1  0
 11 45  1  6
 12 46  1  1
 13 47  1  0
 13 48  1  0
 14 49  1  0
 14 50  1  0
 16 51  1  0
 18 52  1  0
 19 53  1  0
 20 54  1  0
 22 55  1  1
 23 56  1  0
 23 57  1  0
 24 58  1  0
 24 59  1  0
 26 60  1  0
 26 61  1  0
 26 62  1  0
M  END
$$$$
[H]Oc1c([H])c([H])c([H])c2c1c(C([H])([H])C([H])([H])C(=O)N([H])C([H])([H])C1([H])C([H])([H])C([H])([H])OC([H])([H])C1([H])[H])c([H])n2C(=O)c1c([H])c([H])c2c(c1[H])C([H])([H])C([H])([H])O2
     RDKit          3D

 61 65  0  0  0  0  0  0  0  0999 V2000
   -1.5422    0.5835   -2.9481 O   0  0  0  0  0  0  0  0  0  0  0  0
   -0.2864    0.1915   -3.2724 C   0  0  0  0  0  0  0  0  0  0  0  0
   -0.0156   -0.1385   -4.6219 C   0  0  0  0  0  0  0  0  0  0  0  0
    1.2255   -0.5328   -4.9985 C   0  0  0  0  0  0  0  0  0  0  0  0
    2.2736   -0.6258   -4.0717 C   0  0  0  0  0  0  0  0  0  0  0  0
    2.0129   -0.3079   -2.7695 C   0  0  0  0  0  0  0  0  0  0  0  0
    2.8210   -0.2983   -1.6756 N   0  0  0  0  0  0  0  0  0  0  0  0
    2.1067    0.0937   -0.6131 C   0  0  0  0  0  0  0  0  0  0  0  0
    0.7821    0.3559   -1.0004 C   0  0  0  0  0  0  0  0  0  0  0  0
   -0.3050    0.7717   -0.0938 C   0  0  0  0  0  0  0  0  0  0  0  0
   -1.0943   -0.4787    0.2848 C   0  0  0  0  0  0  0  0  0  0  0  0
   -2.2074   -0.1650    1.1939 C   0  0  0  0  0  0  0  0  0  0  0  0
   -2.3807    1.0167    1.5494 O   0  0  0  0  0  0  0  0  0  0  0  0
   -3.0525   -1.1923    1.6461 N   0  0  0  0  0  0  0  0  0  0  0  0
   -4.1508   -0.9496    2.5281 C   0  0  0  0  0  0  0  0  0  0  0  0
   -5.1438   -0.0358    1.8930 C   0  0  0  0  0  0  0  0  0  0  0  0
   -5.6721   -0.6685    0.5992 C   0  0  0  0  0  0  0  0  0  0  0  0
   -6.5428    0.3919   -0.0530 C   0  0  0  0  0  0  0  0  0  0  0  0
   -6.8396    1.4407    0.8123 O   0  0  0  0  0  0  0  0  0  0  0  0
   -7.3458    1.0097    2.0193 C   0  0  0  0  0  0  0  0  0  0  0  0
   -6.4047    0.0946    2.7724 C   0  0  0  0  0  0  0  0  0  0  0  0
    0.7457    0.1011   -2.3466 C   0  0  0  0  0  0  0  0  0  0  0  0
    4.2020   -0.6404   -1.7166 C   0  0  0  0  0  0  0  0  0  0  0  0
    4.8067   -1.0255   -2.7559 O   0  0  0  0  0  0  0  0  0  0  0  0
    5.0400   -0.5684   -0.5228 C   0  0  0  0  0  0  0  0  0  0  0  0
    5.9047   -1.5914   -0.1926 C   0  0  0  0  0  0  0  0  0  0  0  0
    6.7155   -1.4948    0.9206 C   0  0  0  0  0  0  0  0  0  0  0  0
    6.6738   -0.3624    1.7290 C   0  0  0  0  0  0  0  0  0  0  0  0
    7.3984   -0.0870    2.8684 O   0  0  0  0  0  0  0  0  0  0  0  0
    7.2046    1.2769    3.1861 C   0  0  0  0  0  0  0  0  0  0  0  0
    5.9759    1.7109    2.4184 C   0  0  0  0  0  0  0  0  0  0  0  0
    5.8192    0.6434    1.3979 C   0  0  0  0  0  0  0  0  0  0  0  0
    5.0070    0.5370    0.2745 C   0  0  0  0  0  0  0  0  0  0  0  0
   -2.0889    0.8680   -2.2403 H   0  0  0  0  0  0  0  0  0  0  0  0
   -0.8582   -0.0536   -5.3141 H   0  0  0  0  0  0  0  0  0  0  0  0
    1.4440   -0.7850   -6.0116 H   0  0  0  0  0  0  0  0  0  0  0  0
    3.2521   -0.9520   -4.4479 H   0  0  0  0  0  0  0  0  0  0  0  0
    2.4104    0.2030    0.4071 H   0  0  0  0  0  0  0  0  0  0  0  0
   -0.9165    1.5908   -0.4513 H   0  0  0  0  0  0  0  0  0  0  0  0
    0.1664    1.1826    0.8646 H   0  0  0  0  0  0  0  0  0  0  0  0
   -0.3480   -1.1448    0.8223 H   0  0  0  0  0  0  0  0  0  0  0  0
   -1.3496   -1.0215   -0.6197 H   0  0  0  0  0  0  0  0  0  0  0  0
   -2.8721   -2.1825    1.3233 H   0  0  0  0  0  0  0  0  0  0  0  0
   -3.8282   -0.5088    3.5035 H   0  0  0  0  0  0  0  0  0  0  0  0
   -4.6154   -1.9341    2.7909 H   0  0  0  0  0  0  0  0  0  0  0  0
   -4.7572    0.9698    1.7551 H   0  0  0  0  0  0  0  0  0  0  0  0
   -4.8220   -0.9572   -0.0148 H   0  0  0  0  0  0  0  0  0  0  0  0
   -6.3106   -1.5156    0.9281 H   0  0  0  0  0  0  0  0  0  0  0  0
   -5.9145    0.8397   -0.8775 H   0  0  0  0  0  0  0  0  0  0  0  0
   -7.4196   -0.0440   -0.5391 H   0  0  0  0  0  0  0  0  0  0  0  0
   -8.3670    0.5828    1.9397 H   0  0  0  0  0  0  0  0  0  0  0  0
   -7.4681    1.9290    2.6584 H   0  0  0  0  0  0  0  0  0  0  0  0
   -6.8784   -0.9255    2.8812 H   0  0  0  0  0  0  0  0  0  0  0  0
   -6.1460    0.4459    3.7707 H   0  0  0  0  0  0  0  0  0  0  0  0
    5.9163   -2.4540   -0.8348 H   0  0  0  0  0  0  0  0  0  0  0  0
    7.3743   -2.3232    1.1346 H   0  0  0  0  0  0  0  0  0  0  0  0
    7.0330    1.4152    4.2859 H   0  0  0  0  0  0  0  0  0  0  0  0
    8.0554    1.8873    2.8320 H   0  0  0  0  0  0  0  0  0  0  0  0
    6.0976    2.7187    1.9812 H   0  0  0  0  0  0  0  0  0  0  0  0
    5.1155    1.7220    3.1329 H   0  0  0  0  0  0  0  0  0  0  0  0
    4.3639    1.3914    0.0697 H   0  0  0  0  0  0  0  0  0  0  0  0
  1  2  1  0
  2  3  2  0
  3  4  1  0
  4  5  2  0
  5  6  1  0
  6  7  1  0
  7  8  1  0
  8  9  2  0
  9 10  1  0
 10 11  1  0
 11 12  1  0
 12 13  2  0
 12 14  1  0
 14 15  1  0
 15 16  1  0
 16 17  1  0
 17 18  1  0
 18 19  1  0
 19 20  1  0
 20 21  1  0
  9 22  1  0
  7 23  1  0
 23 24  2  0
 23 25  1  0
 25 26  2  0
 26 27  1  0
 27 28  2  0
 28 29  1  0
 29 30  1  0
 30 31  1  0
 31 32  1  0
 32 33  2  0
 22  2  1  0
 33 25  1  0
 22  6  2  0
 32 28  1  0
 21 16  1  0
  1 34  1  0
  3 35  1  0
  4 36  1  0
  5 37  1  0
  8 38  1  0
 10 39  1  0
 10 40  1  0
 11 41  1  0
 11 42  1  0
 14 43  1  0
 15 44  1  0
 15 45  1  0
 16 46  1  0
 17 47  1  0
 17 48  1  0
 18 49  1  0
 18 50  1  0
 20 51  1  0
 20 52  1  0
 21 53  1  0
 21 54  1  0
 26 55  1  0
 27 56  1  0
 30 57  1  0
 30 58  1  0
 31 59  1  0
 31 60  1  0
 33 61  1  0
M  END
$$$$
[H]Oc1c([H])c([H])c(C([H])([H])[C@@]([H])(C(=O)N([H])[C@]([H])(C(=O)N([H])[C@]([H])(C(=O)N([H])[H])C([H])([H])c2c([H])c([H])c([H])c([H])c2[H])C([H])([H])C([H])(C([H])([H])[H])C([H])([H])[H])N([H])[H])c([H])c1[H]
     RDKit          3D

 64 65  0  0  0  0  0  0  0  0999 V2000
    0.6737   -3.0774   -1.1537 C   0  0  0  0  0  0  0  0  0  0  0  0
    0.1779   -3.0197    0.2869 C   0  0  0  0  0  0  0  0  0  0  0  0
    0.6338   -4.3252    0.9719 C   0  0  0  0  0  0  0  0  0  0  0  0
    0.7965   -1.8975    1.0288 C   0  0  0  0  0  0  0  0  0  0  0  0
    0.4872   -0.5348    0.4289 C   0  0  2  0  0  0  0  0  0  0  0  0
    1.2229    0.4429    1.2684 N   0  0  0  0  0  0  0  0  0  0  0  0
    2.2898    1.1567    0.6785 C   0  0  0  0  0  0  0  0  0  0  0  0
    2.5636    0.9261   -0.5274 O   0  0  0  0  0  0  0  0  0  0  0  0
    3.0744    2.1521    1.4453 C   0  0  1  0  0  0  0  0  0  0  0  0
    2.3565    2.3709    2.7249 N   0  0  0  0  0  0  0  0  0  0  0  0
    4.4591    1.6961    1.7597 C   0  0  0  0  0  0  0  0  0  0  0  0
    5.3124    1.3835    0.5967 C   0  0  0  0  0  0  0  0  0  0  0  0
    5.4128    0.0920    0.0874 C   0  0  0  0  0  0  0  0  0  0  0  0
    6.2008   -0.2264   -0.9936 C   0  0  0  0  0  0  0  0  0  0  0  0
    6.9450    0.7395   -1.6389 C   0  0  0  0  0  0  0  0  0  0  0  0
    7.7509    0.4415   -2.7361 O   0  0  0  0  0  0  0  0  0  0  0  0
    6.8521    2.0233   -1.1415 C   0  0  0  0  0  0  0  0  0  0  0  0
    6.0615    2.3425   -0.0566 C   0  0  0  0  0  0  0  0  0  0  0  0
   -0.9246   -0.1862    0.6102 C   0  0  0  0  0  0  0  0  0  0  0  0
   -1.2269    0.6237    1.5589 O   0  0  0  0  0  0  0  0  0  0  0  0
   -1.9562   -0.6843   -0.1978 N   0  0  0  0  0  0  0  0  0  0  0  0
   -3.3539   -0.2625    0.0831 C   0  0  1  0  0  0  0  0  0  0  0  0
   -3.7206    0.6252   -1.0579 C   0  0  0  0  0  0  0  0  0  0  0  0
   -5.0705    1.1743   -0.9995 C   0  0  0  0  0  0  0  0  0  0  0  0
   -5.3236    2.3251   -0.2426 C   0  0  0  0  0  0  0  0  0  0  0  0
   -6.5720    2.8560   -0.2212 C   0  0  0  0  0  0  0  0  0  0  0  0
   -7.6284    2.3261   -0.9094 C   0  0  0  0  0  0  0  0  0  0  0  0
   -7.3707    1.1870   -1.6566 C   0  0  0  0  0  0  0  0  0  0  0  0
   -6.1240    0.6291   -1.6979 C   0  0  0  0  0  0  0  0  0  0  0  0
   -4.1551   -1.4867    0.1029 C   0  0  0  0  0  0  0  0  0  0  0  0
   -5.5121   -1.4550    0.4927 N   0  0  0  0  0  0  0  0  0  0  0  0
   -3.6829   -2.6100   -0.2165 O   0  0  0  0  0  0  0  0  0  0  0  0
    1.7729   -3.1466   -1.1599 H   0  0  0  0  0  0  0  0  0  0  0  0
    0.3670   -2.1430   -1.6508 H   0  0  0  0  0  0  0  0  0  0  0  0
    0.1786   -3.9267   -1.6247 H   0  0  0  0  0  0  0  0  0  0  0  0
   -0.9050   -3.0666    0.2783 H   0  0  0  0  0  0  0  0  0  0  0  0
    0.2678   -5.1949    0.4022 H   0  0  0  0  0  0  0  0  0  0  0  0
    0.1201   -4.3062    1.9685 H   0  0  0  0  0  0  0  0  0  0  0  0
    1.7287   -4.3350    1.0669 H   0  0  0  0  0  0  0  0  0  0  0  0
    1.8976   -2.0283    1.0442 H   0  0  0  0  0  0  0  0  0  0  0  0
    0.4110   -1.9315    2.0815 H   0  0  0  0  0  0  0  0  0  0  0  0
    0.8774   -0.4715   -0.5731 H   0  0  0  0  0  0  0  0  0  0  0  0
    0.9633    0.5979    2.2549 H   0  0  0  0  0  0  0  0  0  0  0  0
    3.0576    3.1381    0.9281 H   0  0  0  0  0  0  0  0  0  0  0  0
    2.4415    1.5141    3.3147 H   0  0  0  0  0  0  0  0  0  0  0  0
    1.3811    2.5784    2.4987 H   0  0  0  0  0  0  0  0  0  0  0  0
    4.9326    2.4903    2.4111 H   0  0  0  0  0  0  0  0  0  0  0  0
    4.3633    0.8248    2.4557 H   0  0  0  0  0  0  0  0  0  0  0  0
    4.8154   -0.6682    0.6102 H   0  0  0  0  0  0  0  0  0  0  0  0
    6.2537   -1.2441   -1.3627 H   0  0  0  0  0  0  0  0  0  0  0  0
    8.7376    0.1672   -2.6077 H   0  0  0  0  0  0  0  0  0  0  0  0
    7.4384    2.7773   -1.6518 H   0  0  0  0  0  0  0  0  0  0  0  0
    6.0023    3.3536    0.3175 H   0  0  0  0  0  0  0  0  0  0  0  0
   -1.8003   -1.3157   -0.9868 H   0  0  0  0  0  0  0  0  0  0  0  0
   -3.3819    0.3356    1.0168 H   0  0  0  0  0  0  0  0  0  0  0  0
   -3.6555   -0.0016   -1.9943 H   0  0  0  0  0  0  0  0  0  0  0  0
   -2.9458    1.4326   -1.1864 H   0  0  0  0  0  0  0  0  0  0  0  0
   -4.4903    2.7696    0.3195 H   0  0  0  0  0  0  0  0  0  0  0  0
   -6.7303    3.7500    0.3777 H   0  0  0  0  0  0  0  0  0  0  0  0
   -8.6310    2.7436   -0.8986 H   0  0  0  0  0  0  0  0  0  0  0  0
   -8.1968    0.7458   -2.2145 H   0  0  0  0  0  0  0  0  0  0  0  0
   -5.9393   -0.2762   -2.2980 H   0  0  0  0  0  0  0  0  0  0  0  0
   -5.7892   -0.8438    1.2780 H   0  0  0  0  0  0  0  0  0  0  0  0
   -6.1920   -2.0666   -0.0449 H   0  0  0  0  0  0  0  0  0  0  0  0
  1  2  1  0
  2  3  1  0
  2  4  1  0
  4  5  1  0
  5  6  1  0
  6  7  1  0
  7  8  2  0
  7  9  1  0
  9 10  1  0
  9 11  1  0
 11 12  1  0
 12 13  2  0
 13 14  1  0
 14 15  2  0
 15 16  1  0
 15 17  1  0
 17 18  2  0
  5 19  1  0
 19 20  2  0
 19 21  1  0
 21 22  1  0
 22 23  1  0
 23 24  1  0
 24 25  2  0
 25 26  1  0
 26 27  2  0
 27 28  1  0
 28 29  2  0
 22 30  1  0
 30 31  1  0
 30 32  2  0
 18 12  1  0
 29 24  1  0
  1 33  1  0
  1 34  1  0
  1 35  1  0
  2 36  1  0
  3 37  1  0
  3 38  1  0
  3 39  1  0
  4 40  1  0
  4 41  1  0
  5 42  1  6
  6 43  1  0
  9 44  1  6
 10 45  1  0
 10 46  1  0
 11 47  1  0
 11 48  1  0
 13 49  1  0
 14 50  1  0
 16 51  1  0
 17 52  1  0
 18 53  1  0
 21 54  1  0
 22 55  1  1
 23 56  1  0
 23 57  1  0
 25 58  1  0
 26 59  1  0
 27 60  1  0
 28 61  1  0
 29 62  1  0
 31 63  1  0
 31 64  1  0
M  END
$$$$
[H]SC([H])([H])[C@@]([H])(C(=O)N([H])[C@@]([H])(c1nc([H])c([H])c([H])c1[H])C(C([H])([H])[H])(C([H])([H])[H])C([H])([H])[H])C([H])([H])c1c([H])n([H])c2c([H])c([H])c([H])c([H])c12
     RDKit          3D

 54 56  0  0  0  0  0  0  0  0999 V2000
   -3.2869   -2.0532   -0.8963 C   0  0  0  0  0  0  0  0  0  0  0  0
   -3.3131   -0.6617   -0.3048 C   0  0  0  0  0  0  0  0  0  0  0  0
   -3.7900    0.2831   -1.3779 C   0  0  0  0  0  0  0  0  0  0  0  0
   -4.2877   -0.7175    0.8627 C   0  0  0  0  0  0  0  0  0  0  0  0
   -1.9928   -0.2247    0.2243 C   0  0  1  0  0  0  0  0  0  0  0  0
   -0.9288   -0.1818   -0.7355 N   0  0  0  0  0  0  0  0  0  0  0  0
    0.2377   -1.0063   -0.5181 C   0  0  0  0  0  0  0  0  0  0  0  0
    0.3066   -1.7448    0.5007 O   0  0  0  0  0  0  0  0  0  0  0  0
    1.3069   -0.9318   -1.5332 C   0  0  2  0  0  0  0  0  0  0  0  0
    0.7121   -1.4869   -2.8220 C   0  0  0  0  0  0  0  0  0  0  0  0
    0.1650   -3.1870   -2.6421 S   0  0  0  0  0  0  0  0  0  0  0  0
    2.5315   -1.6627   -1.1141 C   0  0  0  0  0  0  0  0  0  0  0  0
    3.1703   -1.1825    0.1099 C   0  0  0  0  0  0  0  0  0  0  0  0
    3.9049    0.0114    0.1363 C   0  0  0  0  0  0  0  0  0  0  0  0
    4.1852    0.9449   -0.8353 C   0  0  0  0  0  0  0  0  0  0  0  0
    4.9535    2.0335   -0.4864 C   0  0  0  0  0  0  0  0  0  0  0  0
    5.4250    2.1851    0.7849 C   0  0  0  0  0  0  0  0  0  0  0  0
    5.1363    1.2427    1.7455 C   0  0  0  0  0  0  0  0  0  0  0  0
    4.3674    0.1390    1.4259 C   0  0  0  0  0  0  0  0  0  0  0  0
    3.9539   -0.9008    2.1596 N   0  0  0  0  0  0  0  0  0  0  0  0
    3.2277   -1.7161    1.3881 C   0  0  0  0  0  0  0  0  0  0  0  0
   -2.1831    1.1048    0.8997 C   0  0  0  0  0  0  0  0  0  0  0  0
   -2.3602    1.2209    2.2624 C   0  0  0  0  0  0  0  0  0  0  0  0
   -2.5333    2.4447    2.8698 C   0  0  0  0  0  0  0  0  0  0  0  0
   -2.5328    3.5864    2.1219 C   0  0  0  0  0  0  0  0  0  0  0  0
   -2.3545    3.4566    0.7599 C   0  0  0  0  0  0  0  0  0  0  0  0
   -2.1874    2.2516    0.1879 N   0  0  0  0  0  0  0  0  0  0  0  0
   -2.6434   -2.7496   -0.3235 H   0  0  0  0  0  0  0  0  0  0  0  0
   -4.3215   -2.4503   -0.8261 H   0  0  0  0  0  0  0  0  0  0  0  0
   -3.0364   -2.0422   -1.9786 H   0  0  0  0  0  0  0  0  0  0  0  0
   -4.2491    1.2064   -0.9751 H   0  0  0  0  0  0  0  0  0  0  0  0
   -2.9400    0.4690   -2.0636 H   0  0  0  0  0  0  0  0  0  0  0  0
   -4.5335   -0.2917   -2.0067 H   0  0  0  0  0  0  0  0  0  0  0  0
   -5.1297   -1.3806    0.5471 H   0  0  0  0  0  0  0  0  0  0  0  0
   -3.7557   -1.2242    1.6942 H   0  0  0  0  0  0  0  0  0  0  0  0
   -4.6206    0.2636    1.1959 H   0  0  0  0  0  0  0  0  0  0  0  0
   -1.7333   -0.9353    1.0636 H   0  0  0  0  0  0  0  0  0  0  0  0
   -0.9716    0.4213   -1.5753 H   0  0  0  0  0  0  0  0  0  0  0  0
    1.5619    0.1369   -1.7548 H   0  0  0  0  0  0  0  0  0  0  0  0
   -0.1889   -0.8587   -3.0307 H   0  0  0  0  0  0  0  0  0  0  0  0
    1.3900   -1.3305   -3.6895 H   0  0  0  0  0  0  0  0  0  0  0  0
    0.5142   -3.9993   -3.7344 H   0  0  0  0  0  0  0  0  0  0  0  0
    3.2622   -1.7952   -1.9575 H   0  0  0  0  0  0  0  0  0  0  0  0
    2.2010   -2.7275   -0.9072 H   0  0  0  0  0  0  0  0  0  0  0  0
    3.8303    0.8502   -1.8424 H   0  0  0  0  0  0  0  0  0  0  0  0
    5.1726    2.7647   -1.2483 H   0  0  0  0  0  0  0  0  0  0  0  0
    6.0262    3.0385    1.0545 H   0  0  0  0  0  0  0  0  0  0  0  0
    5.4899    1.3305    2.7521 H   0  0  0  0  0  0  0  0  0  0  0  0
    4.1532   -1.0712    3.1747 H   0  0  0  0  0  0  0  0  0  0  0  0
    2.7495   -2.6527    1.6723 H   0  0  0  0  0  0  0  0  0  0  0  0
   -2.3651    0.3269    2.8845 H   0  0  0  0  0  0  0  0  0  0  0  0
   -2.6719    2.5147    3.9498 H   0  0  0  0  0  0  0  0  0  0  0  0
   -2.6681    4.5667    2.5802 H   0  0  0  0  0  0  0  0  0  0  0  0
   -2.3554    4.3724    0.1710 H   0  0  0  0  0  0  0  0  0  0  0  0
  1  2  1  0
  2  3  1  0
  2  4  1  0
  2  5  1  0
  5  6  1  0
  6  7  1  0
  7  8  2  0
  7  9  1  0
  9 10  1  0
 10 11  1  0
  9 12  1  0
 12 13  1  0
 13 14  1  0
 14 15  2  0
 15 16  1  0
 16 17  2  0
 17 18  1  0
 18 19  2  0
 19 20  1  0
 20 21  1  0
  5 22  1  0
 22 23  2  0
 23 24  1  0
 24 25  2  0
 25 26  1  0
 26 27  2  0
 21 13  2  0
 27 22  1  0
 19 14  1  0
  1 28  1  0
  1 29  1  0
  1 30  1  0
  3 31  1  0
  3 32  1  0
  3 33  1  0
  4 34  1  0
  4 35  1  0
  4 36  1  0
  5 37  1  1
  6 38  1  0
  9 39  1  6
 10 40  1  0
 10 41  1  0
 11 42  1  0
 12 43  1  0
 12 44  1  0
 15 45  1  0
 16 46  1  0
 17 47  1  0
 18 48  1  0
 20 49  1  0
 21 50  1  0
 23 51  1  0
 24 52  1  0
 25 53  1  0
 26 54  1  0
M  END
$$$$
[H]c1nc(C(=O)N([H])c2c([H])c([H])c(N3C([H])([H])C([H])([H])N(C([H])([H])[H])C([H])([H])C3([H])[H])c([H])c2S(=O)(=O)c2c([H])c([H])c(F)c([H])c2[H])n([H])c1C#N
     RDKit          3D

 54 57  0  0  0  0  0  0  0  0999 V2000
    6.8115    0.2487    0.2001 C   0  0  0  0  0  0  0  0  0  0  0  0
    6.0721    0.0842   -1.0129 N   0  0  0  0  0  0  0  0  0  0  0  0
    5.3186    1.2675   -1.3945 C   0  0  0  0  0  0  0  0  0  0  0  0
    4.3308    1.6519   -0.3129 C   0  0  0  0  0  0  0  0  0  0  0  0
    3.4196    0.5654   -0.0799 N   0  0  0  0  0  0  0  0  0  0  0  0
    3.9808   -0.7670    0.0052 C   0  0  0  0  0  0  0  0  0  0  0  0
    5.1548   -1.0045   -0.9032 C   0  0  0  0  0  0  0  0  0  0  0  0
    2.0067    0.7643    0.0598 C   0  0  0  0  0  0  0  0  0  0  0  0
    1.3754    1.9016   -0.3166 C   0  0  0  0  0  0  0  0  0  0  0  0
    0.0049    2.1042   -0.1693 C   0  0  0  0  0  0  0  0  0  0  0  0
   -0.7392    1.0881    0.3892 C   0  0  0  0  0  0  0  0  0  0  0  0
   -2.0886    1.2445    0.6371 N   0  0  0  0  0  0  0  0  0  0  0  0
   -2.9372    2.2282    0.1272 C   0  0  0  0  0  0  0  0  0  0  0  0
   -2.5671    3.1187   -0.6571 O   0  0  0  0  0  0  0  0  0  0  0  0
   -4.3705    2.2906    0.4864 C   0  0  0  0  0  0  0  0  0  0  0  0
   -5.2742    3.1718    0.0371 N   0  0  0  0  0  0  0  0  0  0  0  0
   -6.4700    2.9178    0.5882 C   0  0  0  0  0  0  0  0  0  0  0  0
   -6.2632    1.8148    1.4183 C   0  0  0  0  0  0  0  0  0  0  0  0
   -4.9787    1.4573    1.3350 N   0  0  0  0  0  0  0  0  0  0  0  0
   -7.2939    1.2028    2.2104 C   0  0  0  0  0  0  0  0  0  0  0  0
   -8.1255    0.7072    2.8271 N   0  0  0  0  0  0  0  0  0  0  0  0
   -0.1503   -0.1070    0.7955 C   0  0  0  0  0  0  0  0  0  0  0  0
    1.2217   -0.2248    0.6136 C   0  0  0  0  0  0  0  0  0  0  0  0
   -0.9636   -1.4810    1.4318 S   0  0  0  0  0  0  0  0  0  0  0  0
    0.0920   -2.4749    1.9368 O   0  0  0  0  0  0  0  0  0  0  0  0
   -1.6394   -1.0462    2.7393 O   0  0  0  0  0  0  0  0  0  0  0  0
   -2.0288   -2.3128    0.3878 C   0  0  0  0  0  0  0  0  0  0  0  0
   -3.3813   -2.1604    0.4244 C   0  0  0  0  0  0  0  0  0  0  0  0
   -4.2343   -2.8475   -0.4379 C   0  0  0  0  0  0  0  0  0  0  0  0
   -3.7098   -3.7194   -1.3710 C   0  0  0  0  0  0  0  0  0  0  0  0
   -4.5509   -4.4005   -2.2254 F   0  0  0  0  0  0  0  0  0  0  0  0
   -2.3547   -3.8807   -1.4172 C   0  0  0  0  0  0  0  0  0  0  0  0
   -1.5386   -3.1899   -0.5543 C   0  0  0  0  0  0  0  0  0  0  0  0
    6.3959   -0.3428    1.0426 H   0  0  0  0  0  0  0  0  0  0  0  0
    7.8394   -0.1699    0.0149 H   0  0  0  0  0  0  0  0  0  0  0  0
    6.9448    1.3199    0.4446 H   0  0  0  0  0  0  0  0  0  0  0  0
    6.0353    2.0624   -1.6124 H   0  0  0  0  0  0  0  0  0  0  0  0
    4.7534    0.9947   -2.3124 H   0  0  0  0  0  0  0  0  0  0  0  0
    3.9013    2.6003   -0.6062 H   0  0  0  0  0  0  0  0  0  0  0  0
    4.9222    1.8122    0.6306 H   0  0  0  0  0  0  0  0  0  0  0  0
    4.2404   -0.9238    1.0809 H   0  0  0  0  0  0  0  0  0  0  0  0
    3.2514   -1.5701   -0.2420 H   0  0  0  0  0  0  0  0  0  0  0  0
    5.6754   -1.9147   -0.5116 H   0  0  0  0  0  0  0  0  0  0  0  0
    4.7357   -1.2984   -1.9074 H   0  0  0  0  0  0  0  0  0  0  0  0
    1.9154    2.7161   -0.7573 H   0  0  0  0  0  0  0  0  0  0  0  0
   -0.4072    3.0668   -0.4944 H   0  0  0  0  0  0  0  0  0  0  0  0
   -2.5679    0.5692    1.3122 H   0  0  0  0  0  0  0  0  0  0  0  0
   -7.3818    3.4651    0.4106 H   0  0  0  0  0  0  0  0  0  0  0  0
   -4.5363    0.6778    1.8379 H   0  0  0  0  0  0  0  0  0  0  0  0
    1.7260   -1.1511    0.9300 H   0  0  0  0  0  0  0  0  0  0  0  0
   -3.8640   -1.4974    1.1276 H   0  0  0  0  0  0  0  0  0  0  0  0
   -5.3090   -2.7280   -0.4108 H   0  0  0  0  0  0  0  0  0  0  0  0
   -1.9249   -4.5544   -2.1356 H   0  0  0  0  0  0  0  0  0  0  0  0
   -0.4744   -3.3471   -0.6252 H   0  0  0  0  0  0  0  0  0  0  0  0
  1  2  1  0
  2  3  1  0
  3  4  1  0
  4  5  1  0
  5  6  1  0
  6  7  1  0
  5  8  1  0
  8  9  2  0
  9 10  1  0
 10 11  2  0
 11 12  1  0
 12 13  1  0
 13 14  2  0
 13 15  1  0
 15 16  2  0
 16 17  1  0
 17 18  2  0
 18 19  1  0
 18 20  1  0
 20 21  3  0
 11 22  1  0
 22 23  2  0
 22 24  1  0
 24 25  2  0
 24 26  2  0
 24 27  1  0
 27 28  2  0
 28 29  1  0
 29 30  2  0
 30 31  1  0
 30 32  1  0
 32 33  2  0
  7  2  1  0
 23  8  1  0
 33 27  1  0
 19 15  1  0
  1 34  1  0
  1 35  1  0
  1 36  1  0
  3 37  1  0
  3 38  1  0
  4 39  1  0
  4 40  1  0
  6 41  1  0
  6 42  1  0
  7 43  1  0
  7 44  1  0
  9 45  1  0
 10 46  1  0
 12 47  1  0
 17 48  1  0
 19 49  1  0
 23 50  1  0
 28 51  1  0
 29 52  1  0
 32 53  1  0
 33 54  1  0
M  END
$$$$
[H]OC(=O)c1c([H])c([H])c(C(=O)N2C([H])([H])c3c([H])c([H])c(N([H])C(=O)c4c([H])c([H])c([H])c(Cl)c4[H])c([H])c3C2([H])[H])c([H])c1[H]
     RDKit          3D

 47 50  0  0  0  0  0  0  0  0999 V2000
   -8.9881   -1.6808    0.4668 O   0  0  0  0  0  0  0  0  0  0  0  0
   -8.6914   -0.3742    0.7570 C   0  0  0  0  0  0  0  0  0  0  0  0
   -9.5781    0.3987    1.1911 O   0  0  0  0  0  0  0  0  0  0  0  0
   -7.3250    0.1181    0.5563 C   0  0  0  0  0  0  0  0  0  0  0  0
   -6.3648   -0.7320    0.0825 C   0  0  0  0  0  0  0  0  0  0  0  0
   -5.0537   -0.2457   -0.1062 C   0  0  0  0  0  0  0  0  0  0  0  0
   -4.6920    1.0233    0.1585 C   0  0  0  0  0  0  0  0  0  0  0  0
   -5.7130    1.8588    0.6427 C   0  0  0  0  0  0  0  0  0  0  0  0
   -7.0013    1.4227    0.8392 C   0  0  0  0  0  0  0  0  0  0  0  0
   -3.4008    1.5838    0.0310 C   0  0  0  0  0  0  0  0  0  0  0  0
   -3.2883    2.9003    0.2166 O   0  0  0  0  0  0  0  0  0  0  0  0
   -2.1641    0.9585   -0.2700 N   0  0  0  0  0  0  0  0  0  0  0  0
   -1.9037   -0.4205   -0.4930 C   0  0  0  0  0  0  0  0  0  0  0  0
   -0.4217   -0.5458   -0.4741 C   0  0  0  0  0  0  0  0  0  0  0  0
    0.4048   -1.6459   -0.4903 C   0  0  0  0  0  0  0  0  0  0  0  0
    1.8051   -1.5402   -0.4555 C   0  0  0  0  0  0  0  0  0  0  0  0
    2.3974   -0.3081   -0.4027 C   0  0  0  0  0  0  0  0  0  0  0  0
    3.8030   -0.0980   -0.3408 N   0  0  0  0  0  0  0  0  0  0  0  0
    4.8071   -1.0112   -0.0462 C   0  0  0  0  0  0  0  0  0  0  0  0
    4.5303   -2.2137    0.2185 O   0  0  0  0  0  0  0  0  0  0  0  0
    6.2086   -0.5865   -0.0399 C   0  0  0  0  0  0  0  0  0  0  0  0
    6.6476    0.7031   -0.0327 C   0  0  0  0  0  0  0  0  0  0  0  0
    8.0088    1.0305   -0.0338 C   0  0  0  0  0  0  0  0  0  0  0  0
    8.9527    0.0323   -0.0422 C   0  0  0  0  0  0  0  0  0  0  0  0
    8.5244   -1.2657   -0.0492 C   0  0  0  0  0  0  0  0  0  0  0  0
    9.7429   -2.5254   -0.0597 Cl  0  0  0  0  0  0  0  0  0  0  0  0
    7.1844   -1.5793   -0.0482 C   0  0  0  0  0  0  0  0  0  0  0  0
    1.5459    0.8031   -0.3874 C   0  0  0  0  0  0  0  0  0  0  0  0
    0.1558    0.6856   -0.4227 C   0  0  0  0  0  0  0  0  0  0  0  0
   -0.9092    1.7175   -0.4193 C   0  0  0  0  0  0  0  0  0  0  0  0
   -8.3287   -2.4195    0.6752 H   0  0  0  0  0  0  0  0  0  0  0  0
   -6.5764   -1.7530   -0.1493 H   0  0  0  0  0  0  0  0  0  0  0  0
   -4.3744   -0.9906   -0.5060 H   0  0  0  0  0  0  0  0  0  0  0  0
   -5.5333    2.9016    0.8888 H   0  0  0  0  0  0  0  0  0  0  0  0
   -7.7879    2.0641    1.2116 H   0  0  0  0  0  0  0  0  0  0  0  0
   -2.3266   -0.9697    0.4008 H   0  0  0  0  0  0  0  0  0  0  0  0
   -2.2695   -0.8278   -1.4523 H   0  0  0  0  0  0  0  0  0  0  0  0
   -0.0426   -2.6233   -0.5313 H   0  0  0  0  0  0  0  0  0  0  0  0
    2.3829   -2.4556   -0.4829 H   0  0  0  0  0  0  0  0  0  0  0  0
    4.1361    0.9020   -0.5588 H   0  0  0  0  0  0  0  0  0  0  0  0
    5.9288    1.5036   -0.0219 H   0  0  0  0  0  0  0  0  0  0  0  0
    8.3435    2.0541   -0.0282 H   0  0  0  0  0  0  0  0  0  0  0  0
   10.0171    0.2892   -0.0430 H   0  0  0  0  0  0  0  0  0  0  0  0
    6.8672   -2.6142   -0.0539 H   0  0  0  0  0  0  0  0  0  0  0  0
    1.9946    1.7711   -0.3463 H   0  0  0  0  0  0  0  0  0  0  0  0
   -0.9144    2.3543   -1.3017 H   0  0  0  0  0  0  0  0  0  0  0  0
   -0.7402    2.3505    0.4788 H   0  0  0  0  0  0  0  0  0  0  0  0
  1  2  1  0
  2  3  2  0
  2  4  1  0
  4  5  2  0
  5  6  1  0
  6  7  2  0
  7  8  1  0
  8  9  2  0
  7 10  1  0
 10 11  2  0
 10 12  1  0
 12 13  1  0
 13 14  1  0
 14 15  2  0
 15 16  1  0
 16 17  2  0
 17 18  1  0
 18 19  1  0
 19 20  2  0
 19 21  1  0
 21 22  2  0
 22 23  1  0
 23 24  2  0
 24 25  1  0
 25 26  1  0
 25 27  2  0
 17 28  1  0
 28 29  2  0
 29 30  1  0
  9  4  1  0
 30 12  1  0
 29 14  1  0
 27 21  1  0
  1 31  1  0
  5 32  1  0
  6 33  1  0
  8 34  1  0
  9 35  1  0
 13 36  1  0
 13 37  1  0
 15 38  1  0
 16 39  1  0
 18 40  1  0
 22 41  1  0
 23 42  1  0
 24 43  1  0
 27 44  1  0
 28 45  1  0
 30 46  1  0
 30 47  1  0
M  END
$$$$
