[H]Oc1c([H])c([H])c([C@@]2([H])Sc3c([H])c(O[H])c([H])c([H])c3O[C@@]2([H])c2c([H])c([H])c(OC([H])([H])C([H])([H])N3C([H])([H])C([H])([H])C([H])([H])C([H])([H])C3([H])[H])c([H])c2[H])c([H])c1[H]
     RDKit          3D

 62 66  0  0  0  0  0  0  0  0999 V2000
   -4.4525   -2.4925    4.7873 O   0  0  0  0  0  0  0  0  0  0  0  0
   -4.3958   -1.9217    3.5031 C   0  0  0  0  0  0  0  0  0  0  0  0
   -5.1515   -2.4313    2.4825 C   0  0  0  0  0  0  0  0  0  0  0  0
   -5.0805   -1.8582    1.2370 C   0  0  0  0  0  0  0  0  0  0  0  0
   -4.2782   -0.7764    0.9391 C   0  0  0  0  0  0  0  0  0  0  0  0
   -3.5213   -0.2683    1.9680 C   0  0  0  0  0  0  0  0  0  0  0  0
   -3.5822   -0.8396    3.2391 C   0  0  0  0  0  0  0  0  0  0  0  0
   -4.2897   -0.2335   -0.4156 C   0  0  1  0  0  0  0  0  0  0  0  0
   -4.3083    1.5818   -0.4607 S   0  0  0  0  0  0  0  0  0  0  0  0
   -3.9680    2.0084   -2.1421 C   0  0  0  0  0  0  0  0  0  0  0  0
   -4.3223    3.2163   -2.6379 C   0  0  0  0  0  0  0  0  0  0  0  0
   -4.0553    3.5606   -3.9698 C   0  0  0  0  0  0  0  0  0  0  0  0
   -4.3991    4.7776   -4.5146 O   0  0  0  0  0  0  0  0  0  0  0  0
   -3.4194    2.6405   -4.7751 C   0  0  0  0  0  0  0  0  0  0  0  0
   -3.0608    1.4119   -4.2649 C   0  0  0  0  0  0  0  0  0  0  0  0
   -3.3399    1.0937   -2.9297 C   0  0  0  0  0  0  0  0  0  0  0  0
   -2.9626   -0.1351   -2.4810 O   0  0  0  0  0  0  0  0  0  0  0  0
   -3.1970   -0.7663   -1.2823 C   0  0  1  0  0  0  0  0  0  0  0  0
   -1.8916   -0.9550   -0.5785 C   0  0  0  0  0  0  0  0  0  0  0  0
   -1.5907   -2.1449    0.0526 C   0  0  0  0  0  0  0  0  0  0  0  0
   -0.3954   -2.3397    0.6926 C   0  0  0  0  0  0  0  0  0  0  0  0
    0.5980   -1.3403    0.7457 C   0  0  0  0  0  0  0  0  0  0  0  0
    1.7406   -1.6150    1.3957 O   0  0  0  0  0  0  0  0  0  0  0  0
    2.9132   -0.9890    1.6667 C   0  0  0  0  0  0  0  0  0  0  0  0
    3.7048   -0.6608    0.4373 C   0  0  0  0  0  0  0  0  0  0  0  0
    4.9659    0.0172    0.7226 N   0  0  0  0  0  0  0  0  0  0  0  0
    5.9125   -0.8557    1.3689 C   0  0  0  0  0  0  0  0  0  0  0  0
    7.2178   -0.1233    1.6226 C   0  0  0  0  0  0  0  0  0  0  0  0
    7.1107    1.2626    1.0259 C   0  0  0  0  0  0  0  0  0  0  0  0
    6.8417    1.0763   -0.4571 C   0  0  0  0  0  0  0  0  0  0  0  0
    5.5083    0.3912   -0.5720 C   0  0  0  0  0  0  0  0  0  0  0  0
    0.2840   -0.1592    0.1127 C   0  0  0  0  0  0  0  0  0  0  0  0
   -0.9308    0.0275   -0.5333 C   0  0  0  0  0  0  0  0  0  0  0  0
   -5.1350   -2.1564    5.4825 H   0  0  0  0  0  0  0  0  0  0  0  0
   -5.7996   -3.2777    2.6487 H   0  0  0  0  0  0  0  0  0  0  0  0
   -5.6826   -2.2662    0.4258 H   0  0  0  0  0  0  0  0  0  0  0  0
   -2.8871    0.5705    1.8068 H   0  0  0  0  0  0  0  0  0  0  0  0
   -2.9933   -0.4475    4.0463 H   0  0  0  0  0  0  0  0  0  0  0  0
   -5.2541   -0.5495   -0.9392 H   0  0  0  0  0  0  0  0  0  0  0  0
   -4.8240    3.9930   -2.0709 H   0  0  0  0  0  0  0  0  0  0  0  0
   -5.2862    4.9642   -4.9690 H   0  0  0  0  0  0  0  0  0  0  0  0
   -3.1926    2.8759   -5.8259 H   0  0  0  0  0  0  0  0  0  0  0  0
   -2.5694    0.7127   -4.9045 H   0  0  0  0  0  0  0  0  0  0  0  0
   -3.5509   -1.8212   -1.5631 H   0  0  0  0  0  0  0  0  0  0  0  0
   -2.3464   -2.9364    0.0246 H   0  0  0  0  0  0  0  0  0  0  0  0
   -0.1506   -3.2817    1.1949 H   0  0  0  0  0  0  0  0  0  0  0  0
    2.8135   -0.0362    2.2585 H   0  0  0  0  0  0  0  0  0  0  0  0
    3.5824   -1.6608    2.2941 H   0  0  0  0  0  0  0  0  0  0  0  0
    4.0000   -1.5817   -0.1295 H   0  0  0  0  0  0  0  0  0  0  0  0
    3.0956   -0.0825   -0.2685 H   0  0  0  0  0  0  0  0  0  0  0  0
    5.5547   -1.3801    2.2523 H   0  0  0  0  0  0  0  0  0  0  0  0
    6.1719   -1.6563    0.6179 H   0  0  0  0  0  0  0  0  0  0  0  0
    8.1000   -0.6734    1.2478 H   0  0  0  0  0  0  0  0  0  0  0  0
    7.3296   -0.0777    2.7379 H   0  0  0  0  0  0  0  0  0  0  0  0
    6.2812    1.7825    1.5346 H   0  0  0  0  0  0  0  0  0  0  0  0
    8.0538    1.8267    1.1406 H   0  0  0  0  0  0  0  0  0  0  0  0
    6.7822    2.0517   -0.9841 H   0  0  0  0  0  0  0  0  0  0  0  0
    7.6001    0.4166   -0.8842 H   0  0  0  0  0  0  0  0  0  0  0  0
    4.7526    1.0706   -1.0291 H   0  0  0  0  0  0  0  0  0  0  0  0
    5.5290   -0.5180   -1.2166 H   0  0  0  0  0  0  0  0  0  0  0  0
    0.9798    0.6667    0.1175 H   0  0  0  0  0  0  0  0  0  0  0  0
   -1.1591    0.9803   -1.0313 H   0  0  0  0  0  0  0  0  0  0  0  0
  1  2  1  0
  2  3  2  0
  3  4  1  0
  4  5  2  0
  5  6  1  0
  6  7  2  0
  5  8  1  0
  8  9  1  0
  9 10  1  0
 10 11  2  0
 11 12  1  0
 12 13  1  0
 12 14  2  0
 14 15  1  0
 15 16  2  0
 16 17  1  0
 17 18  1  0
 18 19  1  0
 19 20  2  0
 20 21  1  0
 21 22  2  0
 22 23  1  0
 23 24  1  0
 24 25  1  0
 25 26  1  0
 26 27  1  0
 27 28  1  0
 28 29  1  0
 29 30  1  0
 30 31  1  0
 22 32  1  0
 32 33  2  0
  7  2  1  0
 18  8  1  0
 33 19  1  0
 16 10  1  0
 31 26  1  0
  1 34  1  0
  3 35  1  0
  4 36  1  0
  6 37  1  0
  7 38  1  0
  8 39  1  6
 11 40  1  0
 13 41  1  0
 14 42  1  0
 15 43  1  0
 18 44  1  6
 20 45  1  0
 21 46  1  0
 24 47  1  0
 24 48  1  0
 25 49  1  0
 25 50  1  0
 27 51  1  0
 27 52  1  0
 28 53  1  0
 28 54  1  0
 29 55  1  0
 29 56  1  0
 30 57  1  0
 30 58  1  0
 31 59  1  0
 31 60  1  0
 32 61  1  0
 33 62  1  0
M  END
$$$$
[H]Oc1c([H])c([H])c([C@@]2([H])Sc3c([H])c(O[H])c([H])c([H])c3O[C@@]2([H])c2c([H])c([H])c(OC([H])([H])C([H])([H])N3C([H])([H])C([H])([H])C([H])([H])C3([H])[H])c([H])c2[H])c([H])c1[H]
     RDKit          3D

 59 63  0  0  0  0  0  0  0  0999 V2000
   -4.6583    6.1765   -0.2409 O   0  0  0  0  0  0  0  0  0  0  0  0
   -4.4235    4.8036   -0.0910 C   0  0  0  0  0  0  0  0  0  0  0  0
   -5.3178    3.8575   -0.5205 C   0  0  0  0  0  0  0  0  0  0  0  0
   -5.0521    2.5134   -0.3554 C   0  0  0  0  0  0  0  0  0  0  0  0
   -3.8782    2.0744    0.2469 C   0  0  0  0  0  0  0  0  0  0  0  0
   -3.0094    3.0413    0.6636 C   0  0  0  0  0  0  0  0  0  0  0  0
   -3.2611    4.3932    0.5054 C   0  0  0  0  0  0  0  0  0  0  0  0
   -3.6647    0.6745    0.4154 C   0  0  1  0  0  0  0  0  0  0  0  0
   -3.6273   -0.3024   -1.1581 S   0  0  0  0  0  0  0  0  0  0  0  0
   -3.5026   -1.9494   -0.5368 C   0  0  0  0  0  0  0  0  0  0  0  0
   -3.7142   -3.0118   -1.3576 C   0  0  0  0  0  0  0  0  0  0  0  0
   -3.6299   -4.3227   -0.9191 C   0  0  0  0  0  0  0  0  0  0  0  0
   -3.8447   -5.4091   -1.7525 O   0  0  0  0  0  0  0  0  0  0  0  0
   -3.3195   -4.5497    0.4008 C   0  0  0  0  0  0  0  0  0  0  0  0
   -3.0998   -3.4879    1.2561 C   0  0  0  0  0  0  0  0  0  0  0  0
   -3.1948   -2.1765    0.7726 C   0  0  0  0  0  0  0  0  0  0  0  0
   -2.9599   -1.1681    1.6937 O   0  0  0  0  0  0  0  0  0  0  0  0
   -2.5783    0.1532    1.2337 C   0  0  1  0  0  0  0  0  0  0  0  0
   -1.2442   -0.0017    0.7031 C   0  0  0  0  0  0  0  0  0  0  0  0
   -0.3705   -0.7703    1.4939 C   0  0  0  0  0  0  0  0  0  0  0  0
    0.9291   -1.0092    1.1235 C   0  0  0  0  0  0  0  0  0  0  0  0
    1.4335   -0.4984   -0.0511 C   0  0  0  0  0  0  0  0  0  0  0  0
    2.7489   -0.7365   -0.4329 O   0  0  0  0  0  0  0  0  0  0  0  0
    3.5637   -1.5090    0.3862 C   0  0  0  0  0  0  0  0  0  0  0  0
    4.9565   -1.7144   -0.0916 C   0  0  0  0  0  0  0  0  0  0  0  0
    5.7680   -0.5816   -0.2684 N   0  0  0  0  0  0  0  0  0  0  0  0
    6.1693    0.1401    0.8918 C   0  0  0  0  0  0  0  0  0  0  0  0
    7.1410    1.1563    0.2714 C   0  0  0  0  0  0  0  0  0  0  0  0
    6.3813    1.5310   -0.9972 C   0  0  0  0  0  0  0  0  0  0  0  0
    5.4830    0.3267   -1.3122 C   0  0  0  0  0  0  0  0  0  0  0  0
    0.5919    0.2568   -0.8378 C   0  0  0  0  0  0  0  0  0  0  0  0
   -0.7323    0.4995   -0.4599 C   0  0  0  0  0  0  0  0  0  0  0  0
   -5.5240    6.4932   -0.6860 H   0  0  0  0  0  0  0  0  0  0  0  0
   -6.2578    4.1591   -1.0020 H   0  0  0  0  0  0  0  0  0  0  0  0
   -5.7841    1.7921   -0.7081 H   0  0  0  0  0  0  0  0  0  0  0  0
   -2.0817    2.7854    1.1457 H   0  0  0  0  0  0  0  0  0  0  0  0
   -2.5348    5.1396    0.8551 H   0  0  0  0  0  0  0  0  0  0  0  0
   -4.6468    0.2678    0.8686 H   0  0  0  0  0  0  0  0  0  0  0  0
   -3.9587   -2.8442   -2.3972 H   0  0  0  0  0  0  0  0  0  0  0  0
   -4.8107   -5.7654   -1.8224 H   0  0  0  0  0  0  0  0  0  0  0  0
   -3.2487   -5.5900    0.7613 H   0  0  0  0  0  0  0  0  0  0  0  0
   -2.8568   -3.6845    2.2911 H   0  0  0  0  0  0  0  0  0  0  0  0
   -2.5227    0.7409    2.1858 H   0  0  0  0  0  0  0  0  0  0  0  0
   -0.6881   -1.2100    2.4349 H   0  0  0  0  0  0  0  0  0  0  0  0
    1.5984   -1.6105    1.7480 H   0  0  0  0  0  0  0  0  0  0  0  0
    3.5569   -1.1580    1.4401 H   0  0  0  0  0  0  0  0  0  0  0  0
    3.0904   -2.5351    0.4285 H   0  0  0  0  0  0  0  0  0  0  0  0
    4.9625   -2.3333   -1.0123 H   0  0  0  0  0  0  0  0  0  0  0  0
    5.4587   -2.3618    0.6911 H   0  0  0  0  0  0  0  0  0  0  0  0
    6.7656   -0.4788    1.5810 H   0  0  0  0  0  0  0  0  0  0  0  0
    5.3802    0.7330    1.3750 H   0  0  0  0  0  0  0  0  0  0  0  0
    8.0585    0.6133   -0.0568 H   0  0  0  0  0  0  0  0  0  0  0  0
    7.3364    2.0072    0.9240 H   0  0  0  0  0  0  0  0  0  0  0  0
    5.7595    2.4124   -0.7743 H   0  0  0  0  0  0  0  0  0  0  0  0
    7.0739    1.6982   -1.8425 H   0  0  0  0  0  0  0  0  0  0  0  0
    4.4561    0.6641   -1.4382 H   0  0  0  0  0  0  0  0  0  0  0  0
    5.7929   -0.1031   -2.3022 H   0  0  0  0  0  0  0  0  0  0  0  0
    0.9186    0.6813   -1.7595 H   0  0  0  0  0  0  0  0  0  0  0  0
   -1.3768    1.0875   -1.0757 H   0  0  0  0  0  0  0  0  0  0  0  0
  1  2  1  0
  2  3  2  0
  3  4  1  0
  4  5  2  0
  5  6  1  0
  6  7  2  0
  5  8  1  0
  8  9  1  0
  9 10  1  0
 10 11  2  0
 11 12  1  0
 12 13  1  0
 12 14  2  0
 14 15  1  0
 15 16  2  0
 16 17  1  0
 17 18  1  0
 18 19  1  0
 19 20  2  0
 20 21  1  0
 21 22  2  0
 22 23  1  0
 23 24  1  0
 24 25  1  0
 25 26  1  0
 26 27  1  0
 27 28  1  0
 28 29  1  0
 29 30  1  0
 22 31  1  0
 31 32  2  0
  7  2  1  0
 18  8  1  0
 32 19  1  0
 16 10  1  0
 30 26  1  0
  1 33  1  0
  3 34  1  0
  4 35  1  0
  6 36  1  0
  7 37  1  0
  8 38  1  1
 11 39  1  0
 13 40  1  0
 14 41  1  0
 15 42  1  0
 18 43  1  1
 20 44  1  0
 21 45  1  0
 24 46  1  0
 24 47  1  0
 25 48  1  0
 25 49  1  0
 27 50  1  0
 27 51  1  0
 28 52  1  0
 28 53  1  0
 29 54  1  0
 29 55  1  0
 30 56  1  0
 30 57  1  0
 31 58  1  0
 32 59  1  0
M  END
$$$$
[H]O[C@@]1([H])C([H])([H])C([H])([H])C2([H])C3([H])C([H])([H])C([H])([H])C4=C([H])C(=O)C([H])([H])C([H])([H])[C@]4(C([H])=C([H])[H])C3([H])C([H])([H])C([H])([H])[C@@]21C([H])([H])[H]
     RDKit          3D

 50 53  0  0  0  0  0  0  0  0999 V2000
    2.5071    1.3047    0.9431 C   0  0  0  0  0  0  0  0  0  0  0  0
    2.3258    0.5520   -0.3053 C   0  0  2  0  0  0  0  0  0  0  0  0
    1.4554    1.2064   -1.3349 C   0  0  0  0  0  0  0  0  0  0  0  0
    0.0459    1.3139   -0.8571 C   0  0  0  0  0  0  0  0  0  0  0  0
   -0.3501    0.4127    0.2447 C   0  0  0  0  0  0  0  0  0  0  0  0
    0.3716   -0.9074    0.2879 C   0  0  0  0  0  0  0  0  0  0  0  0
   -0.3369   -2.0149   -0.4602 C   0  0  0  0  0  0  0  0  0  0  0  0
   -1.3719   -1.5496   -1.4274 C   0  0  0  0  0  0  0  0  0  0  0  0
   -2.3068   -0.5412   -0.8726 C   0  0  0  0  0  0  0  0  0  0  0  0
   -3.5096   -0.3709   -1.4092 C   0  0  0  0  0  0  0  0  0  0  0  0
   -4.4117    0.6278   -0.8459 C   0  0  0  0  0  0  0  0  0  0  0  0
   -5.6168    0.7191   -1.2072 O   0  0  0  0  0  0  0  0  0  0  0  0
   -3.9598    1.6072    0.1978 C   0  0  0  0  0  0  0  0  0  0  0  0
   -2.4450    1.6602    0.2497 C   0  0  0  0  0  0  0  0  0  0  0  0
   -1.8601    0.2528    0.2732 C   0  0  2  0  0  0  0  0  0  0  0  0
   -2.2473   -0.3102    1.5948 C   0  0  0  0  0  0  0  0  0  0  0  0
   -3.0485   -1.3473    1.7375 C   0  0  0  0  0  0  0  0  0  0  0  0
    1.7784   -0.8480   -0.1395 C   0  0  0  0  0  0  0  0  0  0  0  0
    2.8066   -1.4594    0.7287 C   0  0  0  0  0  0  0  0  0  0  0  0
    4.1001   -0.9246    0.1204 C   0  0  0  0  0  0  0  0  0  0  0  0
    3.6966    0.1861   -0.8359 C   0  0  2  0  0  0  0  0  0  0  0  0
    4.5987    1.2471   -0.6124 O   0  0  0  0  0  0  0  0  0  0  0  0
    3.5635    1.6034    1.0981 H   0  0  0  0  0  0  0  0  0  0  0  0
    2.1840    0.8059    1.8710 H   0  0  0  0  0  0  0  0  0  0  0  0
    1.9372    2.2576    0.8744 H   0  0  0  0  0  0  0  0  0  0  0  0
    1.4687    0.5595   -2.2391 H   0  0  0  0  0  0  0  0  0  0  0  0
    1.8685    2.1898   -1.6499 H   0  0  0  0  0  0  0  0  0  0  0  0
   -0.6521    1.1909   -1.7106 H   0  0  0  0  0  0  0  0  0  0  0  0
   -0.0918    2.3882   -0.5310 H   0  0  0  0  0  0  0  0  0  0  0  0
   -0.1319    0.9609    1.2119 H   0  0  0  0  0  0  0  0  0  0  0  0
    0.3624   -1.2263    1.3735 H   0  0  0  0  0  0  0  0  0  0  0  0
    0.4170   -2.5877   -1.0855 H   0  0  0  0  0  0  0  0  0  0  0  0
   -0.7318   -2.8133    0.2188 H   0  0  0  0  0  0  0  0  0  0  0  0
   -1.9947   -2.4343   -1.6941 H   0  0  0  0  0  0  0  0  0  0  0  0
   -0.8669   -1.1199   -2.3166 H   0  0  0  0  0  0  0  0  0  0  0  0
   -3.8176   -0.9758   -2.2656 H   0  0  0  0  0  0  0  0  0  0  0  0
   -4.3362    2.6023   -0.1179 H   0  0  0  0  0  0  0  0  0  0  0  0
   -4.4085    1.3928    1.1835 H   0  0  0  0  0  0  0  0  0  0  0  0
   -2.1670    2.1311    1.2145 H   0  0  0  0  0  0  0  0  0  0  0  0
   -2.1198    2.2470   -0.6101 H   0  0  0  0  0  0  0  0  0  0  0  0
   -1.8163    0.2009    2.4629 H   0  0  0  0  0  0  0  0  0  0  0  0
   -3.4525   -1.8239    0.8634 H   0  0  0  0  0  0  0  0  0  0  0  0
   -3.3089   -1.7298    2.7073 H   0  0  0  0  0  0  0  0  0  0  0  0
    1.8733   -1.3222   -1.1615 H   0  0  0  0  0  0  0  0  0  0  0  0
    2.6799   -1.1672    1.7771 H   0  0  0  0  0  0  0  0  0  0  0  0
    2.7740   -2.5692    0.6647 H   0  0  0  0  0  0  0  0  0  0  0  0
    4.5680   -1.7688   -0.4412 H   0  0  0  0  0  0  0  0  0  0  0  0
    4.8113   -0.5827    0.8902 H   0  0  0  0  0  0  0  0  0  0  0  0
    3.6833   -0.1305   -1.8824 H   0  0  0  0  0  0  0  0  0  0  0  0
    5.4831    0.9049   -0.9123 H   0  0  0  0  0  0  0  0  0  0  0  0
  2  1  1  1
  2  3  1  0
  3  4  1  0
  4  5  1  0
  5  6  1  0
  6  7  1  0
  7  8  1  0
  8  9  1  0
  9 10  2  0
 10 11  1  0
 11 12  2  0
 11 13  1  0
 13 14  1  0
 14 15  1  0
 15 16  1  1
 16 17  2  3
  6 18  1  0
 18 19  1  0
 19 20  1  0
 20 21  1  0
 21 22  1  0
 18  2  1  0
 21  2  1  0
 15  5  1  0
 15  9  1  0
  1 23  1  0
  1 24  1  0
  1 25  1  0
  3 26  1  0
  3 27  1  0
  4 28  1  0
  4 29  1  0
  5 30  1  0
  6 31  1  0
  7 32  1  0
  7 33  1  0
  8 34  1  0
  8 35  1  0
 10 36  1  0
 13 37  1  0
 13 38  1  0
 14 39  1  0
 14 40  1  0
 16 41  1  0
 17 42  1  0
 17 43  1  0
 18 44  1  0
 19 45  1  0
 19 46  1  0
 20 47  1  0
 20 48  1  0
 21 49  1  6
 22 50  1  0
M  END
$$$$
[H]Oc1c([H])c([H])c([C@]2([H])Sc3c([H])c(O[H])c([H])c([H])c3O[C@@]2([H])c2c([H])c([H])c(OC([H])([H])C([H])([H])N3C([H])([H])C([H])([H])C([H])([H])C([H])([H])C3([H])[H])c([H])c2[H])c([H])c1[H]
     RDKit          3D

 62 66  0  0  0  0  0  0  0  0999 V2000
   -4.8072   -1.6446    5.2826 O   0  0  0  0  0  0  0  0  0  0  0  0
   -4.5309   -1.1155    4.0073 C   0  0  0  0  0  0  0  0  0  0  0  0
   -5.0782   -1.6521    2.8640 C   0  0  0  0  0  0  0  0  0  0  0  0
   -4.8087   -1.1352    1.6143 C   0  0  0  0  0  0  0  0  0  0  0  0
   -3.9720   -0.0509    1.4670 C   0  0  0  0  0  0  0  0  0  0  0  0
   -3.4139    0.4984    2.6155 C   0  0  0  0  0  0  0  0  0  0  0  0
   -3.6944   -0.0305    3.8516 C   0  0  0  0  0  0  0  0  0  0  0  0
   -3.6670    0.5234    0.1518 C   0  0  2  0  0  0  0  0  0  0  0  0
   -5.1715    1.0848   -0.7061 S   0  0  0  0  0  0  0  0  0  0  0  0
   -4.7962    1.1071   -2.4239 C   0  0  0  0  0  0  0  0  0  0  0  0
   -5.6375    1.6971   -3.3075 C   0  0  0  0  0  0  0  0  0  0  0  0
   -5.3572    1.7282   -4.6786 C   0  0  0  0  0  0  0  0  0  0  0  0
   -6.1917    2.3210   -5.6052 O   0  0  0  0  0  0  0  0  0  0  0  0
   -4.1971    1.1426   -5.1302 C   0  0  0  0  0  0  0  0  0  0  0  0
   -3.3318    0.5403   -4.2533 C   0  0  0  0  0  0  0  0  0  0  0  0
   -3.6490    0.5315   -2.8952 C   0  0  0  0  0  0  0  0  0  0  0  0
   -2.7850   -0.0674   -2.0422 O   0  0  0  0  0  0  0  0  0  0  0  0
   -3.0079   -0.4874   -0.7232 C   0  0  1  0  0  0  0  0  0  0  0  0
   -1.6460   -0.7969   -0.1649 C   0  0  0  0  0  0  0  0  0  0  0  0
   -1.3949   -1.9510    0.5381 C   0  0  0  0  0  0  0  0  0  0  0  0
   -0.1523   -2.2388    1.0434 C   0  0  0  0  0  0  0  0  0  0  0  0
    0.9443   -1.3648    0.8708 C   0  0  0  0  0  0  0  0  0  0  0  0
    2.1584   -1.7169    1.4054 O   0  0  0  0  0  0  0  0  0  0  0  0
    3.3535   -1.0643    1.3415 C   0  0  0  0  0  0  0  0  0  0  0  0
    3.9840   -0.9242   -0.0283 C   0  0  0  0  0  0  0  0  0  0  0  0
    5.2086   -0.2136    0.1092 N   0  0  0  0  0  0  0  0  0  0  0  0
    6.2780   -0.8616    0.7715 C   0  0  0  0  0  0  0  0  0  0  0  0
    7.0007    0.1919    1.6118 C   0  0  0  0  0  0  0  0  0  0  0  0
    7.2248    1.4179    0.7597 C   0  0  0  0  0  0  0  0  0  0  0  0
    6.9853    1.1533   -0.7161 C   0  0  0  0  0  0  0  0  0  0  0  0
    5.5575    0.6941   -0.9207 C   0  0  0  0  0  0  0  0  0  0  0  0
    0.6790   -0.2162    0.1685 C   0  0  0  0  0  0  0  0  0  0  0  0
   -0.5894    0.0603   -0.3383 C   0  0  0  0  0  0  0  0  0  0  0  0
   -5.6061   -1.2930    5.8303 H   0  0  0  0  0  0  0  0  0  0  0  0
   -5.7459   -2.5096    2.9247 H   0  0  0  0  0  0  0  0  0  0  0  0
   -5.2360   -1.5529    0.7141 H   0  0  0  0  0  0  0  0  0  0  0  0
   -2.7530    1.3491    2.5482 H   0  0  0  0  0  0  0  0  0  0  0  0
   -3.2660    0.3896    4.7548 H   0  0  0  0  0  0  0  0  0  0  0  0
   -3.0051    1.4236    0.2750 H   0  0  0  0  0  0  0  0  0  0  0  0
   -6.5490    2.1615   -2.9811 H   0  0  0  0  0  0  0  0  0  0  0  0
   -6.0107    3.3163   -5.7922 H   0  0  0  0  0  0  0  0  0  0  0  0
   -3.9458    1.1493   -6.2015 H   0  0  0  0  0  0  0  0  0  0  0  0
   -2.4140    0.0762   -4.5958 H   0  0  0  0  0  0  0  0  0  0  0  0
   -3.6123   -1.4125   -0.7508 H   0  0  0  0  0  0  0  0  0  0  0  0
   -2.2314   -2.6471    0.6828 H   0  0  0  0  0  0  0  0  0  0  0  0
    0.0312   -3.1380    1.5883 H   0  0  0  0  0  0  0  0  0  0  0  0
    3.3273   -0.0280    1.8124 H   0  0  0  0  0  0  0  0  0  0  0  0
    4.0712   -1.6051    2.0348 H   0  0  0  0  0  0  0  0  0  0  0  0
    4.1615   -1.9554   -0.4629 H   0  0  0  0  0  0  0  0  0  0  0  0
    3.3437   -0.4065   -0.7281 H   0  0  0  0  0  0  0  0  0  0  0  0
    5.9639   -1.7167    1.3696 H   0  0  0  0  0  0  0  0  0  0  0  0
    7.0408   -1.2010    0.0053 H   0  0  0  0  0  0  0  0  0  0  0  0
    7.9603   -0.2235    1.9934 H   0  0  0  0  0  0  0  0  0  0  0  0
    6.3052    0.4311    2.4410 H   0  0  0  0  0  0  0  0  0  0  0  0
    6.4699    2.1759    1.0589 H   0  0  0  0  0  0  0  0  0  0  0  0
    8.2174    1.8772    0.9345 H   0  0  0  0  0  0  0  0  0  0  0  0
    7.1715    2.1243   -1.2308 H   0  0  0  0  0  0  0  0  0  0  0  0
    7.7264    0.4023   -1.0393 H   0  0  0  0  0  0  0  0  0  0  0  0
    4.8735    1.5689   -0.9154 H   0  0  0  0  0  0  0  0  0  0  0  0
    5.5019    0.2721   -1.9511 H   0  0  0  0  0  0  0  0  0  0  0  0
    1.4631    0.5113    0.0198 H   0  0  0  0  0  0  0  0  0  0  0  0
   -0.7478    0.9683   -0.8795 H   0  0  0  0  0  0  0  0  0  0  0  0
  1  2  1  0
  2  3  2  0
  3  4  1  0
  4  5  2  0
  5  6  1  0
  6  7  2  0
  5  8  1  0
  8  9  1  0
  9 10  1  0
 10 11  2  0
 11 12  1  0
 12 13  1  0
 12 14  2  0
 14 15  1  0
 15 16  2  0
 16 17  1  0
 17 18  1  0
 18 19  1  0
 19 20  2  0
 20 21  1  0
 21 22  2  0
 22 23  1  0
 23 24  1  0
 24 25  1  0
 25 26  1  0
 26 27  1  0
 27 28  1  0
 28 29  1  0
 29 30  1  0
 30 31  1  0
 22 32  1  0
 32 33  2  0
  7  2  1  0
 18  8  1  0
 33 19  1  0
 16 10  1  0
 31 26  1  0
  1 34  1  0
  3 35  1  0
  4 36  1  0
  6 37  1  0
  7 38  1  0
  8 39  1  1
 11 40  1  0
 13 41  1  0
 14 42  1  0
 15 43  1  0
 18 44  1  6
 20 45  1  0
 21 46  1  0
 24 47  1  0
 24 48  1  0
 25 49  1  0
 25 50  1  0
 27 51  1  0
 27 52  1  0
 28 53  1  0
 28 54  1  0
 29 55  1  0
 29 56  1  0
 30 57  1  0
 30 58  1  0
 31 59  1  0
 31 60  1  0
 32 61  1  0
 33 62  1  0
M  END
$$$$
[H]Oc1c([H])c([H])c([C@]2([H])Oc3c([H])c([H])c(O[H])c([H])c3[C@]3([H])C([H])([H])C([H])([H])C([H])([H])[C@]23[H])c([H])c1[H]
     RDKit          3D

 39 42  0  0  0  0  0  0  0  0999 V2000
    5.1902   -0.9801   -1.4683 O   0  0  0  0  0  0  0  0  0  0  0  0
    4.0488   -0.5657   -0.7958 C   0  0  0  0  0  0  0  0  0  0  0  0
    4.1110    0.5824   -0.0483 C   0  0  0  0  0  0  0  0  0  0  0  0
    2.9988    1.0073    0.6211 C   0  0  0  0  0  0  0  0  0  0  0  0
    1.7887    0.3408    0.5935 C   0  0  0  0  0  0  0  0  0  0  0  0
    1.7144   -0.8129   -0.1536 C   0  0  0  0  0  0  0  0  0  0  0  0
    2.8504   -1.2544   -0.8423 C   0  0  0  0  0  0  0  0  0  0  0  0
    0.5833    0.8050    1.3247 C   0  0  2  0  0  0  0  0  0  0  0  0
   -0.0625   -0.2535    1.9781 O   0  0  0  0  0  0  0  0  0  0  0  0
   -1.1896   -0.9001    1.5417 C   0  0  0  0  0  0  0  0  0  0  0  0
   -1.5315   -2.1523    2.0529 C   0  0  0  0  0  0  0  0  0  0  0  0
   -2.6715   -2.7769    1.5936 C   0  0  0  0  0  0  0  0  0  0  0  0
   -3.4403   -2.1377    0.6376 C   0  0  0  0  0  0  0  0  0  0  0  0
   -4.5835   -2.8139    0.2074 O   0  0  0  0  0  0  0  0  0  0  0  0
   -3.1027   -0.8989    0.1314 C   0  0  0  0  0  0  0  0  0  0  0  0
   -1.9677   -0.2845    0.5932 C   0  0  0  0  0  0  0  0  0  0  0  0
   -1.6079    1.0172    0.0649 C   0  0  2  0  0  0  0  0  0  0  0  0
   -1.4842    1.0097   -1.4660 C   0  0  0  0  0  0  0  0  0  0  0  0
   -0.8281    2.3789   -1.6728 C   0  0  0  0  0  0  0  0  0  0  0  0
    0.3252    2.2654   -0.6891 C   0  0  0  0  0  0  0  0  0  0  0  0
   -0.3478    1.6344    0.5283 C   0  0  2  0  0  0  0  0  0  0  0  0
    5.1943   -1.8298   -2.0389 H   0  0  0  0  0  0  0  0  0  0  0  0
    5.0090    1.1739    0.0370 H   0  0  0  0  0  0  0  0  0  0  0  0
    3.0245    1.9163    1.2211 H   0  0  0  0  0  0  0  0  0  0  0  0
    0.8321   -1.4276   -0.2595 H   0  0  0  0  0  0  0  0  0  0  0  0
    2.8151   -2.1587   -1.4358 H   0  0  0  0  0  0  0  0  0  0  0  0
    0.9942    1.4411    2.1697 H   0  0  0  0  0  0  0  0  0  0  0  0
   -0.8896   -2.6139    2.8072 H   0  0  0  0  0  0  0  0  0  0  0  0
   -2.9536   -3.7451    1.9758 H   0  0  0  0  0  0  0  0  0  0  0  0
   -4.5441   -3.4544   -0.5888 H   0  0  0  0  0  0  0  0  0  0  0  0
   -3.7436   -0.4352   -0.6235 H   0  0  0  0  0  0  0  0  0  0  0  0
   -2.5058    1.6868    0.2410 H   0  0  0  0  0  0  0  0  0  0  0  0
   -0.7611    0.2533   -1.7767 H   0  0  0  0  0  0  0  0  0  0  0  0
   -2.4616    0.9512   -1.9491 H   0  0  0  0  0  0  0  0  0  0  0  0
   -0.4665    2.4974   -2.7024 H   0  0  0  0  0  0  0  0  0  0  0  0
   -1.5161    3.1909   -1.3545 H   0  0  0  0  0  0  0  0  0  0  0  0
    1.0547    1.5752   -1.1608 H   0  0  0  0  0  0  0  0  0  0  0  0
    0.7708    3.2353   -0.4466 H   0  0  0  0  0  0  0  0  0  0  0  0
   -0.6462    2.5333    1.1524 H   0  0  0  0  0  0  0  0  0  0  0  0
  1  2  1  0
  2  3  2  0
  3  4  1  0
  4  5  2  0
  5  6  1  0
  6  7  2  0
  5  8  1  0
  8  9  1  0
  9 10  1  0
 10 11  2  0
 11 12  1  0
 12 13  2  0
 13 14  1  0
 13 15  1  0
 15 16  2  0
 16 17  1  0
 17 18  1  0
 18 19  1  0
 19 20  1  0
 20 21  1  0
  7  2  1  0
 21  8  1  0
 16 10  1  0
 21 17  1  0
  1 22  1  0
  3 23  1  0
  4 24  1  0
  6 25  1  0
  7 26  1  0
  8 27  1  1
 11 28  1  0
 12 29  1  0
 14 30  1  0
 15 31  1  0
 17 32  1  6
 18 33  1  0
 18 34  1  0
 19 35  1  0
 19 36  1  0
 20 37  1  0
 20 38  1  0
 21 39  1  1
M  END
$$$$
[H]Oc1c([H])c([H])c([C@@]2([H])Sc3c([H])c(O[H])c([H])c([H])c3O[C@@]2([H])c2c([H])c([H])c(OC([H])([H])C([H])([H])N3C([H])([H])C([H])([H])C([H])([H])C([H])([H])C([H])([H])C3([H])[H])c([H])c2[H])c([H])c1[H]
     RDKit          3D

 65 69  0  0  0  0  0  0  0  0999 V2000
   -2.5297    4.6558   -1.0905 O   0  0  0  0  0  0  0  0  0  0  0  0
   -2.8963    3.4022   -0.5740 C   0  0  0  0  0  0  0  0  0  0  0  0
   -3.2687    2.4350   -1.4682 C   0  0  0  0  0  0  0  0  0  0  0  0
   -3.6347    1.1884   -0.9730 C   0  0  0  0  0  0  0  0  0  0  0  0
   -3.6483    0.8607    0.3485 C   0  0  0  0  0  0  0  0  0  0  0  0
   -3.2597    1.8817    1.2217 C   0  0  0  0  0  0  0  0  0  0  0  0
   -2.8939    3.1210    0.7596 C   0  0  0  0  0  0  0  0  0  0  0  0
   -4.0285   -0.4356    0.8870 C   0  0  1  0  0  0  0  0  0  0  0  0
   -5.7307   -0.8020    0.3905 S   0  0  0  0  0  0  0  0  0  0  0  0
   -5.6973   -2.0720   -0.8549 C   0  0  0  0  0  0  0  0  0  0  0  0
   -6.8793   -2.6011   -1.3827 C   0  0  0  0  0  0  0  0  0  0  0  0
   -6.9009   -3.5788   -2.3510 C   0  0  0  0  0  0  0  0  0  0  0  0
   -8.1270   -4.0533   -2.8253 O   0  0  0  0  0  0  0  0  0  0  0  0
   -5.6904   -4.0495   -2.8130 C   0  0  0  0  0  0  0  0  0  0  0  0
   -4.5233   -3.5303   -2.2948 C   0  0  0  0  0  0  0  0  0  0  0  0
   -4.4780   -2.5514   -1.3251 C   0  0  0  0  0  0  0  0  0  0  0  0
   -3.2909   -2.0272   -0.8021 O   0  0  0  0  0  0  0  0  0  0  0  0
   -3.2054   -1.6131    0.5260 C   0  0  1  0  0  0  0  0  0  0  0  0
   -1.7988   -1.5378    0.9786 C   0  0  0  0  0  0  0  0  0  0  0  0
   -1.3816   -1.9530    2.1963 C   0  0  0  0  0  0  0  0  0  0  0  0
   -0.0608   -1.8679    2.5723 C   0  0  0  0  0  0  0  0  0  0  0  0
    0.9310   -1.3461    1.7165 C   0  0  0  0  0  0  0  0  0  0  0  0
    2.2209   -1.3016    2.1741 O   0  0  0  0  0  0  0  0  0  0  0  0
    3.3519   -0.8287    1.5750 C   0  0  0  0  0  0  0  0  0  0  0  0
    3.3213    0.6501    1.3126 C   0  0  0  0  0  0  0  0  0  0  0  0
    4.5713    1.0164    0.6651 N   0  0  0  0  0  0  0  0  0  0  0  0
    4.5975    2.4392    0.3886 C   0  0  0  0  0  0  0  0  0  0  0  0
    5.9700    3.0110    0.4536 C   0  0  0  0  0  0  0  0  0  0  0  0
    7.0691    2.0010    0.2412 C   0  0  0  0  0  0  0  0  0  0  0  0
    7.0467    1.3513   -1.1014 C   0  0  0  0  0  0  0  0  0  0  0  0
    5.6705    0.9044   -1.5438 C   0  0  0  0  0  0  0  0  0  0  0  0
    4.8898    0.2158   -0.4724 C   0  0  0  0  0  0  0  0  0  0  0  0
    0.4942   -0.9291    0.4822 C   0  0  0  0  0  0  0  0  0  0  0  0
   -0.8602   -1.0238    0.1162 C   0  0  0  0  0  0  0  0  0  0  0  0
   -1.5422    4.7488   -1.3070 H   0  0  0  0  0  0  0  0  0  0  0  0
   -3.2791    2.6345   -2.5441 H   0  0  0  0  0  0  0  0  0  0  0  0
   -3.9157    0.4729   -1.7018 H   0  0  0  0  0  0  0  0  0  0  0  0
   -3.2400    1.7136    2.2855 H   0  0  0  0  0  0  0  0  0  0  0  0
   -2.5875    3.9310    1.4388 H   0  0  0  0  0  0  0  0  0  0  0  0
   -4.0376   -0.3881    2.0254 H   0  0  0  0  0  0  0  0  0  0  0  0
   -7.8307   -2.2257   -1.0139 H   0  0  0  0  0  0  0  0  0  0  0  0
   -8.6091   -4.8379   -2.4069 H   0  0  0  0  0  0  0  0  0  0  0  0
   -5.7092   -4.8170   -3.5741 H   0  0  0  0  0  0  0  0  0  0  0  0
   -3.5624   -3.9047   -2.6632 H   0  0  0  0  0  0  0  0  0  0  0  0
   -3.6330   -2.4619    1.1578 H   0  0  0  0  0  0  0  0  0  0  0  0
   -2.1296   -2.3640    2.8855 H   0  0  0  0  0  0  0  0  0  0  0  0
    0.2550   -2.2043    3.5507 H   0  0  0  0  0  0  0  0  0  0  0  0
    3.6184   -1.3684    0.6244 H   0  0  0  0  0  0  0  0  0  0  0  0
    4.2239   -1.0905    2.2553 H   0  0  0  0  0  0  0  0  0  0  0  0
    3.3528    1.1876    2.3218 H   0  0  0  0  0  0  0  0  0  0  0  0
    2.4378    1.0414    0.8235 H   0  0  0  0  0  0  0  0  0  0  0  0
    3.9842    2.9166    1.2039 H   0  0  0  0  0  0  0  0  0  0  0  0
    4.0416    2.6756   -0.5447 H   0  0  0  0  0  0  0  0  0  0  0  0
    6.0394    3.7868   -0.3624 H   0  0  0  0  0  0  0  0  0  0  0  0
    6.1208    3.5418    1.3949 H   0  0  0  0  0  0  0  0  0  0  0  0
    7.0676    1.2304    1.0115 H   0  0  0  0  0  0  0  0  0  0  0  0
    8.0416    2.5543    0.3169 H   0  0  0  0  0  0  0  0  0  0  0  0
    7.6602    0.4077   -1.0026 H   0  0  0  0  0  0  0  0  0  0  0  0
    7.5289    1.9297   -1.8989 H   0  0  0  0  0  0  0  0  0  0  0  0
    5.1372    1.7462   -1.9890 H   0  0  0  0  0  0  0  0  0  0  0  0
    5.7961    0.1523   -2.3720 H   0  0  0  0  0  0  0  0  0  0  0  0
    5.4110   -0.7084   -0.1501 H   0  0  0  0  0  0  0  0  0  0  0  0
    3.9294   -0.1085   -0.9381 H   0  0  0  0  0  0  0  0  0  0  0  0
    1.2152   -0.5409   -0.2208 H   0  0  0  0  0  0  0  0  0  0  0  0
   -1.1347   -0.6826   -0.8639 H   0  0  0  0  0  0  0  0  0  0  0  0
  1  2  1  0
  2  3  2  0
  3  4  1  0
  4  5  2  0
  5  6  1  0
  6  7  2  0
  5  8  1  0
  8  9  1  0
  9 10  1  0
 10 11  2  0
 11 12  1  0
 12 13  1  0
 12 14  2  0
 14 15  1  0
 15 16  2  0
 16 17  1  0
 17 18  1  0
 18 19  1  0
 19 20  2  0
 20 21  1  0
 21 22  2  0
 22 23  1  0
 23 24  1  0
 24 25  1  0
 25 26  1  0
 26 27  1  0
 27 28  1  0
 28 29  1  0
 29 30  1  0
 30 31  1  0
 31 32  1  0
 22 33  1  0
 33 34  2  0
  7  2  1  0
 18  8  1  0
 34 19  1  0
 16 10  1  0
 32 26  1  0
  1 35  1  0
  3 36  1  0
  4 37  1  0
  6 38  1  0
  7 39  1  0
  8 40  1  1
 11 41  1  0
 13 42  1  0
 14 43  1  0
 15 44  1  0
 18 45  1  1
 20 46  1  0
 21 47  1  0
 24 48  1  0
 24 49  1  0
 25 50  1  0
 25 51  1  0
 27 52  1  0
 27 53  1  0
 28 54  1  0
 28 55  1  0
 29 56  1  0
 29 57  1  0
 30 58  1  0
 30 59  1  0
 31 60  1  0
 31 61  1  0
 32 62  1  0
 32 63  1  0
 33 64  1  0
 34 65  1  0
M  END
$$$$
[H]Oc1c([H])c([H])c([C@@]2([H])Sc3c([H])c(O[H])c([H])c([H])c3O[C@]2([H])c2c([H])c([H])c(OC([H])([H])C([H])([H])N3C([H])([H])C([H])([H])C([H])([H])C([H])([H])C3([H])[H])c([H])c2[H])c([H])c1[H]
     RDKit          3D

 62 66  0  0  0  0  0  0  0  0999 V2000
   -3.9070   -5.7607    1.0608 O   0  0  0  0  0  0  0  0  0  0  0  0
   -3.9396   -4.3775    0.7816 C   0  0  0  0  0  0  0  0  0  0  0  0
   -4.4942   -3.4866    1.6579 C   0  0  0  0  0  0  0  0  0  0  0  0
   -4.5146   -2.1397    1.3641 C   0  0  0  0  0  0  0  0  0  0  0  0
   -3.9866   -1.6452    0.1970 C   0  0  0  0  0  0  0  0  0  0  0  0
   -3.4301   -2.5415   -0.6826 C   0  0  0  0  0  0  0  0  0  0  0  0
   -3.4051   -3.9126   -0.3921 C   0  0  0  0  0  0  0  0  0  0  0  0
   -4.0094   -0.2153   -0.1043 C   0  0  1  0  0  0  0  0  0  0  0  0
   -5.7114    0.4220   -0.1680 S   0  0  0  0  0  0  0  0  0  0  0  0
   -5.5297    2.1755   -0.1399 C   0  0  0  0  0  0  0  0  0  0  0  0
   -6.3750    2.9865   -0.7992 C   0  0  0  0  0  0  0  0  0  0  0  0
   -6.2370    4.3837   -0.7859 C   0  0  0  0  0  0  0  0  0  0  0  0
   -7.1168    5.2101   -1.4710 O   0  0  0  0  0  0  0  0  0  0  0  0
   -5.1879    4.9099   -0.0622 C   0  0  0  0  0  0  0  0  0  0  0  0
   -4.3023    4.0900    0.6265 C   0  0  0  0  0  0  0  0  0  0  0  0
   -4.4840    2.7025    0.5808 C   0  0  0  0  0  0  0  0  0  0  0  0
   -3.6617    1.8353    1.2262 O   0  0  0  0  0  0  0  0  0  0  0  0
   -3.2587    0.5625    0.9132 C   0  0  2  0  0  0  0  0  0  0  0  0
   -1.7895    0.6436    0.5729 C   0  0  0  0  0  0  0  0  0  0  0  0
   -0.8896   -0.2715    1.0643 C   0  0  0  0  0  0  0  0  0  0  0  0
    0.4732   -0.1926    0.7444 C   0  0  0  0  0  0  0  0  0  0  0  0
    0.9158    0.8165   -0.0739 C   0  0  0  0  0  0  0  0  0  0  0  0
    2.2492    0.9060   -0.3959 O   0  0  0  0  0  0  0  0  0  0  0  0
    3.2751    0.0525    0.0245 C   0  0  0  0  0  0  0  0  0  0  0  0
    4.5704    0.5426   -0.5723 C   0  0  0  0  0  0  0  0  0  0  0  0
    5.7152   -0.2394   -0.2239 N   0  0  0  0  0  0  0  0  0  0  0  0
    5.7243   -1.5625   -0.8077 C   0  0  0  0  0  0  0  0  0  0  0  0
    6.7117   -2.4225   -0.0520 C   0  0  0  0  0  0  0  0  0  0  0  0
    7.7315   -1.5150    0.5975 C   0  0  0  0  0  0  0  0  0  0  0  0
    8.1231   -0.3992   -0.3447 C   0  0  0  0  0  0  0  0  0  0  0  0
    6.9244    0.4378   -0.6573 C   0  0  0  0  0  0  0  0  0  0  0  0
    0.0320    1.7384   -0.5733 C   0  0  0  0  0  0  0  0  0  0  0  0
   -1.3063    1.6503   -0.2515 C   0  0  0  0  0  0  0  0  0  0  0  0
   -4.6956   -6.3407    0.7542 H   0  0  0  0  0  0  0  0  0  0  0  0
   -4.9173   -3.8718    2.5902 H   0  0  0  0  0  0  0  0  0  0  0  0
   -4.9591   -1.4791    2.0793 H   0  0  0  0  0  0  0  0  0  0  0  0
   -2.9949   -2.2279   -1.6212 H   0  0  0  0  0  0  0  0  0  0  0  0
   -2.9722   -4.6328   -1.0714 H   0  0  0  0  0  0  0  0  0  0  0  0
   -3.5718    0.0162   -1.1069 H   0  0  0  0  0  0  0  0  0  0  0  0
   -7.1939    2.5877   -1.3652 H   0  0  0  0  0  0  0  0  0  0  0  0
   -6.8491    5.4222   -2.4400 H   0  0  0  0  0  0  0  0  0  0  0  0
   -5.0715    5.9915   -0.0446 H   0  0  0  0  0  0  0  0  0  0  0  0
   -3.4907    4.5272    1.1831 H   0  0  0  0  0  0  0  0  0  0  0  0
   -3.3277   -0.0424    1.8731 H   0  0  0  0  0  0  0  0  0  0  0  0
   -1.2556   -1.0601    1.7066 H   0  0  0  0  0  0  0  0  0  0  0  0
    1.1108   -0.9531    1.1743 H   0  0  0  0  0  0  0  0  0  0  0  0
    3.3696    0.0177    1.1377 H   0  0  0  0  0  0  0  0  0  0  0  0
    3.1138   -0.9992   -0.2865 H   0  0  0  0  0  0  0  0  0  0  0  0
    4.4525    0.4505   -1.6936 H   0  0  0  0  0  0  0  0  0  0  0  0
    4.7257    1.6178   -0.3689 H   0  0  0  0  0  0  0  0  0  0  0  0
    4.7367   -2.0436   -0.8638 H   0  0  0  0  0  0  0  0  0  0  0  0
    6.0785   -1.5121   -1.8796 H   0  0  0  0  0  0  0  0  0  0  0  0
    7.1597   -3.1312   -0.7798 H   0  0  0  0  0  0  0  0  0  0  0  0
    6.1990   -3.0284    0.7328 H   0  0  0  0  0  0  0  0  0  0  0  0
    7.2483   -1.0963    1.5040 H   0  0  0  0  0  0  0  0  0  0  0  0
    8.6202   -2.1318    0.8572 H   0  0  0  0  0  0  0  0  0  0  0  0
    8.8999    0.2176    0.1683 H   0  0  0  0  0  0  0  0  0  0  0  0
    8.5369   -0.8786   -1.2633 H   0  0  0  0  0  0  0  0  0  0  0  0
    6.9455    1.4481   -0.2015 H   0  0  0  0  0  0  0  0  0  0  0  0
    6.8431    0.5145   -1.7752 H   0  0  0  0  0  0  0  0  0  0  0  0
    0.3522    2.5359   -1.2138 H   0  0  0  0  0  0  0  0  0  0  0  0
   -2.0023    2.3663   -0.6392 H   0  0  0  0  0  0  0  0  0  0  0  0
  1  2  1  0
  2  3  2  0
  3  4  1  0
  4  5  2  0
  5  6  1  0
  6  7  2  0
  5  8  1  0
  8  9  1  0
  9 10  1  0
 10 11  2  0
 11 12  1  0
 12 13  1  0
 12 14  2  0
 14 15  1  0
 15 16  2  0
 16 17  1  0
 17 18  1  0
 18 19  1  0
 19 20  2  0
 20 21  1  0
 21 22  2  0
 22 23  1  0
 23 24  1  0
 24 25  1  0
 25 26  1  0
 26 27  1  0
 27 28  1  0
 28 29  1  0
 29 30  1  0
 30 31  1  0
 22 32  1  0
 32 33  2  0
  7  2  1  0
 18  8  1  0
 33 19  1  0
 16 10  1  0
 31 26  1  0
  1 34  1  0
  3 35  1  0
  4 36  1  0
  6 37  1  0
  7 38  1  0
  8 39  1  6
 11 40  1  0
 13 41  1  0
 14 42  1  0
 15 43  1  0
 18 44  1  1
 20 45  1  0
 21 46  1  0
 24 47  1  0
 24 48  1  0
 25 49  1  0
 25 50  1  0
 27 51  1  0
 27 52  1  0
 28 53  1  0
 28 54  1  0
 29 55  1  0
 29 56  1  0
 30 57  1  0
 30 58  1  0
 31 59  1  0
 31 60  1  0
 32 61  1  0
 33 62  1  0
M  END
$$$$
[H]Oc1c([H])c([H])c([C@]2([H])Sc3c([H])c(O[H])c([H])c([H])c3O[C@@]2([H])c2c([H])c([H])c(OC([H])([H])C([H])([H])N3C([H])([H])C([H])([H])C([H])([H])C3([H])[H])c([H])c2[H])c([H])c1[H]
     RDKit          3D

 59 63  0  0  0  0  0  0  0  0999 V2000
   -6.6548    5.1162    1.5062 O   0  0  0  0  0  0  0  0  0  0  0  0
   -5.7726    4.1756    1.0091 C   0  0  0  0  0  0  0  0  0  0  0  0
   -5.8679    2.8310    1.3488 C   0  0  0  0  0  0  0  0  0  0  0  0
   -4.9511    1.9292    0.8175 C   0  0  0  0  0  0  0  0  0  0  0  0
   -3.9490    2.3361   -0.0386 C   0  0  0  0  0  0  0  0  0  0  0  0
   -3.8964    3.6775   -0.3447 C   0  0  0  0  0  0  0  0  0  0  0  0
   -4.7839    4.5960    0.1606 C   0  0  0  0  0  0  0  0  0  0  0  0
   -2.9421    1.3743   -0.6212 C   0  0  2  0  0  0  0  0  0  0  0  0
   -3.9196    0.2524   -1.6873 S   0  0  0  0  0  0  0  0  0  0  0  0
   -3.7653   -1.3871   -1.0073 C   0  0  0  0  0  0  0  0  0  0  0  0
   -4.1365   -2.4627   -1.7326 C   0  0  0  0  0  0  0  0  0  0  0  0
   -4.0234   -3.7274   -1.2114 C   0  0  0  0  0  0  0  0  0  0  0  0
   -4.3965   -4.8683   -1.9293 O   0  0  0  0  0  0  0  0  0  0  0  0
   -3.5293   -3.9274    0.0615 C   0  0  0  0  0  0  0  0  0  0  0  0
   -3.1505   -2.8166    0.7985 C   0  0  0  0  0  0  0  0  0  0  0  0
   -3.2729   -1.5614    0.2557 C   0  0  0  0  0  0  0  0  0  0  0  0
   -2.9050   -0.4648    0.9669 O   0  0  0  0  0  0  0  0  0  0  0  0
   -2.2477    0.6771    0.4594 C   0  0  1  0  0  0  0  0  0  0  0  0
   -0.8429    0.2622    0.2123 C   0  0  0  0  0  0  0  0  0  0  0  0
   -0.1647   -0.4308    1.2263 C   0  0  0  0  0  0  0  0  0  0  0  0
    1.1322   -0.8549    1.0863 C   0  0  0  0  0  0  0  0  0  0  0  0
    1.8229   -0.6087   -0.0778 C   0  0  0  0  0  0  0  0  0  0  0  0
    3.1363   -1.0135   -0.2756 O   0  0  0  0  0  0  0  0  0  0  0  0
    3.8326   -1.7007    0.7163 C   0  0  0  0  0  0  0  0  0  0  0  0
    5.2245   -2.0706    0.3683 C   0  0  0  0  0  0  0  0  0  0  0  0
    6.1301   -1.0433    0.0579 N   0  0  0  0  0  0  0  0  0  0  0  0
    6.5302   -0.1517    1.0828 C   0  0  0  0  0  0  0  0  0  0  0  0
    7.3635    0.8748    0.3263 C   0  0  0  0  0  0  0  0  0  0  0  0
    6.5033    1.0566   -0.9282 C   0  0  0  0  0  0  0  0  0  0  0  0
    6.0090   -0.3748   -1.1846 C   0  0  0  0  0  0  0  0  0  0  0  0
    1.1544    0.0715   -1.0709 C   0  0  0  0  0  0  0  0  0  0  0  0
   -0.1472    0.5000   -0.9368 C   0  0  0  0  0  0  0  0  0  0  0  0
   -7.5015    5.3258    1.0089 H   0  0  0  0  0  0  0  0  0  0  0  0
   -6.6549    2.5499    2.0137 H   0  0  0  0  0  0  0  0  0  0  0  0
   -5.0453    0.8946    1.0939 H   0  0  0  0  0  0  0  0  0  0  0  0
   -3.1259    4.0809   -1.0204 H   0  0  0  0  0  0  0  0  0  0  0  0
   -4.6926    5.6551   -0.1188 H   0  0  0  0  0  0  0  0  0  0  0  0
   -2.3392    1.9752   -1.3093 H   0  0  0  0  0  0  0  0  0  0  0  0
   -4.5313   -2.3696   -2.7370 H   0  0  0  0  0  0  0  0  0  0  0  0
   -4.3209   -5.7865   -1.5663 H   0  0  0  0  0  0  0  0  0  0  0  0
   -3.4239   -4.9037    0.5093 H   0  0  0  0  0  0  0  0  0  0  0  0
   -2.7607   -3.0024    1.8080 H   0  0  0  0  0  0  0  0  0  0  0  0
   -2.1742    1.3687    1.3559 H   0  0  0  0  0  0  0  0  0  0  0  0
   -0.7341   -0.6193    2.1529 H   0  0  0  0  0  0  0  0  0  0  0  0
    1.6318   -1.3892    1.8882 H   0  0  0  0  0  0  0  0  0  0  0  0
    3.8195   -1.1291    1.6909 H   0  0  0  0  0  0  0  0  0  0  0  0
    3.2876   -2.6524    0.9632 H   0  0  0  0  0  0  0  0  0  0  0  0
    5.1925   -2.7908   -0.4827 H   0  0  0  0  0  0  0  0  0  0  0  0
    5.6415   -2.6557    1.2297 H   0  0  0  0  0  0  0  0  0  0  0  0
    7.1863   -0.5876    1.8455 H   0  0  0  0  0  0  0  0  0  0  0  0
    5.7000    0.3701    1.5981 H   0  0  0  0  0  0  0  0  0  0  0  0
    8.3135    0.3904    0.0637 H   0  0  0  0  0  0  0  0  0  0  0  0
    7.4719    1.8220    0.8901 H   0  0  0  0  0  0  0  0  0  0  0  0
    5.6677    1.7209   -0.6738 H   0  0  0  0  0  0  0  0  0  0  0  0
    7.0978    1.3924   -1.7824 H   0  0  0  0  0  0  0  0  0  0  0  0
    5.0405   -0.3879   -1.6784 H   0  0  0  0  0  0  0  0  0  0  0  0
    6.7427   -0.8601   -1.8936 H   0  0  0  0  0  0  0  0  0  0  0  0
    1.6570    0.2892   -2.0058 H   0  0  0  0  0  0  0  0  0  0  0  0
   -0.6657    1.0331   -1.7297 H   0  0  0  0  0  0  0  0  0  0  0  0
  1  2  1  0
  2  3  2  0
  3  4  1  0
  4  5  2  0
  5  6  1  0
  6  7  2  0
  5  8  1  0
  8  9  1  0
  9 10  1  0
 10 11  2  0
 11 12  1  0
 12 13  1  0
 12 14  2  0
 14 15  1  0
 15 16  2  0
 16 17  1  0
 17 18  1  0
 18 19  1  0
 19 20  2  0
 20 21  1  0
 21 22  2  0
 22 23  1  0
 23 24  1  0
 24 25  1  0
 25 26  1  0
 26 27  1  0
 27 28  1  0
 28 29  1  0
 29 30  1  0
 22 31  1  0
 31 32  2  0
  7  2  1  0
 18  8  1  0
 32 19  1  0
 16 10  1  0
 30 26  1  0
  1 33  1  0
  3 34  1  0
  4 35  1  0
  6 36  1  0
  7 37  1  0
  8 38  1  6
 11 39  1  0
 13 40  1  0
 14 41  1  0
 15 42  1  0
 18 43  1  1
 20 44  1  0
 21 45  1  0
 24 46  1  0
 24 47  1  0
 25 48  1  0
 25 49  1  0
 27 50  1  0
 27 51  1  0
 28 52  1  0
 28 53  1  0
 29 54  1  0
 29 55  1  0
 30 56  1  0
 30 57  1  0
 31 58  1  0
 32 59  1  0
M  END
$$$$
[H]Oc1c([H])c([H])c(C2=C(c3c([H])c([H])c(OC([H])([H])C([H])([H])N4C([H])([H])C([H])([H])C([H])([H])C([H])([H])C4([H])[H])c([H])c3[H])c3c([H])c([H])c(O[H])c([H])c3C2([H])[H])c([H])c1[H]
     RDKit          3D

 61 65  0  0  0  0  0  0  0  0999 V2000
   -5.3323    5.5198   -0.8527 O   0  0  0  0  0  0  0  0  0  0  0  0
   -5.0518    4.1870   -0.5990 C   0  0  0  0  0  0  0  0  0  0  0  0
   -4.6369    3.8004    0.6533 C   0  0  0  0  0  0  0  0  0  0  0  0
   -4.3485    2.4571    0.9300 C   0  0  0  0  0  0  0  0  0  0  0  0
   -4.4575    1.4768   -0.0003 C   0  0  0  0  0  0  0  0  0  0  0  0
   -4.8852    1.8903   -1.2804 C   0  0  0  0  0  0  0  0  0  0  0  0
   -5.1687    3.2036   -1.5542 C   0  0  0  0  0  0  0  0  0  0  0  0
   -4.1431    0.0531    0.1800 C   0  0  0  0  0  0  0  0  0  0  0  0
   -3.0518   -0.5782    0.4969 C   0  0  0  0  0  0  0  0  0  0  0  0
   -3.2724   -2.0484    0.5471 C   0  0  0  0  0  0  0  0  0  0  0  0
   -2.4450   -3.1096    0.8289 C   0  0  0  0  0  0  0  0  0  0  0  0
   -2.9835   -4.3995    0.7865 C   0  0  0  0  0  0  0  0  0  0  0  0
   -4.3061   -4.6103    0.4722 C   0  0  0  0  0  0  0  0  0  0  0  0
   -4.8086   -5.9202    0.4407 O   0  0  0  0  0  0  0  0  0  0  0  0
   -5.1279   -3.5501    0.1920 C   0  0  0  0  0  0  0  0  0  0  0  0
   -4.5785   -2.2741    0.2379 C   0  0  0  0  0  0  0  0  0  0  0  0
   -5.2271   -0.9985   -0.0145 C   0  0  0  0  0  0  0  0  0  0  0  0
   -1.7312   -0.0662    0.7880 C   0  0  0  0  0  0  0  0  0  0  0  0
   -1.4106    0.7634    1.7993 C   0  0  0  0  0  0  0  0  0  0  0  0
   -0.1354    1.2434    2.0054 C   0  0  0  0  0  0  0  0  0  0  0  0
    0.9113    0.8726    1.1418 C   0  0  0  0  0  0  0  0  0  0  0  0
    2.1437    1.3804    1.3964 O   0  0  0  0  0  0  0  0  0  0  0  0
    3.3587    1.1986    0.7761 C   0  0  0  0  0  0  0  0  0  0  0  0
    3.9273   -0.2028    0.8246 C   0  0  0  0  0  0  0  0  0  0  0  0
    5.1687   -0.1981    0.1281 N   0  0  0  0  0  0  0  0  0  0  0  0
    5.1255    0.0058   -1.2701 C   0  0  0  0  0  0  0  0  0  0  0  0
    6.3093   -0.4996   -2.0208 C   0  0  0  0  0  0  0  0  0  0  0  0
    7.5339   -0.6085   -1.1521 C   0  0  0  0  0  0  0  0  0  0  0  0
    7.5424    0.3716   -0.0139 C   0  0  0  0  0  0  0  0  0  0  0  0
    6.2904    0.3099    0.8308 C   0  0  0  0  0  0  0  0  0  0  0  0
    0.5890    0.0241    0.1061 C   0  0  0  0  0  0  0  0  0  0  0  0
   -0.7026   -0.4451   -0.0803 C   0  0  0  0  0  0  0  0  0  0  0  0
   -5.6394    5.8084   -1.7764 H   0  0  0  0  0  0  0  0  0  0  0  0
   -4.5373    4.5542    1.4219 H   0  0  0  0  0  0  0  0  0  0  0  0
   -4.0620    2.2376    1.9286 H   0  0  0  0  0  0  0  0  0  0  0  0
   -4.9772    1.1104   -2.0345 H   0  0  0  0  0  0  0  0  0  0  0  0
   -5.4990    3.5246   -2.5384 H   0  0  0  0  0  0  0  0  0  0  0  0
   -1.4262   -2.9323    1.0707 H   0  0  0  0  0  0  0  0  0  0  0  0
   -2.2999   -5.2130    1.0151 H   0  0  0  0  0  0  0  0  0  0  0  0
   -4.7900   -6.4709   -0.4029 H   0  0  0  0  0  0  0  0  0  0  0  0
   -6.1588   -3.7385   -0.0509 H   0  0  0  0  0  0  0  0  0  0  0  0
   -5.5137   -0.9387   -1.0914 H   0  0  0  0  0  0  0  0  0  0  0  0
   -6.0815   -0.7863    0.6376 H   0  0  0  0  0  0  0  0  0  0  0  0
   -2.1448    1.0964    2.5553 H   0  0  0  0  0  0  0  0  0  0  0  0
    0.0921    1.9185    2.8393 H   0  0  0  0  0  0  0  0  0  0  0  0
    4.1183    1.8555    1.3079 H   0  0  0  0  0  0  0  0  0  0  0  0
    3.3657    1.6010   -0.2687 H   0  0  0  0  0  0  0  0  0  0  0  0
    3.2156   -0.9474    0.4899 H   0  0  0  0  0  0  0  0  0  0  0  0
    4.1017   -0.3901    1.9386 H   0  0  0  0  0  0  0  0  0  0  0  0
    4.2124   -0.4955   -1.6834 H   0  0  0  0  0  0  0  0  0  0  0  0
    5.0028    1.0878   -1.4790 H   0  0  0  0  0  0  0  0  0  0  0  0
    6.5422    0.2146   -2.8368 H   0  0  0  0  0  0  0  0  0  0  0  0
    6.1410   -1.4812   -2.5115 H   0  0  0  0  0  0  0  0  0  0  0  0
    7.6547   -1.6491   -0.7788 H   0  0  0  0  0  0  0  0  0  0  0  0
    8.4520   -0.3980   -1.7585 H   0  0  0  0  0  0  0  0  0  0  0  0
    8.3965    0.0865    0.6479 H   0  0  0  0  0  0  0  0  0  0  0  0
    7.7125    1.3997   -0.3660 H   0  0  0  0  0  0  0  0  0  0  0  0
    6.0733    1.3453    1.1672 H   0  0  0  0  0  0  0  0  0  0  0  0
    6.4892   -0.2534    1.7899 H   0  0  0  0  0  0  0  0  0  0  0  0
    1.3555   -0.2795   -0.6044 H   0  0  0  0  0  0  0  0  0  0  0  0
   -0.8909   -1.1155   -0.9198 H   0  0  0  0  0  0  0  0  0  0  0  0
  1  2  1  0
  2  3  2  0
  3  4  1  0
  4  5  2  0
  5  6  1  0
  6  7  2  0
  5  8  1  0
  8  9  2  0
  9 10  1  0
 10 11  2  0
 11 12  1  0
 12 13  2  0
 13 14  1  0
 13 15  1  0
 15 16  2  0
 16 17  1  0
  9 18  1  0
 18 19  2  0
 19 20  1  0
 20 21  2  0
 21 22  1  0
 22 23  1  0
 23 24  1  0
 24 25  1  0
 25 26  1  0
 26 27  1  0
 27 28  1  0
 28 29  1  0
 29 30  1  0
 21 31  1  0
 31 32  2  0
  7  2  1  0
 17  8  1  0
 32 18  1  0
 16 10  1  0
 30 25  1  0
  1 33  1  0
  3 34  1  0
  4 35  1  0
  6 36  1  0
  7 37  1  0
 11 38  1  0
 12 39  1  0
 14 40  1  0
 15 41  1  0
 17 42  1  0
 17 43  1  0
 19 44  1  0
 20 45  1  0
 23 46  1  0
 23 47  1  0
 24 48  1  0
 24 49  1  0
 26 50  1  0
 26 51  1  0
 27 52  1  0
 27 53  1  0
 28 54  1  0
 28 55  1  0
 29 56  1  0
 29 57  1  0
 30 58  1  0
 30 59  1  0
 31 60  1  0
 32 61  1  0
M  END
$$$$
[H]Oc1c([H])c([H])c([C@]2([H])Oc3c([H])c([H])c(O[H])c([H])c3[C@@]3([H])C([H])([H])C([H])([H])C([H])([H])[C@@]32[H])c([H])c1[H]
     RDKit          3D

 39 42  0  0  0  0  0  0  0  0999 V2000
    5.4751   -0.8728   -1.4364 O   0  0  0  0  0  0  0  0  0  0  0  0
    4.2854   -0.5352   -0.8005 C   0  0  0  0  0  0  0  0  0  0  0  0
    4.2368    0.6295   -0.0563 C   0  0  0  0  0  0  0  0  0  0  0  0
    3.0588    0.9720    0.5784 C   0  0  0  0  0  0  0  0  0  0  0  0
    1.9173    0.1879    0.4970 C   0  0  0  0  0  0  0  0  0  0  0  0
    2.0105   -0.9634   -0.2543 C   0  0  0  0  0  0  0  0  0  0  0  0
    3.1698   -1.3364   -0.9016 C   0  0  0  0  0  0  0  0  0  0  0  0
    0.6940    0.5939    1.1999 C   0  0  2  0  0  0  0  0  0  0  0  0
    0.1017   -0.5667    1.7641 O   0  0  0  0  0  0  0  0  0  0  0  0
   -1.1551   -1.0455    1.3511 C   0  0  0  0  0  0  0  0  0  0  0  0
   -1.7695   -1.9846    2.1556 C   0  0  0  0  0  0  0  0  0  0  0  0
   -2.9955   -2.4849    1.8001 C   0  0  0  0  0  0  0  0  0  0  0  0
   -3.6100   -2.0464    0.6381 C   0  0  0  0  0  0  0  0  0  0  0  0
   -4.8423   -2.5501    0.2821 O   0  0  0  0  0  0  0  0  0  0  0  0
   -2.9749   -1.1033   -0.1540 C   0  0  0  0  0  0  0  0  0  0  0  0
   -1.7513   -0.5979    0.1920 C   0  0  0  0  0  0  0  0  0  0  0  0
   -0.9998    0.4099   -0.5901 C   0  0  1  0  0  0  0  0  0  0  0  0
   -1.8941    1.4064   -1.2927 C   0  0  0  0  0  0  0  0  0  0  0  0
   -1.1607    2.7466   -1.2110 C   0  0  0  0  0  0  0  0  0  0  0  0
    0.1401    2.4336   -0.4556 C   0  0  0  0  0  0  0  0  0  0  0  0
   -0.3174    1.3078    0.4144 C   0  0  2  0  0  0  0  0  0  0  0  0
    5.5193   -1.7196   -1.9806 H   0  0  0  0  0  0  0  0  0  0  0  0
    5.1345    1.2492    0.0096 H   0  0  0  0  0  0  0  0  0  0  0  0
    3.0476    1.8937    1.1575 H   0  0  0  0  0  0  0  0  0  0  0  0
    1.1711   -1.6292   -0.3622 H   0  0  0  0  0  0  0  0  0  0  0  0
    3.2510   -2.2362   -1.4921 H   0  0  0  0  0  0  0  0  0  0  0  0
    0.9537    1.2244    2.1169 H   0  0  0  0  0  0  0  0  0  0  0  0
   -1.2559   -2.3114    3.0700 H   0  0  0  0  0  0  0  0  0  0  0  0
   -3.4483   -3.2189    2.4529 H   0  0  0  0  0  0  0  0  0  0  0  0
   -4.8844   -3.3858   -0.3045 H   0  0  0  0  0  0  0  0  0  0  0  0
   -3.4440   -0.7472   -1.0714 H   0  0  0  0  0  0  0  0  0  0  0  0
   -0.3130   -0.0496   -1.3120 H   0  0  0  0  0  0  0  0  0  0  0  0
   -1.9093    1.1421   -2.3822 H   0  0  0  0  0  0  0  0  0  0  0  0
   -2.9045    1.4541   -0.8887 H   0  0  0  0  0  0  0  0  0  0  0  0
   -0.9734    3.1853   -2.1905 H   0  0  0  0  0  0  0  0  0  0  0  0
   -1.8017    3.3908   -0.5470 H   0  0  0  0  0  0  0  0  0  0  0  0
    0.8673    2.1260   -1.2227 H   0  0  0  0  0  0  0  0  0  0  0  0
    0.4564    3.3265    0.1219 H   0  0  0  0  0  0  0  0  0  0  0  0
   -1.0853    1.7056    1.1046 H   0  0  0  0  0  0  0  0  0  0  0  0
  1  2  1  0
  2  3  2  0
  3  4  1  0
  4  5  2  0
  5  6  1  0
  6  7  2  0
  5  8  1  0
  8  9  1  0
  9 10  1  0
 10 11  2  0
 11 12  1  0
 12 13  2  0
 13 14  1  0
 13 15  1  0
 15 16  2  0
 16 17  1  0
 17 18  1  0
 18 19  1  0
 19 20  1  0
 20 21  1  0
  7  2  1  0
 21  8  1  0
 16 10  1  0
 21 17  1  0
  1 22  1  0
  3 23  1  0
  4 24  1  0
  6 25  1  0
  7 26  1  0
  8 27  1  1
 11 28  1  0
 12 29  1  0
 14 30  1  0
 15 31  1  0
 17 32  1  6
 18 33  1  0
 18 34  1  0
 19 35  1  0
 19 36  1  0
 20 37  1  0
 20 38  1  0
 21 39  1  1
M  END
$$$$
[H]Oc1c([H])c([H])c([C@@]2([H])Sc3c([H])c(O[H])c([H])c([H])c3O[C@]2([H])c2c([H])c([H])c(OC([H])([H])C([H])([H])N3C([H])([H])C([H])([H])C([H])([H])C3([H])[H])c([H])c2[H])c([H])c1[H]
     RDKit          3D

 59 63  0  0  0  0  0  0  0  0999 V2000
   -1.8946    5.2030    0.2193 O   0  0  0  0  0  0  0  0  0  0  0  0
   -2.2582    3.8517    0.3547 C   0  0  0  0  0  0  0  0  0  0  0  0
   -2.9825    3.2047   -0.6218 C   0  0  0  0  0  0  0  0  0  0  0  0
   -3.3349    1.8687   -0.4753 C   0  0  0  0  0  0  0  0  0  0  0  0
   -2.9819    1.1405    0.6360 C   0  0  0  0  0  0  0  0  0  0  0  0
   -2.2583    1.8011    1.6030 C   0  0  0  0  0  0  0  0  0  0  0  0
   -1.8986    3.1326    1.4728 C   0  0  0  0  0  0  0  0  0  0  0  0
   -3.3319   -0.2634    0.8223 C   0  0  1  0  0  0  0  0  0  0  0  0
   -5.1216   -0.5869    0.7541 S   0  0  0  0  0  0  0  0  0  0  0  0
   -5.2866   -2.3501    0.5093 C   0  0  0  0  0  0  0  0  0  0  0  0
   -6.4839   -2.9912    0.5540 C   0  0  0  0  0  0  0  0  0  0  0  0
   -6.5651   -4.3637    0.3590 C   0  0  0  0  0  0  0  0  0  0  0  0
   -7.7947   -5.0167    0.4061 O   0  0  0  0  0  0  0  0  0  0  0  0
   -5.4349   -5.1328    0.1120 C   0  0  0  0  0  0  0  0  0  0  0  0
   -4.2222   -4.4757    0.0679 C   0  0  0  0  0  0  0  0  0  0  0  0
   -4.1601   -3.1062    0.2647 C   0  0  0  0  0  0  0  0  0  0  0  0
   -2.9126   -2.5087    0.2073 O   0  0  0  0  0  0  0  0  0  0  0  0
   -2.7103   -1.1827   -0.2111 C   0  0  2  0  0  0  0  0  0  0  0  0
   -1.2611   -0.9430   -0.3727 C   0  0  0  0  0  0  0  0  0  0  0  0
   -0.3260   -1.3455    0.5570 C   0  0  0  0  0  0  0  0  0  0  0  0
    1.0176   -1.1006    0.3657 C   0  0  0  0  0  0  0  0  0  0  0  0
    1.4926   -0.4463   -0.7553 C   0  0  0  0  0  0  0  0  0  0  0  0
    2.8566   -0.2072   -0.9318 O   0  0  0  0  0  0  0  0  0  0  0  0
    3.8047   -0.6361    0.0470 C   0  0  0  0  0  0  0  0  0  0  0  0
    5.2007   -0.2779   -0.3432 C   0  0  0  0  0  0  0  0  0  0  0  0
    5.4226    1.1211   -0.5089 N   0  0  0  0  0  0  0  0  0  0  0  0
    5.3600    1.8904    0.6881 C   0  0  0  0  0  0  0  0  0  0  0  0
    6.7207    2.5352    0.8452 C   0  0  0  0  0  0  0  0  0  0  0  0
    7.1483    2.7271   -0.5970 C   0  0  0  0  0  0  0  0  0  0  0  0
    6.5841    1.4782   -1.2581 C   0  0  0  0  0  0  0  0  0  0  0  0
    0.5610   -0.0423   -1.6870 C   0  0  0  0  0  0  0  0  0  0  0  0
   -0.7943   -0.2893   -1.4942 C   0  0  0  0  0  0  0  0  0  0  0  0
   -2.1362    5.7503   -0.5723 H   0  0  0  0  0  0  0  0  0  0  0  0
   -3.2780    3.7466   -1.5108 H   0  0  0  0  0  0  0  0  0  0  0  0
   -3.9079    1.3556   -1.2463 H   0  0  0  0  0  0  0  0  0  0  0  0
   -1.9625    1.2455    2.5013 H   0  0  0  0  0  0  0  0  0  0  0  0
   -1.3268    3.6351    2.2483 H   0  0  0  0  0  0  0  0  0  0  0  0
   -2.9829   -0.6687    1.8128 H   0  0  0  0  0  0  0  0  0  0  0  0
   -7.3805   -2.4142    0.7450 H   0  0  0  0  0  0  0  0  0  0  0  0
   -8.6499   -4.4914    0.5850 H   0  0  0  0  0  0  0  0  0  0  0  0
   -5.5086   -6.2097   -0.0396 H   0  0  0  0  0  0  0  0  0  0  0  0
   -3.3455   -5.0871   -0.1259 H   0  0  0  0  0  0  0  0  0  0  0  0
   -3.2659   -1.0341   -1.1562 H   0  0  0  0  0  0  0  0  0  0  0  0
   -0.6702   -1.8575    1.4387 H   0  0  0  0  0  0  0  0  0  0  0  0
    1.7357   -1.4206    1.1012 H   0  0  0  0  0  0  0  0  0  0  0  0
    3.5257   -0.3215    1.0602 H   0  0  0  0  0  0  0  0  0  0  0  0
    3.7432   -1.7628    0.0388 H   0  0  0  0  0  0  0  0  0  0  0  0
    5.4106   -0.7972   -1.3142 H   0  0  0  0  0  0  0  0  0  0  0  0
    5.8900   -0.7346    0.3923 H   0  0  0  0  0  0  0  0  0  0  0  0
    5.1461    1.1889    1.5344 H   0  0  0  0  0  0  0  0  0  0  0  0
    4.6224    2.7177    0.6554 H   0  0  0  0  0  0  0  0  0  0  0  0
    7.4493    1.8705    1.3560 H   0  0  0  0  0  0  0  0  0  0  0  0
    6.6114    3.5179    1.3587 H   0  0  0  0  0  0  0  0  0  0  0  0
    6.6458    3.6011   -1.0438 H   0  0  0  0  0  0  0  0  0  0  0  0
    8.2368    2.7361   -0.6509 H   0  0  0  0  0  0  0  0  0  0  0  0
    6.4517    1.5695   -2.3360 H   0  0  0  0  0  0  0  0  0  0  0  0
    7.3422    0.6648   -1.0826 H   0  0  0  0  0  0  0  0  0  0  0  0
    0.9355    0.4709   -2.5663 H   0  0  0  0  0  0  0  0  0  0  0  0
   -1.4861    0.0410   -2.2443 H   0  0  0  0  0  0  0  0  0  0  0  0
  1  2  1  0
  2  3  2  0
  3  4  1  0
  4  5  2  0
  5  6  1  0
  6  7  2  0
  5  8  1  0
  8  9  1  0
  9 10  1  0
 10 11  2  0
 11 12  1  0
 12 13  1  0
 12 14  2  0
 14 15  1  0
 15 16  2  0
 16 17  1  0
 17 18  1  0
 18 19  1  0
 19 20  2  0
 20 21  1  0
 21 22  2  0
 22 23  1  0
 23 24  1  0
 24 25  1  0
 25 26  1  0
 26 27  1  0
 27 28  1  0
 28 29  1  0
 29 30  1  0
 22 31  1  0
 31 32  2  0
  7  2  1  0
 18  8  1  0
 32 19  1  0
 16 10  1  0
 30 26  1  0
  1 33  1  0
  3 34  1  0
  4 35  1  0
  6 36  1  0
  7 37  1  0
  8 38  1  1
 11 39  1  0
 13 40  1  0
 14 41  1  0
 15 42  1  0
 18 43  1  6
 20 44  1  0
 21 45  1  0
 24 46  1  0
 24 47  1  0
 25 48  1  0
 25 49  1  0
 27 50  1  0
 27 51  1  0
 28 52  1  0
 28 53  1  0
 29 54  1  0
 29 55  1  0
 30 56  1  0
 30 57  1  0
 31 58  1  0
 32 59  1  0
M  END
$$$$
[H]c1c2c(c3c(nnn3[H])c1[H])C([H])([H])C1(C([H])([H])C([H])([H])C([H])([H])C([H])([H])[H])C2=C(Br)C(=O)C([H])([H])C1([H])[H]
     RDKit          3D

 40 43  0  0  0  0  0  0  0  0999 V2000
    4.0335    1.7871    0.6671 C   0  0  0  0  0  0  0  0  0  0  0  0
    2.5314    1.3725    0.5935 C   0  0  0  0  0  0  0  0  0  0  0  0
    2.3624    0.3921   -0.5211 C   0  0  0  0  0  0  0  0  0  0  0  0
    1.0637   -0.1215   -0.8891 C   0  0  0  0  0  0  0  0  0  0  0  0
    0.1535   -0.8549   -0.0217 C   0  0  0  0  0  0  0  0  0  0  0  0
   -0.3993   -0.1575    1.1842 C   0  0  0  0  0  0  0  0  0  0  0  0
   -1.6138    0.5537    0.6591 C   0  0  0  0  0  0  0  0  0  0  0  0
   -2.0080   -0.0863   -0.4924 C   0  0  0  0  0  0  0  0  0  0  0  0
   -3.1232    0.3639   -1.2094 C   0  0  0  0  0  0  0  0  0  0  0  0
   -3.8060    1.4753   -0.7083 C   0  0  0  0  0  0  0  0  0  0  0  0
   -3.4036    2.1118    0.4486 C   0  0  0  0  0  0  0  0  0  0  0  0
   -3.8859    3.1640    1.1031 N   0  0  0  0  0  0  0  0  0  0  0  0
   -3.1164    3.3660    2.1739 N   0  0  0  0  0  0  0  0  0  0  0  0
   -2.1606    2.4579    2.2006 N   0  0  0  0  0  0  0  0  0  0  0  0
   -2.2835    1.6402    1.1464 C   0  0  0  0  0  0  0  0  0  0  0  0
   -1.1188   -1.2027   -0.7713 C   0  0  0  0  0  0  0  0  0  0  0  0
   -1.2408   -2.3079   -1.4828 C   0  0  0  0  0  0  0  0  0  0  0  0
   -2.8642   -2.7249   -2.4213 Br  0  0  0  0  0  0  0  0  0  0  0  0
   -0.1486   -3.2643   -1.5966 C   0  0  0  0  0  0  0  0  0  0  0  0
   -0.2334   -4.2532   -2.3671 O   0  0  0  0  0  0  0  0  0  0  0  0
    1.0667   -3.0350   -0.7752 C   0  0  0  0  0  0  0  0  0  0  0  0
    0.6743   -2.2177    0.4237 C   0  0  0  0  0  0  0  0  0  0  0  0
    4.6612    0.9203    0.4399 H   0  0  0  0  0  0  0  0  0  0  0  0
    4.2371    2.5904   -0.0569 H   0  0  0  0  0  0  0  0  0  0  0  0
    4.2748    2.1571    1.6651 H   0  0  0  0  0  0  0  0  0  0  0  0
    1.9004    2.2439    0.5957 H   0  0  0  0  0  0  0  0  0  0  0  0
    2.4291    0.8356    1.5944 H   0  0  0  0  0  0  0  0  0  0  0  0
    3.1434   -0.3958   -0.3078 H   0  0  0  0  0  0  0  0  0  0  0  0
    2.8110    0.8716   -1.4656 H   0  0  0  0  0  0  0  0  0  0  0  0
    1.1235   -0.7193   -1.8719 H   0  0  0  0  0  0  0  0  0  0  0  0
    0.4629    0.7879   -1.2892 H   0  0  0  0  0  0  0  0  0  0  0  0
    0.2713    0.5177    1.6855 H   0  0  0  0  0  0  0  0  0  0  0  0
   -0.7617   -0.9844    1.8734 H   0  0  0  0  0  0  0  0  0  0  0  0
   -3.4858   -0.0712   -2.1033 H   0  0  0  0  0  0  0  0  0  0  0  0
   -4.6779    1.8237   -1.2726 H   0  0  0  0  0  0  0  0  0  0  0  0
   -1.4289    2.4111    2.9503 H   0  0  0  0  0  0  0  0  0  0  0  0
    1.8398   -2.5450   -1.4180 H   0  0  0  0  0  0  0  0  0  0  0  0
    1.4785   -4.0296   -0.4411 H   0  0  0  0  0  0  0  0  0  0  0  0
    1.4437   -2.1473    1.1957 H   0  0  0  0  0  0  0  0  0  0  0  0
   -0.2017   -2.7253    0.8828 H   0  0  0  0  0  0  0  0  0  0  0  0
  1  2  1  0
  2  3  1  0
  3  4  1  0
  4  5  1  0
  5  6  1  0
  6  7  1  0
  7  8  2  0
  8  9  1  0
  9 10  2  0
 10 11  1  0
 11 12  1  0
 12 13  2  0
 13 14  1  0
 14 15  1  0
  8 16  1  0
 16 17  2  0
 17 18  1  0
 17 19  1  0
 19 20  2  0
 19 21  1  0
 21 22  1  0
 16  5  1  0
 22  5  1  0
 15  7  1  0
 15 11  2  0
  1 23  1  0
  1 24  1  0
  1 25  1  0
  2 26  1  0
  2 27  1  0
  3 28  1  0
  3 29  1  0
  4 30  1  0
  4 31  1  0
  6 32  1  0
  6 33  1  0
  9 34  1  0
 10 35  1  0
 14 36  1  0
 21 37  1  0
 21 38  1  0
 22 39  1  0
 22 40  1  0
M  END
$$$$
[H]Oc1c([H])c([H])c(C2=C(c3c([H])c([H])c(OC([H])([H])C([H])([H])N4C([H])([H])C([H])([H])C([H])([H])C([H])([H])C4([H])[H])c([H])c3[H])c3c([H])c([H])c(F)c([H])c3OC([H])([H])C2([H])[H])c([H])c1[H]
     RDKit          3D

 64 68  0  0  0  0  0  0  0  0999 V2000
   -4.4932   -1.8847   -5.2746 O   0  0  0  0  0  0  0  0  0  0  0  0
   -4.2966   -1.2490   -4.0519 C   0  0  0  0  0  0  0  0  0  0  0  0
   -3.2240   -0.4407   -3.7936 C   0  0  0  0  0  0  0  0  0  0  0  0
   -3.0586    0.1756   -2.5687 C   0  0  0  0  0  0  0  0  0  0  0  0
   -3.9422    0.0183   -1.5532 C   0  0  0  0  0  0  0  0  0  0  0  0
   -5.0417   -0.8183   -1.8374 C   0  0  0  0  0  0  0  0  0  0  0  0
   -5.2113   -1.4342   -3.0559 C   0  0  0  0  0  0  0  0  0  0  0  0
   -3.9165    0.5761   -0.2376 C   0  0  0  0  0  0  0  0  0  0  0  0
   -2.8682    0.4300    0.5237 C   0  0  0  0  0  0  0  0  0  0  0  0
   -1.7333   -0.2938    0.0563 C   0  0  0  0  0  0  0  0  0  0  0  0
   -0.5026    0.3897    0.0862 C   0  0  0  0  0  0  0  0  0  0  0  0
    0.6839   -0.1911   -0.2909 C   0  0  0  0  0  0  0  0  0  0  0  0
    0.6943   -1.5058   -0.7229 C   0  0  0  0  0  0  0  0  0  0  0  0
    1.8098   -2.1471   -1.1090 O   0  0  0  0  0  0  0  0  0  0  0  0
    3.1398   -1.8556   -1.2076 C   0  0  0  0  0  0  0  0  0  0  0  0
    3.8569   -1.5332    0.0596 C   0  0  0  0  0  0  0  0  0  0  0  0
    5.2732   -1.2530   -0.1777 N   0  0  0  0  0  0  0  0  0  0  0  0
    5.3943   -0.0073   -0.9111 C   0  0  0  0  0  0  0  0  0  0  0  0
    6.7975    0.5632   -0.7382 C   0  0  0  0  0  0  0  0  0  0  0  0
    6.8682    1.1611    0.6420 C   0  0  0  0  0  0  0  0  0  0  0  0
    5.9440    0.3694    1.5402 C   0  0  0  0  0  0  0  0  0  0  0  0
    5.8996   -1.1055    1.1220 C   0  0  0  0  0  0  0  0  0  0  0  0
   -0.5398   -2.1909   -0.7522 C   0  0  0  0  0  0  0  0  0  0  0  0
   -1.7009   -1.5880   -0.3715 C   0  0  0  0  0  0  0  0  0  0  0  0
   -2.7541    0.9669    1.9249 C   0  0  0  0  0  0  0  0  0  0  0  0
   -1.8889    0.2010    2.6609 C   0  0  0  0  0  0  0  0  0  0  0  0
   -1.6965    0.6022    3.9843 C   0  0  0  0  0  0  0  0  0  0  0  0
   -2.3425    1.7011    4.5045 C   0  0  0  0  0  0  0  0  0  0  0  0
   -2.1330    2.0722    5.8075 F   0  0  0  0  0  0  0  0  0  0  0  0
   -3.2082    2.4512    3.7373 C   0  0  0  0  0  0  0  0  0  0  0  0
   -3.4203    2.0712    2.4060 C   0  0  0  0  0  0  0  0  0  0  0  0
   -4.3087    2.9010    1.7486 O   0  0  0  0  0  0  0  0  0  0  0  0
   -4.8727    2.7552    0.4687 C   0  0  0  0  0  0  0  0  0  0  0  0
   -5.1994    1.3303    0.0897 C   0  0  0  0  0  0  0  0  0  0  0  0
   -4.1086   -2.8240   -5.4456 H   0  0  0  0  0  0  0  0  0  0  0  0
   -2.5135   -0.3146   -4.6070 H   0  0  0  0  0  0  0  0  0  0  0  0
   -2.2135    0.8110   -2.4077 H   0  0  0  0  0  0  0  0  0  0  0  0
   -5.7968   -1.0007   -1.0856 H   0  0  0  0  0  0  0  0  0  0  0  0
   -6.0797   -2.0811   -3.2478 H   0  0  0  0  0  0  0  0  0  0  0  0
   -0.4852    1.4168    0.4192 H   0  0  0  0  0  0  0  0  0  0  0  0
    1.5703    0.4215   -0.2434 H   0  0  0  0  0  0  0  0  0  0  0  0
    3.7352   -2.6995   -1.6832 H   0  0  0  0  0  0  0  0  0  0  0  0
    3.2295   -0.9888   -1.9478 H   0  0  0  0  0  0  0  0  0  0  0  0
    3.4432   -0.6391    0.5301 H   0  0  0  0  0  0  0  0  0  0  0  0
    3.7550   -2.4144    0.7410 H   0  0  0  0  0  0  0  0  0  0  0  0
    5.1304   -0.1738   -1.9702 H   0  0  0  0  0  0  0  0  0  0  0  0
    4.6954    0.7467   -0.4985 H   0  0  0  0  0  0  0  0  0  0  0  0
    7.5840   -0.1962   -0.9299 H   0  0  0  0  0  0  0  0  0  0  0  0
    6.9265    1.3603   -1.4973 H   0  0  0  0  0  0  0  0  0  0  0  0
    7.9042    1.1466    1.0219 H   0  0  0  0  0  0  0  0  0  0  0  0
    6.5411    2.2212    0.5859 H   0  0  0  0  0  0  0  0  0  0  0  0
    4.9062    0.7523    1.5416 H   0  0  0  0  0  0  0  0  0  0  0  0
    6.3542    0.3789    2.5624 H   0  0  0  0  0  0  0  0  0  0  0  0
    6.9501   -1.4671    1.1001 H   0  0  0  0  0  0  0  0  0  0  0  0
    5.3223   -1.6456    1.8964 H   0  0  0  0  0  0  0  0  0  0  0  0
   -0.4974   -3.2321   -1.1008 H   0  0  0  0  0  0  0  0  0  0  0  0
   -2.6325   -2.1441   -0.4002 H   0  0  0  0  0  0  0  0  0  0  0  0
   -1.4044   -0.6575    2.2443 H   0  0  0  0  0  0  0  0  0  0  0  0
   -1.0259    0.0359    4.6112 H   0  0  0  0  0  0  0  0  0  0  0  0
   -3.7187    3.3165    4.1420 H   0  0  0  0  0  0  0  0  0  0  0  0
   -4.1870    3.1369   -0.3393 H   0  0  0  0  0  0  0  0  0  0  0  0
   -5.8286    3.3058    0.4353 H   0  0  0  0  0  0  0  0  0  0  0  0
   -5.7836    0.8150    0.8647 H   0  0  0  0  0  0  0  0  0  0  0  0
   -5.7808    1.3760   -0.8357 H   0  0  0  0  0  0  0  0  0  0  0  0
  1  2  1  0
  2  3  2  0
  3  4  1  0
  4  5  2  0
  5  6  1  0
  6  7  2  0
  5  8  1  0
  8  9  2  0
  9 10  1  0
 10 11  2  0
 11 12  1  0
 12 13  2  0
 13 14  1  0
 14 15  1  0
 15 16  1  0
 16 17  1  0
 17 18  1  0
 18 19  1  0
 19 20  1  0
 20 21  1  0
 21 22  1  0
 13 23  1  0
 23 24  2  0
  9 25  1  0
 25 26  2  0
 26 27  1  0
 27 28  2  0
 28 29  1  0
 28 30  1  0
 30 31  2  0
 31 32  1  0
 32 33  1  0
 33 34  1  0
  7  2  1  0
 34  8  1  0
 24 10  1  0
 31 25  1  0
 22 17  1  0
  1 35  1  0
  3 36  1  0
  4 37  1  0
  6 38  1  0
  7 39  1  0
 11 40  1  0
 12 41  1  0
 15 42  1  0
 15 43  1  0
 16 44  1  0
 16 45  1  0
 18 46  1  0
 18 47  1  0
 19 48  1  0
 19 49  1  0
 20 50  1  0
 20 51  1  0
 21 52  1  0
 21 53  1  0
 22 54  1  0
 22 55  1  0
 23 56  1  0
 24 57  1  0
 26 58  1  0
 27 59  1  0
 30 60  1  0
 33 61  1  0
 33 62  1  0
 34 63  1  0
 34 64  1  0
M  END
$$$$
[H]Oc1c([H])c([H])c(-c2c([H])c([H])c3c([H])c(O[H])c([H])c([H])c3c2Oc2c([H])c([H])c(OC([H])([H])C([H])([H])N3C([H])([H])C([H])([H])C([H])([H])C([H])([H])C3([H])[H])c([H])c2[H])c([H])c1[H]
     RDKit          3D

 63 67  0  0  0  0  0  0  0  0999 V2000
    5.0665   -5.5759    1.3362 O   0  0  0  0  0  0  0  0  0  0  0  0
    4.7592   -4.2225    1.2173 C   0  0  0  0  0  0  0  0  0  0  0  0
    3.4737   -3.7703    1.1163 C   0  0  0  0  0  0  0  0  0  0  0  0
    3.2064   -2.4077    0.9987 C   0  0  0  0  0  0  0  0  0  0  0  0
    4.2046   -1.5036    0.9806 C   0  0  0  0  0  0  0  0  0  0  0  0
    5.5149   -1.9952    1.0865 C   0  0  0  0  0  0  0  0  0  0  0  0
    5.8200   -3.3235    1.2039 C   0  0  0  0  0  0  0  0  0  0  0  0
    4.1025   -0.0577    0.8362 C   0  0  0  0  0  0  0  0  0  0  0  0
    4.5817    0.7232    1.9052 C   0  0  0  0  0  0  0  0  0  0  0  0
    4.5418    2.0958    1.8495 C   0  0  0  0  0  0  0  0  0  0  0  0
    4.0259    2.7202    0.7311 C   0  0  0  0  0  0  0  0  0  0  0  0
    3.9815    4.1130    0.6435 C   0  0  0  0  0  0  0  0  0  0  0  0
    3.4805    4.7403   -0.4635 C   0  0  0  0  0  0  0  0  0  0  0  0
    3.4505    6.1386   -0.5189 O   0  0  0  0  0  0  0  0  0  0  0  0
    3.0012    4.0157   -1.5336 C   0  0  0  0  0  0  0  0  0  0  0  0
    3.0421    2.6450   -1.4529 C   0  0  0  0  0  0  0  0  0  0  0  0
    3.5442    2.0006   -0.3422 C   0  0  0  0  0  0  0  0  0  0  0  0
    3.5998    0.6031   -0.2496 C   0  0  0  0  0  0  0  0  0  0  0  0
    3.1153   -0.0954   -1.3207 O   0  0  0  0  0  0  0  0  0  0  0  0
    1.7552   -0.2996   -1.4798 C   0  0  0  0  0  0  0  0  0  0  0  0
    1.2527   -1.0338   -2.5371 C   0  0  0  0  0  0  0  0  0  0  0  0
   -0.0867   -1.2222   -2.6765 C   0  0  0  0  0  0  0  0  0  0  0  0
   -1.0423   -0.7029   -1.7852 C   0  0  0  0  0  0  0  0  0  0  0  0
   -2.3654   -0.9510   -2.0212 O   0  0  0  0  0  0  0  0  0  0  0  0
   -3.4875   -0.5894   -1.3175 C   0  0  0  0  0  0  0  0  0  0  0  0
   -3.6362   -1.1260    0.0633 C   0  0  0  0  0  0  0  0  0  0  0  0
   -4.8588   -0.6687    0.7062 N   0  0  0  0  0  0  0  0  0  0  0  0
   -6.0315   -1.2457    0.0666 C   0  0  0  0  0  0  0  0  0  0  0  0
   -7.2089   -0.9924    0.9570 C   0  0  0  0  0  0  0  0  0  0  0  0
   -7.4132    0.4734    1.2499 C   0  0  0  0  0  0  0  0  0  0  0  0
   -6.1220    1.2002    1.5010 C   0  0  0  0  0  0  0  0  0  0  0  0
   -5.0051    0.7719    0.6010 C   0  0  0  0  0  0  0  0  0  0  0  0
   -0.5235    0.0251   -0.7397 C   0  0  0  0  0  0  0  0  0  0  0  0
    0.8431    0.2145   -0.6013 C   0  0  0  0  0  0  0  0  0  0  0  0
    5.2082   -6.0583    0.4380 H   0  0  0  0  0  0  0  0  0  0  0  0
    2.6367   -4.4553    1.1252 H   0  0  0  0  0  0  0  0  0  0  0  0
    2.1928   -2.0916    0.9435 H   0  0  0  0  0  0  0  0  0  0  0  0
    6.3563   -1.3081    1.0775 H   0  0  0  0  0  0  0  0  0  0  0  0
    6.8246   -3.7063    1.2853 H   0  0  0  0  0  0  0  0  0  0  0  0
    4.9827    0.2141    2.7712 H   0  0  0  0  0  0  0  0  0  0  0  0
    4.9012    2.7309    2.6537 H   0  0  0  0  0  0  0  0  0  0  0  0
    4.3592    4.6787    1.4853 H   0  0  0  0  0  0  0  0  0  0  0  0
    2.6487    6.6218   -0.1818 H   0  0  0  0  0  0  0  0  0  0  0  0
    2.6174    4.5644   -2.3792 H   0  0  0  0  0  0  0  0  0  0  0  0
    2.6839    2.0651   -2.2748 H   0  0  0  0  0  0  0  0  0  0  0  0
    1.9346   -1.4519   -3.2456 H   0  0  0  0  0  0  0  0  0  0  0  0
   -0.4608   -1.7926   -3.5003 H   0  0  0  0  0  0  0  0  0  0  0  0
   -4.4341   -0.7285   -1.9083 H   0  0  0  0  0  0  0  0  0  0  0  0
   -3.4474    0.5439   -1.2002 H   0  0  0  0  0  0  0  0  0  0  0  0
   -3.7658   -2.2411   -0.0252 H   0  0  0  0  0  0  0  0  0  0  0  0
   -2.7974   -0.9568    0.7121 H   0  0  0  0  0  0  0  0  0  0  0  0
   -6.2169   -0.7308   -0.9109 H   0  0  0  0  0  0  0  0  0  0  0  0
   -5.9453   -2.3206   -0.1065 H   0  0  0  0  0  0  0  0  0  0  0  0
   -7.1580   -1.6052    1.8832 H   0  0  0  0  0  0  0  0  0  0  0  0
   -8.1226   -1.3443    0.4099 H   0  0  0  0  0  0  0  0  0  0  0  0
   -8.0295    0.5481    2.1717 H   0  0  0  0  0  0  0  0  0  0  0  0
   -8.0099    0.9771    0.4519 H   0  0  0  0  0  0  0  0  0  0  0  0
   -5.8341    1.2051    2.5854 H   0  0  0  0  0  0  0  0  0  0  0  0
   -6.3260    2.2843    1.2564 H   0  0  0  0  0  0  0  0  0  0  0  0
   -4.0884    1.3033    0.9374 H   0  0  0  0  0  0  0  0  0  0  0  0
   -5.2988    1.0827   -0.4430 H   0  0  0  0  0  0  0  0  0  0  0  0
   -1.1696    0.4694   -0.0236 H   0  0  0  0  0  0  0  0  0  0  0  0
    1.1763    0.8053    0.2623 H   0  0  0  0  0  0  0  0  0  0  0  0
  1  2  1  0
  2  3  2  0
  3  4  1  0
  4  5  2  0
  5  6  1  0
  6  7  2  0
  5  8  1  0
  8  9  2  0
  9 10  1  0
 10 11  2  0
 11 12  1  0
 12 13  2  0
 13 14  1  0
 13 15  1  0
 15 16  2  0
 16 17  1  0
 17 18  2  0
 18 19  1  0
 19 20  1  0
 20 21  2  0
 21 22  1  0
 22 23  2  0
 23 24  1  0
 24 25  1  0
 25 26  1  0
 26 27  1  0
 27 28  1  0
 28 29  1  0
 29 30  1  0
 30 31  1  0
 31 32  1  0
 23 33  1  0
 33 34  2  0
  7  2  1  0
 18  8  1  0
 34 20  1  0
 17 11  1  0
 32 27  1  0
  1 35  1  0
  3 36  1  0
  4 37  1  0
  6 38  1  0
  7 39  1  0
  9 40  1  0
 10 41  1  0
 12 42  1  0
 14 43  1  0
 15 44  1  0
 16 45  1  0
 21 46  1  0
 22 47  1  0
 25 48  1  0
 25 49  1  0
 26 50  1  0
 26 51  1  0
 28 52  1  0
 28 53  1  0
 29 54  1  0
 29 55  1  0
 30 56  1  0
 30 57  1  0
 31 58  1  0
 31 59  1  0
 32 60  1  0
 32 61  1  0
 33 62  1  0
 34 63  1  0
M  END
$$$$
[H]Oc1c([H])c([H])c(-c2nc3c([H])c([H])c(O[H])c([H])c3c(C#N)c2[H])c([H])c1[H]
     RDKit          3D

 30 32  0  0  0  0  0  0  0  0999 V2000
   -5.9730    1.5832   -0.1374 O   0  0  0  0  0  0  0  0  0  0  0  0
   -4.6343    1.1725   -0.1006 C   0  0  0  0  0  0  0  0  0  0  0  0
   -4.2976   -0.1588   -0.0329 C   0  0  0  0  0  0  0  0  0  0  0  0
   -2.9673   -0.5993    0.0052 C   0  0  0  0  0  0  0  0  0  0  0  0
   -1.9352    0.2973   -0.0240 C   0  0  0  0  0  0  0  0  0  0  0  0
   -2.2903    1.6487   -0.0928 C   0  0  0  0  0  0  0  0  0  0  0  0
   -3.5968    2.0782   -0.1302 C   0  0  0  0  0  0  0  0  0  0  0  0
   -0.5295   -0.0854    0.0124 C   0  0  0  0  0  0  0  0  0  0  0  0
   -0.1337   -1.3950    0.0797 C   0  0  0  0  0  0  0  0  0  0  0  0
    1.1928   -1.7867    0.1155 C   0  0  0  0  0  0  0  0  0  0  0  0
    1.5522   -3.1912    0.1869 C   0  0  0  0  0  0  0  0  0  0  0  0
    1.8428   -4.3106    0.2500 N   0  0  0  0  0  0  0  0  0  0  0  0
    2.1460   -0.8109    0.0816 C   0  0  0  0  0  0  0  0  0  0  0  0
    3.4699   -1.2083    0.1176 C   0  0  0  0  0  0  0  0  0  0  0  0
    4.4569   -0.2648    0.0856 C   0  0  0  0  0  0  0  0  0  0  0  0
    5.8023   -0.6201    0.1199 O   0  0  0  0  0  0  0  0  0  0  0  0
    4.1009    1.0655    0.0178 C   0  0  0  0  0  0  0  0  0  0  0  0
    2.7644    1.4526   -0.0179 C   0  0  0  0  0  0  0  0  0  0  0  0
    1.7533    0.5083    0.0138 C   0  0  0  0  0  0  0  0  0  0  0  0
    0.4533    0.8432   -0.0189 N   0  0  0  0  0  0  0  0  0  0  0  0
   -6.4978    1.7823    0.7210 H   0  0  0  0  0  0  0  0  0  0  0  0
   -5.1016   -0.8830   -0.0090 H   0  0  0  0  0  0  0  0  0  0  0  0
   -2.7770   -1.6597    0.0581 H   0  0  0  0  0  0  0  0  0  0  0  0
   -1.4737    2.3543   -0.1158 H   0  0  0  0  0  0  0  0  0  0  0  0
   -3.8633    3.1305   -0.1836 H   0  0  0  0  0  0  0  0  0  0  0  0
   -0.8780   -2.1817    0.1074 H   0  0  0  0  0  0  0  0  0  0  0  0
    3.7355   -2.2608    0.1710 H   0  0  0  0  0  0  0  0  0  0  0  0
    6.2948   -0.7885   -0.7374 H   0  0  0  0  0  0  0  0  0  0  0  0
    4.8851    1.8030   -0.0070 H   0  0  0  0  0  0  0  0  0  0  0  0
    2.4990    2.4853   -0.0704 H   0  0  0  0  0  0  0  0  0  0  0  0
  1  2  1  0
  2  3  2  0
  3  4  1  0
  4  5  2  0
  5  6  1  0
  6  7  2  0
  5  8  1  0
  8  9  2  0
  9 10  1  0
 10 11  1  0
 11 12  3  0
 10 13  2  0
 13 14  1  0
 14 15  2  0
 15 16  1  0
 15 17  1  0
 17 18  2  0
 18 19  1  0
 19 20  2  0
  7  2  1  0
 20  8  1  0
 19 13  1  0
  1 21  1  0
  3 22  1  0
  4 23  1  0
  6 24  1  0
  7 25  1  0
  9 26  1  0
 14 27  1  0
 16 28  1  0
 17 29  1  0
 18 30  1  0
M  END
$$$$
[H]Oc1c([H])c([H])c(C2=C(c3c([H])c([H])c(O[H])c([H])c3[H])C([H])([H])c3c([H])c(O[H])c([H])c([H])c32)c([H])c1[H]
     RDKit          3D

 40 43  0  0  0  0  0  0  0  0999 V2000
    5.4636   -2.4183    0.7741 O   0  0  0  0  0  0  0  0  0  0  0  0
    4.3173   -1.6388    0.5739 C   0  0  0  0  0  0  0  0  0  0  0  0
    4.2905   -0.6150   -0.3479 C   0  0  0  0  0  0  0  0  0  0  0  0
    3.1551    0.1421   -0.5313 C   0  0  0  0  0  0  0  0  0  0  0  0
    1.9765   -0.0789    0.1966 C   0  0  0  0  0  0  0  0  0  0  0  0
    2.0415   -1.1115    1.1088 C   0  0  0  0  0  0  0  0  0  0  0  0
    3.1698   -1.8710    1.2973 C   0  0  0  0  0  0  0  0  0  0  0  0
    0.8056    0.7501   -0.0073 C   0  0  0  0  0  0  0  0  0  0  0  0
   -0.4404    0.3710   -0.1032 C   0  0  0  0  0  0  0  0  0  0  0  0
   -1.3052    1.5555   -0.3071 C   0  0  0  0  0  0  0  0  0  0  0  0
   -2.6528    1.7639   -0.4733 C   0  0  0  0  0  0  0  0  0  0  0  0
   -3.2083    3.0103   -0.6529 C   0  0  0  0  0  0  0  0  0  0  0  0
   -2.4030    4.1193   -0.6721 C   0  0  0  0  0  0  0  0  0  0  0  0
   -2.9450    5.4084   -0.8545 O   0  0  0  0  0  0  0  0  0  0  0  0
   -1.0469    3.9515   -0.5094 C   0  0  0  0  0  0  0  0  0  0  0  0
   -0.5151    2.6963   -0.3311 C   0  0  0  0  0  0  0  0  0  0  0  0
    0.8737    2.2316   -0.1377 C   0  0  0  0  0  0  0  0  0  0  0  0
   -0.9969   -0.9657   -0.0701 C   0  0  0  0  0  0  0  0  0  0  0  0
   -2.1175   -1.2768    0.7017 C   0  0  0  0  0  0  0  0  0  0  0  0
   -2.6682   -2.5188    0.7181 C   0  0  0  0  0  0  0  0  0  0  0  0
   -2.1460   -3.5444   -0.0309 C   0  0  0  0  0  0  0  0  0  0  0  0
   -2.7463   -4.7904    0.0206 O   0  0  0  0  0  0  0  0  0  0  0  0
   -1.0463   -3.2844   -0.8013 C   0  0  0  0  0  0  0  0  0  0  0  0
   -0.4851   -2.0069   -0.8147 C   0  0  0  0  0  0  0  0  0  0  0  0
    6.1794   -2.1683    1.4610 H   0  0  0  0  0  0  0  0  0  0  0  0
    5.1945   -0.4211   -0.9278 H   0  0  0  0  0  0  0  0  0  0  0  0
    3.1095    0.9491   -1.2474 H   0  0  0  0  0  0  0  0  0  0  0  0
    1.1879   -1.3532    1.7178 H   0  0  0  0  0  0  0  0  0  0  0  0
    3.1830   -2.6756    2.0273 H   0  0  0  0  0  0  0  0  0  0  0  0
   -3.3000    0.8770   -0.4642 H   0  0  0  0  0  0  0  0  0  0  0  0
   -4.2653    3.0819   -0.7745 H   0  0  0  0  0  0  0  0  0  0  0  0
   -3.2075    5.8898   -0.0108 H   0  0  0  0  0  0  0  0  0  0  0  0
   -0.4390    4.8555   -0.5326 H   0  0  0  0  0  0  0  0  0  0  0  0
    1.3831    2.7026    0.7090 H   0  0  0  0  0  0  0  0  0  0  0  0
    1.4349    2.4879   -1.0590 H   0  0  0  0  0  0  0  0  0  0  0  0
   -2.5253   -0.4847    1.2951 H   0  0  0  0  0  0  0  0  0  0  0  0
   -3.5327   -2.7137    1.3254 H   0  0  0  0  0  0  0  0  0  0  0  0
   -3.5447   -4.9613    0.5859 H   0  0  0  0  0  0  0  0  0  0  0  0
   -0.6158   -4.0847   -1.4000 H   0  0  0  0  0  0  0  0  0  0  0  0
    0.3877   -1.8605   -1.4513 H   0  0  0  0  0  0  0  0  0  0  0  0
  1  2  1  0
  2  3  2  0
  3  4  1  0
  4  5  2  0
  5  6  1  0
  6  7  2  0
  5  8  1  0
  8  9  2  0
  9 10  1  0
 10 11  2  0
 11 12  1  0
 12 13  2  0
 13 14  1  0
 13 15  1  0
 15 16  2  0
 16 17  1  0
  9 18  1  0
 18 19  2  0
 19 20  1  0
 20 21  2  0
 21 22  1  0
 21 23  1  0
 23 24  2  0
  7  2  1  0
 17  8  1  0
 24 18  1  0
 16 10  1  0
  1 25  1  0
  3 26  1  0
  4 27  1  0
  6 28  1  0
  7 29  1  0
 11 30  1  0
 12 31  1  0
 14 32  1  0
 15 33  1  0
 17 34  1  0
 17 35  1  0
 19 36  1  0
 20 37  1  0
 22 38  1  0
 23 39  1  0
 24 40  1  0
M  END
$$$$
[H]Oc1c([H])c([H])c(-c2nc3c([H])c(O[H])c([H])c(C#N)c3o2)c([H])c1[H]
     RDKit          3D

 27 29  0  0  0  0  0  0  0  0999 V2000
   -5.8476   -0.4133    0.1468 O   0  0  0  0  0  0  0  0  0  0  0  0
   -4.4481   -0.2809    0.1512 C   0  0  0  0  0  0  0  0  0  0  0  0
   -3.6873   -1.4265    0.0430 C   0  0  0  0  0  0  0  0  0  0  0  0
   -2.3062   -1.2786    0.0489 C   0  0  0  0  0  0  0  0  0  0  0  0
   -1.7255   -0.0361    0.1586 C   0  0  0  0  0  0  0  0  0  0  0  0
   -2.4958    1.0989    0.2660 C   0  0  0  0  0  0  0  0  0  0  0  0
   -3.8668    0.9644    0.2613 C   0  0  0  0  0  0  0  0  0  0  0  0
   -0.2784    0.1306    0.1659 C   0  0  0  0  0  0  0  0  0  0  0  0
    0.4317    1.2664    0.2652 N   0  0  0  0  0  0  0  0  0  0  0  0
    1.7317    0.9632    0.2305 C   0  0  0  0  0  0  0  0  0  0  0  0
    2.9203    1.6670    0.2880 C   0  0  0  0  0  0  0  0  0  0  0  0
    4.1404    1.0025    0.2209 C   0  0  0  0  0  0  0  0  0  0  0  0
    5.3333    1.7180    0.2794 O   0  0  0  0  0  0  0  0  0  0  0  0
    4.1942   -0.3730    0.0956 C   0  0  0  0  0  0  0  0  0  0  0  0
    3.0058   -1.0816    0.0377 C   0  0  0  0  0  0  0  0  0  0  0  0
    2.9767   -2.5223   -0.0931 C   0  0  0  0  0  0  0  0  0  0  0  0
    2.9522   -3.6706   -0.2176 N   0  0  0  0  0  0  0  0  0  0  0  0
    1.8057   -0.4170    0.1047 C   0  0  0  0  0  0  0  0  0  0  0  0
    0.5673   -0.8653    0.0707 O   0  0  0  0  0  0  0  0  0  0  0  0
   -6.2801   -0.3690   -0.7866 H   0  0  0  0  0  0  0  0  0  0  0  0
   -4.1642   -2.4077   -0.0436 H   0  0  0  0  0  0  0  0  0  0  0  0
   -1.6934   -2.1539   -0.0340 H   0  0  0  0  0  0  0  0  0  0  0  0
   -2.0559    2.0892    0.3536 H   0  0  0  0  0  0  0  0  0  0  0  0
   -4.5037    1.8598    0.3461 H   0  0  0  0  0  0  0  0  0  0  0  0
    2.8638    2.7477    0.3866 H   0  0  0  0  0  0  0  0  0  0  0  0
    5.3088    2.7176    0.3704 H   0  0  0  0  0  0  0  0  0  0  0  0
    5.1212   -0.9294    0.0399 H   0  0  0  0  0  0  0  0  0  0  0  0
  1  2  1  0
  2  3  2  0
  3  4  1  0
  4  5  2  0
  5  6  1  0
  6  7  2  0
  5  8  1  0
  8  9  2  0
  9 10  1  0
 10 11  2  0
 11 12  1  0
 12 13  1  0
 12 14  2  0
 14 15  1  0
 15 16  1  0
 16 17  3  0
 15 18  2  0
 18 19  1  0
  7  2  1  0
 19  8  1  0
 18 10  1  0
  1 20  1  0
  3 21  1  0
  4 22  1  0
  6 23  1  0
  7 24  1  0
 11 25  1  0
 13 26  1  0
 14 27  1  0
M  END
$$$$
[H]Oc1c([H])c([H])c(-c2noc3c([H])c(O[H])c([H])c([H])c23)c([H])c1F
     RDKit          3D

 26 28  0  0  0  0  0  0  0  0999 V2000
   -5.2757   -0.6134   -0.0771 O   0  0  0  0  0  0  0  0  0  0  0  0
   -3.9271   -0.3202    0.0359 C   0  0  0  0  0  0  0  0  0  0  0  0
   -2.9684   -1.1531   -0.5081 C   0  0  0  0  0  0  0  0  0  0  0  0
   -1.6290   -0.8354   -0.3800 C   0  0  0  0  0  0  0  0  0  0  0  0
   -1.2921    0.3164    0.2949 C   0  0  0  0  0  0  0  0  0  0  0  0
   -0.0763    0.8779    0.5749 C   0  0  0  0  0  0  0  0  0  0  0  0
   -0.3625    2.0161    1.2706 N   0  0  0  0  0  0  0  0  0  0  0  0
   -1.6235    2.1574    1.4140 O   0  0  0  0  0  0  0  0  0  0  0  0
   -2.2406    1.1524    0.8402 C   0  0  0  0  0  0  0  0  0  0  0  0
   -3.5670    0.8417    0.7157 C   0  0  0  0  0  0  0  0  0  0  0  0
    1.2731    0.4193    0.2371 C   0  0  0  0  0  0  0  0  0  0  0  0
    2.2000    1.3161   -0.2569 C   0  0  0  0  0  0  0  0  0  0  0  0
    3.4866    0.9435   -0.5929 C   0  0  0  0  0  0  0  0  0  0  0  0
    3.8940   -0.3655   -0.4417 C   0  0  0  0  0  0  0  0  0  0  0  0
    5.1781   -0.8027   -0.7630 O   0  0  0  0  0  0  0  0  0  0  0  0
    2.9698   -1.2634    0.0517 C   0  0  0  0  0  0  0  0  0  0  0  0
    3.3849   -2.5648    0.1987 F   0  0  0  0  0  0  0  0  0  0  0  0
    1.6755   -0.8917    0.3904 C   0  0  0  0  0  0  0  0  0  0  0  0
   -5.5523   -1.4454   -0.5630 H   0  0  0  0  0  0  0  0  0  0  0  0
   -3.2765   -2.0428   -1.0272 H   0  0  0  0  0  0  0  0  0  0  0  0
   -0.8556   -1.4650   -0.7935 H   0  0  0  0  0  0  0  0  0  0  0  0
   -4.3229    1.4960    1.1432 H   0  0  0  0  0  0  0  0  0  0  0  0
    1.8680    2.3487   -0.3728 H   0  0  0  0  0  0  0  0  0  0  0  0
    4.2023    1.6582   -0.9792 H   0  0  0  0  0  0  0  0  0  0  0  0
    5.8622   -0.1560   -1.1243 H   0  0  0  0  0  0  0  0  0  0  0  0
    0.9749   -1.6244    0.7757 H   0  0  0  0  0  0  0  0  0  0  0  0
  1  2  1  0
  2  3  2  0
  3  4  1  0
  4  5  2  0
  5  6  1  0
  6  7  2  0
  7  8  1  0
  8  9  1  0
  9 10  2  0
  6 11  1  0
 11 12  2  0
 12 13  1  0
 13 14  2  0
 14 15  1  0
 14 16  1  0
 16 17  1  0
 16 18  2  0
 10  2  1  0
 18 11  1  0
  9  5  1  0
  1 19  1  0
  3 20  1  0
  4 21  1  0
 10 22  1  0
 12 23  1  0
 13 24  1  0
 15 25  1  0
 18 26  1  0
M  END
$$$$
[H]Oc1c([H])c([H])c(-c2nc3c([H])c(O[H])c([H])c(Br)c3o2)c([H])c1[H]
     RDKit          3D

 26 28  0  0  0  0  0  0  0  0999 V2000
    5.7545    0.5448    0.6543 O   0  0  0  0  0  0  0  0  0  0  0  0
    4.3758    0.4166    0.4486 C   0  0  0  0  0  0  0  0  0  0  0  0
    3.8252    0.6280   -0.7835 C   0  0  0  0  0  0  0  0  0  0  0  0
    2.4478    0.4934   -0.9603 C   0  0  0  0  0  0  0  0  0  0  0  0
    1.6538    0.1525    0.0909 C   0  0  0  0  0  0  0  0  0  0  0  0
    2.2448   -0.0527    1.3180 C   0  0  0  0  0  0  0  0  0  0  0  0
    3.5921    0.0680    1.5391 C   0  0  0  0  0  0  0  0  0  0  0  0
    0.1932   -0.0044   -0.0348 C   0  0  0  0  0  0  0  0  0  0  0  0
   -0.5336    0.1591   -1.1548 N   0  0  0  0  0  0  0  0  0  0  0  0
   -1.8464   -0.0671   -0.8945 C   0  0  0  0  0  0  0  0  0  0  0  0
   -3.0040   -0.0494   -1.6159 C   0  0  0  0  0  0  0  0  0  0  0  0
   -4.2452   -0.3281   -1.0863 C   0  0  0  0  0  0  0  0  0  0  0  0
   -5.4132   -0.3037   -1.8429 O   0  0  0  0  0  0  0  0  0  0  0  0
   -4.2810   -0.6421    0.2684 C   0  0  0  0  0  0  0  0  0  0  0  0
   -3.1203   -0.6649    1.0140 C   0  0  0  0  0  0  0  0  0  0  0  0
   -3.2196   -1.0993    2.8608 Br  0  0  0  0  0  0  0  0  0  0  0  0
   -1.8828   -0.3785    0.4486 C   0  0  0  0  0  0  0  0  0  0  0  0
   -0.6552   -0.3277    0.9090 O   0  0  0  0  0  0  0  0  0  0  0  0
    6.1788    0.3929    1.5551 H   0  0  0  0  0  0  0  0  0  0  0  0
    4.4213    0.8975   -1.6316 H   0  0  0  0  0  0  0  0  0  0  0  0
    1.9839    0.6545   -1.9237 H   0  0  0  0  0  0  0  0  0  0  0  0
    1.6169   -0.3235    2.1546 H   0  0  0  0  0  0  0  0  0  0  0  0
    4.0143   -0.1040    2.5270 H   0  0  0  0  0  0  0  0  0  0  0  0
   -2.9494    0.1969   -2.6640 H   0  0  0  0  0  0  0  0  0  0  0  0
   -5.8981    0.6015   -1.8782 H   0  0  0  0  0  0  0  0  0  0  0  0
   -5.2538   -0.8601    0.6821 H   0  0  0  0  0  0  0  0  0  0  0  0
  1  2  1  0
  2  3  2  0
  3  4  1  0
  4  5  2  0
  5  6  1  0
  6  7  2  0
  5  8  1  0
  8  9  2  0
  9 10  1  0
 10 11  2  0
 11 12  1  0
 12 13  1  0
 12 14  2  0
 14 15  1  0
 15 16  1  0
 15 17  2  0
 17 18  1  0
  7  2  1  0
 18  8  1  0
 17 10  1  0
  1 19  1  0
  3 20  1  0
  4 21  1  0
  6 22  1  0
  7 23  1  0
 11 24  1  0
 13 25  1  0
 14 26  1  0
M  END
$$$$
[H]Oc1c([H])c([H])c(-c2sc3c([H])c(O[H])c([H])c([H])c3c2C(=O)c2c([H])c([H])c([H])c([H])c2[H])c([H])c1[H]
     RDKit          3D

 39 42  0  0  0  0  0  0  0  0999 V2000
    5.4375   -3.5347   -0.1070 O   0  0  0  0  0  0  0  0  0  0  0  0
    4.4099   -2.5998   -0.0789 C   0  0  0  0  0  0  0  0  0  0  0  0
    4.7651   -1.3011    0.1429 C   0  0  0  0  0  0  0  0  0  0  0  0
    3.7682   -0.3701    0.1731 C   0  0  0  0  0  0  0  0  0  0  0  0
    2.4091   -0.6637   -0.0079 C   0  0  0  0  0  0  0  0  0  0  0  0
    2.0937   -1.9522   -0.2223 C   0  0  0  0  0  0  0  0  0  0  0  0
    3.1008   -2.9278   -0.2592 C   0  0  0  0  0  0  0  0  0  0  0  0
    1.4643    0.4671    0.1252 C   0  0  0  0  0  0  0  0  0  0  0  0
    1.8548    1.9762    0.8945 S   0  0  0  0  0  0  0  0  0  0  0  0
    0.3825    2.7869    0.6636 C   0  0  0  0  0  0  0  0  0  0  0  0
   -0.0960    4.0642    1.0195 C   0  0  0  0  0  0  0  0  0  0  0  0
   -1.3750    4.4404    0.6967 C   0  0  0  0  0  0  0  0  0  0  0  0
   -1.8920    5.6776    1.0212 O   0  0  0  0  0  0  0  0  0  0  0  0
   -2.1497    3.5295    0.0233 C   0  0  0  0  0  0  0  0  0  0  0  0
   -1.6764    2.2943   -0.3172 C   0  0  0  0  0  0  0  0  0  0  0  0
   -0.3772    1.8789   -0.0030 C   0  0  0  0  0  0  0  0  0  0  0  0
    0.1905    0.6676   -0.2858 C   0  0  0  0  0  0  0  0  0  0  0  0
   -0.5278   -0.3705   -1.1020 C   0  0  0  0  0  0  0  0  0  0  0  0
   -0.0152   -0.6579   -2.2287 O   0  0  0  0  0  0  0  0  0  0  0  0
   -1.7430   -1.0167   -0.6491 C   0  0  0  0  0  0  0  0  0  0  0  0
   -2.5907   -1.5759   -1.6099 C   0  0  0  0  0  0  0  0  0  0  0  0
   -3.7682   -2.1982   -1.2737 C   0  0  0  0  0  0  0  0  0  0  0  0
   -4.1621   -2.2948    0.0382 C   0  0  0  0  0  0  0  0  0  0  0  0
   -3.3470   -1.7526    1.0067 C   0  0  0  0  0  0  0  0  0  0  0  0
   -2.1472   -1.1196    0.6615 C   0  0  0  0  0  0  0  0  0  0  0  0
    5.6797   -3.9666    0.7808 H   0  0  0  0  0  0  0  0  0  0  0  0
    5.8088   -0.9916    0.2914 H   0  0  0  0  0  0  0  0  0  0  0  0
    4.0302    0.6563    0.3432 H   0  0  0  0  0  0  0  0  0  0  0  0
    1.0870   -2.2753   -0.3368 H   0  0  0  0  0  0  0  0  0  0  0  0
    2.8303   -3.9651   -0.4345 H   0  0  0  0  0  0  0  0  0  0  0  0
    0.5720    4.7053    1.5392 H   0  0  0  0  0  0  0  0  0  0  0  0
   -1.4091    6.4068    1.5096 H   0  0  0  0  0  0  0  0  0  0  0  0
   -3.1871    3.8152   -0.2453 H   0  0  0  0  0  0  0  0  0  0  0  0
   -2.3853    1.6565   -0.8466 H   0  0  0  0  0  0  0  0  0  0  0  0
   -2.3433   -1.5377   -2.6731 H   0  0  0  0  0  0  0  0  0  0  0  0
   -4.4204   -2.6324   -2.0220 H   0  0  0  0  0  0  0  0  0  0  0  0
   -5.0863   -2.7819    0.3169 H   0  0  0  0  0  0  0  0  0  0  0  0
   -3.6682   -1.8342    2.0296 H   0  0  0  0  0  0  0  0  0  0  0  0
   -1.5171   -0.7024    1.4256 H   0  0  0  0  0  0  0  0  0  0  0  0
  1  2  1  0
  2  3  2  0
  3  4  1  0
  4  5  2  0
  5  6  1  0
  6  7  2  0
  5  8  1  0
  8  9  1  0
  9 10  1  0
 10 11  2  0
 11 12  1  0
 12 13  1  0
 12 14  2  0
 14 15  1  0
 15 16  2  0
 16 17  1  0
 17 18  1  0
 18 19  2  0
 18 20  1  0
 20 21  2  0
 21 22  1  0
 22 23  2  0
 23 24  1  0
 24 25  2  0
  7  2  1  0
 17  8  2  0
 25 20  1  0
 16 10  1  0
  1 26  1  0
  3 27  1  0
  4 28  1  0
  6 29  1  0
  7 30  1  0
 11 31  1  0
 13 32  1  0
 14 33  1  0
 15 34  1  0
 21 35  1  0
 22 36  1  0
 23 37  1  0
 24 38  1  0
 25 39  1  0
M  END
$$$$
