[H]O[C@@]1([H])C([H])([H])C([H])([H])[C@]2([H])[C@]1(C([H])([H])[H])C([H])([H])C([H])([H])[C@]1([H])[C@]3(C([H])([H])[H])C(=C([H])C(=O)C([H])([H])C3([H])[H])C([H])([H])C([H])([H])[C@@]21[H]
     RDKit          3D

 49 52  0  0  0  0  0  0  0  0999 V2000
    2.6003    1.3949    0.7370 C   0  0  0  0  0  0  0  0  0  0  0  0
    2.3315    0.4990   -0.4424 C   0  0  2  0  0  0  0  0  0  0  0  0
    1.5103    1.1614   -1.4949 C   0  0  0  0  0  0  0  0  0  0  0  0
    0.1483    1.4556   -0.9170 C   0  0  0  0  0  0  0  0  0  0  0  0
   -0.5369    0.1560   -0.5507 C   0  0  1  0  0  0  0  0  0  0  0  0
    0.2754   -0.6369    0.4710 C   0  0  1  0  0  0  0  0  0  0  0  0
   -0.3169   -2.0384    0.5263 C   0  0  0  0  0  0  0  0  0  0  0  0
   -1.7749   -2.0482    0.8169 C   0  0  0  0  0  0  0  0  0  0  0  0
   -2.5405   -0.9871    0.1457 C   0  0  0  0  0  0  0  0  0  0  0  0
   -3.7658   -1.2727   -0.2625 C   0  0  0  0  0  0  0  0  0  0  0  0
   -4.6079   -0.3042   -0.9341 C   0  0  0  0  0  0  0  0  0  0  0  0
   -5.6066   -0.6232   -1.6118 O   0  0  0  0  0  0  0  0  0  0  0  0
   -4.2087    1.1393   -0.7699 C   0  0  0  0  0  0  0  0  0  0  0  0
   -2.7163    1.1869   -1.0278 C   0  0  0  0  0  0  0  0  0  0  0  0
   -1.9296    0.3620   -0.0560 C   0  0  2  0  0  0  0  0  0  0  0  0
   -1.9459    1.0713    1.2829 C   0  0  0  0  0  0  0  0  0  0  0  0
    1.6457   -0.7900   -0.0472 C   0  0  2  0  0  0  0  0  0  0  0  0
    2.6444   -1.3862    0.8737 C   0  0  0  0  0  0  0  0  0  0  0  0
    3.9631   -1.0731    0.1623 C   0  0  0  0  0  0  0  0  0  0  0  0
    3.6050   -0.1289   -0.9688 C   0  0  2  0  0  0  0  0  0  0  0  0
    4.5812    0.7519   -1.2889 O   0  0  0  0  0  0  0  0  0  0  0  0
    3.6756    1.2716    1.0471 H   0  0  0  0  0  0  0  0  0  0  0  0
    1.9625    1.2047    1.6015 H   0  0  0  0  0  0  0  0  0  0  0  0
    2.4819    2.4492    0.4115 H   0  0  0  0  0  0  0  0  0  0  0  0
    1.9872    2.1545   -1.7263 H   0  0  0  0  0  0  0  0  0  0  0  0
    1.4562    0.5158   -2.3781 H   0  0  0  0  0  0  0  0  0  0  0  0
   -0.4734    1.9510   -1.6671 H   0  0  0  0  0  0  0  0  0  0  0  0
    0.2714    2.1214   -0.0498 H   0  0  0  0  0  0  0  0  0  0  0  0
   -0.5888   -0.4547   -1.4753 H   0  0  0  0  0  0  0  0  0  0  0  0
    0.1940   -0.1895    1.4684 H   0  0  0  0  0  0  0  0  0  0  0  0
   -0.0876   -2.5040   -0.4691 H   0  0  0  0  0  0  0  0  0  0  0  0
    0.2474   -2.5825    1.3004 H   0  0  0  0  0  0  0  0  0  0  0  0
   -2.1698   -3.0559    0.5263 H   0  0  0  0  0  0  0  0  0  0  0  0
   -1.9002   -2.0016    1.9294 H   0  0  0  0  0  0  0  0  0  0  0  0
   -4.1853   -2.2671   -0.1012 H   0  0  0  0  0  0  0  0  0  0  0  0
   -4.4637    1.4087    0.2637 H   0  0  0  0  0  0  0  0  0  0  0  0
   -4.7180    1.7173   -1.5432 H   0  0  0  0  0  0  0  0  0  0  0  0
   -2.5697    0.8169   -2.0700 H   0  0  0  0  0  0  0  0  0  0  0  0
   -2.4147    2.2480   -0.9356 H   0  0  0  0  0  0  0  0  0  0  0  0
   -2.6695    1.9362    1.2729 H   0  0  0  0  0  0  0  0  0  0  0  0
   -2.2828    0.4031    2.1004 H   0  0  0  0  0  0  0  0  0  0  0  0
   -0.9566    1.5164    1.5155 H   0  0  0  0  0  0  0  0  0  0  0  0
    1.6091   -1.4204   -0.9702 H   0  0  0  0  0  0  0  0  0  0  0  0
    2.6340   -0.7940    1.8359 H   0  0  0  0  0  0  0  0  0  0  0  0
    2.5188   -2.4554    1.0564 H   0  0  0  0  0  0  0  0  0  0  0  0
    4.3735   -2.0337   -0.2265 H   0  0  0  0  0  0  0  0  0  0  0  0
    4.6899   -0.6220    0.8558 H   0  0  0  0  0  0  0  0  0  0  0  0
    3.3380   -0.7531   -1.8418 H   0  0  0  0  0  0  0  0  0  0  0  0
    4.6855    1.5297   -0.7163 H   0  0  0  0  0  0  0  0  0  0  0  0
  2  1  1  1
  2  3  1  0
  3  4  1  0
  4  5  1  0
  5  6  1  0
  6  7  1  0
  7  8  1  0
  8  9  1  0
  9 10  2  0
 10 11  1  0
 11 12  2  0
 11 13  1  0
 13 14  1  0
 14 15  1  0
 15 16  1  1
  6 17  1  0
 17 18  1  0
 18 19  1  0
 19 20  1  0
 20 21  1  0
 17  2  1  0
 20  2  1  0
 15  5  1  0
 15  9  1  0
  1 22  1  0
  1 23  1  0
  1 24  1  0
  3 25  1  0
  3 26  1  0
  4 27  1  0
  4 28  1  0
  5 29  1  6
  6 30  1  1
  7 31  1  0
  7 32  1  0
  8 33  1  0
  8 34  1  0
 10 35  1  0
 13 36  1  0
 13 37  1  0
 14 38  1  0
 14 39  1  0
 16 40  1  0
 16 41  1  0
 16 42  1  0
 17 43  1  6
 18 44  1  0
 18 45  1  0
 19 46  1  0
 19 47  1  0
 20 48  1  6
 21 49  1  0
M  END
$$$$
[H]Oc1c([H])c([H])c2c(c1[H])C([H])([H])C([H])([H])[C@]1([H])[C@]2([H])C([H])([H])C([H])([H])[C@]2(C([H])([H])[H])[C@@]([H])(O[H])C([H])([H])C([H])([H])[C@]21[H]
     RDKit          3D

 44 47  0  0  0  0  0  0  0  0999 V2000
   -2.2616   -0.7647    1.3456 C   0  0  0  0  0  0  0  0  0  0  0  0
   -2.1872   -0.4820   -0.1355 C   0  0  2  0  0  0  0  0  0  0  0  0
   -1.4972   -1.6125   -0.8188 C   0  0  0  0  0  0  0  0  0  0  0  0
   -0.0355   -1.6614   -0.5111 C   0  0  0  0  0  0  0  0  0  0  0  0
    0.6317   -0.3276   -0.6087 C   0  0  1  0  0  0  0  0  0  0  0  0
   -0.1167    0.7120    0.2397 C   0  0  1  0  0  0  0  0  0  0  0  0
    0.6973    1.9517    0.3346 C   0  0  0  0  0  0  0  0  0  0  0  0
    1.8991    1.6281    1.2348 C   0  0  0  0  0  0  0  0  0  0  0  0
    2.6681    0.5258    0.5618 C   0  0  0  0  0  0  0  0  0  0  0  0
    4.0208    0.4137    0.8075 C   0  0  0  0  0  0  0  0  0  0  0  0
    4.8096   -0.5725    0.2292 C   0  0  0  0  0  0  0  0  0  0  0  0
    6.1817   -0.6599    0.4990 O   0  0  0  0  0  0  0  0  0  0  0  0
    4.1863   -1.4604   -0.6201 C   0  0  0  0  0  0  0  0  0  0  0  0
    2.8307   -1.3536   -0.8705 C   0  0  0  0  0  0  0  0  0  0  0  0
    2.0522   -0.3730   -0.2941 C   0  0  0  0  0  0  0  0  0  0  0  0
   -1.4489    0.8431   -0.3896 C   0  0  2  0  0  0  0  0  0  0  0  0
   -2.3800    1.8245    0.1898 C   0  0  0  0  0  0  0  0  0  0  0  0
   -3.7490    1.2757   -0.1912 C   0  0  0  0  0  0  0  0  0  0  0  0
   -3.5339   -0.1411   -0.6696 C   0  0  2  0  0  0  0  0  0  0  0  0
   -4.4822   -1.0192   -0.1693 O   0  0  0  0  0  0  0  0  0  0  0  0
   -3.3190   -1.0974    1.5551 H   0  0  0  0  0  0  0  0  0  0  0  0
   -1.6242   -1.6159    1.6570 H   0  0  0  0  0  0  0  0  0  0  0  0
   -2.0942    0.1160    1.9735 H   0  0  0  0  0  0  0  0  0  0  0  0
   -1.7135   -1.6572   -1.9098 H   0  0  0  0  0  0  0  0  0  0  0  0
   -1.9450   -2.5631   -0.4048 H   0  0  0  0  0  0  0  0  0  0  0  0
    0.1510   -2.1510    0.4861 H   0  0  0  0  0  0  0  0  0  0  0  0
    0.4339   -2.3403   -1.2525 H   0  0  0  0  0  0  0  0  0  0  0  0
    0.5187    0.0259   -1.6572 H   0  0  0  0  0  0  0  0  0  0  0  0
   -0.1882    0.2644    1.2522 H   0  0  0  0  0  0  0  0  0  0  0  0
    1.1649    2.2436   -0.6508 H   0  0  0  0  0  0  0  0  0  0  0  0
    0.1574    2.7804    0.7893 H   0  0  0  0  0  0  0  0  0  0  0  0
    2.5196    2.5130    1.4035 H   0  0  0  0  0  0  0  0  0  0  0  0
    1.4780    1.1823    2.1542 H   0  0  0  0  0  0  0  0  0  0  0  0
    4.5228    1.1037    1.4718 H   0  0  0  0  0  0  0  0  0  0  0  0
    6.5756    0.0194    1.1283 H   0  0  0  0  0  0  0  0  0  0  0  0
    4.7934   -2.2292   -1.0728 H   0  0  0  0  0  0  0  0  0  0  0  0
    2.4286   -2.0954   -1.5517 H   0  0  0  0  0  0  0  0  0  0  0  0
   -1.3743    0.9848   -1.4780 H   0  0  0  0  0  0  0  0  0  0  0  0
   -2.2899    2.0186    1.2621 H   0  0  0  0  0  0  0  0  0  0  0  0
   -2.2758    2.8067   -0.3367 H   0  0  0  0  0  0  0  0  0  0  0  0
   -4.1755    1.8381   -1.0706 H   0  0  0  0  0  0  0  0  0  0  0  0
   -4.4356    1.2437    0.6584 H   0  0  0  0  0  0  0  0  0  0  0  0
   -3.4818   -0.1892   -1.7851 H   0  0  0  0  0  0  0  0  0  0  0  0
   -4.1124   -1.9488   -0.1478 H   0  0  0  0  0  0  0  0  0  0  0  0
  2  1  1  1
  2  3  1  0
  3  4  1  0
  4  5  1  0
  5  6  1  0
  6  7  1  0
  7  8  1  0
  8  9  1  0
  9 10  2  0
 10 11  1  0
 11 12  1  0
 11 13  2  0
 13 14  1  0
 14 15  2  0
  6 16  1  0
 16 17  1  0
 17 18  1  0
 18 19  1  0
 19 20  1  0
 16  2  1  0
 19  2  1  0
 15  5  1  0
 15  9  1  0
  1 21  1  0
  1 22  1  0
  1 23  1  0
  3 24  1  0
  3 25  1  0
  4 26  1  0
  4 27  1  0
  5 28  1  6
  6 29  1  1
  7 30  1  0
  7 31  1  0
  8 32  1  0
  8 33  1  0
 10 34  1  0
 12 35  1  0
 13 36  1  0
 14 37  1  0
 16 38  1  6
 17 39  1  0
 17 40  1  0
 18 41  1  0
 18 42  1  0
 19 43  1  6
 20 44  1  0
M  END
$$$$
[H]C#C[C@]1(O[H])C([H])([H])C([H])([H])[C@]2([H])[C@]1(C([H])([H])[H])C([H])([H])C([H])([H])[C@]1([H])c3c([H])c([H])c(O[H])c([H])c3C([H])([H])C([H])([H])[C@]12[H]
     RDKit          3D

 46 49  0  0  0  0  0  0  0  0999 V2000
    1.7068    0.6022   -1.6366 C   0  0  0  0  0  0  0  0  0  0  0  0
    1.9001   -0.2982   -0.4656 C   0  0  2  0  0  0  0  0  0  0  0  0
    1.2587   -1.6298   -0.6581 C   0  0  0  0  0  0  0  0  0  0  0  0
   -0.2243   -1.4684   -0.7962 C   0  0  0  0  0  0  0  0  0  0  0  0
   -0.8554   -0.6372    0.2739 C   0  0  1  0  0  0  0  0  0  0  0  0
   -0.0932    0.6670    0.5139 C   0  0  1  0  0  0  0  0  0  0  0  0
   -0.7573    1.4815    1.5610 C   0  0  0  0  0  0  0  0  0  0  0  0
   -2.2222    1.3213    1.7156 C   0  0  0  0  0  0  0  0  0  0  0  0
   -2.9114    0.6127    0.6328 C   0  0  0  0  0  0  0  0  0  0  0  0
   -4.2168    0.9181    0.3399 C   0  0  0  0  0  0  0  0  0  0  0  0
   -4.8958    0.2518   -0.6904 C   0  0  0  0  0  0  0  0  0  0  0  0
   -6.2135    0.5312   -1.0168 O   0  0  0  0  0  0  0  0  0  0  0  0
   -4.2353   -0.7270   -1.4190 C   0  0  0  0  0  0  0  0  0  0  0  0
   -2.9235   -1.0285   -1.1189 C   0  0  0  0  0  0  0  0  0  0  0  0
   -2.2600   -0.3537   -0.0871 C   0  0  0  0  0  0  0  0  0  0  0  0
    1.3047    0.2708    0.8234 C   0  0  2  0  0  0  0  0  0  0  0  0
    2.2408    1.3570    1.1658 C   0  0  0  0  0  0  0  0  0  0  0  0
    3.5922    0.6847    0.9600 C   0  0  0  0  0  0  0  0  0  0  0  0
    3.3584   -0.3611   -0.1105 C   0  0  2  0  0  0  0  0  0  0  0  0
    4.1282    0.0365   -1.2275 O   0  0  0  0  0  0  0  0  0  0  0  0
    3.7922   -1.6813    0.2744 C   0  0  0  0  0  0  0  0  0  0  0  0
    4.1565   -2.7808    0.5998 C   0  0  0  0  0  0  0  0  0  0  0  0
    1.8831    1.6629   -1.4324 H   0  0  0  0  0  0  0  0  0  0  0  0
    2.4789    0.3088   -2.4067 H   0  0  0  0  0  0  0  0  0  0  0  0
    0.7381    0.5066   -2.1459 H   0  0  0  0  0  0  0  0  0  0  0  0
    1.6383   -2.1092   -1.5700 H   0  0  0  0  0  0  0  0  0  0  0  0
    1.4458   -2.2423    0.2553 H   0  0  0  0  0  0  0  0  0  0  0  0
   -0.6751   -2.4817   -0.7436 H   0  0  0  0  0  0  0  0  0  0  0  0
   -0.5198   -1.0585   -1.7918 H   0  0  0  0  0  0  0  0  0  0  0  0
   -0.8292   -1.2283    1.2163 H   0  0  0  0  0  0  0  0  0  0  0  0
   -0.1340    1.2447   -0.4560 H   0  0  0  0  0  0  0  0  0  0  0  0
   -0.5264    2.5615    1.3310 H   0  0  0  0  0  0  0  0  0  0  0  0
   -0.2356    1.2869    2.5415 H   0  0  0  0  0  0  0  0  0  0  0  0
   -2.6954    2.3205    1.8761 H   0  0  0  0  0  0  0  0  0  0  0  0
   -2.4169    0.7749    2.6852 H   0  0  0  0  0  0  0  0  0  0  0  0
   -4.7959    1.6737    0.8697 H   0  0  0  0  0  0  0  0  0  0  0  0
   -7.0137    0.0853   -0.6242 H   0  0  0  0  0  0  0  0  0  0  0  0
   -4.7726   -1.2396   -2.2186 H   0  0  0  0  0  0  0  0  0  0  0  0
   -2.4235   -1.7786   -1.6800 H   0  0  0  0  0  0  0  0  0  0  0  0
    1.3081   -0.5277    1.5841 H   0  0  0  0  0  0  0  0  0  0  0  0
    2.1537    2.2272    0.5083 H   0  0  0  0  0  0  0  0  0  0  0  0
    2.1429    1.6990    2.2278 H   0  0  0  0  0  0  0  0  0  0  0  0
    3.9077    0.1971    1.9114 H   0  0  0  0  0  0  0  0  0  0  0  0
    4.3696    1.4220    0.6746 H   0  0  0  0  0  0  0  0  0  0  0  0
    4.8482    0.6699   -0.9591 H   0  0  0  0  0  0  0  0  0  0  0  0
    4.4940   -3.7438    0.8821 H   0  0  0  0  0  0  0  0  0  0  0  0
  2  1  1  6
  2  3  1  0
  3  4  1  0
  4  5  1  0
  5  6  1  0
  6  7  1  0
  7  8  1  0
  8  9  1  0
  9 10  2  0
 10 11  1  0
 11 12  1  0
 11 13  2  0
 13 14  1  0
 14 15  2  0
  6 16  1  0
 16 17  1  0
 17 18  1  0
 18 19  1  0
 19 20  1  0
 19 21  1  1
 21 22  3  0
 16  2  1  0
 19  2  1  0
 15  5  1  0
 15  9  1  0
  1 23  1  0
  1 24  1  0
  1 25  1  0
  3 26  1  0
  3 27  1  0
  4 28  1  0
  4 29  1  0
  5 30  1  1
  6 31  1  6
  7 32  1  0
  7 33  1  0
  8 34  1  0
  8 35  1  0
 10 36  1  0
 12 37  1  0
 13 38  1  0
 14 39  1  0
 16 40  1  1
 17 41  1  0
 17 42  1  0
 18 43  1  0
 18 44  1  0
 20 45  1  0
 22 46  1  0
M  END
$$$$
[H]Oc1c([H])c([H])c([C@@]2([H])Sc3c([H])c(O[H])c([H])c([H])c3O[C@@]2([H])c2c([H])c([H])c(OC([H])([H])[C@@]([H])(N3C([H])([H])C([H])([H])C([H])([H])C([H])([H])C3([H])[H])C([H])([H])[H])c([H])c2[H])c([H])c1[H]
     RDKit          3D

 65 69  0  0  0  0  0  0  0  0999 V2000
    4.5571   -1.6019   -1.6715 C   0  0  0  0  0  0  0  0  0  0  0  0
    4.4326   -0.1453   -1.3861 C   0  0  1  0  0  0  0  0  0  0  0  0
    3.2223    0.1379   -0.5059 C   0  0  0  0  0  0  0  0  0  0  0  0
    2.1031   -0.4657   -1.0821 O   0  0  0  0  0  0  0  0  0  0  0  0
    0.8250   -0.3824   -0.4998 C   0  0  0  0  0  0  0  0  0  0  0  0
   -0.2667   -0.9879   -1.0897 C   0  0  0  0  0  0  0  0  0  0  0  0
   -1.5239   -0.9245   -0.5470 C   0  0  0  0  0  0  0  0  0  0  0  0
   -1.7227   -0.2427    0.6180 C   0  0  0  0  0  0  0  0  0  0  0  0
   -0.6528    0.3620    1.2142 C   0  0  0  0  0  0  0  0  0  0  0  0
    0.6273    0.3051    0.6741 C   0  0  0  0  0  0  0  0  0  0  0  0
   -3.0608   -0.1168    1.2709 C   0  0  2  0  0  0  0  0  0  0  0  0
   -3.7708   -1.3013    1.2713 O   0  0  0  0  0  0  0  0  0  0  0  0
   -4.8338   -1.4894    2.1376 C   0  0  0  0  0  0  0  0  0  0  0  0
   -5.1117   -2.7063    2.7158 C   0  0  0  0  0  0  0  0  0  0  0  0
   -6.1815   -2.8576    3.5755 C   0  0  0  0  0  0  0  0  0  0  0  0
   -7.0089   -1.8110    3.8897 C   0  0  0  0  0  0  0  0  0  0  0  0
   -8.0835   -1.9850    4.7603 O   0  0  0  0  0  0  0  0  0  0  0  0
   -6.7291   -0.5767    3.3044 C   0  0  0  0  0  0  0  0  0  0  0  0
   -5.6709   -0.4070    2.4478 C   0  0  0  0  0  0  0  0  0  0  0  0
   -5.3647    1.1748    1.7159 S   0  0  0  0  0  0  0  0  0  0  0  0
   -3.8374    1.0387    0.7658 C   0  0  2  0  0  0  0  0  0  0  0  0
   -4.1967    1.0604   -0.6505 C   0  0  0  0  0  0  0  0  0  0  0  0
   -5.0549    0.2105   -1.2726 C   0  0  0  0  0  0  0  0  0  0  0  0
   -5.3643    0.2643   -2.6310 C   0  0  0  0  0  0  0  0  0  0  0  0
   -4.7549    1.2474   -3.3836 C   0  0  0  0  0  0  0  0  0  0  0  0
   -5.0800    1.2812   -4.7389 O   0  0  0  0  0  0  0  0  0  0  0  0
   -3.8759    2.1416   -2.8199 C   0  0  0  0  0  0  0  0  0  0  0  0
   -3.6125    2.0363   -1.4764 C   0  0  0  0  0  0  0  0  0  0  0  0
    5.6062    0.4583   -0.8312 N   0  0  0  0  0  0  0  0  0  0  0  0
    6.7486    0.4266   -1.6699 C   0  0  0  0  0  0  0  0  0  0  0  0
    7.8207   -0.5436   -1.2526 C   0  0  0  0  0  0  0  0  0  0  0  0
    8.2151   -0.3775    0.1766 C   0  0  0  0  0  0  0  0  0  0  0  0
    7.2449    0.4074    0.9929 C   0  0  0  0  0  0  0  0  0  0  0  0
    5.8146    0.2517    0.5508 C   0  0  0  0  0  0  0  0  0  0  0  0
    3.5723   -1.9553   -2.0497 H   0  0  0  0  0  0  0  0  0  0  0  0
    4.7814   -2.2185   -0.7802 H   0  0  0  0  0  0  0  0  0  0  0  0
    5.2886   -1.8078   -2.4523 H   0  0  0  0  0  0  0  0  0  0  0  0
    4.2220    0.3698   -2.3520 H   0  0  0  0  0  0  0  0  0  0  0  0
    3.3740   -0.2512    0.5317 H   0  0  0  0  0  0  0  0  0  0  0  0
    3.1014    1.2422   -0.3801 H   0  0  0  0  0  0  0  0  0  0  0  0
   -0.0851   -1.5384   -2.0375 H   0  0  0  0  0  0  0  0  0  0  0  0
   -2.3691   -1.4198   -1.0462 H   0  0  0  0  0  0  0  0  0  0  0  0
   -0.7585    0.9284    2.1613 H   0  0  0  0  0  0  0  0  0  0  0  0
    1.4757    0.7845    1.1468 H   0  0  0  0  0  0  0  0  0  0  0  0
   -2.8117    0.1268    2.3496 H   0  0  0  0  0  0  0  0  0  0  0  0
   -4.4972   -3.5815    2.5114 H   0  0  0  0  0  0  0  0  0  0  0  0
   -6.3694   -3.8298    4.0111 H   0  0  0  0  0  0  0  0  0  0  0  0
   -8.9628   -2.2552    4.3164 H   0  0  0  0  0  0  0  0  0  0  0  0
   -7.3720    0.2595    3.5414 H   0  0  0  0  0  0  0  0  0  0  0  0
   -3.2147    1.9727    0.9954 H   0  0  0  0  0  0  0  0  0  0  0  0
   -5.5300   -0.5507   -0.6823 H   0  0  0  0  0  0  0  0  0  0  0  0
   -6.0606   -0.4583   -3.0342 H   0  0  0  0  0  0  0  0  0  0  0  0
   -5.8679    1.8359   -5.0960 H   0  0  0  0  0  0  0  0  0  0  0  0
   -3.4160    2.8918   -3.4131 H   0  0  0  0  0  0  0  0  0  0  0  0
   -2.9126    2.7389   -1.0007 H   0  0  0  0  0  0  0  0  0  0  0  0
    6.4087    0.1790   -2.7050 H   0  0  0  0  0  0  0  0  0  0  0  0
    7.2221    1.4454   -1.6786 H   0  0  0  0  0  0  0  0  0  0  0  0
    7.4447   -1.5840   -1.4202 H   0  0  0  0  0  0  0  0  0  0  0  0
    8.6668   -0.4099   -1.9709 H   0  0  0  0  0  0  0  0  0  0  0  0
    8.4416   -1.3821    0.6398 H   0  0  0  0  0  0  0  0  0  0  0  0
    9.1938    0.1567    0.1967 H   0  0  0  0  0  0  0  0  0  0  0  0
    7.5618    1.4693    1.0174 H   0  0  0  0  0  0  0  0  0  0  0  0
    7.3430    0.0509    2.0543 H   0  0  0  0  0  0  0  0  0  0  0  0
    5.2319    1.0409    1.1063 H   0  0  0  0  0  0  0  0  0  0  0  0
    5.4385   -0.7096    0.9462 H   0  0  0  0  0  0  0  0  0  0  0  0
  1  2  1  0
  2  3  1  0
  3  4  1  0
  4  5  1  0
  5  6  2  0
  6  7  1  0
  7  8  2  0
  8  9  1  0
  9 10  2  0
  8 11  1  0
 11 12  1  0
 12 13  1  0
 13 14  2  0
 14 15  1  0
 15 16  2  0
 16 17  1  0
 16 18  1  0
 18 19  2  0
 19 20  1  0
 20 21  1  0
 21 22  1  0
 22 23  2  0
 23 24  1  0
 24 25  2  0
 25 26  1  0
 25 27  1  0
 27 28  2  0
  2 29  1  0
 29 30  1  0
 30 31  1  0
 31 32  1  0
 32 33  1  0
 33 34  1  0
 10  5  1  0
 21 11  1  0
 28 22  1  0
 34 29  1  0
 19 13  1  0
  1 35  1  0
  1 36  1  0
  1 37  1  0
  2 38  1  6
  3 39  1  0
  3 40  1  0
  6 41  1  0
  7 42  1  0
  9 43  1  0
 10 44  1  0
 11 45  1  1
 14 46  1  0
 15 47  1  0
 17 48  1  0
 18 49  1  0
 21 50  1  6
 23 51  1  0
 24 52  1  0
 26 53  1  0
 27 54  1  0
 28 55  1  0
 30 56  1  0
 30 57  1  0
 31 58  1  0
 31 59  1  0
 32 60  1  0
 32 61  1  0
 33 62  1  0
 33 63  1  0
 34 64  1  0
 34 65  1  0
M  END
$$$$
[H]Oc1c([H])c([H])c([C@@]2([H])Sc3c([H])c(O[H])c([H])c([H])c3O[C@@]2([H])c2c([H])c([H])c(OC([H])([H])[C@@]([H])(N3C([H])([H])C([H])([H])C([H])([H])C3([H])[H])C([H])([H])[H])c([H])c2[H])c([H])c1[H]
     RDKit          3D

 62 66  0  0  0  0  0  0  0  0999 V2000
    5.0948   -2.1902    0.3373 C   0  0  0  0  0  0  0  0  0  0  0  0
    4.7863   -1.1847   -0.7543 C   0  0  1  0  0  0  0  0  0  0  0  0
    3.5814   -0.3570   -0.4445 C   0  0  0  0  0  0  0  0  0  0  0  0
    2.4951   -1.2337   -0.2011 O   0  0  0  0  0  0  0  0  0  0  0  0
    1.2310   -0.7004    0.1165 C   0  0  0  0  0  0  0  0  0  0  0  0
    1.0623    0.6718    0.1877 C   0  0  0  0  0  0  0  0  0  0  0  0
   -0.1907    1.1564    0.5014 C   0  0  0  0  0  0  0  0  0  0  0  0
   -1.2784    0.3439    0.7464 C   0  0  0  0  0  0  0  0  0  0  0  0
   -1.0883   -1.0130    0.6707 C   0  0  0  0  0  0  0  0  0  0  0  0
    0.1589   -1.5265    0.3576 C   0  0  0  0  0  0  0  0  0  0  0  0
   -2.5815    0.9403    1.0888 C   0  0  2  0  0  0  0  0  0  0  0  0
   -3.1900    0.1443    2.0640 O   0  0  0  0  0  0  0  0  0  0  0  0
   -4.4541    0.3874    2.5736 C   0  0  0  0  0  0  0  0  0  0  0  0
   -4.7659   -0.1503    3.7992 C   0  0  0  0  0  0  0  0  0  0  0  0
   -6.0057    0.0362    4.3955 C   0  0  0  0  0  0  0  0  0  0  0  0
   -6.9244    0.7932    3.6982 C   0  0  0  0  0  0  0  0  0  0  0  0
   -8.1749    0.9857    4.2915 O   0  0  0  0  0  0  0  0  0  0  0  0
   -6.6195    1.3385    2.4636 C   0  0  0  0  0  0  0  0  0  0  0  0
   -5.3951    1.1302    1.9192 C   0  0  0  0  0  0  0  0  0  0  0  0
   -5.0459    1.8524    0.3226 S   0  0  0  0  0  0  0  0  0  0  0  0
   -3.3652    1.2599   -0.1222 C   0  0  2  0  0  0  0  0  0  0  0  0
   -3.4146    0.2578   -1.1807 C   0  0  0  0  0  0  0  0  0  0  0  0
   -4.2178   -0.8527   -1.0512 C   0  0  0  0  0  0  0  0  0  0  0  0
   -4.2766   -1.8221   -2.0538 C   0  0  0  0  0  0  0  0  0  0  0  0
   -3.5244   -1.6824   -3.2008 C   0  0  0  0  0  0  0  0  0  0  0  0
   -3.5967   -2.6707   -4.2012 O   0  0  0  0  0  0  0  0  0  0  0  0
   -2.7216   -0.5863   -3.3459 C   0  0  0  0  0  0  0  0  0  0  0  0
   -2.6786    0.3590   -2.3435 C   0  0  0  0  0  0  0  0  0  0  0  0
    5.9785   -0.4498   -1.0252 N   0  0  0  0  0  0  0  0  0  0  0  0
    5.8699    0.5492   -2.0433 C   0  0  0  0  0  0  0  0  0  0  0  0
    7.1585    1.3670   -1.8814 C   0  0  0  0  0  0  0  0  0  0  0  0
    7.7099    0.9744   -0.5224 C   0  0  0  0  0  0  0  0  0  0  0  0
    6.4871    0.2889    0.0993 C   0  0  0  0  0  0  0  0  0  0  0  0
    5.0926   -1.7530    1.3367 H   0  0  0  0  0  0  0  0  0  0  0  0
    6.1184   -2.5751    0.1347 H   0  0  0  0  0  0  0  0  0  0  0  0
    4.4030   -3.0480    0.2173 H   0  0  0  0  0  0  0  0  0  0  0  0
    4.5500   -1.7828   -1.6683 H   0  0  0  0  0  0  0  0  0  0  0  0
    3.3271    0.2082   -1.3866 H   0  0  0  0  0  0  0  0  0  0  0  0
    3.6849    0.2946    0.4286 H   0  0  0  0  0  0  0  0  0  0  0  0
    1.9138    1.3323   -0.0035 H   0  0  0  0  0  0  0  0  0  0  0  0
   -0.3161    2.2472    0.5559 H   0  0  0  0  0  0  0  0  0  0  0  0
   -1.9359   -1.6849    0.8699 H   0  0  0  0  0  0  0  0  0  0  0  0
    0.2527   -2.5988    0.3112 H   0  0  0  0  0  0  0  0  0  0  0  0
   -2.4107    1.9455    1.6144 H   0  0  0  0  0  0  0  0  0  0  0  0
   -4.0560   -0.7553    4.3749 H   0  0  0  0  0  0  0  0  0  0  0  0
   -6.2222   -0.4058    5.3730 H   0  0  0  0  0  0  0  0  0  0  0  0
   -8.8729    1.5494    3.7829 H   0  0  0  0  0  0  0  0  0  0  0  0
   -7.4186    1.9258    1.9881 H   0  0  0  0  0  0  0  0  0  0  0  0
   -2.8631    2.1705   -0.5806 H   0  0  0  0  0  0  0  0  0  0  0  0
   -4.8427   -1.0500   -0.1921 H   0  0  0  0  0  0  0  0  0  0  0  0
   -4.9000   -2.7003   -1.9717 H   0  0  0  0  0  0  0  0  0  0  0  0
   -4.3176   -2.5121   -4.9074 H   0  0  0  0  0  0  0  0  0  0  0  0
   -2.1259   -0.4678   -4.2453 H   0  0  0  0  0  0  0  0  0  0  0  0
   -2.0264    1.2386   -2.4739 H   0  0  0  0  0  0  0  0  0  0  0  0
    5.0021    1.2043   -1.9758 H   0  0  0  0  0  0  0  0  0  0  0  0
    5.9055    0.0797   -3.0698 H   0  0  0  0  0  0  0  0  0  0  0  0
    7.8550    1.1511   -2.7022 H   0  0  0  0  0  0  0  0  0  0  0  0
    6.9178    2.4618   -1.8126 H   0  0  0  0  0  0  0  0  0  0  0  0
    8.0517    1.8269    0.0643 H   0  0  0  0  0  0  0  0  0  0  0  0
    8.5037    0.2008   -0.6826 H   0  0  0  0  0  0  0  0  0  0  0  0
    6.8103   -0.3639    0.9353 H   0  0  0  0  0  0  0  0  0  0  0  0
    5.8157    1.1121    0.4237 H   0  0  0  0  0  0  0  0  0  0  0  0
  1  2  1  0
  2  3  1  0
  3  4  1  0
  4  5  1  0
  5  6  2  0
  6  7  1  0
  7  8  2  0
  8  9  1  0
  9 10  2  0
  8 11  1  0
 11 12  1  0
 12 13  1  0
 13 14  2  0
 14 15  1  0
 15 16  2  0
 16 17  1  0
 16 18  1  0
 18 19  2  0
 19 20  1  0
 20 21  1  0
 21 22  1  0
 22 23  2  0
 23 24  1  0
 24 25  2  0
 25 26  1  0
 25 27  1  0
 27 28  2  0
  2 29  1  0
 29 30  1  0
 30 31  1  0
 31 32  1  0
 32 33  1  0
 10  5  1  0
 21 11  1  0
 28 22  1  0
 33 29  1  0
 19 13  1  0
  1 34  1  0
  1 35  1  0
  1 36  1  0
  2 37  1  6
  3 38  1  0
  3 39  1  0
  6 40  1  0
  7 41  1  0
  9 42  1  0
 10 43  1  0
 11 44  1  1
 14 45  1  0
 15 46  1  0
 17 47  1  0
 18 48  1  0
 21 49  1  6
 23 50  1  0
 24 51  1  0
 26 52  1  0
 27 53  1  0
 28 54  1  0
 30 55  1  0
 30 56  1  0
 31 57  1  0
 31 58  1  0
 32 59  1  0
 32 60  1  0
 33 61  1  0
 33 62  1  0
M  END
$$$$
[H]Oc1c([H])c([H])c([C@@]2([H])Sc3c([H])c(O[H])c([H])c([H])c3O[C@@]2([H])c2c([H])c([H])c(OC([H])([H])[C@@]([H])(N3C([H])([H])C([H])([H])OC([H])([H])C3([H])[H])C([H])([H])[H])c([H])c2[H])c([H])c1[H]
     RDKit          3D

 63 67  0  0  0  0  0  0  0  0999 V2000
    4.2612   -2.4878    0.2296 C   0  0  0  0  0  0  0  0  0  0  0  0
    4.4512   -1.1425   -0.3925 C   0  0  1  0  0  0  0  0  0  0  0  0
    3.1693   -0.3555   -0.2602 C   0  0  0  0  0  0  0  0  0  0  0  0
    2.1363   -1.1157   -0.8071 O   0  0  0  0  0  0  0  0  0  0  0  0
    0.8057   -0.7260   -0.8700 C   0  0  0  0  0  0  0  0  0  0  0  0
   -0.1074   -1.5844   -1.4409 C   0  0  0  0  0  0  0  0  0  0  0  0
   -1.4454   -1.2636   -1.5375 C   0  0  0  0  0  0  0  0  0  0  0  0
   -1.9330   -0.0430   -1.0553 C   0  0  0  0  0  0  0  0  0  0  0  0
   -1.0115    0.8035   -0.4885 C   0  0  0  0  0  0  0  0  0  0  0  0
    0.3463    0.4736   -0.3925 C   0  0  0  0  0  0  0  0  0  0  0  0
   -3.3722    0.3001   -1.1729 C   0  0  2  0  0  0  0  0  0  0  0  0
   -3.5256    1.6106   -1.5884 O   0  0  0  0  0  0  0  0  0  0  0  0
   -4.0069    2.6967   -0.9156 C   0  0  0  0  0  0  0  0  0  0  0  0
   -4.2204    3.8824   -1.6385 C   0  0  0  0  0  0  0  0  0  0  0  0
   -4.6987    4.9925   -1.0143 C   0  0  0  0  0  0  0  0  0  0  0  0
   -4.9838    4.9906    0.3206 C   0  0  0  0  0  0  0  0  0  0  0  0
   -5.4675    6.1007    0.9703 O   0  0  0  0  0  0  0  0  0  0  0  0
   -4.7635    3.7946    1.0269 C   0  0  0  0  0  0  0  0  0  0  0  0
   -4.2900    2.6867    0.4221 C   0  0  0  0  0  0  0  0  0  0  0  0
   -4.0133    1.1835    1.3030 S   0  0  0  0  0  0  0  0  0  0  0  0
   -4.2115   -0.0850   -0.0002 C   0  0  2  0  0  0  0  0  0  0  0  0
   -4.0916   -1.4472    0.4745 C   0  0  0  0  0  0  0  0  0  0  0  0
   -5.0631   -2.3696    0.1344 C   0  0  0  0  0  0  0  0  0  0  0  0
   -5.0493   -3.6815    0.5422 C   0  0  0  0  0  0  0  0  0  0  0  0
   -4.0051   -4.0990    1.3363 C   0  0  0  0  0  0  0  0  0  0  0  0
   -3.9404   -5.4318    1.7829 O   0  0  0  0  0  0  0  0  0  0  0  0
   -3.0325   -3.1863    1.6802 C   0  0  0  0  0  0  0  0  0  0  0  0
   -3.0529   -1.8717    1.2675 C   0  0  0  0  0  0  0  0  0  0  0  0
    5.5985   -0.4925    0.1237 N   0  0  0  0  0  0  0  0  0  0  0  0
    5.8660    0.8022   -0.4069 C   0  0  0  0  0  0  0  0  0  0  0  0
    7.2999    1.1712   -0.0050 C   0  0  0  0  0  0  0  0  0  0  0  0
    7.9150    0.1310    0.6835 O   0  0  0  0  0  0  0  0  0  0  0  0
    7.2045   -0.1480    1.8504 C   0  0  0  0  0  0  0  0  0  0  0  0
    5.7543   -0.5287    1.5411 C   0  0  0  0  0  0  0  0  0  0  0  0
    5.1793   -3.1029    0.1973 H   0  0  0  0  0  0  0  0  0  0  0  0
    3.4694   -3.0155   -0.3734 H   0  0  0  0  0  0  0  0  0  0  0  0
    3.8481   -2.3753    1.2418 H   0  0  0  0  0  0  0  0  0  0  0  0
    4.6077   -1.2976   -1.4961 H   0  0  0  0  0  0  0  0  0  0  0  0
    3.0014   -0.0996    0.8023 H   0  0  0  0  0  0  0  0  0  0  0  0
    3.2194    0.6202   -0.8086 H   0  0  0  0  0  0  0  0  0  0  0  0
    0.2415   -2.5521   -1.8302 H   0  0  0  0  0  0  0  0  0  0  0  0
   -2.1775   -1.9310   -1.9854 H   0  0  0  0  0  0  0  0  0  0  0  0
   -1.3646    1.7527   -0.1101 H   0  0  0  0  0  0  0  0  0  0  0  0
    1.0283    1.1650    0.0575 H   0  0  0  0  0  0  0  0  0  0  0  0
   -3.8192   -0.3180   -2.0359 H   0  0  0  0  0  0  0  0  0  0  0  0
   -4.0109    3.9360   -2.6954 H   0  0  0  0  0  0  0  0  0  0  0  0
   -4.8605    5.9077   -1.5860 H   0  0  0  0  0  0  0  0  0  0  0  0
   -4.7930    6.7379    1.3703 H   0  0  0  0  0  0  0  0  0  0  0  0
   -5.0080    3.8459    2.0952 H   0  0  0  0  0  0  0  0  0  0  0  0
   -5.2792    0.0751   -0.3683 H   0  0  0  0  0  0  0  0  0  0  0  0
   -5.9144   -2.0670   -0.5016 H   0  0  0  0  0  0  0  0  0  0  0  0
   -5.8312   -4.3925    0.2588 H   0  0  0  0  0  0  0  0  0  0  0  0
   -3.4477   -6.1195    1.2026 H   0  0  0  0  0  0  0  0  0  0  0  0
   -2.2141   -3.5317    2.3082 H   0  0  0  0  0  0  0  0  0  0  0  0
   -2.2558   -1.1818    1.5715 H   0  0  0  0  0  0  0  0  0  0  0  0
    5.2030    1.5970    0.0412 H   0  0  0  0  0  0  0  0  0  0  0  0
    5.7584    0.8524   -1.4978 H   0  0  0  0  0  0  0  0  0  0  0  0
    7.9149    1.4046   -0.9104 H   0  0  0  0  0  0  0  0  0  0  0  0
    7.3226    2.0520    0.6594 H   0  0  0  0  0  0  0  0  0  0  0  0
    7.2619    0.7592    2.4826 H   0  0  0  0  0  0  0  0  0  0  0  0
    7.7181   -0.9708    2.3982 H   0  0  0  0  0  0  0  0  0  0  0  0
    5.1139    0.1996    2.0880 H   0  0  0  0  0  0  0  0  0  0  0  0
    5.5658   -1.5101    1.9820 H   0  0  0  0  0  0  0  0  0  0  0  0
  1  2  1  0
  2  3  1  0
  3  4  1  0
  4  5  1  0
  5  6  2  0
  6  7  1  0
  7  8  2  0
  8  9  1  0
  9 10  2  0
  8 11  1  0
 11 12  1  0
 12 13  1  0
 13 14  2  0
 14 15  1  0
 15 16  2  0
 16 17  1  0
 16 18  1  0
 18 19  2  0
 19 20  1  0
 20 21  1  0
 21 22  1  0
 22 23  2  0
 23 24  1  0
 24 25  2  0
 25 26  1  0
 25 27  1  0
 27 28  2  0
  2 29  1  0
 29 30  1  0
 30 31  1  0
 31 32  1  0
 32 33  1  0
 33 34  1  0
 10  5  1  0
 21 11  1  0
 28 22  1  0
 34 29  1  0
 19 13  1  0
  1 35  1  0
  1 36  1  0
  1 37  1  0
  2 38  1  6
  3 39  1  0
  3 40  1  0
  6 41  1  0
  7 42  1  0
  9 43  1  0
 10 44  1  0
 11 45  1  6
 14 46  1  0
 15 47  1  0
 17 48  1  0
 18 49  1  0
 21 50  1  6
 23 51  1  0
 24 52  1  0
 26 53  1  0
 27 54  1  0
 28 55  1  0
 30 56  1  0
 30 57  1  0
 31 58  1  0
 31 59  1  0
 33 60  1  0
 33 61  1  0
 34 62  1  0
 34 63  1  0
M  END
$$$$
[H]Oc1c([H])c([H])c([C@@]2([H])Sc3c([H])c(O[H])c([H])c([H])c3O[C@]2([H])c2c([H])c([H])c(OC([H])([H])C([H])([H])N3C([H])([H])C([H])([H])C([H])([H])C([H])([H])C3([H])[H])c([H])c2[H])c([H])c1[H]
     RDKit          3D

 62 66  0  0  0  0  0  0  0  0999 V2000
   -3.9070   -5.7607    1.0608 O   0  0  0  0  0  0  0  0  0  0  0  0
   -3.9396   -4.3775    0.7816 C   0  0  0  0  0  0  0  0  0  0  0  0
   -4.4942   -3.4866    1.6579 C   0  0  0  0  0  0  0  0  0  0  0  0
   -4.5146   -2.1397    1.3641 C   0  0  0  0  0  0  0  0  0  0  0  0
   -3.9866   -1.6452    0.1970 C   0  0  0  0  0  0  0  0  0  0  0  0
   -3.4301   -2.5415   -0.6826 C   0  0  0  0  0  0  0  0  0  0  0  0
   -3.4051   -3.9126   -0.3921 C   0  0  0  0  0  0  0  0  0  0  0  0
   -4.0094   -0.2153   -0.1043 C   0  0  1  0  0  0  0  0  0  0  0  0
   -5.7114    0.4220   -0.1680 S   0  0  0  0  0  0  0  0  0  0  0  0
   -5.5297    2.1755   -0.1399 C   0  0  0  0  0  0  0  0  0  0  0  0
   -6.3750    2.9865   -0.7992 C   0  0  0  0  0  0  0  0  0  0  0  0
   -6.2370    4.3837   -0.7859 C   0  0  0  0  0  0  0  0  0  0  0  0
   -7.1168    5.2101   -1.4710 O   0  0  0  0  0  0  0  0  0  0  0  0
   -5.1879    4.9099   -0.0622 C   0  0  0  0  0  0  0  0  0  0  0  0
   -4.3023    4.0900    0.6265 C   0  0  0  0  0  0  0  0  0  0  0  0
   -4.4840    2.7025    0.5808 C   0  0  0  0  0  0  0  0  0  0  0  0
   -3.6617    1.8353    1.2262 O   0  0  0  0  0  0  0  0  0  0  0  0
   -3.2587    0.5625    0.9132 C   0  0  2  0  0  0  0  0  0  0  0  0
   -1.7895    0.6436    0.5729 C   0  0  0  0  0  0  0  0  0  0  0  0
   -0.8896   -0.2715    1.0643 C   0  0  0  0  0  0  0  0  0  0  0  0
    0.4732   -0.1926    0.7444 C   0  0  0  0  0  0  0  0  0  0  0  0
    0.9158    0.8165   -0.0739 C   0  0  0  0  0  0  0  0  0  0  0  0
    2.2492    0.9060   -0.3959 O   0  0  0  0  0  0  0  0  0  0  0  0
    3.2751    0.0525    0.0245 C   0  0  0  0  0  0  0  0  0  0  0  0
    4.5704    0.5426   -0.5723 C   0  0  0  0  0  0  0  0  0  0  0  0
    5.7152   -0.2394   -0.2239 N   0  0  0  0  0  0  0  0  0  0  0  0
    5.7243   -1.5625   -0.8077 C   0  0  0  0  0  0  0  0  0  0  0  0
    6.7117   -2.4225   -0.0520 C   0  0  0  0  0  0  0  0  0  0  0  0
    7.7315   -1.5150    0.5975 C   0  0  0  0  0  0  0  0  0  0  0  0
    8.1231   -0.3992   -0.3447 C   0  0  0  0  0  0  0  0  0  0  0  0
    6.9244    0.4378   -0.6573 C   0  0  0  0  0  0  0  0  0  0  0  0
    0.0320    1.7384   -0.5733 C   0  0  0  0  0  0  0  0  0  0  0  0
   -1.3063    1.6503   -0.2515 C   0  0  0  0  0  0  0  0  0  0  0  0
   -4.6956   -6.3407    0.7542 H   0  0  0  0  0  0  0  0  0  0  0  0
   -4.9173   -3.8718    2.5902 H   0  0  0  0  0  0  0  0  0  0  0  0
   -4.9591   -1.4791    2.0793 H   0  0  0  0  0  0  0  0  0  0  0  0
   -2.9949   -2.2279   -1.6212 H   0  0  0  0  0  0  0  0  0  0  0  0
   -2.9722   -4.6328   -1.0714 H   0  0  0  0  0  0  0  0  0  0  0  0
   -3.5718    0.0162   -1.1069 H   0  0  0  0  0  0  0  0  0  0  0  0
   -7.1939    2.5877   -1.3652 H   0  0  0  0  0  0  0  0  0  0  0  0
   -6.8491    5.4222   -2.4400 H   0  0  0  0  0  0  0  0  0  0  0  0
   -5.0715    5.9915   -0.0446 H   0  0  0  0  0  0  0  0  0  0  0  0
   -3.4907    4.5272    1.1831 H   0  0  0  0  0  0  0  0  0  0  0  0
   -3.3277   -0.0424    1.8731 H   0  0  0  0  0  0  0  0  0  0  0  0
   -1.2556   -1.0601    1.7066 H   0  0  0  0  0  0  0  0  0  0  0  0
    1.1108   -0.9531    1.1743 H   0  0  0  0  0  0  0  0  0  0  0  0
    3.3696    0.0177    1.1377 H   0  0  0  0  0  0  0  0  0  0  0  0
    3.1138   -0.9992   -0.2865 H   0  0  0  0  0  0  0  0  0  0  0  0
    4.4525    0.4505   -1.6936 H   0  0  0  0  0  0  0  0  0  0  0  0
    4.7257    1.6178   -0.3689 H   0  0  0  0  0  0  0  0  0  0  0  0
    4.7367   -2.0436   -0.8638 H   0  0  0  0  0  0  0  0  0  0  0  0
    6.0785   -1.5121   -1.8796 H   0  0  0  0  0  0  0  0  0  0  0  0
    7.1597   -3.1312   -0.7798 H   0  0  0  0  0  0  0  0  0  0  0  0
    6.1990   -3.0284    0.7328 H   0  0  0  0  0  0  0  0  0  0  0  0
    7.2483   -1.0963    1.5040 H   0  0  0  0  0  0  0  0  0  0  0  0
    8.6202   -2.1318    0.8572 H   0  0  0  0  0  0  0  0  0  0  0  0
    8.8999    0.2176    0.1683 H   0  0  0  0  0  0  0  0  0  0  0  0
    8.5369   -0.8786   -1.2633 H   0  0  0  0  0  0  0  0  0  0  0  0
    6.9455    1.4481   -0.2015 H   0  0  0  0  0  0  0  0  0  0  0  0
    6.8431    0.5145   -1.7752 H   0  0  0  0  0  0  0  0  0  0  0  0
    0.3522    2.5359   -1.2138 H   0  0  0  0  0  0  0  0  0  0  0  0
   -2.0023    2.3663   -0.6392 H   0  0  0  0  0  0  0  0  0  0  0  0
  1  2  1  0
  2  3  2  0
  3  4  1  0
  4  5  2  0
  5  6  1  0
  6  7  2  0
  5  8  1  0
  8  9  1  0
  9 10  1  0
 10 11  2  0
 11 12  1  0
 12 13  1  0
 12 14  2  0
 14 15  1  0
 15 16  2  0
 16 17  1  0
 17 18  1  0
 18 19  1  0
 19 20  2  0
 20 21  1  0
 21 22  2  0
 22 23  1  0
 23 24  1  0
 24 25  1  0
 25 26  1  0
 26 27  1  0
 27 28  1  0
 28 29  1  0
 29 30  1  0
 30 31  1  0
 22 32  1  0
 32 33  2  0
  7  2  1  0
 18  8  1  0
 33 19  1  0
 16 10  1  0
 31 26  1  0
  1 34  1  0
  3 35  1  0
  4 36  1  0
  6 37  1  0
  7 38  1  0
  8 39  1  6
 11 40  1  0
 13 41  1  0
 14 42  1  0
 15 43  1  0
 18 44  1  1
 20 45  1  0
 21 46  1  0
 24 47  1  0
 24 48  1  0
 25 49  1  0
 25 50  1  0
 27 51  1  0
 27 52  1  0
 28 53  1  0
 28 54  1  0
 29 55  1  0
 29 56  1  0
 30 57  1  0
 30 58  1  0
 31 59  1  0
 31 60  1  0
 32 61  1  0
 33 62  1  0
M  END
$$$$
[H]Oc1c([H])c([H])c([C@@]2([H])Oc3c([H])c(O[H])c([H])c([H])c3O[C@@]2([H])c2c([H])c([H])c(OC([H])([H])[C@@]([H])(N3C([H])([H])C([H])([H])C([H])([H])C([H])([H])C3([H])[H])C([H])([H])[H])c([H])c2[H])c([H])c1[H]
     RDKit          3D

 65 69  0  0  0  0  0  0  0  0999 V2000
   -4.2772   -1.9338   -0.1790 C   0  0  0  0  0  0  0  0  0  0  0  0
   -4.3358   -0.7411    0.7135 C   0  0  1  0  0  0  0  0  0  0  0  0
   -3.1342    0.1371    0.4561 C   0  0  0  0  0  0  0  0  0  0  0  0
   -1.9970   -0.6717    0.5497 O   0  0  0  0  0  0  0  0  0  0  0  0
   -0.6849   -0.2450    0.3918 C   0  0  0  0  0  0  0  0  0  0  0  0
   -0.3317    1.0556    0.1233 C   0  0  0  0  0  0  0  0  0  0  0  0
    0.9753    1.4131   -0.0194 C   0  0  0  0  0  0  0  0  0  0  0  0
    2.0355    0.4885    0.0963 C   0  0  0  0  0  0  0  0  0  0  0  0
    1.6830   -0.8040    0.3611 C   0  0  0  0  0  0  0  0  0  0  0  0
    0.3428   -1.1475    0.5042 C   0  0  0  0  0  0  0  0  0  0  0  0
    3.3470    1.0556   -0.0959 C   0  0  2  0  0  0  0  0  0  0  0  0
    3.4901    1.6430   -1.4129 O   0  0  0  0  0  0  0  0  0  0  0  0
    3.9949    0.8058   -2.4178 C   0  0  0  0  0  0  0  0  0  0  0  0
    3.8379    1.1582   -3.7622 C   0  0  0  0  0  0  0  0  0  0  0  0
    4.3171    0.3662   -4.7833 C   0  0  0  0  0  0  0  0  0  0  0  0
    4.9686   -0.8061   -4.4468 C   0  0  0  0  0  0  0  0  0  0  0  0
    5.4631   -1.6233   -5.4805 O   0  0  0  0  0  0  0  0  0  0  0  0
    5.1513   -1.2018   -3.1452 C   0  0  0  0  0  0  0  0  0  0  0  0
    4.6460   -0.3623   -2.1434 C   0  0  0  0  0  0  0  0  0  0  0  0
    4.8151   -0.7362   -0.8008 O   0  0  0  0  0  0  0  0  0  0  0  0
    4.5743    0.2996    0.1532 C   0  0  2  0  0  0  0  0  0  0  0  0
    4.9911    0.0183    1.5114 C   0  0  0  0  0  0  0  0  0  0  0  0
    5.5053    1.0265    2.3389 C   0  0  0  0  0  0  0  0  0  0  0  0
    5.9244    0.7635    3.6270 C   0  0  0  0  0  0  0  0  0  0  0  0
    5.8418   -0.5177    4.1274 C   0  0  0  0  0  0  0  0  0  0  0  0
    6.2610   -0.8150    5.4370 O   0  0  0  0  0  0  0  0  0  0  0  0
    5.3415   -1.5159    3.3314 C   0  0  0  0  0  0  0  0  0  0  0  0
    4.9371   -1.2243    2.0664 C   0  0  0  0  0  0  0  0  0  0  0  0
   -5.5549    0.0252    0.6240 N   0  0  0  0  0  0  0  0  0  0  0  0
   -6.7043   -0.7838    1.0758 C   0  0  0  0  0  0  0  0  0  0  0  0
   -7.8409    0.2300    1.2525 C   0  0  0  0  0  0  0  0  0  0  0  0
   -8.1894    0.8756   -0.0542 C   0  0  0  0  0  0  0  0  0  0  0  0
   -6.9538    1.4194   -0.7366 C   0  0  0  0  0  0  0  0  0  0  0  0
   -5.8838    0.3517   -0.7636 C   0  0  0  0  0  0  0  0  0  0  0  0
   -3.6330   -2.6919    0.3373 H   0  0  0  0  0  0  0  0  0  0  0  0
   -5.2416   -2.4465   -0.3380 H   0  0  0  0  0  0  0  0  0  0  0  0
   -3.7546   -1.6754   -1.1109 H   0  0  0  0  0  0  0  0  0  0  0  0
   -4.2886   -1.1050    1.7961 H   0  0  0  0  0  0  0  0  0  0  0  0
   -3.2262    0.6128   -0.5142 H   0  0  0  0  0  0  0  0  0  0  0  0
   -3.0796    0.9673    1.2046 H   0  0  0  0  0  0  0  0  0  0  0  0
   -1.1302    1.8058    0.0254 H   0  0  0  0  0  0  0  0  0  0  0  0
    1.1657    2.4602   -0.2307 H   0  0  0  0  0  0  0  0  0  0  0  0
    2.4577   -1.5529    0.4373 H   0  0  0  0  0  0  0  0  0  0  0  0
    0.1057   -2.1763    0.7139 H   0  0  0  0  0  0  0  0  0  0  0  0
    3.3967    1.9789    0.5716 H   0  0  0  0  0  0  0  0  0  0  0  0
    3.3142    2.0981   -3.9614 H   0  0  0  0  0  0  0  0  0  0  0  0
    4.1870    0.6554   -5.8340 H   0  0  0  0  0  0  0  0  0  0  0  0
    5.3415   -1.3546   -6.4382 H   0  0  0  0  0  0  0  0  0  0  0  0
    5.6660   -2.1298   -2.8741 H   0  0  0  0  0  0  0  0  0  0  0  0
    5.4089    1.0653   -0.1988 H   0  0  0  0  0  0  0  0  0  0  0  0
    5.5891    2.0479    1.9869 H   0  0  0  0  0  0  0  0  0  0  0  0
    6.3230    1.5285    4.2778 H   0  0  0  0  0  0  0  0  0  0  0  0
    7.2285   -1.0848    5.5533 H   0  0  0  0  0  0  0  0  0  0  0  0
    5.2751   -2.5414    3.7305 H   0  0  0  0  0  0  0  0  0  0  0  0
    4.5454   -2.0646    1.4690 H   0  0  0  0  0  0  0  0  0  0  0  0
   -6.5107   -1.2560    2.0393 H   0  0  0  0  0  0  0  0  0  0  0  0
   -6.9233   -1.4769    0.2427 H   0  0  0  0  0  0  0  0  0  0  0  0
   -8.7284   -0.2306    1.6938 H   0  0  0  0  0  0  0  0  0  0  0  0
   -7.3923    1.0441    1.8943 H   0  0  0  0  0  0  0  0  0  0  0  0
   -8.8174    1.7775    0.1986 H   0  0  0  0  0  0  0  0  0  0  0  0
   -8.7377    0.2194   -0.7376 H   0  0  0  0  0  0  0  0  0  0  0  0
   -7.2077    1.7796   -1.7519 H   0  0  0  0  0  0  0  0  0  0  0  0
   -6.5428    2.2609   -0.1101 H   0  0  0  0  0  0  0  0  0  0  0  0
   -6.3099   -0.5937   -1.1969 H   0  0  0  0  0  0  0  0  0  0  0  0
   -5.0369    0.6389   -1.3752 H   0  0  0  0  0  0  0  0  0  0  0  0
  1  2  1  0
  2  3  1  0
  3  4  1  0
  4  5  1  0
  5  6  2  0
  6  7  1  0
  7  8  2  0
  8  9  1  0
  9 10  2  0
  8 11  1  0
 11 12  1  0
 12 13  1  0
 13 14  2  0
 14 15  1  0
 15 16  2  0
 16 17  1  0
 16 18  1  0
 18 19  2  0
 19 20  1  0
 20 21  1  0
 21 22  1  0
 22 23  2  0
 23 24  1  0
 24 25  2  0
 25 26  1  0
 25 27  1  0
 27 28  2  0
  2 29  1  0
 29 30  1  0
 30 31  1  0
 31 32  1  0
 32 33  1  0
 33 34  1  0
 10  5  1  0
 21 11  1  0
 28 22  1  0
 34 29  1  0
 19 13  1  0
  1 35  1  0
  1 36  1  0
  1 37  1  0
  2 38  1  1
  3 39  1  0
  3 40  1  0
  6 41  1  0
  7 42  1  0
  9 43  1  0
 10 44  1  0
 11 45  1  1
 14 46  1  0
 15 47  1  0
 17 48  1  0
 18 49  1  0
 21 50  1  6
 23 51  1  0
 24 52  1  0
 26 53  1  0
 27 54  1  0
 28 55  1  0
 30 56  1  0
 30 57  1  0
 31 58  1  0
 31 59  1  0
 32 60  1  0
 32 61  1  0
 33 62  1  0
 33 63  1  0
 34 64  1  0
 34 65  1  0
M  END
$$$$
[H]Oc1c([H])c([H])c([C@@]2([H])Sc3c([H])c(O[H])c([H])c([H])c3O[C@@]2([H])c2c([H])c([H])c(OC([H])([H])C([H])([H])N3C([H])([H])C([H])([H])C([H])([H])C([H])([H])C3([H])[H])c([H])c2[H])c([H])c1[H]
     RDKit          3D

 62 66  0  0  0  0  0  0  0  0999 V2000
   -4.4525   -2.4925    4.7873 O   0  0  0  0  0  0  0  0  0  0  0  0
   -4.3958   -1.9217    3.5031 C   0  0  0  0  0  0  0  0  0  0  0  0
   -5.1515   -2.4313    2.4825 C   0  0  0  0  0  0  0  0  0  0  0  0
   -5.0805   -1.8582    1.2370 C   0  0  0  0  0  0  0  0  0  0  0  0
   -4.2782   -0.7764    0.9391 C   0  0  0  0  0  0  0  0  0  0  0  0
   -3.5213   -0.2683    1.9680 C   0  0  0  0  0  0  0  0  0  0  0  0
   -3.5822   -0.8396    3.2391 C   0  0  0  0  0  0  0  0  0  0  0  0
   -4.2897   -0.2335   -0.4156 C   0  0  1  0  0  0  0  0  0  0  0  0
   -4.3083    1.5818   -0.4607 S   0  0  0  0  0  0  0  0  0  0  0  0
   -3.9680    2.0084   -2.1421 C   0  0  0  0  0  0  0  0  0  0  0  0
   -4.3223    3.2163   -2.6379 C   0  0  0  0  0  0  0  0  0  0  0  0
   -4.0553    3.5606   -3.9698 C   0  0  0  0  0  0  0  0  0  0  0  0
   -4.3991    4.7776   -4.5146 O   0  0  0  0  0  0  0  0  0  0  0  0
   -3.4194    2.6405   -4.7751 C   0  0  0  0  0  0  0  0  0  0  0  0
   -3.0608    1.4119   -4.2649 C   0  0  0  0  0  0  0  0  0  0  0  0
   -3.3399    1.0937   -2.9297 C   0  0  0  0  0  0  0  0  0  0  0  0
   -2.9626   -0.1351   -2.4810 O   0  0  0  0  0  0  0  0  0  0  0  0
   -3.1970   -0.7663   -1.2823 C   0  0  1  0  0  0  0  0  0  0  0  0
   -1.8916   -0.9550   -0.5785 C   0  0  0  0  0  0  0  0  0  0  0  0
   -1.5907   -2.1449    0.0526 C   0  0  0  0  0  0  0  0  0  0  0  0
   -0.3954   -2.3397    0.6926 C   0  0  0  0  0  0  0  0  0  0  0  0
    0.5980   -1.3403    0.7457 C   0  0  0  0  0  0  0  0  0  0  0  0
    1.7406   -1.6150    1.3957 O   0  0  0  0  0  0  0  0  0  0  0  0
    2.9132   -0.9890    1.6667 C   0  0  0  0  0  0  0  0  0  0  0  0
    3.7048   -0.6608    0.4373 C   0  0  0  0  0  0  0  0  0  0  0  0
    4.9659    0.0172    0.7226 N   0  0  0  0  0  0  0  0  0  0  0  0
    5.9125   -0.8557    1.3689 C   0  0  0  0  0  0  0  0  0  0  0  0
    7.2178   -0.1233    1.6226 C   0  0  0  0  0  0  0  0  0  0  0  0
    7.1107    1.2626    1.0259 C   0  0  0  0  0  0  0  0  0  0  0  0
    6.8417    1.0763   -0.4571 C   0  0  0  0  0  0  0  0  0  0  0  0
    5.5083    0.3912   -0.5720 C   0  0  0  0  0  0  0  0  0  0  0  0
    0.2840   -0.1592    0.1127 C   0  0  0  0  0  0  0  0  0  0  0  0
   -0.9308    0.0275   -0.5333 C   0  0  0  0  0  0  0  0  0  0  0  0
   -5.1350   -2.1564    5.4825 H   0  0  0  0  0  0  0  0  0  0  0  0
   -5.7996   -3.2777    2.6487 H   0  0  0  0  0  0  0  0  0  0  0  0
   -5.6826   -2.2662    0.4258 H   0  0  0  0  0  0  0  0  0  0  0  0
   -2.8871    0.5705    1.8068 H   0  0  0  0  0  0  0  0  0  0  0  0
   -2.9933   -0.4475    4.0463 H   0  0  0  0  0  0  0  0  0  0  0  0
   -5.2541   -0.5495   -0.9392 H   0  0  0  0  0  0  0  0  0  0  0  0
   -4.8240    3.9930   -2.0709 H   0  0  0  0  0  0  0  0  0  0  0  0
   -5.2862    4.9642   -4.9690 H   0  0  0  0  0  0  0  0  0  0  0  0
   -3.1926    2.8759   -5.8259 H   0  0  0  0  0  0  0  0  0  0  0  0
   -2.5694    0.7127   -4.9045 H   0  0  0  0  0  0  0  0  0  0  0  0
   -3.5509   -1.8212   -1.5631 H   0  0  0  0  0  0  0  0  0  0  0  0
   -2.3464   -2.9364    0.0246 H   0  0  0  0  0  0  0  0  0  0  0  0
   -0.1506   -3.2817    1.1949 H   0  0  0  0  0  0  0  0  0  0  0  0
    2.8135   -0.0362    2.2585 H   0  0  0  0  0  0  0  0  0  0  0  0
    3.5824   -1.6608    2.2941 H   0  0  0  0  0  0  0  0  0  0  0  0
    4.0000   -1.5817   -0.1295 H   0  0  0  0  0  0  0  0  0  0  0  0
    3.0956   -0.0825   -0.2685 H   0  0  0  0  0  0  0  0  0  0  0  0
    5.5547   -1.3801    2.2523 H   0  0  0  0  0  0  0  0  0  0  0  0
    6.1719   -1.6563    0.6179 H   0  0  0  0  0  0  0  0  0  0  0  0
    8.1000   -0.6734    1.2478 H   0  0  0  0  0  0  0  0  0  0  0  0
    7.3296   -0.0777    2.7379 H   0  0  0  0  0  0  0  0  0  0  0  0
    6.2812    1.7825    1.5346 H   0  0  0  0  0  0  0  0  0  0  0  0
    8.0538    1.8267    1.1406 H   0  0  0  0  0  0  0  0  0  0  0  0
    6.7822    2.0517   -0.9841 H   0  0  0  0  0  0  0  0  0  0  0  0
    7.6001    0.4166   -0.8842 H   0  0  0  0  0  0  0  0  0  0  0  0
    4.7526    1.0706   -1.0291 H   0  0  0  0  0  0  0  0  0  0  0  0
    5.5290   -0.5180   -1.2166 H   0  0  0  0  0  0  0  0  0  0  0  0
    0.9798    0.6667    0.1175 H   0  0  0  0  0  0  0  0  0  0  0  0
   -1.1591    0.9803   -1.0313 H   0  0  0  0  0  0  0  0  0  0  0  0
  1  2  1  0
  2  3  2  0
  3  4  1  0
  4  5  2  0
  5  6  1  0
  6  7  2  0
  5  8  1  0
  8  9  1  0
  9 10  1  0
 10 11  2  0
 11 12  1  0
 12 13  1  0
 12 14  2  0
 14 15  1  0
 15 16  2  0
 16 17  1  0
 17 18  1  0
 18 19  1  0
 19 20  2  0
 20 21  1  0
 21 22  2  0
 22 23  1  0
 23 24  1  0
 24 25  1  0
 25 26  1  0
 26 27  1  0
 27 28  1  0
 28 29  1  0
 29 30  1  0
 30 31  1  0
 22 32  1  0
 32 33  2  0
  7  2  1  0
 18  8  1  0
 33 19  1  0
 16 10  1  0
 31 26  1  0
  1 34  1  0
  3 35  1  0
  4 36  1  0
  6 37  1  0
  7 38  1  0
  8 39  1  6
 11 40  1  0
 13 41  1  0
 14 42  1  0
 15 43  1  0
 18 44  1  6
 20 45  1  0
 21 46  1  0
 24 47  1  0
 24 48  1  0
 25 49  1  0
 25 50  1  0
 27 51  1  0
 27 52  1  0
 28 53  1  0
 28 54  1  0
 29 55  1  0
 29 56  1  0
 30 57  1  0
 30 58  1  0
 31 59  1  0
 31 60  1  0
 32 61  1  0
 33 62  1  0
M  END
$$$$
[H]Oc1c([H])c([H])c2c(c1[H])C([H])([H])C([H])([H])[C@]1([H])[C@]2([H])C([H])([H])C([H])([H])[C@]2(C([H])([H])[H])[C@@](C#CC([H])([H])[H])(O[H])C([H])([H])C([H])([H])[C@]21[H]
     RDKit          3D

 49 52  0  0  0  0  0  0  0  0999 V2000
   -0.7576    2.3480   -0.9310 C   0  0  0  0  0  0  0  0  0  0  0  0
   -1.4362    1.2284   -0.1901 C   0  0  2  0  0  0  0  0  0  0  0  0
   -1.0154    1.2111    1.2255 C   0  0  0  0  0  0  0  0  0  0  0  0
    0.5070    1.1870    1.2427 C   0  0  0  0  0  0  0  0  0  0  0  0
    0.9700   -0.0830    0.6150 C   0  0  1  0  0  0  0  0  0  0  0  0
    0.3785   -0.3648   -0.7372 C   0  0  1  0  0  0  0  0  0  0  0  0
    0.6428   -1.8289   -1.0299 C   0  0  0  0  0  0  0  0  0  0  0  0
    2.0841   -2.2037   -0.9799 C   0  0  0  0  0  0  0  0  0  0  0  0
    2.9462   -1.2107   -0.2736 C   0  0  0  0  0  0  0  0  0  0  0  0
    4.3227   -1.3731   -0.4337 C   0  0  0  0  0  0  0  0  0  0  0  0
    5.1808   -0.4827    0.1974 C   0  0  0  0  0  0  0  0  0  0  0  0
    6.5654   -0.6569    0.0284 O   0  0  0  0  0  0  0  0  0  0  0  0
    4.6782    0.5407    0.9665 C   0  0  0  0  0  0  0  0  0  0  0  0
    3.2922    0.6750    1.1062 C   0  0  0  0  0  0  0  0  0  0  0  0
    2.4274   -0.1939    0.4910 C   0  0  0  0  0  0  0  0  0  0  0  0
   -1.0810   -0.1396   -0.7922 C   0  0  2  0  0  0  0  0  0  0  0  0
   -1.6638    0.0130   -2.1527 C   0  0  0  0  0  0  0  0  0  0  0  0
   -2.9423    0.8197   -1.9181 C   0  0  0  0  0  0  0  0  0  0  0  0
   -2.9022    1.2297   -0.4459 C   0  0  2  0  0  0  0  0  0  0  0  0
   -3.5038    2.4595   -0.2435 O   0  0  0  0  0  0  0  0  0  0  0  0
   -3.5481    0.1801    0.3635 C   0  0  0  0  0  0  0  0  0  0  0  0
   -4.0616   -0.6837    1.0340 C   0  0  0  0  0  0  0  0  0  0  0  0
   -4.7007   -1.7232    1.8659 C   0  0  0  0  0  0  0  0  0  0  0  0
   -1.2880    2.6538   -1.8508 H   0  0  0  0  0  0  0  0  0  0  0  0
   -0.8065    3.2482   -0.2519 H   0  0  0  0  0  0  0  0  0  0  0  0
    0.2924    2.1267   -1.1318 H   0  0  0  0  0  0  0  0  0  0  0  0
   -1.3562    0.3004    1.7575 H   0  0  0  0  0  0  0  0  0  0  0  0
   -1.4191    2.1014    1.7455 H   0  0  0  0  0  0  0  0  0  0  0  0
    0.8020    1.1678    2.3122 H   0  0  0  0  0  0  0  0  0  0  0  0
    0.9413    2.0965    0.8019 H   0  0  0  0  0  0  0  0  0  0  0  0
    0.6370   -0.9230    1.2855 H   0  0  0  0  0  0  0  0  0  0  0  0
    0.9207    0.2234   -1.5067 H   0  0  0  0  0  0  0  0  0  0  0  0
    0.1343   -2.1304   -1.9683 H   0  0  0  0  0  0  0  0  0  0  0  0
    0.1117   -2.3977   -0.2109 H   0  0  0  0  0  0  0  0  0  0  0  0
    2.2085   -3.2082   -0.4933 H   0  0  0  0  0  0  0  0  0  0  0  0
    2.4284   -2.3590   -2.0351 H   0  0  0  0  0  0  0  0  0  0  0  0
    4.6964   -2.1857   -1.0437 H   0  0  0  0  0  0  0  0  0  0  0  0
    6.9178   -1.4067   -0.5346 H   0  0  0  0  0  0  0  0  0  0  0  0
    5.3299    1.2398    1.4628 H   0  0  0  0  0  0  0  0  0  0  0  0
    2.8619    1.4694    1.7043 H   0  0  0  0  0  0  0  0  0  0  0  0
   -1.6247   -0.9017   -0.2163 H   0  0  0  0  0  0  0  0  0  0  0  0
   -1.8955   -0.9893   -2.5744 H   0  0  0  0  0  0  0  0  0  0  0  0
   -0.9875    0.5386   -2.8578 H   0  0  0  0  0  0  0  0  0  0  0  0
   -3.0048    1.6927   -2.5804 H   0  0  0  0  0  0  0  0  0  0  0  0
   -3.8083    0.1238   -2.0251 H   0  0  0  0  0  0  0  0  0  0  0  0
   -3.9219    2.5602    0.6331 H   0  0  0  0  0  0  0  0  0  0  0  0
   -5.7861   -1.5117    2.0141 H   0  0  0  0  0  0  0  0  0  0  0  0
   -4.1411   -1.7570    2.8148 H   0  0  0  0  0  0  0  0  0  0  0  0
   -4.6253   -2.7204    1.3992 H   0  0  0  0  0  0  0  0  0  0  0  0
  2  1  1  6
  2  3  1  0
  3  4  1  0
  4  5  1  0
  5  6  1  0
  6  7  1  0
  7  8  1  0
  8  9  1  0
  9 10  2  0
 10 11  1  0
 11 12  1  0
 11 13  2  0
 13 14  1  0
 14 15  2  0
  6 16  1  0
 16 17  1  0
 17 18  1  0
 18 19  1  0
 19 20  1  0
 19 21  1  1
 21 22  3  0
 22 23  1  0
 16  2  1  0
 19  2  1  0
 15  5  1  0
 15  9  1  0
  1 24  1  0
  1 25  1  0
  1 26  1  0
  3 27  1  0
  3 28  1  0
  4 29  1  0
  4 30  1  0
  5 31  1  1
  6 32  1  6
  7 33  1  0
  7 34  1  0
  8 35  1  0
  8 36  1  0
 10 37  1  0
 12 38  1  0
 13 39  1  0
 14 40  1  0
 16 41  1  1
 17 42  1  0
 17 43  1  0
 18 44  1  0
 18 45  1  0
 20 46  1  0
 23 47  1  0
 23 48  1  0
 23 49  1  0
M  END
$$$$
[H]Oc1c([H])c([H])c([C@@]2([H])Oc3c([H])c(O[H])c([H])c([H])c3O[C@@]2([H])c2c([H])c([H])c(OC([H])([H])[C@@]([H])(N3C([H])([H])C([H])([H])C([H])([H])C3([H])[H])C([H])([H])[H])c([H])c2[H])c([H])c1[H]
     RDKit          3D

 62 66  0  0  0  0  0  0  0  0999 V2000
    4.4967   -1.2378    0.6182 C   0  0  0  0  0  0  0  0  0  0  0  0
    3.9380    0.1597    0.3419 C   0  0  1  0  0  0  0  0  0  0  0  0
    3.2268    0.6375    1.5704 C   0  0  0  0  0  0  0  0  0  0  0  0
    2.1765   -0.1470    1.9173 O   0  0  0  0  0  0  0  0  0  0  0  0
    0.9871   -0.4769    1.3262 C   0  0  0  0  0  0  0  0  0  0  0  0
    0.5342   -0.0111    0.1145 C   0  0  0  0  0  0  0  0  0  0  0  0
   -0.6905   -0.3999   -0.4195 C   0  0  0  0  0  0  0  0  0  0  0  0
   -1.5236   -1.2744    0.2339 C   0  0  0  0  0  0  0  0  0  0  0  0
   -1.0648   -1.7405    1.4533 C   0  0  0  0  0  0  0  0  0  0  0  0
    0.1285   -1.3741    1.9937 C   0  0  0  0  0  0  0  0  0  0  0  0
   -2.8315   -1.7115   -0.2993 C   0  0  2  0  0  0  0  0  0  0  0  0
   -2.7155   -1.9960   -1.6761 O   0  0  0  0  0  0  0  0  0  0  0  0
   -3.2903   -1.2587   -2.6969 C   0  0  0  0  0  0  0  0  0  0  0  0
   -3.2304   -1.6512   -4.0197 C   0  0  0  0  0  0  0  0  0  0  0  0
   -3.8208   -0.8814   -5.0163 C   0  0  0  0  0  0  0  0  0  0  0  0
   -4.4820    0.2926   -4.7201 C   0  0  0  0  0  0  0  0  0  0  0  0
   -5.0491    1.0151   -5.7556 O   0  0  0  0  0  0  0  0  0  0  0  0
   -4.5246    0.6564   -3.3940 C   0  0  0  0  0  0  0  0  0  0  0  0
   -3.9558   -0.0755   -2.3897 C   0  0  0  0  0  0  0  0  0  0  0  0
   -3.9821    0.2632   -1.0568 O   0  0  0  0  0  0  0  0  0  0  0  0
   -3.9611   -0.7699   -0.0965 C   0  0  2  0  0  0  0  0  0  0  0  0
   -4.1083   -0.2672    1.2771 C   0  0  0  0  0  0  0  0  0  0  0  0
   -3.4397    0.8611    1.6951 C   0  0  0  0  0  0  0  0  0  0  0  0
   -3.5809    1.3333    3.0083 C   0  0  0  0  0  0  0  0  0  0  0  0
   -4.3835    0.6905    3.9101 C   0  0  0  0  0  0  0  0  0  0  0  0
   -4.5119    1.1790    5.2211 O   0  0  0  0  0  0  0  0  0  0  0  0
   -5.0535   -0.4403    3.4906 C   0  0  0  0  0  0  0  0  0  0  0  0
   -4.9115   -0.9042    2.1919 C   0  0  0  0  0  0  0  0  0  0  0  0
    5.0563    1.0055   -0.0096 N   0  0  0  0  0  0  0  0  0  0  0  0
    6.0382    1.1773    0.9970 C   0  0  0  0  0  0  0  0  0  0  0  0
    7.2111    1.7914    0.2643 C   0  0  0  0  0  0  0  0  0  0  0  0
    6.9551    1.5466   -1.1987 C   0  0  0  0  0  0  0  0  0  0  0  0
    5.6660    0.7350   -1.2590 C   0  0  0  0  0  0  0  0  0  0  0  0
    3.9463   -1.9878    0.0338 H   0  0  0  0  0  0  0  0  0  0  0  0
    5.5566   -1.2853    0.3158 H   0  0  0  0  0  0  0  0  0  0  0  0
    4.4895   -1.4568    1.7113 H   0  0  0  0  0  0  0  0  0  0  0  0
    3.3137    0.0768   -0.5436 H   0  0  0  0  0  0  0  0  0  0  0  0
    3.9564    0.6329    2.4281 H   0  0  0  0  0  0  0  0  0  0  0  0
    2.8625    1.6897    1.3998 H   0  0  0  0  0  0  0  0  0  0  0  0
    1.1191    0.6897   -0.4529 H   0  0  0  0  0  0  0  0  0  0  0  0
   -0.9896    0.0106   -1.3947 H   0  0  0  0  0  0  0  0  0  0  0  0
   -1.6873   -2.4274    1.9974 H   0  0  0  0  0  0  0  0  0  0  0  0
    0.4729   -1.7565    2.9632 H   0  0  0  0  0  0  0  0  0  0  0  0
   -3.1283   -2.7090    0.1574 H   0  0  0  0  0  0  0  0  0  0  0  0
   -2.7163   -2.5732   -4.2910 H   0  0  0  0  0  0  0  0  0  0  0  0
   -3.7379   -1.2450   -6.0318 H   0  0  0  0  0  0  0  0  0  0  0  0
   -5.9940    0.8872   -6.0877 H   0  0  0  0  0  0  0  0  0  0  0  0
   -5.0356    1.5707   -3.1319 H   0  0  0  0  0  0  0  0  0  0  0  0
   -4.8974   -1.3900   -0.2989 H   0  0  0  0  0  0  0  0  0  0  0  0
   -2.7997    1.4053    1.0264 H   0  0  0  0  0  0  0  0  0  0  0  0
   -3.0519    2.2286    3.3451 H   0  0  0  0  0  0  0  0  0  0  0  0
   -5.1069    0.6908    5.8676 H   0  0  0  0  0  0  0  0  0  0  0  0
   -5.6821   -0.9419    4.2018 H   0  0  0  0  0  0  0  0  0  0  0  0
   -5.4369   -1.7970    1.8523 H   0  0  0  0  0  0  0  0  0  0  0  0
    5.7559    1.9173    1.7832 H   0  0  0  0  0  0  0  0  0  0  0  0
    6.3381    0.2053    1.4366 H   0  0  0  0  0  0  0  0  0  0  0  0
    8.1784    1.3360    0.5988 H   0  0  0  0  0  0  0  0  0  0  0  0
    7.2708    2.8908    0.4269 H   0  0  0  0  0  0  0  0  0  0  0  0
    6.8431    2.4870   -1.7876 H   0  0  0  0  0  0  0  0  0  0  0  0
    7.8205    0.9819   -1.6029 H   0  0  0  0  0  0  0  0  0  0  0  0
    5.9519   -0.3153   -1.4051 H   0  0  0  0  0  0  0  0  0  0  0  0
    5.0853    1.1258   -2.1344 H   0  0  0  0  0  0  0  0  0  0  0  0
  1  2  1  0
  2  3  1  0
  3  4  1  0
  4  5  1  0
  5  6  2  0
  6  7  1  0
  7  8  2  0
  8  9  1  0
  9 10  2  0
  8 11  1  0
 11 12  1  0
 12 13  1  0
 13 14  2  0
 14 15  1  0
 15 16  2  0
 16 17  1  0
 16 18  1  0
 18 19  2  0
 19 20  1  0
 20 21  1  0
 21 22  1  0
 22 23  2  0
 23 24  1  0
 24 25  2  0
 25 26  1  0
 25 27  1  0
 27 28  2  0
  2 29  1  0
 29 30  1  0
 30 31  1  0
 31 32  1  0
 32 33  1  0
 10  5  1  0
 21 11  1  0
 28 22  1  0
 33 29  1  0
 19 13  1  0
  1 34  1  0
  1 35  1  0
  1 36  1  0
  2 37  1  6
  3 38  1  0
  3 39  1  0
  6 40  1  0
  7 41  1  0
  9 42  1  0
 10 43  1  0
 11 44  1  1
 14 45  1  0
 15 46  1  0
 17 47  1  0
 18 48  1  0
 21 49  1  6
 23 50  1  0
 24 51  1  0
 26 52  1  0
 27 53  1  0
 28 54  1  0
 30 55  1  0
 30 56  1  0
 31 57  1  0
 31 58  1  0
 32 59  1  0
 32 60  1  0
 33 61  1  0
 33 62  1  0
M  END
$$$$
[H]Oc1c([H])c([H])c([C@@]2([H])Sc3c([H])c(O[H])c([H])c([H])c3O[C@]2([H])c2c([H])c([H])c(OC([H])([H])C([H])([H])N3C([H])([H])C([H])([H])C([H])([H])C3([H])[H])c([H])c2[H])c([H])c1[H]
     RDKit          3D

 59 63  0  0  0  0  0  0  0  0999 V2000
   -1.8946    5.2030    0.2193 O   0  0  0  0  0  0  0  0  0  0  0  0
   -2.2582    3.8517    0.3547 C   0  0  0  0  0  0  0  0  0  0  0  0
   -2.9825    3.2047   -0.6218 C   0  0  0  0  0  0  0  0  0  0  0  0
   -3.3349    1.8687   -0.4753 C   0  0  0  0  0  0  0  0  0  0  0  0
   -2.9819    1.1405    0.6360 C   0  0  0  0  0  0  0  0  0  0  0  0
   -2.2583    1.8011    1.6030 C   0  0  0  0  0  0  0  0  0  0  0  0
   -1.8986    3.1326    1.4728 C   0  0  0  0  0  0  0  0  0  0  0  0
   -3.3319   -0.2634    0.8223 C   0  0  1  0  0  0  0  0  0  0  0  0
   -5.1216   -0.5869    0.7541 S   0  0  0  0  0  0  0  0  0  0  0  0
   -5.2866   -2.3501    0.5093 C   0  0  0  0  0  0  0  0  0  0  0  0
   -6.4839   -2.9912    0.5540 C   0  0  0  0  0  0  0  0  0  0  0  0
   -6.5651   -4.3637    0.3590 C   0  0  0  0  0  0  0  0  0  0  0  0
   -7.7947   -5.0167    0.4061 O   0  0  0  0  0  0  0  0  0  0  0  0
   -5.4349   -5.1328    0.1120 C   0  0  0  0  0  0  0  0  0  0  0  0
   -4.2222   -4.4757    0.0679 C   0  0  0  0  0  0  0  0  0  0  0  0
   -4.1601   -3.1062    0.2647 C   0  0  0  0  0  0  0  0  0  0  0  0
   -2.9126   -2.5087    0.2073 O   0  0  0  0  0  0  0  0  0  0  0  0
   -2.7103   -1.1827   -0.2111 C   0  0  2  0  0  0  0  0  0  0  0  0
   -1.2611   -0.9430   -0.3727 C   0  0  0  0  0  0  0  0  0  0  0  0
   -0.3260   -1.3455    0.5570 C   0  0  0  0  0  0  0  0  0  0  0  0
    1.0176   -1.1006    0.3657 C   0  0  0  0  0  0  0  0  0  0  0  0
    1.4926   -0.4463   -0.7553 C   0  0  0  0  0  0  0  0  0  0  0  0
    2.8566   -0.2072   -0.9318 O   0  0  0  0  0  0  0  0  0  0  0  0
    3.8047   -0.6361    0.0470 C   0  0  0  0  0  0  0  0  0  0  0  0
    5.2007   -0.2779   -0.3432 C   0  0  0  0  0  0  0  0  0  0  0  0
    5.4226    1.1211   -0.5089 N   0  0  0  0  0  0  0  0  0  0  0  0
    5.3600    1.8904    0.6881 C   0  0  0  0  0  0  0  0  0  0  0  0
    6.7207    2.5352    0.8452 C   0  0  0  0  0  0  0  0  0  0  0  0
    7.1483    2.7271   -0.5970 C   0  0  0  0  0  0  0  0  0  0  0  0
    6.5841    1.4782   -1.2581 C   0  0  0  0  0  0  0  0  0  0  0  0
    0.5610   -0.0423   -1.6870 C   0  0  0  0  0  0  0  0  0  0  0  0
   -0.7943   -0.2893   -1.4942 C   0  0  0  0  0  0  0  0  0  0  0  0
   -2.1362    5.7503   -0.5723 H   0  0  0  0  0  0  0  0  0  0  0  0
   -3.2780    3.7466   -1.5108 H   0  0  0  0  0  0  0  0  0  0  0  0
   -3.9079    1.3556   -1.2463 H   0  0  0  0  0  0  0  0  0  0  0  0
   -1.9625    1.2455    2.5013 H   0  0  0  0  0  0  0  0  0  0  0  0
   -1.3268    3.6351    2.2483 H   0  0  0  0  0  0  0  0  0  0  0  0
   -2.9829   -0.6687    1.8128 H   0  0  0  0  0  0  0  0  0  0  0  0
   -7.3805   -2.4142    0.7450 H   0  0  0  0  0  0  0  0  0  0  0  0
   -8.6499   -4.4914    0.5850 H   0  0  0  0  0  0  0  0  0  0  0  0
   -5.5086   -6.2097   -0.0396 H   0  0  0  0  0  0  0  0  0  0  0  0
   -3.3455   -5.0871   -0.1259 H   0  0  0  0  0  0  0  0  0  0  0  0
   -3.2659   -1.0341   -1.1562 H   0  0  0  0  0  0  0  0  0  0  0  0
   -0.6702   -1.8575    1.4387 H   0  0  0  0  0  0  0  0  0  0  0  0
    1.7357   -1.4206    1.1012 H   0  0  0  0  0  0  0  0  0  0  0  0
    3.5257   -0.3215    1.0602 H   0  0  0  0  0  0  0  0  0  0  0  0
    3.7432   -1.7628    0.0388 H   0  0  0  0  0  0  0  0  0  0  0  0
    5.4106   -0.7972   -1.3142 H   0  0  0  0  0  0  0  0  0  0  0  0
    5.8900   -0.7346    0.3923 H   0  0  0  0  0  0  0  0  0  0  0  0
    5.1461    1.1889    1.5344 H   0  0  0  0  0  0  0  0  0  0  0  0
    4.6224    2.7177    0.6554 H   0  0  0  0  0  0  0  0  0  0  0  0
    7.4493    1.8705    1.3560 H   0  0  0  0  0  0  0  0  0  0  0  0
    6.6114    3.5179    1.3587 H   0  0  0  0  0  0  0  0  0  0  0  0
    6.6458    3.6011   -1.0438 H   0  0  0  0  0  0  0  0  0  0  0  0
    8.2368    2.7361   -0.6509 H   0  0  0  0  0  0  0  0  0  0  0  0
    6.4517    1.5695   -2.3360 H   0  0  0  0  0  0  0  0  0  0  0  0
    7.3422    0.6648   -1.0826 H   0  0  0  0  0  0  0  0  0  0  0  0
    0.9355    0.4709   -2.5663 H   0  0  0  0  0  0  0  0  0  0  0  0
   -1.4861    0.0410   -2.2443 H   0  0  0  0  0  0  0  0  0  0  0  0
  1  2  1  0
  2  3  2  0
  3  4  1  0
  4  5  2  0
  5  6  1  0
  6  7  2  0
  5  8  1  0
  8  9  1  0
  9 10  1  0
 10 11  2  0
 11 12  1  0
 12 13  1  0
 12 14  2  0
 14 15  1  0
 15 16  2  0
 16 17  1  0
 17 18  1  0
 18 19  1  0
 19 20  2  0
 20 21  1  0
 21 22  2  0
 22 23  1  0
 23 24  1  0
 24 25  1  0
 25 26  1  0
 26 27  1  0
 27 28  1  0
 28 29  1  0
 29 30  1  0
 22 31  1  0
 31 32  2  0
  7  2  1  0
 18  8  1  0
 32 19  1  0
 16 10  1  0
 30 26  1  0
  1 33  1  0
  3 34  1  0
  4 35  1  0
  6 36  1  0
  7 37  1  0
  8 38  1  1
 11 39  1  0
 13 40  1  0
 14 41  1  0
 15 42  1  0
 18 43  1  6
 20 44  1  0
 21 45  1  0
 24 46  1  0
 24 47  1  0
 25 48  1  0
 25 49  1  0
 27 50  1  0
 27 51  1  0
 28 52  1  0
 28 53  1  0
 29 54  1  0
 29 55  1  0
 30 56  1  0
 30 57  1  0
 31 58  1  0
 32 59  1  0
M  END
$$$$
[H]Oc1c([H])c([H])c([C@]2([H])Sc3c([H])c(O[H])c([H])c([H])c3O[C@]2([H])c2c([H])c([H])c(OC([H])([H])C([H])([H])N3C([H])([H])C([H])([H])C([H])([H])C([H])([H])C3([H])[H])c([H])c2[H])c([H])c1[H]
     RDKit          3D

 62 66  0  0  0  0  0  0  0  0999 V2000
   -6.2814   -3.1274    4.8213 O   0  0  0  0  0  0  0  0  0  0  0  0
   -5.7500   -2.3231    3.7916 C   0  0  0  0  0  0  0  0  0  0  0  0
   -6.0585   -2.5908    2.4762 C   0  0  0  0  0  0  0  0  0  0  0  0
   -5.5452   -1.8108    1.4365 C   0  0  0  0  0  0  0  0  0  0  0  0
   -4.7087   -0.7431    1.7113 C   0  0  0  0  0  0  0  0  0  0  0  0
   -4.4246   -0.5078    3.0273 C   0  0  0  0  0  0  0  0  0  0  0  0
   -4.9223   -1.2678    4.0671 C   0  0  0  0  0  0  0  0  0  0  0  0
   -4.1931    0.0722    0.6522 C   0  0  2  0  0  0  0  0  0  0  0  0
   -3.9132   -0.8344   -0.9334 S   0  0  0  0  0  0  0  0  0  0  0  0
   -3.4888    0.4971   -2.0153 C   0  0  0  0  0  0  0  0  0  0  0  0
   -3.5728    0.3535   -3.3597 C   0  0  0  0  0  0  0  0  0  0  0  0
   -3.2498    1.3864   -4.2419 C   0  0  0  0  0  0  0  0  0  0  0  0
   -3.3382    1.2320   -5.6158 O   0  0  0  0  0  0  0  0  0  0  0  0
   -2.8347    2.5814   -3.7074 C   0  0  0  0  0  0  0  0  0  0  0  0
   -2.7460    2.7380   -2.3511 C   0  0  0  0  0  0  0  0  0  0  0  0
   -3.0762    1.6845   -1.4809 C   0  0  0  0  0  0  0  0  0  0  0  0
   -2.9576    1.9337   -0.1383 O   0  0  0  0  0  0  0  0  0  0  0  0
   -3.0120    0.9219    0.8685 C   0  0  2  0  0  0  0  0  0  0  0  0
   -1.6981    0.2944    0.9041 C   0  0  0  0  0  0  0  0  0  0  0  0
   -1.5164   -1.0602    0.9929 C   0  0  0  0  0  0  0  0  0  0  0  0
   -0.2730   -1.6526    1.0254 C   0  0  0  0  0  0  0  0  0  0  0  0
    0.8830   -0.8815    0.9666 C   0  0  0  0  0  0  0  0  0  0  0  0
    2.0772   -1.5515    1.0069 O   0  0  0  0  0  0  0  0  0  0  0  0
    3.3800   -1.0812    0.9333 C   0  0  0  0  0  0  0  0  0  0  0  0
    3.7000   -0.4529   -0.4018 C   0  0  0  0  0  0  0  0  0  0  0  0
    5.0547    0.0387   -0.4312 N   0  0  0  0  0  0  0  0  0  0  0  0
    6.0730   -0.9667   -0.4268 C   0  0  0  0  0  0  0  0  0  0  0  0
    7.3256   -0.3335    0.1656 C   0  0  0  0  0  0  0  0  0  0  0  0
    7.3417    1.1097   -0.3205 C   0  0  0  0  0  0  0  0  0  0  0  0
    6.7438    1.1503   -1.7179 C   0  0  0  0  0  0  0  0  0  0  0  0
    5.2710    0.8382   -1.6483 C   0  0  0  0  0  0  0  0  0  0  0  0
    0.7167    0.4767    0.8777 C   0  0  0  0  0  0  0  0  0  0  0  0
   -0.5330    1.0510    0.8469 C   0  0  0  0  0  0  0  0  0  0  0  0
   -7.1878   -2.7996    5.1883 H   0  0  0  0  0  0  0  0  0  0  0  0
   -6.7182   -3.4351    2.2838 H   0  0  0  0  0  0  0  0  0  0  0  0
   -5.7973   -2.0361    0.4303 H   0  0  0  0  0  0  0  0  0  0  0  0
   -3.7789    0.3125    3.2935 H   0  0  0  0  0  0  0  0  0  0  0  0
   -4.6775   -1.0499    5.0996 H   0  0  0  0  0  0  0  0  0  0  0  0
   -5.0349    0.7948    0.3494 H   0  0  0  0  0  0  0  0  0  0  0  0
   -3.8955   -0.5719   -3.8181 H   0  0  0  0  0  0  0  0  0  0  0  0
   -4.2550    1.4815   -6.0169 H   0  0  0  0  0  0  0  0  0  0  0  0
   -2.5788    3.4003   -4.3939 H   0  0  0  0  0  0  0  0  0  0  0  0
   -2.4141    3.6942   -1.9765 H   0  0  0  0  0  0  0  0  0  0  0  0
   -3.2216    1.5346    1.8001 H   0  0  0  0  0  0  0  0  0  0  0  0
   -2.3495   -1.7318    1.0427 H   0  0  0  0  0  0  0  0  0  0  0  0
   -0.1653   -2.7235    1.0980 H   0  0  0  0  0  0  0  0  0  0  0  0
    3.4728   -0.2925    1.7476 H   0  0  0  0  0  0  0  0  0  0  0  0
    4.1237   -1.8626    1.2307 H   0  0  0  0  0  0  0  0  0  0  0  0
    3.6081   -1.2466   -1.2191 H   0  0  0  0  0  0  0  0  0  0  0  0
    3.0321    0.3400   -0.7096 H   0  0  0  0  0  0  0  0  0  0  0  0
    5.7568   -1.8374    0.1379 H   0  0  0  0  0  0  0  0  0  0  0  0
    6.3194   -1.2175   -1.4939 H   0  0  0  0  0  0  0  0  0  0  0  0
    8.2139   -0.8855   -0.1415 H   0  0  0  0  0  0  0  0  0  0  0  0
    7.2649   -0.2796    1.2720 H   0  0  0  0  0  0  0  0  0  0  0  0
    6.6296    1.6749    0.3365 H   0  0  0  0  0  0  0  0  0  0  0  0
    8.3495    1.5362   -0.3265 H   0  0  0  0  0  0  0  0  0  0  0  0
    6.9229    2.1652   -2.1136 H   0  0  0  0  0  0  0  0  0  0  0  0
    7.2276    0.4063   -2.3794 H   0  0  0  0  0  0  0  0  0  0  0  0
    4.6872    1.7560   -1.6530 H   0  0  0  0  0  0  0  0  0  0  0  0
    4.9715    0.1366   -2.4789 H   0  0  0  0  0  0  0  0  0  0  0  0
    1.6074    1.1025    0.8528 H   0  0  0  0  0  0  0  0  0  0  0  0
   -0.5861    2.1273    0.7766 H   0  0  0  0  0  0  0  0  0  0  0  0
  1  2  1  0
  2  3  2  0
  3  4  1  0
  4  5  2  0
  5  6  1  0
  6  7  2  0
  5  8  1  0
  8  9  1  0
  9 10  1  0
 10 11  2  0
 11 12  1  0
 12 13  1  0
 12 14  2  0
 14 15  1  0
 15 16  2  0
 16 17  1  0
 17 18  1  0
 18 19  1  0
 19 20  2  0
 20 21  1  0
 21 22  2  0
 22 23  1  0
 23 24  1  0
 24 25  1  0
 25 26  1  0
 26 27  1  0
 27 28  1  0
 28 29  1  0
 29 30  1  0
 30 31  1  0
 22 32  1  0
 32 33  2  0
  7  2  1  0
 18  8  1  0
 33 19  1  0
 16 10  1  0
 31 26  1  0
  1 34  1  0
  3 35  1  0
  4 36  1  0
  6 37  1  0
  7 38  1  0
  8 39  1  6
 11 40  1  0
 13 41  1  0
 14 42  1  0
 15 43  1  0
 18 44  1  1
 20 45  1  0
 21 46  1  0
 24 47  1  0
 24 48  1  0
 25 49  1  0
 25 50  1  0
 27 51  1  0
 27 52  1  0
 28 53  1  0
 28 54  1  0
 29 55  1  0
 29 56  1  0
 30 57  1  0
 30 58  1  0
 31 59  1  0
 31 60  1  0
 32 61  1  0
 33 62  1  0
M  END
$$$$
[H]Oc1c([H])c([H])c([C@]2([H])Sc3c([H])c([H])c(O[H])c([H])c3O[C@]2([H])c2c([H])c([H])c(OC([H])([H])C([H])([H])N3C([H])([H])C([H])([H])C([H])([H])C([H])([H])C3([H])[H])c([H])c2[H])c([H])c1[H]
     RDKit          3D

 62 66  0  0  0  0  0  0  0  0999 V2000
   -1.4940   -1.5368   -4.8505 O   0  0  0  0  0  0  0  0  0  0  0  0
   -2.1290   -1.2717   -3.6364 C   0  0  0  0  0  0  0  0  0  0  0  0
   -3.0190   -2.1476   -3.0569 C   0  0  0  0  0  0  0  0  0  0  0  0
   -3.6318   -1.8642   -1.8614 C   0  0  0  0  0  0  0  0  0  0  0  0
   -3.3959   -0.6834   -1.1651 C   0  0  0  0  0  0  0  0  0  0  0  0
   -2.5070    0.1882   -1.7467 C   0  0  0  0  0  0  0  0  0  0  0  0
   -1.8742   -0.0926   -2.9706 C   0  0  0  0  0  0  0  0  0  0  0  0
   -4.0976   -0.4296    0.1083 C   0  0  2  0  0  0  0  0  0  0  0  0
   -4.5499    1.3124    0.3063 S   0  0  0  0  0  0  0  0  0  0  0  0
   -4.8261    1.5343    2.0331 C   0  0  0  0  0  0  0  0  0  0  0  0
   -5.4790    2.6235    2.4795 C   0  0  0  0  0  0  0  0  0  0  0  0
   -5.7170    2.8425    3.8116 C   0  0  0  0  0  0  0  0  0  0  0  0
   -5.2791    1.9261    4.7324 C   0  0  0  0  0  0  0  0  0  0  0  0
   -5.5097    2.1247    6.1089 O   0  0  0  0  0  0  0  0  0  0  0  0
   -4.6109    0.8093    4.2891 C   0  0  0  0  0  0  0  0  0  0  0  0
   -4.3775    0.6031    2.9226 C   0  0  0  0  0  0  0  0  0  0  0  0
   -3.7135   -0.5146    2.5313 O   0  0  0  0  0  0  0  0  0  0  0  0
   -3.3323   -0.9582    1.2902 C   0  0  2  0  0  0  0  0  0  0  0  0
   -1.8588   -0.8317    1.1756 C   0  0  0  0  0  0  0  0  0  0  0  0
   -1.0774   -1.8831    0.7170 C   0  0  0  0  0  0  0  0  0  0  0  0
    0.2929   -1.7734    0.6091 C   0  0  0  0  0  0  0  0  0  0  0  0
    0.9629   -0.6068    0.9523 C   0  0  0  0  0  0  0  0  0  0  0  0
    2.3325   -0.4867    0.8514 O   0  0  0  0  0  0  0  0  0  0  0  0
    3.1667   -1.5163    0.4314 C   0  0  0  0  0  0  0  0  0  0  0  0
    4.6139   -1.1128    0.3835 C   0  0  0  0  0  0  0  0  0  0  0  0
    4.8674   -0.0240   -0.5727 N   0  0  0  0  0  0  0  0  0  0  0  0
    4.7373   -0.4918   -1.9220 C   0  0  0  0  0  0  0  0  0  0  0  0
    4.7063    0.6620   -2.8819 C   0  0  0  0  0  0  0  0  0  0  0  0
    5.7311    1.6734   -2.4833 C   0  0  0  0  0  0  0  0  0  0  0  0
    6.7846    0.9615   -1.6675 C   0  0  0  0  0  0  0  0  0  0  0  0
    6.1761    0.5332   -0.3623 C   0  0  0  0  0  0  0  0  0  0  0  0
    0.1860    0.4392    1.4061 C   0  0  0  0  0  0  0  0  0  0  0  0
   -1.1709    0.3099    1.5071 C   0  0  0  0  0  0  0  0  0  0  0  0
   -1.6772   -2.4063   -5.3496 H   0  0  0  0  0  0  0  0  0  0  0  0
   -3.2050   -3.0755   -3.6034 H   0  0  0  0  0  0  0  0  0  0  0  0
   -4.3370   -2.5759   -1.4118 H   0  0  0  0  0  0  0  0  0  0  0  0
   -2.3018    1.1246   -1.2449 H   0  0  0  0  0  0  0  0  0  0  0  0
   -1.1864    0.6019   -3.3964 H   0  0  0  0  0  0  0  0  0  0  0  0
   -5.0804   -1.0030    0.1411 H   0  0  0  0  0  0  0  0  0  0  0  0
   -5.8368    3.3705    1.7710 H   0  0  0  0  0  0  0  0  0  0  0  0
   -6.2507    3.7347    4.1717 H   0  0  0  0  0  0  0  0  0  0  0  0
   -4.7653    2.6417    6.5831 H   0  0  0  0  0  0  0  0  0  0  0  0
   -4.2625    0.0803    5.0307 H   0  0  0  0  0  0  0  0  0  0  0  0
   -3.5440   -2.0821    1.2862 H   0  0  0  0  0  0  0  0  0  0  0  0
   -1.6141   -2.7951    0.4496 H   0  0  0  0  0  0  0  0  0  0  0  0
    0.8798   -2.6043    0.2496 H   0  0  0  0  0  0  0  0  0  0  0  0
    2.8528   -1.8674   -0.5584 H   0  0  0  0  0  0  0  0  0  0  0  0
    3.0933   -2.3188    1.2033 H   0  0  0  0  0  0  0  0  0  0  0  0
    5.2125   -1.9692    0.0000 H   0  0  0  0  0  0  0  0  0  0  0  0
    5.0327   -0.8691    1.3828 H   0  0  0  0  0  0  0  0  0  0  0  0
    3.8315   -1.1161   -2.1002 H   0  0  0  0  0  0  0  0  0  0  0  0
    5.5955   -1.1556   -2.1964 H   0  0  0  0  0  0  0  0  0  0  0  0
    4.8493    0.3090   -3.9348 H   0  0  0  0  0  0  0  0  0  0  0  0
    3.6849    1.1220   -2.8339 H   0  0  0  0  0  0  0  0  0  0  0  0
    5.2346    2.4737   -1.9000 H   0  0  0  0  0  0  0  0  0  0  0  0
    6.1442    2.1732   -3.3886 H   0  0  0  0  0  0  0  0  0  0  0  0
    7.6225    1.6813   -1.5214 H   0  0  0  0  0  0  0  0  0  0  0  0
    7.1846    0.1131   -2.2666 H   0  0  0  0  0  0  0  0  0  0  0  0
    6.1463    1.4497    0.2816 H   0  0  0  0  0  0  0  0  0  0  0  0
    6.8741   -0.2147    0.1243 H   0  0  0  0  0  0  0  0  0  0  0  0
    0.6506    1.3707    1.6893 H   0  0  0  0  0  0  0  0  0  0  0  0
   -1.7351    1.1567    1.8723 H   0  0  0  0  0  0  0  0  0  0  0  0
  1  2  1  0
  2  3  2  0
  3  4  1  0
  4  5  2  0
  5  6  1  0
  6  7  2  0
  5  8  1  0
  8  9  1  0
  9 10  1  0
 10 11  2  0
 11 12  1  0
 12 13  2  0
 13 14  1  0
 13 15  1  0
 15 16  2  0
 16 17  1  0
 17 18  1  0
 18 19  1  0
 19 20  2  0
 20 21  1  0
 21 22  2  0
 22 23  1  0
 23 24  1  0
 24 25  1  0
 25 26  1  0
 26 27  1  0
 27 28  1  0
 28 29  1  0
 29 30  1  0
 30 31  1  0
 22 32  1  0
 32 33  2  0
  7  2  1  0
 18  8  1  0
 33 19  1  0
 16 10  1  0
 31 26  1  0
  1 34  1  0
  3 35  1  0
  4 36  1  0
  6 37  1  0
  7 38  1  0
  8 39  1  6
 11 40  1  0
 12 41  1  0
 14 42  1  0
 15 43  1  0
 18 44  1  1
 20 45  1  0
 21 46  1  0
 24 47  1  0
 24 48  1  0
 25 49  1  0
 25 50  1  0
 27 51  1  0
 27 52  1  0
 28 53  1  0
 28 54  1  0
 29 55  1  0
 29 56  1  0
 30 57  1  0
 30 58  1  0
 31 59  1  0
 31 60  1  0
 32 61  1  0
 33 62  1  0
M  END
$$$$
[H]C1=C2C([H])([H])C([H])([H])[C@@]3([H])[C@]4([H])C([H])([H])C([H])([H])C([H])([H])[C@@]4(C([H])([H])[H])C([H])([H])C([H])([H])[C@]3([H])[C@@]2(C([H])([H])[H])C([H])([H])C([H])([H])C1=O
     RDKit          3D

 48 51  0  0  0  0  0  0  0  0999 V2000
   -2.4762    0.9493   -1.1816 C   0  0  0  0  0  0  0  0  0  0  0  0
   -2.4391    0.4620    0.2269 C   0  0  2  0  0  0  0  0  0  0  0  0
   -1.6761    1.4213    1.0668 C   0  0  0  0  0  0  0  0  0  0  0  0
   -0.1996    1.4577    0.8089 C   0  0  0  0  0  0  0  0  0  0  0  0
    0.4251    0.1750    0.4463 C   0  0  1  0  0  0  0  0  0  0  0  0
   -0.4407   -0.7387   -0.3914 C   0  0  1  0  0  0  0  0  0  0  0  0
    0.2122   -2.0391   -0.6567 C   0  0  0  0  0  0  0  0  0  0  0  0
    1.6668   -2.1472   -0.3981 C   0  0  0  0  0  0  0  0  0  0  0  0
    2.4350   -0.8965   -0.4266 C   0  0  0  0  0  0  0  0  0  0  0  0
    3.7348   -0.8812   -0.6217 C   0  0  0  0  0  0  0  0  0  0  0  0
    4.4917    0.3914   -0.6459 C   0  0  0  0  0  0  0  0  0  0  0  0
    5.5265    0.5256   -1.3120 O   0  0  0  0  0  0  0  0  0  0  0  0
    3.9756    1.5267    0.1603 C   0  0  0  0  0  0  0  0  0  0  0  0
    2.6316    1.1631    0.7858 C   0  0  0  0  0  0  0  0  0  0  0  0
    1.7546    0.4184   -0.2283 C   0  0  2  0  0  0  0  0  0  0  0  0
    1.6676    1.2183   -1.4848 C   0  0  0  0  0  0  0  0  0  0  0  0
   -1.7167   -0.8856    0.3749 C   0  0  2  0  0  0  0  0  0  0  0  0
   -2.7205   -1.8187   -0.1683 C   0  0  0  0  0  0  0  0  0  0  0  0
   -3.9584   -1.3928    0.6062 C   0  0  0  0  0  0  0  0  0  0  0  0
   -3.7873    0.1026    0.7678 C   0  0  0  0  0  0  0  0  0  0  0  0
   -1.6027    1.6389   -1.3707 H   0  0  0  0  0  0  0  0  0  0  0  0
   -2.5346    0.1584   -1.9472 H   0  0  0  0  0  0  0  0  0  0  0  0
   -3.3809    1.5884   -1.3039 H   0  0  0  0  0  0  0  0  0  0  0  0
   -2.0984    2.4345    0.9165 H   0  0  0  0  0  0  0  0  0  0  0  0
   -1.8728    1.1733    2.1457 H   0  0  0  0  0  0  0  0  0  0  0  0
    0.2615    1.8010    1.7846 H   0  0  0  0  0  0  0  0  0  0  0  0
    0.0016    2.2903    0.1014 H   0  0  0  0  0  0  0  0  0  0  0  0
    0.6603   -0.4002    1.3818 H   0  0  0  0  0  0  0  0  0  0  0  0
   -0.6198   -0.2137   -1.3509 H   0  0  0  0  0  0  0  0  0  0  0  0
   -0.3017   -2.8980   -0.1224 H   0  0  0  0  0  0  0  0  0  0  0  0
    0.0425   -2.3108   -1.7438 H   0  0  0  0  0  0  0  0  0  0  0  0
    2.1687   -2.8559   -1.1252 H   0  0  0  0  0  0  0  0  0  0  0  0
    1.8052   -2.6787    0.5890 H   0  0  0  0  0  0  0  0  0  0  0  0
    4.2625   -1.7980   -0.7668 H   0  0  0  0  0  0  0  0  0  0  0  0
    4.6521    1.7407    1.0315 H   0  0  0  0  0  0  0  0  0  0  0  0
    3.8174    2.4055   -0.4701 H   0  0  0  0  0  0  0  0  0  0  0  0
    2.7394    0.5221    1.6649 H   0  0  0  0  0  0  0  0  0  0  0  0
    2.1474    2.1171    1.1026 H   0  0  0  0  0  0  0  0  0  0  0  0
    2.4225    0.9239   -2.2514 H   0  0  0  0  0  0  0  0  0  0  0  0
    1.9330    2.2834   -1.2297 H   0  0  0  0  0  0  0  0  0  0  0  0
    0.6935    1.1718   -2.0099 H   0  0  0  0  0  0  0  0  0  0  0  0
   -1.5623   -1.0355    1.4392 H   0  0  0  0  0  0  0  0  0  0  0  0
   -2.5149   -2.8671    0.1307 H   0  0  0  0  0  0  0  0  0  0  0  0
   -2.9130   -1.7158   -1.2401 H   0  0  0  0  0  0  0  0  0  0  0  0
   -4.8898   -1.6541    0.0715 H   0  0  0  0  0  0  0  0  0  0  0  0
   -3.9043   -1.8731    1.6113 H   0  0  0  0  0  0  0  0  0  0  0  0
   -4.5493    0.5940    0.1229 H   0  0  0  0  0  0  0  0  0  0  0  0
   -3.9700    0.4458    1.7910 H   0  0  0  0  0  0  0  0  0  0  0  0
  2  1  1  6
  2  3  1  0
  3  4  1  0
  4  5  1  0
  5  6  1  0
  6  7  1  0
  7  8  1  0
  8  9  1  0
  9 10  2  0
 10 11  1  0
 11 12  2  0
 11 13  1  0
 13 14  1  0
 14 15  1  0
 15 16  1  6
  6 17  1  0
 17 18  1  0
 18 19  1  0
 19 20  1  0
 17  2  1  0
 20  2  1  0
 15  5  1  0
 15  9  1  0
  1 21  1  0
  1 22  1  0
  1 23  1  0
  3 24  1  0
  3 25  1  0
  4 26  1  0
  4 27  1  0
  5 28  1  1
  6 29  1  6
  7 30  1  0
  7 31  1  0
  8 32  1  0
  8 33  1  0
 10 34  1  0
 13 35  1  0
 13 36  1  0
 14 37  1  0
 14 38  1  0
 16 39  1  0
 16 40  1  0
 16 41  1  0
 17 42  1  1
 18 43  1  0
 18 44  1  0
 19 45  1  0
 19 46  1  0
 20 47  1  0
 20 48  1  0
M  END
$$$$
[H]Oc1c([H])c([H])c([C@@]2([H])Sc3c([H])c(O[H])c([H])c([H])c3O[C@@]2([H])c2c([H])c([H])c(OC([H])([H])C([H])([H])N3C([H])([H])C([H])([H])C([H])([H])C3([H])[H])c([H])c2[H])c([H])c1[H]
     RDKit          3D

 59 63  0  0  0  0  0  0  0  0999 V2000
   -4.6583    6.1765   -0.2409 O   0  0  0  0  0  0  0  0  0  0  0  0
   -4.4235    4.8036   -0.0910 C   0  0  0  0  0  0  0  0  0  0  0  0
   -5.3178    3.8575   -0.5205 C   0  0  0  0  0  0  0  0  0  0  0  0
   -5.0521    2.5134   -0.3554 C   0  0  0  0  0  0  0  0  0  0  0  0
   -3.8782    2.0744    0.2469 C   0  0  0  0  0  0  0  0  0  0  0  0
   -3.0094    3.0413    0.6636 C   0  0  0  0  0  0  0  0  0  0  0  0
   -3.2611    4.3932    0.5054 C   0  0  0  0  0  0  0  0  0  0  0  0
   -3.6647    0.6745    0.4154 C   0  0  1  0  0  0  0  0  0  0  0  0
   -3.6273   -0.3024   -1.1581 S   0  0  0  0  0  0  0  0  0  0  0  0
   -3.5026   -1.9494   -0.5368 C   0  0  0  0  0  0  0  0  0  0  0  0
   -3.7142   -3.0118   -1.3576 C   0  0  0  0  0  0  0  0  0  0  0  0
   -3.6299   -4.3227   -0.9191 C   0  0  0  0  0  0  0  0  0  0  0  0
   -3.8447   -5.4091   -1.7525 O   0  0  0  0  0  0  0  0  0  0  0  0
   -3.3195   -4.5497    0.4008 C   0  0  0  0  0  0  0  0  0  0  0  0
   -3.0998   -3.4879    1.2561 C   0  0  0  0  0  0  0  0  0  0  0  0
   -3.1948   -2.1765    0.7726 C   0  0  0  0  0  0  0  0  0  0  0  0
   -2.9599   -1.1681    1.6937 O   0  0  0  0  0  0  0  0  0  0  0  0
   -2.5783    0.1532    1.2337 C   0  0  1  0  0  0  0  0  0  0  0  0
   -1.2442   -0.0017    0.7031 C   0  0  0  0  0  0  0  0  0  0  0  0
   -0.3705   -0.7703    1.4939 C   0  0  0  0  0  0  0  0  0  0  0  0
    0.9291   -1.0092    1.1235 C   0  0  0  0  0  0  0  0  0  0  0  0
    1.4335   -0.4984   -0.0511 C   0  0  0  0  0  0  0  0  0  0  0  0
    2.7489   -0.7365   -0.4329 O   0  0  0  0  0  0  0  0  0  0  0  0
    3.5637   -1.5090    0.3862 C   0  0  0  0  0  0  0  0  0  0  0  0
    4.9565   -1.7144   -0.0916 C   0  0  0  0  0  0  0  0  0  0  0  0
    5.7680   -0.5816   -0.2684 N   0  0  0  0  0  0  0  0  0  0  0  0
    6.1693    0.1401    0.8918 C   0  0  0  0  0  0  0  0  0  0  0  0
    7.1410    1.1563    0.2714 C   0  0  0  0  0  0  0  0  0  0  0  0
    6.3813    1.5310   -0.9972 C   0  0  0  0  0  0  0  0  0  0  0  0
    5.4830    0.3267   -1.3122 C   0  0  0  0  0  0  0  0  0  0  0  0
    0.5919    0.2568   -0.8378 C   0  0  0  0  0  0  0  0  0  0  0  0
   -0.7323    0.4995   -0.4599 C   0  0  0  0  0  0  0  0  0  0  0  0
   -5.5240    6.4932   -0.6860 H   0  0  0  0  0  0  0  0  0  0  0  0
   -6.2578    4.1591   -1.0020 H   0  0  0  0  0  0  0  0  0  0  0  0
   -5.7841    1.7921   -0.7081 H   0  0  0  0  0  0  0  0  0  0  0  0
   -2.0817    2.7854    1.1457 H   0  0  0  0  0  0  0  0  0  0  0  0
   -2.5348    5.1396    0.8551 H   0  0  0  0  0  0  0  0  0  0  0  0
   -4.6468    0.2678    0.8686 H   0  0  0  0  0  0  0  0  0  0  0  0
   -3.9587   -2.8442   -2.3972 H   0  0  0  0  0  0  0  0  0  0  0  0
   -4.8107   -5.7654   -1.8224 H   0  0  0  0  0  0  0  0  0  0  0  0
   -3.2487   -5.5900    0.7613 H   0  0  0  0  0  0  0  0  0  0  0  0
   -2.8568   -3.6845    2.2911 H   0  0  0  0  0  0  0  0  0  0  0  0
   -2.5227    0.7409    2.1858 H   0  0  0  0  0  0  0  0  0  0  0  0
   -0.6881   -1.2100    2.4349 H   0  0  0  0  0  0  0  0  0  0  0  0
    1.5984   -1.6105    1.7480 H   0  0  0  0  0  0  0  0  0  0  0  0
    3.5569   -1.1580    1.4401 H   0  0  0  0  0  0  0  0  0  0  0  0
    3.0904   -2.5351    0.4285 H   0  0  0  0  0  0  0  0  0  0  0  0
    4.9625   -2.3333   -1.0123 H   0  0  0  0  0  0  0  0  0  0  0  0
    5.4587   -2.3618    0.6911 H   0  0  0  0  0  0  0  0  0  0  0  0
    6.7656   -0.4788    1.5810 H   0  0  0  0  0  0  0  0  0  0  0  0
    5.3802    0.7330    1.3750 H   0  0  0  0  0  0  0  0  0  0  0  0
    8.0585    0.6133   -0.0568 H   0  0  0  0  0  0  0  0  0  0  0  0
    7.3364    2.0072    0.9240 H   0  0  0  0  0  0  0  0  0  0  0  0
    5.7595    2.4124   -0.7743 H   0  0  0  0  0  0  0  0  0  0  0  0
    7.0739    1.6982   -1.8425 H   0  0  0  0  0  0  0  0  0  0  0  0
    4.4561    0.6641   -1.4382 H   0  0  0  0  0  0  0  0  0  0  0  0
    5.7929   -0.1031   -2.3022 H   0  0  0  0  0  0  0  0  0  0  0  0
    0.9186    0.6813   -1.7595 H   0  0  0  0  0  0  0  0  0  0  0  0
   -1.3768    1.0875   -1.0757 H   0  0  0  0  0  0  0  0  0  0  0  0
  1  2  1  0
  2  3  2  0
  3  4  1  0
  4  5  2  0
  5  6  1  0
  6  7  2  0
  5  8  1  0
  8  9  1  0
  9 10  1  0
 10 11  2  0
 11 12  1  0
 12 13  1  0
 12 14  2  0
 14 15  1  0
 15 16  2  0
 16 17  1  0
 17 18  1  0
 18 19  1  0
 19 20  2  0
 20 21  1  0
 21 22  2  0
 22 23  1  0
 23 24  1  0
 24 25  1  0
 25 26  1  0
 26 27  1  0
 27 28  1  0
 28 29  1  0
 29 30  1  0
 22 31  1  0
 31 32  2  0
  7  2  1  0
 18  8  1  0
 32 19  1  0
 16 10  1  0
 30 26  1  0
  1 33  1  0
  3 34  1  0
  4 35  1  0
  6 36  1  0
  7 37  1  0
  8 38  1  1
 11 39  1  0
 13 40  1  0
 14 41  1  0
 15 42  1  0
 18 43  1  1
 20 44  1  0
 21 45  1  0
 24 46  1  0
 24 47  1  0
 25 48  1  0
 25 49  1  0
 27 50  1  0
 27 51  1  0
 28 52  1  0
 28 53  1  0
 29 54  1  0
 29 55  1  0
 30 56  1  0
 30 57  1  0
 31 58  1  0
 32 59  1  0
M  END
$$$$
[H]C1=C2C([H])([H])C([H])([H])[C@@]3([H])[C@]4([H])C([H])([H])C([H])([H])C(=O)[C@@]4(C([H])([H])[H])C([H])([H])C([H])([H])[C@]3([H])[C@@]2(C([H])([H])[H])C([H])([H])C([H])([H])C1=O
     RDKit          3D

 47 50  0  0  0  0  0  0  0  0999 V2000
    2.6396    1.2197    0.9531 C   0  0  0  0  0  0  0  0  0  0  0  0
    2.3973    0.7670   -0.4636 C   0  0  2  0  0  0  0  0  0  0  0  0
    1.5004    1.7083   -1.1903 C   0  0  0  0  0  0  0  0  0  0  0  0
    0.0585    1.4268   -1.1366 C   0  0  0  0  0  0  0  0  0  0  0  0
   -0.4200    0.1692   -0.5425 C   0  0  1  0  0  0  0  0  0  0  0  0
    0.5806   -0.5825    0.3126 C   0  0  1  0  0  0  0  0  0  0  0  0
    0.1337   -1.9966    0.5570 C   0  0  0  0  0  0  0  0  0  0  0  0
   -1.2806   -2.1434    0.9939 C   0  0  0  0  0  0  0  0  0  0  0  0
   -2.1914   -1.0906    0.4737 C   0  0  0  0  0  0  0  0  0  0  0  0
   -3.4545   -1.4865    0.2593 C   0  0  0  0  0  0  0  0  0  0  0  0
   -4.4611   -0.5844   -0.2442 C   0  0  0  0  0  0  0  0  0  0  0  0
   -5.5573   -0.9581   -0.6885 O   0  0  0  0  0  0  0  0  0  0  0  0
   -4.1546    0.8633   -0.2228 C   0  0  0  0  0  0  0  0  0  0  0  0
   -2.7156    1.0067   -0.6775 C   0  0  0  0  0  0  0  0  0  0  0  0
   -1.7394    0.2983    0.2106 C   0  0  2  0  0  0  0  0  0  0  0  0
   -1.5800    1.0895    1.4819 C   0  0  0  0  0  0  0  0  0  0  0  0
    1.8180   -0.6297   -0.5366 C   0  0  2  0  0  0  0  0  0  0  0  0
    2.9282   -1.4611   -0.0121 C   0  0  0  0  0  0  0  0  0  0  0  0
    4.1567   -0.7973   -0.6492 C   0  0  0  0  0  0  0  0  0  0  0  0
    3.7018    0.5344   -1.1052 C   0  0  0  0  0  0  0  0  0  0  0  0
    4.2746    1.2859   -1.8507 O   0  0  0  0  0  0  0  0  0  0  0  0
    1.7712    1.8477    1.2604 H   0  0  0  0  0  0  0  0  0  0  0  0
    2.7266    0.4035    1.6756 H   0  0  0  0  0  0  0  0  0  0  0  0
    3.5214    1.8914    0.9729 H   0  0  0  0  0  0  0  0  0  0  0  0
    1.8789    1.7499   -2.2564 H   0  0  0  0  0  0  0  0  0  0  0  0
    1.7402    2.7420   -0.8001 H   0  0  0  0  0  0  0  0  0  0  0  0
   -0.4404    2.2735   -0.5752 H   0  0  0  0  0  0  0  0  0  0  0  0
   -0.3602    1.5492   -2.1819 H   0  0  0  0  0  0  0  0  0  0  0  0
   -0.6589   -0.5442   -1.3888 H   0  0  0  0  0  0  0  0  0  0  0  0
    0.7781   -0.0594    1.2582 H   0  0  0  0  0  0  0  0  0  0  0  0
    0.7903   -2.4104    1.3648 H   0  0  0  0  0  0  0  0  0  0  0  0
    0.3907   -2.5922   -0.3519 H   0  0  0  0  0  0  0  0  0  0  0  0
   -1.3979   -2.1615    2.1070 H   0  0  0  0  0  0  0  0  0  0  0  0
   -1.6216   -3.1660    0.6591 H   0  0  0  0  0  0  0  0  0  0  0  0
   -3.7681   -2.5167    0.4605 H   0  0  0  0  0  0  0  0  0  0  0  0
   -4.7752    1.4295   -0.9440 H   0  0  0  0  0  0  0  0  0  0  0  0
   -4.3247    1.3148    0.7715 H   0  0  0  0  0  0  0  0  0  0  0  0
   -2.6491    0.5341   -1.6834 H   0  0  0  0  0  0  0  0  0  0  0  0
   -2.5320    2.0823   -0.7620 H   0  0  0  0  0  0  0  0  0  0  0  0
   -0.5943    1.5687    1.5658 H   0  0  0  0  0  0  0  0  0  0  0  0
   -1.7887    0.4451    2.3660 H   0  0  0  0  0  0  0  0  0  0  0  0
   -2.3447    1.9188    1.5386 H   0  0  0  0  0  0  0  0  0  0  0  0
    1.6351   -0.8716   -1.5820 H   0  0  0  0  0  0  0  0  0  0  0  0
    2.8557   -2.4806   -0.4224 H   0  0  0  0  0  0  0  0  0  0  0  0
    3.0100   -1.5258    1.0686 H   0  0  0  0  0  0  0  0  0  0  0  0
    4.9358   -0.6443    0.1243 H   0  0  0  0  0  0  0  0  0  0  0  0
    4.5869   -1.4168   -1.4417 H   0  0  0  0  0  0  0  0  0  0  0  0
  2  1  1  1
  2  3  1  0
  3  4  1  0
  4  5  1  0
  5  6  1  0
  6  7  1  0
  7  8  1  0
  8  9  1  0
  9 10  2  0
 10 11  1  0
 11 12  2  0
 11 13  1  0
 13 14  1  0
 14 15  1  0
 15 16  1  1
  6 17  1  0
 17 18  1  0
 18 19  1  0
 19 20  1  0
 20 21  2  0
 17  2  1  0
 20  2  1  0
 15  5  1  0
 15  9  1  0
  1 22  1  0
  1 23  1  0
  1 24  1  0
  3 25  1  0
  3 26  1  0
  4 27  1  0
  4 28  1  0
  5 29  1  6
  6 30  1  1
  7 31  1  0
  7 32  1  0
  8 33  1  0
  8 34  1  0
 10 35  1  0
 13 36  1  0
 13 37  1  0
 14 38  1  0
 14 39  1  0
 16 40  1  0
 16 41  1  0
 16 42  1  0
 17 43  1  6
 18 44  1  0
 18 45  1  0
 19 46  1  0
 19 47  1  0
M  END
$$$$
[H]Oc1c([H])c([H])c([C@]2([H])Sc3c([H])c(O[H])c([H])c([H])c3O[C@@]2([H])c2c([H])c([H])c(OC([H])([H])C([H])([H])N3C([H])([H])C([H])([H])C([H])([H])C([H])([H])C3([H])[H])c([H])c2[H])c([H])c1[H]
     RDKit          3D

 62 66  0  0  0  0  0  0  0  0999 V2000
   -4.8072   -1.6446    5.2826 O   0  0  0  0  0  0  0  0  0  0  0  0
   -4.5309   -1.1155    4.0073 C   0  0  0  0  0  0  0  0  0  0  0  0
   -5.0782   -1.6521    2.8640 C   0  0  0  0  0  0  0  0  0  0  0  0
   -4.8087   -1.1352    1.6143 C   0  0  0  0  0  0  0  0  0  0  0  0
   -3.9720   -0.0509    1.4670 C   0  0  0  0  0  0  0  0  0  0  0  0
   -3.4139    0.4984    2.6155 C   0  0  0  0  0  0  0  0  0  0  0  0
   -3.6944   -0.0305    3.8516 C   0  0  0  0  0  0  0  0  0  0  0  0
   -3.6670    0.5234    0.1518 C   0  0  2  0  0  0  0  0  0  0  0  0
   -5.1715    1.0848   -0.7061 S   0  0  0  0  0  0  0  0  0  0  0  0
   -4.7962    1.1071   -2.4239 C   0  0  0  0  0  0  0  0  0  0  0  0
   -5.6375    1.6971   -3.3075 C   0  0  0  0  0  0  0  0  0  0  0  0
   -5.3572    1.7282   -4.6786 C   0  0  0  0  0  0  0  0  0  0  0  0
   -6.1917    2.3210   -5.6052 O   0  0  0  0  0  0  0  0  0  0  0  0
   -4.1971    1.1426   -5.1302 C   0  0  0  0  0  0  0  0  0  0  0  0
   -3.3318    0.5403   -4.2533 C   0  0  0  0  0  0  0  0  0  0  0  0
   -3.6490    0.5315   -2.8952 C   0  0  0  0  0  0  0  0  0  0  0  0
   -2.7850   -0.0674   -2.0422 O   0  0  0  0  0  0  0  0  0  0  0  0
   -3.0079   -0.4874   -0.7232 C   0  0  1  0  0  0  0  0  0  0  0  0
   -1.6460   -0.7969   -0.1649 C   0  0  0  0  0  0  0  0  0  0  0  0
   -1.3949   -1.9510    0.5381 C   0  0  0  0  0  0  0  0  0  0  0  0
   -0.1523   -2.2388    1.0434 C   0  0  0  0  0  0  0  0  0  0  0  0
    0.9443   -1.3648    0.8708 C   0  0  0  0  0  0  0  0  0  0  0  0
    2.1584   -1.7169    1.4054 O   0  0  0  0  0  0  0  0  0  0  0  0
    3.3535   -1.0643    1.3415 C   0  0  0  0  0  0  0  0  0  0  0  0
    3.9840   -0.9242   -0.0283 C   0  0  0  0  0  0  0  0  0  0  0  0
    5.2086   -0.2136    0.1092 N   0  0  0  0  0  0  0  0  0  0  0  0
    6.2780   -0.8616    0.7715 C   0  0  0  0  0  0  0  0  0  0  0  0
    7.0007    0.1919    1.6118 C   0  0  0  0  0  0  0  0  0  0  0  0
    7.2248    1.4179    0.7597 C   0  0  0  0  0  0  0  0  0  0  0  0
    6.9853    1.1533   -0.7161 C   0  0  0  0  0  0  0  0  0  0  0  0
    5.5575    0.6941   -0.9207 C   0  0  0  0  0  0  0  0  0  0  0  0
    0.6790   -0.2162    0.1685 C   0  0  0  0  0  0  0  0  0  0  0  0
   -0.5894    0.0603   -0.3383 C   0  0  0  0  0  0  0  0  0  0  0  0
   -5.6061   -1.2930    5.8303 H   0  0  0  0  0  0  0  0  0  0  0  0
   -5.7459   -2.5096    2.9247 H   0  0  0  0  0  0  0  0  0  0  0  0
   -5.2360   -1.5529    0.7141 H   0  0  0  0  0  0  0  0  0  0  0  0
   -2.7530    1.3491    2.5482 H   0  0  0  0  0  0  0  0  0  0  0  0
   -3.2660    0.3896    4.7548 H   0  0  0  0  0  0  0  0  0  0  0  0
   -3.0051    1.4236    0.2750 H   0  0  0  0  0  0  0  0  0  0  0  0
   -6.5490    2.1615   -2.9811 H   0  0  0  0  0  0  0  0  0  0  0  0
   -6.0107    3.3163   -5.7922 H   0  0  0  0  0  0  0  0  0  0  0  0
   -3.9458    1.1493   -6.2015 H   0  0  0  0  0  0  0  0  0  0  0  0
   -2.4140    0.0762   -4.5958 H   0  0  0  0  0  0  0  0  0  0  0  0
   -3.6123   -1.4125   -0.7508 H   0  0  0  0  0  0  0  0  0  0  0  0
   -2.2314   -2.6471    0.6828 H   0  0  0  0  0  0  0  0  0  0  0  0
    0.0312   -3.1380    1.5883 H   0  0  0  0  0  0  0  0  0  0  0  0
    3.3273   -0.0280    1.8124 H   0  0  0  0  0  0  0  0  0  0  0  0
    4.0712   -1.6051    2.0348 H   0  0  0  0  0  0  0  0  0  0  0  0
    4.1615   -1.9554   -0.4629 H   0  0  0  0  0  0  0  0  0  0  0  0
    3.3437   -0.4065   -0.7281 H   0  0  0  0  0  0  0  0  0  0  0  0
    5.9639   -1.7167    1.3696 H   0  0  0  0  0  0  0  0  0  0  0  0
    7.0408   -1.2010    0.0053 H   0  0  0  0  0  0  0  0  0  0  0  0
    7.9603   -0.2235    1.9934 H   0  0  0  0  0  0  0  0  0  0  0  0
    6.3052    0.4311    2.4410 H   0  0  0  0  0  0  0  0  0  0  0  0
    6.4699    2.1759    1.0589 H   0  0  0  0  0  0  0  0  0  0  0  0
    8.2174    1.8772    0.9345 H   0  0  0  0  0  0  0  0  0  0  0  0
    7.1715    2.1243   -1.2308 H   0  0  0  0  0  0  0  0  0  0  0  0
    7.7264    0.4023   -1.0393 H   0  0  0  0  0  0  0  0  0  0  0  0
    4.8735    1.5689   -0.9154 H   0  0  0  0  0  0  0  0  0  0  0  0
    5.5019    0.2721   -1.9511 H   0  0  0  0  0  0  0  0  0  0  0  0
    1.4631    0.5113    0.0198 H   0  0  0  0  0  0  0  0  0  0  0  0
   -0.7478    0.9683   -0.8795 H   0  0  0  0  0  0  0  0  0  0  0  0
  1  2  1  0
  2  3  2  0
  3  4  1  0
  4  5  2  0
  5  6  1  0
  6  7  2  0
  5  8  1  0
  8  9  1  0
  9 10  1  0
 10 11  2  0
 11 12  1  0
 12 13  1  0
 12 14  2  0
 14 15  1  0
 15 16  2  0
 16 17  1  0
 17 18  1  0
 18 19  1  0
 19 20  2  0
 20 21  1  0
 21 22  2  0
 22 23  1  0
 23 24  1  0
 24 25  1  0
 25 26  1  0
 26 27  1  0
 27 28  1  0
 28 29  1  0
 29 30  1  0
 30 31  1  0
 22 32  1  0
 32 33  2  0
  7  2  1  0
 18  8  1  0
 33 19  1  0
 16 10  1  0
 31 26  1  0
  1 34  1  0
  3 35  1  0
  4 36  1  0
  6 37  1  0
  7 38  1  0
  8 39  1  1
 11 40  1  0
 13 41  1  0
 14 42  1  0
 15 43  1  0
 18 44  1  6
 20 45  1  0
 21 46  1  0
 24 47  1  0
 24 48  1  0
 25 49  1  0
 25 50  1  0
 27 51  1  0
 27 52  1  0
 28 53  1  0
 28 54  1  0
 29 55  1  0
 29 56  1  0
 30 57  1  0
 30 58  1  0
 31 59  1  0
 31 60  1  0
 32 61  1  0
 33 62  1  0
M  END
$$$$
[H]Oc1c([H])c([H])c([C@@]2([H])Sc3c([H])c(O[H])c([H])c([H])c3O[C@@]2([H])c2c([H])c([H])c(N(C([H])([H])[H])C([H])([H])[H])c([H])c2[H])c([H])c1[H]
     RDKit          3D

 48 51  0  0  0  0  0  0  0  0999 V2000
    5.6454    0.7291    0.8050 C   0  0  0  0  0  0  0  0  0  0  0  0
    4.6026    0.9551   -0.1398 N   0  0  0  0  0  0  0  0  0  0  0  0
    4.9558    1.6358   -1.3821 C   0  0  0  0  0  0  0  0  0  0  0  0
    3.2430    0.5370    0.0994 C   0  0  0  0  0  0  0  0  0  0  0  0
    2.5947    0.7276    1.2938 C   0  0  0  0  0  0  0  0  0  0  0  0
    1.2863    0.2756    1.4769 C   0  0  0  0  0  0  0  0  0  0  0  0
    0.5901   -0.3707    0.4925 C   0  0  0  0  0  0  0  0  0  0  0  0
    1.2622   -0.5571   -0.7210 C   0  0  0  0  0  0  0  0  0  0  0  0
    2.5469   -0.1203   -0.9187 C   0  0  0  0  0  0  0  0  0  0  0  0
   -0.7694   -0.9234    0.6460 C   0  0  2  0  0  0  0  0  0  0  0  0
   -0.8044   -2.1955   -0.0130 O   0  0  0  0  0  0  0  0  0  0  0  0
   -1.9010   -2.9639   -0.2588 C   0  0  0  0  0  0  0  0  0  0  0  0
   -1.9676   -4.3427   -0.0396 C   0  0  0  0  0  0  0  0  0  0  0  0
   -3.1176   -5.0324   -0.3184 C   0  0  0  0  0  0  0  0  0  0  0  0
   -4.2521   -4.4318   -0.8179 C   0  0  0  0  0  0  0  0  0  0  0  0
   -5.4263   -5.1106   -1.1077 O   0  0  0  0  0  0  0  0  0  0  0  0
   -4.1443   -3.0518   -1.0216 C   0  0  0  0  0  0  0  0  0  0  0  0
   -3.0231   -2.3615   -0.7541 C   0  0  0  0  0  0  0  0  0  0  0  0
   -2.9262   -0.6172   -1.0442 S   0  0  0  0  0  0  0  0  0  0  0  0
   -1.9102   -0.0327    0.3976 C   0  0  2  0  0  0  0  0  0  0  0  0
   -1.7118    1.4019    0.2949 C   0  0  0  0  0  0  0  0  0  0  0  0
   -1.1594    1.9673   -0.8290 C   0  0  0  0  0  0  0  0  0  0  0  0
   -1.0167    3.3597   -0.9292 C   0  0  0  0  0  0  0  0  0  0  0  0
   -1.4227    4.1781    0.0835 C   0  0  0  0  0  0  0  0  0  0  0  0
   -1.2961    5.5449    0.0097 O   0  0  0  0  0  0  0  0  0  0  0  0
   -1.9775    3.6250    1.2139 C   0  0  0  0  0  0  0  0  0  0  0  0
   -2.1133    2.2576    1.3062 C   0  0  0  0  0  0  0  0  0  0  0  0
    5.8392    1.5546    1.5105 H   0  0  0  0  0  0  0  0  0  0  0  0
    6.6290    0.5470    0.2829 H   0  0  0  0  0  0  0  0  0  0  0  0
    5.4974   -0.2064    1.4095 H   0  0  0  0  0  0  0  0  0  0  0  0
    5.3196    0.8415   -2.0657 H   0  0  0  0  0  0  0  0  0  0  0  0
    5.7717    2.3652   -1.2207 H   0  0  0  0  0  0  0  0  0  0  0  0
    4.0691    2.1487   -1.8139 H   0  0  0  0  0  0  0  0  0  0  0  0
    3.1075    1.2314    2.0964 H   0  0  0  0  0  0  0  0  0  0  0  0
    0.7998    0.4469    2.4445 H   0  0  0  0  0  0  0  0  0  0  0  0
    0.7663   -1.0617   -1.5436 H   0  0  0  0  0  0  0  0  0  0  0  0
    3.0982   -0.2526   -1.8561 H   0  0  0  0  0  0  0  0  0  0  0  0
   -0.7913   -1.2486    1.7553 H   0  0  0  0  0  0  0  0  0  0  0  0
   -1.0655   -4.8325    0.3571 H   0  0  0  0  0  0  0  0  0  0  0  0
   -3.1573   -6.0964   -0.1514 H   0  0  0  0  0  0  0  0  0  0  0  0
   -6.1156   -5.1856   -0.3574 H   0  0  0  0  0  0  0  0  0  0  0  0
   -5.0598   -2.5899   -1.4176 H   0  0  0  0  0  0  0  0  0  0  0  0
   -2.6480   -0.2455    1.2585 H   0  0  0  0  0  0  0  0  0  0  0  0
   -0.8248    1.4256   -1.6921 H   0  0  0  0  0  0  0  0  0  0  0  0
   -0.5810    3.8016   -1.8179 H   0  0  0  0  0  0  0  0  0  0  0  0
   -1.5924    6.1613    0.7556 H   0  0  0  0  0  0  0  0  0  0  0  0
   -2.3003    4.2503    2.0293 H   0  0  0  0  0  0  0  0  0  0  0  0
   -2.5492    1.8619    2.2126 H   0  0  0  0  0  0  0  0  0  0  0  0
  1  2  1  0
  2  3  1  0
  2  4  1  0
  4  5  2  0
  5  6  1  0
  6  7  2  0
  7  8  1  0
  8  9  2  0
  7 10  1  0
 10 11  1  0
 11 12  1  0
 12 13  2  0
 13 14  1  0
 14 15  2  0
 15 16  1  0
 15 17  1  0
 17 18  2  0
 18 19  1  0
 19 20  1  0
 20 21  1  0
 21 22  2  0
 22 23  1  0
 23 24  2  0
 24 25  1  0
 24 26  1  0
 26 27  2  0
  9  4  1  0
 20 10  1  0
 27 21  1  0
 18 12  1  0
  1 28  1  0
  1 29  1  0
  1 30  1  0
  3 31  1  0
  3 32  1  0
  3 33  1  0
  5 34  1  0
  6 35  1  0
  8 36  1  0
  9 37  1  0
 10 38  1  1
 13 39  1  0
 14 40  1  0
 16 41  1  0
 17 42  1  0
 20 43  1  1
 22 44  1  0
 23 45  1  0
 25 46  1  0
 26 47  1  0
 27 48  1  0
M  END
$$$$
[H]OC1([H])C([H])([H])C([H])([H])[C@]2([H])[C@]1(C([H])([H])[H])C([H])([H])C([H])([H])[C@]1([H])[C@]3(C([H])([H])[H])C(=C([H])C(=O)C([H])([H])C3([H])[H])C([H])([H])C([H])([H])[C@@]21[H]
     RDKit          3D

 49 52  0  0  0  0  0  0  0  0999 V2000
    2.5044    1.3065    0.8140 C   0  0  0  0  0  0  0  0  0  0  0  0
    2.3301    0.4741   -0.4278 C   0  0  2  0  0  0  0  0  0  0  0  0
    1.5139    1.1712   -1.4544 C   0  0  0  0  0  0  0  0  0  0  0  0
    0.1497    1.4554   -0.8510 C   0  0  0  0  0  0  0  0  0  0  0  0
   -0.5279    0.1517   -0.5077 C   0  0  1  0  0  0  0  0  0  0  0  0
    0.2938   -0.6825    0.4682 C   0  0  1  0  0  0  0  0  0  0  0  0
   -0.3694   -2.0662    0.4738 C   0  0  0  0  0  0  0  0  0  0  0  0
   -1.8029   -1.9756    0.9303 C   0  0  0  0  0  0  0  0  0  0  0  0
   -2.5587   -0.9603    0.1871 C   0  0  0  0  0  0  0  0  0  0  0  0
   -3.7841   -1.2592   -0.2568 C   0  0  0  0  0  0  0  0  0  0  0  0
   -4.5462   -0.2780   -0.9896 C   0  0  0  0  0  0  0  0  0  0  0  0
   -5.4997   -0.6177   -1.7314 O   0  0  0  0  0  0  0  0  0  0  0  0
   -4.1489    1.1555   -0.8247 C   0  0  0  0  0  0  0  0  0  0  0  0
   -2.6511    1.2067   -1.0419 C   0  0  0  0  0  0  0  0  0  0  0  0
   -1.9357    0.3591   -0.0440 C   0  0  2  0  0  0  0  0  0  0  0  0
   -1.9257    1.0912    1.2812 C   0  0  0  0  0  0  0  0  0  0  0  0
    1.6406   -0.8586   -0.1262 C   0  0  2  0  0  0  0  0  0  0  0  0
    2.6560   -1.5157    0.7361 C   0  0  0  0  0  0  0  0  0  0  0  0
    3.9657   -1.1405    0.0675 C   0  0  0  0  0  0  0  0  0  0  0  0
    3.6530   -0.0454   -0.9251 C   0  0  0  0  0  0  0  0  0  0  0  0
    4.6274    0.9212   -0.9920 O   0  0  0  0  0  0  0  0  0  0  0  0
    3.5761    1.3378    1.1399 H   0  0  0  0  0  0  0  0  0  0  0  0
    1.9306    0.9458    1.6666 H   0  0  0  0  0  0  0  0  0  0  0  0
    2.2387    2.3726    0.6108 H   0  0  0  0  0  0  0  0  0  0  0  0
    2.0038    2.1562   -1.6807 H   0  0  0  0  0  0  0  0  0  0  0  0
    1.4351    0.5451   -2.3629 H   0  0  0  0  0  0  0  0  0  0  0  0
   -0.4471    1.9446   -1.6252 H   0  0  0  0  0  0  0  0  0  0  0  0
    0.3020    2.1008    0.0305 H   0  0  0  0  0  0  0  0  0  0  0  0
   -0.5616   -0.4478   -1.4527 H   0  0  0  0  0  0  0  0  0  0  0  0
    0.2859   -0.2453    1.4784 H   0  0  0  0  0  0  0  0  0  0  0  0
   -0.2833   -2.4519   -0.5600 H   0  0  0  0  0  0  0  0  0  0  0  0
    0.2144   -2.6991    1.1443 H   0  0  0  0  0  0  0  0  0  0  0  0
   -2.2537   -2.9760    0.7666 H   0  0  0  0  0  0  0  0  0  0  0  0
   -1.8166   -1.8113    2.0281 H   0  0  0  0  0  0  0  0  0  0  0  0
   -4.1820   -2.2395   -0.0552 H   0  0  0  0  0  0  0  0  0  0  0  0
   -4.4237    1.4778    0.1945 H   0  0  0  0  0  0  0  0  0  0  0  0
   -4.6651    1.7545   -1.5922 H   0  0  0  0  0  0  0  0  0  0  0  0
   -2.4640    0.9044   -2.0940 H   0  0  0  0  0  0  0  0  0  0  0  0
   -2.3433    2.2699   -0.8735 H   0  0  0  0  0  0  0  0  0  0  0  0
   -2.5799    1.9891    1.2502 H   0  0  0  0  0  0  0  0  0  0  0  0
   -2.3065    0.4542    2.1176 H   0  0  0  0  0  0  0  0  0  0  0  0
   -0.9082    1.4392    1.5335 H   0  0  0  0  0  0  0  0  0  0  0  0
    1.5582   -1.4094   -1.0686 H   0  0  0  0  0  0  0  0  0  0  0  0
    2.5446   -2.6103    0.8176 H   0  0  0  0  0  0  0  0  0  0  0  0
    2.6966   -1.0616    1.7614 H   0  0  0  0  0  0  0  0  0  0  0  0
    4.7373   -0.8612    0.7935 H   0  0  0  0  0  0  0  0  0  0  0  0
    4.3122   -2.0581   -0.4828 H   0  0  0  0  0  0  0  0  0  0  0  0
    3.4537   -0.5240   -1.9214 H   0  0  0  0  0  0  0  0  0  0  0  0
    4.3613    1.8104   -0.6917 H   0  0  0  0  0  0  0  0  0  0  0  0
  2  1  1  1
  2  3  1  0
  3  4  1  0
  4  5  1  0
  5  6  1  0
  6  7  1  0
  7  8  1  0
  8  9  1  0
  9 10  2  0
 10 11  1  0
 11 12  2  0
 11 13  1  0
 13 14  1  0
 14 15  1  0
 15 16  1  1
  6 17  1  0
 17 18  1  0
 18 19  1  0
 19 20  1  0
 20 21  1  0
 17  2  1  0
 20  2  1  0
 15  5  1  0
 15  9  1  0
  1 22  1  0
  1 23  1  0
  1 24  1  0
  3 25  1  0
  3 26  1  0
  4 27  1  0
  4 28  1  0
  5 29  1  6
  6 30  1  1
  7 31  1  0
  7 32  1  0
  8 33  1  0
  8 34  1  0
 10 35  1  0
 13 36  1  0
 13 37  1  0
 14 38  1  0
 14 39  1  0
 16 40  1  0
 16 41  1  0
 16 42  1  0
 17 43  1  6
 18 44  1  0
 18 45  1  0
 19 46  1  0
 19 47  1  0
 20 48  1  0
 21 49  1  0
M  END
$$$$
