[H]OC([H])([H])[C@@]1([H])O[C@@]([H])(O[C@@]2([H])O[C@]([H])(C([H])([H])O[H])[C@@]([H])(O[H])[C@@]2([H])O[H])[C@@]([H])(O[H])[C@]([H])(O[H])[C@]1([H])O[H]
     RDKit          3D

 41 42  0  0  0  0  0  0  0  0999 V2000
    4.6258    0.5559    2.6793 O   0  0  0  0  0  0  0  0  0  0  0  0
    4.6091    0.1841    1.3364 C   0  0  0  0  0  0  0  0  0  0  0  0
    3.2080   -0.1628    0.8730 C   0  0  1  0  0  0  0  0  0  0  0  0
    2.3942    0.9283    1.0325 O   0  0  0  0  0  0  0  0  0  0  0  0
    1.5409    0.9546   -0.0755 C   0  0  2  0  0  0  0  0  0  0  0  0
    0.7178   -0.1417    0.0015 O   0  0  0  0  0  0  0  0  0  0  0  0
   -0.6268    0.1448   -0.0361 C   0  0  2  0  0  0  0  0  0  0  0  0
   -1.3339   -0.2297    1.0764 O   0  0  0  0  0  0  0  0  0  0  0  0
   -2.5536    0.4435    1.0474 C   0  0  2  0  0  0  0  0  0  0  0  0
   -3.4733    0.0009    2.1613 C   0  0  0  0  0  0  0  0  0  0  0  0
   -4.6515    0.7387    2.0285 O   0  0  0  0  0  0  0  0  0  0  0  0
   -3.2307    0.4024   -0.2817 C   0  0  1  0  0  0  0  0  0  0  0  0
   -2.9809    1.5619   -1.0478 O   0  0  0  0  0  0  0  0  0  0  0  0
   -2.7088   -0.7659   -1.0918 C   0  0  1  0  0  0  0  0  0  0  0  0
   -3.2627   -0.7587   -2.3705 O   0  0  0  0  0  0  0  0  0  0  0  0
   -1.2106   -0.5505   -1.2483 C   0  0  2  0  0  0  0  0  0  0  0  0
   -0.6365   -1.7924   -1.4540 O   0  0  0  0  0  0  0  0  0  0  0  0
    2.5294    0.7075   -1.1956 C   0  0  2  0  0  0  0  0  0  0  0  0
    1.9233    0.3954   -2.3944 O   0  0  0  0  0  0  0  0  0  0  0  0
    3.2930   -0.4612   -0.6075 C   0  0  2  0  0  0  0  0  0  0  0  0
    2.7179   -1.6867   -0.9221 O   0  0  0  0  0  0  0  0  0  0  0  0
    4.0975   -0.0697    3.2461 H   0  0  0  0  0  0  0  0  0  0  0  0
    5.0461    1.0118    0.7568 H   0  0  0  0  0  0  0  0  0  0  0  0
    5.3001   -0.6875    1.2206 H   0  0  0  0  0  0  0  0  0  0  0  0
    2.8692   -1.0478    1.4540 H   0  0  0  0  0  0  0  0  0  0  0  0
    1.0177    1.9159   -0.1585 H   0  0  0  0  0  0  0  0  0  0  0  0
   -0.7162    1.2604   -0.1248 H   0  0  0  0  0  0  0  0  0  0  0  0
   -2.3044    1.5206    1.2689 H   0  0  0  0  0  0  0  0  0  0  0  0
   -3.0036    0.3468    3.1113 H   0  0  0  0  0  0  0  0  0  0  0  0
   -3.6686   -1.0805    2.1634 H   0  0  0  0  0  0  0  0  0  0  0  0
   -5.4182    0.1111    1.8379 H   0  0  0  0  0  0  0  0  0  0  0  0
   -4.3412    0.3180   -0.1983 H   0  0  0  0  0  0  0  0  0  0  0  0
   -3.6189    1.5499   -1.8067 H   0  0  0  0  0  0  0  0  0  0  0  0
   -2.8900   -1.7139   -0.5478 H   0  0  0  0  0  0  0  0  0  0  0  0
   -3.5751   -1.6720   -2.6214 H   0  0  0  0  0  0  0  0  0  0  0  0
   -1.0727    0.1227   -2.1235 H   0  0  0  0  0  0  0  0  0  0  0  0
   -0.6655   -2.2760   -0.5866 H   0  0  0  0  0  0  0  0  0  0  0  0
    3.2459    1.5460   -1.3083 H   0  0  0  0  0  0  0  0  0  0  0  0
    1.2090    1.0796   -2.5458 H   0  0  0  0  0  0  0  0  0  0  0  0
    4.3403   -0.4946   -0.9694 H   0  0  0  0  0  0  0  0  0  0  0  0
    3.2583   -2.2091   -1.5790 H   0  0  0  0  0  0  0  0  0  0  0  0
  1  2  1  0
  2  3  1  0
  3  4  1  0
  4  5  1  0
  5  6  1  0
  6  7  1  0
  7  8  1  0
  8  9  1  0
  9 10  1  0
 10 11  1  0
  9 12  1  0
 12 13  1  0
 12 14  1  0
 14 15  1  0
 14 16  1  0
 16 17  1  0
  5 18  1  0
 18 19  1  0
 18 20  1  0
 20 21  1  0
 20  3  1  0
 16  7  1  0
  1 22  1  0
  2 23  1  0
  2 24  1  0
  3 25  1  1
  5 26  1  6
  7 27  1  6
  9 28  1  1
 10 29  1  0
 10 30  1  0
 11 31  1  0
 12 32  1  1
 13 33  1  0
 14 34  1  1
 15 35  1  0
 16 36  1  6
 17 37  1  0
 18 38  1  6
 19 39  1  0
 20 40  1  6
 21 41  1  0
M  END
$$$$
[H]c1nc(C(=O)N2C([H])([H])C([H])([H])N(c3nnc(-c4c([H])c([H])c(C(F)(F)F)c([H])c4[H])c4c([H])c([H])c([H])c([H])c34)[C@]([H])(C([H])([H])[H])C2([H])[H])c([H])c([H])c1[H]
     RDKit          3D

 57 61  0  0  0  0  0  0  0  0999 V2000
    1.4493    1.3241   -1.2231 C   0  0  0  0  0  0  0  0  0  0  0  0
    1.9418    0.5754   -0.0148 C   0  0  2  0  0  0  0  0  0  0  0  0
    3.1546   -0.2450   -0.4497 C   0  0  0  0  0  0  0  0  0  0  0  0
    3.6016   -1.0308    0.6238 N   0  0  0  0  0  0  0  0  0  0  0  0
    2.5897   -1.9014    1.2509 C   0  0  0  0  0  0  0  0  0  0  0  0
    1.3991   -1.1214    1.6858 C   0  0  0  0  0  0  0  0  0  0  0  0
    0.9638   -0.1575    0.7004 N   0  0  0  0  0  0  0  0  0  0  0  0
   -0.4506   -0.0119    0.5286 C   0  0  0  0  0  0  0  0  0  0  0  0
   -1.1223    0.7874    1.3960 N   0  0  0  0  0  0  0  0  0  0  0  0
   -2.3932    1.0241    1.3278 N   0  0  0  0  0  0  0  0  0  0  0  0
   -3.1833    0.4724    0.3494 C   0  0  0  0  0  0  0  0  0  0  0  0
   -4.5999    0.7907    0.3428 C   0  0  0  0  0  0  0  0  0  0  0  0
   -5.5605   -0.1820    0.3934 C   0  0  0  0  0  0  0  0  0  0  0  0
   -6.9002    0.0866    0.3763 C   0  0  0  0  0  0  0  0  0  0  0  0
   -7.3136    1.3992    0.3048 C   0  0  0  0  0  0  0  0  0  0  0  0
   -6.3604    2.4211    0.2519 C   0  0  0  0  0  0  0  0  0  0  0  0
   -5.0091    2.1033    0.2715 C   0  0  0  0  0  0  0  0  0  0  0  0
   -8.7634    1.6596    0.2894 C   0  0  0  0  0  0  0  0  0  0  0  0
   -9.3213    1.0044   -0.8143 F   0  0  0  0  0  0  0  0  0  0  0  0
   -8.9859    3.0004    0.1224 F   0  0  0  0  0  0  0  0  0  0  0  0
   -9.4168    1.1474    1.3926 F   0  0  0  0  0  0  0  0  0  0  0  0
   -2.5350   -0.3479   -0.5566 C   0  0  0  0  0  0  0  0  0  0  0  0
   -3.3050   -0.9108   -1.5656 C   0  0  0  0  0  0  0  0  0  0  0  0
   -2.6576   -1.7361   -2.4855 C   0  0  0  0  0  0  0  0  0  0  0  0
   -1.3115   -1.9773   -2.3910 C   0  0  0  0  0  0  0  0  0  0  0  0
   -0.5498   -1.4158   -1.3903 C   0  0  0  0  0  0  0  0  0  0  0  0
   -1.1715   -0.5987   -0.4771 C   0  0  0  0  0  0  0  0  0  0  0  0
    4.9023   -1.0987    1.1429 C   0  0  0  0  0  0  0  0  0  0  0  0
    5.1067   -1.8874    2.1641 O   0  0  0  0  0  0  0  0  0  0  0  0
    6.0823   -0.3949    0.6869 C   0  0  0  0  0  0  0  0  0  0  0  0
    7.2878   -0.6310    1.3627 C   0  0  0  0  0  0  0  0  0  0  0  0
    8.4323   -0.0038    0.9735 C   0  0  0  0  0  0  0  0  0  0  0  0
    8.4216    0.8694   -0.0872 C   0  0  0  0  0  0  0  0  0  0  0  0
    7.2347    1.0978   -0.7477 C   0  0  0  0  0  0  0  0  0  0  0  0
    6.1390    0.4645   -0.3354 N   0  0  0  0  0  0  0  0  0  0  0  0
    1.6231    0.7145   -2.1539 H   0  0  0  0  0  0  0  0  0  0  0  0
    2.1306    2.2110   -1.3793 H   0  0  0  0  0  0  0  0  0  0  0  0
    0.4388    1.7200   -1.1400 H   0  0  0  0  0  0  0  0  0  0  0  0
    2.3822    1.3875    0.6568 H   0  0  0  0  0  0  0  0  0  0  0  0
    2.7568   -0.9251   -1.2703 H   0  0  0  0  0  0  0  0  0  0  0  0
    3.8669    0.4739   -0.9042 H   0  0  0  0  0  0  0  0  0  0  0  0
    2.3313   -2.6590    0.4874 H   0  0  0  0  0  0  0  0  0  0  0  0
    3.0372   -2.4231    2.1029 H   0  0  0  0  0  0  0  0  0  0  0  0
    1.5529   -0.6354    2.6859 H   0  0  0  0  0  0  0  0  0  0  0  0
    0.5744   -1.8441    1.8436 H   0  0  0  0  0  0  0  0  0  0  0  0
   -5.2498   -1.2419    0.4579 H   0  0  0  0  0  0  0  0  0  0  0  0
   -7.5962   -0.7441    0.4199 H   0  0  0  0  0  0  0  0  0  0  0  0
   -6.7369    3.4284    0.1966 H   0  0  0  0  0  0  0  0  0  0  0  0
   -4.3153    2.9413    0.2272 H   0  0  0  0  0  0  0  0  0  0  0  0
   -4.3622   -0.7167   -1.6741 H   0  0  0  0  0  0  0  0  0  0  0  0
   -3.2643   -2.1706   -3.2675 H   0  0  0  0  0  0  0  0  0  0  0  0
   -0.7869   -2.6273   -3.1085 H   0  0  0  0  0  0  0  0  0  0  0  0
    0.5289   -1.6354   -1.3235 H   0  0  0  0  0  0  0  0  0  0  0  0
    7.3308   -1.3246    2.2168 H   0  0  0  0  0  0  0  0  0  0  0  0
    9.3698   -0.1872    1.4981 H   0  0  0  0  0  0  0  0  0  0  0  0
    9.3429    1.3625   -0.3873 H   0  0  0  0  0  0  0  0  0  0  0  0
    7.2493    1.7925   -1.5845 H   0  0  0  0  0  0  0  0  0  0  0  0
  1  2  1  0
  2  3  1  0
  3  4  1  0
  4  5  1  0
  5  6  1  0
  6  7  1  0
  7  8  1  0
  8  9  2  0
  9 10  1  0
 10 11  2  0
 11 12  1  0
 12 13  2  0
 13 14  1  0
 14 15  2  0
 15 16  1  0
 16 17  2  0
 15 18  1  0
 18 19  1  0
 18 20  1  0
 18 21  1  0
 11 22  1  0
 22 23  2  0
 23 24  1  0
 24 25  2  0
 25 26  1  0
 26 27  2  0
  4 28  1  0
 28 29  2  0
 28 30  1  0
 30 31  2  0
 31 32  1  0
 32 33  2  0
 33 34  1  0
 34 35  2  0
  7  2  1  0
 27  8  1  0
 35 30  1  0
 17 12  1  0
 27 22  1  0
  1 36  1  0
  1 37  1  0
  1 38  1  0
  2 39  1  1
  3 40  1  0
  3 41  1  0
  5 42  1  0
  5 43  1  0
  6 44  1  0
  6 45  1  0
 13 46  1  0
 14 47  1  0
 16 48  1  0
 17 49  1  0
 23 50  1  0
 24 51  1  0
 25 52  1  0
 26 53  1  0
 31 54  1  0
 32 55  1  0
 33 56  1  0
 34 57  1  0
M  END
$$$$
[H]ON([H])C(=O)[C@@]1([H])N(C(=O)[C@@]([H])(N([H])C(=O)[C@]([H])(C([H])([H])N(O[H])C([H])=O)C([H])([H])C([H])([H])C([H])([H])C([H])([H])[H])C([H])([H])C([H])(C([H])([H])[H])C([H])([H])[H])C([H])([H])C([H])([H])C1([H])[H]
     RDKit          3D

 63 63  0  0  0  0  0  0  0  0999 V2000
    5.7065   -1.4045   -1.3682 C   0  0  0  0  0  0  0  0  0  0  0  0
    5.0712   -0.0542   -0.9101 C   0  0  0  0  0  0  0  0  0  0  0  0
    4.1754   -0.3724    0.2132 C   0  0  0  0  0  0  0  0  0  0  0  0
    3.4001    0.6294    0.9409 C   0  0  0  0  0  0  0  0  0  0  0  0
    2.4069    1.4896    0.3158 C   0  0  1  0  0  0  0  0  0  0  0  0
    2.7993    2.5070   -0.6696 C   0  0  0  0  0  0  0  0  0  0  0  0
    3.6350    3.5303   -0.1077 N   0  0  0  0  0  0  0  0  0  0  0  0
    2.9324    4.5974    0.4392 O   0  0  0  0  0  0  0  0  0  0  0  0
    5.0168    3.6255   -0.0177 C   0  0  0  0  0  0  0  0  0  0  0  0
    5.5780    4.6299    0.5422 O   0  0  0  0  0  0  0  0  0  0  0  0
    1.2011    0.7043   -0.1652 C   0  0  0  0  0  0  0  0  0  0  0  0
    0.8929    0.7195   -1.3696 O   0  0  0  0  0  0  0  0  0  0  0  0
    0.4708   -0.0146    0.7639 N   0  0  0  0  0  0  0  0  0  0  0  0
   -0.7354   -0.8172    0.3801 C   0  0  1  0  0  0  0  0  0  0  0  0
   -0.5458   -2.1966    0.8750 C   0  0  0  0  0  0  0  0  0  0  0  0
   -1.5432   -3.2442    0.6751 C   0  0  0  0  0  0  0  0  0  0  0  0
   -2.8955   -3.0819    1.2541 C   0  0  0  0  0  0  0  0  0  0  0  0
   -1.6144   -3.7118   -0.7960 C   0  0  0  0  0  0  0  0  0  0  0  0
   -1.8355   -0.1545    1.1458 C   0  0  0  0  0  0  0  0  0  0  0  0
   -1.6537    0.1369    2.3796 O   0  0  0  0  0  0  0  0  0  0  0  0
   -3.0854    0.1881    0.5980 N   0  0  0  0  0  0  0  0  0  0  0  0
   -4.1949    0.7777    1.2957 C   0  0  0  0  0  0  0  0  0  0  0  0
   -5.4305    0.3878    0.5077 C   0  0  0  0  0  0  0  0  0  0  0  0
   -4.9515   -0.2048   -0.7861 C   0  0  0  0  0  0  0  0  0  0  0  0
   -3.4573    0.0510   -0.7886 C   0  0  1  0  0  0  0  0  0  0  0  0
   -3.1285    1.2610   -1.5739 C   0  0  0  0  0  0  0  0  0  0  0  0
   -2.5888    2.2360   -1.0089 O   0  0  0  0  0  0  0  0  0  0  0  0
   -3.4130    1.3368   -2.9522 N   0  0  0  0  0  0  0  0  0  0  0  0
   -3.1400    2.4054   -3.7202 O   0  0  0  0  0  0  0  0  0  0  0  0
    6.3756   -1.7859   -0.5966 H   0  0  0  0  0  0  0  0  0  0  0  0
    4.8326   -2.0676   -1.5288 H   0  0  0  0  0  0  0  0  0  0  0  0
    6.1711   -1.2213   -2.3391 H   0  0  0  0  0  0  0  0  0  0  0  0
    4.6046    0.3239   -1.8355 H   0  0  0  0  0  0  0  0  0  0  0  0
    5.9396    0.5707   -0.5810 H   0  0  0  0  0  0  0  0  0  0  0  0
    4.8227   -0.9113    0.9899 H   0  0  0  0  0  0  0  0  0  0  0  0
    3.5310   -1.2422   -0.1455 H   0  0  0  0  0  0  0  0  0  0  0  0
    4.1452    1.3420    1.4666 H   0  0  0  0  0  0  0  0  0  0  0  0
    2.9343    0.1450    1.8785 H   0  0  0  0  0  0  0  0  0  0  0  0
    1.9384    2.0973    1.1881 H   0  0  0  0  0  0  0  0  0  0  0  0
    1.8484    3.0088   -1.0303 H   0  0  0  0  0  0  0  0  0  0  0  0
    3.2646    2.1194   -1.6060 H   0  0  0  0  0  0  0  0  0  0  0  0
    2.3348    4.3015    1.1459 H   0  0  0  0  0  0  0  0  0  0  0  0
    5.6982    2.8969   -0.3949 H   0  0  0  0  0  0  0  0  0  0  0  0
    0.7147   -0.0356    1.7566 H   0  0  0  0  0  0  0  0  0  0  0  0
   -0.8530   -0.6657   -0.6778 H   0  0  0  0  0  0  0  0  0  0  0  0
    0.4219   -2.5740    0.4026 H   0  0  0  0  0  0  0  0  0  0  0  0
   -0.2639   -2.2118    1.9782 H   0  0  0  0  0  0  0  0  0  0  0  0
   -1.1072   -4.1779    1.1760 H   0  0  0  0  0  0  0  0  0  0  0  0
   -3.2502   -4.0938    1.6191 H   0  0  0  0  0  0  0  0  0  0  0  0
   -2.9570   -2.4304    2.1260 H   0  0  0  0  0  0  0  0  0  0  0  0
   -3.6782   -2.7848    0.5294 H   0  0  0  0  0  0  0  0  0  0  0  0
   -1.7816   -2.8910   -1.4887 H   0  0  0  0  0  0  0  0  0  0  0  0
   -2.3020   -4.5545   -0.8638 H   0  0  0  0  0  0  0  0  0  0  0  0
   -0.5843   -4.1301   -0.9988 H   0  0  0  0  0  0  0  0  0  0  0  0
   -4.3338    0.3745    2.3187 H   0  0  0  0  0  0  0  0  0  0  0  0
   -4.1111    1.8823    1.3988 H   0  0  0  0  0  0  0  0  0  0  0  0
   -6.0317    1.3122    0.3626 H   0  0  0  0  0  0  0  0  0  0  0  0
   -6.0238   -0.4029    1.0433 H   0  0  0  0  0  0  0  0  0  0  0  0
   -5.2176   -1.2538   -0.9120 H   0  0  0  0  0  0  0  0  0  0  0  0
   -5.4331    0.3783   -1.6207 H   0  0  0  0  0  0  0  0  0  0  0  0
   -3.0057   -0.8633   -1.2498 H   0  0  0  0  0  0  0  0  0  0  0  0
   -3.8627    0.5172   -3.4121 H   0  0  0  0  0  0  0  0  0  0  0  0
   -3.8538    3.0714   -3.7405 H   0  0  0  0  0  0  0  0  0  0  0  0
  1  2  1  0
  2  3  1  0
  3  4  1  0
  4  5  1  0
  5  6  1  0
  6  7  1  0
  7  8  1  0
  7  9  1  0
  9 10  2  0
  5 11  1  0
 11 12  2  0
 11 13  1  0
 13 14  1  0
 14 15  1  0
 15 16  1  0
 16 17  1  0
 16 18  1  0
 14 19  1  0
 19 20  2  0
 19 21  1  0
 21 22  1  0
 22 23  1  0
 23 24  1  0
 24 25  1  0
 25 26  1  0
 26 27  2  0
 26 28  1  0
 28 29  1  0
 25 21  1  0
  1 30  1  0
  1 31  1  0
  1 32  1  0
  2 33  1  0
  2 34  1  0
  3 35  1  0
  3 36  1  0
  4 37  1  0
  4 38  1  0
  5 39  1  1
  6 40  1  0
  6 41  1  0
  8 42  1  0
  9 43  1  0
 13 44  1  0
 14 45  1  6
 15 46  1  0
 15 47  1  0
 16 48  1  0
 17 49  1  0
 17 50  1  0
 17 51  1  0
 18 52  1  0
 18 53  1  0
 18 54  1  0
 22 55  1  0
 22 56  1  0
 23 57  1  0
 23 58  1  0
 24 59  1  0
 24 60  1  0
 25 61  1  6
 28 62  1  0
 29 63  1  0
M  END
$$$$
[H]c1c([H])c(C([H])([H])N2C([H])([H])C([H])([H])N(C([H])([H])[H])C([H])([H])C2([H])[H])c([H])c([H])c1C(=O)N([H])c1sc(N([H])c2c([H])c([H])c3c([H])c([H])c([H])c([H])c3c2[H])nc1C(=O)N([H])[H]
     RDKit          3D

 64 68  0  0  0  0  0  0  0  0999 V2000
  -10.1419    1.4408    0.9756 C   0  0  0  0  0  0  0  0  0  0  0  0
   -8.8283    1.3729    0.3587 N   0  0  0  0  0  0  0  0  0  0  0  0
   -9.0047    0.7381   -0.9367 C   0  0  0  0  0  0  0  0  0  0  0  0
   -8.2027   -0.5466   -1.0090 C   0  0  0  0  0  0  0  0  0  0  0  0
   -6.7979   -0.1413   -0.8146 N   0  0  0  0  0  0  0  0  0  0  0  0
   -6.0206   -1.3322   -1.1021 C   0  0  0  0  0  0  0  0  0  0  0  0
   -4.5852   -0.9934   -0.9664 C   0  0  0  0  0  0  0  0  0  0  0  0
   -4.1153    0.3007   -1.1098 C   0  0  0  0  0  0  0  0  0  0  0  0
   -2.7873    0.5829   -0.9759 C   0  0  0  0  0  0  0  0  0  0  0  0
   -1.8550   -0.4226   -0.6897 C   0  0  0  0  0  0  0  0  0  0  0  0
   -2.3442   -1.6919   -0.5530 C   0  0  0  0  0  0  0  0  0  0  0  0
   -3.7047   -1.9939   -0.6880 C   0  0  0  0  0  0  0  0  0  0  0  0
   -0.4669   -0.0534   -0.5609 C   0  0  0  0  0  0  0  0  0  0  0  0
   -0.1146    1.1474   -0.6692 O   0  0  0  0  0  0  0  0  0  0  0  0
    0.5204   -1.0262   -0.3120 N   0  0  0  0  0  0  0  0  0  0  0  0
    1.8973   -0.6322   -0.1877 C   0  0  0  0  0  0  0  0  0  0  0  0
    2.5228    0.9778   -0.3123 S   0  0  0  0  0  0  0  0  0  0  0  0
    4.2021    0.6110   -0.0545 C   0  0  0  0  0  0  0  0  0  0  0  0
    5.2816    1.5377   -0.0543 N   0  0  0  0  0  0  0  0  0  0  0  0
    6.6091    1.1820    0.1922 C   0  0  0  0  0  0  0  0  0  0  0  0
    6.9795    0.0203    0.7897 C   0  0  0  0  0  0  0  0  0  0  0  0
    8.3350   -0.2870    0.9896 C   0  0  0  0  0  0  0  0  0  0  0  0
    9.3243    0.5724    0.5905 C   0  0  0  0  0  0  0  0  0  0  0  0
   10.6613    0.2881    0.7783 C   0  0  0  0  0  0  0  0  0  0  0  0
   11.6603    1.1470    0.3799 C   0  0  0  0  0  0  0  0  0  0  0  0
   11.2801    2.3268   -0.2261 C   0  0  0  0  0  0  0  0  0  0  0  0
    9.9511    2.6300   -0.4232 C   0  0  0  0  0  0  0  0  0  0  0  0
    8.9456    1.7535   -0.0161 C   0  0  0  0  0  0  0  0  0  0  0  0
    7.6311    2.0668   -0.2181 C   0  0  0  0  0  0  0  0  0  0  0  0
    4.1475   -0.6774    0.1014 N   0  0  0  0  0  0  0  0  0  0  0  0
    3.0409   -1.3453    0.0463 C   0  0  0  0  0  0  0  0  0  0  0  0
    3.0111   -2.8225    0.2289 C   0  0  0  0  0  0  0  0  0  0  0  0
    4.2739   -3.4654    0.4693 N   0  0  0  0  0  0  0  0  0  0  0  0
    1.9837   -3.5014    0.1849 O   0  0  0  0  0  0  0  0  0  0  0  0
   -6.6886    0.1690    0.5973 C   0  0  0  0  0  0  0  0  0  0  0  0
   -7.9959    0.5698    1.2328 C   0  0  0  0  0  0  0  0  0  0  0  0
  -10.3083    0.4656    1.4793 H   0  0  0  0  0  0  0  0  0  0  0  0
  -10.9396    1.5951    0.2085 H   0  0  0  0  0  0  0  0  0  0  0  0
  -10.1984    2.2216    1.7581 H   0  0  0  0  0  0  0  0  0  0  0  0
   -8.5890    1.4240   -1.7039 H   0  0  0  0  0  0  0  0  0  0  0  0
  -10.0441    0.5363   -1.1910 H   0  0  0  0  0  0  0  0  0  0  0  0
   -8.3035   -0.9619   -2.0172 H   0  0  0  0  0  0  0  0  0  0  0  0
   -8.5160   -1.1942   -0.1917 H   0  0  0  0  0  0  0  0  0  0  0  0
   -6.2700   -1.7588   -2.0965 H   0  0  0  0  0  0  0  0  0  0  0  0
   -6.2308   -2.1440   -0.3650 H   0  0  0  0  0  0  0  0  0  0  0  0
   -4.8113    1.1056   -1.3349 H   0  0  0  0  0  0  0  0  0  0  0  0
   -2.4539    1.6034   -1.0939 H   0  0  0  0  0  0  0  0  0  0  0  0
   -1.6608   -2.4988   -0.3318 H   0  0  0  0  0  0  0  0  0  0  0  0
   -4.0026   -3.0351   -0.5619 H   0  0  0  0  0  0  0  0  0  0  0  0
    0.2615   -2.0086   -0.2201 H   0  0  0  0  0  0  0  0  0  0  0  0
    5.0363    2.5694   -0.2578 H   0  0  0  0  0  0  0  0  0  0  0  0
    6.2820   -0.7155    1.1543 H   0  0  0  0  0  0  0  0  0  0  0  0
    8.6114   -1.2231    1.4697 H   0  0  0  0  0  0  0  0  0  0  0  0
   10.9084   -0.6588    1.2628 H   0  0  0  0  0  0  0  0  0  0  0  0
   12.7053    0.9175    0.5302 H   0  0  0  0  0  0  0  0  0  0  0  0
   12.0347    3.0106   -0.5447 H   0  0  0  0  0  0  0  0  0  0  0  0
    9.6195    3.5581   -0.9010 H   0  0  0  0  0  0  0  0  0  0  0  0
    7.3593    2.9952   -0.6941 H   0  0  0  0  0  0  0  0  0  0  0  0
    4.5113   -4.3702    0.0171 H   0  0  0  0  0  0  0  0  0  0  0  0
    4.9652   -3.0159    1.1093 H   0  0  0  0  0  0  0  0  0  0  0  0
   -5.8848    0.9066    0.7867 H   0  0  0  0  0  0  0  0  0  0  0  0
   -6.3695   -0.7627    1.1112 H   0  0  0  0  0  0  0  0  0  0  0  0
   -7.7444    1.2176    2.1151 H   0  0  0  0  0  0  0  0  0  0  0  0
   -8.5726   -0.2814    1.6311 H   0  0  0  0  0  0  0  0  0  0  0  0
  1  2  1  0
  2  3  1  0
  3  4  1  0
  4  5  1  0
  5  6  1  0
  6  7  1  0
  7  8  2  0
  8  9  1  0
  9 10  2  0
 10 11  1  0
 11 12  2  0
 10 13  1  0
 13 14  2  0
 13 15  1  0
 15 16  1  0
 16 17  1  0
 17 18  1  0
 18 19  1  0
 19 20  1  0
 20 21  2  0
 21 22  1  0
 22 23  2  0
 23 24  1  0
 24 25  2  0
 25 26  1  0
 26 27  2  0
 27 28  1  0
 28 29  2  0
 18 30  2  0
 30 31  1  0
 31 32  1  0
 32 33  1  0
 32 34  2  0
  5 35  1  0
 35 36  1  0
 36  2  1  0
 12  7  1  0
 31 16  2  0
 29 20  1  0
 28 23  1  0
  1 37  1  0
  1 38  1  0
  1 39  1  0
  3 40  1  0
  3 41  1  0
  4 42  1  0
  4 43  1  0
  6 44  1  0
  6 45  1  0
  8 46  1  0
  9 47  1  0
 11 48  1  0
 12 49  1  0
 15 50  1  0
 19 51  1  0
 21 52  1  0
 22 53  1  0
 24 54  1  0
 25 55  1  0
 26 56  1  0
 27 57  1  0
 29 58  1  0
 33 59  1  0
 33 60  1  0
 35 61  1  0
 35 62  1  0
 36 63  1  0
 36 64  1  0
M  END
$$$$
[H]OC(=O)[C@]([H])(Oc1c([H])c([H])c(-c2c([H])c([H])c(-c3c(C([H])([H])c4c([H])c([H])c([H])c([H])c4[H])oc4c([H])c([H])c([H])c([H])c34)c([H])c2[H])c([H])c1[H])C([H])([H])c1c([H])c([H])c([H])c([H])c1[H]
     RDKit          3D

 68 73  0  0  0  0  0  0  0  0999 V2000
    7.8851   -2.7884    0.1646 O   0  0  0  0  0  0  0  0  0  0  0  0
    6.9075   -2.0461   -0.4499 C   0  0  0  0  0  0  0  0  0  0  0  0
    6.7879   -2.0858   -1.6906 O   0  0  0  0  0  0  0  0  0  0  0  0
    5.9904   -1.1982    0.3447 C   0  0  1  0  0  0  0  0  0  0  0  0
    6.7425   -0.1302    1.1340 C   0  0  0  0  0  0  0  0  0  0  0  0
    7.5071    0.7934    0.2805 C   0  0  0  0  0  0  0  0  0  0  0  0
    8.8258    0.5106   -0.0030 C   0  0  0  0  0  0  0  0  0  0  0  0
    9.5202    1.3990   -0.8270 C   0  0  0  0  0  0  0  0  0  0  0  0
    8.9430    2.5353   -1.3611 C   0  0  0  0  0  0  0  0  0  0  0  0
    7.6203    2.7663   -1.0422 C   0  0  0  0  0  0  0  0  0  0  0  0
    6.9133    1.9273   -0.2461 C   0  0  0  0  0  0  0  0  0  0  0  0
    5.0389   -0.5576   -0.4055 O   0  0  0  0  0  0  0  0  0  0  0  0
    3.6801   -0.6082   -0.2059 C   0  0  0  0  0  0  0  0  0  0  0  0
    2.8329    0.0980   -1.0885 C   0  0  0  0  0  0  0  0  0  0  0  0
    1.4745    0.0824   -0.9350 C   0  0  0  0  0  0  0  0  0  0  0  0
    0.8771   -0.6272    0.0937 C   0  0  0  0  0  0  0  0  0  0  0  0
    1.7122   -1.3080    0.9432 C   0  0  0  0  0  0  0  0  0  0  0  0
    3.0899   -1.3142    0.8174 C   0  0  0  0  0  0  0  0  0  0  0  0
   -0.5774   -0.6422    0.2409 C   0  0  0  0  0  0  0  0  0  0  0  0
   -1.4374   -0.5795   -0.8288 C   0  0  0  0  0  0  0  0  0  0  0  0
   -2.8161   -0.5880   -0.6010 C   0  0  0  0  0  0  0  0  0  0  0  0
   -3.3693   -0.6562    0.6508 C   0  0  0  0  0  0  0  0  0  0  0  0
   -2.4785   -0.7193    1.7291 C   0  0  0  0  0  0  0  0  0  0  0  0
   -1.1239   -0.7106    1.4929 C   0  0  0  0  0  0  0  0  0  0  0  0
   -4.7757   -0.6792    0.9583 C   0  0  0  0  0  0  0  0  0  0  0  0
   -5.6518    0.3342    1.1840 C   0  0  0  0  0  0  0  0  0  0  0  0
   -5.4209    1.7895    1.1569 C   0  0  0  0  0  0  0  0  0  0  0  0
   -5.4698    2.4127   -0.1710 C   0  0  0  0  0  0  0  0  0  0  0  0
   -6.7314    2.6545   -0.7396 C   0  0  0  0  0  0  0  0  0  0  0  0
   -6.8505    3.2651   -1.9705 C   0  0  0  0  0  0  0  0  0  0  0  0
   -5.7403    3.6579   -2.6835 C   0  0  0  0  0  0  0  0  0  0  0  0
   -4.4982    3.4263   -2.1370 C   0  0  0  0  0  0  0  0  0  0  0  0
   -4.3974    2.8154   -0.9066 C   0  0  0  0  0  0  0  0  0  0  0  0
   -6.8451   -0.2113    1.4528 O   0  0  0  0  0  0  0  0  0  0  0  0
   -6.8003   -1.5005    1.4158 C   0  0  0  0  0  0  0  0  0  0  0  0
   -7.7626   -2.4821    1.6219 C   0  0  0  0  0  0  0  0  0  0  0  0
   -7.3659   -3.7937    1.5031 C   0  0  0  0  0  0  0  0  0  0  0  0
   -6.0868   -4.1808    1.1951 C   0  0  0  0  0  0  0  0  0  0  0  0
   -5.1404   -3.1991    0.9926 C   0  0  0  0  0  0  0  0  0  0  0  0
   -5.5108   -1.8770    1.1057 C   0  0  0  0  0  0  0  0  0  0  0  0
    7.8449   -3.7878    0.3216 H   0  0  0  0  0  0  0  0  0  0  0  0
    5.5457   -1.8554    1.1055 H   0  0  0  0  0  0  0  0  0  0  0  0
    5.9777    0.4220    1.7182 H   0  0  0  0  0  0  0  0  0  0  0  0
    7.3969   -0.6369    1.8687 H   0  0  0  0  0  0  0  0  0  0  0  0
    9.3701   -0.3519    0.3723 H   0  0  0  0  0  0  0  0  0  0  0  0
   10.5575    1.2284   -1.0846 H   0  0  0  0  0  0  0  0  0  0  0  0
    9.5097    3.2043   -1.9975 H   0  0  0  0  0  0  0  0  0  0  0  0
    7.0967    3.6492   -1.4316 H   0  0  0  0  0  0  0  0  0  0  0  0
    5.8611    2.0811    0.0274 H   0  0  0  0  0  0  0  0  0  0  0  0
    3.3201    0.6459   -1.8836 H   0  0  0  0  0  0  0  0  0  0  0  0
    0.8200    0.6298   -1.6183 H   0  0  0  0  0  0  0  0  0  0  0  0
    1.2704   -1.8841    1.7730 H   0  0  0  0  0  0  0  0  0  0  0  0
    3.6849   -1.8908    1.5495 H   0  0  0  0  0  0  0  0  0  0  0  0
   -1.0233   -0.5250   -1.8241 H   0  0  0  0  0  0  0  0  0  0  0  0
   -3.4951   -0.5390   -1.4498 H   0  0  0  0  0  0  0  0  0  0  0  0
   -2.9192   -0.7742    2.7113 H   0  0  0  0  0  0  0  0  0  0  0  0
   -0.4832   -0.7615    2.3626 H   0  0  0  0  0  0  0  0  0  0  0  0
   -6.1786    2.2710    1.8503 H   0  0  0  0  0  0  0  0  0  0  0  0
   -4.4399    2.0125    1.6494 H   0  0  0  0  0  0  0  0  0  0  0  0
   -7.6079    2.3456   -0.1749 H   0  0  0  0  0  0  0  0  0  0  0  0
   -7.8461    3.4401   -2.3876 H   0  0  0  0  0  0  0  0  0  0  0  0
   -5.8893    4.1352   -3.6484 H   0  0  0  0  0  0  0  0  0  0  0  0
   -3.6321    3.7335   -2.6951 H   0  0  0  0  0  0  0  0  0  0  0  0
   -3.3996    2.6407   -0.4926 H   0  0  0  0  0  0  0  0  0  0  0  0
   -8.7915   -2.1836    1.8682 H   0  0  0  0  0  0  0  0  0  0  0  0
   -8.1143   -4.5600    1.6638 H   0  0  0  0  0  0  0  0  0  0  0  0
   -5.8109   -5.2465    1.1104 H   0  0  0  0  0  0  0  0  0  0  0  0
   -4.1228   -3.4267    0.7500 H   0  0  0  0  0  0  0  0  0  0  0  0
  1  2  1  0
  2  3  2  0
  2  4  1  0
  4  5  1  0
  5  6  1  0
  6  7  2  0
  7  8  1  0
  8  9  2  0
  9 10  1  0
 10 11  2  0
  4 12  1  0
 12 13  1  0
 13 14  2  0
 14 15  1  0
 15 16  2  0
 16 17  1  0
 17 18  2  0
 16 19  1  0
 19 20  2  0
 20 21  1  0
 21 22  2  0
 22 23  1  0
 23 24  2  0
 22 25  1  0
 25 26  2  0
 26 27  1  0
 27 28  1  0
 28 29  2  0
 29 30  1  0
 30 31  2  0
 31 32  1  0
 32 33  2  0
 26 34  1  0
 34 35  1  0
 35 36  2  0
 36 37  1  0
 37 38  2  0
 38 39  1  0
 39 40  2  0
 11  6  1  0
 18 13  1  0
 24 19  1  0
 40 25  1  0
 33 28  1  0
 40 35  1  0
  1 41  1  0
  4 42  1  1
  5 43  1  0
  5 44  1  0
  7 45  1  0
  8 46  1  0
  9 47  1  0
 10 48  1  0
 11 49  1  0
 14 50  1  0
 15 51  1  0
 17 52  1  0
 18 53  1  0
 20 54  1  0
 21 55  1  0
 23 56  1  0
 24 57  1  0
 27 58  1  0
 27 59  1  0
 29 60  1  0
 30 61  1  0
 31 62  1  0
 32 63  1  0
 33 64  1  0
 36 65  1  0
 37 66  1  0
 38 67  1  0
 39 68  1  0
M  END
$$$$
[H]/C(=C1/C(=O)N([H])c2c([H])c([H])c(Cl)c([H])c21)c1c(C([H])([H])[H])c(C(=O)N([H])C([H])([H])C([H])([H])N(C([H])([H])C([H])([H])[H])C([H])([H])C([H])([H])[H])c(C([H])([H])[H])n1[H]
     RDKit          3D

 56 58  0  0  0  0  0  0  0  0999 V2000
   -5.1364    1.4765   -1.7877 C   0  0  0  0  0  0  0  0  0  0  0  0
   -5.1759    0.1288   -1.1643 C   0  0  0  0  0  0  0  0  0  0  0  0
   -4.3600   -0.0416    0.0128 N   0  0  0  0  0  0  0  0  0  0  0  0
   -4.8263    0.6798    1.1664 C   0  0  0  0  0  0  0  0  0  0  0  0
   -4.7321    2.1658    1.0820 C   0  0  0  0  0  0  0  0  0  0  0  0
   -4.3872   -1.4616    0.3136 C   0  0  0  0  0  0  0  0  0  0  0  0
   -3.5535   -1.8724    1.4757 C   0  0  0  0  0  0  0  0  0  0  0  0
   -2.1441   -1.5521    1.3550 N   0  0  0  0  0  0  0  0  0  0  0  0
   -1.3254   -2.0808    0.3419 C   0  0  0  0  0  0  0  0  0  0  0  0
   -1.9189   -2.8829   -0.4659 O   0  0  0  0  0  0  0  0  0  0  0  0
    0.0750   -1.8275    0.1140 C   0  0  0  0  0  0  0  0  0  0  0  0
    0.8247   -2.4907   -0.8673 C   0  0  0  0  0  0  0  0  0  0  0  0
    0.3549   -3.5400   -1.8009 C   0  0  0  0  0  0  0  0  0  0  0  0
    2.0792   -2.0254   -0.8411 N   0  0  0  0  0  0  0  0  0  0  0  0
    2.2049   -1.0960    0.0955 C   0  0  0  0  0  0  0  0  0  0  0  0
    3.3613   -0.3037    0.4625 C   0  0  0  0  0  0  0  0  0  0  0  0
    4.0323    0.4734   -0.3718 C   0  0  0  0  0  0  0  0  0  0  0  0
    3.7859    0.7162   -1.7786 C   0  0  0  0  0  0  0  0  0  0  0  0
    2.8527    0.2384   -2.4706 O   0  0  0  0  0  0  0  0  0  0  0  0
    4.8178    1.6036   -2.1964 N   0  0  0  0  0  0  0  0  0  0  0  0
    5.6920    1.9281   -1.1299 C   0  0  0  0  0  0  0  0  0  0  0  0
    6.8208    2.7211   -0.9947 C   0  0  0  0  0  0  0  0  0  0  0  0
    7.5024    2.8693    0.1840 C   0  0  0  0  0  0  0  0  0  0  0  0
    7.0409    2.1936    1.2954 C   0  0  0  0  0  0  0  0  0  0  0  0
    7.9282    2.4023    2.7823 Cl  0  0  0  0  0  0  0  0  0  0  0  0
    5.9243    1.4046    1.1780 C   0  0  0  0  0  0  0  0  0  0  0  0
    5.2396    1.2559   -0.0081 C   0  0  0  0  0  0  0  0  0  0  0  0
    0.9489   -0.9540    0.7139 C   0  0  0  0  0  0  0  0  0  0  0  0
    0.6294   -0.0154    1.8212 C   0  0  0  0  0  0  0  0  0  0  0  0
   -5.8978    2.1464   -1.3515 H   0  0  0  0  0  0  0  0  0  0  0  0
   -4.1244    1.9159   -1.8549 H   0  0  0  0  0  0  0  0  0  0  0  0
   -5.4644    1.3792   -2.8721 H   0  0  0  0  0  0  0  0  0  0  0  0
   -4.7517   -0.5946   -1.9225 H   0  0  0  0  0  0  0  0  0  0  0  0
   -6.2233   -0.1964   -1.0073 H   0  0  0  0  0  0  0  0  0  0  0  0
   -5.9073    0.3755    1.2981 H   0  0  0  0  0  0  0  0  0  0  0  0
   -4.2404    0.3048    2.0376 H   0  0  0  0  0  0  0  0  0  0  0  0
   -3.9739    2.5698    0.4126 H   0  0  0  0  0  0  0  0  0  0  0  0
   -4.4150    2.5248    2.1141 H   0  0  0  0  0  0  0  0  0  0  0  0
   -5.7502    2.5942    0.9664 H   0  0  0  0  0  0  0  0  0  0  0  0
   -5.4539   -1.7600    0.5940 H   0  0  0  0  0  0  0  0  0  0  0  0
   -4.1807   -2.0733   -0.5805 H   0  0  0  0  0  0  0  0  0  0  0  0
   -3.9273   -1.5748    2.4614 H   0  0  0  0  0  0  0  0  0  0  0  0
   -3.5592   -3.0181    1.5318 H   0  0  0  0  0  0  0  0  0  0  0  0
   -1.7990   -0.8868    2.1021 H   0  0  0  0  0  0  0  0  0  0  0  0
    1.1682   -3.9491   -2.4203 H   0  0  0  0  0  0  0  0  0  0  0  0
   -0.4577   -3.1966   -2.4747 H   0  0  0  0  0  0  0  0  0  0  0  0
   -0.0643   -4.3567   -1.1808 H   0  0  0  0  0  0  0  0  0  0  0  0
    2.8648   -2.3745   -1.4798 H   0  0  0  0  0  0  0  0  0  0  0  0
    3.7352   -0.3279    1.5076 H   0  0  0  0  0  0  0  0  0  0  0  0
    4.9087    1.9624   -3.1651 H   0  0  0  0  0  0  0  0  0  0  0  0
    7.1706    3.2434   -1.8724 H   0  0  0  0  0  0  0  0  0  0  0  0
    8.3801    3.5101    0.2087 H   0  0  0  0  0  0  0  0  0  0  0  0
    5.5661    0.8746    2.0610 H   0  0  0  0  0  0  0  0  0  0  0  0
    1.5477    0.6197    2.0148 H   0  0  0  0  0  0  0  0  0  0  0  0
    0.4430   -0.5476    2.7863 H   0  0  0  0  0  0  0  0  0  0  0  0
   -0.1492    0.7221    1.5680 H   0  0  0  0  0  0  0  0  0  0  0  0
  1  2  1  0
  2  3  1  0
  3  4  1  0
  4  5  1  0
  3  6  1  0
  6  7  1  0
  7  8  1  0
  8  9  1  0
  9 10  2  0
  9 11  1  0
 11 12  2  0
 12 13  1  0
 12 14  1  0
 14 15  1  0
 15 16  1  0
 16 17  2  0
 17 18  1  0
 18 19  2  0
 18 20  1  0
 20 21  1  0
 21 22  2  0
 22 23  1  0
 23 24  2  0
 24 25  1  0
 24 26  1  0
 26 27  2  0
 15 28  2  0
 28 29  1  0
 28 11  1  0
 27 17  1  0
 27 21  1  0
  1 30  1  0
  1 31  1  0
  1 32  1  0
  2 33  1  0
  2 34  1  0
  4 35  1  0
  4 36  1  0
  5 37  1  0
  5 38  1  0
  5 39  1  0
  6 40  1  0
  6 41  1  0
  7 42  1  0
  7 43  1  0
  8 44  1  0
 13 45  1  0
 13 46  1  0
 13 47  1  0
 14 48  1  0
 16 49  1  0
 20 50  1  0
 22 51  1  0
 23 52  1  0
 26 53  1  0
 29 54  1  0
 29 55  1  0
 29 56  1  0
M  END
$$$$
[H]OC([H])([H])C([H])([H])N1C([H])([H])C([H])([H])N(C2([H])C([H])([H])C([H])([H])N(c3c([H])c([H])c(N([H])c4nc([H])c(Cl)c(N([H])c5c([H])c([H])c([H])c([H])c5S(=O)(=O)C([H])(C([H])([H])[H])C([H])([H])[H])n4)c(OC([H])([H])[H])c3[H])C([H])([H])C2([H])[H])C([H])([H])C1([H])[H]
     RDKit          3D

 86 90  0  0  0  0  0  0  0  0999 V2000
   -2.3459   -2.1504   -4.2563 C   0  0  0  0  0  0  0  0  0  0  0  0
   -0.9888   -2.0985   -3.8706 O   0  0  0  0  0  0  0  0  0  0  0  0
   -0.6176   -1.4203   -2.7103 C   0  0  0  0  0  0  0  0  0  0  0  0
   -1.5770   -0.8045   -1.9469 C   0  0  0  0  0  0  0  0  0  0  0  0
   -1.2657   -0.1240   -0.7955 C   0  0  0  0  0  0  0  0  0  0  0  0
    0.0673   -0.0988   -0.4576 C   0  0  0  0  0  0  0  0  0  0  0  0
    1.0667   -0.7112   -1.2053 C   0  0  0  0  0  0  0  0  0  0  0  0
    0.7274   -1.3800   -2.3455 C   0  0  0  0  0  0  0  0  0  0  0  0
    1.6716   -2.0273   -3.1764 N   0  0  0  0  0  0  0  0  0  0  0  0
    3.0441   -2.1878   -3.0782 C   0  0  0  0  0  0  0  0  0  0  0  0
    3.6362   -2.9294   -4.0905 N   0  0  0  0  0  0  0  0  0  0  0  0
    4.9418   -3.1767   -4.1246 C   0  0  0  0  0  0  0  0  0  0  0  0
    5.7750   -2.7010   -3.1448 C   0  0  0  0  0  0  0  0  0  0  0  0
    7.4819   -3.0613   -3.2530 Cl  0  0  0  0  0  0  0  0  0  0  0  0
    5.2171   -1.9456   -2.1044 C   0  0  0  0  0  0  0  0  0  0  0  0
    6.1120   -1.5387   -1.1019 N   0  0  0  0  0  0  0  0  0  0  0  0
    5.9386   -0.7127    0.0129 C   0  0  0  0  0  0  0  0  0  0  0  0
    4.8734    0.1680    0.1570 C   0  0  0  0  0  0  0  0  0  0  0  0
    4.8025    0.9774    1.2704 C   0  0  0  0  0  0  0  0  0  0  0  0
    5.7488    0.9565    2.2598 C   0  0  0  0  0  0  0  0  0  0  0  0
    6.8117    0.0568    2.0826 C   0  0  0  0  0  0  0  0  0  0  0  0
    6.9358   -0.7693    1.0028 C   0  0  0  0  0  0  0  0  0  0  0  0
    8.2849   -1.8304    0.9188 S   0  0  0  0  0  0  0  0  0  0  0  0
    7.7680   -3.2451    0.9584 O   0  0  0  0  0  0  0  0  0  0  0  0
    9.2142   -1.6411   -0.2205 O   0  0  0  0  0  0  0  0  0  0  0  0
    9.2964   -1.6299    2.3919 C   0  0  0  0  0  0  0  0  0  0  0  0
   10.3484   -2.7514    2.2975 C   0  0  0  0  0  0  0  0  0  0  0  0
   10.0624   -0.3513    2.4036 C   0  0  0  0  0  0  0  0  0  0  0  0
    3.8922   -1.7527   -2.1616 N   0  0  0  0  0  0  0  0  0  0  0  0
   -2.2004    0.5129    0.0575 N   0  0  0  0  0  0  0  0  0  0  0  0
   -3.4741   -0.1017    0.2961 C   0  0  0  0  0  0  0  0  0  0  0  0
   -4.6234    0.8650    0.3140 C   0  0  0  0  0  0  0  0  0  0  0  0
   -4.2638    2.0813    1.1438 C   0  0  0  0  0  0  0  0  0  0  0  0
   -3.0368    2.7638    0.6634 C   0  0  0  0  0  0  0  0  0  0  0  0
   -1.8725    1.7645    0.6600 C   0  0  0  0  0  0  0  0  0  0  0  0
   -5.4143    2.8795    1.3399 N   0  0  0  0  0  0  0  0  0  0  0  0
   -6.0506    3.4296    0.1996 C   0  0  0  0  0  0  0  0  0  0  0  0
   -7.3767    2.7117   -0.0831 C   0  0  0  0  0  0  0  0  0  0  0  0
   -8.2662    2.9710    0.9968 N   0  0  0  0  0  0  0  0  0  0  0  0
   -9.1442    1.8806    1.3222 C   0  0  0  0  0  0  0  0  0  0  0  0
  -10.1784    1.5547    0.3038 C   0  0  0  0  0  0  0  0  0  0  0  0
  -11.0582    2.5669    0.0040 O   0  0  0  0  0  0  0  0  0  0  0  0
   -7.5691    3.3588    2.2327 C   0  0  0  0  0  0  0  0  0  0  0  0
   -6.3495    2.4395    2.3242 C   0  0  0  0  0  0  0  0  0  0  0  0
   -2.3947   -2.6541   -5.2658 H   0  0  0  0  0  0  0  0  0  0  0  0
   -2.7423   -1.1215   -4.4086 H   0  0  0  0  0  0  0  0  0  0  0  0
   -2.9300   -2.7158   -3.4951 H   0  0  0  0  0  0  0  0  0  0  0  0
   -2.6335   -0.8300   -2.2347 H   0  0  0  0  0  0  0  0  0  0  0  0
    0.3606    0.4252    0.4401 H   0  0  0  0  0  0  0  0  0  0  0  0
    2.0845   -0.6710   -0.8889 H   0  0  0  0  0  0  0  0  0  0  0  0
    1.2420   -2.4924   -4.0785 H   0  0  0  0  0  0  0  0  0  0  0  0
    5.3802   -3.7709   -4.9451 H   0  0  0  0  0  0  0  0  0  0  0  0
    7.1069   -1.9337   -1.2145 H   0  0  0  0  0  0  0  0  0  0  0  0
    4.1308    0.2164   -0.6278 H   0  0  0  0  0  0  0  0  0  0  0  0
    3.9481    1.6413    1.3242 H   0  0  0  0  0  0  0  0  0  0  0  0
    5.6853    1.5988    3.1372 H   0  0  0  0  0  0  0  0  0  0  0  0
    7.5239    0.0882    2.9110 H   0  0  0  0  0  0  0  0  0  0  0  0
    8.7490   -1.8099    3.3137 H   0  0  0  0  0  0  0  0  0  0  0  0
    9.9208   -3.7202    2.6315 H   0  0  0  0  0  0  0  0  0  0  0  0
   11.2300   -2.5372    2.9322 H   0  0  0  0  0  0  0  0  0  0  0  0
   10.7052   -2.8725    1.2574 H   0  0  0  0  0  0  0  0  0  0  0  0
    9.9643    0.0795    3.4441 H   0  0  0  0  0  0  0  0  0  0  0  0
    9.5920    0.4054    1.7422 H   0  0  0  0  0  0  0  0  0  0  0  0
   11.1403   -0.4664    2.2251 H   0  0  0  0  0  0  0  0  0  0  0  0
   -3.4353   -0.7003    1.2444 H   0  0  0  0  0  0  0  0  0  0  0  0
   -3.6305   -0.8938   -0.4929 H   0  0  0  0  0  0  0  0  0  0  0  0
   -5.4526    0.3536    0.8617 H   0  0  0  0  0  0  0  0  0  0  0  0
   -4.8710    1.1234   -0.7259 H   0  0  0  0  0  0  0  0  0  0  0  0
   -4.0022    1.6515    2.1623 H   0  0  0  0  0  0  0  0  0  0  0  0
   -2.7693    3.5499    1.4150 H   0  0  0  0  0  0  0  0  0  0  0  0
   -3.0916    3.1653   -0.3529 H   0  0  0  0  0  0  0  0  0  0  0  0
   -1.4700    1.6535    1.6842 H   0  0  0  0  0  0  0  0  0  0  0  0
   -1.0228    2.2133    0.0552 H   0  0  0  0  0  0  0  0  0  0  0  0
   -6.3709    4.4843    0.4478 H   0  0  0  0  0  0  0  0  0  0  0  0
   -5.4250    3.5274   -0.6998 H   0  0  0  0  0  0  0  0  0  0  0  0
   -7.7573    3.1900   -1.0276 H   0  0  0  0  0  0  0  0  0  0  0  0
   -7.1458    1.6564   -0.2206 H   0  0  0  0  0  0  0  0  0  0  0  0
   -9.6772    2.1490    2.2662 H   0  0  0  0  0  0  0  0  0  0  0  0
   -8.5643    0.9578    1.5119 H   0  0  0  0  0  0  0  0  0  0  0  0
   -9.7443    1.0730   -0.6152 H   0  0  0  0  0  0  0  0  0  0  0  0
  -10.8044    0.7288    0.7567 H   0  0  0  0  0  0  0  0  0  0  0  0
  -10.7455    2.9876   -0.8374 H   0  0  0  0  0  0  0  0  0  0  0  0
   -8.2178    3.1438    3.1143 H   0  0  0  0  0  0  0  0  0  0  0  0
   -7.3087    4.4153    2.2504 H   0  0  0  0  0  0  0  0  0  0  0  0
   -6.7051    1.4146    2.1874 H   0  0  0  0  0  0  0  0  0  0  0  0
   -5.8972    2.6267    3.3285 H   0  0  0  0  0  0  0  0  0  0  0  0
  1  2  1  0
  2  3  1  0
  3  4  2  0
  4  5  1  0
  5  6  2  0
  6  7  1  0
  7  8  2  0
  8  9  1  0
  9 10  1  0
 10 11  2  0
 11 12  1  0
 12 13  2  0
 13 14  1  0
 13 15  1  0
 15 16  1  0
 16 17  1  0
 17 18  2  0
 18 19  1  0
 19 20  2  0
 20 21  1  0
 21 22  2  0
 22 23  1  0
 23 24  2  0
 23 25  2  0
 23 26  1  0
 26 27  1  0
 26 28  1  0
 15 29  2  0
  5 30  1  0
 30 31  1  0
 31 32  1  0
 32 33  1  0
 33 34  1  0
 34 35  1  0
 33 36  1  0
 36 37  1  0
 37 38  1  0
 38 39  1  0
 39 40  1  0
 40 41  1  0
 41 42  1  0
 39 43  1  0
 43 44  1  0
  8  3  1  0
 29 10  1  0
 35 30  1  0
 44 36  1  0
 22 17  1  0
  1 45  1  0
  1 46  1  0
  1 47  1  0
  4 48  1  0
  6 49  1  0
  7 50  1  0
  9 51  1  0
 12 52  1  0
 16 53  1  0
 18 54  1  0
 19 55  1  0
 20 56  1  0
 21 57  1  0
 26 58  1  0
 27 59  1  0
 27 60  1  0
 27 61  1  0
 28 62  1  0
 28 63  1  0
 28 64  1  0
 31 65  1  0
 31 66  1  0
 32 67  1  0
 32 68  1  0
 33 69  1  0
 34 70  1  0
 34 71  1  0
 35 72  1  0
 35 73  1  0
 37 74  1  0
 37 75  1  0
 38 76  1  0
 38 77  1  0
 40 78  1  0
 40 79  1  0
 41 80  1  0
 41 81  1  0
 42 82  1  0
 43 83  1  0
 43 84  1  0
 44 85  1  0
 44 86  1  0
M  END
$$$$
[H]c1c([H])c([H])c2c([H])c(S(=O)(=O)N([H])C(=O)[C@@]([H])(N([H])[H])C([H])([H])C([H])(C([H])([H])[H])C([H])([H])[H])c([H])c([H])c2c1[H]
     RDKit          3D

 42 43  0  0  0  0  0  0  0  0999 V2000
    3.4812    1.7538   -0.2003 C   0  0  0  0  0  0  0  0  0  0  0  0
    2.8174    1.4734    1.1016 C   0  0  0  0  0  0  0  0  0  0  0  0
    1.3113    1.5461    0.9263 C   0  0  0  0  0  0  0  0  0  0  0  0
    3.2787    0.2779    1.8282 C   0  0  0  0  0  0  0  0  0  0  0  0
    3.1589   -1.0465    1.1920 C   0  0  2  0  0  0  0  0  0  0  0  0
    3.8683   -1.2061   -0.0503 N   0  0  0  0  0  0  0  0  0  0  0  0
    1.7815   -1.5794    1.0909 C   0  0  0  0  0  0  0  0  0  0  0  0
    1.0406   -1.4760    2.1002 O   0  0  0  0  0  0  0  0  0  0  0  0
    1.2277   -2.2000   -0.0553 N   0  0  0  0  0  0  0  0  0  0  0  0
   -0.3881   -2.7959   -0.0886 S   0  0  0  0  0  0  0  0  0  0  0  0
   -0.8118   -3.3013    1.2772 O   0  0  0  0  0  0  0  0  0  0  0  0
   -0.4293   -3.9885   -1.0027 O   0  0  0  0  0  0  0  0  0  0  0  0
   -1.5451   -1.6004   -0.5925 C   0  0  0  0  0  0  0  0  0  0  0  0
   -1.8292   -1.4912   -1.9425 C   0  0  0  0  0  0  0  0  0  0  0  0
   -2.7421   -0.5553   -2.3782 C   0  0  0  0  0  0  0  0  0  0  0  0
   -3.3639    0.2687   -1.4317 C   0  0  0  0  0  0  0  0  0  0  0  0
   -4.2743    1.2062   -1.8437 C   0  0  0  0  0  0  0  0  0  0  0  0
   -4.9068    2.0360   -0.9427 C   0  0  0  0  0  0  0  0  0  0  0  0
   -4.6262    1.9332    0.4240 C   0  0  0  0  0  0  0  0  0  0  0  0
   -3.7110    0.9903    0.8365 C   0  0  0  0  0  0  0  0  0  0  0  0
   -3.0877    0.1676   -0.0854 C   0  0  0  0  0  0  0  0  0  0  0  0
   -2.1708   -0.7742    0.3412 C   0  0  0  0  0  0  0  0  0  0  0  0
    4.5178    1.3918   -0.2580 H   0  0  0  0  0  0  0  0  0  0  0  0
    2.8657    1.4200   -1.0877 H   0  0  0  0  0  0  0  0  0  0  0  0
    3.5445    2.8730   -0.3563 H   0  0  0  0  0  0  0  0  0  0  0  0
    3.0564    2.3536    1.7756 H   0  0  0  0  0  0  0  0  0  0  0  0
    0.9750    0.8199    0.1620 H   0  0  0  0  0  0  0  0  0  0  0  0
    1.0435    2.5570    0.5009 H   0  0  0  0  0  0  0  0  0  0  0  0
    0.7655    1.4762    1.8710 H   0  0  0  0  0  0  0  0  0  0  0  0
    4.3472    0.4534    2.1364 H   0  0  0  0  0  0  0  0  0  0  0  0
    2.7266    0.2349    2.8025 H   0  0  0  0  0  0  0  0  0  0  0  0
    3.6898   -1.7640    1.8995 H   0  0  0  0  0  0  0  0  0  0  0  0
    4.1853   -2.1995   -0.2142 H   0  0  0  0  0  0  0  0  0  0  0  0
    3.2891   -0.9249   -0.8679 H   0  0  0  0  0  0  0  0  0  0  0  0
    1.8038   -2.3108   -0.9250 H   0  0  0  0  0  0  0  0  0  0  0  0
   -1.3153   -2.1597   -2.6451 H   0  0  0  0  0  0  0  0  0  0  0  0
   -2.9584   -0.4754   -3.4330 H   0  0  0  0  0  0  0  0  0  0  0  0
   -4.4670    1.2566   -2.9153 H   0  0  0  0  0  0  0  0  0  0  0  0
   -5.6076    2.7509   -1.3054 H   0  0  0  0  0  0  0  0  0  0  0  0
   -5.1381    2.5979    1.1062 H   0  0  0  0  0  0  0  0  0  0  0  0
   -3.4714    0.8882    1.9063 H   0  0  0  0  0  0  0  0  0  0  0  0
   -1.9318   -0.8775    1.4010 H   0  0  0  0  0  0  0  0  0  0  0  0
  1  2  1  0
  2  3  1  0
  2  4  1  0
  4  5  1  0
  5  6  1  0
  5  7  1  0
  7  8  2  0
  7  9  1  0
  9 10  1  0
 10 11  2  0
 10 12  2  0
 10 13  1  0
 13 14  2  0
 14 15  1  0
 15 16  2  0
 16 17  1  0
 17 18  2  0
 18 19  1  0
 19 20  2  0
 20 21  1  0
 21 22  2  0
 22 13  1  0
 21 16  1  0
  1 23  1  0
  1 24  1  0
  1 25  1  0
  2 26  1  0
  3 27  1  0
  3 28  1  0
  3 29  1  0
  4 30  1  0
  4 31  1  0
  5 32  1  1
  6 33  1  0
  6 34  1  0
  9 35  1  0
 14 36  1  0
 15 37  1  0
 17 38  1  0
 18 39  1  0
 19 40  1  0
 20 41  1  0
 22 42  1  0
M  END
$$$$
[H]N=C(c1c([H])c([H])c([H])c(C([H])([H])[C@]([H])(C(=O)N2C([H])([H])C([H])([H])C([H])(C([H])([H])C([H])([H])N=C(N([H])[H])N([H])[H])C([H])([H])C2([H])[H])N([H])S(=O)(=O)c2c([H])c([H])c3c([H])c([H])c([H])c([H])c3c2[H])c1[H])N([H])[H]
     RDKit          3D

 74 77  0  0  0  0  0  0  0  0999 V2000
    6.6420   -3.0476   -1.5455 N   0  0  0  0  0  0  0  0  0  0  0  0
    6.9301   -2.3275   -0.3677 C   0  0  0  0  0  0  0  0  0  0  0  0
    8.2380   -1.9512    0.0175 N   0  0  0  0  0  0  0  0  0  0  0  0
    5.9741   -1.9826    0.4161 N   0  0  0  0  0  0  0  0  0  0  0  0
    4.6136   -2.3517    0.0562 C   0  0  0  0  0  0  0  0  0  0  0  0
    3.7139   -1.7122    1.0842 C   0  0  0  0  0  0  0  0  0  0  0  0
    2.2363   -2.0252    0.8666 C   0  0  0  0  0  0  0  0  0  0  0  0
    1.8267   -1.5114   -0.4766 C   0  0  0  0  0  0  0  0  0  0  0  0
    1.6692    0.0100   -0.3463 C   0  0  0  0  0  0  0  0  0  0  0  0
    0.4575    0.1745    0.4246 N   0  0  0  0  0  0  0  0  0  0  0  0
    0.4446   -0.4119    1.7345 C   0  0  0  0  0  0  0  0  0  0  0  0
    1.3906   -1.5270    1.9744 C   0  0  0  0  0  0  0  0  0  0  0  0
   -0.6337    0.8635   -0.1394 C   0  0  0  0  0  0  0  0  0  0  0  0
   -0.4450    1.2764   -1.3496 O   0  0  0  0  0  0  0  0  0  0  0  0
   -1.9292    1.1492    0.4903 C   0  0  1  0  0  0  0  0  0  0  0  0
   -1.8672    2.0413    1.7085 C   0  0  0  0  0  0  0  0  0  0  0  0
   -1.3101    3.3694    1.4757 C   0  0  0  0  0  0  0  0  0  0  0  0
    0.0296    3.5973    1.6380 C   0  0  0  0  0  0  0  0  0  0  0  0
    0.6147    4.8059    1.4355 C   0  0  0  0  0  0  0  0  0  0  0  0
   -0.1558    5.8815    1.0448 C   0  0  0  0  0  0  0  0  0  0  0  0
   -1.5046    5.6986    0.8702 C   0  0  0  0  0  0  0  0  0  0  0  0
   -2.0763    4.4370    1.0878 C   0  0  0  0  0  0  0  0  0  0  0  0
   -2.3220    6.8218    0.4603 C   0  0  0  0  0  0  0  0  0  0  0  0
   -3.7322    6.5921    0.2882 N   0  0  0  0  0  0  0  0  0  0  0  0
   -1.8498    7.9782    0.2517 N   0  0  0  0  0  0  0  0  0  0  0  0
   -2.7966    1.7353   -0.5222 N   0  0  0  0  0  0  0  0  0  0  0  0
   -4.1702    0.7665   -0.8588 S   0  0  0  0  0  0  0  0  0  0  0  0
   -5.0047    0.6176    0.3670 O   0  0  0  0  0  0  0  0  0  0  0  0
   -4.9850    1.4856   -1.8971 O   0  0  0  0  0  0  0  0  0  0  0  0
   -3.7084   -0.8063   -1.4881 C   0  0  0  0  0  0  0  0  0  0  0  0
   -3.5226   -1.0187   -2.8458 C   0  0  0  0  0  0  0  0  0  0  0  0
   -3.1579   -2.2532   -3.3404 C   0  0  0  0  0  0  0  0  0  0  0  0
   -2.9626   -3.3300   -2.5037 C   0  0  0  0  0  0  0  0  0  0  0  0
   -2.5937   -4.5712   -3.0159 C   0  0  0  0  0  0  0  0  0  0  0  0
   -2.3975   -5.6504   -2.1745 C   0  0  0  0  0  0  0  0  0  0  0  0
   -2.5812   -5.4462   -0.8206 C   0  0  0  0  0  0  0  0  0  0  0  0
   -2.9467   -4.2148   -0.3179 C   0  0  0  0  0  0  0  0  0  0  0  0
   -3.1440   -3.1336   -1.1517 C   0  0  0  0  0  0  0  0  0  0  0  0
   -3.5121   -1.8870   -0.6536 C   0  0  0  0  0  0  0  0  0  0  0  0
    6.1895   -2.5961   -2.3722 H   0  0  0  0  0  0  0  0  0  0  0  0
    6.8883   -4.0573   -1.5897 H   0  0  0  0  0  0  0  0  0  0  0  0
    8.8856   -2.6257    0.4550 H   0  0  0  0  0  0  0  0  0  0  0  0
    8.5482   -0.9801   -0.1439 H   0  0  0  0  0  0  0  0  0  0  0  0
    4.4431   -3.4383    0.0473 H   0  0  0  0  0  0  0  0  0  0  0  0
    4.3856   -1.9519   -0.9687 H   0  0  0  0  0  0  0  0  0  0  0  0
    3.9324   -0.6272    1.0535 H   0  0  0  0  0  0  0  0  0  0  0  0
    4.0293   -2.0320    2.1094 H   0  0  0  0  0  0  0  0  0  0  0  0
    2.1654   -3.1614    0.7828 H   0  0  0  0  0  0  0  0  0  0  0  0
    2.4668   -1.7853   -1.3102 H   0  0  0  0  0  0  0  0  0  0  0  0
    0.7803   -1.9045   -0.6833 H   0  0  0  0  0  0  0  0  0  0  0  0
    1.5787    0.4363   -1.3674 H   0  0  0  0  0  0  0  0  0  0  0  0
    2.4814    0.4768    0.2250 H   0  0  0  0  0  0  0  0  0  0  0  0
   -0.6011   -0.6855    2.0498 H   0  0  0  0  0  0  0  0  0  0  0  0
    0.7124    0.4148    2.4608 H   0  0  0  0  0  0  0  0  0  0  0  0
    2.0567   -1.2697    2.8442 H   0  0  0  0  0  0  0  0  0  0  0  0
    0.7827   -2.3966    2.3466 H   0  0  0  0  0  0  0  0  0  0  0  0
   -2.3890    0.1994    0.8016 H   0  0  0  0  0  0  0  0  0  0  0  0
   -1.4011    1.4669    2.5251 H   0  0  0  0  0  0  0  0  0  0  0  0
   -2.9528    2.1291    2.0407 H   0  0  0  0  0  0  0  0  0  0  0  0
    0.6921    2.7751    1.9524 H   0  0  0  0  0  0  0  0  0  0  0  0
    1.6828    4.9321    1.5784 H   0  0  0  0  0  0  0  0  0  0  0  0
    0.3477    6.8526    0.8876 H   0  0  0  0  0  0  0  0  0  0  0  0
   -3.1590    4.3486    0.9329 H   0  0  0  0  0  0  0  0  0  0  0  0
   -4.4022    6.9640    0.9818 H   0  0  0  0  0  0  0  0  0  0  0  0
   -4.0059    6.0464   -0.5526 H   0  0  0  0  0  0  0  0  0  0  0  0
   -0.8782    8.2835    0.3341 H   0  0  0  0  0  0  0  0  0  0  0  0
   -2.3042    2.0850   -1.3440 H   0  0  0  0  0  0  0  0  0  0  0  0
   -3.6782   -0.1643   -3.5041 H   0  0  0  0  0  0  0  0  0  0  0  0
   -3.0126   -2.4202   -4.4003 H   0  0  0  0  0  0  0  0  0  0  0  0
   -2.4549   -4.7065   -4.0876 H   0  0  0  0  0  0  0  0  0  0  0  0
   -2.1112   -6.6345   -2.5164 H   0  0  0  0  0  0  0  0  0  0  0  0
   -2.4392   -6.2603   -0.1243 H   0  0  0  0  0  0  0  0  0  0  0  0
   -3.0915   -4.0557    0.7506 H   0  0  0  0  0  0  0  0  0  0  0  0
   -3.6398   -1.7992    0.4161 H   0  0  0  0  0  0  0  0  0  0  0  0
  1  2  1  0
  2  3  1  0
  2  4  2  3
  4  5  1  0
  5  6  1  0
  6  7  1  0
  7  8  1  0
  8  9  1  0
  9 10  1  0
 10 11  1  0
 11 12  1  0
 10 13  1  0
 13 14  2  0
 13 15  1  0
 15 16  1  0
 16 17  1  0
 17 18  2  0
 18 19  1  0
 19 20  2  0
 20 21  1  0
 21 22  2  0
 21 23  1  0
 23 24  1  0
 23 25  2  3
 15 26  1  0
 26 27  1  0
 27 28  2  0
 27 29  2  0
 27 30  1  0
 30 31  2  0
 31 32  1  0
 32 33  2  0
 33 34  1  0
 34 35  2  0
 35 36  1  0
 36 37  2  0
 37 38  1  0
 38 39  2  0
 12  7  1  0
 22 17  1  0
 39 30  1  0
 38 33  1  0
  1 40  1  0
  1 41  1  0
  3 42  1  0
  3 43  1  0
  5 44  1  0
  5 45  1  0
  6 46  1  0
  6 47  1  0
  7 48  1  0
  8 49  1  0
  8 50  1  0
  9 51  1  0
  9 52  1  0
 11 53  1  0
 11 54  1  0
 12 55  1  0
 12 56  1  0
 15 57  1  1
 16 58  1  0
 16 59  1  0
 18 60  1  0
 19 61  1  0
 20 62  1  0
 22 63  1  0
 24 64  1  0
 24 65  1  0
 25 66  1  0
 26 67  1  0
 31 68  1  0
 32 69  1  0
 34 70  1  0
 35 71  1  0
 36 72  1  0
 37 73  1  0
 39 74  1  0
M  END
$$$$
[H]OC(=O)C([H])([H])C([H])([H])[C@@]([H])(C(=O)N([H])[C@]([H])(C(=O)N([H])[H])C([H])([H])c1c([H])n([H])c2c([H])c([H])c([H])c([H])c12)N([H])C(=O)[C@@]([H])(N([H])C(=O)C([H])([H])[H])C([H])([H])C([H])(C([H])([H])[H])C([H])([H])[H]
     RDKit          3D

 68 69  0  0  0  0  0  0  0  0999 V2000
   -6.2091    2.2114    0.6675 C   0  0  0  0  0  0  0  0  0  0  0  0
   -6.0012    0.8260    0.0648 C   0  0  0  0  0  0  0  0  0  0  0  0
   -6.7088    0.6991   -1.2530 C   0  0  0  0  0  0  0  0  0  0  0  0
   -4.5605    0.5192    0.0553 C   0  0  0  0  0  0  0  0  0  0  0  0
   -4.1946   -0.8510   -0.5122 C   0  0  2  0  0  0  0  0  0  0  0  0
   -4.8759   -1.8573    0.2789 N   0  0  0  0  0  0  0  0  0  0  0  0
   -5.6480   -2.9226   -0.2063 C   0  0  0  0  0  0  0  0  0  0  0  0
   -6.2695   -3.8631    0.7601 C   0  0  0  0  0  0  0  0  0  0  0  0
   -5.8595   -3.1477   -1.4254 O   0  0  0  0  0  0  0  0  0  0  0  0
   -2.7271   -0.9856   -0.1052 C   0  0  0  0  0  0  0  0  0  0  0  0
   -2.5370   -1.9339    0.7170 O   0  0  0  0  0  0  0  0  0  0  0  0
   -1.7323   -0.1531   -0.5743 N   0  0  0  0  0  0  0  0  0  0  0  0
   -0.7516    0.6645   -1.0342 C   0  0  1  0  0  0  0  0  0  0  0  0
   -0.6575    2.0860   -0.6231 C   0  0  0  0  0  0  0  0  0  0  0  0
   -0.5054    2.3497    0.8443 C   0  0  0  0  0  0  0  0  0  0  0  0
   -0.3828    3.8255    1.0676 C   0  0  0  0  0  0  0  0  0  0  0  0
   -1.4233    4.6598    1.4038 O   0  0  0  0  0  0  0  0  0  0  0  0
    0.7626    4.3164    0.9348 O   0  0  0  0  0  0  0  0  0  0  0  0
    0.5974   -0.0329   -1.0073 C   0  0  0  0  0  0  0  0  0  0  0  0
    0.6053   -1.2899   -1.2732 O   0  0  0  0  0  0  0  0  0  0  0  0
    1.8050    0.5650   -0.7195 N   0  0  0  0  0  0  0  0  0  0  0  0
    3.0531   -0.2376   -0.7291 C   0  0  1  0  0  0  0  0  0  0  0  0
    4.1929    0.6542   -0.9976 C   0  0  0  0  0  0  0  0  0  0  0  0
    5.4872   -0.0445   -1.0094 C   0  0  0  0  0  0  0  0  0  0  0  0
    6.0507   -0.6480   -2.1406 C   0  0  0  0  0  0  0  0  0  0  0  0
    7.1936   -1.2549   -1.8278 N   0  0  0  0  0  0  0  0  0  0  0  0
    7.3888   -1.0600   -0.5196 C   0  0  0  0  0  0  0  0  0  0  0  0
    8.4116   -1.4588    0.2766 C   0  0  0  0  0  0  0  0  0  0  0  0
    8.4246   -1.1240    1.6086 C   0  0  0  0  0  0  0  0  0  0  0  0
    7.3984   -0.3792    2.1495 C   0  0  0  0  0  0  0  0  0  0  0  0
    6.3689    0.0242    1.3624 C   0  0  0  0  0  0  0  0  0  0  0  0
    6.3367   -0.3065    0.0100 C   0  0  0  0  0  0  0  0  0  0  0  0
    3.1732   -0.9640    0.5515 C   0  0  0  0  0  0  0  0  0  0  0  0
    3.6796   -2.2974    0.6045 N   0  0  0  0  0  0  0  0  0  0  0  0
    2.8202   -0.4098    1.6038 O   0  0  0  0  0  0  0  0  0  0  0  0
   -5.5927    2.9765    0.1120 H   0  0  0  0  0  0  0  0  0  0  0  0
   -7.2752    2.4633    0.7016 H   0  0  0  0  0  0  0  0  0  0  0  0
   -5.7613    2.1834    1.6819 H   0  0  0  0  0  0  0  0  0  0  0  0
   -6.5118    0.1203    0.7836 H   0  0  0  0  0  0  0  0  0  0  0  0
   -7.2318   -0.2769   -1.3503 H   0  0  0  0  0  0  0  0  0  0  0  0
   -7.5396    1.4550   -1.2180 H   0  0  0  0  0  0  0  0  0  0  0  0
   -6.0984    0.9796   -2.1272 H   0  0  0  0  0  0  0  0  0  0  0  0
   -3.9771    1.2496   -0.5318 H   0  0  0  0  0  0  0  0  0  0  0  0
   -4.1149    0.5529    1.0812 H   0  0  0  0  0  0  0  0  0  0  0  0
   -4.3515   -0.9701   -1.5630 H   0  0  0  0  0  0  0  0  0  0  0  0
   -4.7706   -1.7478    1.3109 H   0  0  0  0  0  0  0  0  0  0  0  0
   -6.1521   -4.9189    0.4752 H   0  0  0  0  0  0  0  0  0  0  0  0
   -7.3486   -3.5437    0.8609 H   0  0  0  0  0  0  0  0  0  0  0  0
   -5.8186   -3.6557    1.7582 H   0  0  0  0  0  0  0  0  0  0  0  0
   -0.8709   -0.6576    0.3470 H   0  0  0  0  0  0  0  0  0  0  0  0
   -0.8187    0.7322   -2.2286 H   0  0  0  0  0  0  0  0  0  0  0  0
   -1.5633    2.6554   -0.9945 H   0  0  0  0  0  0  0  0  0  0  0  0
    0.2051    2.6026   -1.1528 H   0  0  0  0  0  0  0  0  0  0  0  0
    0.3713    1.8685    1.3042 H   0  0  0  0  0  0  0  0  0  0  0  0
   -1.4421    2.0679    1.3988 H   0  0  0  0  0  0  0  0  0  0  0  0
   -1.6105    5.4052    0.7044 H   0  0  0  0  0  0  0  0  0  0  0  0
    1.8960    1.5645   -0.4910 H   0  0  0  0  0  0  0  0  0  0  0  0
    2.8936   -1.0529   -1.4931 H   0  0  0  0  0  0  0  0  0  0  0  0
    4.1118    1.1663   -2.0056 H   0  0  0  0  0  0  0  0  0  0  0  0
    4.2267    1.5302   -0.2891 H   0  0  0  0  0  0  0  0  0  0  0  0
    5.5707   -0.5917   -3.1319 H   0  0  0  0  0  0  0  0  0  0  0  0
    7.7930   -1.7744   -2.4956 H   0  0  0  0  0  0  0  0  0  0  0  0
    9.2119   -2.0490   -0.1320 H   0  0  0  0  0  0  0  0  0  0  0  0
    9.2402   -1.4510    2.2201 H   0  0  0  0  0  0  0  0  0  0  0  0
    7.4020   -0.1062    3.2164 H   0  0  0  0  0  0  0  0  0  0  0  0
    5.5514    0.6305    1.7749 H   0  0  0  0  0  0  0  0  0  0  0  0
    4.2680   -2.6762    1.3540 H   0  0  0  0  0  0  0  0  0  0  0  0
    3.4024   -2.9112   -0.1984 H   0  0  0  0  0  0  0  0  0  0  0  0
  1  2  1  0
  2  3  1  0
  2  4  1  0
  4  5  1  0
  5  6  1  0
  6  7  1  0
  7  8  1  0
  7  9  2  0
  5 10  1  0
 10 11  2  0
 10 12  1  0
 12 13  1  0
 13 14  1  0
 14 15  1  0
 15 16  1  0
 16 17  1  0
 16 18  2  0
 13 19  1  0
 19 20  2  0
 19 21  1  0
 21 22  1  0
 22 23  1  0
 23 24  1  0
 24 25  2  0
 25 26  1  0
 26 27  1  0
 27 28  2  0
 28 29  1  0
 29 30  2  0
 30 31  1  0
 31 32  2  0
 22 33  1  0
 33 34  1  0
 33 35  2  0
 32 24  1  0
 32 27  1  0
  1 36  1  0
  1 37  1  0
  1 38  1  0
  2 39  1  0
  3 40  1  0
  3 41  1  0
  3 42  1  0
  4 43  1  0
  4 44  1  0
  5 45  1  6
  6 46  1  0
  8 47  1  0
  8 48  1  0
  8 49  1  0
 12 50  1  0
 13 51  1  6
 14 52  1  0
 14 53  1  0
 15 54  1  0
 15 55  1  0
 17 56  1  0
 21 57  1  0
 22 58  1  6
 23 59  1  0
 23 60  1  0
 25 61  1  0
 26 62  1  0
 28 63  1  0
 29 64  1  0
 30 65  1  0
 31 66  1  0
 34 67  1  0
 34 68  1  0
M  END
$$$$
[H]c1c([H])c(C#Cc2c([H])c(O[C@@]([H])(C([H])([H])[H])C([H])([H])OC([H])([H])[H])c([H])c(C(=O)N([H])c3nn(C([H])([H])[H])c([H])c3[H])c2[H])c([H])c(C(F)(F)F)c1[H]
     RDKit          3D

 55 57  0  0  0  0  0  0  0  0999 V2000
    2.6826    6.2106   -0.1612 C   0  0  0  0  0  0  0  0  0  0  0  0
    2.3598    5.6811    1.0433 O   0  0  0  0  0  0  0  0  0  0  0  0
    1.0860    5.4200    1.3838 C   0  0  0  0  0  0  0  0  0  0  0  0
    0.3709    4.3830    0.5544 C   0  0  2  0  0  0  0  0  0  0  0  0
   -1.0114    4.1810    1.3095 C   0  0  0  0  0  0  0  0  0  0  0  0
    1.0607    3.1938    0.5914 O   0  0  0  0  0  0  0  0  0  0  0  0
    0.7913    1.9330    0.1588 C   0  0  0  0  0  0  0  0  0  0  0  0
   -0.4289    1.5269   -0.3574 C   0  0  0  0  0  0  0  0  0  0  0  0
   -0.6623    0.2423   -0.7681 C   0  0  0  0  0  0  0  0  0  0  0  0
    0.3861   -0.6806   -0.6696 C   0  0  0  0  0  0  0  0  0  0  0  0
    1.6202   -0.3476   -0.1702 C   0  0  0  0  0  0  0  0  0  0  0  0
    1.8068    0.9531    0.2376 C   0  0  0  0  0  0  0  0  0  0  0  0
    2.6913   -1.3155    0.0027 C   0  0  0  0  0  0  0  0  0  0  0  0
    3.2984   -1.3183    1.1449 O   0  0  0  0  0  0  0  0  0  0  0  0
    3.1431   -2.2611   -0.9473 N   0  0  0  0  0  0  0  0  0  0  0  0
    4.1978   -3.1818   -0.5666 C   0  0  0  0  0  0  0  0  0  0  0  0
    4.7679   -4.1613   -1.3176 C   0  0  0  0  0  0  0  0  0  0  0  0
    5.6973   -4.7844   -0.5112 C   0  0  0  0  0  0  0  0  0  0  0  0
    5.6910   -4.1870    0.7142 N   0  0  0  0  0  0  0  0  0  0  0  0
    6.5335   -4.6055    1.8275 C   0  0  0  0  0  0  0  0  0  0  0  0
    4.7913   -3.2427    0.6455 N   0  0  0  0  0  0  0  0  0  0  0  0
   -2.0007   -0.2308   -1.1145 C   0  0  0  0  0  0  0  0  0  0  0  0
   -3.1115   -0.6573   -1.2724 C   0  0  0  0  0  0  0  0  0  0  0  0
   -4.4457   -1.1650   -1.3409 C   0  0  0  0  0  0  0  0  0  0  0  0
   -5.0698   -1.4921   -2.4802 C   0  0  0  0  0  0  0  0  0  0  0  0
   -6.3616   -2.0062   -2.4392 C   0  0  0  0  0  0  0  0  0  0  0  0
   -7.0167   -2.1833   -1.2287 C   0  0  0  0  0  0  0  0  0  0  0  0
   -6.3952   -1.8541   -0.0462 C   0  0  0  0  0  0  0  0  0  0  0  0
   -5.1340   -1.3561   -0.1257 C   0  0  0  0  0  0  0  0  0  0  0  0
   -7.0853   -2.0467    1.2496 C   0  0  0  0  0  0  0  0  0  0  0  0
   -7.2073   -3.3989    1.4861 F   0  0  0  0  0  0  0  0  0  0  0  0
   -8.3425   -1.4892    1.2886 F   0  0  0  0  0  0  0  0  0  0  0  0
   -6.3438   -1.4740    2.2632 F   0  0  0  0  0  0  0  0  0  0  0  0
    3.8189    6.2843   -0.1919 H   0  0  0  0  0  0  0  0  0  0  0  0
    2.3792    7.2723   -0.3077 H   0  0  0  0  0  0  0  0  0  0  0  0
    2.4198    5.5488   -1.0234 H   0  0  0  0  0  0  0  0  0  0  0  0
    0.4727    6.3350    1.4001 H   0  0  0  0  0  0  0  0  0  0  0  0
    1.0926    5.0639    2.4474 H   0  0  0  0  0  0  0  0  0  0  0  0
    0.0375    4.6464   -0.4319 H   0  0  0  0  0  0  0  0  0  0  0  0
   -1.0894    3.1704    1.7076 H   0  0  0  0  0  0  0  0  0  0  0  0
   -1.0790    4.8647    2.1395 H   0  0  0  0  0  0  0  0  0  0  0  0
   -1.8489    4.3676    0.6115 H   0  0  0  0  0  0  0  0  0  0  0  0
   -1.2425    2.2317   -0.4792 H   0  0  0  0  0  0  0  0  0  0  0  0
    0.1817   -1.6913   -1.0116 H   0  0  0  0  0  0  0  0  0  0  0  0
    2.7494    1.2765    0.6361 H   0  0  0  0  0  0  0  0  0  0  0  0
    2.6979   -2.2964   -1.8939 H   0  0  0  0  0  0  0  0  0  0  0  0
    4.5358   -4.3970   -2.3356 H   0  0  0  0  0  0  0  0  0  0  0  0
    6.3336   -5.6078   -0.7769 H   0  0  0  0  0  0  0  0  0  0  0  0
    7.5683   -4.2194    1.6557 H   0  0  0  0  0  0  0  0  0  0  0  0
    6.5391   -5.6970    1.9234 H   0  0  0  0  0  0  0  0  0  0  0  0
    6.1672   -4.1449    2.7791 H   0  0  0  0  0  0  0  0  0  0  0  0
   -4.5804   -1.3550   -3.4398 H   0  0  0  0  0  0  0  0  0  0  0  0
   -6.8399   -2.2629   -3.3825 H   0  0  0  0  0  0  0  0  0  0  0  0
   -8.0213   -2.5872   -1.2277 H   0  0  0  0  0  0  0  0  0  0  0  0
   -4.6519   -1.0882    0.8175 H   0  0  0  0  0  0  0  0  0  0  0  0
  1  2  1  0
  2  3  1  0
  3  4  1  0
  4  5  1  0
  4  6  1  0
  6  7  1  0
  7  8  2  0
  8  9  1  0
  9 10  2  0
 10 11  1  0
 11 12  2  0
 11 13  1  0
 13 14  2  0
 13 15  1  0
 15 16  1  0
 16 17  1  0
 17 18  2  0
 18 19  1  0
 19 20  1  0
 19 21  1  0
  9 22  1  0
 22 23  3  0
 23 24  1  0
 24 25  2  0
 25 26  1  0
 26 27  2  0
 27 28  1  0
 28 29  2  0
 28 30  1  0
 30 31  1  0
 30 32  1  0
 30 33  1  0
 12  7  1  0
 21 16  2  0
 29 24  1  0
  1 34  1  0
  1 35  1  0
  1 36  1  0
  3 37  1  0
  3 38  1  0
  4 39  1  6
  5 40  1  0
  5 41  1  0
  5 42  1  0
  8 43  1  0
 10 44  1  0
 12 45  1  0
 15 46  1  0
 17 47  1  0
 18 48  1  0
 20 49  1  0
 20 50  1  0
 20 51  1  0
 25 52  1  0
 26 53  1  0
 27 54  1  0
 29 55  1  0
M  END
$$$$
[H]c1nc([C@@]2([H])C([H])([H])[C@]2([H])C([H])([H])Oc2nc(C([H])([H])[H])nc([H])c2-c2c([H])nn(C([H])([H])[H])c(=O)c2[H])c([H])c([H])c1OC([H])([H])[H]
     RDKit          3D

 49 52  0  0  0  0  0  0  0  0999 V2000
    7.3450   -1.1727   -0.7511 C   0  0  0  0  0  0  0  0  0  0  0  0
    7.0051   -0.1660    0.1709 O   0  0  0  0  0  0  0  0  0  0  0  0
    5.7236    0.3934    0.2120 C   0  0  0  0  0  0  0  0  0  0  0  0
    4.7568   -0.0436   -0.6688 C   0  0  0  0  0  0  0  0  0  0  0  0
    3.5083    0.5152   -0.6141 C   0  0  0  0  0  0  0  0  0  0  0  0
    3.2295    1.5092    0.3206 C   0  0  0  0  0  0  0  0  0  0  0  0
    4.1915    1.9047    1.1553 N   0  0  0  0  0  0  0  0  0  0  0  0
    5.4327    1.3680    1.1210 C   0  0  0  0  0  0  0  0  0  0  0  0
    1.8917    2.1068    0.3781 C   0  0  1  0  0  0  0  0  0  0  0  0
    1.1374    2.2962   -0.9387 C   0  0  0  0  0  0  0  0  0  0  0  0
    0.6871    1.2529    0.0592 C   0  0  2  0  0  0  0  0  0  0  0  0
   -0.5694    1.5998    0.8046 C   0  0  0  0  0  0  0  0  0  0  0  0
   -1.6017    0.7532    0.4358 O   0  0  0  0  0  0  0  0  0  0  0  0
   -1.5791   -0.6073    0.6157 C   0  0  0  0  0  0  0  0  0  0  0  0
   -0.5542   -1.2836    1.1759 N   0  0  0  0  0  0  0  0  0  0  0  0
   -0.5366   -2.6142    1.3505 C   0  0  0  0  0  0  0  0  0  0  0  0
    0.6044   -3.3315    1.9697 C   0  0  0  0  0  0  0  0  0  0  0  0
   -1.6243   -3.2998    0.9315 N   0  0  0  0  0  0  0  0  0  0  0  0
   -2.6754   -2.6781    0.3661 C   0  0  0  0  0  0  0  0  0  0  0  0
   -2.7030   -1.3150    0.1828 C   0  0  0  0  0  0  0  0  0  0  0  0
   -3.8336   -0.6301   -0.4235 C   0  0  0  0  0  0  0  0  0  0  0  0
   -4.4253   -1.0963   -1.5916 C   0  0  0  0  0  0  0  0  0  0  0  0
   -5.4645   -0.4395   -2.1140 N   0  0  0  0  0  0  0  0  0  0  0  0
   -5.9625    0.6467   -1.5646 N   0  0  0  0  0  0  0  0  0  0  0  0
   -7.1044    1.3543   -2.1533 C   0  0  0  0  0  0  0  0  0  0  0  0
   -5.4569    1.1686   -0.4382 C   0  0  0  0  0  0  0  0  0  0  0  0
   -5.9055    2.1916    0.1028 O   0  0  0  0  0  0  0  0  0  0  0  0
   -4.3738    0.5076    0.1306 C   0  0  0  0  0  0  0  0  0  0  0  0
    6.7032   -2.0485   -0.5907 H   0  0  0  0  0  0  0  0  0  0  0  0
    8.4112   -1.4259   -0.6017 H   0  0  0  0  0  0  0  0  0  0  0  0
    7.1422   -0.7753   -1.7833 H   0  0  0  0  0  0  0  0  0  0  0  0
    4.9659   -0.8179   -1.4005 H   0  0  0  0  0  0  0  0  0  0  0  0
    2.7008    0.2283   -1.2669 H   0  0  0  0  0  0  0  0  0  0  0  0
    6.1688    1.7252    1.8175 H   0  0  0  0  0  0  0  0  0  0  0  0
    1.7574    2.8896    1.1507 H   0  0  0  0  0  0  0  0  0  0  0  0
    0.5398    3.2044   -1.0452 H   0  0  0  0  0  0  0  0  0  0  0  0
    1.7078    1.9923   -1.8231 H   0  0  0  0  0  0  0  0  0  0  0  0
    0.8890    0.2192   -0.2841 H   0  0  0  0  0  0  0  0  0  0  0  0
   -0.8254    2.6731    0.6588 H   0  0  0  0  0  0  0  0  0  0  0  0
   -0.3447    1.5088    1.8985 H   0  0  0  0  0  0  0  0  0  0  0  0
    1.5186   -2.7297    1.9699 H   0  0  0  0  0  0  0  0  0  0  0  0
    0.3945   -3.6182    3.0279 H   0  0  0  0  0  0  0  0  0  0  0  0
    0.7871   -4.2828    1.4271 H   0  0  0  0  0  0  0  0  0  0  0  0
   -3.5575   -3.2230    0.0249 H   0  0  0  0  0  0  0  0  0  0  0  0
   -3.9898   -1.9943   -2.0184 H   0  0  0  0  0  0  0  0  0  0  0  0
   -7.9733    1.1292   -1.5023 H   0  0  0  0  0  0  0  0  0  0  0  0
   -7.2535    1.0871   -3.2040 H   0  0  0  0  0  0  0  0  0  0  0  0
   -6.9147    2.4464   -2.0534 H   0  0  0  0  0  0  0  0  0  0  0  0
   -3.9706    0.9218    1.0312 H   0  0  0  0  0  0  0  0  0  0  0  0
  1  2  1  0
  2  3  1  0
  3  4  2  0
  4  5  1  0
  5  6  2  0
  6  7  1  0
  7  8  2  0
  6  9  1  0
  9 10  1  0
 10 11  1  0
 11 12  1  0
 12 13  1  0
 13 14  1  0
 14 15  2  0
 15 16  1  0
 16 17  1  0
 16 18  2  0
 18 19  1  0
 19 20  2  0
 20 21  1  0
 21 22  1  0
 22 23  2  0
 23 24  1  0
 24 25  1  0
 24 26  1  0
 26 27  2  0
 26 28  1  0
  8  3  1  0
 11  9  1  0
 20 14  1  0
 28 21  2  0
  1 29  1  0
  1 30  1  0
  1 31  1  0
  4 32  1  0
  5 33  1  0
  8 34  1  0
  9 35  1  1
 10 36  1  0
 10 37  1  0
 11 38  1  6
 12 39  1  0
 12 40  1  0
 17 41  1  0
 17 42  1  0
 17 43  1  0
 19 44  1  0
 22 45  1  0
 25 46  1  0
 25 47  1  0
 25 48  1  0
 28 49  1  0
M  END
$$$$
[H]OC(C#Cc1nc([H])c(OC([H])([H])[C@]2([H])C([H])([H])N([H])C([H])([H])C([H])([H])C2([H])[H])c2c1nc(-c1nonc1N([H])[H])n2C([H])([H])C([H])([H])[H])(C([H])([H])[H])C([H])([H])[H]
     RDKit          3D

 58 61  0  0  0  0  0  0  0  0999 V2000
    2.0176   -2.0661   -1.4084 C   0  0  0  0  0  0  0  0  0  0  0  0
    1.4932   -1.8405   -0.0407 C   0  0  0  0  0  0  0  0  0  0  0  0
    0.1454   -1.3644    0.0180 N   0  0  0  0  0  0  0  0  0  0  0  0
   -0.9934   -2.0925    0.0674 C   0  0  0  0  0  0  0  0  0  0  0  0
   -2.0314   -1.1984    0.1258 N   0  0  0  0  0  0  0  0  0  0  0  0
   -1.5717    0.0361    0.1130 C   0  0  0  0  0  0  0  0  0  0  0  0
   -2.1832    1.2715    0.1499 C   0  0  0  0  0  0  0  0  0  0  0  0
   -1.4814    2.4160    0.1208 N   0  0  0  0  0  0  0  0  0  0  0  0
   -0.1367    2.3348    0.0532 C   0  0  0  0  0  0  0  0  0  0  0  0
    0.5528    1.1354    0.0127 C   0  0  0  0  0  0  0  0  0  0  0  0
    1.9338    1.0911   -0.0571 O   0  0  0  0  0  0  0  0  0  0  0  0
    2.6367    2.3165   -0.0914 C   0  0  0  0  0  0  0  0  0  0  0  0
    4.1228    2.1589   -0.1539 C   0  0  1  0  0  0  0  0  0  0  0  0
    4.6961    1.4099    1.0351 C   0  0  0  0  0  0  0  0  0  0  0  0
    6.1850    1.3166    0.7819 C   0  0  0  0  0  0  0  0  0  0  0  0
    6.4097    0.4014   -0.3885 C   0  0  0  0  0  0  0  0  0  0  0  0
    5.2597    0.2709   -1.2164 N   0  0  0  0  0  0  0  0  0  0  0  0
    4.5254    1.5000   -1.4472 C   0  0  0  0  0  0  0  0  0  0  0  0
   -0.1819   -0.0485    0.0439 C   0  0  0  0  0  0  0  0  0  0  0  0
   -3.6324    1.2708    0.2226 C   0  0  0  0  0  0  0  0  0  0  0  0
   -4.8438    1.2638    0.2649 C   0  0  0  0  0  0  0  0  0  0  0  0
   -6.3042    1.2357    0.2997 C   0  0  0  0  0  0  0  0  0  0  0  0
   -6.8135    1.7555    1.6359 C   0  0  0  0  0  0  0  0  0  0  0  0
   -6.7610   -0.1717    0.0387 C   0  0  0  0  0  0  0  0  0  0  0  0
   -6.8660    2.0530   -0.6864 O   0  0  0  0  0  0  0  0  0  0  0  0
   -1.1493   -3.5348    0.0487 C   0  0  0  0  0  0  0  0  0  0  0  0
   -0.1927   -4.4477   -0.0065 N   0  0  0  0  0  0  0  0  0  0  0  0
   -0.7254   -5.6550   -0.0055 O   0  0  0  0  0  0  0  0  0  0  0  0
   -2.0302   -5.5556    0.0498 N   0  0  0  0  0  0  0  0  0  0  0  0
   -2.3338   -4.2370    0.0852 C   0  0  0  0  0  0  0  0  0  0  0  0
   -3.6172   -3.6437    0.1480 N   0  0  0  0  0  0  0  0  0  0  0  0
    2.8097   -2.8713   -1.3902 H   0  0  0  0  0  0  0  0  0  0  0  0
    1.2446   -2.2856   -2.1706 H   0  0  0  0  0  0  0  0  0  0  0  0
    2.5532   -1.1588   -1.7514 H   0  0  0  0  0  0  0  0  0  0  0  0
    1.5665   -2.7952    0.5275 H   0  0  0  0  0  0  0  0  0  0  0  0
    2.2109   -1.1574    0.5024 H   0  0  0  0  0  0  0  0  0  0  0  0
    0.4847    3.2374    0.0298 H   0  0  0  0  0  0  0  0  0  0  0  0
    2.2479    2.9816   -0.8948 H   0  0  0  0  0  0  0  0  0  0  0  0
    2.4011    2.8443    0.8645 H   0  0  0  0  0  0  0  0  0  0  0  0
    4.5667    3.1737   -0.1343 H   0  0  0  0  0  0  0  0  0  0  0  0
    4.2914    0.3939    1.1400 H   0  0  0  0  0  0  0  0  0  0  0  0
    4.4851    1.9631    1.9765 H   0  0  0  0  0  0  0  0  0  0  0  0
    6.5995    2.3382    0.5566 H   0  0  0  0  0  0  0  0  0  0  0  0
    6.7119    0.9538    1.6890 H   0  0  0  0  0  0  0  0  0  0  0  0
    7.3222    0.7350   -0.9490 H   0  0  0  0  0  0  0  0  0  0  0  0
    6.6800   -0.6107    0.0168 H   0  0  0  0  0  0  0  0  0  0  0  0
    4.5738   -0.3760   -0.7271 H   0  0  0  0  0  0  0  0  0  0  0  0
    5.0835    2.2073   -2.0787 H   0  0  0  0  0  0  0  0  0  0  0  0
    3.6051    1.2136   -1.9948 H   0  0  0  0  0  0  0  0  0  0  0  0
   -5.9844    1.6196    2.3642 H   0  0  0  0  0  0  0  0  0  0  0  0
   -7.7145    1.1854    1.8946 H   0  0  0  0  0  0  0  0  0  0  0  0
   -6.9766    2.8419    1.5433 H   0  0  0  0  0  0  0  0  0  0  0  0
   -7.6618   -0.2197   -0.6114 H   0  0  0  0  0  0  0  0  0  0  0  0
   -5.9586   -0.6946   -0.5204 H   0  0  0  0  0  0  0  0  0  0  0  0
   -6.9288   -0.6805    1.0104 H   0  0  0  0  0  0  0  0  0  0  0  0
   -6.1676    2.6329   -1.0824 H   0  0  0  0  0  0  0  0  0  0  0  0
   -4.1397   -3.3756   -0.7043 H   0  0  0  0  0  0  0  0  0  0  0  0
   -4.0346   -3.4781    1.0805 H   0  0  0  0  0  0  0  0  0  0  0  0
  1  2  1  0
  2  3  1  0
  3  4  1  0
  4  5  2  0
  5  6  1  0
  6  7  2  0
  7  8  1  0
  8  9  2  0
  9 10  1  0
 10 11  1  0
 11 12  1  0
 12 13  1  0
 13 14  1  0
 14 15  1  0
 15 16  1  0
 16 17  1  0
 17 18  1  0
 10 19  2  0
  7 20  1  0
 20 21  3  0
 21 22  1  0
 22 23  1  0
 22 24  1  0
 22 25  1  0
  4 26  1  0
 26 27  2  0
 27 28  1  0
 28 29  1  0
 29 30  2  0
 30 31  1  0
 19  3  1  0
 30 26  1  0
 19  6  1  0
 18 13  1  0
  1 32  1  0
  1 33  1  0
  1 34  1  0
  2 35  1  0
  2 36  1  0
  9 37  1  0
 12 38  1  0
 12 39  1  0
 13 40  1  6
 14 41  1  0
 14 42  1  0
 15 43  1  0
 15 44  1  0
 16 45  1  0
 16 46  1  0
 17 47  1  0
 18 48  1  0
 18 49  1  0
 23 50  1  0
 23 51  1  0
 23 52  1  0
 24 53  1  0
 24 54  1  0
 24 55  1  0
 25 56  1  0
 31 57  1  0
 31 58  1  0
M  END
$$$$
[H]OC(=O)C([H])([H])C([H])(c1c([H])c([H])c(Cl)c(Cl)c1[H])N(C([H])([H])c1c([H])c([H])c(OC([H])([H])C([H])([H])N2C(=O)C([H])([H])C([H])([H])C2=O)c(OC([H])([H])[H])c1[H])C([H])([H])C([H])(C([H])([H])[H])C([H])([H])[H]
     RDKit          3D

 69 71  0  0  0  0  0  0  0  0999 V2000
    1.4746    3.3178    0.7944 C   0  0  0  0  0  0  0  0  0  0  0  0
    2.0600    2.2349    0.1172 O   0  0  0  0  0  0  0  0  0  0  0  0
    1.4945    0.9597    0.1066 C   0  0  0  0  0  0  0  0  0  0  0  0
    0.3174    0.6615    0.7594 C   0  0  0  0  0  0  0  0  0  0  0  0
   -0.2710   -0.5919    0.7696 C   0  0  0  0  0  0  0  0  0  0  0  0
   -1.5318   -0.8302    1.5066 C   0  0  0  0  0  0  0  0  0  0  0  0
   -2.7251   -0.7750    0.7975 N   0  0  0  0  0  0  0  0  0  0  0  0
   -2.9376   -1.6622   -0.2737 C   0  0  0  0  0  0  0  0  0  0  0  0
   -3.0985   -3.1057    0.0027 C   0  0  0  0  0  0  0  0  0  0  0  0
   -4.2537   -3.4845    0.8851 C   0  0  0  0  0  0  0  0  0  0  0  0
   -3.3232   -3.7990   -1.3504 C   0  0  0  0  0  0  0  0  0  0  0  0
   -3.5457    0.3686    0.8442 C   0  0  0  0  0  0  0  0  0  0  0  0
   -4.0905    0.8004    2.1610 C   0  0  0  0  0  0  0  0  0  0  0  0
   -4.9424   -0.2124    2.8368 C   0  0  0  0  0  0  0  0  0  0  0  0
   -6.3028   -0.1980    2.6194 O   0  0  0  0  0  0  0  0  0  0  0  0
   -4.4799   -1.0881    3.6025 O   0  0  0  0  0  0  0  0  0  0  0  0
   -3.0984    1.5503    0.0771 C   0  0  0  0  0  0  0  0  0  0  0  0
   -2.9667    2.7867    0.6688 C   0  0  0  0  0  0  0  0  0  0  0  0
   -2.5713    3.9274   -0.0354 C   0  0  0  0  0  0  0  0  0  0  0  0
   -2.2928    3.8511   -1.3796 C   0  0  0  0  0  0  0  0  0  0  0  0
   -1.7928    5.2557   -2.2996 Cl  0  0  0  0  0  0  0  0  0  0  0  0
   -2.4143    2.6325   -2.0005 C   0  0  0  0  0  0  0  0  0  0  0  0
   -2.0603    2.5282   -3.7299 Cl  0  0  0  0  0  0  0  0  0  0  0  0
   -2.8052    1.5192   -1.2909 C   0  0  0  0  0  0  0  0  0  0  0  0
    0.3564   -1.6115    0.0842 C   0  0  0  0  0  0  0  0  0  0  0  0
    1.5346   -1.3413   -0.5775 C   0  0  0  0  0  0  0  0  0  0  0  0
    2.0914   -0.0838   -0.5665 C   0  0  0  0  0  0  0  0  0  0  0  0
    3.2767    0.1317   -1.2484 O   0  0  0  0  0  0  0  0  0  0  0  0
    3.8891   -0.9319   -1.9382 C   0  0  0  0  0  0  0  0  0  0  0  0
    5.1669   -0.5386   -2.6269 C   0  0  0  0  0  0  0  0  0  0  0  0
    6.1175   -0.0558   -1.6327 N   0  0  0  0  0  0  0  0  0  0  0  0
    7.0666   -0.8206   -0.9148 C   0  0  0  0  0  0  0  0  0  0  0  0
    7.2247   -2.0578   -1.0199 O   0  0  0  0  0  0  0  0  0  0  0  0
    7.8455    0.0624   -0.0199 C   0  0  0  0  0  0  0  0  0  0  0  0
    7.3459    1.4534   -0.2379 C   0  0  0  0  0  0  0  0  0  0  0  0
    6.2423    1.3015   -1.2221 C   0  0  0  0  0  0  0  0  0  0  0  0
    5.4988    2.2389   -1.6533 O   0  0  0  0  0  0  0  0  0  0  0  0
    1.2014    2.9318    1.8197 H   0  0  0  0  0  0  0  0  0  0  0  0
    2.1514    4.1597    0.9477 H   0  0  0  0  0  0  0  0  0  0  0  0
    0.5385    3.5893    0.2801 H   0  0  0  0  0  0  0  0  0  0  0  0
   -0.1493    1.5048    1.2932 H   0  0  0  0  0  0  0  0  0  0  0  0
   -1.4560   -1.8313    2.0371 H   0  0  0  0  0  0  0  0  0  0  0  0
   -1.5240   -0.1053    2.3446 H   0  0  0  0  0  0  0  0  0  0  0  0
   -2.1244   -1.5559   -1.0374 H   0  0  0  0  0  0  0  0  0  0  0  0
   -3.8947   -1.3319   -0.7846 H   0  0  0  0  0  0  0  0  0  0  0  0
   -2.2034   -3.5999    0.4275 H   0  0  0  0  0  0  0  0  0  0  0  0
   -3.9161   -3.5684    1.9514 H   0  0  0  0  0  0  0  0  0  0  0  0
   -4.5573   -4.5201    0.6043 H   0  0  0  0  0  0  0  0  0  0  0  0
   -5.0953   -2.7644    0.7784 H   0  0  0  0  0  0  0  0  0  0  0  0
   -2.5622   -3.4171   -2.0891 H   0  0  0  0  0  0  0  0  0  0  0  0
   -3.1609   -4.8934   -1.2729 H   0  0  0  0  0  0  0  0  0  0  0  0
   -4.3540   -3.6311   -1.7190 H   0  0  0  0  0  0  0  0  0  0  0  0
   -4.4963    0.0444    0.2629 H   0  0  0  0  0  0  0  0  0  0  0  0
   -3.3149    1.2037    2.8519 H   0  0  0  0  0  0  0  0  0  0  0  0
   -4.7689    1.6761    1.9577 H   0  0  0  0  0  0  0  0  0  0  0  0
   -6.7249   -1.0102    2.1668 H   0  0  0  0  0  0  0  0  0  0  0  0
   -3.1812    2.8593    1.7300 H   0  0  0  0  0  0  0  0  0  0  0  0
   -2.4978    4.8491    0.5179 H   0  0  0  0  0  0  0  0  0  0  0  0
   -2.9009    0.5672   -1.7818 H   0  0  0  0  0  0  0  0  0  0  0  0
   -0.0369   -2.6267    0.0465 H   0  0  0  0  0  0  0  0  0  0  0  0
    2.0101   -2.1722   -1.1132 H   0  0  0  0  0  0  0  0  0  0  0  0
    4.1031   -1.7157   -1.1539 H   0  0  0  0  0  0  0  0  0  0  0  0
    3.1835   -1.4469   -2.6457 H   0  0  0  0  0  0  0  0  0  0  0  0
    4.9813    0.2166   -3.4050 H   0  0  0  0  0  0  0  0  0  0  0  0
    5.5764   -1.4551   -3.1046 H   0  0  0  0  0  0  0  0  0  0  0  0
    7.7597   -0.2597    1.0587 H   0  0  0  0  0  0  0  0  0  0  0  0
    8.9166   -0.0469   -0.3202 H   0  0  0  0  0  0  0  0  0  0  0  0
    8.1107    2.1630   -0.5754 H   0  0  0  0  0  0  0  0  0  0  0  0
    6.8876    1.7935    0.7344 H   0  0  0  0  0  0  0  0  0  0  0  0
  1  2  1  0
  2  3  1  0
  3  4  2  0
  4  5  1  0
  5  6  1  0
  6  7  1  0
  7  8  1  0
  8  9  1  0
  9 10  1  0
  9 11  1  0
  7 12  1  0
 12 13  1  0
 13 14  1  0
 14 15  1  0
 14 16  2  0
 12 17  1  0
 17 18  2  0
 18 19  1  0
 19 20  2  0
 20 21  1  0
 20 22  1  0
 22 23  1  0
 22 24  2  0
  5 25  2  0
 25 26  1  0
 26 27  2  0
 27 28  1  0
 28 29  1  0
 29 30  1  0
 30 31  1  0
 31 32  1  0
 32 33  2  0
 32 34  1  0
 34 35  1  0
 35 36  1  0
 36 37  2  0
 27  3  1  0
 36 31  1  0
 24 17  1  0
  1 38  1  0
  1 39  1  0
  1 40  1  0
  4 41  1  0
  6 42  1  0
  6 43  1  0
  8 44  1  0
  8 45  1  0
  9 46  1  0
 10 47  1  0
 10 48  1  0
 10 49  1  0
 11 50  1  0
 11 51  1  0
 11 52  1  0
 12 53  1  0
 13 54  1  0
 13 55  1  0
 15 56  1  0
 18 57  1  0
 19 58  1  0
 24 59  1  0
 25 60  1  0
 26 61  1  0
 29 62  1  0
 29 63  1  0
 30 64  1  0
 30 65  1  0
 34 66  1  0
 34 67  1  0
 35 68  1  0
 35 69  1  0
M  END
$$$$
[H]c1nc(N([H])c2c([H])c([H])c(OC([H])([H])c3c([H])c([H])c([H])c(F)c3[H])c(Cl)c2[H])c2sc(C#C[C@@]3([H])N([H])C([H])([H])C([H])([H])C3([H])[H])c([H])c2n1
     RDKit          3D

 53 57  0  0  0  0  0  0  0  0999 V2000
   10.8101    1.3221    1.2681 F   0  0  0  0  0  0  0  0  0  0  0  0
   10.0222    1.0248    0.2112 C   0  0  0  0  0  0  0  0  0  0  0  0
   10.6313    0.5567   -0.9411 C   0  0  0  0  0  0  0  0  0  0  0  0
    9.8414    0.2519   -2.0201 C   0  0  0  0  0  0  0  0  0  0  0  0
    8.4593    0.3967   -1.9942 C   0  0  0  0  0  0  0  0  0  0  0  0
    7.8535    0.8593   -0.8566 C   0  0  0  0  0  0  0  0  0  0  0  0
    6.3942    1.0128   -0.8274 C   0  0  0  0  0  0  0  0  0  0  0  0
    5.7478   -0.1847   -0.3728 O   0  0  0  0  0  0  0  0  0  0  0  0
    4.3704   -0.2042   -0.2879 C   0  0  0  0  0  0  0  0  0  0  0  0
    3.5788    0.8734   -0.6192 C   0  0  0  0  0  0  0  0  0  0  0  0
    2.2195    0.8249   -0.5248 C   0  0  0  0  0  0  0  0  0  0  0  0
    1.5681   -0.3511   -0.0769 C   0  0  0  0  0  0  0  0  0  0  0  0
    0.1610   -0.3715   -0.0219 N   0  0  0  0  0  0  0  0  0  0  0  0
   -0.5800   -1.1827    0.8467 C   0  0  0  0  0  0  0  0  0  0  0  0
   -0.0790   -2.0100    1.7787 N   0  0  0  0  0  0  0  0  0  0  0  0
   -0.9526   -2.6891    2.5382 C   0  0  0  0  0  0  0  0  0  0  0  0
   -2.2754   -2.5842    2.4146 N   0  0  0  0  0  0  0  0  0  0  0  0
   -2.8577   -1.7558    1.4810 C   0  0  0  0  0  0  0  0  0  0  0  0
   -4.1806   -1.5573    1.2521 C   0  0  0  0  0  0  0  0  0  0  0  0
   -4.5169   -0.6792    0.2635 C   0  0  0  0  0  0  0  0  0  0  0  0
   -3.0040   -0.1546   -0.3196 S   0  0  0  0  0  0  0  0  0  0  0  0
   -1.9853   -1.0635    0.7066 C   0  0  0  0  0  0  0  0  0  0  0  0
   -5.8617   -0.3038   -0.1646 C   0  0  0  0  0  0  0  0  0  0  0  0
   -6.9652   -0.0041   -0.5355 C   0  0  0  0  0  0  0  0  0  0  0  0
   -8.3203    0.3378   -0.9925 C   0  0  2  0  0  0  0  0  0  0  0  0
   -8.6877    1.7336   -0.5595 C   0  0  0  0  0  0  0  0  0  0  0  0
   -9.5423    1.5358    0.6690 C   0  0  0  0  0  0  0  0  0  0  0  0
   -9.8694    0.0795    0.7216 C   0  0  0  0  0  0  0  0  0  0  0  0
   -9.3118   -0.5510   -0.4446 N   0  0  0  0  0  0  0  0  0  0  0  0
    2.3709   -1.4171    0.2487 C   0  0  0  0  0  0  0  0  0  0  0  0
    3.7675   -1.3504    0.1463 C   0  0  0  0  0  0  0  0  0  0  0  0
    4.7154   -2.7710    0.5885 Cl  0  0  0  0  0  0  0  0  0  0  0  0
    8.6491    1.1639    0.2233 C   0  0  0  0  0  0  0  0  0  0  0  0
   11.7108    0.4430   -0.9629 H   0  0  0  0  0  0  0  0  0  0  0  0
   10.3318   -0.1115   -2.9095 H   0  0  0  0  0  0  0  0  0  0  0  0
    7.9052    0.1319   -2.8950 H   0  0  0  0  0  0  0  0  0  0  0  0
    6.0457    1.2473   -1.8607 H   0  0  0  0  0  0  0  0  0  0  0  0
    6.0452    1.8192   -0.1573 H   0  0  0  0  0  0  0  0  0  0  0  0
    4.0605    1.7695   -0.9597 H   0  0  0  0  0  0  0  0  0  0  0  0
    1.5849    1.6738   -0.7852 H   0  0  0  0  0  0  0  0  0  0  0  0
   -0.3136    0.2905   -0.7079 H   0  0  0  0  0  0  0  0  0  0  0  0
   -0.5570   -3.3764    3.3125 H   0  0  0  0  0  0  0  0  0  0  0  0
   -4.9705   -2.0844    1.8411 H   0  0  0  0  0  0  0  0  0  0  0  0
   -8.3227    0.2084   -2.0948 H   0  0  0  0  0  0  0  0  0  0  0  0
   -7.8120    2.3622   -0.3970 H   0  0  0  0  0  0  0  0  0  0  0  0
   -9.3194    2.1847   -1.3648 H   0  0  0  0  0  0  0  0  0  0  0  0
   -8.9604    1.8029    1.5965 H   0  0  0  0  0  0  0  0  0  0  0  0
  -10.4633    2.1300    0.6398 H   0  0  0  0  0  0  0  0  0  0  0  0
   -9.4147   -0.4070    1.6243 H   0  0  0  0  0  0  0  0  0  0  0  0
  -10.9603   -0.1166    0.7769 H   0  0  0  0  0  0  0  0  0  0  0  0
   -8.9331   -1.4900   -0.2291 H   0  0  0  0  0  0  0  0  0  0  0  0
    1.9620   -2.3778    0.5852 H   0  0  0  0  0  0  0  0  0  0  0  0
    8.2101    1.5350    1.1489 H   0  0  0  0  0  0  0  0  0  0  0  0
  1  2  1  0
  2  3  2  0
  3  4  1  0
  4  5  2  0
  5  6  1  0
  6  7  1  0
  7  8  1  0
  8  9  1  0
  9 10  2  0
 10 11  1  0
 11 12  2  0
 12 13  1  0
 13 14  1  0
 14 15  2  0
 15 16  1  0
 16 17  2  0
 17 18  1  0
 18 19  1  0
 19 20  2  0
 20 21  1  0
 21 22  1  0
 20 23  1  0
 23 24  3  0
 24 25  1  0
 25 26  1  0
 26 27  1  0
 27 28  1  0
 28 29  1  0
 12 30  1  0
 30 31  2  0
 31 32  1  0
  6 33  2  0
 33  2  1  0
 31  9  1  0
 22 14  1  0
 29 25  1  0
 22 18  2  0
  3 34  1  0
  4 35  1  0
  5 36  1  0
  7 37  1  0
  7 38  1  0
 10 39  1  0
 11 40  1  0
 13 41  1  0
 16 42  1  0
 19 43  1  0
 25 44  1  6
 26 45  1  0
 26 46  1  0
 27 47  1  0
 27 48  1  0
 28 49  1  0
 28 50  1  0
 29 51  1  0
 30 52  1  0
 33 53  1  0
M  END
$$$$
[H]c1nc2c(c(Oc3c([H])c([H])c(N([H])C(=O)N([H])c4c([H])c(C(C([H])([H])[H])(C([H])([H])[H])C([H])([H])[H])nn4-c4c([H])c([H])c(OC([H])([H])[H])c([H])c4[H])c4c([H])c([H])c([H])c([H])c34)c1[H])n(C([H])([H])[H])c(=O)n2[H]
     RDKit          3D

 74 79  0  0  0  0  0  0  0  0999 V2000
    7.7803    5.2640    2.5743 C   0  0  0  0  0  0  0  0  0  0  0  0
    7.3726    5.0401    1.2383 O   0  0  0  0  0  0  0  0  0  0  0  0
    6.6945    3.8847    0.8774 C   0  0  0  0  0  0  0  0  0  0  0  0
    6.2964    3.6793   -0.4478 C   0  0  0  0  0  0  0  0  0  0  0  0
    5.6120    2.5071   -0.7902 C   0  0  0  0  0  0  0  0  0  0  0  0
    5.3324    1.5621    0.1687 C   0  0  0  0  0  0  0  0  0  0  0  0
    5.7388    1.7983    1.4549 C   0  0  0  0  0  0  0  0  0  0  0  0
    6.4167    2.9477    1.8246 C   0  0  0  0  0  0  0  0  0  0  0  0
    4.6299    0.3778   -0.1791 N   0  0  0  0  0  0  0  0  0  0  0  0
    5.1712   -0.7244   -0.6345 N   0  0  0  0  0  0  0  0  0  0  0  0
    4.2719   -1.6621   -0.8830 C   0  0  0  0  0  0  0  0  0  0  0  0
    3.0476   -1.0468   -0.5338 C   0  0  0  0  0  0  0  0  0  0  0  0
    3.2436    0.2262   -0.0919 C   0  0  0  0  0  0  0  0  0  0  0  0
    2.4077    1.2086    0.3941 N   0  0  0  0  0  0  0  0  0  0  0  0
    1.0212    1.3031    0.4485 C   0  0  0  0  0  0  0  0  0  0  0  0
    0.5130    2.3398    1.0642 O   0  0  0  0  0  0  0  0  0  0  0  0
    0.0451    0.4348   -0.0765 N   0  0  0  0  0  0  0  0  0  0  0  0
   -1.3405    0.5835    0.0437 C   0  0  0  0  0  0  0  0  0  0  0  0
   -1.9828    1.3442    0.9620 C   0  0  0  0  0  0  0  0  0  0  0  0
   -3.3768    1.3872    1.0856 C   0  0  0  0  0  0  0  0  0  0  0  0
   -4.1712    0.6362    0.2570 C   0  0  0  0  0  0  0  0  0  0  0  0
   -5.5527    0.7180    0.4326 O   0  0  0  0  0  0  0  0  0  0  0  0
   -6.2737   -0.3616    0.9504 C   0  0  0  0  0  0  0  0  0  0  0  0
   -5.6801   -1.5128    1.4222 C   0  0  0  0  0  0  0  0  0  0  0  0
   -6.4099   -2.5811    1.9324 C   0  0  0  0  0  0  0  0  0  0  0  0
   -7.7423   -2.5062    1.9759 N   0  0  0  0  0  0  0  0  0  0  0  0
   -8.3472   -1.3954    1.5231 C   0  0  0  0  0  0  0  0  0  0  0  0
   -9.6610   -1.0629    1.4538 N   0  0  0  0  0  0  0  0  0  0  0  0
   -9.8130    0.1597    0.9261 C   0  0  0  0  0  0  0  0  0  0  0  0
  -10.8994    0.7499    0.7289 O   0  0  0  0  0  0  0  0  0  0  0  0
   -8.5666    0.6015    0.6607 N   0  0  0  0  0  0  0  0  0  0  0  0
   -8.2590    1.8878    0.0822 C   0  0  0  0  0  0  0  0  0  0  0  0
   -7.6559   -0.3298    1.0156 C   0  0  0  0  0  0  0  0  0  0  0  0
   -3.5420   -0.1355   -0.6792 C   0  0  0  0  0  0  0  0  0  0  0  0
   -4.3312   -0.8560   -1.5493 C   0  0  0  0  0  0  0  0  0  0  0  0
   -3.7397   -1.6171   -2.5328 C   0  0  0  0  0  0  0  0  0  0  0  0
   -2.3845   -1.6781   -2.6733 C   0  0  0  0  0  0  0  0  0  0  0  0
   -1.5680   -0.9444   -1.7928 C   0  0  0  0  0  0  0  0  0  0  0  0
   -2.1526   -0.1865   -0.8126 C   0  0  0  0  0  0  0  0  0  0  0  0
    4.3912   -3.0508   -1.3983 C   0  0  0  0  0  0  0  0  0  0  0  0
    3.6929   -3.1838   -2.7401 C   0  0  0  0  0  0  0  0  0  0  0  0
    5.8511   -3.3925   -1.5929 C   0  0  0  0  0  0  0  0  0  0  0  0
    3.7347   -4.0486   -0.4751 C   0  0  0  0  0  0  0  0  0  0  0  0
    8.2455    6.2760    2.6256 H   0  0  0  0  0  0  0  0  0  0  0  0
    6.8713    5.3111    3.2392 H   0  0  0  0  0  0  0  0  0  0  0  0
    8.4727    4.4938    2.9194 H   0  0  0  0  0  0  0  0  0  0  0  0
    6.5258    4.4378   -1.1822 H   0  0  0  0  0  0  0  0  0  0  0  0
    5.3330    2.4199   -1.8302 H   0  0  0  0  0  0  0  0  0  0  0  0
    5.5194    1.0520    2.2130 H   0  0  0  0  0  0  0  0  0  0  0  0
    6.7389    3.1361    2.8462 H   0  0  0  0  0  0  0  0  0  0  0  0
    2.1145   -1.5841   -0.6125 H   0  0  0  0  0  0  0  0  0  0  0  0
    2.9071    2.0512    0.8798 H   0  0  0  0  0  0  0  0  0  0  0  0
    0.4686   -0.3778   -0.5896 H   0  0  0  0  0  0  0  0  0  0  0  0
   -1.4612    1.9495    1.6755 H   0  0  0  0  0  0  0  0  0  0  0  0
   -3.8485    2.0222    1.8482 H   0  0  0  0  0  0  0  0  0  0  0  0
   -4.5911   -1.6214    1.4189 H   0  0  0  0  0  0  0  0  0  0  0  0
   -5.8606   -3.4549    2.2821 H   0  0  0  0  0  0  0  0  0  0  0  0
  -10.4285   -1.7157    1.7854 H   0  0  0  0  0  0  0  0  0  0  0  0
   -7.4308    2.3315    0.6502 H   0  0  0  0  0  0  0  0  0  0  0  0
   -7.9848    1.7378   -0.9959 H   0  0  0  0  0  0  0  0  0  0  0  0
   -9.1317    2.5689    0.1734 H   0  0  0  0  0  0  0  0  0  0  0  0
   -5.4093   -0.8216   -1.4950 H   0  0  0  0  0  0  0  0  0  0  0  0
   -4.3530   -2.2015   -3.2408 H   0  0  0  0  0  0  0  0  0  0  0  0
   -1.8802   -2.2743   -3.4498 H   0  0  0  0  0  0  0  0  0  0  0  0
   -0.5140   -0.9992   -1.9272 H   0  0  0  0  0  0  0  0  0  0  0  0
    2.5812   -3.2539   -2.6136 H   0  0  0  0  0  0  0  0  0  0  0  0
    3.9995   -4.1613   -3.1612 H   0  0  0  0  0  0  0  0  0  0  0  0
    3.9859   -2.4005   -3.4527 H   0  0  0  0  0  0  0  0  0  0  0  0
    6.2297   -2.7658   -2.4451 H   0  0  0  0  0  0  0  0  0  0  0  0
    5.9569   -4.4521   -1.8519 H   0  0  0  0  0  0  0  0  0  0  0  0
    6.4227   -3.1245   -0.6677 H   0  0  0  0  0  0  0  0  0  0  0  0
    2.8080   -3.6616   -0.0238 H   0  0  0  0  0  0  0  0  0  0  0  0
    3.4658   -4.9875   -0.9936 H   0  0  0  0  0  0  0  0  0  0  0  0
    4.4322   -4.2954    0.3623 H   0  0  0  0  0  0  0  0  0  0  0  0
  1  2  1  0
  2  3  1  0
  3  4  2  0
  4  5  1  0
  5  6  2  0
  6  7  1  0
  7  8  2  0
  6  9  1  0
  9 10  1  0
 10 11  2  0
 11 12  1  0
 12 13  2  0
 13 14  1  0
 14 15  1  0
 15 16  2  0
 15 17  1  0
 17 18  1  0
 18 19  2  0
 19 20  1  0
 20 21  2  0
 21 22  1  0
 22 23  1  0
 23 24  2  0
 24 25  1  0
 25 26  2  0
 26 27  1  0
 27 28  1  0
 28 29  1  0
 29 30  2  0
 29 31  1  0
 31 32  1  0
 31 33  1  0
 21 34  1  0
 34 35  2  0
 35 36  1  0
 36 37  2  0
 37 38  1  0
 38 39  2  0
 11 40  1  0
 40 41  1  0
 40 42  1  0
 40 43  1  0
  8  3  1  0
 13  9  1  0
 39 18  1  0
 33 23  1  0
 39 34  1  0
 33 27  2  0
  1 44  1  0
  1 45  1  0
  1 46  1  0
  4 47  1  0
  5 48  1  0
  7 49  1  0
  8 50  1  0
 12 51  1  0
 14 52  1  0
 17 53  1  0
 19 54  1  0
 20 55  1  0
 24 56  1  0
 25 57  1  0
 28 58  1  0
 32 59  1  0
 32 60  1  0
 32 61  1  0
 35 62  1  0
 36 63  1  0
 37 64  1  0
 38 65  1  0
 41 66  1  0
 41 67  1  0
 41 68  1  0
 42 69  1  0
 42 70  1  0
 42 71  1  0
 43 72  1  0
 43 73  1  0
 43 74  1  0
M  END
$$$$
[H]OC(c1c([H])c([H])c(N([H])S(=O)(=O)c2c([H])c([H])c(C(C([H])([H])[H])(C([H])([H])[H])C([H])([H])[H])c([H])c2[H])c([H])c1[H])(C(F)(F)F)C(F)(F)F
     RDKit          3D

 49 50  0  0  0  0  0  0  0  0999 V2000
   -6.2385    0.8592    1.1406 C   0  0  0  0  0  0  0  0  0  0  0  0
   -5.4700    0.8888   -0.1871 C   0  0  0  0  0  0  0  0  0  0  0  0
   -6.2460    0.1605   -1.2314 C   0  0  0  0  0  0  0  0  0  0  0  0
   -5.2899    2.3052   -0.6028 C   0  0  0  0  0  0  0  0  0  0  0  0
   -4.1576    0.2221   -0.0048 C   0  0  0  0  0  0  0  0  0  0  0  0
   -2.9548    0.8629   -0.1577 C   0  0  0  0  0  0  0  0  0  0  0  0
   -1.7172    0.2465    0.0674 C   0  0  0  0  0  0  0  0  0  0  0  0
   -1.6818   -1.0673    0.4607 C   0  0  0  0  0  0  0  0  0  0  0  0
   -2.9054   -1.7367    0.6190 C   0  0  0  0  0  0  0  0  0  0  0  0
   -4.1020   -1.1191    0.3963 C   0  0  0  0  0  0  0  0  0  0  0  0
   -0.2007   -1.8809    0.8308 S   0  0  0  0  0  0  0  0  0  0  0  0
   -0.4501   -3.3151    1.2502 O   0  0  0  0  0  0  0  0  0  0  0  0
    0.4556   -1.1132    1.9431 O   0  0  0  0  0  0  0  0  0  0  0  0
    0.8452   -1.9184   -0.5375 N   0  0  0  0  0  0  0  0  0  0  0  0
    2.1019   -1.2737   -0.4536 C   0  0  0  0  0  0  0  0  0  0  0  0
    2.2918   -0.0512    0.0920 C   0  0  0  0  0  0  0  0  0  0  0  0
    3.5890    0.4858    0.1818 C   0  0  0  0  0  0  0  0  0  0  0  0
    4.6765   -0.1918   -0.2699 C   0  0  0  0  0  0  0  0  0  0  0  0
    4.4618   -1.4463   -0.8297 C   0  0  0  0  0  0  0  0  0  0  0  0
    3.1962   -1.9954   -0.9289 C   0  0  0  0  0  0  0  0  0  0  0  0
    6.0452    0.2800   -0.1805 C   0  0  0  0  0  0  0  0  0  0  0  0
    6.8872   -0.8477   -0.0456 O   0  0  0  0  0  0  0  0  0  0  0  0
    6.3979    1.1984    0.9346 C   0  0  0  0  0  0  0  0  0  0  0  0
    5.7369    2.4042    0.9454 F   0  0  0  0  0  0  0  0  0  0  0  0
    6.0768    0.5382    2.1533 F   0  0  0  0  0  0  0  0  0  0  0  0
    7.7555    1.4465    0.9544 F   0  0  0  0  0  0  0  0  0  0  0  0
    6.4790    0.9039   -1.5214 C   0  0  0  0  0  0  0  0  0  0  0  0
    6.3689   -0.0928   -2.4926 F   0  0  0  0  0  0  0  0  0  0  0  0
    7.7633    1.3462   -1.3783 F   0  0  0  0  0  0  0  0  0  0  0  0
    5.6206    1.9353   -1.7471 F   0  0  0  0  0  0  0  0  0  0  0  0
   -7.2277    1.2502    0.9426 H   0  0  0  0  0  0  0  0  0  0  0  0
   -5.7078    1.4800    1.8557 H   0  0  0  0  0  0  0  0  0  0  0  0
   -6.2720   -0.1692    1.5151 H   0  0  0  0  0  0  0  0  0  0  0  0
   -5.6085    0.0017   -2.1122 H   0  0  0  0  0  0  0  0  0  0  0  0
   -6.5966   -0.8236   -0.8752 H   0  0  0  0  0  0  0  0  0  0  0  0
   -7.1143    0.7728   -1.6169 H   0  0  0  0  0  0  0  0  0  0  0  0
   -4.8203    2.3341   -1.6027 H   0  0  0  0  0  0  0  0  0  0  0  0
   -6.2608    2.8551   -0.6533 H   0  0  0  0  0  0  0  0  0  0  0  0
   -4.5748    2.8266    0.0957 H   0  0  0  0  0  0  0  0  0  0  0  0
   -2.9195    1.8880   -0.4701 H   0  0  0  0  0  0  0  0  0  0  0  0
   -0.7856    0.7848   -0.0684 H   0  0  0  0  0  0  0  0  0  0  0  0
   -2.8614   -2.7710    0.9304 H   0  0  0  0  0  0  0  0  0  0  0  0
   -5.0552   -1.6397    0.5220 H   0  0  0  0  0  0  0  0  0  0  0  0
    0.5379   -2.4047   -1.4025 H   0  0  0  0  0  0  0  0  0  0  0  0
    1.4749    0.5399    0.4708 H   0  0  0  0  0  0  0  0  0  0  0  0
    3.6158    1.4695    0.6419 H   0  0  0  0  0  0  0  0  0  0  0  0
    5.2826   -2.0404   -1.2068 H   0  0  0  0  0  0  0  0  0  0  0  0
    3.0545   -2.9734   -1.3660 H   0  0  0  0  0  0  0  0  0  0  0  0
    6.5037   -1.4149    0.6573 H   0  0  0  0  0  0  0  0  0  0  0  0
  1  2  1  0
  2  3  1  0
  2  4  1  0
  2  5  1  0
  5  6  2  0
  6  7  1  0
  7  8  2  0
  8  9  1  0
  9 10  2  0
  8 11  1  0
 11 12  2  0
 11 13  2  0
 11 14  1  0
 14 15  1  0
 15 16  2  0
 16 17  1  0
 17 18  2  0
 18 19  1  0
 19 20  2  0
 18 21  1  0
 21 22  1  0
 21 23  1  0
 23 24  1  0
 23 25  1  0
 23 26  1  0
 21 27  1  0
 27 28  1  0
 27 29  1  0
 27 30  1  0
 10  5  1  0
 20 15  1  0
  1 31  1  0
  1 32  1  0
  1 33  1  0
  3 34  1  0
  3 35  1  0
  3 36  1  0
  4 37  1  0
  4 38  1  0
  4 39  1  0
  6 40  1  0
  7 41  1  0
  9 42  1  0
 10 43  1  0
 14 44  1  0
 16 45  1  0
 17 46  1  0
 19 47  1  0
 20 48  1  0
 22 49  1  0
M  END
$$$$
[H]OC(=O)[C@]([H])(Oc1c([H])c([H])c(-c2c([H])c([H])c(-c3c(C([H])([H])c4c([H])c([H])c([H])c([H])c4[H])sc4c([H])c([H])c([H])c([H])c34)c([H])c2[H])c([H])c1Br)C([H])([H])c1c([H])c([H])c([H])c([H])c1[H]
     RDKit          3D

 68 73  0  0  0  0  0  0  0  0999 V2000
    7.5826    2.4956   -1.6693 O   0  0  0  0  0  0  0  0  0  0  0  0
    6.4698    2.5903   -0.8735 C   0  0  0  0  0  0  0  0  0  0  0  0
    5.8377    3.6895   -0.9276 O   0  0  0  0  0  0  0  0  0  0  0  0
    5.9492    1.5381    0.0256 C   0  0  1  0  0  0  0  0  0  0  0  0
    6.9235    1.0541    1.0466 C   0  0  0  0  0  0  0  0  0  0  0  0
    8.1570    0.4549    0.5170 C   0  0  0  0  0  0  0  0  0  0  0  0
    8.2228   -0.8966    0.1604 C   0  0  0  0  0  0  0  0  0  0  0  0
    9.4028   -1.4270   -0.3017 C   0  0  0  0  0  0  0  0  0  0  0  0
   10.5409   -0.6768   -0.4314 C   0  0  0  0  0  0  0  0  0  0  0  0
   10.5049    0.6573   -0.0873 C   0  0  0  0  0  0  0  0  0  0  0  0
    9.3202    1.1840    0.3750 C   0  0  0  0  0  0  0  0  0  0  0  0
    4.7274    1.9373    0.6215 O   0  0  0  0  0  0  0  0  0  0  0  0
    3.4973    1.4077    0.4662 C   0  0  0  0  0  0  0  0  0  0  0  0
    3.1820    0.3351   -0.3280 C   0  0  0  0  0  0  0  0  0  0  0  0
    1.8894   -0.1561   -0.4389 C   0  0  0  0  0  0  0  0  0  0  0  0
    0.8670    0.4334    0.2608 C   0  0  0  0  0  0  0  0  0  0  0  0
    1.1555    1.5100    1.0642 C   0  0  0  0  0  0  0  0  0  0  0  0
    2.4427    1.9896    1.1670 C   0  0  0  0  0  0  0  0  0  0  0  0
    2.7243    3.4903    2.3145 Br  0  0  0  0  0  0  0  0  0  0  0  0
   -0.5189   -0.0729    0.1575 C   0  0  0  0  0  0  0  0  0  0  0  0
   -1.3213    0.0634    1.2642 C   0  0  0  0  0  0  0  0  0  0  0  0
   -2.6215   -0.4093    1.1733 C   0  0  0  0  0  0  0  0  0  0  0  0
   -3.0481   -0.9869   -0.0043 C   0  0  0  0  0  0  0  0  0  0  0  0
   -2.2648   -1.1288   -1.1084 C   0  0  0  0  0  0  0  0  0  0  0  0
   -0.9560   -0.6568   -1.0273 C   0  0  0  0  0  0  0  0  0  0  0  0
   -4.4745   -1.4589    0.0145 C   0  0  0  0  0  0  0  0  0  0  0  0
   -5.4802   -0.5702   -0.2153 C   0  0  0  0  0  0  0  0  0  0  0  0
   -5.3230    0.9034   -0.5000 C   0  0  0  0  0  0  0  0  0  0  0  0
   -6.6394    1.4983   -0.7100 C   0  0  0  0  0  0  0  0  0  0  0  0
   -7.1696    1.5440   -1.9785 C   0  0  0  0  0  0  0  0  0  0  0  0
   -8.4285    2.1231   -2.1160 C   0  0  0  0  0  0  0  0  0  0  0  0
   -9.1319    2.6354   -1.0405 C   0  0  0  0  0  0  0  0  0  0  0  0
   -8.5870    2.5821    0.2250 C   0  0  0  0  0  0  0  0  0  0  0  0
   -7.3369    2.0073    0.3630 C   0  0  0  0  0  0  0  0  0  0  0  0
   -6.8829   -1.5206   -0.0993 S   0  0  0  0  0  0  0  0  0  0  0  0
   -6.1679   -3.0323    0.2393 C   0  0  0  0  0  0  0  0  0  0  0  0
   -6.6672   -4.3285    0.4717 C   0  0  0  0  0  0  0  0  0  0  0  0
   -5.8316   -5.3921    0.7276 C   0  0  0  0  0  0  0  0  0  0  0  0
   -4.4932   -5.1016    0.7399 C   0  0  0  0  0  0  0  0  0  0  0  0
   -3.9823   -3.8529    0.5176 C   0  0  0  0  0  0  0  0  0  0  0  0
   -4.8297   -2.7491    0.2530 C   0  0  0  0  0  0  0  0  0  0  0  0
    7.5858    2.9162   -2.5802 H   0  0  0  0  0  0  0  0  0  0  0  0
    5.7134    0.6706   -0.6360 H   0  0  0  0  0  0  0  0  0  0  0  0
    7.2555    1.9733    1.6221 H   0  0  0  0  0  0  0  0  0  0  0  0
    6.4462    0.4224    1.8305 H   0  0  0  0  0  0  0  0  0  0  0  0
    7.3126   -1.4581    0.2737 H   0  0  0  0  0  0  0  0  0  0  0  0
    9.4393   -2.4880   -0.5776 H   0  0  0  0  0  0  0  0  0  0  0  0
   11.4529   -1.1629   -0.8075 H   0  0  0  0  0  0  0  0  0  0  0  0
   11.4140    1.2301   -0.1976 H   0  0  0  0  0  0  0  0  0  0  0  0
    9.3337    2.2479    0.6378 H   0  0  0  0  0  0  0  0  0  0  0  0
    3.9340   -0.1779   -0.9068 H   0  0  0  0  0  0  0  0  0  0  0  0
    1.6440   -1.0045   -1.0675 H   0  0  0  0  0  0  0  0  0  0  0  0
    0.3212    1.9574    1.6079 H   0  0  0  0  0  0  0  0  0  0  0  0
   -0.9991    0.5128    2.1896 H   0  0  0  0  0  0  0  0  0  0  0  0
   -3.2642   -0.3099    2.0332 H   0  0  0  0  0  0  0  0  0  0  0  0
   -2.6512   -1.5896   -2.0055 H   0  0  0  0  0  0  0  0  0  0  0  0
   -0.3151   -0.7545   -1.8812 H   0  0  0  0  0  0  0  0  0  0  0  0
   -4.8136    1.3215    0.3995 H   0  0  0  0  0  0  0  0  0  0  0  0
   -4.6906    1.0422   -1.3876 H   0  0  0  0  0  0  0  0  0  0  0  0
   -6.6557    1.1560   -2.8482 H   0  0  0  0  0  0  0  0  0  0  0  0
   -8.8411    2.1549   -3.1251 H   0  0  0  0  0  0  0  0  0  0  0  0
  -10.1094    3.0775   -1.1933 H   0  0  0  0  0  0  0  0  0  0  0  0
   -9.1721    2.9939    1.0331 H   0  0  0  0  0  0  0  0  0  0  0  0
   -6.9330    1.9792    1.3716 H   0  0  0  0  0  0  0  0  0  0  0  0
   -7.7406   -4.4192    0.4336 H   0  0  0  0  0  0  0  0  0  0  0  0
   -6.2099   -6.3680    0.9026 H   0  0  0  0  0  0  0  0  0  0  0  0
   -3.8013   -5.9083    0.9371 H   0  0  0  0  0  0  0  0  0  0  0  0
   -2.8964   -3.7218    0.5485 H   0  0  0  0  0  0  0  0  0  0  0  0
  1  2  1  0
  2  3  2  0
  2  4  1  0
  4  5  1  0
  5  6  1  0
  6  7  2  0
  7  8  1  0
  8  9  2  0
  9 10  1  0
 10 11  2  0
  4 12  1  0
 12 13  1  0
 13 14  2  0
 14 15  1  0
 15 16  2  0
 16 17  1  0
 17 18  2  0
 18 19  1  0
 16 20  1  0
 20 21  2  0
 21 22  1  0
 22 23  2  0
 23 24  1  0
 24 25  2  0
 23 26  1  0
 26 27  2  0
 27 28  1  0
 28 29  1  0
 29 30  2  0
 30 31  1  0
 31 32  2  0
 32 33  1  0
 33 34  2  0
 27 35  1  0
 35 36  1  0
 36 37  2  0
 37 38  1  0
 38 39  2  0
 39 40  1  0
 40 41  2  0
 11  6  1  0
 18 13  1  0
 25 20  1  0
 41 26  1  0
 34 29  1  0
 41 36  1  0
  1 42  1  0
  4 43  1  6
  5 44  1  0
  5 45  1  0
  7 46  1  0
  8 47  1  0
  9 48  1  0
 10 49  1  0
 11 50  1  0
 14 51  1  0
 15 52  1  0
 17 53  1  0
 21 54  1  0
 22 55  1  0
 24 56  1  0
 25 57  1  0
 28 58  1  0
 28 59  1  0
 30 60  1  0
 31 61  1  0
 32 62  1  0
 33 63  1  0
 34 64  1  0
 37 65  1  0
 38 66  1  0
 39 67  1  0
 40 68  1  0
M  END
$$$$
[H]c1c([H])c([H])c(C(=O)N2C([H])([H])C3([H])C([H])([H])N([H])C([H])([H])C([H])(C2([H])[H])C3([H])[H])c([H])c1[H]
     RDKit          3D

 35 37  0  0  0  0  0  0  0  0999 V2000
    1.2108   -0.8276    2.2210 O   0  0  0  0  0  0  0  0  0  0  0  0
    1.1849   -0.4484    0.9620 C   0  0  0  0  0  0  0  0  0  0  0  0
   -0.1044   -0.3457    0.3878 N   0  0  0  0  0  0  0  0  0  0  0  0
   -1.2779   -0.7409    1.2101 C   0  0  0  0  0  0  0  0  0  0  0  0
   -2.4074    0.2388    1.1564 C   0  0  0  0  0  0  0  0  0  0  0  0
   -3.6893   -0.3967    0.6461 C   0  0  0  0  0  0  0  0  0  0  0  0
   -3.9159   -0.0948   -0.7535 N   0  0  0  0  0  0  0  0  0  0  0  0
   -2.6583   -0.2507   -1.4488 C   0  0  0  0  0  0  0  0  0  0  0  0
   -1.7103    0.8334   -1.0722 C   0  0  0  0  0  0  0  0  0  0  0  0
   -1.9875    1.4050    0.3115 C   0  0  0  0  0  0  0  0  0  0  0  0
   -0.3115    0.1774   -0.9302 C   0  0  0  0  0  0  0  0  0  0  0  0
    2.4571   -0.1938    0.3616 C   0  0  0  0  0  0  0  0  0  0  0  0
    3.5369   -0.0572    1.2712 C   0  0  0  0  0  0  0  0  0  0  0  0
    4.8136    0.1322    0.8590 C   0  0  0  0  0  0  0  0  0  0  0  0
    5.0701    0.1938   -0.4782 C   0  0  0  0  0  0  0  0  0  0  0  0
    4.0644    0.0670   -1.3960 C   0  0  0  0  0  0  0  0  0  0  0  0
    2.7618   -0.1272   -0.9702 C   0  0  0  0  0  0  0  0  0  0  0  0
   -0.9068   -0.7146    2.2777 H   0  0  0  0  0  0  0  0  0  0  0  0
   -1.5559   -1.7853    0.9512 H   0  0  0  0  0  0  0  0  0  0  0  0
   -2.6763    0.6643    2.1612 H   0  0  0  0  0  0  0  0  0  0  0  0
   -4.5858   -0.0437    1.1965 H   0  0  0  0  0  0  0  0  0  0  0  0
   -3.6407   -1.5119    0.7180 H   0  0  0  0  0  0  0  0  0  0  0  0
   -4.5881   -0.7593   -1.1616 H   0  0  0  0  0  0  0  0  0  0  0  0
   -2.3021   -1.2824   -1.2540 H   0  0  0  0  0  0  0  0  0  0  0  0
   -2.9067   -0.2494   -2.5441 H   0  0  0  0  0  0  0  0  0  0  0  0
   -1.7055    1.6598   -1.7817 H   0  0  0  0  0  0  0  0  0  0  0  0
   -1.0256    1.7812    0.7017 H   0  0  0  0  0  0  0  0  0  0  0  0
   -2.7276    2.2234    0.2774 H   0  0  0  0  0  0  0  0  0  0  0  0
    0.3591    1.0397   -1.1455 H   0  0  0  0  0  0  0  0  0  0  0  0
   -0.2206   -0.6387   -1.6662 H   0  0  0  0  0  0  0  0  0  0  0  0
    3.3641   -0.0976    2.3447 H   0  0  0  0  0  0  0  0  0  0  0  0
    5.6126    0.2325    1.5698 H   0  0  0  0  0  0  0  0  0  0  0  0
    6.1051    0.3478   -0.7951 H   0  0  0  0  0  0  0  0  0  0  0  0
    4.3234    0.1238   -2.4511 H   0  0  0  0  0  0  0  0  0  0  0  0
    2.0406   -0.2556   -1.7366 H   0  0  0  0  0  0  0  0  0  0  0  0
  1  2  2  0
  2  3  1  0
  3  4  1  0
  4  5  1  0
  5  6  1  0
  6  7  1  0
  7  8  1  0
  8  9  1  0
  9 10  1  0
  9 11  1  0
  2 12  1  0
 12 13  2  0
 13 14  1  0
 14 15  2  0
 15 16  1  0
 16 17  2  0
 11  3  1  0
 17 12  1  0
 10  5  1  0
  4 18  1  0
  4 19  1  0
  5 20  1  0
  6 21  1  0
  6 22  1  0
  7 23  1  0
  8 24  1  0
  8 25  1  0
  9 26  1  0
 10 27  1  0
 10 28  1  0
 11 29  1  0
 11 30  1  0
 13 31  1  0
 14 32  1  0
 15 33  1  0
 16 34  1  0
 17 35  1  0
M  END
$$$$
[H]c1nc2c(nc(N([H])c3c([H])c([H])c(S(=O)(=O)N([H])[H])c([H])c3[H])n2C([H])([H])C([H])([H])[H])c(C#N)c1[H]
     RDKit          3D

 38 40  0  0  0  0  0  0  0  0999 V2000
   -2.2320   -3.5278    0.8755 C   0  0  0  0  0  0  0  0  0  0  0  0
   -2.3801   -2.1750    1.5426 C   0  0  0  0  0  0  0  0  0  0  0  0
   -2.2173   -1.0928    0.5932 N   0  0  0  0  0  0  0  0  0  0  0  0
   -1.0758   -0.4428    0.2362 C   0  0  0  0  0  0  0  0  0  0  0  0
    0.1953   -0.7593    0.7959 N   0  0  0  0  0  0  0  0  0  0  0  0
    1.4308   -0.1668    0.4884 C   0  0  0  0  0  0  0  0  0  0  0  0
    2.5214   -0.4870    1.3118 C   0  0  0  0  0  0  0  0  0  0  0  0
    3.7726    0.0351    1.0830 C   0  0  0  0  0  0  0  0  0  0  0  0
    4.0047    0.9002    0.0270 C   0  0  0  0  0  0  0  0  0  0  0  0
    2.9552    1.2300   -0.7941 C   0  0  0  0  0  0  0  0  0  0  0  0
    1.6846    0.6888   -0.5475 C   0  0  0  0  0  0  0  0  0  0  0  0
    5.6101    1.5384   -0.2245 S   0  0  0  0  0  0  0  0  0  0  0  0
    5.8043    3.0160    0.6455 N   0  0  0  0  0  0  0  0  0  0  0  0
    6.6082    0.5574    0.3691 O   0  0  0  0  0  0  0  0  0  0  0  0
    5.9443    1.7020   -1.6682 O   0  0  0  0  0  0  0  0  0  0  0  0
   -1.4049    0.4880   -0.6764 N   0  0  0  0  0  0  0  0  0  0  0  0
   -2.7000    0.4493   -0.9058 C   0  0  0  0  0  0  0  0  0  0  0  0
   -3.4985    1.2100   -1.7598 C   0  0  0  0  0  0  0  0  0  0  0  0
   -4.8416    0.9129   -1.7644 C   0  0  0  0  0  0  0  0  0  0  0  0
   -5.3542   -0.0866   -0.9616 C   0  0  0  0  0  0  0  0  0  0  0  0
   -4.5574   -0.8000   -0.1509 N   0  0  0  0  0  0  0  0  0  0  0  0
   -3.2168   -0.5400   -0.1130 C   0  0  0  0  0  0  0  0  0  0  0  0
   -2.9517    2.2450   -2.5880 C   0  0  0  0  0  0  0  0  0  0  0  0
   -2.5235    3.0934   -3.2697 N   0  0  0  0  0  0  0  0  0  0  0  0
   -2.8548   -4.2483    1.4489 H   0  0  0  0  0  0  0  0  0  0  0  0
   -2.5078   -3.4874   -0.1995 H   0  0  0  0  0  0  0  0  0  0  0  0
   -1.1757   -3.8806    0.9789 H   0  0  0  0  0  0  0  0  0  0  0  0
   -1.6228   -2.1409    2.3588 H   0  0  0  0  0  0  0  0  0  0  0  0
   -3.3691   -2.1162    1.9936 H   0  0  0  0  0  0  0  0  0  0  0  0
    0.1852   -1.5366    1.5238 H   0  0  0  0  0  0  0  0  0  0  0  0
    2.3631   -1.1555    2.1370 H   0  0  0  0  0  0  0  0  0  0  0  0
    4.6247   -0.2097    1.7191 H   0  0  0  0  0  0  0  0  0  0  0  0
    3.1055    1.9086   -1.6341 H   0  0  0  0  0  0  0  0  0  0  0  0
    0.8931    0.9683   -1.2200 H   0  0  0  0  0  0  0  0  0  0  0  0
    5.3274    3.8275    0.1513 H   0  0  0  0  0  0  0  0  0  0  0  0
    5.4299    2.9174    1.5951 H   0  0  0  0  0  0  0  0  0  0  0  0
   -5.5381    1.4568   -2.4007 H   0  0  0  0  0  0  0  0  0  0  0  0
   -6.4386   -0.2919   -0.9966 H   0  0  0  0  0  0  0  0  0  0  0  0
  1  2  1  0
  2  3  1  0
  3  4  1  0
  4  5  1  0
  5  6  1  0
  6  7  2  0
  7  8  1  0
  8  9  2  0
  9 10  1  0
 10 11  2  0
  9 12  1  0
 12 13  1  0
 12 14  2  0
 12 15  2  0
  4 16  2  0
 16 17  1  0
 17 18  2  0
 18 19  1  0
 19 20  2  0
 20 21  1  0
 21 22  2  0
 18 23  1  0
 23 24  3  0
 22  3  1  0
 11  6  1  0
 22 17  1  0
  1 25  1  0
  1 26  1  0
  1 27  1  0
  2 28  1  0
  2 29  1  0
  5 30  1  0
  7 31  1  0
  8 32  1  0
 10 33  1  0
 11 34  1  0
 13 35  1  0
 13 36  1  0
 19 37  1  0
 20 38  1  0
M  END
$$$$
[H]c1nc(N2C([H])([H])C([H])([H])N(c3nc([H])c(C(F)(F)F)c([H])c3[H])C([H])([H])[C@@]2([H])C([H])([H])[H])c([H])c(C(F)(F)F)c1[H]
     RDKit          3D

 43 45  0  0  0  0  0  0  0  0999 V2000
    1.0836   -0.8404   -1.5273 C   0  0  0  0  0  0  0  0  0  0  0  0
    0.8616   -0.6717   -0.0049 C   0  0  2  0  0  0  0  0  0  0  0  0
   -0.5373   -0.9520    0.4029 C   0  0  0  0  0  0  0  0  0  0  0  0
   -1.3880    0.2030    0.4003 N   0  0  0  0  0  0  0  0  0  0  0  0
   -0.9253    1.5108    0.6728 C   0  0  0  0  0  0  0  0  0  0  0  0
    0.5524    1.6642    0.9029 C   0  0  0  0  0  0  0  0  0  0  0  0
    1.3640    0.6336    0.3942 N   0  0  0  0  0  0  0  0  0  0  0  0
    2.7702    0.8235    0.1968 C   0  0  0  0  0  0  0  0  0  0  0  0
    3.6647   -0.2168    0.4591 C   0  0  0  0  0  0  0  0  0  0  0  0
    5.0136   -0.1234    0.2015 C   0  0  0  0  0  0  0  0  0  0  0  0
    5.4879    1.0433   -0.3305 C   0  0  0  0  0  0  0  0  0  0  0  0
    4.6207    2.0729   -0.5952 C   0  0  0  0  0  0  0  0  0  0  0  0
    3.2882    1.9357   -0.3216 N   0  0  0  0  0  0  0  0  0  0  0  0
    5.9075   -1.2652    0.4803 C   0  0  0  0  0  0  0  0  0  0  0  0
    5.6311   -1.7310    1.7841 F   0  0  0  0  0  0  0  0  0  0  0  0
    5.5454   -2.3102   -0.3665 F   0  0  0  0  0  0  0  0  0  0  0  0
    7.2306   -0.9806    0.3369 F   0  0  0  0  0  0  0  0  0  0  0  0
   -2.7702   -0.0557    0.0837 C   0  0  0  0  0  0  0  0  0  0  0  0
   -3.7959    0.7798    0.4237 C   0  0  0  0  0  0  0  0  0  0  0  0
   -5.1145    0.5095    0.0869 C   0  0  0  0  0  0  0  0  0  0  0  0
   -5.4447   -0.6151   -0.6019 C   0  0  0  0  0  0  0  0  0  0  0  0
   -4.3856   -1.4489   -0.9323 C   0  0  0  0  0  0  0  0  0  0  0  0
   -3.1223   -1.1681   -0.5993 N   0  0  0  0  0  0  0  0  0  0  0  0
   -6.8309   -0.9458   -0.9998 C   0  0  0  0  0  0  0  0  0  0  0  0
   -7.6029   -1.4302    0.0387 F   0  0  0  0  0  0  0  0  0  0  0  0
   -6.8685   -1.8234   -2.0733 F   0  0  0  0  0  0  0  0  0  0  0  0
   -7.4766    0.2203   -1.4773 F   0  0  0  0  0  0  0  0  0  0  0  0
    0.3000   -0.2951   -2.0768 H   0  0  0  0  0  0  0  0  0  0  0  0
    2.0645   -0.3208   -1.7495 H   0  0  0  0  0  0  0  0  0  0  0  0
    1.1492   -1.8786   -1.7744 H   0  0  0  0  0  0  0  0  0  0  0  0
    1.4925   -1.4363    0.4561 H   0  0  0  0  0  0  0  0  0  0  0  0
   -0.9264   -1.7483   -0.3002 H   0  0  0  0  0  0  0  0  0  0  0  0
   -0.6020   -1.3887    1.4035 H   0  0  0  0  0  0  0  0  0  0  0  0
   -1.2200    2.2587   -0.1323 H   0  0  0  0  0  0  0  0  0  0  0  0
   -1.4291    1.9621    1.5859 H   0  0  0  0  0  0  0  0  0  0  0  0
    0.7777    1.7966    2.0025 H   0  0  0  0  0  0  0  0  0  0  0  0
    0.9055    2.6422    0.4347 H   0  0  0  0  0  0  0  0  0  0  0  0
    3.2680   -1.1194    0.8813 H   0  0  0  0  0  0  0  0  0  0  0  0
    6.5560    1.2017   -0.5762 H   0  0  0  0  0  0  0  0  0  0  0  0
    4.9879    2.9890   -1.0248 H   0  0  0  0  0  0  0  0  0  0  0  0
   -3.5555    1.6951    0.9666 H   0  0  0  0  0  0  0  0  0  0  0  0
   -5.8805    1.1854    0.3889 H   0  0  0  0  0  0  0  0  0  0  0  0
   -4.6464   -2.3617   -1.4927 H   0  0  0  0  0  0  0  0  0  0  0  0
  1  2  1  0
  2  3  1  0
  3  4  1  0
  4  5  1  0
  5  6  1  0
  6  7  1  0
  7  8  1  0
  8  9  2  0
  9 10  1  0
 10 11  2  0
 11 12  1  0
 12 13  2  0
 10 14  1  0
 14 15  1  0
 14 16  1  0
 14 17  1  0
  4 18  1  0
 18 19  2  0
 19 20  1  0
 20 21  2  0
 21 22  1  0
 22 23  2  0
 21 24  1  0
 24 25  1  0
 24 26  1  0
 24 27  1  0
  7  2  1  0
 13  8  1  0
 23 18  1  0
  1 28  1  0
  1 29  1  0
  1 30  1  0
  2 31  1  1
  3 32  1  0
  3 33  1  0
  5 34  1  0
  5 35  1  0
  6 36  1  0
  6 37  1  0
  9 38  1  0
 11 39  1  0
 12 40  1  0
 19 41  1  0
 20 42  1  0
 22 43  1  0
M  END
$$$$
[H]OC(=O)c1nc(C(=O)O[H])c2c([H])c(O[H])c(O[H])c([H])c2c1[H]
     RDKit          3D

 25 26  0  0  0  0  0  0  0  0999 V2000
    4.1963   -1.3165    0.2032 O   0  0  0  0  0  0  0  0  0  0  0  0
    3.6743   -0.0606    0.2181 C   0  0  0  0  0  0  0  0  0  0  0  0
    4.4115    0.9532    0.2963 O   0  0  0  0  0  0  0  0  0  0  0  0
    2.2305    0.1398    0.1427 C   0  0  0  0  0  0  0  0  0  0  0  0
    1.4292   -0.9862    0.0569 C   0  0  0  0  0  0  0  0  0  0  0  0
    0.0827   -0.8131   -0.0139 C   0  0  0  0  0  0  0  0  0  0  0  0
   -0.7525   -1.8876   -0.0998 C   0  0  0  0  0  0  0  0  0  0  0  0
   -2.1347   -1.7680   -0.1745 C   0  0  0  0  0  0  0  0  0  0  0  0
   -2.9221   -2.8753   -0.2588 O   0  0  0  0  0  0  0  0  0  0  0  0
   -2.6345   -0.5005   -0.1579 C   0  0  0  0  0  0  0  0  0  0  0  0
   -4.0178   -0.2849   -0.2292 O   0  0  0  0  0  0  0  0  0  0  0  0
   -1.8334    0.6222   -0.0722 C   0  0  0  0  0  0  0  0  0  0  0  0
   -0.4695    0.4846    0.0008 C   0  0  0  0  0  0  0  0  0  0  0  0
    0.3383    1.5948    0.0865 C   0  0  0  0  0  0  0  0  0  0  0  0
    1.6925    1.3632    0.1556 N   0  0  0  0  0  0  0  0  0  0  0  0
   -0.1536    2.9464    0.1064 C   0  0  0  0  0  0  0  0  0  0  0  0
    0.8464    3.9556    0.1996 O   0  0  0  0  0  0  0  0  0  0  0  0
   -1.2927    3.4034    0.0576 O   0  0  0  0  0  0  0  0  0  0  0  0
    5.0412   -1.5342    0.7149 H   0  0  0  0  0  0  0  0  0  0  0  0
    1.8772   -1.9802    0.0471 H   0  0  0  0  0  0  0  0  0  0  0  0
   -0.3053   -2.8891   -0.1099 H   0  0  0  0  0  0  0  0  0  0  0  0
   -3.9173   -2.9249   -0.3174 H   0  0  0  0  0  0  0  0  0  0  0  0
   -4.6347   -1.0700   -0.2923 H   0  0  0  0  0  0  0  0  0  0  0  0
   -2.3311    1.5621   -0.0672 H   0  0  0  0  0  0  0  0  0  0  0  0
    1.5793    3.8657   -0.4926 H   0  0  0  0  0  0  0  0  0  0  0  0
  1  2  1  0
  2  3  2  0
  2  4  1  0
  4  5  2  0
  5  6  1  0
  6  7  2  0
  7  8  1  0
  8  9  1  0
  8 10  2  0
 10 11  1  0
 10 12  1  0
 12 13  2  0
 13 14  1  0
 14 15  2  0
 14 16  1  0
 16 17  1  0
 16 18  2  0
 15  4  1  0
 13  6  1  0
  1 19  1  0
  5 20  1  0
  7 21  1  0
  9 22  1  0
 11 23  1  0
 12 24  1  0
 17 25  1  0
M  END
$$$$
[H]Oc1c([H])c(C([H])([H])[H])c2c(oc(=O)c3c(O[H])c([H])c(OS(=O)(=O)O[H])c([H])c32)c1[H]
     RDKit          3D

 33 35  0  0  0  0  0  0  0  0999 V2000
   -0.7993    0.7034   -2.2809 C   0  0  0  0  0  0  0  0  0  0  0  0
   -1.7235    0.5040   -1.1931 C   0  0  0  0  0  0  0  0  0  0  0  0
   -3.0832    0.8660   -1.3807 C   0  0  0  0  0  0  0  0  0  0  0  0
   -4.0575    0.7122   -0.4422 C   0  0  0  0  0  0  0  0  0  0  0  0
   -5.3745    1.1086   -0.7425 O   0  0  0  0  0  0  0  0  0  0  0  0
   -3.7143    0.1759    0.7605 C   0  0  0  0  0  0  0  0  0  0  0  0
   -2.4117   -0.1968    1.0090 C   0  0  0  0  0  0  0  0  0  0  0  0
   -2.0923   -0.7097    2.1622 O   0  0  0  0  0  0  0  0  0  0  0  0
   -0.9062   -1.0890    2.4919 C   0  0  0  0  0  0  0  0  0  0  0  0
   -0.6296   -1.5836    3.6196 O   0  0  0  0  0  0  0  0  0  0  0  0
    0.1250   -0.9594    1.5902 C   0  0  0  0  0  0  0  0  0  0  0  0
    1.3969   -1.3512    1.9220 C   0  0  0  0  0  0  0  0  0  0  0  0
    1.6124   -1.8913    3.1992 O   0  0  0  0  0  0  0  0  0  0  0  0
    2.4164   -1.2102    1.0153 C   0  0  0  0  0  0  0  0  0  0  0  0
    2.1929   -0.6816   -0.2270 C   0  0  0  0  0  0  0  0  0  0  0  0
    3.2684   -0.5660   -1.0968 O   0  0  0  0  0  0  0  0  0  0  0  0
    4.2637    0.7870   -1.1940 S   0  0  0  0  0  0  0  0  0  0  0  0
    5.3473    0.7157    0.0988 O   0  0  0  0  0  0  0  0  0  0  0  0
    5.0222    0.7546   -2.4990 O   0  0  0  0  0  0  0  0  0  0  0  0
    3.4851    2.0501   -1.0566 O   0  0  0  0  0  0  0  0  0  0  0  0
    0.8930   -0.2778   -0.5756 C   0  0  0  0  0  0  0  0  0  0  0  0
   -0.1116   -0.4219    0.3280 C   0  0  0  0  0  0  0  0  0  0  0  0
   -1.4201   -0.0293    0.0271 C   0  0  0  0  0  0  0  0  0  0  0  0
   -0.1412    1.5967   -2.2684 H   0  0  0  0  0  0  0  0  0  0  0  0
   -0.4712   -0.1864   -2.8706 H   0  0  0  0  0  0  0  0  0  0  0  0
   -1.4665    1.1047   -3.1472 H   0  0  0  0  0  0  0  0  0  0  0  0
   -3.3275    1.2946   -2.3539 H   0  0  0  0  0  0  0  0  0  0  0  0
   -5.6110    2.0658   -0.5162 H   0  0  0  0  0  0  0  0  0  0  0  0
   -4.4564    0.0341    1.5383 H   0  0  0  0  0  0  0  0  0  0  0  0
    2.5583   -2.1718    3.4183 H   0  0  0  0  0  0  0  0  0  0  0  0
    3.4153   -1.5233    1.2884 H   0  0  0  0  0  0  0  0  0  0  0  0
    4.9587    0.2694    0.8830 H   0  0  0  0  0  0  0  0  0  0  0  0
    0.8419    0.1064   -1.5071 H   0  0  0  0  0  0  0  0  0  0  0  0
  1  2  1  0
  2  3  2  0
  3  4  1  0
  4  5  1  0
  4  6  2  0
  6  7  1  0
  7  8  1  0
  8  9  1  0
  9 10  2  0
  9 11  1  0
 11 12  2  0
 12 13  1  0
 12 14  1  0
 14 15  2  0
 15 16  1  0
 16 17  1  0
 17 18  1  0
 17 19  2  0
 17 20  2  0
 15 21  1  0
 21 22  2  0
 22 23  1  0
 23  2  1  0
 23  7  2  0
 22 11  1  0
  1 24  1  0
  1 25  1  0
  1 26  1  0
  3 27  1  0
  5 28  1  0
  6 29  1  0
 13 30  1  0
 14 31  1  0
 18 32  1  0
 21 33  1  0
M  END
$$$$
[H]c1nc(N([H])c2c([H])c([H])c(N3C([H])([H])C([H])([H])C([H])(N4C([H])([H])C([H])([H])N(C([H])([H])[H])C([H])([H])C4([H])[H])C([H])([H])C3([H])[H])c([H])c2OC([H])([H])[H])nc(N([H])c2c([H])c([H])c([H])c([H])c2P(=O)(C([H])([H])[H])C([H])([H])[H])c1Cl
     RDKit          3D

 79 83  0  0  0  0  0  0  0  0999 V2000
   -0.1926   -3.7672    0.2585 C   0  0  0  0  0  0  0  0  0  0  0  0
   -0.8812   -2.5437    0.1420 O   0  0  0  0  0  0  0  0  0  0  0  0
   -0.1672   -1.3753    0.0254 C   0  0  0  0  0  0  0  0  0  0  0  0
    1.1874   -1.3747    0.0198 C   0  0  0  0  0  0  0  0  0  0  0  0
    1.9627   -0.2445   -0.0931 C   0  0  0  0  0  0  0  0  0  0  0  0
    1.2824    0.9410   -0.2051 C   0  0  0  0  0  0  0  0  0  0  0  0
   -0.1235    0.9642   -0.2018 C   0  0  0  0  0  0  0  0  0  0  0  0
   -0.8775   -0.1695   -0.0889 C   0  0  0  0  0  0  0  0  0  0  0  0
   -2.2827   -0.2526   -0.0804 N   0  0  0  0  0  0  0  0  0  0  0  0
   -3.1667    0.8381   -0.1778 C   0  0  0  0  0  0  0  0  0  0  0  0
   -2.8594    2.1291   -0.2910 N   0  0  0  0  0  0  0  0  0  0  0  0
   -3.7241    3.1296   -0.3837 C   0  0  0  0  0  0  0  0  0  0  0  0
   -5.0607    2.8239   -0.3625 C   0  0  0  0  0  0  0  0  0  0  0  0
   -6.1899    4.1513   -0.4860 Cl  0  0  0  0  0  0  0  0  0  0  0  0
   -5.4849    1.4834   -0.2455 C   0  0  0  0  0  0  0  0  0  0  0  0
   -6.8623    1.2434   -0.2351 N   0  0  0  0  0  0  0  0  0  0  0  0
   -7.5873    0.0411   -0.1308 C   0  0  0  0  0  0  0  0  0  0  0  0
   -6.9888   -1.1894    0.0203 C   0  0  0  0  0  0  0  0  0  0  0  0
   -7.6997   -2.3943    0.1311 C   0  0  0  0  0  0  0  0  0  0  0  0
   -9.0684   -2.3135    0.0831 C   0  0  0  0  0  0  0  0  0  0  0  0
   -9.7042   -1.1073   -0.0666 C   0  0  0  0  0  0  0  0  0  0  0  0
   -8.9675    0.0528   -0.1718 C   0  0  0  0  0  0  0  0  0  0  0  0
   -9.8428    1.5809   -0.3679 P   0  0  0  0  0  0  0  0  0  0  0  0
  -11.6375    1.2840   -0.5310 C   0  0  0  0  0  0  0  0  0  0  0  0
   -9.5944    2.6000    1.0977 C   0  0  0  0  0  0  0  0  0  0  0  0
   -9.4218    2.2493   -1.6505 O   0  0  0  0  0  0  0  0  0  0  0  0
   -4.5107    0.5888   -0.1617 N   0  0  0  0  0  0  0  0  0  0  0  0
    3.3780   -0.3254   -0.0906 N   0  0  0  0  0  0  0  0  0  0  0  0
    3.9819   -1.5928    0.1673 C   0  0  0  0  0  0  0  0  0  0  0  0
    5.4279   -1.5940    0.4911 C   0  0  0  0  0  0  0  0  0  0  0  0
    6.1971   -0.3643    0.1360 C   0  0  0  0  0  0  0  0  0  0  0  0
    5.5442    0.4998   -0.8913 C   0  0  0  0  0  0  0  0  0  0  0  0
    4.1477    0.8461   -0.3502 C   0  0  0  0  0  0  0  0  0  0  0  0
    7.5323   -0.7338   -0.1512 N   0  0  0  0  0  0  0  0  0  0  0  0
    8.2861   -1.3152    0.8907 C   0  0  0  0  0  0  0  0  0  0  0  0
    9.5038   -0.5844    1.3290 C   0  0  0  0  0  0  0  0  0  0  0  0
   10.0863    0.2747    0.3231 N   0  0  0  0  0  0  0  0  0  0  0  0
    9.7562    1.6503    0.6139 C   0  0  0  0  0  0  0  0  0  0  0  0
    9.7263   -0.1113   -1.0239 C   0  0  0  0  0  0  0  0  0  0  0  0
    8.2089   -0.0979   -1.2057 C   0  0  0  0  0  0  0  0  0  0  0  0
    0.4141   -4.0076   -0.6290 H   0  0  0  0  0  0  0  0  0  0  0  0
   -0.8960   -4.6029    0.4203 H   0  0  0  0  0  0  0  0  0  0  0  0
    0.5060   -3.6620    1.1217 H   0  0  0  0  0  0  0  0  0  0  0  0
    1.7063   -2.3369    0.1100 H   0  0  0  0  0  0  0  0  0  0  0  0
    1.8140    1.8658   -0.2941 H   0  0  0  0  0  0  0  0  0  0  0  0
   -0.5778    1.9340   -0.2941 H   0  0  0  0  0  0  0  0  0  0  0  0
   -2.7499   -1.2222    0.0070 H   0  0  0  0  0  0  0  0  0  0  0  0
   -3.4073    4.1803   -0.4755 H   0  0  0  0  0  0  0  0  0  0  0  0
   -7.4735    2.1182   -0.3181 H   0  0  0  0  0  0  0  0  0  0  0  0
   -5.9032   -1.2807    0.0627 H   0  0  0  0  0  0  0  0  0  0  0  0
   -7.1592   -3.3339    0.2490 H   0  0  0  0  0  0  0  0  0  0  0  0
   -9.6137   -3.2505    0.1696 H   0  0  0  0  0  0  0  0  0  0  0  0
  -10.7815   -1.1209   -0.0956 H   0  0  0  0  0  0  0  0  0  0  0  0
  -12.1337    2.0955   -1.1062 H   0  0  0  0  0  0  0  0  0  0  0  0
  -12.1062    1.2727    0.4734 H   0  0  0  0  0  0  0  0  0  0  0  0
  -11.8478    0.3362   -1.0403 H   0  0  0  0  0  0  0  0  0  0  0  0
  -10.5262    2.7825    1.6650 H   0  0  0  0  0  0  0  0  0  0  0  0
   -9.2002    3.6005    0.7649 H   0  0  0  0  0  0  0  0  0  0  0  0
   -8.8346    2.1850    1.7923 H   0  0  0  0  0  0  0  0  0  0  0  0
    3.4533   -1.9997    1.0855 H   0  0  0  0  0  0  0  0  0  0  0  0
    3.7110   -2.3491   -0.6212 H   0  0  0  0  0  0  0  0  0  0  0  0
    5.8881   -2.4470   -0.0938 H   0  0  0  0  0  0  0  0  0  0  0  0
    5.6461   -1.8541    1.5521 H   0  0  0  0  0  0  0  0  0  0  0  0
    6.2299    0.2614    1.0808 H   0  0  0  0  0  0  0  0  0  0  0  0
    6.0656    1.4797   -0.9268 H   0  0  0  0  0  0  0  0  0  0  0  0
    5.4091    0.0115   -1.8542 H   0  0  0  0  0  0  0  0  0  0  0  0
    4.3079    1.3801    0.6059 H   0  0  0  0  0  0  0  0  0  0  0  0
    3.6443    1.5487   -1.0492 H   0  0  0  0  0  0  0  0  0  0  0  0
    8.5719   -2.3567    0.5694 H   0  0  0  0  0  0  0  0  0  0  0  0
    7.6339   -1.4579    1.7829 H   0  0  0  0  0  0  0  0  0  0  0  0
    9.3106   -0.0019    2.2541 H   0  0  0  0  0  0  0  0  0  0  0  0
   10.2866   -1.3266    1.6023 H   0  0  0  0  0  0  0  0  0  0  0  0
    9.7311    1.7448    1.7278 H   0  0  0  0  0  0  0  0  0  0  0  0
   10.5539    2.2782    0.1809 H   0  0  0  0  0  0  0  0  0  0  0  0
    8.7757    1.9034    0.1772 H   0  0  0  0  0  0  0  0  0  0  0  0
   10.0934   -1.1435   -1.1860 H   0  0  0  0  0  0  0  0  0  0  0  0
   10.1672    0.6255   -1.7126 H   0  0  0  0  0  0  0  0  0  0  0  0
    8.0341   -0.6971   -2.1479 H   0  0  0  0  0  0  0  0  0  0  0  0
    7.9430    0.9262   -1.4516 H   0  0  0  0  0  0  0  0  0  0  0  0
  1  2  1  0
  2  3  1  0
  3  4  2  0
  4  5  1  0
  5  6  2  0
  6  7  1  0
  7  8  2  0
  8  9  1  0
  9 10  1  0
 10 11  2  0
 11 12  1  0
 12 13  2  0
 13 14  1  0
 13 15  1  0
 15 16  1  0
 16 17  1  0
 17 18  2  0
 18 19  1  0
 19 20  2  0
 20 21  1  0
 21 22  2  0
 22 23  1  0
 23 24  1  0
 23 25  1  0
 23 26  2  0
 15 27  2  0
  5 28  1  0
 28 29  1  0
 29 30  1  0
 30 31  1  0
 31 32  1  0
 32 33  1  0
 31 34  1  0
 34 35  1  0
 35 36  1  0
 36 37  1  0
 37 38  1  0
 37 39  1  0
 39 40  1  0
  8  3  1  0
 27 10  1  0
 33 28  1  0
 40 34  1  0
 22 17  1  0
  1 41  1  0
  1 42  1  0
  1 43  1  0
  4 44  1  0
  6 45  1  0
  7 46  1  0
  9 47  1  0
 12 48  1  0
 16 49  1  0
 18 50  1  0
 19 51  1  0
 20 52  1  0
 21 53  1  0
 24 54  1  0
 24 55  1  0
 24 56  1  0
 25 57  1  0
 25 58  1  0
 25 59  1  0
 29 60  1  0
 29 61  1  0
 30 62  1  0
 30 63  1  0
 31 64  1  0
 32 65  1  0
 32 66  1  0
 33 67  1  0
 33 68  1  0
 35 69  1  0
 35 70  1  0
 36 71  1  0
 36 72  1  0
 38 73  1  0
 38 74  1  0
 38 75  1  0
 39 76  1  0
 39 77  1  0
 40 78  1  0
 40 79  1  0
M  END
$$$$
[H]c1nc(N([H])[H])c(O[C@@]([H])(c2c(Cl)c([H])c([H])c(F)c2Cl)C([H])([H])[H])c([H])c1-c1c([H])nn(C2([H])C([H])([H])C([H])([H])N([H])C([H])([H])C2([H])[H])c1[H]
     RDKit          3D

 52 55  0  0  0  0  0  0  0  0999 V2000
   -4.7962   -1.7981   -2.3567 C   0  0  0  0  0  0  0  0  0  0  0  0
   -4.1525   -0.7286   -1.5112 C   0  0  1  0  0  0  0  0  0  0  0  0
   -3.3712    0.1572   -2.1997 O   0  0  0  0  0  0  0  0  0  0  0  0
   -2.0511    0.4791   -2.1412 C   0  0  0  0  0  0  0  0  0  0  0  0
   -1.1698   -0.0275   -1.1696 C   0  0  0  0  0  0  0  0  0  0  0  0
    0.1533    0.3121   -1.1306 C   0  0  0  0  0  0  0  0  0  0  0  0
    0.5696    1.1998   -2.1280 C   0  0  0  0  0  0  0  0  0  0  0  0
   -0.2743    1.6730   -3.0466 N   0  0  0  0  0  0  0  0  0  0  0  0
   -1.5784    1.3537   -3.1047 C   0  0  0  0  0  0  0  0  0  0  0  0
   -2.4545    1.8882   -4.0900 N   0  0  0  0  0  0  0  0  0  0  0  0
    1.1276   -0.1004   -0.1293 C   0  0  0  0  0  0  0  0  0  0  0  0
    0.9256   -0.3540    1.1909 C   0  0  0  0  0  0  0  0  0  0  0  0
    2.1417   -0.6643    1.7304 N   0  0  0  0  0  0  0  0  0  0  0  0
    3.0795   -0.6261    0.8506 N   0  0  0  0  0  0  0  0  0  0  0  0
    2.5027   -0.2811   -0.3263 C   0  0  0  0  0  0  0  0  0  0  0  0
    4.5262   -0.8872    1.0402 C   0  0  0  0  0  0  0  0  0  0  0  0
    4.8581   -1.0506    2.4723 C   0  0  0  0  0  0  0  0  0  0  0  0
    5.8875   -0.1464    3.0264 C   0  0  0  0  0  0  0  0  0  0  0  0
    6.8761    0.1959    2.0414 N   0  0  0  0  0  0  0  0  0  0  0  0
    6.1670    1.0403    1.0585 C   0  0  0  0  0  0  0  0  0  0  0  0
    5.3301    0.0816    0.2580 C   0  0  0  0  0  0  0  0  0  0  0  0
   -4.8131   -0.3689   -0.2557 C   0  0  0  0  0  0  0  0  0  0  0  0
   -4.8286    0.8660    0.2946 C   0  0  0  0  0  0  0  0  0  0  0  0
   -4.2617    2.2433   -0.6424 Cl  0  0  0  0  0  0  0  0  0  0  0  0
   -5.3455    1.0773    1.5692 C   0  0  0  0  0  0  0  0  0  0  0  0
   -5.8644    0.0579    2.3268 C   0  0  0  0  0  0  0  0  0  0  0  0
   -5.8649   -1.2023    1.7897 C   0  0  0  0  0  0  0  0  0  0  0  0
   -6.3721   -2.2536    2.4870 F   0  0  0  0  0  0  0  0  0  0  0  0
   -5.3461   -1.4227    0.5106 C   0  0  0  0  0  0  0  0  0  0  0  0
   -5.3472   -3.0867   -0.0346 Cl  0  0  0  0  0  0  0  0  0  0  0  0
   -4.6741   -1.4899   -3.4711 H   0  0  0  0  0  0  0  0  0  0  0  0
   -5.8733   -1.9228   -2.1667 H   0  0  0  0  0  0  0  0  0  0  0  0
   -4.2981   -2.7664   -2.3436 H   0  0  0  0  0  0  0  0  0  0  0  0
   -3.2627   -1.4032   -1.0264 H   0  0  0  0  0  0  0  0  0  0  0  0
   -1.5291   -0.7074   -0.4157 H   0  0  0  0  0  0  0  0  0  0  0  0
    1.6297    1.5017   -2.1288 H   0  0  0  0  0  0  0  0  0  0  0  0
   -3.2700    1.3463   -4.3890 H   0  0  0  0  0  0  0  0  0  0  0  0
   -2.3124    2.8226   -4.5268 H   0  0  0  0  0  0  0  0  0  0  0  0
   -0.0105   -0.3292    1.7589 H   0  0  0  0  0  0  0  0  0  0  0  0
    2.9954   -0.1553   -1.2548 H   0  0  0  0  0  0  0  0  0  0  0  0
    4.6687   -1.9067    0.5405 H   0  0  0  0  0  0  0  0  0  0  0  0
    5.1978   -2.1317    2.6402 H   0  0  0  0  0  0  0  0  0  0  0  0
    3.9065   -1.0244    3.0770 H   0  0  0  0  0  0  0  0  0  0  0  0
    5.3944    0.7771    3.4671 H   0  0  0  0  0  0  0  0  0  0  0  0
    6.3605   -0.6273    3.9132 H   0  0  0  0  0  0  0  0  0  0  0  0
    7.2013   -0.6690    1.5586 H   0  0  0  0  0  0  0  0  0  0  0  0
    6.8919    1.5161    0.3701 H   0  0  0  0  0  0  0  0  0  0  0  0
    5.5709    1.7737    1.6030 H   0  0  0  0  0  0  0  0  0  0  0  0
    4.6670    0.6147   -0.4680 H   0  0  0  0  0  0  0  0  0  0  0  0
    6.0467   -0.4965   -0.3811 H   0  0  0  0  0  0  0  0  0  0  0  0
   -5.2953    2.1144    1.9325 H   0  0  0  0  0  0  0  0  0  0  0  0
   -6.2590    0.2410    3.3311 H   0  0  0  0  0  0  0  0  0  0  0  0
  1  2  1  0
  2  3  1  0
  3  4  1  0
  4  5  2  0
  5  6  1  0
  6  7  2  0
  7  8  1  0
  8  9  2  0
  9 10  1  0
  6 11  1  0
 11 12  1  0
 12 13  2  0
 13 14  1  0
 14 15  1  0
 14 16  1  0
 16 17  1  0
 17 18  1  0
 18 19  1  0
 19 20  1  0
 20 21  1  0
  2 22  1  0
 22 23  2  0
 23 24  1  0
 23 25  1  0
 25 26  2  0
 26 27  1  0
 27 28  1  0
 27 29  2  0
 29 30  1  0
  9  4  1  0
 15 11  2  0
 21 16  1  0
 29 22  1  0
  1 31  1  0
  1 32  1  0
  1 33  1  0
  2 34  1  1
  5 35  1  0
  7 36  1  0
 10 37  1  0
 10 38  1  0
 12 39  1  0
 15 40  1  0
 16 41  1  0
 17 42  1  0
 17 43  1  0
 18 44  1  0
 18 45  1  0
 19 46  1  0
 20 47  1  0
 20 48  1  0
 21 49  1  0
 21 50  1  0
 25 51  1  0
 26 52  1  0
M  END
$$$$
[H]c1nc([H])c([H])c(-c2c([H])nn([H])c2-c2c([H])c([H])nc(N([H])C(=O)c3c([H])c([H])c([H])c(C(F)(F)F)c3[H])c2[H])c1[H]
     RDKit          3D

 44 47  0  0  0  0  0  0  0  0999 V2000
    6.6282    2.0595    1.3536 F   0  0  0  0  0  0  0  0  0  0  0  0
    6.5513    0.7232    1.0643 C   0  0  0  0  0  0  0  0  0  0  0  0
    6.0280    0.1347    2.2398 F   0  0  0  0  0  0  0  0  0  0  0  0
    7.8019    0.2054    0.8451 F   0  0  0  0  0  0  0  0  0  0  0  0
    5.5923    0.4614   -0.0335 C   0  0  0  0  0  0  0  0  0  0  0  0
    5.5956    1.1274   -1.2381 C   0  0  0  0  0  0  0  0  0  0  0  0
    4.6697    0.8258   -2.2482 C   0  0  0  0  0  0  0  0  0  0  0  0
    3.7281   -0.1649   -2.0370 C   0  0  0  0  0  0  0  0  0  0  0  0
    3.7013   -0.8340   -0.8665 C   0  0  0  0  0  0  0  0  0  0  0  0
    4.6366   -0.5146    0.1307 C   0  0  0  0  0  0  0  0  0  0  0  0
    2.7809   -1.9114   -0.5431 C   0  0  0  0  0  0  0  0  0  0  0  0
    3.2643   -3.1028   -0.6794 O   0  0  0  0  0  0  0  0  0  0  0  0
    1.4805   -1.7956   -0.0973 N   0  0  0  0  0  0  0  0  0  0  0  0
    0.6639   -0.6387    0.0179 C   0  0  0  0  0  0  0  0  0  0  0  0
   -0.5230   -0.8103    0.7411 C   0  0  0  0  0  0  0  0  0  0  0  0
   -1.4064    0.2786    0.8196 C   0  0  0  0  0  0  0  0  0  0  0  0
   -1.1268    1.4671    0.2176 C   0  0  0  0  0  0  0  0  0  0  0  0
    0.0881    1.5671   -0.4881 C   0  0  0  0  0  0  0  0  0  0  0  0
    0.9416    0.5358   -0.5729 N   0  0  0  0  0  0  0  0  0  0  0  0
   -2.5554    0.0693    1.6874 C   0  0  0  0  0  0  0  0  0  0  0  0
   -2.3509   -0.0466    3.0514 N   0  0  0  0  0  0  0  0  0  0  0  0
   -3.5104   -0.2390    3.6241 N   0  0  0  0  0  0  0  0  0  0  0  0
   -4.4912   -0.2640    2.7412 C   0  0  0  0  0  0  0  0  0  0  0  0
   -3.8758   -0.0633    1.4582 C   0  0  0  0  0  0  0  0  0  0  0  0
   -4.6334   -0.0425    0.2252 C   0  0  0  0  0  0  0  0  0  0  0  0
   -5.1486   -1.2222   -0.2687 C   0  0  0  0  0  0  0  0  0  0  0  0
   -5.9481   -1.2655   -1.3780 C   0  0  0  0  0  0  0  0  0  0  0  0
   -6.2725   -0.1197   -2.0456 N   0  0  0  0  0  0  0  0  0  0  0  0
   -5.7727    1.0326   -1.5668 C   0  0  0  0  0  0  0  0  0  0  0  0
   -4.9580    1.1102   -0.4444 C   0  0  0  0  0  0  0  0  0  0  0  0
    6.3558    1.9066   -1.3930 H   0  0  0  0  0  0  0  0  0  0  0  0
    4.6869    1.3517   -3.1868 H   0  0  0  0  0  0  0  0  0  0  0  0
    2.9877   -0.4007   -2.8103 H   0  0  0  0  0  0  0  0  0  0  0  0
    4.6002   -1.0715    1.0751 H   0  0  0  0  0  0  0  0  0  0  0  0
    0.9907   -2.7346    0.1181 H   0  0  0  0  0  0  0  0  0  0  0  0
   -0.7660   -1.7496    1.2217 H   0  0  0  0  0  0  0  0  0  0  0  0
   -1.7929    2.3345    0.2630 H   0  0  0  0  0  0  0  0  0  0  0  0
    0.2671    2.5455   -0.9414 H   0  0  0  0  0  0  0  0  0  0  0  0
   -1.4282   -0.0078    3.4990 H   0  0  0  0  0  0  0  0  0  0  0  0
   -5.5595   -0.4036    2.8272 H   0  0  0  0  0  0  0  0  0  0  0  0
   -4.9191   -2.1777    0.2385 H   0  0  0  0  0  0  0  0  0  0  0  0
   -6.3765   -2.1844   -1.7650 H   0  0  0  0  0  0  0  0  0  0  0  0
   -6.0239    1.9528   -2.0987 H   0  0  0  0  0  0  0  0  0  0  0  0
   -4.6014    2.0757   -0.1200 H   0  0  0  0  0  0  0  0  0  0  0  0
  1  2  1  0
  2  3  1  0
  2  4  1  0
  2  5  1  0
  5  6  2  0
  6  7  1  0
  7  8  2  0
  8  9  1  0
  9 10  2  0
  9 11  1  0
 11 12  2  0
 11 13  1  0
 13 14  1  0
 14 15  2  0
 15 16  1  0
 16 17  2  0
 17 18  1  0
 18 19  2  0
 16 20  1  0
 20 21  1  0
 21 22  1  0
 22 23  2  0
 23 24  1  0
 24 25  1  0
 25 26  2  0
 26 27  1  0
 27 28  2  0
 28 29  1  0
 29 30  2  0
 10  5  1  0
 19 14  1  0
 24 20  2  0
 30 25  1  0
  6 31  1  0
  7 32  1  0
  8 33  1  0
 10 34  1  0
 13 35  1  0
 15 36  1  0
 17 37  1  0
 18 38  1  0
 21 39  1  0
 23 40  1  0
 26 41  1  0
 27 42  1  0
 29 43  1  0
 30 44  1  0
M  END
$$$$
[H]c1nc([H])c(Cl)c(N([H])C(=O)c2c([H])c([H])c(OC([H])(F)F)c(OC([H])([H])C3([H])C([H])([H])C3([H])[H])c2[H])c1Cl
     RDKit          3D

 40 42  0  0  0  0  0  0  0  0999 V2000
    3.9942    4.0784   -1.9838 F   0  0  0  0  0  0  0  0  0  0  0  0
    3.0808    4.0334   -0.9300 C   0  0  0  0  0  0  0  0  0  0  0  0
    3.7492    4.5994    0.1671 F   0  0  0  0  0  0  0  0  0  0  0  0
    2.7496    2.7403   -0.5642 O   0  0  0  0  0  0  0  0  0  0  0  0
    1.4839    2.1795   -0.4856 C   0  0  0  0  0  0  0  0  0  0  0  0
    0.3235    2.8605   -0.7733 C   0  0  0  0  0  0  0  0  0  0  0  0
   -0.9235    2.2757   -0.6861 C   0  0  0  0  0  0  0  0  0  0  0  0
   -1.0813    0.9594   -0.3010 C   0  0  0  0  0  0  0  0  0  0  0  0
    0.0759    0.2680   -0.0103 C   0  0  0  0  0  0  0  0  0  0  0  0
    1.3252    0.8471   -0.0957 C   0  0  0  0  0  0  0  0  0  0  0  0
    2.4798    0.1410    0.1992 O   0  0  0  0  0  0  0  0  0  0  0  0
    2.4575   -1.2160    0.6061 C   0  0  0  0  0  0  0  0  0  0  0  0
    3.8398   -1.7429    0.8633 C   0  0  0  0  0  0  0  0  0  0  0  0
    4.7370   -1.1643    1.8725 C   0  0  0  0  0  0  0  0  0  0  0  0
    5.0405   -0.9978    0.4099 C   0  0  0  0  0  0  0  0  0  0  0  0
   -2.4034    0.3505   -0.2118 C   0  0  0  0  0  0  0  0  0  0  0  0
   -3.4122    1.0794   -0.5036 O   0  0  0  0  0  0  0  0  0  0  0  0
   -2.6564   -0.9754    0.1698 N   0  0  0  0  0  0  0  0  0  0  0  0
   -3.9806   -1.4925    0.2312 C   0  0  0  0  0  0  0  0  0  0  0  0
   -4.7086   -1.3976    1.4127 C   0  0  0  0  0  0  0  0  0  0  0  0
   -3.9849   -0.6462    2.7985 Cl  0  0  0  0  0  0  0  0  0  0  0  0
   -5.9764   -1.8957    1.4618 C   0  0  0  0  0  0  0  0  0  0  0  0
   -6.5479   -2.4765    0.4058 N   0  0  0  0  0  0  0  0  0  0  0  0
   -5.8810   -2.5844   -0.7399 C   0  0  0  0  0  0  0  0  0  0  0  0
   -4.6044   -2.0969   -0.8321 C   0  0  0  0  0  0  0  0  0  0  0  0
   -3.7091   -2.2303   -2.3356 Cl  0  0  0  0  0  0  0  0  0  0  0  0
    2.2458    4.7043   -1.1918 H   0  0  0  0  0  0  0  0  0  0  0  0
    0.4155    3.8945   -1.0781 H   0  0  0  0  0  0  0  0  0  0  0  0
   -1.8329    2.8255   -0.9164 H   0  0  0  0  0  0  0  0  0  0  0  0
   -0.0240   -0.7774    0.2973 H   0  0  0  0  0  0  0  0  0  0  0  0
    2.0543   -1.7902   -0.2734 H   0  0  0  0  0  0  0  0  0  0  0  0
    1.7517   -1.3995    1.4290 H   0  0  0  0  0  0  0  0  0  0  0  0
    3.9122   -2.8623    0.7390 H   0  0  0  0  0  0  0  0  0  0  0  0
    4.5264   -0.2258    2.4135 H   0  0  0  0  0  0  0  0  0  0  0  0
    5.3697   -1.8615    2.4876 H   0  0  0  0  0  0  0  0  0  0  0  0
    5.9253   -1.5350    0.0514 H   0  0  0  0  0  0  0  0  0  0  0  0
    4.9381    0.0214   -0.0395 H   0  0  0  0  0  0  0  0  0  0  0  0
   -1.8586   -1.5979    0.4145 H   0  0  0  0  0  0  0  0  0  0  0  0
   -6.5889   -1.8437    2.3715 H   0  0  0  0  0  0  0  0  0  0  0  0
   -6.3019   -3.0483   -1.6271 H   0  0  0  0  0  0  0  0  0  0  0  0
  1  2  1  0
  2  3  1  0
  2  4  1  0
  4  5  1  0
  5  6  2  0
  6  7  1  0
  7  8  2  0
  8  9  1  0
  9 10  2  0
 10 11  1  0
 11 12  1  0
 12 13  1  0
 13 14  1  0
 14 15  1  0
  8 16  1  0
 16 17  2  0
 16 18  1  0
 18 19  1  0
 19 20  2  0
 20 21  1  0
 20 22  1  0
 22 23  2  0
 23 24  1  0
 24 25  2  0
 25 26  1  0
 10  5  1  0
 15 13  1  0
 25 19  1  0
  2 27  1  0
  6 28  1  0
  7 29  1  0
  9 30  1  0
 12 31  1  0
 12 32  1  0
 13 33  1  0
 14 34  1  0
 14 35  1  0
 15 36  1  0
 15 37  1  0
 18 38  1  0
 22 39  1  0
 24 40  1  0
M  END
$$$$
[H]O[C@]1([H])[C@@]([H])(C([H])([H])OP(=O)(O[H])OP(=O)(O[H])O[H])O[C@@]([H])(n2c([H])nc3c(N([H])[H])nc(N([H])[H])nc32)[C@]1([H])O[H]
     RDKit          3D

 44 46  0  0  0  0  0  0  0  0999 V2000
   -5.3714   -3.2221    1.0084 N   0  0  0  0  0  0  0  0  0  0  0  0
   -5.0397   -1.8445    0.8393 C   0  0  0  0  0  0  0  0  0  0  0  0
   -6.0074   -0.9202    0.9411 N   0  0  0  0  0  0  0  0  0  0  0  0
   -5.7586    0.3981    0.7916 C   0  0  0  0  0  0  0  0  0  0  0  0
   -6.7932    1.3332    0.9046 N   0  0  0  0  0  0  0  0  0  0  0  0
   -4.4832    0.8451    0.5256 C   0  0  0  0  0  0  0  0  0  0  0  0
   -3.9001    2.0385    0.3256 N   0  0  0  0  0  0  0  0  0  0  0  0
   -2.5797    1.8854    0.0989 C   0  0  0  0  0  0  0  0  0  0  0  0
   -2.3533    0.5692    0.1623 N   0  0  0  0  0  0  0  0  0  0  0  0
   -1.0694   -0.0596   -0.0201 C   0  0  2  0  0  0  0  0  0  0  0  0
   -0.0157    0.8679    0.1500 O   0  0  0  0  0  0  0  0  0  0  0  0
    1.0696    0.0689   -0.2139 C   0  0  2  0  0  0  0  0  0  0  0  0
    2.3442    0.8639   -0.3407 C   0  0  0  0  0  0  0  0  0  0  0  0
    3.3501   -0.0385   -0.7061 O   0  0  0  0  0  0  0  0  0  0  0  0
    4.8401    0.7427   -0.8799 P   0  0  0  0  0  0  0  0  0  0  0  0
    4.7456    2.2402   -0.1303 O   0  0  0  0  0  0  0  0  0  0  0  0
    5.1538    0.9557   -2.3560 O   0  0  0  0  0  0  0  0  0  0  0  0
    6.1009   -0.1726   -0.2397 O   0  0  0  0  0  0  0  0  0  0  0  0
    6.5192    0.2832    1.3152 P   0  0  0  0  0  0  0  0  0  0  0  0
    8.0347    1.0656    1.3512 O   0  0  0  0  0  0  0  0  0  0  0  0
    6.6951   -1.1312    2.2391 O   0  0  0  0  0  0  0  0  0  0  0  0
    5.4361    1.1624    1.8772 O   0  0  0  0  0  0  0  0  0  0  0  0
    0.6495   -0.4176   -1.5761 C   0  0  1  0  0  0  0  0  0  0  0  0
    1.2868   -1.6080   -1.8468 O   0  0  0  0  0  0  0  0  0  0  0  0
   -0.8566   -0.5913   -1.4074 C   0  0  1  0  0  0  0  0  0  0  0  0
   -1.1836   -1.9595   -1.4913 O   0  0  0  0  0  0  0  0  0  0  0  0
   -3.4887   -0.1050    0.4210 C   0  0  0  0  0  0  0  0  0  0  0  0
   -3.7927   -1.4202    0.5802 N   0  0  0  0  0  0  0  0  0  0  0  0
   -5.3366   -3.6842    1.9306 H   0  0  0  0  0  0  0  0  0  0  0  0
   -5.6611   -3.7961    0.1812 H   0  0  0  0  0  0  0  0  0  0  0  0
   -6.8224    2.0099    1.6881 H   0  0  0  0  0  0  0  0  0  0  0  0
   -7.5477    1.3593    0.1999 H   0  0  0  0  0  0  0  0  0  0  0  0
   -1.8657    2.6946   -0.0943 H   0  0  0  0  0  0  0  0  0  0  0  0
   -0.8914   -0.8627    0.6957 H   0  0  0  0  0  0  0  0  0  0  0  0
    1.1786   -0.7232    0.5274 H   0  0  0  0  0  0  0  0  0  0  0  0
    2.6145    1.2450    0.6660 H   0  0  0  0  0  0  0  0  0  0  0  0
    2.2563    1.6523   -1.1019 H   0  0  0  0  0  0  0  0  0  0  0  0
    5.2280    2.8977   -0.6695 H   0  0  0  0  0  0  0  0  0  0  0  0
    8.3069    1.3803    0.4662 H   0  0  0  0  0  0  0  0  0  0  0  0
    5.8503   -1.5173    2.5186 H   0  0  0  0  0  0  0  0  0  0  0  0
    0.8158    0.3691   -2.3127 H   0  0  0  0  0  0  0  0  0  0  0  0
    0.7968   -2.4081   -1.5837 H   0  0  0  0  0  0  0  0  0  0  0  0
   -1.4051   -0.0291   -2.1735 H   0  0  0  0  0  0  0  0  0  0  0  0
   -1.0494   -2.4171   -0.6236 H   0  0  0  0  0  0  0  0  0  0  0  0
  1  2  1  0
  2  3  2  0
  3  4  1  0
  4  5  1  0
  4  6  2  0
  6  7  1  0
  7  8  2  0
  8  9  1  0
  9 10  1  0
 10 11  1  0
 11 12  1  0
 12 13  1  0
 13 14  1  0
 14 15  1  0
 15 16  1  0
 15 17  2  0
 15 18  1  0
 18 19  1  0
 19 20  1  0
 19 21  1  0
 19 22  2  0
 12 23  1  0
 23 24  1  0
 23 25  1  0
 25 26  1  0
  9 27  1  0
 27 28  2  0
 28  2  1  0
 27  6  1  0
 25 10  1  0
  1 29  1  0
  1 30  1  0
  5 31  1  0
  5 32  1  0
  8 33  1  0
 10 34  1  1
 12 35  1  1
 13 36  1  0
 13 37  1  0
 16 38  1  0
 20 39  1  0
 21 40  1  0
 23 41  1  6
 24 42  1  0
 25 43  1  6
 26 44  1  0
M  END
$$$$
[H]O[C@@]1([H])C([H])([H])C([H])([H])C2([H])C3([H])C([H])([H])C([H])([H])C4=C([H])C(=O)C([H])([H])C([H])([H])C4(C([H])([H])[H])C3([H])C([H])([H])C([H])([H])[C@@]21C([H])([H])[H]
     RDKit          3D

 49 52  0  0  0  0  0  0  0  0999 V2000
    2.7525    1.4214    1.0712 C   0  0  0  0  0  0  0  0  0  0  0  0
    2.2743    0.5969   -0.1130 C   0  0  2  0  0  0  0  0  0  0  0  0
    1.4928    1.4715   -1.0673 C   0  0  0  0  0  0  0  0  0  0  0  0
    0.1008    1.5955   -0.4748 C   0  0  0  0  0  0  0  0  0  0  0  0
   -0.5953    0.2521   -0.7576 C   0  0  0  0  0  0  0  0  0  0  0  0
    0.2788   -0.8883   -0.4768 C   0  0  0  0  0  0  0  0  0  0  0  0
   -0.3421   -2.1331    0.0494 C   0  0  0  0  0  0  0  0  0  0  0  0
   -1.6045   -1.9761    0.8028 C   0  0  0  0  0  0  0  0  0  0  0  0
   -2.4829   -1.0185    0.0852 C   0  0  0  0  0  0  0  0  0  0  0  0
   -3.6463   -1.4076   -0.3627 C   0  0  0  0  0  0  0  0  0  0  0  0
   -4.4893   -0.4360   -1.0670 C   0  0  0  0  0  0  0  0  0  0  0  0
   -5.3632   -0.7493   -1.8995 O   0  0  0  0  0  0  0  0  0  0  0  0
   -4.2413    1.0030   -0.7260 C   0  0  0  0  0  0  0  0  0  0  0  0
   -2.7815    1.3009   -0.8004 C   0  0  0  0  0  0  0  0  0  0  0  0
   -1.9043    0.3354   -0.0437 C   0  0  0  0  0  0  0  0  0  0  0  0
   -1.7699    0.8851    1.3650 C   0  0  0  0  0  0  0  0  0  0  0  0
    1.4890   -0.5517    0.4090 C   0  0  0  0  0  0  0  0  0  0  0  0
    2.4355   -1.7475    0.2495 C   0  0  0  0  0  0  0  0  0  0  0  0
    3.8152   -1.1586    0.0642 C   0  0  0  0  0  0  0  0  0  0  0  0
    3.5005    0.0589   -0.7998 C   0  0  2  0  0  0  0  0  0  0  0  0
    4.5634    0.9548   -0.6325 O   0  0  0  0  0  0  0  0  0  0  0  0
    3.6299    2.0431    0.8077 H   0  0  0  0  0  0  0  0  0  0  0  0
    3.0293    0.6964    1.8892 H   0  0  0  0  0  0  0  0  0  0  0  0
    1.9657    2.0659    1.4891 H   0  0  0  0  0  0  0  0  0  0  0  0
    1.9843    2.4668   -1.0803 H   0  0  0  0  0  0  0  0  0  0  0  0
    1.4036    1.0368   -2.0647 H   0  0  0  0  0  0  0  0  0  0  0  0
   -0.4487    2.4057   -0.9511 H   0  0  0  0  0  0  0  0  0  0  0  0
    0.1577    1.6646    0.6343 H   0  0  0  0  0  0  0  0  0  0  0  0
   -0.8427    0.3190   -1.8607 H   0  0  0  0  0  0  0  0  0  0  0  0
    0.7775   -1.1841   -1.4525 H   0  0  0  0  0  0  0  0  0  0  0  0
   -0.5389   -2.8836   -0.7740 H   0  0  0  0  0  0  0  0  0  0  0  0
    0.3819   -2.6797    0.7230 H   0  0  0  0  0  0  0  0  0  0  0  0
   -2.1001   -2.9536    0.8917 H   0  0  0  0  0  0  0  0  0  0  0  0
   -1.4842   -1.5837    1.8328 H   0  0  0  0  0  0  0  0  0  0  0  0
   -4.0385   -2.4200   -0.2473 H   0  0  0  0  0  0  0  0  0  0  0  0
   -4.6252    1.2432    0.2873 H   0  0  0  0  0  0  0  0  0  0  0  0
   -4.7519    1.6360   -1.4800 H   0  0  0  0  0  0  0  0  0  0  0  0
   -2.4698    1.2748   -1.8732 H   0  0  0  0  0  0  0  0  0  0  0  0
   -2.6186    2.3228   -0.3843 H   0  0  0  0  0  0  0  0  0  0  0  0
   -1.7377    1.9885    1.3140 H   0  0  0  0  0  0  0  0  0  0  0  0
   -2.7346    0.6440    1.8951 H   0  0  0  0  0  0  0  0  0  0  0  0
   -0.9103    0.4720    1.9115 H   0  0  0  0  0  0  0  0  0  0  0  0
    1.2324   -0.5068    1.4652 H   0  0  0  0  0  0  0  0  0  0  0  0
    2.3814   -2.4274    1.1111 H   0  0  0  0  0  0  0  0  0  0  0  0
    2.2112   -2.3305   -0.6600 H   0  0  0  0  0  0  0  0  0  0  0  0
    4.4864   -1.8054   -0.5042 H   0  0  0  0  0  0  0  0  0  0  0  0
    4.2415   -0.7921    1.0238 H   0  0  0  0  0  0  0  0  0  0  0  0
    3.3607   -0.1892   -1.8504 H   0  0  0  0  0  0  0  0  0  0  0  0
    4.5756    1.6673   -1.3101 H   0  0  0  0  0  0  0  0  0  0  0  0
  2  1  1  1
  2  3  1  0
  3  4  1  0
  4  5  1  0
  5  6  1  0
  6  7  1  0
  7  8  1  0
  8  9  1  0
  9 10  2  0
 10 11  1  0
 11 12  2  0
 11 13  1  0
 13 14  1  0
 14 15  1  0
 15 16  1  0
  6 17  1  0
 17 18  1  0
 18 19  1  0
 19 20  1  0
 20 21  1  0
 17  2  1  0
 20  2  1  0
 15  5  1  0
 15  9  1  0
  1 22  1  0
  1 23  1  0
  1 24  1  0
  3 25  1  0
  3 26  1  0
  4 27  1  0
  4 28  1  0
  5 29  1  0
  6 30  1  0
  7 31  1  0
  7 32  1  0
  8 33  1  0
  8 34  1  0
 10 35  1  0
 13 36  1  0
 13 37  1  0
 14 38  1  0
 14 39  1  0
 16 40  1  0
 16 41  1  0
 16 42  1  0
 17 43  1  0
 18 44  1  0
 18 45  1  0
 19 46  1  0
 19 47  1  0
 20 48  1  6
 21 49  1  0
M  END
$$$$
[H]Oc1c([H])c([H])c(C([H])([H])[C@@]([H])(C(=O)N2C([H])([H])C([H])([H])C([H])([H])[C@@]2([H])C(=O)N([H])[C@]([H])(C(=O)N(C([H])([H])[H])C([H])([H])[H])C([H])([H])C([H])(C([H])([H])[H])C([H])([H])[H])N([H])[H])c([H])c1[H]
     RDKit          3D

 64 65  0  0  0  0  0  0  0  0999 V2000
   -2.1507   -1.6253    3.3189 C   0  0  0  0  0  0  0  0  0  0  0  0
   -2.0919   -0.9923    1.9302 C   0  0  0  0  0  0  0  0  0  0  0  0
   -2.5978   -2.0192    0.9711 C   0  0  0  0  0  0  0  0  0  0  0  0
   -2.8511    0.3095    1.9113 C   0  0  0  0  0  0  0  0  0  0  0  0
   -2.8227    0.9899    0.5598 C   0  0  2  0  0  0  0  0  0  0  0  0
   -1.4394    1.2806    0.1813 N   0  0  0  0  0  0  0  0  0  0  0  0
   -0.8216    0.8043   -0.9930 C   0  0  0  0  0  0  0  0  0  0  0  0
   -1.4731    0.0846   -1.7819 O   0  0  0  0  0  0  0  0  0  0  0  0
    0.5722    1.1433   -1.2971 C   0  0  2  0  0  0  0  0  0  0  0  0
    0.7161    2.6356   -1.5406 C   0  0  0  0  0  0  0  0  0  0  0  0
    0.5362    2.8217   -3.0254 C   0  0  0  0  0  0  0  0  0  0  0  0
    0.4372    1.4217   -3.5878 C   0  0  0  0  0  0  0  0  0  0  0  0
    1.0437    0.6088   -2.5523 N   0  0  0  0  0  0  0  0  0  0  0  0
    1.9197   -0.4787   -2.7610 C   0  0  0  0  0  0  0  0  0  0  0  0
    2.1719   -0.7820   -3.9727 O   0  0  0  0  0  0  0  0  0  0  0  0
    2.5599   -1.2861   -1.6955 C   0  0  1  0  0  0  0  0  0  0  0  0
    3.0940   -2.5018   -2.3468 N   0  0  0  0  0  0  0  0  0  0  0  0
    3.7615   -0.5733   -1.1247 C   0  0  0  0  0  0  0  0  0  0  0  0
    4.4369   -1.3200   -0.0647 C   0  0  0  0  0  0  0  0  0  0  0  0
    5.4500   -2.1904   -0.4069 C   0  0  0  0  0  0  0  0  0  0  0  0
    6.1386   -2.9357    0.5343 C   0  0  0  0  0  0  0  0  0  0  0  0
    5.8205   -2.8237    1.8720 C   0  0  0  0  0  0  0  0  0  0  0  0
    6.5113   -3.5745    2.8411 O   0  0  0  0  0  0  0  0  0  0  0  0
    4.8144   -1.9614    2.2271 C   0  0  0  0  0  0  0  0  0  0  0  0
    4.1364   -1.2241    1.2743 C   0  0  0  0  0  0  0  0  0  0  0  0
   -3.6072    2.2470    0.5681 C   0  0  0  0  0  0  0  0  0  0  0  0
   -2.9646    3.3221    0.3335 O   0  0  0  0  0  0  0  0  0  0  0  0
   -4.9754    2.3777    0.8043 N   0  0  0  0  0  0  0  0  0  0  0  0
   -5.6214    3.6994    0.7983 C   0  0  0  0  0  0  0  0  0  0  0  0
   -5.8638    1.2669    1.0551 C   0  0  0  0  0  0  0  0  0  0  0  0
   -1.4990   -0.9868    3.9612 H   0  0  0  0  0  0  0  0  0  0  0  0
   -1.8062   -2.6779    3.2697 H   0  0  0  0  0  0  0  0  0  0  0  0
   -3.1888   -1.6177    3.7077 H   0  0  0  0  0  0  0  0  0  0  0  0
   -1.0077   -0.7974    1.7105 H   0  0  0  0  0  0  0  0  0  0  0  0
   -1.7441   -2.7188    0.7758 H   0  0  0  0  0  0  0  0  0  0  0  0
   -3.3626   -2.6440    1.4836 H   0  0  0  0  0  0  0  0  0  0  0  0
   -2.9326   -1.6589    0.0019 H   0  0  0  0  0  0  0  0  0  0  0  0
   -3.8358    0.1501    2.3334 H   0  0  0  0  0  0  0  0  0  0  0  0
   -2.2949    1.0069    2.5998 H   0  0  0  0  0  0  0  0  0  0  0  0
   -3.2965    0.3207   -0.1717 H   0  0  0  0  0  0  0  0  0  0  0  0
   -0.8952    1.8781    0.8339 H   0  0  0  0  0  0  0  0  0  0  0  0
    1.2545    0.8114   -0.4878 H   0  0  0  0  0  0  0  0  0  0  0  0
   -0.0550    3.1814   -0.9922 H   0  0  0  0  0  0  0  0  0  0  0  0
    1.7571    2.9742   -1.3037 H   0  0  0  0  0  0  0  0  0  0  0  0
    1.3750    3.3713   -3.5077 H   0  0  0  0  0  0  0  0  0  0  0  0
   -0.3918    3.3865   -3.2628 H   0  0  0  0  0  0  0  0  0  0  0  0
    1.0458    1.3356   -4.5221 H   0  0  0  0  0  0  0  0  0  0  0  0
   -0.6265    1.2084   -3.7692 H   0  0  0  0  0  0  0  0  0  0  0  0
    1.8106   -1.5909   -0.9768 H   0  0  0  0  0  0  0  0  0  0  0  0
    2.4411   -3.2870   -2.2313 H   0  0  0  0  0  0  0  0  0  0  0  0
    3.3219   -2.3275   -3.3455 H   0  0  0  0  0  0  0  0  0  0  0  0
    3.5335    0.4286   -0.7855 H   0  0  0  0  0  0  0  0  0  0  0  0
    4.4833   -0.4926   -1.9927 H   0  0  0  0  0  0  0  0  0  0  0  0
    5.7446   -2.3204   -1.4426 H   0  0  0  0  0  0  0  0  0  0  0  0
    6.9364   -3.6239    0.2886 H   0  0  0  0  0  0  0  0  0  0  0  0
    6.1593   -4.4880    3.0880 H   0  0  0  0  0  0  0  0  0  0  0  0
    4.5815   -1.8900    3.2872 H   0  0  0  0  0  0  0  0  0  0  0  0
    3.3640   -0.5676    1.5887 H   0  0  0  0  0  0  0  0  0  0  0  0
   -4.9541    4.4723    0.4214 H   0  0  0  0  0  0  0  0  0  0  0  0
   -6.6014    3.6423    0.2878 H   0  0  0  0  0  0  0  0  0  0  0  0
   -5.8618    3.8924    1.8791 H   0  0  0  0  0  0  0  0  0  0  0  0
   -6.0253    1.0615    2.1295 H   0  0  0  0  0  0  0  0  0  0  0  0
   -6.8339    1.4761    0.5322 H   0  0  0  0  0  0  0  0  0  0  0  0
   -5.4354    0.3673    0.5810 H   0  0  0  0  0  0  0  0  0  0  0  0
  1  2  1  0
  2  3  1  0
  2  4  1  0
  4  5  1  0
  5  6  1  0
  6  7  1  0
  7  8  2  0
  7  9  1  0
  9 10  1  0
 10 11  1  0
 11 12  1  0
 12 13  1  0
 13 14  1  0
 14 15  2  0
 14 16  1  0
 16 17  1  0
 16 18  1  0
 18 19  1  0
 19 20  2  0
 20 21  1  0
 21 22  2  0
 22 23  1  0
 22 24  1  0
 24 25  2  0
  5 26  1  0
 26 27  2  0
 26 28  1  0
 28 29  1  0
 28 30  1  0
 13  9  1  0
 25 19  1  0
  1 31  1  0
  1 32  1  0
  1 33  1  0
  2 34  1  0
  3 35  1  0
  3 36  1  0
  3 37  1  0
  4 38  1  0
  4 39  1  0
  5 40  1  6
  6 41  1  0
  9 42  1  1
 10 43  1  0
 10 44  1  0
 11 45  1  0
 11 46  1  0
 12 47  1  0
 12 48  1  0
 16 49  1  1
 17 50  1  0
 17 51  1  0
 18 52  1  0
 18 53  1  0
 20 54  1  0
 21 55  1  0
 23 56  1  0
 24 57  1  0
 25 58  1  0
 29 59  1  0
 29 60  1  0
 29 61  1  0
 30 62  1  0
 30 63  1  0
 30 64  1  0
M  END
$$$$
[H]N=C(N([H])[H])N([H])C([H])([H])C([H])([H])C([H])([H])[C@]([H])(C([H])=O)N([H])C(=O)[C@@]1([H])N(C(=O)[C@@]([H])(N([H])S(=O)(=O)C([H])([H])c2c([H])c([H])c([H])c([H])c2[H])C([H])([H])c2c([H])c([H])c([H])c([H])c2[H])C([H])([H])C([H])([H])C1([H])[H]
     RDKit          3D

 75 77  0  0  0  0  0  0  0  0999 V2000
    9.4312    0.7388    1.2838 N   0  0  0  0  0  0  0  0  0  0  0  0
    8.7546    1.3815    0.1943 C   0  0  0  0  0  0  0  0  0  0  0  0
    9.3244    1.4001   -0.9808 N   0  0  0  0  0  0  0  0  0  0  0  0
    7.4869    2.0018    0.3325 N   0  0  0  0  0  0  0  0  0  0  0  0
    6.4148    1.3827    1.0784 C   0  0  0  0  0  0  0  0  0  0  0  0
    5.1521    2.2245    1.0380 C   0  0  0  0  0  0  0  0  0  0  0  0
    4.6779    2.3777   -0.3730 C   0  0  0  0  0  0  0  0  0  0  0  0
    3.4073    3.2287   -0.4781 C   0  0  1  0  0  0  0  0  0  0  0  0
    2.3438    2.6432    0.2876 N   0  0  0  0  0  0  0  0  0  0  0  0
    1.3307    1.8123   -0.2797 C   0  0  0  0  0  0  0  0  0  0  0  0
    1.4063    1.5920   -1.5157 O   0  0  0  0  0  0  0  0  0  0  0  0
    0.2558    1.2512    0.5753 C   0  0  2  0  0  0  0  0  0  0  0  0
    0.9107    0.5432    1.7711 C   0  0  0  0  0  0  0  0  0  0  0  0
    1.1933   -0.8394    1.2226 C   0  0  0  0  0  0  0  0  0  0  0  0
    0.4585   -0.9396   -0.0941 C   0  0  0  0  0  0  0  0  0  0  0  0
   -0.4825    0.1685   -0.0186 N   0  0  0  0  0  0  0  0  0  0  0  0
   -1.8452    0.1938   -0.4202 C   0  0  0  0  0  0  0  0  0  0  0  0
   -2.4818    1.2534   -0.2619 O   0  0  0  0  0  0  0  0  0  0  0  0
   -2.5578   -0.9720   -1.0128 C   0  0  2  0  0  0  0  0  0  0  0  0
   -1.9877   -1.2269   -2.4208 C   0  0  0  0  0  0  0  0  0  0  0  0
   -2.6475   -2.3676   -3.0685 C   0  0  0  0  0  0  0  0  0  0  0  0
   -3.7933   -2.2065   -3.8604 C   0  0  0  0  0  0  0  0  0  0  0  0
   -4.3819   -3.2979   -4.4558 C   0  0  0  0  0  0  0  0  0  0  0  0
   -3.8748   -4.5622   -4.2969 C   0  0  0  0  0  0  0  0  0  0  0  0
   -2.7440   -4.7311   -3.5176 C   0  0  0  0  0  0  0  0  0  0  0  0
   -2.1514   -3.6409   -2.9194 C   0  0  0  0  0  0  0  0  0  0  0  0
   -3.9751   -0.8297   -1.0624 N   0  0  0  0  0  0  0  0  0  0  0  0
   -4.9351   -1.8953   -0.2118 S   0  0  0  0  0  0  0  0  0  0  0  0
   -4.9479   -3.3176   -0.6689 O   0  0  0  0  0  0  0  0  0  0  0  0
   -6.3951   -1.4276   -0.4546 O   0  0  0  0  0  0  0  0  0  0  0  0
   -4.7841   -1.9267    1.5465 C   0  0  0  0  0  0  0  0  0  0  0  0
   -5.2045   -0.6994    2.2298 C   0  0  0  0  0  0  0  0  0  0  0  0
   -6.5609   -0.5274    2.5821 C   0  0  0  0  0  0  0  0  0  0  0  0
   -6.9799    0.6074    3.2301 C   0  0  0  0  0  0  0  0  0  0  0  0
   -6.0914    1.6154    3.5584 C   0  0  0  0  0  0  0  0  0  0  0  0
   -4.7760    1.4540    3.2201 C   0  0  0  0  0  0  0  0  0  0  0  0
   -4.3690    0.3151    2.5725 C   0  0  0  0  0  0  0  0  0  0  0  0
    3.6704    4.6271   -0.1571 C   0  0  0  0  0  0  0  0  0  0  0  0
    3.0222    5.2286    0.7028 O   0  0  0  0  0  0  0  0  0  0  0  0
    9.4715   -0.3092    1.2977 H   0  0  0  0  0  0  0  0  0  0  0  0
    9.8624    1.3318    2.0283 H   0  0  0  0  0  0  0  0  0  0  0  0
    8.8533    1.8583   -1.7774 H   0  0  0  0  0  0  0  0  0  0  0  0
    7.2875    2.9462   -0.1045 H   0  0  0  0  0  0  0  0  0  0  0  0
    6.2365    0.3618    0.6948 H   0  0  0  0  0  0  0  0  0  0  0  0
    6.7409    1.2672    2.1264 H   0  0  0  0  0  0  0  0  0  0  0  0
    4.4010    1.7005    1.6704 H   0  0  0  0  0  0  0  0  0  0  0  0
    5.4153    3.2196    1.4361 H   0  0  0  0  0  0  0  0  0  0  0  0
    4.5691    1.4193   -0.9210 H   0  0  0  0  0  0  0  0  0  0  0  0
    5.4480    2.9608   -0.9349 H   0  0  0  0  0  0  0  0  0  0  0  0
    3.1522    3.1545   -1.5815 H   0  0  0  0  0  0  0  0  0  0  0  0
    2.3563    2.8712    1.3244 H   0  0  0  0  0  0  0  0  0  0  0  0
   -0.4111    2.0504    0.9724 H   0  0  0  0  0  0  0  0  0  0  0  0
    0.1140    0.4767    2.5411 H   0  0  0  0  0  0  0  0  0  0  0  0
    1.8227    1.0628    2.1029 H   0  0  0  0  0  0  0  0  0  0  0  0
    2.2864   -1.0212    1.0825 H   0  0  0  0  0  0  0  0  0  0  0  0
    0.7731   -1.6276    1.9063 H   0  0  0  0  0  0  0  0  0  0  0  0
    1.0958   -0.8065   -0.9770 H   0  0  0  0  0  0  0  0  0  0  0  0
   -0.0626   -1.9177   -0.1898 H   0  0  0  0  0  0  0  0  0  0  0  0
   -2.2996   -1.8408   -0.4084 H   0  0  0  0  0  0  0  0  0  0  0  0
   -0.9285   -1.4767   -2.2976 H   0  0  0  0  0  0  0  0  0  0  0  0
   -2.0820   -0.2945   -3.0305 H   0  0  0  0  0  0  0  0  0  0  0  0
   -4.2175   -1.2443   -4.0072 H   0  0  0  0  0  0  0  0  0  0  0  0
   -5.2740   -3.2060   -5.0790 H   0  0  0  0  0  0  0  0  0  0  0  0
   -4.3794   -5.4060   -4.7903 H   0  0  0  0  0  0  0  0  0  0  0  0
   -2.3455   -5.7170   -3.3919 H   0  0  0  0  0  0  0  0  0  0  0  0
   -1.2832   -3.8209   -2.3315 H   0  0  0  0  0  0  0  0  0  0  0  0
   -4.2897    0.1657   -1.0786 H   0  0  0  0  0  0  0  0  0  0  0  0
   -5.2976   -2.8073    1.9854 H   0  0  0  0  0  0  0  0  0  0  0  0
   -3.6942   -2.0969    1.8321 H   0  0  0  0  0  0  0  0  0  0  0  0
   -7.2186   -1.3260    2.3136 H   0  0  0  0  0  0  0  0  0  0  0  0
   -8.0306    0.7214    3.4957 H   0  0  0  0  0  0  0  0  0  0  0  0
   -6.4432    2.5239    4.0785 H   0  0  0  0  0  0  0  0  0  0  0  0
   -4.0433    2.2240    3.4593 H   0  0  0  0  0  0  0  0  0  0  0  0
   -3.3017    0.2102    2.3185 H   0  0  0  0  0  0  0  0  0  0  0  0
    4.4425    5.1831   -0.6623 H   0  0  0  0  0  0  0  0  0  0  0  0
  1  2  1  0
  2  3  2  3
  2  4  1  0
  4  5  1  0
  5  6  1  0
  6  7  1  0
  7  8  1  0
  8  9  1  0
  9 10  1  0
 10 11  2  0
 10 12  1  0
 12 13  1  0
 13 14  1  0
 14 15  1  0
 15 16  1  0
 16 17  1  0
 17 18  2  0
 17 19  1  0
 19 20  1  0
 20 21  1  0
 21 22  2  0
 22 23  1  0
 23 24  2  0
 24 25  1  0
 25 26  2  0
 19 27  1  0
 27 28  1  0
 28 29  2  0
 28 30  2  0
 28 31  1  0
 31 32  1  0
 32 33  2  0
 33 34  1  0
 34 35  2  0
 35 36  1  0
 36 37  2  0
  8 38  1  0
 38 39  2  0
 16 12  1  0
 26 21  1  0
 37 32  1  0
  1 40  1  0
  1 41  1  0
  3 42  1  0
  4 43  1  0
  5 44  1  0
  5 45  1  0
  6 46  1  0
  6 47  1  0
  7 48  1  0
  7 49  1  0
  8 50  1  6
  9 51  1  0
 12 52  1  1
 13 53  1  0
 13 54  1  0
 14 55  1  0
 14 56  1  0
 15 57  1  0
 15 58  1  0
 19 59  1  1
 20 60  1  0
 20 61  1  0
 22 62  1  0
 23 63  1  0
 24 64  1  0
 25 65  1  0
 26 66  1  0
 27 67  1  0
 31 68  1  0
 31 69  1  0
 33 70  1  0
 34 71  1  0
 35 72  1  0
 36 73  1  0
 37 74  1  0
 38 75  1  0
M  END
$$$$
[H]Oc1c([H])c(C([H])([H])[H])c2c(oc(=O)c3c(O[H])c([H])c(OC([H])([H])[H])c([H])c32)c1[H]
     RDKit          3D

 32 34  0  0  0  0  0  0  0  0999 V2000
    3.6241    1.6630   -0.7343 C   0  0  0  0  0  0  0  0  0  0  0  0
    3.4459    0.4521   -1.4358 O   0  0  0  0  0  0  0  0  0  0  0  0
    2.2544   -0.2832   -1.3068 C   0  0  0  0  0  0  0  0  0  0  0  0
    2.1294   -1.4347   -1.9966 C   0  0  0  0  0  0  0  0  0  0  0  0
    0.9428   -2.2017   -1.8913 C   0  0  0  0  0  0  0  0  0  0  0  0
    0.8906   -3.3449   -2.6133 O   0  0  0  0  0  0  0  0  0  0  0  0
   -0.0704   -1.7479   -1.0752 C   0  0  0  0  0  0  0  0  0  0  0  0
    0.0924   -0.5535   -0.3757 C   0  0  0  0  0  0  0  0  0  0  0  0
    1.2260    0.1889   -0.4711 C   0  0  0  0  0  0  0  0  0  0  0  0
   -0.9605   -0.1208    0.4387 C   0  0  0  0  0  0  0  0  0  0  0  0
   -0.8599    1.0411    1.1523 C   0  0  0  0  0  0  0  0  0  0  0  0
    0.2814    1.9227    1.1923 C   0  0  0  0  0  0  0  0  0  0  0  0
   -1.9961    1.3831    1.9456 C   0  0  0  0  0  0  0  0  0  0  0  0
   -3.1163    0.6093    1.9992 C   0  0  0  0  0  0  0  0  0  0  0  0
   -4.1647    1.0084    2.7859 O   0  0  0  0  0  0  0  0  0  0  0  0
   -3.1914   -0.5397    1.2831 C   0  0  0  0  0  0  0  0  0  0  0  0
   -2.1174   -0.9107    0.5010 C   0  0  0  0  0  0  0  0  0  0  0  0
   -2.2033   -2.0186   -0.1815 O   0  0  0  0  0  0  0  0  0  0  0  0
   -1.2490   -2.4613   -0.9502 C   0  0  0  0  0  0  0  0  0  0  0  0
   -1.3940   -3.5413   -1.5839 O   0  0  0  0  0  0  0  0  0  0  0  0
    4.6541    2.0313   -0.8333 H   0  0  0  0  0  0  0  0  0  0  0  0
    2.9371    2.4633   -1.1041 H   0  0  0  0  0  0  0  0  0  0  0  0
    3.4320    1.4726    0.3590 H   0  0  0  0  0  0  0  0  0  0  0  0
    2.9117   -1.8146   -2.6452 H   0  0  0  0  0  0  0  0  0  0  0  0
    0.3096   -4.0551   -2.7805 H   0  0  0  0  0  0  0  0  0  0  0  0
    1.4710    1.0750   -0.0327 H   0  0  0  0  0  0  0  0  0  0  0  0
   -0.0076    2.7339    1.9769 H   0  0  0  0  0  0  0  0  0  0  0  0
    1.1781    1.6057    1.7800 H   0  0  0  0  0  0  0  0  0  0  0  0
    0.4221    2.6520    0.3692 H   0  0  0  0  0  0  0  0  0  0  0  0
   -1.9061    2.3089    2.5050 H   0  0  0  0  0  0  0  0  0  0  0  0
   -4.9063    1.6002    2.4269 H   0  0  0  0  0  0  0  0  0  0  0  0
   -4.0597   -1.1837    1.2962 H   0  0  0  0  0  0  0  0  0  0  0  0
  1  2  1  0
  2  3  1  0
  3  4  2  0
  4  5  1  0
  5  6  1  0
  5  7  2  0
  7  8  1  0
  8  9  2  0
  8 10  1  0
 10 11  2  0
 11 12  1  0
 11 13  1  0
 13 14  2  0
 14 15  1  0
 14 16  1  0
 16 17  2  0
 17 18  1  0
 18 19  1  0
 19 20  2  0
  9  3  1  0
 17 10  1  0
 19  7  1  0
  1 21  1  0
  1 22  1  0
  1 23  1  0
  4 24  1  0
  6 25  1  0
  9 26  1  0
 12 27  1  0
 12 28  1  0
 12 29  1  0
 13 30  1  0
 15 31  1  0
 16 32  1  0
M  END
$$$$
[H]c1oc(C(=O)N([H])[C@@]2([H])C([H])([H])N(c3nc(N([H])[H])c4c([H])c(OC([H])([H])[H])c(OC([H])([H])[H])c([H])c4n3)C([H])([H])C([H])([H])C2([H])[H])c([H])c1[H]
     RDKit          3D

 52 55  0  0  0  0  0  0  0  0999 V2000
   -5.7445   -0.4154   -2.9918 C   0  0  0  0  0  0  0  0  0  0  0  0
   -5.7254    0.1766   -1.6975 O   0  0  0  0  0  0  0  0  0  0  0  0
   -4.5442    0.0684   -0.9385 C   0  0  0  0  0  0  0  0  0  0  0  0
   -3.4378   -0.5902   -1.4299 C   0  0  0  0  0  0  0  0  0  0  0  0
   -2.2997   -0.6608   -0.6259 C   0  0  0  0  0  0  0  0  0  0  0  0
   -1.1854   -1.2932   -1.0545 N   0  0  0  0  0  0  0  0  0  0  0  0
   -0.0588   -1.3966   -0.3311 C   0  0  0  0  0  0  0  0  0  0  0  0
   -0.0438   -0.8370    0.8890 N   0  0  0  0  0  0  0  0  0  0  0  0
   -1.0946   -0.1848    1.4138 C   0  0  0  0  0  0  0  0  0  0  0  0
   -1.0936    0.4079    2.6936 N   0  0  0  0  0  0  0  0  0  0  0  0
   -2.2457   -0.0987    0.6325 C   0  0  0  0  0  0  0  0  0  0  0  0
   -3.3588    0.5606    1.1198 C   0  0  0  0  0  0  0  0  0  0  0  0
   -4.4799    0.6269    0.3209 C   0  0  0  0  0  0  0  0  0  0  0  0
   -5.6059    1.2853    0.7956 O   0  0  0  0  0  0  0  0  0  0  0  0
   -5.6185    1.8849    2.0786 C   0  0  0  0  0  0  0  0  0  0  0  0
    1.0970   -2.0861   -0.8479 N   0  0  0  0  0  0  0  0  0  0  0  0
    1.0952   -2.6911   -2.1526 C   0  0  0  0  0  0  0  0  0  0  0  0
    2.5162   -2.5288   -2.7000 C   0  0  0  0  0  0  0  0  0  0  0  0
    3.0325   -1.1983   -2.1581 C   0  0  0  0  0  0  0  0  0  0  0  0
    3.3552   -1.3131   -0.6882 C   0  0  2  0  0  0  0  0  0  0  0  0
    2.2975   -2.1796   -0.0441 C   0  0  0  0  0  0  0  0  0  0  0  0
    3.3468    0.0278   -0.1349 N   0  0  0  0  0  0  0  0  0  0  0  0
    4.5180    0.5113    0.5080 C   0  0  0  0  0  0  0  0  0  0  0  0
    5.5449   -0.1916    0.6040 O   0  0  0  0  0  0  0  0  0  0  0  0
    4.5267    1.8709    1.0756 C   0  0  0  0  0  0  0  0  0  0  0  0
    5.5801    2.4783    1.7254 C   0  0  0  0  0  0  0  0  0  0  0  0
    5.1635    3.7461    2.0945 C   0  0  0  0  0  0  0  0  0  0  0  0
    3.8663    3.8467    1.6466 C   0  0  0  0  0  0  0  0  0  0  0  0
    3.5433    2.7341    1.0628 O   0  0  0  0  0  0  0  0  0  0  0  0
   -5.7688   -1.5187   -2.9514 H   0  0  0  0  0  0  0  0  0  0  0  0
   -6.6027   -0.0701   -3.5880 H   0  0  0  0  0  0  0  0  0  0  0  0
   -4.8262   -0.1361   -3.5800 H   0  0  0  0  0  0  0  0  0  0  0  0
   -3.4326   -1.0425   -2.4011 H   0  0  0  0  0  0  0  0  0  0  0  0
   -0.3771    1.0741    3.0470 H   0  0  0  0  0  0  0  0  0  0  0  0
   -1.8708    0.1651    3.3474 H   0  0  0  0  0  0  0  0  0  0  0  0
   -3.2916    0.9915    2.1061 H   0  0  0  0  0  0  0  0  0  0  0  0
   -6.6163    2.2853    2.2904 H   0  0  0  0  0  0  0  0  0  0  0  0
   -4.8734    2.6980    2.1419 H   0  0  0  0  0  0  0  0  0  0  0  0
   -5.4142    1.1113    2.8576 H   0  0  0  0  0  0  0  0  0  0  0  0
    0.8460   -3.7613   -2.0353 H   0  0  0  0  0  0  0  0  0  0  0  0
    0.3663   -2.1681   -2.8257 H   0  0  0  0  0  0  0  0  0  0  0  0
    3.0941   -3.3763   -2.3275 H   0  0  0  0  0  0  0  0  0  0  0  0
    2.4576   -2.4300   -3.7864 H   0  0  0  0  0  0  0  0  0  0  0  0
    2.2437   -0.4259   -2.2656 H   0  0  0  0  0  0  0  0  0  0  0  0
    3.9236   -0.9183   -2.7619 H   0  0  0  0  0  0  0  0  0  0  0  0
    4.3351   -1.7885   -0.5135 H   0  0  0  0  0  0  0  0  0  0  0  0
    2.6790   -3.2287    0.0082 H   0  0  0  0  0  0  0  0  0  0  0  0
    2.1294   -1.8294    0.9997 H   0  0  0  0  0  0  0  0  0  0  0  0
    2.5006    0.6410   -0.1999 H   0  0  0  0  0  0  0  0  0  0  0  0
    6.5472    2.0100    1.8960 H   0  0  0  0  0  0  0  0  0  0  0  0
    5.7785    4.4573    2.6218 H   0  0  0  0  0  0  0  0  0  0  0  0
    3.2259    4.6998    1.7590 H   0  0  0  0  0  0  0  0  0  0  0  0
  1  2  1  0
  2  3  1  0
  3  4  2  0
  4  5  1  0
  5  6  2  0
  6  7  1  0
  7  8  2  0
  8  9  1  0
  9 10  1  0
  9 11  2  0
 11 12  1  0
 12 13  2  0
 13 14  1  0
 14 15  1  0
  7 16  1  0
 16 17  1  0
 17 18  1  0
 18 19  1  0
 19 20  1  0
 20 21  1  0
 20 22  1  0
 22 23  1  0
 23 24  2  0
 23 25  1  0
 25 26  2  0
 26 27  1  0
 27 28  2  0
 28 29  1  0
 13  3  1  0
 21 16  1  0
 29 25  1  0
 11  5  1  0
  1 30  1  0
  1 31  1  0
  1 32  1  0
  4 33  1  0
 10 34  1  0
 10 35  1  0
 12 36  1  0
 15 37  1  0
 15 38  1  0
 15 39  1  0
 17 40  1  0
 17 41  1  0
 18 42  1  0
 18 43  1  0
 19 44  1  0
 19 45  1  0
 20 46  1  6
 21 47  1  0
 21 48  1  0
 22 49  1  0
 26 50  1  0
 27 51  1  0
 28 52  1  0
M  END
$$$$
[H]OC(=O)[C@@]([H])(N([H])C(=O)[C@@]([H])(N([H])C(=O)[C@@]([H])(N([H])[H])C([H])([H])c1c([H])c([H])c([H])c([H])c1[H])C([H])([H])C([H])(C([H])([H])[H])C([H])([H])[H])C([H])([H])c1c([H])c([H])c(O[H])c([H])c1[H]
     RDKit          3D

 63 64  0  0  0  0  0  0  0  0999 V2000
   -1.0983   -2.9683    2.6597 C   0  0  0  0  0  0  0  0  0  0  0  0
   -1.0924   -3.2968    1.1693 C   0  0  0  0  0  0  0  0  0  0  0  0
   -2.4463   -3.1992    0.5518 C   0  0  0  0  0  0  0  0  0  0  0  0
   -0.0176   -2.5602    0.4349 C   0  0  0  0  0  0  0  0  0  0  0  0
   -0.0929   -1.0805    0.4924 C   0  0  2  0  0  0  0  0  0  0  0  0
   -1.2699   -0.4926   -0.0325 N   0  0  0  0  0  0  0  0  0  0  0  0
   -2.0937    0.4073    0.6996 C   0  0  0  0  0  0  0  0  0  0  0  0
   -1.8077    0.7361    1.8893 O   0  0  0  0  0  0  0  0  0  0  0  0
   -3.3222    1.0125    0.1318 C   0  0  1  0  0  0  0  0  0  0  0  0
   -3.5948    0.5910   -1.2104 N   0  0  0  0  0  0  0  0  0  0  0  0
   -4.5287    0.7365    1.0364 C   0  0  0  0  0  0  0  0  0  0  0  0
   -5.7405    1.3410    0.4634 C   0  0  0  0  0  0  0  0  0  0  0  0
   -6.5455    0.6397   -0.4032 C   0  0  0  0  0  0  0  0  0  0  0  0
   -7.6949    1.2033   -0.9518 C   0  0  0  0  0  0  0  0  0  0  0  0
   -8.0408    2.4974   -0.6223 C   0  0  0  0  0  0  0  0  0  0  0  0
   -7.2365    3.2055    0.2468 C   0  0  0  0  0  0  0  0  0  0  0  0
   -6.1031    2.6237    0.7764 C   0  0  0  0  0  0  0  0  0  0  0  0
    1.0807   -0.5344   -0.2598 C   0  0  0  0  0  0  0  0  0  0  0  0
    0.9094    0.3095   -1.1924 O   0  0  0  0  0  0  0  0  0  0  0  0
    2.4076   -0.9312    0.0345 N   0  0  0  0  0  0  0  0  0  0  0  0
    3.5429   -0.3719   -0.7268 C   0  0  1  0  0  0  0  0  0  0  0  0
    4.3886    0.3612    0.2804 C   0  0  0  0  0  0  0  0  0  0  0  0
    5.5829    1.0113   -0.2366 C   0  0  0  0  0  0  0  0  0  0  0  0
    5.5281    2.2780   -0.7704 C   0  0  0  0  0  0  0  0  0  0  0  0
    6.6635    2.9297   -1.2386 C   0  0  0  0  0  0  0  0  0  0  0  0
    7.8926    2.3121   -1.1782 C   0  0  0  0  0  0  0  0  0  0  0  0
    9.0432    2.9455   -1.6410 O   0  0  0  0  0  0  0  0  0  0  0  0
    7.9319    1.0320   -0.6361 C   0  0  0  0  0  0  0  0  0  0  0  0
    6.8043    0.3869   -0.1720 C   0  0  0  0  0  0  0  0  0  0  0  0
    4.3104   -1.4634   -1.3485 C   0  0  0  0  0  0  0  0  0  0  0  0
    5.3762   -1.2892   -2.1902 O   0  0  0  0  0  0  0  0  0  0  0  0
    3.9561   -2.6662   -1.0876 O   0  0  0  0  0  0  0  0  0  0  0  0
   -0.0627   -2.8131    2.9790 H   0  0  0  0  0  0  0  0  0  0  0  0
   -1.7434   -2.0811    2.8681 H   0  0  0  0  0  0  0  0  0  0  0  0
   -1.6034   -3.8228    3.1651 H   0  0  0  0  0  0  0  0  0  0  0  0
   -0.7938   -4.3874    1.1281 H   0  0  0  0  0  0  0  0  0  0  0  0
   -2.9655   -4.1992    0.5606 H   0  0  0  0  0  0  0  0  0  0  0  0
   -3.1477   -2.5303    1.1264 H   0  0  0  0  0  0  0  0  0  0  0  0
   -2.3946   -2.9169   -0.5209 H   0  0  0  0  0  0  0  0  0  0  0  0
   -0.0242   -2.9228   -0.6129 H   0  0  0  0  0  0  0  0  0  0  0  0
    0.9562   -2.8785    0.8614 H   0  0  0  0  0  0  0  0  0  0  0  0
    0.0337   -0.7184    1.5451 H   0  0  0  0  0  0  0  0  0  0  0  0
   -1.5715   -0.7148   -1.0060 H   0  0  0  0  0  0  0  0  0  0  0  0
   -3.1706    2.1155    0.1681 H   0  0  0  0  0  0  0  0  0  0  0  0
   -3.7856   -0.4093   -1.3123 H   0  0  0  0  0  0  0  0  0  0  0  0
   -2.8672    0.9716   -1.8428 H   0  0  0  0  0  0  0  0  0  0  0  0
   -4.3253    1.0097    2.0718 H   0  0  0  0  0  0  0  0  0  0  0  0
   -4.6815   -0.3753    1.0147 H   0  0  0  0  0  0  0  0  0  0  0  0
   -6.2622   -0.3763   -0.6540 H   0  0  0  0  0  0  0  0  0  0  0  0
   -8.3125    0.6518   -1.6224 H   0  0  0  0  0  0  0  0  0  0  0  0
   -8.9130    3.0008   -1.0053 H   0  0  0  0  0  0  0  0  0  0  0  0
   -7.4524    4.2247    0.5455 H   0  0  0  0  0  0  0  0  0  0  0  0
   -5.4855    3.1899    1.4535 H   0  0  0  0  0  0  0  0  0  0  0  0
    2.5590   -1.6192    0.7924 H   0  0  0  0  0  0  0  0  0  0  0  0
    3.1492    0.3478   -1.4947 H   0  0  0  0  0  0  0  0  0  0  0  0
    3.6825    1.0918    0.7784 H   0  0  0  0  0  0  0  0  0  0  0  0
    4.6230   -0.3662    1.0971 H   0  0  0  0  0  0  0  0  0  0  0  0
    4.5966    2.8268   -0.8508 H   0  0  0  0  0  0  0  0  0  0  0  0
    6.6258    3.9259   -1.6593 H   0  0  0  0  0  0  0  0  0  0  0  0
    9.6126    3.5276   -1.0198 H   0  0  0  0  0  0  0  0  0  0  0  0
    8.8852    0.5214   -0.5757 H   0  0  0  0  0  0  0  0  0  0  0  0
    6.9129   -0.6225    0.2426 H   0  0  0  0  0  0  0  0  0  0  0  0
    5.2335   -1.3573   -3.1890 H   0  0  0  0  0  0  0  0  0  0  0  0
  1  2  1  0
  2  3  1  0
  2  4  1  0
  4  5  1  0
  5  6  1  0
  6  7  1  0
  7  8  2  0
  7  9  1  0
  9 10  1  0
  9 11  1  0
 11 12  1  0
 12 13  2  0
 13 14  1  0
 14 15  2  0
 15 16  1  0
 16 17  2  0
  5 18  1  0
 18 19  2  0
 18 20  1  0
 20 21  1  0
 21 22  1  0
 22 23  1  0
 23 24  2  0
 24 25  1  0
 25 26  2  0
 26 27  1  0
 26 28  1  0
 28 29  2  0
 21 30  1  0
 30 31  1  0
 30 32  2  0
 17 12  1  0
 29 23  1  0
  1 33  1  0
  1 34  1  0
  1 35  1  0
  2 36  1  0
  3 37  1  0
  3 38  1  0
  3 39  1  0
  4 40  1  0
  4 41  1  0
  5 42  1  1
  6 43  1  0
  9 44  1  6
 10 45  1  0
 10 46  1  0
 11 47  1  0
 11 48  1  0
 13 49  1  0
 14 50  1  0
 15 51  1  0
 16 52  1  0
 17 53  1  0
 20 54  1  0
 21 55  1  6
 22 56  1  0
 22 57  1  0
 24 58  1  0
 25 59  1  0
 27 60  1  0
 28 61  1  0
 29 62  1  0
 31 63  1  0
M  END
$$$$
[H]OC(=O)[C@@]1([H])N(C(=O)c2[se]c(-c3c([H])c([H])c(OC([H])(C([H])([H])[H])C([H])([H])[H])c(C#N)c3[H])nc2C([H])([H])[H])C([H])([H])C([H])([H])C1([H])[H]
     RDKit          3D

 49 51  0  0  0  0  0  0  0  0999 V2000
    7.9188    0.4649   -1.4938 C   0  0  0  0  0  0  0  0  0  0  0  0
    6.9172    1.2701   -0.6869 C   0  0  0  0  0  0  0  0  0  0  0  0
    7.7330    2.1305    0.2675 C   0  0  0  0  0  0  0  0  0  0  0  0
    6.1329    0.3849    0.0523 O   0  0  0  0  0  0  0  0  0  0  0  0
    4.7800    0.2041   -0.0043 C   0  0  0  0  0  0  0  0  0  0  0  0
    3.9162    0.8937   -0.8369 C   0  0  0  0  0  0  0  0  0  0  0  0
    2.5441    0.6548   -0.8394 C   0  0  0  0  0  0  0  0  0  0  0  0
    2.0620   -0.2881    0.0096 C   0  0  0  0  0  0  0  0  0  0  0  0
    2.8759   -0.9753    0.8311 C   0  0  0  0  0  0  0  0  0  0  0  0
    4.2402   -0.7618    0.8574 C   0  0  0  0  0  0  0  0  0  0  0  0
    5.1049   -1.4998    1.7379 C   0  0  0  0  0  0  0  0  0  0  0  0
    5.7808   -2.1024    2.4518 N   0  0  0  0  0  0  0  0  0  0  0  0
    0.6503   -0.5753    0.0479 C   0  0  0  0  0  0  0  0  0  0  0  0
   -0.2352   -1.2737    0.5849 N   0  0  0  0  0  0  0  0  0  0  0  0
   -1.4823   -1.4176    0.5101 C   0  0  0  0  0  0  0  0  0  0  0  0
   -2.1374   -2.5577    1.3518 C   0  0  0  0  0  0  0  0  0  0  0  0
   -2.3056   -0.7408   -0.2980 C   0  0  0  0  0  0  0  0  0  0  0  0
   -0.7113    0.4446   -1.2009 Se  0  0  0  0  0  2  0  0  0  0  0  0
   -3.6309   -0.4153   -0.6751 C   0  0  0  0  0  0  0  0  0  0  0  0
   -3.6750    0.2112   -1.8369 O   0  0  0  0  0  0  0  0  0  0  0  0
   -4.9141   -0.5728   -0.1504 N   0  0  0  0  0  0  0  0  0  0  0  0
   -5.1734   -1.1435    1.1978 C   0  0  0  0  0  0  0  0  0  0  0  0
   -6.5373   -0.5698    1.6229 C   0  0  0  0  0  0  0  0  0  0  0  0
   -6.7977    0.4947    0.5452 C   0  0  0  0  0  0  0  0  0  0  0  0
   -6.2211   -0.3424   -0.6421 C   0  0  1  0  0  0  0  0  0  0  0  0
   -6.5635    0.2360   -1.8956 C   0  0  0  0  0  0  0  0  0  0  0  0
   -8.0043    0.3432   -2.1040 O   0  0  0  0  0  0  0  0  0  0  0  0
   -5.9538    0.6766   -2.8657 O   0  0  0  0  0  0  0  0  0  0  0  0
    8.1747   -0.4903   -0.9995 H   0  0  0  0  0  0  0  0  0  0  0  0
    8.8086    1.0871   -1.6478 H   0  0  0  0  0  0  0  0  0  0  0  0
    7.4413    0.2396   -2.4723 H   0  0  0  0  0  0  0  0  0  0  0  0
    6.3249    1.8640   -1.3773 H   0  0  0  0  0  0  0  0  0  0  0  0
    8.3036    1.4140    0.9043 H   0  0  0  0  0  0  0  0  0  0  0  0
    8.4247    2.7603   -0.3289 H   0  0  0  0  0  0  0  0  0  0  0  0
    7.0511    2.7739    0.8240 H   0  0  0  0  0  0  0  0  0  0  0  0
    4.3262    1.6427   -1.5066 H   0  0  0  0  0  0  0  0  0  0  0  0
    1.9539    1.2333   -1.5144 H   0  0  0  0  0  0  0  0  0  0  0  0
    2.4580   -1.7245    1.4996 H   0  0  0  0  0  0  0  0  0  0  0  0
   -2.9094   -3.0612    0.7961 H   0  0  0  0  0  0  0  0  0  0  0  0
   -2.5070   -2.1581    2.2956 H   0  0  0  0  0  0  0  0  0  0  0  0
   -1.3663   -3.3678    1.5310 H   0  0  0  0  0  0  0  0  0  0  0  0
   -4.4098   -0.7850    1.9192 H   0  0  0  0  0  0  0  0  0  0  0  0
   -5.2058   -2.2210    1.1345 H   0  0  0  0  0  0  0  0  0  0  0  0
   -7.3365   -1.3287    1.4907 H   0  0  0  0  0  0  0  0  0  0  0  0
   -6.5086   -0.1443    2.6252 H   0  0  0  0  0  0  0  0  0  0  0  0
   -7.8565    0.6892    0.4192 H   0  0  0  0  0  0  0  0  0  0  0  0
   -6.1329    1.3427    0.6945 H   0  0  0  0  0  0  0  0  0  0  0  0
   -6.8539   -1.3148   -0.5013 H   0  0  0  0  0  0  0  0  0  0  0  0
   -8.4939   -0.5193   -2.3243 H   0  0  0  0  0  0  0  0  0  0  0  0
  1  2  1  0
  2  3  1  0
  2  4  1  0
  4  5  1  0
  5  6  2  0
  6  7  1  0
  7  8  2  0
  8  9  1  0
  9 10  2  0
 10 11  1  0
 11 12  3  0
  8 13  1  0
 13 14  2  0
 14 15  1  0
 15 16  1  0
 15 17  2  0
 17 18  1  0
 17 19  1  0
 19 20  2  0
 19 21  1  0
 21 22  1  0
 22 23  1  0
 23 24  1  0
 24 25  1  0
 25 26  1  0
 26 27  1  0
 26 28  2  0
 10  5  1  0
 18 13  1  0
 25 21  1  0
  1 29  1  0
  1 30  1  0
  1 31  1  0
  2 32  1  0
  3 33  1  0
  3 34  1  0
  3 35  1  0
  6 36  1  0
  7 37  1  0
  9 38  1  0
 16 39  1  0
 16 40  1  0
 16 41  1  0
 22 42  1  0
 22 43  1  0
 23 44  1  0
 23 45  1  0
 24 46  1  0
 24 47  1  0
 25 48  1  6
 27 49  1  0
M  END
$$$$
[H]c1c([H])c([C@@]([H])(OC(=O)c2c([H])c([H])c(C([H])([H])N3C([H])([H])C([H])([H])OC([H])([H])C3([H])[H])c([H])c2[H])C([H])([H])c2c(Cl)c([H])[n+]([O-])c([H])c2Cl)c([H])c(OC([H])([H])[H])c1OC([H])([H])[H]
     RDKit          3D

 65 68  0  0  0  0  0  0  0  0999 V2000
   -5.5994   -4.6139   -2.0908 C   0  0  0  0  0  0  0  0  0  0  0  0
   -5.7950   -4.0376   -0.8055 O   0  0  0  0  0  0  0  0  0  0  0  0
   -4.9997   -2.9370   -0.4818 C   0  0  0  0  0  0  0  0  0  0  0  0
   -4.0663   -2.4043   -1.3242 C   0  0  0  0  0  0  0  0  0  0  0  0
   -3.3161   -1.3163   -0.9388 C   0  0  0  0  0  0  0  0  0  0  0  0
   -3.4554   -0.7103    0.2910 C   0  0  0  0  0  0  0  0  0  0  0  0
   -4.4032   -1.2632    1.1272 C   0  0  0  0  0  0  0  0  0  0  0  0
   -5.1682   -2.3537    0.7645 C   0  0  0  0  0  0  0  0  0  0  0  0
   -6.0957   -2.8489    1.6566 O   0  0  0  0  0  0  0  0  0  0  0  0
   -6.2403   -2.2327    2.9129 C   0  0  0  0  0  0  0  0  0  0  0  0
   -2.6170    0.4673    0.6530 C   0  0  2  0  0  0  0  0  0  0  0  0
   -3.2686    1.6564    0.1201 C   0  0  0  0  0  0  0  0  0  0  0  0
   -2.7486    2.9698    0.2755 C   0  0  0  0  0  0  0  0  0  0  0  0
   -2.8176    3.6996    1.4382 C   0  0  0  0  0  0  0  0  0  0  0  0
   -3.5994    2.9210    2.7640 Cl  0  0  0  0  0  0  0  0  0  0  0  0
   -2.3141    4.9598    1.5779 C   0  0  0  0  0  0  0  0  0  0  0  0
   -1.7069    5.5461    0.5243 N   0  0  0  0  0  0  0  0  0  0  0  0
   -1.2180    6.8121    0.7159 O   0  0  0  0  0  0  0  0  0  0  0  0
   -1.6038    4.8868   -0.6488 C   0  0  0  0  0  0  0  0  0  0  0  0
   -2.1205    3.6011   -0.7824 C   0  0  0  0  0  0  0  0  0  0  0  0
   -1.9329    2.8388   -2.3451 Cl  0  0  0  0  0  0  0  0  0  0  0  0
   -1.3141    0.1897    0.2853 O   0  0  0  0  0  0  0  0  0  0  0  0
   -0.2390   -0.0112    1.0782 C   0  0  0  0  0  0  0  0  0  0  0  0
   -0.4033    0.0527    2.3033 O   0  0  0  0  0  0  0  0  0  0  0  0
    1.0689   -0.2926    0.5271 C   0  0  0  0  0  0  0  0  0  0  0  0
    2.1384   -0.4865    1.3736 C   0  0  0  0  0  0  0  0  0  0  0  0
    3.4159   -0.7567    0.9150 C   0  0  0  0  0  0  0  0  0  0  0  0
    3.6449   -0.8386   -0.4369 C   0  0  0  0  0  0  0  0  0  0  0  0
    4.9819   -1.1197   -0.9374 C   0  0  0  0  0  0  0  0  0  0  0  0
    5.7424    0.0029   -1.3668 N   0  0  0  0  0  0  0  0  0  0  0  0
    7.0468   -0.3197   -1.8490 C   0  0  0  0  0  0  0  0  0  0  0  0
    7.9809   -0.7042   -0.7240 C   0  0  0  0  0  0  0  0  0  0  0  0
    7.7057   -0.0586    0.4544 O   0  0  0  0  0  0  0  0  0  0  0  0
    7.0928    1.1584    0.3272 C   0  0  0  0  0  0  0  0  0  0  0  0
    5.8161    1.1175   -0.4891 C   0  0  0  0  0  0  0  0  0  0  0  0
    2.5929   -0.6488   -1.2982 C   0  0  0  0  0  0  0  0  0  0  0  0
    1.3039   -0.3759   -0.8310 C   0  0  0  0  0  0  0  0  0  0  0  0
   -5.8049   -3.8125   -2.8314 H   0  0  0  0  0  0  0  0  0  0  0  0
   -6.2548   -5.4977   -2.2336 H   0  0  0  0  0  0  0  0  0  0  0  0
   -4.5210   -4.8979   -2.1424 H   0  0  0  0  0  0  0  0  0  0  0  0
   -3.9191   -2.8402   -2.2945 H   0  0  0  0  0  0  0  0  0  0  0  0
   -2.5975   -0.9255   -1.6181 H   0  0  0  0  0  0  0  0  0  0  0  0
   -4.5261   -0.7934    2.1080 H   0  0  0  0  0  0  0  0  0  0  0  0
   -5.2265   -2.2097    3.3974 H   0  0  0  0  0  0  0  0  0  0  0  0
   -6.6592   -1.2011    2.8488 H   0  0  0  0  0  0  0  0  0  0  0  0
   -6.8970   -2.9016    3.5394 H   0  0  0  0  0  0  0  0  0  0  0  0
   -2.6531    0.4995    1.7736 H   0  0  0  0  0  0  0  0  0  0  0  0
   -4.3268    1.6521    0.5350 H   0  0  0  0  0  0  0  0  0  0  0  0
   -3.4502    1.4563   -0.9808 H   0  0  0  0  0  0  0  0  0  0  0  0
   -2.3957    5.4854    2.5121 H   0  0  0  0  0  0  0  0  0  0  0  0
   -1.1071    5.4098   -1.4546 H   0  0  0  0  0  0  0  0  0  0  0  0
    1.9814   -0.4262    2.4520 H   0  0  0  0  0  0  0  0  0  0  0  0
    4.2225   -0.9003    1.6512 H   0  0  0  0  0  0  0  0  0  0  0  0
    4.9798   -1.8466   -1.8042 H   0  0  0  0  0  0  0  0  0  0  0  0
    5.6099   -1.6574   -0.1647 H   0  0  0  0  0  0  0  0  0  0  0  0
    7.4747    0.5792   -2.3403 H   0  0  0  0  0  0  0  0  0  0  0  0
    7.0592   -1.1597   -2.5743 H   0  0  0  0  0  0  0  0  0  0  0  0
    7.8723   -1.8097   -0.5357 H   0  0  0  0  0  0  0  0  0  0  0  0
    9.0408   -0.5505   -0.9866 H   0  0  0  0  0  0  0  0  0  0  0  0
    7.8248    1.8913   -0.0492 H   0  0  0  0  0  0  0  0  0  0  0  0
    6.8111    1.4998    1.3547 H   0  0  0  0  0  0  0  0  0  0  0  0
    4.9226    1.2968    0.1423 H   0  0  0  0  0  0  0  0  0  0  0  0
    5.8634    2.0390   -1.1456 H   0  0  0  0  0  0  0  0  0  0  0  0
    2.7067   -0.7004   -2.3728 H   0  0  0  0  0  0  0  0  0  0  0  0
    0.4815   -0.2280   -1.5211 H   0  0  0  0  0  0  0  0  0  0  0  0
  1  2  1  0
  2  3  1  0
  3  4  2  0
  4  5  1  0
  5  6  2  0
  6  7  1  0
  7  8  2  0
  8  9  1  0
  9 10  1  0
  6 11  1  0
 11 12  1  0
 12 13  1  0
 13 14  2  0
 14 15  1  0
 14 16  1  0
 16 17  2  0
 17 18  1  0
 17 19  1  0
 19 20  2  0
 20 21  1  0
 11 22  1  0
 22 23  1  0
 23 24  2  0
 23 25  1  0
 25 26  2  0
 26 27  1  0
 27 28  2  0
 28 29  1  0
 29 30  1  0
 30 31  1  0
 31 32  1  0
 32 33  1  0
 33 34  1  0
 34 35  1  0
 28 36  1  0
 36 37  2  0
  8  3  1  0
 20 13  1  0
 37 25  1  0
 35 30  1  0
  1 38  1  0
  1 39  1  0
  1 40  1  0
  4 41  1  0
  5 42  1  0
  7 43  1  0
 10 44  1  0
 10 45  1  0
 10 46  1  0
 11 47  1  1
 12 48  1  0
 12 49  1  0
 16 50  1  0
 19 51  1  0
 26 52  1  0
 27 53  1  0
 29 54  1  0
 29 55  1  0
 31 56  1  0
 31 57  1  0
 32 58  1  0
 32 59  1  0
 34 60  1  0
 34 61  1  0
 35 62  1  0
 35 63  1  0
 36 64  1  0
 37 65  1  0
M  CHG  2  17   1  18  -1
M  END
$$$$
[H]ON(C([H])=O)C([H])([H])[C@]([H])(C(=O)N1C([H])([H])C([H])([H])C([H])([H])[C@@]1([H])C(=O)N([H])C(=O)N([H])C1([H])C([H])([H])C([H])([H])C([H])([H])C([H])([H])C1([H])[H])C([H])([H])C1([H])C([H])([H])C([H])([H])C([H])([H])C([H])([H])C1([H])[H]
     RDKit          3D

 70 72  0  0  0  0  0  0  0  0999 V2000
   -4.6737   -2.9351    1.6619 O   0  0  0  0  0  0  0  0  0  0  0  0
   -3.7070   -2.0944    2.1663 N   0  0  0  0  0  0  0  0  0  0  0  0
   -3.6465   -0.7581    1.6368 C   0  0  0  0  0  0  0  0  0  0  0  0
   -2.8224   -0.5271    0.4575 C   0  0  1  0  0  0  0  0  0  0  0  0
   -2.8198    0.9118   -0.0328 C   0  0  0  0  0  0  0  0  0  0  0  0
   -4.1638    1.4233   -0.4176 C   0  0  0  0  0  0  0  0  0  0  0  0
   -3.9522    2.8762   -0.8775 C   0  0  0  0  0  0  0  0  0  0  0  0
   -5.3251    3.4868   -1.1479 C   0  0  0  0  0  0  0  0  0  0  0  0
   -5.8681    2.7705   -2.3666 C   0  0  0  0  0  0  0  0  0  0  0  0
   -6.0669    1.3153   -1.9870 C   0  0  0  0  0  0  0  0  0  0  0  0
   -4.7135    0.7217   -1.6595 C   0  0  0  0  0  0  0  0  0  0  0  0
   -1.4442   -0.9736    0.5013 C   0  0  0  0  0  0  0  0  0  0  0  0
   -1.1721   -2.0012   -0.2389 O   0  0  0  0  0  0  0  0  0  0  0  0
   -0.3422   -0.4463    1.2298 N   0  0  0  0  0  0  0  0  0  0  0  0
   -0.4044    0.6347    2.1487 C   0  0  0  0  0  0  0  0  0  0  0  0
    0.7520    0.3339    3.0982 C   0  0  0  0  0  0  0  0  0  0  0  0
    1.8166   -0.0533    2.0777 C   0  0  0  0  0  0  0  0  0  0  0  0
    1.0216   -0.8845    1.0576 C   0  0  1  0  0  0  0  0  0  0  0  0
    1.2833   -2.2956    1.2374 C   0  0  0  0  0  0  0  0  0  0  0  0
    0.3892   -2.9825    1.8429 O   0  0  0  0  0  0  0  0  0  0  0  0
    2.4136   -2.9867    0.8165 N   0  0  0  0  0  0  0  0  0  0  0  0
    3.5768   -2.6385    0.1466 C   0  0  0  0  0  0  0  0  0  0  0  0
    4.4010   -3.6442   -0.0464 O   0  0  0  0  0  0  0  0  0  0  0  0
    4.0439   -1.4341   -0.3623 N   0  0  0  0  0  0  0  0  0  0  0  0
    5.3533   -1.3513   -1.0376 C   0  0  0  0  0  0  0  0  0  0  0  0
    5.2273   -0.7737   -2.4236 C   0  0  0  0  0  0  0  0  0  0  0  0
    6.5469   -0.1091   -2.7952 C   0  0  0  0  0  0  0  0  0  0  0  0
    6.7474    1.1877   -2.0266 C   0  0  0  0  0  0  0  0  0  0  0  0
    6.2525    0.9681   -0.6222 C   0  0  0  0  0  0  0  0  0  0  0  0
    6.2954   -0.4896   -0.2223 C   0  0  0  0  0  0  0  0  0  0  0  0
   -2.8603   -2.6293    3.1626 C   0  0  0  0  0  0  0  0  0  0  0  0
   -2.9854   -3.8084    3.5642 O   0  0  0  0  0  0  0  0  0  0  0  0
   -5.3631   -3.0877    2.3804 H   0  0  0  0  0  0  0  0  0  0  0  0
   -3.3573   -0.0970    2.4969 H   0  0  0  0  0  0  0  0  0  0  0  0
   -4.7351   -0.4759    1.4812 H   0  0  0  0  0  0  0  0  0  0  0  0
   -3.3264   -1.1118   -0.3950 H   0  0  0  0  0  0  0  0  0  0  0  0
   -2.1802    0.9198   -0.9449 H   0  0  0  0  0  0  0  0  0  0  0  0
   -2.3787    1.6239    0.6751 H   0  0  0  0  0  0  0  0  0  0  0  0
   -4.8908    1.4746    0.3993 H   0  0  0  0  0  0  0  0  0  0  0  0
   -3.2910    2.9206   -1.7591 H   0  0  0  0  0  0  0  0  0  0  0  0
   -3.5274    3.4281   -0.0189 H   0  0  0  0  0  0  0  0  0  0  0  0
   -5.1678    4.5633   -1.3082 H   0  0  0  0  0  0  0  0  0  0  0  0
   -5.9539    3.2512   -0.2594 H   0  0  0  0  0  0  0  0  0  0  0  0
   -5.0696    2.8190   -3.1526 H   0  0  0  0  0  0  0  0  0  0  0  0
   -6.8176    3.2309   -2.7111 H   0  0  0  0  0  0  0  0  0  0  0  0
   -6.7243    1.2633   -1.0853 H   0  0  0  0  0  0  0  0  0  0  0  0
   -6.5204    0.7345   -2.8270 H   0  0  0  0  0  0  0  0  0  0  0  0
   -4.0168    1.0077   -2.4892 H   0  0  0  0  0  0  0  0  0  0  0  0
   -4.8270   -0.3495   -1.5145 H   0  0  0  0  0  0  0  0  0  0  0  0
   -0.0914    1.5557    1.5536 H   0  0  0  0  0  0  0  0  0  0  0  0
   -1.3276    0.8204    2.6745 H   0  0  0  0  0  0  0  0  0  0  0  0
    0.5337   -0.5536    3.6996 H   0  0  0  0  0  0  0  0  0  0  0  0
    1.0541    1.1878    3.7005 H   0  0  0  0  0  0  0  0  0  0  0  0
    2.6166   -0.6869    2.5071 H   0  0  0  0  0  0  0  0  0  0  0  0
    2.2429    0.8436    1.6046 H   0  0  0  0  0  0  0  0  0  0  0  0
    1.3447   -0.5091    0.0406 H   0  0  0  0  0  0  0  0  0  0  0  0
    2.3860   -4.0644    1.0711 H   0  0  0  0  0  0  0  0  0  0  0  0
    3.5471   -0.5540   -0.3190 H   0  0  0  0  0  0  0  0  0  0  0  0
    5.7462   -2.3752   -1.1191 H   0  0  0  0  0  0  0  0  0  0  0  0
    5.0612   -1.5610   -3.1917 H   0  0  0  0  0  0  0  0  0  0  0  0
    4.4622    0.0324   -2.4589 H   0  0  0  0  0  0  0  0  0  0  0  0
    7.3833   -0.8147   -2.5736 H   0  0  0  0  0  0  0  0  0  0  0  0
    6.5865    0.0895   -3.8817 H   0  0  0  0  0  0  0  0  0  0  0  0
    7.8160    1.4640   -1.9752 H   0  0  0  0  0  0  0  0  0  0  0  0
    6.1524    1.9926   -2.4999 H   0  0  0  0  0  0  0  0  0  0  0  0
    5.2322    1.3948   -0.5294 H   0  0  0  0  0  0  0  0  0  0  0  0
    6.9252    1.4952    0.0815 H   0  0  0  0  0  0  0  0  0  0  0  0
    7.3245   -0.8581   -0.3686 H   0  0  0  0  0  0  0  0  0  0  0  0
    6.0659   -0.5298    0.8662 H   0  0  0  0  0  0  0  0  0  0  0  0
   -2.0676   -2.0161    3.6080 H   0  0  0  0  0  0  0  0  0  0  0  0
  1  2  1  0
  2  3  1  0
  3  4  1  0
  4  5  1  0
  5  6  1  0
  6  7  1  0
  7  8  1  0
  8  9  1  0
  9 10  1  0
 10 11  1  0
  4 12  1  0
 12 13  2  0
 12 14  1  0
 14 15  1  0
 15 16  1  0
 16 17  1  0
 17 18  1  0
 18 19  1  0
 19 20  2  0
 19 21  1  0
 21 22  1  0
 22 23  2  0
 22 24  1  0
 24 25  1  0
 25 26  1  0
 26 27  1  0
 27 28  1  0
 28 29  1  0
 29 30  1  0
  2 31  1  0
 31 32  2  0
 11  6  1  0
 18 14  1  0
 30 25  1  0
  1 33  1  0
  3 34  1  0
  3 35  1  0
  4 36  1  6
  5 37  1  0
  5 38  1  0
  6 39  1  0
  7 40  1  0
  7 41  1  0
  8 42  1  0
  8 43  1  0
  9 44  1  0
  9 45  1  0
 10 46  1  0
 10 47  1  0
 11 48  1  0
 11 49  1  0
 15 50  1  0
 15 51  1  0
 16 52  1  0
 16 53  1  0
 17 54  1  0
 17 55  1  0
 18 56  1  6
 21 57  1  0
 24 58  1  0
 25 59  1  0
 26 60  1  0
 26 61  1  0
 27 62  1  0
 27 63  1  0
 28 64  1  0
 28 65  1  0
 29 66  1  0
 29 67  1  0
 30 68  1  0
 30 69  1  0
 31 70  1  0
M  END
$$$$
[H]OC(=O)C([H])([H])N([H])C(=O)C1=C(O[H])C([H])([H])C([H])([H])N(C([H])([H])c2c([H])nc(Oc3c([H])c([H])c([H])c(F)c3[H])c([H])c2[H])C1=O
     RDKit          3D

 48 50  0  0  0  0  0  0  0  0999 V2000
   -8.9672    1.1876    1.6531 O   0  0  0  0  0  0  0  0  0  0  0  0
   -7.9599    0.5710    0.9168 C   0  0  0  0  0  0  0  0  0  0  0  0
   -8.3088   -0.0680   -0.0995 O   0  0  0  0  0  0  0  0  0  0  0  0
   -6.5687    0.7138    1.3823 C   0  0  0  0  0  0  0  0  0  0  0  0
   -5.6842   -0.0108    0.4615 N   0  0  0  0  0  0  0  0  0  0  0  0
   -4.2991   -0.0490    0.6558 C   0  0  0  0  0  0  0  0  0  0  0  0
   -3.8899    0.6047    1.7059 O   0  0  0  0  0  0  0  0  0  0  0  0
   -3.3615   -0.7211   -0.1780 C   0  0  0  0  0  0  0  0  0  0  0  0
   -3.5506   -1.4251   -1.2645 C   0  0  0  0  0  0  0  0  0  0  0  0
   -4.8802   -1.5617   -1.7155 O   0  0  0  0  0  0  0  0  0  0  0  0
   -2.4793   -2.0954   -2.0620 C   0  0  0  0  0  0  0  0  0  0  0  0
   -1.2012   -1.3493   -1.9692 C   0  0  0  0  0  0  0  0  0  0  0  0
   -0.8940   -1.2089   -0.5460 N   0  0  0  0  0  0  0  0  0  0  0  0
    0.3394   -1.6444    0.0503 C   0  0  0  0  0  0  0  0  0  0  0  0
    1.4054   -0.6094    0.0543 C   0  0  0  0  0  0  0  0  0  0  0  0
    2.1269   -0.3773   -1.0837 C   0  0  0  0  0  0  0  0  0  0  0  0
    3.1148    0.5734   -1.0835 C   0  0  0  0  0  0  0  0  0  0  0  0
    3.3508    1.2726    0.0790 C   0  0  0  0  0  0  0  0  0  0  0  0
    4.3485    2.2320    0.0782 O   0  0  0  0  0  0  0  0  0  0  0  0
    5.6503    1.8340    0.3060 C   0  0  0  0  0  0  0  0  0  0  0  0
    6.7064    2.7282    0.3258 C   0  0  0  0  0  0  0  0  0  0  0  0
    7.9869    2.2976    0.5554 C   0  0  0  0  0  0  0  0  0  0  0  0
    8.2528    0.9698    0.7712 C   0  0  0  0  0  0  0  0  0  0  0  0
    7.2220    0.0580    0.7572 C   0  0  0  0  0  0  0  0  0  0  0  0
    7.4392   -1.2742    0.9670 F   0  0  0  0  0  0  0  0  0  0  0  0
    5.9392    0.4967    0.5262 C   0  0  0  0  0  0  0  0  0  0  0  0
    2.6426    1.0464    1.2000 N   0  0  0  0  0  0  0  0  0  0  0  0
    1.6711    0.1079    1.1911 C   0  0  0  0  0  0  0  0  0  0  0  0
   -1.9187   -0.6029    0.2164 C   0  0  0  0  0  0  0  0  0  0  0  0
   -1.6154    0.0488    1.2477 O   0  0  0  0  0  0  0  0  0  0  0  0
   -9.0033    2.1823    1.8085 H   0  0  0  0  0  0  0  0  0  0  0  0
   -6.4584    0.3195    2.4203 H   0  0  0  0  0  0  0  0  0  0  0  0
   -6.3328    1.7987    1.3857 H   0  0  0  0  0  0  0  0  0  0  0  0
   -6.1538   -0.4742   -0.3146 H   0  0  0  0  0  0  0  0  0  0  0  0
   -5.1578   -2.4598   -2.0638 H   0  0  0  0  0  0  0  0  0  0  0  0
   -2.3820   -3.1548   -1.7849 H   0  0  0  0  0  0  0  0  0  0  0  0
   -2.7973   -2.0922   -3.1400 H   0  0  0  0  0  0  0  0  0  0  0  0
   -0.3622   -1.8324   -2.5114 H   0  0  0  0  0  0  0  0  0  0  0  0
   -1.3002   -0.3481   -2.3915 H   0  0  0  0  0  0  0  0  0  0  0  0
    0.1559   -1.9826    1.0848 H   0  0  0  0  0  0  0  0  0  0  0  0
    0.6829   -2.5493   -0.5142 H   0  0  0  0  0  0  0  0  0  0  0  0
    1.9404   -0.9337   -2.0123 H   0  0  0  0  0  0  0  0  0  0  0  0
    3.6887    0.7555   -1.9949 H   0  0  0  0  0  0  0  0  0  0  0  0
    6.5072    3.7594    0.1591 H   0  0  0  0  0  0  0  0  0  0  0  0
    8.8385    2.9756    0.5773 H   0  0  0  0  0  0  0  0  0  0  0  0
    9.2397    0.5861    0.9552 H   0  0  0  0  0  0  0  0  0  0  0  0
    5.1461   -0.2596    0.5227 H   0  0  0  0  0  0  0  0  0  0  0  0
    1.1310   -0.0352    2.1270 H   0  0  0  0  0  0  0  0  0  0  0  0
  1  2  1  0
  2  3  2  0
  2  4  1  0
  4  5  1  0
  5  6  1  0
  6  7  2  0
  6  8  1  0
  8  9  2  0
  9 10  1  0
  9 11  1  0
 11 12  1  0
 12 13  1  0
 13 14  1  0
 14 15  1  0
 15 16  2  0
 16 17  1  0
 17 18  2  0
 18 19  1  0
 19 20  1  0
 20 21  2  0
 21 22  1  0
 22 23  2  0
 23 24  1  0
 24 25  1  0
 24 26  2  0
 18 27  1  0
 27 28  2  0
 13 29  1  0
 29 30  2  0
 29  8  1  0
 28 15  1  0
 26 20  1  0
  1 31  1  0
  4 32  1  0
  4 33  1  0
  5 34  1  0
 10 35  1  0
 11 36  1  0
 11 37  1  0
 12 38  1  0
 12 39  1  0
 14 40  1  0
 14 41  1  0
 16 42  1  0
 17 43  1  0
 21 44  1  0
 22 45  1  0
 23 46  1  0
 26 47  1  0
 28 48  1  0
M  END
$$$$
[H]Oc1c([H])c(C([H])([H])[H])c2c(oc(=O)c3c(O[H])c([H])c(OC([H])([H])[H])c([H])c32)c1O[H]
     RDKit          3D

 33 35  0  0  0  0  0  0  0  0999 V2000
    3.9081   -1.4397   -0.4085 C   0  0  0  0  0  0  0  0  0  0  0  0
    3.8448   -0.0424   -0.2785 O   0  0  0  0  0  0  0  0  0  0  0  0
    2.6523    0.6233   -0.1303 C   0  0  0  0  0  0  0  0  0  0  0  0
    2.6105    1.9874   -0.0049 C   0  0  0  0  0  0  0  0  0  0  0  0
    1.4370    2.6660    0.1428 C   0  0  0  0  0  0  0  0  0  0  0  0
    1.3731    4.0551    0.2718 O   0  0  0  0  0  0  0  0  0  0  0  0
    0.2682    1.9415    0.1647 C   0  0  0  0  0  0  0  0  0  0  0  0
    0.2805    0.5484    0.0395 C   0  0  0  0  0  0  0  0  0  0  0  0
    1.4558   -0.1263   -0.1089 C   0  0  0  0  0  0  0  0  0  0  0  0
   -0.9249   -0.1348    0.0620 C   0  0  0  0  0  0  0  0  0  0  0  0
   -0.9599   -1.4952   -0.0541 C   0  0  0  0  0  0  0  0  0  0  0  0
    0.1738   -2.3777   -0.1851 C   0  0  0  0  0  0  0  0  0  0  0  0
   -2.2594   -2.0742   -0.0181 C   0  0  0  0  0  0  0  0  0  0  0  0
   -3.4034   -1.3403    0.1230 C   0  0  0  0  0  0  0  0  0  0  0  0
   -4.6452   -1.9473    0.1526 O   0  0  0  0  0  0  0  0  0  0  0  0
   -3.3156    0.0109    0.2360 C   0  0  0  0  0  0  0  0  0  0  0  0
   -4.4509    0.7932    0.3813 O   0  0  0  0  0  0  0  0  0  0  0  0
   -2.0864    0.6288    0.2076 C   0  0  0  0  0  0  0  0  0  0  0  0
   -2.0471    1.9427    0.3214 O   0  0  0  0  0  0  0  0  0  0  0  0
   -0.9422    2.6147    0.3066 C   0  0  0  0  0  0  0  0  0  0  0  0
   -0.9260    3.8544    0.4160 O   0  0  0  0  0  0  0  0  0  0  0  0
    3.3644   -1.9641    0.4174 H   0  0  0  0  0  0  0  0  0  0  0  0
    4.9476   -1.8210   -0.3623 H   0  0  0  0  0  0  0  0  0  0  0  0
    3.4139   -1.7501   -1.3534 H   0  0  0  0  0  0  0  0  0  0  0  0
    3.5185    2.5673   -0.0196 H   0  0  0  0  0  0  0  0  0  0  0  0
    2.1633    4.6553    0.2669 H   0  0  0  0  0  0  0  0  0  0  0  0
    1.6154   -1.1341   -0.2232 H   0  0  0  0  0  0  0  0  0  0  0  0
    0.6370   -2.5039   -1.1871 H   0  0  0  0  0  0  0  0  0  0  0  0
    0.7987   -2.5834    0.7157 H   0  0  0  0  0  0  0  0  0  0  0  0
   -0.2937   -3.4423   -0.1810 H   0  0  0  0  0  0  0  0  0  0  0  0
   -2.3326   -3.1543   -0.1094 H   0  0  0  0  0  0  0  0  0  0  0  0
   -5.4554   -1.3586    0.2585 H   0  0  0  0  0  0  0  0  0  0  0  0
   -4.4204    1.8005    0.4679 H   0  0  0  0  0  0  0  0  0  0  0  0
  1  2  1  0
  2  3  1  0
  3  4  2  0
  4  5  1  0
  5  6  1  0
  5  7  2  0
  7  8  1  0
  8  9  2  0
  8 10  1  0
 10 11  2  0
 11 12  1  0
 11 13  1  0
 13 14  2  0
 14 15  1  0
 14 16  1  0
 16 17  1  0
 16 18  2  0
 18 19  1  0
 19 20  1  0
 20 21  2  0
  9  3  1  0
 18 10  1  0
 20  7  1  0
  1 22  1  0
  1 23  1  0
  1 24  1  0
  4 25  1  0
  6 26  1  0
  9 27  1  0
 12 28  1  0
 12 29  1  0
 12 30  1  0
 13 31  1  0
 15 32  1  0
 17 33  1  0
M  END
$$$$
[H]C([H])=C([H])C(=O)N([H])[C@@]1([H])C([H])([H])N(c2nnc(C(=O)N([H])[H])c(N([H])c3c([H])c([H])c(C(=O)N4C([H])([H])C([H])([H])OC([H])([H])C4([H])[H])c([H])c3[H])n2)C([H])([H])C([H])([H])C1([H])[H]
     RDKit          3D

 63 66  0  0  0  0  0  0  0  0999 V2000
    0.2514    3.2116   -5.5623 N   0  0  0  0  0  0  0  0  0  0  0  0
    0.5483    3.1151   -4.1536 C   0  0  0  0  0  0  0  0  0  0  0  0
    1.2955    3.9654   -3.7046 O   0  0  0  0  0  0  0  0  0  0  0  0
   -0.0425    2.0303   -3.3803 C   0  0  0  0  0  0  0  0  0  0  0  0
   -1.0459    1.3056   -3.9955 N   0  0  0  0  0  0  0  0  0  0  0  0
   -1.7047    0.3831   -3.3816 N   0  0  0  0  0  0  0  0  0  0  0  0
   -1.4724    0.0386   -2.0742 C   0  0  0  0  0  0  0  0  0  0  0  0
   -0.5133    0.7239   -1.4773 N   0  0  0  0  0  0  0  0  0  0  0  0
    0.2161    1.7093   -2.0757 C   0  0  0  0  0  0  0  0  0  0  0  0
    1.2712    2.3500   -1.4200 N   0  0  0  0  0  0  0  0  0  0  0  0
    1.6021    2.1499   -0.0552 C   0  0  0  0  0  0  0  0  0  0  0  0
    2.9248    2.3717    0.3571 C   0  0  0  0  0  0  0  0  0  0  0  0
    3.3478    2.2512    1.6668 C   0  0  0  0  0  0  0  0  0  0  0  0
    2.4780    1.9010    2.6472 C   0  0  0  0  0  0  0  0  0  0  0  0
    1.1447    1.6747    2.2551 C   0  0  0  0  0  0  0  0  0  0  0  0
    0.7502    1.8009    0.9534 C   0  0  0  0  0  0  0  0  0  0  0  0
    2.8088    1.7021    4.0184 C   0  0  0  0  0  0  0  0  0  0  0  0
    1.7606    1.5770    4.8559 O   0  0  0  0  0  0  0  0  0  0  0  0
    4.0513    1.6109    4.6543 N   0  0  0  0  0  0  0  0  0  0  0  0
    3.9771    1.4632    6.1374 C   0  0  0  0  0  0  0  0  0  0  0  0
    5.2217    0.8480    6.6859 C   0  0  0  0  0  0  0  0  0  0  0  0
    6.3263    1.5317    6.1297 O   0  0  0  0  0  0  0  0  0  0  0  0
    6.4606    1.0372    4.8579 C   0  0  0  0  0  0  0  0  0  0  0  0
    5.3085    1.6058    4.0078 C   0  0  0  0  0  0  0  0  0  0  0  0
   -2.2883   -0.9623   -1.4692 N   0  0  0  0  0  0  0  0  0  0  0  0
   -1.8063   -1.7275   -0.3655 C   0  0  0  0  0  0  0  0  0  0  0  0
   -2.0727   -3.2096   -0.4566 C   0  0  0  0  0  0  0  0  0  0  0  0
   -3.4730   -3.4622   -0.9251 C   0  0  0  0  0  0  0  0  0  0  0  0
   -3.7849   -2.6824   -2.1909 C   0  0  2  0  0  0  0  0  0  0  0  0
   -3.6455   -1.1970   -1.9528 C   0  0  0  0  0  0  0  0  0  0  0  0
   -5.0843   -3.0394   -2.6772 N   0  0  0  0  0  0  0  0  0  0  0  0
   -5.2634   -3.6631   -3.9386 C   0  0  0  0  0  0  0  0  0  0  0  0
   -4.2434   -3.9248   -4.6731 O   0  0  0  0  0  0  0  0  0  0  0  0
   -6.5582   -4.0288   -4.4619 C   0  0  0  0  0  0  0  0  0  0  0  0
   -7.6977   -3.8060   -3.8121 C   0  0  0  0  0  0  0  0  0  0  0  0
    0.7580    2.6445   -6.2571 H   0  0  0  0  0  0  0  0  0  0  0  0
   -0.4861    3.8688   -5.8567 H   0  0  0  0  0  0  0  0  0  0  0  0
    1.9181    3.0347   -1.9196 H   0  0  0  0  0  0  0  0  0  0  0  0
    3.6544    2.6518   -0.3861 H   0  0  0  0  0  0  0  0  0  0  0  0
    4.3725    2.4810    1.8969 H   0  0  0  0  0  0  0  0  0  0  0  0
    0.4398    1.3986    3.0096 H   0  0  0  0  0  0  0  0  0  0  0  0
   -0.3077    1.6280    0.7348 H   0  0  0  0  0  0  0  0  0  0  0  0
    3.1010    0.8781    6.4132 H   0  0  0  0  0  0  0  0  0  0  0  0
    3.8437    2.4889    6.5617 H   0  0  0  0  0  0  0  0  0  0  0  0
    5.3480   -0.2031    6.3950 H   0  0  0  0  0  0  0  0  0  0  0  0
    5.3205    0.9650    7.7647 H   0  0  0  0  0  0  0  0  0  0  0  0
    6.5080   -0.0432    4.7818 H   0  0  0  0  0  0  0  0  0  0  0  0
    7.4093    1.4358    4.4353 H   0  0  0  0  0  0  0  0  0  0  0  0
    5.2731    0.8788    3.1486 H   0  0  0  0  0  0  0  0  0  0  0  0
    5.6273    2.6175    3.7521 H   0  0  0  0  0  0  0  0  0  0  0  0
   -2.2154   -1.3285    0.6032 H   0  0  0  0  0  0  0  0  0  0  0  0
   -0.6801   -1.6436   -0.2844 H   0  0  0  0  0  0  0  0  0  0  0  0
   -1.3967   -3.6013   -1.2780 H   0  0  0  0  0  0  0  0  0  0  0  0
   -1.7999   -3.7512    0.4480 H   0  0  0  0  0  0  0  0  0  0  0  0
   -3.5635   -4.5489   -1.1727 H   0  0  0  0  0  0  0  0  0  0  0  0
   -4.2241   -3.2699   -0.1353 H   0  0  0  0  0  0  0  0  0  0  0  0
   -3.0163   -2.9533   -2.9646 H   0  0  0  0  0  0  0  0  0  0  0  0
   -3.7169   -0.7217   -2.9714 H   0  0  0  0  0  0  0  0  0  0  0  0
   -4.3976   -0.7863   -1.2623 H   0  0  0  0  0  0  0  0  0  0  0  0
   -5.9002   -2.8289   -2.0818 H   0  0  0  0  0  0  0  0  0  0  0  0
   -6.6282   -4.5183   -5.4333 H   0  0  0  0  0  0  0  0  0  0  0  0
   -8.6427   -4.1017   -4.2534 H   0  0  0  0  0  0  0  0  0  0  0  0
   -7.6470   -3.3266   -2.8523 H   0  0  0  0  0  0  0  0  0  0  0  0
  1  2  1  0
  2  3  2  0
  2  4  1  0
  4  5  2  0
  5  6  1  0
  6  7  2  0
  7  8  1  0
  8  9  2  0
  9 10  1  0
 10 11  1  0
 11 12  2  0
 12 13  1  0
 13 14  2  0
 14 15  1  0
 15 16  2  0
 14 17  1  0
 17 18  2  0
 17 19  1  0
 19 20  1  0
 20 21  1  0
 21 22  1  0
 22 23  1  0
 23 24  1  0
  7 25  1  0
 25 26  1  0
 26 27  1  0
 27 28  1  0
 28 29  1  0
 29 30  1  0
 29 31  1  0
 31 32  1  0
 32 33  2  0
 32 34  1  0
 34 35  2  3
  9  4  1  0
 16 11  1  0
 24 19  1  0
 30 25  1  0
  1 36  1  0
  1 37  1  0
 10 38  1  0
 12 39  1  0
 13 40  1  0
 15 41  1  0
 16 42  1  0
 20 43  1  0
 20 44  1  0
 21 45  1  0
 21 46  1  0
 23 47  1  0
 23 48  1  0
 24 49  1  0
 24 50  1  0
 26 51  1  0
 26 52  1  0
 27 53  1  0
 27 54  1  0
 28 55  1  0
 28 56  1  0
 29 57  1  6
 30 58  1  0
 30 59  1  0
 31 60  1  0
 34 61  1  0
 35 62  1  0
 35 63  1  0
M  END
$$$$
[H]N=C(N([H])[H])N([H])C([H])([H])C([H])([H])C([H])([H])[C@]([H])(C(=O)c1nc([H])c([H])s1)N([H])C(=O)[C@@]1([H])N(C(=O)[C@@]([H])(N([H])C(=O)OC([H])([H])c2c([H])c([H])c([H])c([H])c2[H])C([H])([H])c2c([H])c([H])c([H])c([H])c2[H])C([H])([H])C([H])([H])C1([H])[H]
     RDKit          3D

 81 84  0  0  0  0  0  0  0  0999 V2000
    6.6222    4.7165    0.9649 N   0  0  0  0  0  0  0  0  0  0  0  0
    6.4853    3.3913    1.2669 C   0  0  0  0  0  0  0  0  0  0  0  0
    7.4664    2.8246    1.9479 N   0  0  0  0  0  0  0  0  0  0  0  0
    5.4084    2.5469    0.9123 N   0  0  0  0  0  0  0  0  0  0  0  0
    4.8198    1.5493    1.7995 C   0  0  0  0  0  0  0  0  0  0  0  0
    3.8077    0.7027    0.9966 C   0  0  0  0  0  0  0  0  0  0  0  0
    4.5670    0.0225   -0.1188 C   0  0  0  0  0  0  0  0  0  0  0  0
    3.7268   -0.8363   -1.0165 C   0  0  1  0  0  0  0  0  0  0  0  0
    2.6931   -0.0021   -1.6437 N   0  0  0  0  0  0  0  0  0  0  0  0
    1.3732   -0.5508   -1.8708 C   0  0  0  0  0  0  0  0  0  0  0  0
    1.2460   -1.7317   -1.4808 O   0  0  0  0  0  0  0  0  0  0  0  0
    0.3972    0.2505   -2.4789 C   0  0  2  0  0  0  0  0  0  0  0  0
    0.2136    1.6912   -2.1380 C   0  0  0  0  0  0  0  0  0  0  0  0
   -0.8945    2.0379   -3.1682 C   0  0  0  0  0  0  0  0  0  0  0  0
   -1.4934    0.6509   -3.5621 C   0  0  0  0  0  0  0  0  0  0  0  0
   -1.0265   -0.1404   -2.4482 N   0  0  0  0  0  0  0  0  0  0  0  0
   -1.7341   -0.9196   -1.5640 C   0  0  0  0  0  0  0  0  0  0  0  0
   -1.0526   -1.2076   -0.4549 O   0  0  0  0  0  0  0  0  0  0  0  0
   -3.0677   -1.5222   -1.5660 C   0  0  2  0  0  0  0  0  0  0  0  0
   -4.2485   -0.7982   -1.9878 C   0  0  0  0  0  0  0  0  0  0  0  0
   -4.8211    0.3761   -1.3945 C   0  0  0  0  0  0  0  0  0  0  0  0
   -4.2058    1.5413   -1.0301 C   0  0  0  0  0  0  0  0  0  0  0  0
   -4.9015    2.6444   -0.6182 C   0  0  0  0  0  0  0  0  0  0  0  0
   -6.2766    2.6490   -0.5396 C   0  0  0  0  0  0  0  0  0  0  0  0
   -6.9212    1.5104   -0.8907 C   0  0  0  0  0  0  0  0  0  0  0  0
   -6.2495    0.3911   -1.3078 C   0  0  0  0  0  0  0  0  0  0  0  0
   -3.1694   -2.4297   -0.4262 N   0  0  0  0  0  0  0  0  0  0  0  0
   -3.9203   -2.2637    0.7219 C   0  0  0  0  0  0  0  0  0  0  0  0
   -4.6677   -1.3642    1.0945 O   0  0  0  0  0  0  0  0  0  0  0  0
   -3.8312   -3.3330    1.6942 O   0  0  0  0  0  0  0  0  0  0  0  0
   -4.5729   -3.2047    2.8924 C   0  0  0  0  0  0  0  0  0  0  0  0
   -4.1643   -2.0056    3.6779 C   0  0  0  0  0  0  0  0  0  0  0  0
   -5.0903   -1.4418    4.5617 C   0  0  0  0  0  0  0  0  0  0  0  0
   -4.7607   -0.3395    5.3207 C   0  0  0  0  0  0  0  0  0  0  0  0
   -3.5342    0.2458    5.2482 C   0  0  0  0  0  0  0  0  0  0  0  0
   -2.5911   -0.3065    4.3656 C   0  0  0  0  0  0  0  0  0  0  0  0
   -2.9504   -1.4110    3.6185 C   0  0  0  0  0  0  0  0  0  0  0  0
    4.6691   -1.3141   -2.0966 C   0  0  0  0  0  0  0  0  0  0  0  0
    4.4890   -0.9068   -3.2629 O   0  0  0  0  0  0  0  0  0  0  0  0
    5.7764   -2.2247   -1.8411 C   0  0  0  0  0  0  0  0  0  0  0  0
    6.1757   -2.8024   -0.7244 N   0  0  0  0  0  0  0  0  0  0  0  0
    7.1985   -3.5880   -0.7125 C   0  0  0  0  0  0  0  0  0  0  0  0
    7.8569   -3.8017   -1.8978 C   0  0  0  0  0  0  0  0  0  0  0  0
    6.9365   -2.8339   -2.9701 S   0  0  0  0  0  0  0  0  0  0  0  0
    6.7390    5.1203    2.2260 H   0  0  0  0  0  0  0  0  0  0  0  0
    6.7179    5.6489    0.7361 H   0  0  0  0  0  0  0  0  0  0  0  0
    7.3889    1.8307    2.1912 H   0  0  0  0  0  0  0  0  0  0  0  0
    5.0025    2.6637   -0.0570 H   0  0  0  0  0  0  0  0  0  0  0  0
    4.2765    2.0261    2.6269 H   0  0  0  0  0  0  0  0  0  0  0  0
    5.6058    0.9284    2.2257 H   0  0  0  0  0  0  0  0  0  0  0  0
    3.4301   -0.0745    1.6732 H   0  0  0  0  0  0  0  0  0  0  0  0
    3.0825    1.3742    0.5611 H   0  0  0  0  0  0  0  0  0  0  0  0
    5.0199    0.8156   -0.7459 H   0  0  0  0  0  0  0  0  0  0  0  0
    5.4309   -0.5618    0.2860 H   0  0  0  0  0  0  0  0  0  0  0  0
    3.2871   -1.7329   -0.5050 H   0  0  0  0  0  0  0  0  0  0  0  0
    2.9746    0.9589   -1.8948 H   0  0  0  0  0  0  0  0  0  0  0  0
    0.5987    0.2967   -3.6385 H   0  0  0  0  0  0  0  0  0  0  0  0
   -0.2316    1.8410   -1.1212 H   0  0  0  0  0  0  0  0  0  0  0  0
    1.0811    2.3363   -2.2450 H   0  0  0  0  0  0  0  0  0  0  0  0
   -0.4584    2.5337   -4.0355 H   0  0  0  0  0  0  0  0  0  0  0  0
   -1.7309    2.5742   -2.6994 H   0  0  0  0  0  0  0  0  0  0  0  0
   -2.5505    0.7444   -3.7010 H   0  0  0  0  0  0  0  0  0  0  0  0
   -0.9788    0.4052   -4.5133 H   0  0  0  0  0  0  0  0  0  0  0  0
   -2.9761   -2.3227   -2.4415 H   0  0  0  0  0  0  0  0  0  0  0  0
   -4.2009   -0.6058   -3.1090 H   0  0  0  0  0  0  0  0  0  0  0  0
   -5.0776   -1.6278   -2.0150 H   0  0  0  0  0  0  0  0  0  0  0  0
   -3.1030    1.5435   -1.0651 H   0  0  0  0  0  0  0  0  0  0  0  0
   -4.3558    3.5350   -0.3504 H   0  0  0  0  0  0  0  0  0  0  0  0
   -6.8217    3.5268   -0.2130 H   0  0  0  0  0  0  0  0  0  0  0  0
   -8.0226    1.4628   -0.8513 H   0  0  0  0  0  0  0  0  0  0  0  0
   -6.8342   -0.4740   -1.5682 H   0  0  0  0  0  0  0  0  0  0  0  0
   -2.5514   -3.3247   -0.5477 H   0  0  0  0  0  0  0  0  0  0  0  0
   -5.6289   -3.0140    2.5849 H   0  0  0  0  0  0  0  0  0  0  0  0
   -4.5493   -4.0739    3.5453 H   0  0  0  0  0  0  0  0  0  0  0  0
   -6.0832   -1.8455    4.6804 H   0  0  0  0  0  0  0  0  0  0  0  0
   -5.4921    0.1077    6.0129 H   0  0  0  0  0  0  0  0  0  0  0  0
   -3.2505    1.1299    5.8473 H   0  0  0  0  0  0  0  0  0  0  0  0
   -1.6197    0.1605    4.3109 H   0  0  0  0  0  0  0  0  0  0  0  0
   -2.2139   -1.8400    2.9354 H   0  0  0  0  0  0  0  0  0  0  0  0
    7.5684   -4.0924    0.2007 H   0  0  0  0  0  0  0  0  0  0  0  0
    8.7440   -4.4369   -2.0654 H   0  0  0  0  0  0  0  0  0  0  0  0
  1  2  1  0
  2  3  2  3
  2  4  1  0
  4  5  1  0
  5  6  1  0
  6  7  1  0
  7  8  1  0
  8  9  1  0
  9 10  1  0
 10 11  2  0
 10 12  1  0
 12 13  1  0
 13 14  1  0
 14 15  1  0
 15 16  1  0
 16 17  1  0
 17 18  2  0
 17 19  1  0
 19 20  1  0
 20 21  1  0
 21 22  2  0
 22 23  1  0
 23 24  2  0
 24 25  1  0
 25 26  2  0
 19 27  1  0
 27 28  1  0
 28 29  2  0
 28 30  1  0
 30 31  1  0
 31 32  1  0
 32 33  2  0
 33 34  1  0
 34 35  2  0
 35 36  1  0
 36 37  2  0
  8 38  1  0
 38 39  2  0
 38 40  1  0
 40 41  2  0
 41 42  1  0
 42 43  2  0
 43 44  1  0
 16 12  1  0
 26 21  1  0
 37 32  1  0
 44 40  1  0
  1 45  1  0
  1 46  1  0
  3 47  1  0
  4 48  1  0
  5 49  1  0
  5 50  1  0
  6 51  1  0
  6 52  1  0
  7 53  1  0
  7 54  1  0
  8 55  1  1
  9 56  1  0
 12 57  1  6
 13 58  1  0
 13 59  1  0
 14 60  1  0
 14 61  1  0
 15 62  1  0
 15 63  1  0
 19 64  1  6
 20 65  1  0
 20 66  1  0
 22 67  1  0
 23 68  1  0
 24 69  1  0
 25 70  1  0
 26 71  1  0
 27 72  1  0
 31 73  1  0
 31 74  1  0
 33 75  1  0
 34 76  1  0
 35 77  1  0
 36 78  1  0
 37 79  1  0
 42 80  1  0
 43 81  1  0
M  END
$$$$
[H]OC(=O)[C@@]([H])(N([H])C(=O)[C@]([H])(C([H])([H])c1c([H])c([H])c([H])c([H])c1[H])C([H])([H])P(=O)(O[H])[C@]([H])(C([H])([H])[H])[N+]([H])([H])[H])C([H])([H])c1c([H])c([H])c([H])c([H])c1[H]
     RDKit          3D

 57 58  0  0  0  0  0  0  0  0999 V2000
   -1.3783    3.8431   -1.3223 C   0  0  0  0  0  0  0  0  0  0  0  0
   -2.1614    3.5286   -0.0426 C   0  0  2  0  0  0  0  0  0  0  0  0
   -1.3031    3.6527    1.1134 N   0  0  0  0  0  0  0  0  0  0  0  0
   -2.6736    1.7749   -0.2046 P   0  0  0  0  0  0  0  0  0  0  0  0
   -3.1455    1.1532    1.2780 O   0  0  0  0  0  0  0  0  0  0  0  0
   -3.8198    1.7538   -1.1824 O   0  0  0  0  0  0  0  0  0  0  0  0
   -1.2482    0.8804   -0.8739 C   0  0  0  0  0  0  0  0  0  0  0  0
   -1.3245   -0.5546   -0.2958 C   0  0  1  0  0  0  0  0  0  0  0  0
   -2.5682   -1.2287   -0.6841 C   0  0  0  0  0  0  0  0  0  0  0  0
   -2.8197   -2.5835   -0.2151 C   0  0  0  0  0  0  0  0  0  0  0  0
   -3.2700   -2.8391    1.0840 C   0  0  0  0  0  0  0  0  0  0  0  0
   -3.5589   -4.0781    1.5400 C   0  0  0  0  0  0  0  0  0  0  0  0
   -3.4112   -5.1548    0.7069 C   0  0  0  0  0  0  0  0  0  0  0  0
   -2.9706   -4.9375   -0.5773 C   0  0  0  0  0  0  0  0  0  0  0  0
   -2.6713   -3.6563   -1.0520 C   0  0  0  0  0  0  0  0  0  0  0  0
   -0.0930   -1.2316   -0.6838 C   0  0  0  0  0  0  0  0  0  0  0  0
   -0.0739   -2.1578   -1.5071 O   0  0  0  0  0  0  0  0  0  0  0  0
    1.1651   -0.8403   -0.1174 N   0  0  0  0  0  0  0  0  0  0  0  0
    2.4162   -1.4729   -0.4659 C   0  0  1  0  0  0  0  0  0  0  0  0
    3.3014   -0.4915   -1.1921 C   0  0  0  0  0  0  0  0  0  0  0  0
    3.6279    0.7030   -0.4109 C   0  0  0  0  0  0  0  0  0  0  0  0
    4.7369    0.7637    0.4047 C   0  0  0  0  0  0  0  0  0  0  0  0
    5.0529    1.8886    1.1467 C   0  0  0  0  0  0  0  0  0  0  0  0
    4.2402    2.9743    1.0691 C   0  0  0  0  0  0  0  0  0  0  0  0
    3.1231    2.9415    0.2606 C   0  0  0  0  0  0  0  0  0  0  0  0
    2.8170    1.8158   -0.4749 C   0  0  0  0  0  0  0  0  0  0  0  0
    3.0689   -2.1139    0.6834 C   0  0  0  0  0  0  0  0  0  0  0  0
    4.2805   -2.7689    0.5196 O   0  0  0  0  0  0  0  0  0  0  0  0
    2.5709   -2.0981    1.8391 O   0  0  0  0  0  0  0  0  0  0  0  0
   -0.4253    3.2567   -1.2285 H   0  0  0  0  0  0  0  0  0  0  0  0
   -1.1950    4.9230   -1.4193 H   0  0  0  0  0  0  0  0  0  0  0  0
   -1.9700    3.4135   -2.1560 H   0  0  0  0  0  0  0  0  0  0  0  0
   -3.0298    4.1907    0.0666 H   0  0  0  0  0  0  0  0  0  0  0  0
   -0.3065    3.6379    0.8050 H   0  0  0  0  0  0  0  0  0  0  0  0
   -1.4598    2.8432    1.7541 H   0  0  0  0  0  0  0  0  0  0  0  0
   -1.4895    4.5238    1.6637 H   0  0  0  0  0  0  0  0  0  0  0  0
   -2.3786    1.0257    1.8723 H   0  0  0  0  0  0  0  0  0  0  0  0
   -1.2230    0.8633   -1.9636 H   0  0  0  0  0  0  0  0  0  0  0  0
   -0.3324    1.3259   -0.4233 H   0  0  0  0  0  0  0  0  0  0  0  0
   -1.3054   -0.3510    0.8166 H   0  0  0  0  0  0  0  0  0  0  0  0
   -3.4783   -0.6098   -0.4180 H   0  0  0  0  0  0  0  0  0  0  0  0
   -2.6201   -1.2574   -1.8192 H   0  0  0  0  0  0  0  0  0  0  0  0
   -3.3749   -1.9542    1.7179 H   0  0  0  0  0  0  0  0  0  0  0  0
   -3.9074   -4.2340    2.5601 H   0  0  0  0  0  0  0  0  0  0  0  0
   -3.6511   -6.1371    1.1032 H   0  0  0  0  0  0  0  0  0  0  0  0
   -2.8638   -5.8116   -1.2131 H   0  0  0  0  0  0  0  0  0  0  0  0
   -2.3545   -3.6254   -2.0836 H   0  0  0  0  0  0  0  0  0  0  0  0
    1.1871   -0.0673    0.5762 H   0  0  0  0  0  0  0  0  0  0  0  0
    2.1593   -2.2705   -1.2220 H   0  0  0  0  0  0  0  0  0  0  0  0
    2.8056   -0.1917   -2.1312 H   0  0  0  0  0  0  0  0  0  0  0  0
    4.2425   -1.0143   -1.5006 H   0  0  0  0  0  0  0  0  0  0  0  0
    5.4079   -0.0990    0.4840 H   0  0  0  0  0  0  0  0  0  0  0  0
    5.9501    1.8877    1.7836 H   0  0  0  0  0  0  0  0  0  0  0  0
    4.4718    3.8680    1.6448 H   0  0  0  0  0  0  0  0  0  0  0  0
    2.5109    3.8444    0.2412 H   0  0  0  0  0  0  0  0  0  0  0  0
    1.9473    1.7998   -1.0999 H   0  0  0  0  0  0  0  0  0  0  0  0
    4.7732   -3.2460    1.2461 H   0  0  0  0  0  0  0  0  0  0  0  0
  1  2  1  0
  2  3  1  0
  2  4  1  0
  4  5  1  0
  4  6  2  0
  4  7  1  0
  7  8  1  0
  8  9  1  0
  9 10  1  0
 10 11  2  0
 11 12  1  0
 12 13  2  0
 13 14  1  0
 14 15  2  0
  8 16  1  0
 16 17  2  0
 16 18  1  0
 18 19  1  0
 19 20  1  0
 20 21  1  0
 21 22  2  0
 22 23  1  0
 23 24  2  0
 24 25  1  0
 25 26  2  0
 19 27  1  0
 27 28  1  0
 27 29  2  0
 15 10  1  0
 26 21  1  0
  1 30  1  0
  1 31  1  0
  1 32  1  0
  2 33  1  1
  3 34  1  0
  3 35  1  0
  3 36  1  0
  5 37  1  0
  7 38  1  0
  7 39  1  0
  8 40  1  1
  9 41  1  0
  9 42  1  0
 11 43  1  0
 12 44  1  0
 13 45  1  0
 14 46  1  0
 15 47  1  0
 18 48  1  0
 19 49  1  6
 20 50  1  0
 20 51  1  0
 22 52  1  0
 23 53  1  0
 24 54  1  0
 25 55  1  0
 26 56  1  0
 28 57  1  0
M  CHG  1   3   1
M  END
$$$$
[H]O[C@@]1([H])[C@]([H])(O[H])[C@]([H])(O[H])[C@]1([H])C([H])([H])OP(=O)(O[H])OP(=O)(O[H])OP(=O)(O[H])O[H]
     RDKit          3D

 34 34  0  0  0  0  0  0  0  0999 V2000
   -3.4826   -1.9178    1.0403 O   0  0  0  0  0  0  0  0  0  0  0  0
   -3.2856   -0.9674    0.0726 C   0  0  2  0  0  0  0  0  0  0  0  0
   -2.8881    0.4170    0.5964 C   0  0  1  0  0  0  0  0  0  0  0  0
   -1.4139    0.6097    0.4501 C   0  0  0  0  0  0  0  0  0  0  0  0
   -0.7662   -0.3772    1.1862 O   0  0  0  0  0  0  0  0  0  0  0  0
    0.9000   -0.2676    1.1015 P   0  0  0  0  0  0  0  0  0  0  0  0
    1.5681    0.4320    2.4886 O   0  0  0  0  0  0  0  0  0  0  0  0
    1.4429   -1.6960    1.0312 O   0  0  0  0  0  0  0  0  0  0  0  0
    1.3970    0.5328   -0.2836 O   0  0  0  0  0  0  0  0  0  0  0  0
    3.0549    0.8719   -0.1399 P   0  0  0  0  0  0  0  0  0  0  0  0
    3.2356    2.5453   -0.1803 O   0  0  0  0  0  0  0  0  0  0  0  0
    3.6071    0.3677    1.1797 O   0  0  0  0  0  0  0  0  0  0  0  0
    3.8259    0.1257   -1.4476 O   0  0  0  0  0  0  0  0  0  0  0  0
    5.3020   -0.5349   -0.9813 P   0  0  0  0  0  0  0  0  0  0  0  0
    6.2986    0.7106   -0.4253 O   0  0  0  0  0  0  0  0  0  0  0  0
    5.1137   -1.6469    0.2699 O   0  0  0  0  0  0  0  0  0  0  0  0
    5.9215   -1.1884   -2.1982 O   0  0  0  0  0  0  0  0  0  0  0  0
   -3.7285    0.9812   -0.5542 C   0  0  1  0  0  0  0  0  0  0  0  0
   -3.0139    1.0448   -1.7413 O   0  0  0  0  0  0  0  0  0  0  0  0
   -4.5528   -0.3061   -0.4544 C   0  0  1  0  0  0  0  0  0  0  0  0
   -5.0151   -0.7900   -1.6553 O   0  0  0  0  0  0  0  0  0  0  0  0
   -2.6776   -2.5227    1.0237 H   0  0  0  0  0  0  0  0  0  0  0  0
   -2.6420   -1.2465   -0.7849 H   0  0  0  0  0  0  0  0  0  0  0  0
   -3.3112    0.6673    1.5806 H   0  0  0  0  0  0  0  0  0  0  0  0
   -1.0802    1.6238    0.7216 H   0  0  0  0  0  0  0  0  0  0  0  0
   -1.1510    0.4311   -0.6257 H   0  0  0  0  0  0  0  0  0  0  0  0
    1.5543   -0.1928    3.2554 H   0  0  0  0  0  0  0  0  0  0  0  0
    3.1033    2.8571   -1.1067 H   0  0  0  0  0  0  0  0  0  0  0  0
    5.8759    1.0714    0.3968 H   0  0  0  0  0  0  0  0  0  0  0  0
    4.6392   -2.4367   -0.1149 H   0  0  0  0  0  0  0  0  0  0  0  0
   -4.3429    1.8416   -0.2934 H   0  0  0  0  0  0  0  0  0  0  0  0
   -3.5736    0.8752   -2.5455 H   0  0  0  0  0  0  0  0  0  0  0  0
   -5.3269   -0.2420    0.3513 H   0  0  0  0  0  0  0  0  0  0  0  0
   -4.5878   -1.6731   -1.8129 H   0  0  0  0  0  0  0  0  0  0  0  0
  1  2  1  0
  2  3  1  0
  3  4  1  0
  4  5  1  0
  5  6  1  0
  6  7  1  0
  6  8  2  0
  6  9  1  0
  9 10  1  0
 10 11  1  0
 10 12  2  0
 10 13  1  0
 13 14  1  0
 14 15  1  0
 14 16  1  0
 14 17  2  0
  3 18  1  0
 18 19  1  0
 18 20  1  0
 20 21  1  0
 20  2  1  0
  1 22  1  0
  2 23  1  6
  3 24  1  1
  4 25  1  0
  4 26  1  0
  7 27  1  0
 11 28  1  0
 15 29  1  0
 16 30  1  0
 18 31  1  1
 19 32  1  0
 20 33  1  1
 21 34  1  0
M  END
$$$$
[H]c1nc2c(C([H])([H])[H])c(C([H])([H])[H])c(-c3c(C([H])(C([H])([H])[H])C([H])([H])[H])c4c([H])c(C5([H])C([H])([H])C([H])([H])N(C(=O)C([H])([H])[H])C([H])([H])C5([H])[H])c([H])c([H])c4n3[H])c([H])n2n1
     RDKit          3D

 63 67  0  0  0  0  0  0  0  0999 V2000
   -0.2665    1.2001    2.5381 C   0  0  0  0  0  0  0  0  0  0  0  0
   -1.0573    1.4151    1.2710 C   0  0  0  0  0  0  0  0  0  0  0  0
   -2.0191    2.5368    1.2828 C   0  0  0  0  0  0  0  0  0  0  0  0
   -1.2210    0.2522    0.4314 C   0  0  0  0  0  0  0  0  0  0  0  0
   -2.3154   -0.4019   -0.1392 C   0  0  0  0  0  0  0  0  0  0  0  0
   -1.8924   -1.3097   -1.0318 N   0  0  0  0  0  0  0  0  0  0  0  0
   -0.5250   -1.2954   -1.0932 C   0  0  0  0  0  0  0  0  0  0  0  0
    0.3361   -2.0210   -1.8811 C   0  0  0  0  0  0  0  0  0  0  0  0
    1.6855   -1.8065   -1.8027 C   0  0  0  0  0  0  0  0  0  0  0  0
    2.1496   -0.8269   -0.9024 C   0  0  0  0  0  0  0  0  0  0  0  0
    1.2543   -0.1347   -0.1409 C   0  0  0  0  0  0  0  0  0  0  0  0
   -0.1191   -0.3529   -0.2091 C   0  0  0  0  0  0  0  0  0  0  0  0
    3.6164   -0.6295   -0.8711 C   0  0  0  0  0  0  0  0  0  0  0  0
    4.1903   -1.5456    0.2195 C   0  0  0  0  0  0  0  0  0  0  0  0
    4.9546   -0.6342    1.1652 C   0  0  0  0  0  0  0  0  0  0  0  0
    5.9803    0.0008    0.3653 N   0  0  0  0  0  0  0  0  0  0  0  0
    5.5471    0.9150   -0.6533 C   0  0  0  0  0  0  0  0  0  0  0  0
    4.0032    0.7923   -0.6970 C   0  0  0  0  0  0  0  0  0  0  0  0
    7.3417   -0.2634    0.5636 C   0  0  0  0  0  0  0  0  0  0  0  0
    8.3593    0.3980   -0.2667 C   0  0  0  0  0  0  0  0  0  0  0  0
    7.6729   -1.0872    1.4874 O   0  0  0  0  0  0  0  0  0  0  0  0
   -3.7040   -0.1467    0.1384 C   0  0  0  0  0  0  0  0  0  0  0  0
   -4.1742    0.1625    1.3898 C   0  0  0  0  0  0  0  0  0  0  0  0
   -5.4664    0.4365    1.6186 N   0  0  0  0  0  0  0  0  0  0  0  0
   -6.1287    0.7863    2.7234 N   0  0  0  0  0  0  0  0  0  0  0  0
   -7.4333    0.9932    2.4627 C   0  0  0  0  0  0  0  0  0  0  0  0
   -7.5686    0.7526    1.1219 N   0  0  0  0  0  0  0  0  0  0  0  0
   -6.3477    0.4053    0.5896 C   0  0  0  0  0  0  0  0  0  0  0  0
   -5.9847    0.1054   -0.6960 C   0  0  0  0  0  0  0  0  0  0  0  0
   -7.0324    0.0085   -1.7137 C   0  0  0  0  0  0  0  0  0  0  0  0
   -4.6367   -0.1677   -0.9027 C   0  0  0  0  0  0  0  0  0  0  0  0
   -4.2583   -0.3840   -2.3307 C   0  0  0  0  0  0  0  0  0  0  0  0
   -0.9949    0.8922    3.3742 H   0  0  0  0  0  0  0  0  0  0  0  0
    0.1890    2.1392    2.8671 H   0  0  0  0  0  0  0  0  0  0  0  0
    0.4669    0.4289    2.3931 H   0  0  0  0  0  0  0  0  0  0  0  0
   -0.1516    1.9993    0.6597 H   0  0  0  0  0  0  0  0  0  0  0  0
   -1.4963    3.5748    1.2359 H   0  0  0  0  0  0  0  0  0  0  0  0
   -2.6641    2.5996    0.3820 H   0  0  0  0  0  0  0  0  0  0  0  0
   -2.5377    2.6092    2.2456 H   0  0  0  0  0  0  0  0  0  0  0  0
   -2.4342   -2.0030   -1.6268 H   0  0  0  0  0  0  0  0  0  0  0  0
   -0.0598   -2.7866   -2.5932 H   0  0  0  0  0  0  0  0  0  0  0  0
    2.3834   -2.3829   -2.4075 H   0  0  0  0  0  0  0  0  0  0  0  0
    1.6157    0.6318    0.5490 H   0  0  0  0  0  0  0  0  0  0  0  0
    4.0743   -1.0048   -1.8280 H   0  0  0  0  0  0  0  0  0  0  0  0
    4.8824   -2.2891   -0.1956 H   0  0  0  0  0  0  0  0  0  0  0  0
    3.3953   -2.0482    0.7566 H   0  0  0  0  0  0  0  0  0  0  0  0
    4.2753    0.0525    1.6616 H   0  0  0  0  0  0  0  0  0  0  0  0
    5.4646   -1.3286    1.8967 H   0  0  0  0  0  0  0  0  0  0  0  0
    5.9961    0.6985   -1.6289 H   0  0  0  0  0  0  0  0  0  0  0  0
    5.7474    1.9562   -0.3432 H   0  0  0  0  0  0  0  0  0  0  0  0
    3.6074    1.3883   -1.5560 H   0  0  0  0  0  0  0  0  0  0  0  0
    3.6496    1.2934    0.2039 H   0  0  0  0  0  0  0  0  0  0  0  0
    8.8112   -0.3685   -0.9619 H   0  0  0  0  0  0  0  0  0  0  0  0
    9.1696    0.7324    0.4272 H   0  0  0  0  0  0  0  0  0  0  0  0
    7.9095    1.2375   -0.8039 H   0  0  0  0  0  0  0  0  0  0  0  0
   -3.5019    0.1771    2.2684 H   0  0  0  0  0  0  0  0  0  0  0  0
   -8.2017    1.2980    3.1469 H   0  0  0  0  0  0  0  0  0  0  0  0
   -6.6254   -0.4209   -2.6719 H   0  0  0  0  0  0  0  0  0  0  0  0
   -7.5616    0.9629   -1.8782 H   0  0  0  0  0  0  0  0  0  0  0  0
   -7.7722   -0.7920   -1.3919 H   0  0  0  0  0  0  0  0  0  0  0  0
   -4.4599   -1.4097   -2.6548 H   0  0  0  0  0  0  0  0  0  0  0  0
   -4.8858    0.2882   -2.9933 H   0  0  0  0  0  0  0  0  0  0  0  0
   -3.2312   -0.0186   -2.5698 H   0  0  0  0  0  0  0  0  0  0  0  0
  1  2  1  0
  2  3  1  0
  2  4  1  0
  4  5  2  0
  5  6  1  0
  6  7  1  0
  7  8  2  0
  8  9  1  0
  9 10  2  0
 10 11  1  0
 11 12  2  0
 10 13  1  0
 13 14  1  0
 14 15  1  0
 15 16  1  0
 16 17  1  0
 17 18  1  0
 16 19  1  0
 19 20  1  0
 19 21  2  0
  5 22  1  0
 22 23  2  0
 23 24  1  0
 24 25  1  0
 25 26  2  0
 26 27  1  0
 27 28  2  0
 28 29  1  0
 29 30  1  0
 29 31  2  0
 31 32  1  0
 12  4  1  0
 18 13  1  0
 31 22  1  0
 12  7  1  0
 28 24  1  0
  1 33  1  0
  1 34  1  0
  1 35  1  0
  2 36  1  0
  3 37  1  0
  3 38  1  0
  3 39  1  0
  6 40  1  0
  8 41  1  0
  9 42  1  0
 11 43  1  0
 13 44  1  0
 14 45  1  0
 14 46  1  0
 15 47  1  0
 15 48  1  0
 17 49  1  0
 17 50  1  0
 18 51  1  0
 18 52  1  0
 20 53  1  0
 20 54  1  0
 20 55  1  0
 23 56  1  0
 26 57  1  0
 30 58  1  0
 30 59  1  0
 30 60  1  0
 32 61  1  0
 32 62  1  0
 32 63  1  0
M  END
$$$$
[H]C#CC([H])([H])[N+]([H])(C([H])([H])[H])C([H])([H])C(=C([H])[H])c1c([H])c([H])c(Cl)c([H])c1[H].[H]OC(=O)C(=O)[O-]
     RDKit          3D

 37 36  0  0  0  0  0  0  0  0999 V2000
   -1.2939   -0.1486   -0.7352 O   0  0  0  0  0  0  0  0  0  0  0  0
   -0.3604   -0.0204    0.2763 C   0  0  0  0  0  0  0  0  0  0  0  0
   -0.7565   -0.2395    1.4424 O   0  0  0  0  0  0  0  0  0  0  0  0
    0.9988    0.3539   -0.0683 C   0  0  0  0  0  0  0  0  0  0  0  0
    1.8975    0.4665    1.0104 O   0  0  0  0  0  0  0  0  0  0  0  0
    1.3963    0.5719   -1.2205 O   0  0  0  0  0  0  0  0  0  0  0  0
    0.7967   -1.6442    0.3906 C   0  0  0  0  0  0  0  0  0  0  0  0
    1.4557   -0.4025    0.6630 N   0  0  0  0  0  0  0  0  0  0  0  0
    2.8821   -0.6487    0.7742 C   0  0  0  0  0  0  0  0  0  0  0  0
    3.6511    0.5891    0.8405 C   0  0  0  0  0  0  0  0  0  0  0  0
    4.2924    1.6125    0.9157 C   0  0  0  0  0  0  0  0  0  0  0  0
    1.1802    0.6360   -0.2710 C   0  0  0  0  0  0  0  0  0  0  0  0
   -0.0111    0.4331   -1.0917 C   0  0  0  0  0  0  0  0  0  0  0  0
    0.0922    0.3390   -2.4070 C   0  0  0  0  0  0  0  0  0  0  0  0
   -1.3511    0.3239   -0.5320 C   0  0  0  0  0  0  0  0  0  0  0  0
   -1.6222    0.7210    0.7817 C   0  0  0  0  0  0  0  0  0  0  0  0
   -2.8579    0.6231    1.3519 C   0  0  0  0  0  0  0  0  0  0  0  0
   -3.9209    0.1168    0.6432 C   0  0  0  0  0  0  0  0  0  0  0  0
   -5.5214   -0.0178    1.3597 Cl  0  0  0  0  0  0  0  0  0  0  0  0
   -3.7049   -0.2861   -0.6496 C   0  0  0  0  0  0  0  0  0  0  0  0
   -2.4394   -0.1778   -1.2103 C   0  0  0  0  0  0  0  0  0  0  0  0
   -1.8818   -0.9838   -0.7051 H   0  0  0  0  0  0  0  0  0  0  0  0
    0.3676   -1.7159   -0.6317 H   0  0  0  0  0  0  0  0  0  0  0  0
    0.0352   -1.9138    1.1802 H   0  0  0  0  0  0  0  0  0  0  0  0
    1.5447   -2.4609    0.4428 H   0  0  0  0  0  0  0  0  0  0  0  0
    1.1549   -0.1033    1.6157 H   0  0  0  0  0  0  0  0  0  0  0  0
    3.2508   -1.2277   -0.1097 H   0  0  0  0  0  0  0  0  0  0  0  0
    3.1369   -1.2401    1.6752 H   0  0  0  0  0  0  0  0  0  0  0  0
    4.8671    2.5065    0.9875 H   0  0  0  0  0  0  0  0  0  0  0  0
    2.0493    0.8744   -0.9309 H   0  0  0  0  0  0  0  0  0  0  0  0
    1.0237    1.5860    0.3144 H   0  0  0  0  0  0  0  0  0  0  0  0
    1.1012    0.4204   -2.8290 H   0  0  0  0  0  0  0  0  0  0  0  0
   -0.7122    0.1947   -3.0975 H   0  0  0  0  0  0  0  0  0  0  0  0
   -0.8266    1.1325    1.3799 H   0  0  0  0  0  0  0  0  0  0  0  0
   -3.0380    0.9401    2.3764 H   0  0  0  0  0  0  0  0  0  0  0  0
   -4.5373   -0.6938   -1.2371 H   0  0  0  0  0  0  0  0  0  0  0  0
   -2.3390   -0.5166   -2.2293 H   0  0  0  0  0  0  0  0  0  0  0  0
  1  2  1  0
  2  3  2  0
  2  4  1  0
  4  5  1  0
  4  6  2  0
  7  8  1  0
  8  9  1  0
  9 10  1  0
 10 11  3  0
  8 12  1  0
 12 13  1  0
 13 14  2  3
 13 15  1  0
 15 16  2  0
 16 17  1  0
 17 18  2  0
 18 19  1  0
 18 20  1  0
 20 21  2  0
 21 15  1  0
  1 22  1  0
  7 23  1  0
  7 24  1  0
  7 25  1  0
  8 26  1  0
  9 27  1  0
  9 28  1  0
 11 29  1  0
 12 30  1  0
 12 31  1  0
 14 32  1  0
 14 33  1  0
 16 34  1  0
 17 35  1  0
 20 36  1  0
 21 37  1  0
M  CHG  2   5  -1   8   1
M  END
$$$$
[H]c1c([H])c(C([H])([H])N2C([H])([H])C([H])([H])OC([H])([H])C2([H])[H])c([H])c([H])c1C(=O)N([H])c1sc(N([H])c2c([H])c([H])c3c([H])c([H])c([H])c([H])c3c2[H])nc1C(=O)N([H])[H]
     RDKit          3D

 60 64  0  0  0  0  0  0  0  0999 V2000
    2.7231   -3.1998    0.0088 N   0  0  0  0  0  0  0  0  0  0  0  0
    1.7564   -2.2506    0.4688 C   0  0  0  0  0  0  0  0  0  0  0  0
    0.7268   -2.6791    0.9853 O   0  0  0  0  0  0  0  0  0  0  0  0
    2.0912   -0.8006    0.2745 C   0  0  0  0  0  0  0  0  0  0  0  0
    3.3389   -0.4661    0.0687 N   0  0  0  0  0  0  0  0  0  0  0  0
    3.7544    0.7609    0.1008 C   0  0  0  0  0  0  0  0  0  0  0  0
    5.0517    1.3415   -0.0910 N   0  0  0  0  0  0  0  0  0  0  0  0
    6.1929    0.6214   -0.3854 C   0  0  0  0  0  0  0  0  0  0  0  0
    6.3101   -0.7070   -0.7178 C   0  0  0  0  0  0  0  0  0  0  0  0
    7.5483   -1.3073   -0.9794 C   0  0  0  0  0  0  0  0  0  0  0  0
    8.7107   -0.5876   -0.9150 C   0  0  0  0  0  0  0  0  0  0  0  0
    9.9407   -1.1338   -1.1627 C   0  0  0  0  0  0  0  0  0  0  0  0
   11.0709   -0.3499   -1.0797 C   0  0  0  0  0  0  0  0  0  0  0  0
   11.0106    0.9761   -0.7536 C   0  0  0  0  0  0  0  0  0  0  0  0
    9.7793    1.5187   -0.5066 C   0  0  0  0  0  0  0  0  0  0  0  0
    8.6307    0.7458   -0.5853 C   0  0  0  0  0  0  0  0  0  0  0  0
    7.4098    1.3254   -0.3301 C   0  0  0  0  0  0  0  0  0  0  0  0
    2.2871    1.5914    0.4516 S   0  0  0  0  0  0  0  0  0  0  0  0
    1.2064    0.1897    0.5220 C   0  0  0  0  0  0  0  0  0  0  0  0
   -0.1993    0.3400    0.5863 N   0  0  0  0  0  0  0  0  0  0  0  0
   -1.2206   -0.3884    0.0087 C   0  0  0  0  0  0  0  0  0  0  0  0
   -1.1674   -1.3686   -0.7615 O   0  0  0  0  0  0  0  0  0  0  0  0
   -2.6133    0.0445    0.3433 C   0  0  0  0  0  0  0  0  0  0  0  0
   -3.5913   -0.9310    0.2874 C   0  0  0  0  0  0  0  0  0  0  0  0
   -4.9187   -0.6165    0.5777 C   0  0  0  0  0  0  0  0  0  0  0  0
   -5.2645    0.6643    0.9211 C   0  0  0  0  0  0  0  0  0  0  0  0
   -6.6667    0.9881    1.2215 C   0  0  0  0  0  0  0  0  0  0  0  0
   -7.5815    0.0518    0.5968 N   0  0  0  0  0  0  0  0  0  0  0  0
   -8.9530    0.3938    0.9491 C   0  0  0  0  0  0  0  0  0  0  0  0
   -9.8558   -0.4446    0.0698 C   0  0  0  0  0  0  0  0  0  0  0  0
   -9.7801   -0.0786   -1.2709 O   0  0  0  0  0  0  0  0  0  0  0  0
   -8.6094    0.6169   -1.5578 C   0  0  0  0  0  0  0  0  0  0  0  0
   -7.4124    0.0255   -0.8468 C   0  0  0  0  0  0  0  0  0  0  0  0
   -4.2625    1.6361    0.9721 C   0  0  0  0  0  0  0  0  0  0  0  0
   -2.9383    1.3161    0.6811 C   0  0  0  0  0  0  0  0  0  0  0  0
    2.8923   -4.0282    0.6096 H   0  0  0  0  0  0  0  0  0  0  0  0
    3.2601   -3.1172   -0.8741 H   0  0  0  0  0  0  0  0  0  0  0  0
    5.0693    2.3815    0.0085 H   0  0  0  0  0  0  0  0  0  0  0  0
    5.4129   -1.3051   -0.7860 H   0  0  0  0  0  0  0  0  0  0  0  0
    7.5714   -2.3441   -1.2321 H   0  0  0  0  0  0  0  0  0  0  0  0
   10.0185   -2.1992   -1.4275 H   0  0  0  0  0  0  0  0  0  0  0  0
   12.0512   -0.7939   -1.2792 H   0  0  0  0  0  0  0  0  0  0  0  0
   11.9290    1.5491   -0.7016 H   0  0  0  0  0  0  0  0  0  0  0  0
    9.7156    2.5856   -0.2429 H   0  0  0  0  0  0  0  0  0  0  0  0
    7.3710    2.3806   -0.0709 H   0  0  0  0  0  0  0  0  0  0  0  0
   -0.4891    1.1796    1.2194 H   0  0  0  0  0  0  0  0  0  0  0  0
   -3.3469   -1.9542    0.0182 H   0  0  0  0  0  0  0  0  0  0  0  0
   -5.6371   -1.4116    0.5223 H   0  0  0  0  0  0  0  0  0  0  0  0
   -6.8189    0.8978    2.3202 H   0  0  0  0  0  0  0  0  0  0  0  0
   -6.9423    2.0270    0.9450 H   0  0  0  0  0  0  0  0  0  0  0  0
   -9.1827    1.4536    0.7473 H   0  0  0  0  0  0  0  0  0  0  0  0
   -9.1501    0.1044    1.9940 H   0  0  0  0  0  0  0  0  0  0  0  0
   -9.6386   -1.5268    0.1831 H   0  0  0  0  0  0  0  0  0  0  0  0
  -10.8984   -0.2644    0.4027 H   0  0  0  0  0  0  0  0  0  0  0  0
   -8.4255    0.5043   -2.6462 H   0  0  0  0  0  0  0  0  0  0  0  0
   -8.7275    1.6773   -1.3375 H   0  0  0  0  0  0  0  0  0  0  0  0
   -7.2792   -1.0117   -1.1728 H   0  0  0  0  0  0  0  0  0  0  0  0
   -6.5443    0.6597   -1.1149 H   0  0  0  0  0  0  0  0  0  0  0  0
   -4.5273    2.6350    1.2392 H   0  0  0  0  0  0  0  0  0  0  0  0
   -2.1887    2.0824    0.7229 H   0  0  0  0  0  0  0  0  0  0  0  0
  1  2  1  0
  2  3  2  0
  2  4  1  0
  4  5  1  0
  5  6  2  0
  6  7  1  0
  7  8  1  0
  8  9  2  0
  9 10  1  0
 10 11  2  0
 11 12  1  0
 12 13  2  0
 13 14  1  0
 14 15  2  0
 15 16  1  0
 16 17  2  0
  6 18  1  0
 18 19  1  0
 19 20  1  0
 20 21  1  0
 21 22  2  0
 21 23  1  0
 23 24  2  0
 24 25  1  0
 25 26  2  0
 26 27  1  0
 27 28  1  0
 28 29  1  0
 29 30  1  0
 30 31  1  0
 31 32  1  0
 32 33  1  0
 26 34  1  0
 34 35  2  0
 19  4  2  0
 35 23  1  0
 17  8  1  0
 33 28  1  0
 16 11  1  0
  1 36  1  0
  1 37  1  0
  7 38  1  0
  9 39  1  0
 10 40  1  0
 12 41  1  0
 13 42  1  0
 14 43  1  0
 15 44  1  0
 17 45  1  0
 20 46  1  0
 24 47  1  0
 25 48  1  0
 27 49  1  0
 27 50  1  0
 29 51  1  0
 29 52  1  0
 30 53  1  0
 30 54  1  0
 32 55  1  0
 32 56  1  0
 33 57  1  0
 33 58  1  0
 34 59  1  0
 35 60  1  0
M  END
$$$$
[H]c1nc([H])n(C([H])([H])[C@@]2(c3c([H])c([H])c(Cl)c([H])c3Cl)OC([H])([H])[C@@]([H])(C([H])([H])Oc3c([H])c([H])c(N4C([H])([H])C([H])([H])N(S(=O)(=O)C([H])(C([H])([H])[H])C([H])([H])[H])C([H])([H])C4([H])[H])c([H])c3[H])O2)c1[H]
     RDKit          3D

 71 75  0  0  0  0  0  0  0  0999 V2000
   -9.9306    1.5764   -0.6749 C   0  0  0  0  0  0  0  0  0  0  0  0
   -8.5408    0.9772   -0.9129 C   0  0  0  0  0  0  0  0  0  0  0  0
   -8.6610   -0.2401   -1.7819 C   0  0  0  0  0  0  0  0  0  0  0  0
   -7.8651    0.5792    0.6636 S   0  0  0  0  0  0  0  0  0  0  0  0
   -8.7178   -0.5398    1.2412 O   0  0  0  0  0  0  0  0  0  0  0  0
   -7.9616    1.7729    1.5702 O   0  0  0  0  0  0  0  0  0  0  0  0
   -6.2694    0.0275    0.5779 N   0  0  0  0  0  0  0  0  0  0  0  0
   -5.2972    0.8966    0.0635 C   0  0  0  0  0  0  0  0  0  0  0  0
   -4.2270    0.0927   -0.6808 C   0  0  0  0  0  0  0  0  0  0  0  0
   -3.7048   -0.8387    0.2680 N   0  0  0  0  0  0  0  0  0  0  0  0
   -4.6308   -1.7775    0.8484 C   0  0  0  0  0  0  0  0  0  0  0  0
   -6.0646   -1.3652    0.5677 C   0  0  0  0  0  0  0  0  0  0  0  0
   -2.3502   -0.8580    0.6464 C   0  0  0  0  0  0  0  0  0  0  0  0
   -1.4228    0.0912    0.2877 C   0  0  0  0  0  0  0  0  0  0  0  0
   -0.1040    0.0346    0.6733 C   0  0  0  0  0  0  0  0  0  0  0  0
    0.3488   -1.0001    1.4515 C   0  0  0  0  0  0  0  0  0  0  0  0
    1.6545   -1.0671    1.8352 O   0  0  0  0  0  0  0  0  0  0  0  0
    2.7382   -0.2563    1.5662 C   0  0  0  0  0  0  0  0  0  0  0  0
    3.1326   -0.2169    0.1275 C   0  0  2  0  0  0  0  0  0  0  0  0
    3.8455   -1.5624   -0.1342 C   0  0  0  0  0  0  0  0  0  0  0  0
    5.0326   -1.3466    0.5520 O   0  0  0  0  0  0  0  0  0  0  0  0
    5.3734   -0.0325    0.0134 C   0  0  2  0  0  0  0  0  0  0  0  0
    6.2545    0.5310    1.1181 C   0  0  0  0  0  0  0  0  0  0  0  0
    6.8433    1.7966    1.0586 N   0  0  0  0  0  0  0  0  0  0  0  0
    6.3870    3.0059    1.4293 C   0  0  0  0  0  0  0  0  0  0  0  0
    7.3566    3.9423    1.2603 C   0  0  0  0  0  0  0  0  0  0  0  0
    8.4203    3.2870    0.7779 N   0  0  0  0  0  0  0  0  0  0  0  0
    8.1357    1.9927    0.6476 C   0  0  0  0  0  0  0  0  0  0  0  0
    4.2287    0.6537   -0.0762 O   0  0  0  0  0  0  0  0  0  0  0  0
    6.1055   -0.3458   -1.2299 C   0  0  0  0  0  0  0  0  0  0  0  0
    6.5916   -1.6579   -1.4047 C   0  0  0  0  0  0  0  0  0  0  0  0
    7.4029   -2.0367   -2.4297 C   0  0  0  0  0  0  0  0  0  0  0  0
    7.7956   -1.1294   -3.3672 C   0  0  0  0  0  0  0  0  0  0  0  0
    8.8440   -1.5894   -4.6983 Cl  0  0  0  0  0  0  0  0  0  0  0  0
    7.3317    0.1563   -3.2191 C   0  0  0  0  0  0  0  0  0  0  0  0
    6.5062    0.5463   -2.1828 C   0  0  0  0  0  0  0  0  0  0  0  0
    5.8183    2.1668   -2.1864 Cl  0  0  0  0  0  0  0  0  0  0  0  0
   -0.5575   -2.0021    1.8503 C   0  0  0  0  0  0  0  0  0  0  0  0
   -1.8533   -1.9052    1.4455 C   0  0  0  0  0  0  0  0  0  0  0  0
   -9.7931    2.6450   -0.4727 H   0  0  0  0  0  0  0  0  0  0  0  0
  -10.5754    1.4671   -1.5627 H   0  0  0  0  0  0  0  0  0  0  0  0
  -10.3439    1.0584    0.2117 H   0  0  0  0  0  0  0  0  0  0  0  0
   -7.9295    1.7732   -1.3876 H   0  0  0  0  0  0  0  0  0  0  0  0
   -8.6599   -1.1460   -1.1233 H   0  0  0  0  0  0  0  0  0  0  0  0
   -7.7870   -0.2796   -2.4544 H   0  0  0  0  0  0  0  0  0  0  0  0
   -9.5731   -0.2162   -2.4118 H   0  0  0  0  0  0  0  0  0  0  0  0
   -5.7919    1.6101   -0.6457 H   0  0  0  0  0  0  0  0  0  0  0  0
   -4.8010    1.4728    0.8972 H   0  0  0  0  0  0  0  0  0  0  0  0
   -3.5148    0.7376   -1.1886 H   0  0  0  0  0  0  0  0  0  0  0  0
   -4.8006   -0.5010   -1.4390 H   0  0  0  0  0  0  0  0  0  0  0  0
   -4.4958   -1.9348    1.9307 H   0  0  0  0  0  0  0  0  0  0  0  0
   -4.4745   -2.7553    0.3491 H   0  0  0  0  0  0  0  0  0  0  0  0
   -6.4176   -1.7946   -0.4109 H   0  0  0  0  0  0  0  0  0  0  0  0
   -6.6937   -1.8383    1.3486 H   0  0  0  0  0  0  0  0  0  0  0  0
   -1.7534    0.9291   -0.3297 H   0  0  0  0  0  0  0  0  0  0  0  0
    0.5159    0.8634    0.3362 H   0  0  0  0  0  0  0  0  0  0  0  0
    3.6207   -0.7281    2.1079 H   0  0  0  0  0  0  0  0  0  0  0  0
    2.6568    0.7642    2.0160 H   0  0  0  0  0  0  0  0  0  0  0  0
    2.3492   -0.0558   -0.6054 H   0  0  0  0  0  0  0  0  0  0  0  0
    3.2458   -2.3933    0.2902 H   0  0  0  0  0  0  0  0  0  0  0  0
    3.9623   -1.6094   -1.2136 H   0  0  0  0  0  0  0  0  0  0  0  0
    7.0225   -0.2859    1.2960 H   0  0  0  0  0  0  0  0  0  0  0  0
    5.6351    0.5076    2.0848 H   0  0  0  0  0  0  0  0  0  0  0  0
    5.3958    3.1904    1.8037 H   0  0  0  0  0  0  0  0  0  0  0  0
    7.3085    5.0290    1.4685 H   0  0  0  0  0  0  0  0  0  0  0  0
    8.8091    1.2091    0.2773 H   0  0  0  0  0  0  0  0  0  0  0  0
    6.3242   -2.4455   -0.6966 H   0  0  0  0  0  0  0  0  0  0  0  0
    7.7475   -3.0705   -2.5111 H   0  0  0  0  0  0  0  0  0  0  0  0
    7.6294    0.9071   -3.9559 H   0  0  0  0  0  0  0  0  0  0  0  0
   -0.1961   -2.8077    2.4591 H   0  0  0  0  0  0  0  0  0  0  0  0
   -2.6105   -2.6609    1.7256 H   0  0  0  0  0  0  0  0  0  0  0  0
  1  2  1  0
  2  3  1  0
  2  4  1  0
  4  5  2  0
  4  6  2  0
  4  7  1  0
  7  8  1  0
  8  9  1  0
  9 10  1  0
 10 11  1  0
 11 12  1  0
 10 13  1  0
 13 14  2  0
 14 15  1  0
 15 16  2  0
 16 17  1  0
 17 18  1  0
 18 19  1  0
 19 20  1  0
 20 21  1  0
 21 22  1  0
 22 23  1  1
 23 24  1  0
 24 25  1  0
 25 26  2  0
 26 27  1  0
 27 28  2  0
 22 29  1  0
 22 30  1  0
 30 31  2  0
 31 32  1  0
 32 33  2  0
 33 34  1  0
 33 35  1  0
 35 36  2  0
 36 37  1  0
 16 38  1  0
 38 39  2  0
 12  7  1  0
 39 13  1  0
 29 19  1  0
 36 30  1  0
 28 24  1  0
  1 40  1  0
  1 41  1  0
  1 42  1  0
  2 43  1  0
  3 44  1  0
  3 45  1  0
  3 46  1  0
  8 47  1  0
  8 48  1  0
  9 49  1  0
  9 50  1  0
 11 51  1  0
 11 52  1  0
 12 53  1  0
 12 54  1  0
 14 55  1  0
 15 56  1  0
 18 57  1  0
 18 58  1  0
 19 59  1  6
 20 60  1  0
 20 61  1  0
 23 62  1  0
 23 63  1  0
 25 64  1  0
 26 65  1  0
 28 66  1  0
 31 67  1  0
 32 68  1  0
 35 69  1  0
 38 70  1  0
 39 71  1  0
M  END
$$$$
[H]OC(=O)C([H])([H])C([H])([H])[C@@]([H])(C(=O)N([H])[C@]([H])(C(=O)O[H])C([H])([H])c1c([H])n([H])c2c([H])c([H])c([H])c([H])c12)N([H])C(=O)[C@@]([H])(N([H])C(=O)C([H])([H])[H])C([H])([H])C([H])(C([H])([H])[H])C([H])([H])[H]
     RDKit          3D

 67 68  0  0  0  0  0  0  0  0999 V2000
   -5.5651   -1.1623    1.5866 C   0  0  0  0  0  0  0  0  0  0  0  0
   -5.5318   -0.6983    0.1144 C   0  0  0  0  0  0  0  0  0  0  0  0
   -6.1177   -1.8553   -0.6607 C   0  0  0  0  0  0  0  0  0  0  0  0
   -4.1025   -0.4257   -0.1921 C   0  0  0  0  0  0  0  0  0  0  0  0
   -3.7719    0.0730   -1.5465 C   0  0  2  0  0  0  0  0  0  0  0  0
   -4.1463   -0.8251   -2.6075 N   0  0  0  0  0  0  0  0  0  0  0  0
   -4.8319   -0.3680   -3.7651 C   0  0  0  0  0  0  0  0  0  0  0  0
   -5.1942   -1.3213   -4.8250 C   0  0  0  0  0  0  0  0  0  0  0  0
   -5.1416    0.8562   -3.9066 O   0  0  0  0  0  0  0  0  0  0  0  0
   -2.2683    0.1913   -1.6048 C   0  0  0  0  0  0  0  0  0  0  0  0
   -1.6408   -0.4071   -2.4976 O   0  0  0  0  0  0  0  0  0  0  0  0
   -1.6264    0.9833   -0.6337 N   0  0  0  0  0  0  0  0  0  0  0  0
   -0.1881    1.1313   -0.6434 C   0  0  1  0  0  0  0  0  0  0  0  0
    0.2479    2.5504   -0.4838 C   0  0  0  0  0  0  0  0  0  0  0  0
   -0.2271    3.1599    0.8170 C   0  0  0  0  0  0  0  0  0  0  0  0
    0.2195    4.5690    0.9463 C   0  0  0  0  0  0  0  0  0  0  0  0
   -0.1500    5.2652    2.1090 O   0  0  0  0  0  0  0  0  0  0  0  0
    0.8924    5.1627    0.0971 O   0  0  0  0  0  0  0  0  0  0  0  0
    0.3848    0.2986    0.4472 C   0  0  0  0  0  0  0  0  0  0  0  0
   -0.3895   -0.3649    1.1701 O   0  0  0  0  0  0  0  0  0  0  0  0
    1.7745    0.2747    0.6373 N   0  0  0  0  0  0  0  0  0  0  0  0
    2.3388   -0.5503    1.7001 C   0  0  1  0  0  0  0  0  0  0  0  0
    3.0430   -1.7431    1.1088 C   0  0  0  0  0  0  0  0  0  0  0  0
    4.1167   -1.4626    0.1802 C   0  0  0  0  0  0  0  0  0  0  0  0
    3.9265   -1.4002   -1.2078 C   0  0  0  0  0  0  0  0  0  0  0  0
    5.0915   -1.0791   -1.8056 N   0  0  0  0  0  0  0  0  0  0  0  0
    6.0474   -0.9272   -0.8640 C   0  0  0  0  0  0  0  0  0  0  0  0
    7.3840   -0.6177   -0.9473 C   0  0  0  0  0  0  0  0  0  0  0  0
    8.1870   -0.5294    0.1661 C   0  0  0  0  0  0  0  0  0  0  0  0
    7.5833   -0.7698    1.3993 C   0  0  0  0  0  0  0  0  0  0  0  0
    6.2480   -1.0788    1.4854 C   0  0  0  0  0  0  0  0  0  0  0  0
    5.4291   -1.1695    0.3756 C   0  0  0  0  0  0  0  0  0  0  0  0
    3.0739    0.2698    2.6305 C   0  0  0  0  0  0  0  0  0  0  0  0
    3.6504   -0.1472    3.8193 O   0  0  0  0  0  0  0  0  0  0  0  0
    3.2332    1.5163    2.3795 O   0  0  0  0  0  0  0  0  0  0  0  0
   -5.0157   -0.3714    2.1662 H   0  0  0  0  0  0  0  0  0  0  0  0
   -5.0129   -2.0910    1.6871 H   0  0  0  0  0  0  0  0  0  0  0  0
   -6.6033   -1.1657    1.9622 H   0  0  0  0  0  0  0  0  0  0  0  0
   -6.1397    0.2132   -0.0179 H   0  0  0  0  0  0  0  0  0  0  0  0
   -5.3152   -2.6145   -0.7809 H   0  0  0  0  0  0  0  0  0  0  0  0
   -6.6354   -1.5720   -1.5768 H   0  0  0  0  0  0  0  0  0  0  0  0
   -6.9285   -2.3017   -0.0008 H   0  0  0  0  0  0  0  0  0  0  0  0
   -3.4881   -1.3465   -0.0222 H   0  0  0  0  0  0  0  0  0  0  0  0
   -3.7458    0.3278    0.5624 H   0  0  0  0  0  0  0  0  0  0  0  0
   -4.2004    1.0820   -1.7719 H   0  0  0  0  0  0  0  0  0  0  0  0
   -3.9112   -1.8302   -2.5352 H   0  0  0  0  0  0  0  0  0  0  0  0
   -5.7830   -2.1554   -4.3798 H   0  0  0  0  0  0  0  0  0  0  0  0
   -4.3085   -1.7845   -5.3131 H   0  0  0  0  0  0  0  0  0  0  0  0
   -5.7653   -0.8051   -5.6029 H   0  0  0  0  0  0  0  0  0  0  0  0
   -2.1633    1.4765    0.1020 H   0  0  0  0  0  0  0  0  0  0  0  0
    0.1924    0.7136   -1.6096 H   0  0  0  0  0  0  0  0  0  0  0  0
   -0.1375    3.2047   -1.2928 H   0  0  0  0  0  0  0  0  0  0  0  0
    1.3510    2.6514   -0.5126 H   0  0  0  0  0  0  0  0  0  0  0  0
   -1.3200    3.1412    0.9468 H   0  0  0  0  0  0  0  0  0  0  0  0
    0.2186    2.5936    1.6837 H   0  0  0  0  0  0  0  0  0  0  0  0
    0.5918    5.4082    2.7723 H   0  0  0  0  0  0  0  0  0  0  0  0
    2.4060    0.8328    0.0350 H   0  0  0  0  0  0  0  0  0  0  0  0
    1.4278   -1.0103    2.2230 H   0  0  0  0  0  0  0  0  0  0  0  0
    2.2329   -2.3934    0.6646 H   0  0  0  0  0  0  0  0  0  0  0  0
    3.3882   -2.3672    1.9917 H   0  0  0  0  0  0  0  0  0  0  0  0
    3.0055   -1.5781   -1.7387 H   0  0  0  0  0  0  0  0  0  0  0  0
    5.2473   -0.9612   -2.8463 H   0  0  0  0  0  0  0  0  0  0  0  0
    7.8695   -0.4272   -1.9142 H   0  0  0  0  0  0  0  0  0  0  0  0
    9.2406   -0.2848    0.0932 H   0  0  0  0  0  0  0  0  0  0  0  0
    8.2035   -0.7054    2.2897 H   0  0  0  0  0  0  0  0  0  0  0  0
    5.8146   -1.2740    2.4592 H   0  0  0  0  0  0  0  0  0  0  0  0
    3.3056   -0.0042    4.7376 H   0  0  0  0  0  0  0  0  0  0  0  0
  1  2  1  0
  2  3  1  0
  2  4  1  0
  4  5  1  0
  5  6  1  0
  6  7  1  0
  7  8  1  0
  7  9  2  0
  5 10  1  0
 10 11  2  0
 10 12  1  0
 12 13  1  0
 13 14  1  0
 14 15  1  0
 15 16  1  0
 16 17  1  0
 16 18  2  0
 13 19  1  0
 19 20  2  0
 19 21  1  0
 21 22  1  0
 22 23  1  0
 23 24  1  0
 24 25  2  0
 25 26  1  0
 26 27  1  0
 27 28  2  0
 28 29  1  0
 29 30  2  0
 30 31  1  0
 31 32  2  0
 22 33  1  0
 33 34  1  0
 33 35  2  0
 32 24  1  0
 32 27  1  0
  1 36  1  0
  1 37  1  0
  1 38  1  0
  2 39  1  0
  3 40  1  0
  3 41  1  0
  3 42  1  0
  4 43  1  0
  4 44  1  0
  5 45  1  6
  6 46  1  0
  8 47  1  0
  8 48  1  0
  8 49  1  0
 12 50  1  0
 13 51  1  6
 14 52  1  0
 14 53  1  0
 15 54  1  0
 15 55  1  0
 17 56  1  0
 21 57  1  0
 22 58  1  1
 23 59  1  0
 23 60  1  0
 25 61  1  0
 26 62  1  0
 28 63  1  0
 29 64  1  0
 30 65  1  0
 31 66  1  0
 34 67  1  0
M  END
$$$$
[H]OC(=O)c1c([H])c([H])c(N2C(=O)N(c3c([H])c([H])c(C#N)c([H])c3[H])C3(C2=O)C([H])([H])C([H])([H])N(C([H])([H])c2nc([H])c([H])c([H])c2C([H])([H])[H])C([H])([H])C3([H])[H])c([H])c1[H]
     RDKit          3D

 62 66  0  0  0  0  0  0  0  0999 V2000
    6.5242    0.8291    0.1650 C   0  0  0  0  0  0  0  0  0  0  0  0
    5.8480   -0.5013    0.0214 C   0  0  0  0  0  0  0  0  0  0  0  0
    6.7145   -1.5860   -0.0813 C   0  0  0  0  0  0  0  0  0  0  0  0
    6.1430   -2.8337   -0.2181 C   0  0  0  0  0  0  0  0  0  0  0  0
    4.7659   -2.9616   -0.2480 C   0  0  0  0  0  0  0  0  0  0  0  0
    3.9822   -1.8757   -0.1444 N   0  0  0  0  0  0  0  0  0  0  0  0
    4.4817   -0.6436   -0.0099 C   0  0  0  0  0  0  0  0  0  0  0  0
    3.6546    0.5565    0.1082 C   0  0  0  0  0  0  0  0  0  0  0  0
    2.2732    0.3869    0.0692 N   0  0  0  0  0  0  0  0  0  0  0  0
    1.6531   -0.1857   -1.0599 C   0  0  0  0  0  0  0  0  0  0  0  0
    0.3982    0.6605   -1.3254 C   0  0  0  0  0  0  0  0  0  0  0  0
   -0.5495    0.3758   -0.2013 C   0  0  0  0  0  0  0  0  0  0  0  0
    0.0930   -0.0170    1.0829 C   0  0  0  0  0  0  0  0  0  0  0  0
    1.5128    0.4563    1.2536 C   0  0  0  0  0  0  0  0  0  0  0  0
   -1.5555    1.4076   -0.0348 N   0  0  0  0  0  0  0  0  0  0  0  0
   -2.7593    0.7294    0.3543 C   0  0  0  0  0  0  0  0  0  0  0  0
   -3.7659    1.2330    0.9457 O   0  0  0  0  0  0  0  0  0  0  0  0
   -2.6801   -0.6338   -0.0216 N   0  0  0  0  0  0  0  0  0  0  0  0
   -1.4021   -0.7802   -0.6497 C   0  0  0  0  0  0  0  0  0  0  0  0
   -1.0677   -1.7000   -1.4239 O   0  0  0  0  0  0  0  0  0  0  0  0
   -3.6703   -1.6321    0.1885 C   0  0  0  0  0  0  0  0  0  0  0  0
   -3.2568   -2.9225    0.5397 C   0  0  0  0  0  0  0  0  0  0  0  0
   -4.1550   -3.9341    0.7559 C   0  0  0  0  0  0  0  0  0  0  0  0
   -5.5043   -3.6650    0.6218 C   0  0  0  0  0  0  0  0  0  0  0  0
   -5.9197   -2.3928    0.2752 C   0  0  0  0  0  0  0  0  0  0  0  0
   -5.0172   -1.3987    0.0636 C   0  0  0  0  0  0  0  0  0  0  0  0
   -6.4807   -4.7074    0.8422 C   0  0  0  0  0  0  0  0  0  0  0  0
   -6.0594   -5.9709    1.1856 O   0  0  0  0  0  0  0  0  0  0  0  0
   -7.6950   -4.4600    0.7213 O   0  0  0  0  0  0  0  0  0  0  0  0
   -1.4662    2.8041   -0.1964 C   0  0  0  0  0  0  0  0  0  0  0  0
   -1.1400    3.6729    0.8329 C   0  0  0  0  0  0  0  0  0  0  0  0
   -1.0611    5.0313    0.6400 C   0  0  0  0  0  0  0  0  0  0  0  0
   -1.3029    5.5882   -0.5842 C   0  0  0  0  0  0  0  0  0  0  0  0
   -1.6293    4.7517   -1.6268 C   0  0  0  0  0  0  0  0  0  0  0  0
   -1.7066    3.3794   -1.4227 C   0  0  0  0  0  0  0  0  0  0  0  0
   -1.2279    7.0174   -0.8151 C   0  0  0  0  0  0  0  0  0  0  0  0
   -1.1543    8.1625   -1.0137 N   0  0  0  0  0  0  0  0  0  0  0  0
    6.6662    1.2664   -0.8619 H   0  0  0  0  0  0  0  0  0  0  0  0
    7.5031    0.7114    0.6260 H   0  0  0  0  0  0  0  0  0  0  0  0
    5.9527    1.5296    0.8028 H   0  0  0  0  0  0  0  0  0  0  0  0
    7.7916   -1.4654   -0.0566 H   0  0  0  0  0  0  0  0  0  0  0  0
    6.7528   -3.7291   -0.3039 H   0  0  0  0  0  0  0  0  0  0  0  0
    4.3676   -3.9679   -0.3575 H   0  0  0  0  0  0  0  0  0  0  0  0
    3.9909    1.0930    1.0395 H   0  0  0  0  0  0  0  0  0  0  0  0
    3.9576    1.2403   -0.7366 H   0  0  0  0  0  0  0  0  0  0  0  0
    1.2627   -1.1926   -0.7953 H   0  0  0  0  0  0  0  0  0  0  0  0
    2.3165   -0.2124   -1.9254 H   0  0  0  0  0  0  0  0  0  0  0  0
   -0.0140    0.4966   -2.3189 H   0  0  0  0  0  0  0  0  0  0  0  0
    0.7378    1.7118   -1.2546 H   0  0  0  0  0  0  0  0  0  0  0  0
    0.0287   -1.1148    1.2767 H   0  0  0  0  0  0  0  0  0  0  0  0
   -0.4999    0.4495    1.9152 H   0  0  0  0  0  0  0  0  0  0  0  0
    1.9578   -0.0897    2.1018 H   0  0  0  0  0  0  0  0  0  0  0  0
    1.4376    1.5433    1.5536 H   0  0  0  0  0  0  0  0  0  0  0  0
   -2.2001   -3.1181    0.6409 H   0  0  0  0  0  0  0  0  0  0  0  0
   -3.8412   -4.9451    1.0296 H   0  0  0  0  0  0  0  0  0  0  0  0
   -6.9632   -2.2089    0.1786 H   0  0  0  0  0  0  0  0  0  0  0  0
   -5.3512   -0.4145   -0.2053 H   0  0  0  0  0  0  0  0  0  0  0  0
   -6.1353   -6.7006    0.4762 H   0  0  0  0  0  0  0  0  0  0  0  0
   -0.9483    3.2245    1.8103 H   0  0  0  0  0  0  0  0  0  0  0  0
   -0.8057    5.6582    1.4698 H   0  0  0  0  0  0  0  0  0  0  0  0
   -1.8155    5.2146   -2.5840 H   0  0  0  0  0  0  0  0  0  0  0  0
   -1.9670    2.7798   -2.2808 H   0  0  0  0  0  0  0  0  0  0  0  0
  1  2  1  0
  2  3  2  0
  3  4  1  0
  4  5  2  0
  5  6  1  0
  6  7  2  0
  7  8  1  0
  8  9  1  0
  9 10  1  0
 10 11  1  0
 11 12  1  0
 12 13  1  0
 13 14  1  0
 12 15  1  0
 15 16  1  0
 16 17  2  0
 16 18  1  0
 18 19  1  0
 19 20  2  0
 18 21  1  0
 21 22  2  0
 22 23  1  0
 23 24  2  0
 24 25  1  0
 25 26  2  0
 24 27  1  0
 27 28  1  0
 27 29  2  0
 15 30  1  0
 30 31  2  0
 31 32  1  0
 32 33  2  0
 33 34  1  0
 34 35  2  0
 33 36  1  0
 36 37  3  0
  7  2  1  0
 14  9  1  0
 26 21  1  0
 35 30  1  0
 19 12  1  0
  1 38  1  0
  1 39  1  0
  1 40  1  0
  3 41  1  0
  4 42  1  0
  5 43  1  0
  8 44  1  0
  8 45  1  0
 10 46  1  0
 10 47  1  0
 11 48  1  0
 11 49  1  0
 13 50  1  0
 13 51  1  0
 14 52  1  0
 14 53  1  0
 22 54  1  0
 23 55  1  0
 25 56  1  0
 26 57  1  0
 28 58  1  0
 31 59  1  0
 32 60  1  0
 34 61  1  0
 35 62  1  0
M  END
$$$$
[H]O[C@@]([H])(C([H])([H])N([H])C(=O)c1c(C([H])([H])[H])c(/C([H])=C2\C(=O)N([H])c3c([H])c([H])c(F)c([H])c32)n([H])c1C([H])([H])[H])C([H])([H])N1C([H])([H])C([H])([H])C([H])([H])C1([H])[H]
     RDKit          3D

 58 61  0  0  0  0  0  0  0  0999 V2000
   -0.8227   -0.5506    3.2377 C   0  0  0  0  0  0  0  0  0  0  0  0
   -1.4020   -0.2058    1.9009 C   0  0  0  0  0  0  0  0  0  0  0  0
   -2.6919    0.2064    1.7116 N   0  0  0  0  0  0  0  0  0  0  0  0
   -2.9448    0.4538    0.4229 C   0  0  0  0  0  0  0  0  0  0  0  0
   -4.1585    0.8891   -0.2560 C   0  0  0  0  0  0  0  0  0  0  0  0
   -5.3276    0.2826   -0.1986 C   0  0  0  0  0  0  0  0  0  0  0  0
   -5.6490   -0.9198    0.5258 C   0  0  0  0  0  0  0  0  0  0  0  0
   -4.8752   -1.6292    1.2116 O   0  0  0  0  0  0  0  0  0  0  0  0
   -7.0545   -1.1580    0.3051 N   0  0  0  0  0  0  0  0  0  0  0  0
   -7.5713   -0.1357   -0.5267 C   0  0  0  0  0  0  0  0  0  0  0  0
   -8.8581    0.0937   -1.0312 C   0  0  0  0  0  0  0  0  0  0  0  0
   -9.1559    1.1693   -1.8391 C   0  0  0  0  0  0  0  0  0  0  0  0
   -8.1353    2.0475   -2.1552 C   0  0  0  0  0  0  0  0  0  0  0  0
   -8.4288    3.1077   -2.9517 F   0  0  0  0  0  0  0  0  0  0  0  0
   -6.8638    1.8250   -1.6590 C   0  0  0  0  0  0  0  0  0  0  0  0
   -6.5770    0.7488   -0.8543 C   0  0  0  0  0  0  0  0  0  0  0  0
   -1.7522    0.1827   -0.2220 C   0  0  0  0  0  0  0  0  0  0  0  0
   -1.5683    0.3270   -1.6923 C   0  0  0  0  0  0  0  0  0  0  0  0
   -0.7791   -0.2303    0.6849 C   0  0  0  0  0  0  0  0  0  0  0  0
    0.5685   -0.5943    0.2968 C   0  0  0  0  0  0  0  0  0  0  0  0
    0.8953   -0.4262   -0.9427 O   0  0  0  0  0  0  0  0  0  0  0  0
    1.5731   -1.1115    1.1047 N   0  0  0  0  0  0  0  0  0  0  0  0
    2.9150   -1.4725    0.7889 C   0  0  0  0  0  0  0  0  0  0  0  0
    3.8509   -0.4221    0.3316 C   0  0  2  0  0  0  0  0  0  0  0  0
    3.5467    0.2205   -0.8405 O   0  0  0  0  0  0  0  0  0  0  0  0
    5.2480   -1.0404    0.1761 C   0  0  0  0  0  0  0  0  0  0  0  0
    6.2658   -0.1096   -0.0710 N   0  0  0  0  0  0  0  0  0  0  0  0
    6.3138    0.5653   -1.3124 C   0  0  0  0  0  0  0  0  0  0  0  0
    7.7718    0.8655   -1.6173 C   0  0  0  0  0  0  0  0  0  0  0  0
    8.4976    0.5654   -0.3271 C   0  0  0  0  0  0  0  0  0  0  0  0
    7.5889   -0.4821    0.3043 C   0  0  0  0  0  0  0  0  0  0  0  0
    0.0211    0.1378    3.4417 H   0  0  0  0  0  0  0  0  0  0  0  0
   -0.6285   -1.6112    3.3816 H   0  0  0  0  0  0  0  0  0  0  0  0
   -1.5836   -0.2599    4.0227 H   0  0  0  0  0  0  0  0  0  0  0  0
   -3.3614    0.3198    2.4959 H   0  0  0  0  0  0  0  0  0  0  0  0
   -4.1471    1.8025   -0.8860 H   0  0  0  0  0  0  0  0  0  0  0  0
   -7.5651   -1.9607    0.7087 H   0  0  0  0  0  0  0  0  0  0  0  0
   -9.6182   -0.6074   -0.7636 H   0  0  0  0  0  0  0  0  0  0  0  0
  -10.1798    1.3181   -2.2168 H   0  0  0  0  0  0  0  0  0  0  0  0
   -6.0790    2.5148   -1.9111 H   0  0  0  0  0  0  0  0  0  0  0  0
   -0.7834    1.0705   -1.9372 H   0  0  0  0  0  0  0  0  0  0  0  0
   -1.2705   -0.6567   -2.1355 H   0  0  0  0  0  0  0  0  0  0  0  0
   -2.4861    0.6361   -2.1894 H   0  0  0  0  0  0  0  0  0  0  0  0
    1.3145   -1.2788    2.1275 H   0  0  0  0  0  0  0  0  0  0  0  0
    2.8408   -2.2224   -0.0604 H   0  0  0  0  0  0  0  0  0  0  0  0
    3.4153   -2.0238    1.6471 H   0  0  0  0  0  0  0  0  0  0  0  0
    3.9490    0.4068    1.1059 H   0  0  0  0  0  0  0  0  0  0  0  0
    3.6787   -0.4392   -1.5931 H   0  0  0  0  0  0  0  0  0  0  0  0
    5.4592   -1.6410    1.1018 H   0  0  0  0  0  0  0  0  0  0  0  0
    5.1642   -1.7287   -0.7079 H   0  0  0  0  0  0  0  0  0  0  0  0
    5.9594   -0.1267   -2.1187 H   0  0  0  0  0  0  0  0  0  0  0  0
    5.6817    1.4755   -1.3972 H   0  0  0  0  0  0  0  0  0  0  0  0
    8.1561    0.2297   -2.4462 H   0  0  0  0  0  0  0  0  0  0  0  0
    7.9274    1.9342   -1.8492 H   0  0  0  0  0  0  0  0  0  0  0  0
    8.5995    1.4712    0.3104 H   0  0  0  0  0  0  0  0  0  0  0  0
    9.4763    0.1044   -0.5707 H   0  0  0  0  0  0  0  0  0  0  0  0
    7.8587   -1.4653   -0.1102 H   0  0  0  0  0  0  0  0  0  0  0  0
    7.7816   -0.4617    1.4033 H   0  0  0  0  0  0  0  0  0  0  0  0
  1  2  1  0
  2  3  1  0
  3  4  1  0
  4  5  1  0
  5  6  2  0
  6  7  1  0
  7  8  2  0
  7  9  1  0
  9 10  1  0
 10 11  2  0
 11 12  1  0
 12 13  2  0
 13 14  1  0
 13 15  1  0
 15 16  2  0
  4 17  2  0
 17 18  1  0
 17 19  1  0
 19 20  1  0
 20 21  2  0
 20 22  1  0
 22 23  1  0
 23 24  1  0
 24 25  1  0
 24 26  1  0
 26 27  1  0
 27 28  1  0
 28 29  1  0
 29 30  1  0
 30 31  1  0
 19  2  2  0
 31 27  1  0
 16  6  1  0
 16 10  1  0
  1 32  1  0
  1 33  1  0
  1 34  1  0
  3 35  1  0
  5 36  1  0
  9 37  1  0
 11 38  1  0
 12 39  1  0
 15 40  1  0
 18 41  1  0
 18 42  1  0
 18 43  1  0
 22 44  1  0
 23 45  1  0
 23 46  1  0
 24 47  1  1
 25 48  1  0
 26 49  1  0
 26 50  1  0
 28 51  1  0
 28 52  1  0
 29 53  1  0
 29 54  1  0
 30 55  1  0
 30 56  1  0
 31 57  1  0
 31 58  1  0
M  END
$$$$
[H]O[C@@]1([H])C([H])([H])N(C(=O)c2c([H])n(C([H])([H])[H])c3c([H])c([H])c([H])c([H])c23)C([H])(C(=O)N([H])[C@@]([H])(C(=O)N(C([H])([H])[H])C([H])([H])c2c([H])c([H])c([H])c([H])c2[H])C([H])([H])c2c([H])c([H])c3c([H])c([H])c([H])c([H])c3c2[H])C1([H])[H]
     RDKit          3D

 80 85  0  0  0  0  0  0  0  0999 V2000
    3.4717   -1.4251   -2.0236 C   0  0  0  0  0  0  0  0  0  0  0  0
    3.0354   -0.8497   -0.7694 N   0  0  0  0  0  0  0  0  0  0  0  0
    3.9511   -0.9089    0.3477 C   0  0  0  0  0  0  0  0  0  0  0  0
    3.7678   -2.1648    1.1355 C   0  0  0  0  0  0  0  0  0  0  0  0
    2.8162   -3.0983    0.7181 C   0  0  0  0  0  0  0  0  0  0  0  0
    2.6144   -4.2600    1.4286 C   0  0  0  0  0  0  0  0  0  0  0  0
    3.3404   -4.5319    2.5612 C   0  0  0  0  0  0  0  0  0  0  0  0
    4.2735   -3.6273    2.9786 C   0  0  0  0  0  0  0  0  0  0  0  0
    4.4873   -2.4442    2.2663 C   0  0  0  0  0  0  0  0  0  0  0  0
    1.7337   -0.2791   -0.6583 C   0  0  0  0  0  0  0  0  0  0  0  0
    0.9580   -0.3249   -1.6434 O   0  0  0  0  0  0  0  0  0  0  0  0
    1.2392    0.3707    0.5645 C   0  0  1  0  0  0  0  0  0  0  0  0
    1.2144    1.8707    0.3298 C   0  0  0  0  0  0  0  0  0  0  0  0
    2.4873    2.4876    0.0133 C   0  0  0  0  0  0  0  0  0  0  0  0
    3.3862    2.9862    0.9321 C   0  0  0  0  0  0  0  0  0  0  0  0
    4.5723    3.5588    0.5919 C   0  0  0  0  0  0  0  0  0  0  0  0
    4.9136    3.6546   -0.7487 C   0  0  0  0  0  0  0  0  0  0  0  0
    6.1126    4.2261   -1.0877 C   0  0  0  0  0  0  0  0  0  0  0  0
    6.4571    4.3158   -2.4198 C   0  0  0  0  0  0  0  0  0  0  0  0
    5.6128    3.8422   -3.3710 C   0  0  0  0  0  0  0  0  0  0  0  0
    4.3962    3.2625   -3.0345 C   0  0  0  0  0  0  0  0  0  0  0  0
    4.0558    3.1746   -1.6978 C   0  0  0  0  0  0  0  0  0  0  0  0
    2.8517    2.5955   -1.3199 C   0  0  0  0  0  0  0  0  0  0  0  0
   -0.1911    0.0533    0.7864 N   0  0  0  0  0  0  0  0  0  0  0  0
   -0.6738   -0.2641    2.0570 C   0  0  0  0  0  0  0  0  0  0  0  0
    0.2158   -0.2616    2.9904 O   0  0  0  0  0  0  0  0  0  0  0  0
   -2.0218   -0.5996    2.4974 C   0  0  0  0  0  0  0  0  0  0  0  0
   -1.9755   -2.1183    2.7613 C   0  0  0  0  0  0  0  0  0  0  0  0
   -3.3791   -2.5856    2.5928 C   0  0  1  0  0  0  0  0  0  0  0  0
   -4.1232   -2.4923    3.7703 O   0  0  0  0  0  0  0  0  0  0  0  0
   -3.9320   -1.6301    1.6086 C   0  0  0  0  0  0  0  0  0  0  0  0
   -3.1056   -0.4197    1.6086 N   0  0  0  0  0  0  0  0  0  0  0  0
   -3.5068    0.6826    0.8036 C   0  0  0  0  0  0  0  0  0  0  0  0
   -2.8475    1.7303    0.8221 O   0  0  0  0  0  0  0  0  0  0  0  0
   -4.6847    0.6026   -0.0481 C   0  0  0  0  0  0  0  0  0  0  0  0
   -5.9818    0.9894    0.2946 C   0  0  0  0  0  0  0  0  0  0  0  0
   -6.8136    0.7745   -0.7358 N   0  0  0  0  0  0  0  0  0  0  0  0
   -8.2384    1.0550   -0.7709 C   0  0  0  0  0  0  0  0  0  0  0  0
   -6.1081    0.2528   -1.7616 C   0  0  0  0  0  0  0  0  0  0  0  0
   -6.4827   -0.1389   -3.0180 C   0  0  0  0  0  0  0  0  0  0  0  0
   -5.5469   -0.6492   -3.8895 C   0  0  0  0  0  0  0  0  0  0  0  0
   -4.2201   -0.7572   -3.4652 C   0  0  0  0  0  0  0  0  0  0  0  0
   -3.8733   -0.3620   -2.2126 C   0  0  0  0  0  0  0  0  0  0  0  0
   -4.8005    0.1443   -1.3479 C   0  0  0  0  0  0  0  0  0  0  0  0
    4.0069   -2.3759   -1.8570 H   0  0  0  0  0  0  0  0  0  0  0  0
    2.5809   -1.6600   -2.6705 H   0  0  0  0  0  0  0  0  0  0  0  0
    4.1166   -0.6978   -2.5745 H   0  0  0  0  0  0  0  0  0  0  0  0
    3.8356   -0.0937    1.0630 H   0  0  0  0  0  0  0  0  0  0  0  0
    4.9896   -0.9053   -0.0595 H   0  0  0  0  0  0  0  0  0  0  0  0
    2.2205   -2.9138   -0.1816 H   0  0  0  0  0  0  0  0  0  0  0  0
    1.8672   -4.9843    1.0951 H   0  0  0  0  0  0  0  0  0  0  0  0
    3.1502   -5.4730    3.1057 H   0  0  0  0  0  0  0  0  0  0  0  0
    4.8538   -3.8337    3.8748 H   0  0  0  0  0  0  0  0  0  0  0  0
    5.2425   -1.7242    2.6107 H   0  0  0  0  0  0  0  0  0  0  0  0
    1.7922    0.1047    1.4694 H   0  0  0  0  0  0  0  0  0  0  0  0
    0.4208    2.0710   -0.4147 H   0  0  0  0  0  0  0  0  0  0  0  0
    0.8606    2.3563    1.2939 H   0  0  0  0  0  0  0  0  0  0  0  0
    3.1227    2.9100    1.9792 H   0  0  0  0  0  0  0  0  0  0  0  0
    5.2569    3.9411    1.3514 H   0  0  0  0  0  0  0  0  0  0  0  0
    6.7650    4.5926   -0.3102 H   0  0  0  0  0  0  0  0  0  0  0  0
    7.4200    4.7767   -2.6673 H   0  0  0  0  0  0  0  0  0  0  0  0
    5.8840    3.9104   -4.4247 H   0  0  0  0  0  0  0  0  0  0  0  0
    3.7225    2.8849   -3.8144 H   0  0  0  0  0  0  0  0  0  0  0  0
    2.2318    2.2417   -2.1373 H   0  0  0  0  0  0  0  0  0  0  0  0
   -0.7863    0.0692   -0.0517 H   0  0  0  0  0  0  0  0  0  0  0  0
   -2.3020   -0.0783    3.4548 H   0  0  0  0  0  0  0  0  0  0  0  0
   -1.3176   -2.5633    2.0001 H   0  0  0  0  0  0  0  0  0  0  0  0
   -1.6375   -2.3428    3.7887 H   0  0  0  0  0  0  0  0  0  0  0  0
   -3.3850   -3.6370    2.2371 H   0  0  0  0  0  0  0  0  0  0  0  0
   -3.6950   -1.8210    4.3733 H   0  0  0  0  0  0  0  0  0  0  0  0
   -3.8731   -2.0881    0.5849 H   0  0  0  0  0  0  0  0  0  0  0  0
   -4.9853   -1.3385    1.7918 H   0  0  0  0  0  0  0  0  0  0  0  0
   -6.2807    1.4015    1.2402 H   0  0  0  0  0  0  0  0  0  0  0  0
   -8.4317    2.0100   -1.3310 H   0  0  0  0  0  0  0  0  0  0  0  0
   -8.8276    0.2260   -1.2265 H   0  0  0  0  0  0  0  0  0  0  0  0
   -8.5889    1.2233    0.2612 H   0  0  0  0  0  0  0  0  0  0  0  0
   -7.5115   -0.0567   -3.3510 H   0  0  0  0  0  0  0  0  0  0  0  0
   -5.8140   -0.9664   -4.8825 H   0  0  0  0  0  0  0  0  0  0  0  0
   -3.5345   -1.1603   -4.1837 H   0  0  0  0  0  0  0  0  0  0  0  0
   -2.8275   -0.4428   -1.8739 H   0  0  0  0  0  0  0  0  0  0  0  0
  1  2  1  0
  2  3  1  0
  3  4  1  0
  4  5  2  0
  5  6  1  0
  6  7  2  0
  7  8  1  0
  8  9  2  0
  2 10  1  0
 10 11  2  0
 10 12  1  0
 12 13  1  0
 13 14  1  0
 14 15  2  0
 15 16  1  0
 16 17  2  0
 17 18  1  0
 18 19  2  0
 19 20  1  0
 20 21  2  0
 21 22  1  0
 22 23  2  0
 12 24  1  0
 24 25  1  0
 25 26  2  0
 25 27  1  0
 27 28  1  0
 28 29  1  0
 29 30  1  0
 29 31  1  0
 31 32  1  0
 32 33  1  0
 33 34  2  0
 33 35  1  0
 35 36  2  0
 36 37  1  0
 37 38  1  0
 37 39  1  0
 39 40  2  0
 40 41  1  0
 41 42  2  0
 42 43  1  0
 43 44  2  0
  9  4  1  0
 23 14  1  0
 32 27  1  0
 44 35  1  0
 22 17  1  0
 44 39  1  0
  1 45  1  0
  1 46  1  0
  1 47  1  0
  3 48  1  0
  3 49  1  0
  5 50  1  0
  6 51  1  0
  7 52  1  0
  8 53  1  0
  9 54  1  0
 12 55  1  1
 13 56  1  0
 13 57  1  0
 15 58  1  0
 16 59  1  0
 18 60  1  0
 19 61  1  0
 20 62  1  0
 21 63  1  0
 23 64  1  0
 24 65  1  0
 27 66  1  0
 28 67  1  0
 28 68  1  0
 29 69  1  6
 30 70  1  0
 31 71  1  0
 31 72  1  0
 36 73  1  0
 38 74  1  0
 38 75  1  0
 38 76  1  0
 40 77  1  0
 41 78  1  0
 42 79  1  0
 43 80  1  0
M  END
$$$$
[H]O[C@@]([H])(C([H])([H])N([H])C(=O)c1c(C([H])([H])[H])c(/C([H])=C2\C(=O)N([H])c3c([H])c([H])c(F)c([H])c32)n([H])c1C([H])([H])[H])C([H])([H])N1C([H])([H])C([H])([H])C([H])([H])C1([H])[H]
     RDKit          3D

 58 61  0  0  0  0  0  0  0  0999 V2000
   -0.8227   -0.5506    3.2377 C   0  0  0  0  0  0  0  0  0  0  0  0
   -1.4020   -0.2058    1.9009 C   0  0  0  0  0  0  0  0  0  0  0  0
   -2.6919    0.2064    1.7116 N   0  0  0  0  0  0  0  0  0  0  0  0
   -2.9448    0.4538    0.4229 C   0  0  0  0  0  0  0  0  0  0  0  0
   -4.1585    0.8891   -0.2560 C   0  0  0  0  0  0  0  0  0  0  0  0
   -5.3276    0.2826   -0.1986 C   0  0  0  0  0  0  0  0  0  0  0  0
   -5.6490   -0.9198    0.5258 C   0  0  0  0  0  0  0  0  0  0  0  0
   -4.8752   -1.6292    1.2116 O   0  0  0  0  0  0  0  0  0  0  0  0
   -7.0545   -1.1580    0.3051 N   0  0  0  0  0  0  0  0  0  0  0  0
   -7.5713   -0.1357   -0.5267 C   0  0  0  0  0  0  0  0  0  0  0  0
   -8.8581    0.0937   -1.0312 C   0  0  0  0  0  0  0  0  0  0  0  0
   -9.1559    1.1693   -1.8391 C   0  0  0  0  0  0  0  0  0  0  0  0
   -8.1353    2.0475   -2.1552 C   0  0  0  0  0  0  0  0  0  0  0  0
   -8.4288    3.1077   -2.9517 F   0  0  0  0  0  0  0  0  0  0  0  0
   -6.8638    1.8250   -1.6590 C   0  0  0  0  0  0  0  0  0  0  0  0
   -6.5770    0.7488   -0.8543 C   0  0  0  0  0  0  0  0  0  0  0  0
   -1.7522    0.1827   -0.2220 C   0  0  0  0  0  0  0  0  0  0  0  0
   -1.5683    0.3270   -1.6923 C   0  0  0  0  0  0  0  0  0  0  0  0
   -0.7791   -0.2303    0.6849 C   0  0  0  0  0  0  0  0  0  0  0  0
    0.5685   -0.5943    0.2968 C   0  0  0  0  0  0  0  0  0  0  0  0
    0.8953   -0.4262   -0.9427 O   0  0  0  0  0  0  0  0  0  0  0  0
    1.5731   -1.1115    1.1047 N   0  0  0  0  0  0  0  0  0  0  0  0
    2.9150   -1.4725    0.7889 C   0  0  0  0  0  0  0  0  0  0  0  0
    3.8509   -0.4221    0.3316 C   0  0  2  0  0  0  0  0  0  0  0  0
    3.5467    0.2205   -0.8405 O   0  0  0  0  0  0  0  0  0  0  0  0
    5.2480   -1.0404    0.1761 C   0  0  0  0  0  0  0  0  0  0  0  0
    6.2658   -0.1096   -0.0710 N   0  0  0  0  0  0  0  0  0  0  0  0
    6.3138    0.5653   -1.3124 C   0  0  0  0  0  0  0  0  0  0  0  0
    7.7718    0.8655   -1.6173 C   0  0  0  0  0  0  0  0  0  0  0  0
    8.4976    0.5654   -0.3271 C   0  0  0  0  0  0  0  0  0  0  0  0
    7.5889   -0.4821    0.3043 C   0  0  0  0  0  0  0  0  0  0  0  0
    0.0211    0.1378    3.4417 H   0  0  0  0  0  0  0  0  0  0  0  0
   -0.6285   -1.6112    3.3816 H   0  0  0  0  0  0  0  0  0  0  0  0
   -1.5836   -0.2599    4.0227 H   0  0  0  0  0  0  0  0  0  0  0  0
   -3.3614    0.3198    2.4959 H   0  0  0  0  0  0  0  0  0  0  0  0
   -4.1471    1.8025   -0.8860 H   0  0  0  0  0  0  0  0  0  0  0  0
   -7.5651   -1.9607    0.7087 H   0  0  0  0  0  0  0  0  0  0  0  0
   -9.6182   -0.6074   -0.7636 H   0  0  0  0  0  0  0  0  0  0  0  0
  -10.1798    1.3181   -2.2168 H   0  0  0  0  0  0  0  0  0  0  0  0
   -6.0790    2.5148   -1.9111 H   0  0  0  0  0  0  0  0  0  0  0  0
   -0.7834    1.0705   -1.9372 H   0  0  0  0  0  0  0  0  0  0  0  0
   -1.2705   -0.6567   -2.1355 H   0  0  0  0  0  0  0  0  0  0  0  0
   -2.4861    0.6361   -2.1894 H   0  0  0  0  0  0  0  0  0  0  0  0
    1.3145   -1.2788    2.1275 H   0  0  0  0  0  0  0  0  0  0  0  0
    2.8408   -2.2224   -0.0604 H   0  0  0  0  0  0  0  0  0  0  0  0
    3.4153   -2.0238    1.6471 H   0  0  0  0  0  0  0  0  0  0  0  0
    3.9490    0.4068    1.1059 H   0  0  0  0  0  0  0  0  0  0  0  0
    3.6787   -0.4392   -1.5931 H   0  0  0  0  0  0  0  0  0  0  0  0
    5.4592   -1.6410    1.1018 H   0  0  0  0  0  0  0  0  0  0  0  0
    5.1642   -1.7287   -0.7079 H   0  0  0  0  0  0  0  0  0  0  0  0
    5.9594   -0.1267   -2.1187 H   0  0  0  0  0  0  0  0  0  0  0  0
    5.6817    1.4755   -1.3972 H   0  0  0  0  0  0  0  0  0  0  0  0
    8.1561    0.2297   -2.4462 H   0  0  0  0  0  0  0  0  0  0  0  0
    7.9274    1.9342   -1.8492 H   0  0  0  0  0  0  0  0  0  0  0  0
    8.5995    1.4712    0.3104 H   0  0  0  0  0  0  0  0  0  0  0  0
    9.4763    0.1044   -0.5707 H   0  0  0  0  0  0  0  0  0  0  0  0
    7.8587   -1.4653   -0.1102 H   0  0  0  0  0  0  0  0  0  0  0  0
    7.7816   -0.4617    1.4033 H   0  0  0  0  0  0  0  0  0  0  0  0
  1  2  1  0
  2  3  1  0
  3  4  1  0
  4  5  1  0
  5  6  2  0
  6  7  1  0
  7  8  2  0
  7  9  1  0
  9 10  1  0
 10 11  2  0
 11 12  1  0
 12 13  2  0
 13 14  1  0
 13 15  1  0
 15 16  2  0
  4 17  2  0
 17 18  1  0
 17 19  1  0
 19 20  1  0
 20 21  2  0
 20 22  1  0
 22 23  1  0
 23 24  1  0
 24 25  1  0
 24 26  1  0
 26 27  1  0
 27 28  1  0
 28 29  1  0
 29 30  1  0
 30 31  1  0
 19  2  2  0
 31 27  1  0
 16  6  1  0
 16 10  1  0
  1 32  1  0
  1 33  1  0
  1 34  1  0
  3 35  1  0
  5 36  1  0
  9 37  1  0
 11 38  1  0
 12 39  1  0
 15 40  1  0
 18 41  1  0
 18 42  1  0
 18 43  1  0
 22 44  1  0
 23 45  1  0
 23 46  1  0
 24 47  1  1
 25 48  1  0
 26 49  1  0
 26 50  1  0
 28 51  1  0
 28 52  1  0
 29 53  1  0
 29 54  1  0
 30 55  1  0
 30 56  1  0
 31 57  1  0
 31 58  1  0
M  END
$$$$
[H]c1c([H])c([H])c(C([H])([H])[C@@]([H])(C#N)N([H])C(=O)[C@@]([H])(N([H])[C@@]([H])(c2c([H])c([H])c(-c3c([H])c([H])c(S(=O)(=O)C([H])([H])[H])c([H])c3[H])c([H])c2[H])C(F)(F)F)C([H])([H])C([H])(C([H])([H])[H])C([H])([H])[H])c([H])c1[H]
     RDKit          3D

 72 74  0  0  0  0  0  0  0  0999 V2000
    2.0249   -4.5641    1.1034 C   0  0  0  0  0  0  0  0  0  0  0  0
    1.6074   -3.8562   -0.1557 C   0  0  0  0  0  0  0  0  0  0  0  0
    0.1070   -3.8664   -0.2631 C   0  0  0  0  0  0  0  0  0  0  0  0
    2.2137   -2.5445   -0.3903 C   0  0  0  0  0  0  0  0  0  0  0  0
    1.9946   -1.4617    0.6400 C   0  0  2  0  0  0  0  0  0  0  0  0
    0.6691   -1.1755    0.7862 N   0  0  0  0  0  0  0  0  0  0  0  0
    0.0918   -0.3859    1.7748 C   0  0  1  0  0  0  0  0  0  0  0  0
   -1.3107   -0.1159    1.3604 C   0  0  0  0  0  0  0  0  0  0  0  0
   -2.4210   -0.3004    2.1170 C   0  0  0  0  0  0  0  0  0  0  0  0
   -3.7175   -0.0182    1.6704 C   0  0  0  0  0  0  0  0  0  0  0  0
   -3.9132    0.4745    0.3995 C   0  0  0  0  0  0  0  0  0  0  0  0
   -2.8082    0.6685   -0.3809 C   0  0  0  0  0  0  0  0  0  0  0  0
   -1.5385    0.3859    0.0733 C   0  0  0  0  0  0  0  0  0  0  0  0
   -5.2729    0.7651   -0.0678 C   0  0  0  0  0  0  0  0  0  0  0  0
   -6.2191    1.1842    0.8465 C   0  0  0  0  0  0  0  0  0  0  0  0
   -7.5161    1.4749    0.4814 C   0  0  0  0  0  0  0  0  0  0  0  0
   -7.8851    1.3464   -0.8273 C   0  0  0  0  0  0  0  0  0  0  0  0
   -6.9402    0.9245   -1.7611 C   0  0  0  0  0  0  0  0  0  0  0  0
   -5.6461    0.6374   -1.3798 C   0  0  0  0  0  0  0  0  0  0  0  0
   -9.5280    1.7073   -1.3178 S   0  0  0  0  0  0  0  0  0  0  0  0
  -10.5020    0.2076   -1.2099 C   0  0  0  0  0  0  0  0  0  0  0  0
   -9.5275    2.2382   -2.7185 O   0  0  0  0  0  0  0  0  0  0  0  0
  -10.1651    2.7214   -0.4134 O   0  0  0  0  0  0  0  0  0  0  0  0
    0.2186   -0.7953    3.1931 C   0  0  0  0  0  0  0  0  0  0  0  0
    1.5294   -0.8848    3.6272 F   0  0  0  0  0  0  0  0  0  0  0  0
   -0.3320   -2.0309    3.4630 F   0  0  0  0  0  0  0  0  0  0  0  0
   -0.2806    0.1963    4.0329 F   0  0  0  0  0  0  0  0  0  0  0  0
    2.7142   -0.2599    0.0844 C   0  0  0  0  0  0  0  0  0  0  0  0
    2.1418    0.8124   -0.1830 O   0  0  0  0  0  0  0  0  0  0  0  0
    4.0951   -0.3625   -0.1399 N   0  0  0  0  0  0  0  0  0  0  0  0
    4.9447    0.6870   -0.6687 C   0  0  1  0  0  0  0  0  0  0  0  0
    6.0732    1.0230    0.2454 C   0  0  0  0  0  0  0  0  0  0  0  0
    6.8891    2.0983   -0.3736 C   0  0  0  0  0  0  0  0  0  0  0  0
    6.5768    3.4231   -0.1529 C   0  0  0  0  0  0  0  0  0  0  0  0
    7.3089    4.4569   -0.7036 C   0  0  0  0  0  0  0  0  0  0  0  0
    8.4010    4.2008   -1.5107 C   0  0  0  0  0  0  0  0  0  0  0  0
    8.7224    2.8794   -1.7380 C   0  0  0  0  0  0  0  0  0  0  0  0
    7.9850    1.8373   -1.1833 C   0  0  0  0  0  0  0  0  0  0  0  0
    5.4753    0.1977   -1.9359 C   0  0  0  0  0  0  0  0  0  0  0  0
    5.8786   -0.2003   -2.9564 N   0  0  0  0  0  0  0  0  0  0  0  0
    1.7051   -5.6227    1.0215 H   0  0  0  0  0  0  0  0  0  0  0  0
    3.1094   -4.5695    1.2451 H   0  0  0  0  0  0  0  0  0  0  0  0
    1.4694   -4.1345    1.9632 H   0  0  0  0  0  0  0  0  0  0  0  0
    1.9375   -4.5758   -0.9793 H   0  0  0  0  0  0  0  0  0  0  0  0
   -0.4015   -3.4808    0.6474 H   0  0  0  0  0  0  0  0  0  0  0  0
   -0.1685   -3.2923   -1.1715 H   0  0  0  0  0  0  0  0  0  0  0  0
   -0.2071   -4.9135   -0.4858 H   0  0  0  0  0  0  0  0  0  0  0  0
    1.8593   -2.1875   -1.4057 H   0  0  0  0  0  0  0  0  0  0  0  0
    3.3184   -2.7141   -0.5725 H   0  0  0  0  0  0  0  0  0  0  0  0
    2.5093   -1.8222    1.5570 H   0  0  0  0  0  0  0  0  0  0  0  0
    0.1397   -1.2001   -0.0929 H   0  0  0  0  0  0  0  0  0  0  0  0
    0.5956    0.6303    1.7057 H   0  0  0  0  0  0  0  0  0  0  0  0
   -2.3463   -0.6776    3.0997 H   0  0  0  0  0  0  0  0  0  0  0  0
   -4.5667   -0.1900    2.3331 H   0  0  0  0  0  0  0  0  0  0  0  0
   -2.9826    1.0640   -1.3938 H   0  0  0  0  0  0  0  0  0  0  0  0
   -0.6974    0.5620   -0.5904 H   0  0  0  0  0  0  0  0  0  0  0  0
   -5.9336    1.2881    1.8863 H   0  0  0  0  0  0  0  0  0  0  0  0
   -8.2392    1.8058    1.2418 H   0  0  0  0  0  0  0  0  0  0  0  0
   -7.2719    0.8368   -2.7851 H   0  0  0  0  0  0  0  0  0  0  0  0
   -4.9079    0.3125   -2.0809 H   0  0  0  0  0  0  0  0  0  0  0  0
  -11.2382    0.2301   -2.0189 H   0  0  0  0  0  0  0  0  0  0  0  0
  -10.9453    0.1124   -0.2046 H   0  0  0  0  0  0  0  0  0  0  0  0
   -9.8016   -0.6612   -1.3636 H   0  0  0  0  0  0  0  0  0  0  0  0
    4.5847   -1.2511    0.0802 H   0  0  0  0  0  0  0  0  0  0  0  0
    4.2874    1.5678   -0.8421 H   0  0  0  0  0  0  0  0  0  0  0  0
    5.7417    1.3767    1.2446 H   0  0  0  0  0  0  0  0  0  0  0  0
    6.7580    0.1520    0.3721 H   0  0  0  0  0  0  0  0  0  0  0  0
    5.7167    3.6238    0.4824 H   0  0  0  0  0  0  0  0  0  0  0  0
    7.0351    5.5001   -0.5091 H   0  0  0  0  0  0  0  0  0  0  0  0
    8.9689    5.0168   -1.9383 H   0  0  0  0  0  0  0  0  0  0  0  0
    9.5774    2.6742   -2.3706 H   0  0  0  0  0  0  0  0  0  0  0  0
    8.2551    0.8140   -1.3691 H   0  0  0  0  0  0  0  0  0  0  0  0
  1  2  1  0
  2  3  1  0
  2  4  1  0
  4  5  1  0
  5  6  1  0
  6  7  1  0
  7  8  1  0
  8  9  2  0
  9 10  1  0
 10 11  2  0
 11 12  1  0
 12 13  2  0
 11 14  1  0
 14 15  2  0
 15 16  1  0
 16 17  2  0
 17 18  1  0
 18 19  2  0
 17 20  1  0
 20 21  1  0
 20 22  2  0
 20 23  2  0
  7 24  1  0
 24 25  1  0
 24 26  1  0
 24 27  1  0
  5 28  1  0
 28 29  2  0
 28 30  1  0
 30 31  1  0
 31 32  1  0
 32 33  1  0
 33 34  2  0
 34 35  1  0
 35 36  2  0
 36 37  1  0
 37 38  2  0
 31 39  1  0
 39 40  3  0
 13  8  1  0
 19 14  1  0
 38 33  1  0
  1 41  1  0
  1 42  1  0
  1 43  1  0
  2 44  1  0
  3 45  1  0
  3 46  1  0
  3 47  1  0
  4 48  1  0
  4 49  1  0
  5 50  1  1
  6 51  1  0
  7 52  1  1
  9 53  1  0
 10 54  1  0
 12 55  1  0
 13 56  1  0
 15 57  1  0
 16 58  1  0
 18 59  1  0
 19 60  1  0
 21 61  1  0
 21 62  1  0
 21 63  1  0
 30 64  1  0
 31 65  1  6
 32 66  1  0
 32 67  1  0
 34 68  1  0
 35 69  1  0
 36 70  1  0
 37 71  1  0
 38 72  1  0
M  END
$$$$
[H]N=C(N([H])[H])N([H])C([H])([H])C([H])([H])C([H])([H])[C@@]([H])(C(=O)N([H])[C@]([H])(C(=O)N([H])[H])C([H])([H])c1c([H])c([H])c([H])c([H])c1[H])N([H])C(=O)[C@@]([H])(N([H])C(=O)C([H])([H])[H])C([H])([H])c1c([H])c([H])c([H])c([H])c1[H]
     RDKit          3D

 72 73  0  0  0  0  0  0  0  0999 V2000
    4.1490   -1.9249    4.4019 C   0  0  0  0  0  0  0  0  0  0  0  0
    3.9531   -1.0125    3.2642 C   0  0  0  0  0  0  0  0  0  0  0  0
    4.7509   -0.0784    3.0423 O   0  0  0  0  0  0  0  0  0  0  0  0
    2.8376   -1.1600    2.3737 N   0  0  0  0  0  0  0  0  0  0  0  0
    2.6346   -0.2826    1.2718 C   0  0  1  0  0  0  0  0  0  0  0  0
    2.5424   -0.8626   -0.0889 C   0  0  0  0  0  0  0  0  0  0  0  0
    3.7398   -1.6467   -0.5275 C   0  0  0  0  0  0  0  0  0  0  0  0
    4.7569   -0.9678   -1.1766 C   0  0  0  0  0  0  0  0  0  0  0  0
    5.8621   -1.6611   -1.6272 C   0  0  0  0  0  0  0  0  0  0  0  0
    5.9573   -3.0352   -1.4271 C   0  0  0  0  0  0  0  0  0  0  0  0
    4.9472   -3.6781   -0.7937 C   0  0  0  0  0  0  0  0  0  0  0  0
    3.8049   -3.0058   -0.3201 C   0  0  0  0  0  0  0  0  0  0  0  0
    1.4088    0.5900    1.5211 C   0  0  0  0  0  0  0  0  0  0  0  0
    1.1310    0.9921    2.6445 O   0  0  0  0  0  0  0  0  0  0  0  0
    0.6270    0.9234    0.4028 N   0  0  0  0  0  0  0  0  0  0  0  0
   -0.5287    1.8138    0.4028 C   0  0  1  0  0  0  0  0  0  0  0  0
   -0.4356    2.7902   -0.7089 C   0  0  0  0  0  0  0  0  0  0  0  0
    0.8103    3.6675   -0.5430 C   0  0  0  0  0  0  0  0  0  0  0  0
    0.7770    4.5213    0.6893 C   0  0  0  0  0  0  0  0  0  0  0  0
   -0.3073    5.4899    0.5542 N   0  0  0  0  0  0  0  0  0  0  0  0
   -0.1730    6.5090   -0.4168 C   0  0  0  0  0  0  0  0  0  0  0  0
    0.6862    7.6258   -0.1044 N   0  0  0  0  0  0  0  0  0  0  0  0
   -0.7618    6.5339   -1.5599 N   0  0  0  0  0  0  0  0  0  0  0  0
   -1.7786    1.0496    0.5398 C   0  0  0  0  0  0  0  0  0  0  0  0
   -2.4454    1.2386    1.6276 O   0  0  0  0  0  0  0  0  0  0  0  0
   -2.2541    0.1538   -0.4080 N   0  0  0  0  0  0  0  0  0  0  0  0
   -3.4067   -0.6630   -0.5604 C   0  0  1  0  0  0  0  0  0  0  0  0
   -3.1970   -1.6628   -1.6432 C   0  0  0  0  0  0  0  0  0  0  0  0
   -4.1862   -2.6378   -1.9606 C   0  0  0  0  0  0  0  0  0  0  0  0
   -5.3137   -2.3267   -2.7332 C   0  0  0  0  0  0  0  0  0  0  0  0
   -6.2411   -3.2456   -3.0761 C   0  0  0  0  0  0  0  0  0  0  0  0
   -6.1139   -4.5626   -2.6762 C   0  0  0  0  0  0  0  0  0  0  0  0
   -5.0342   -4.9346   -1.9227 C   0  0  0  0  0  0  0  0  0  0  0  0
   -4.1122   -3.9974   -1.5844 C   0  0  0  0  0  0  0  0  0  0  0  0
   -4.1969   -1.0382    0.5945 C   0  0  0  0  0  0  0  0  0  0  0  0
   -4.7305   -2.3381    0.8995 N   0  0  0  0  0  0  0  0  0  0  0  0
   -4.4952   -0.1861    1.4795 O   0  0  0  0  0  0  0  0  0  0  0  0
    3.7700   -1.4809    5.3518 H   0  0  0  0  0  0  0  0  0  0  0  0
    5.2181   -2.1133    4.5223 H   0  0  0  0  0  0  0  0  0  0  0  0
    3.6419   -2.9154    4.2298 H   0  0  0  0  0  0  0  0  0  0  0  0
    2.1697   -1.9336    2.5918 H   0  0  0  0  0  0  0  0  0  0  0  0
    3.4705    0.4817    1.3267 H   0  0  0  0  0  0  0  0  0  0  0  0
    2.5160    0.0507   -0.7908 H   0  0  0  0  0  0  0  0  0  0  0  0
    1.6122   -1.3991   -0.2364 H   0  0  0  0  0  0  0  0  0  0  0  0
    4.6421    0.1052   -1.3040 H   0  0  0  0  0  0  0  0  0  0  0  0
    6.6672   -1.1455   -2.1248 H   0  0  0  0  0  0  0  0  0  0  0  0
    6.8583   -3.5529   -1.7977 H   0  0  0  0  0  0  0  0  0  0  0  0
    4.9939   -4.7494   -0.6342 H   0  0  0  0  0  0  0  0  0  0  0  0
    2.9884   -3.5189    0.1783 H   0  0  0  0  0  0  0  0  0  0  0  0
    0.8588    0.4563   -0.5289 H   0  0  0  0  0  0  0  0  0  0  0  0
   -0.3949    2.3580    1.4121 H   0  0  0  0  0  0  0  0  0  0  0  0
   -1.3166    3.4275   -0.8207 H   0  0  0  0  0  0  0  0  0  0  0  0
   -0.2714    2.2836   -1.7051 H   0  0  0  0  0  0  0  0  0  0  0  0
    1.7212    3.0218   -0.5675 H   0  0  0  0  0  0  0  0  0  0  0  0
    0.8566    4.2878   -1.4822 H   0  0  0  0  0  0  0  0  0  0  0  0
    1.7321    5.1174    0.7043 H   0  0  0  0  0  0  0  0  0  0  0  0
    0.7348    3.9889    1.6361 H   0  0  0  0  0  0  0  0  0  0  0  0
   -1.1214    5.4011    1.1732 H   0  0  0  0  0  0  0  0  0  0  0  0
    0.2762    8.4038    0.4131 H   0  0  0  0  0  0  0  0  0  0  0  0
    1.6586    7.6147   -0.3886 H   0  0  0  0  0  0  0  0  0  0  0  0
   -0.6087    7.3311   -2.2317 H   0  0  0  0  0  0  0  0  0  0  0  0
   -1.5537    0.0262   -1.2534 H   0  0  0  0  0  0  0  0  0  0  0  0
   -4.1542    0.1415   -1.0594 H   0  0  0  0  0  0  0  0  0  0  0  0
   -2.2197   -2.2154   -1.4253 H   0  0  0  0  0  0  0  0  0  0  0  0
   -2.9050   -1.1229   -2.6131 H   0  0  0  0  0  0  0  0  0  0  0  0
   -5.4238   -1.2914   -3.0660 H   0  0  0  0  0  0  0  0  0  0  0  0
   -7.1044   -2.9655   -3.6734 H   0  0  0  0  0  0  0  0  0  0  0  0
   -6.8789   -5.2900   -2.9615 H   0  0  0  0  0  0  0  0  0  0  0  0
   -4.9422   -5.9773   -1.6018 H   0  0  0  0  0  0  0  0  0  0  0  0
   -3.2621   -4.2653   -0.9893 H   0  0  0  0  0  0  0  0  0  0  0  0
   -5.7120   -2.5188    0.5635 H   0  0  0  0  0  0  0  0  0  0  0  0
   -4.1815   -3.0319    1.4036 H   0  0  0  0  0  0  0  0  0  0  0  0
  1  2  1  0
  2  3  2  0
  2  4  1  0
  4  5  1  0
  5  6  1  0
  6  7  1  0
  7  8  2  0
  8  9  1  0
  9 10  2  0
 10 11  1  0
 11 12  2  0
  5 13  1  0
 13 14  2  0
 13 15  1  0
 15 16  1  0
 16 17  1  0
 17 18  1  0
 18 19  1  0
 19 20  1  0
 20 21  1  0
 21 22  1  0
 21 23  2  3
 16 24  1  0
 24 25  2  0
 24 26  1  0
 26 27  1  0
 27 28  1  0
 28 29  1  0
 29 30  2  0
 30 31  1  0
 31 32  2  0
 32 33  1  0
 33 34  2  0
 27 35  1  0
 35 36  1  0
 35 37  2  0
 12  7  1  0
 34 29  1  0
  1 38  1  0
  1 39  1  0
  1 40  1  0
  4 41  1  0
  5 42  1  6
  6 43  1  0
  6 44  1  0
  8 45  1  0
  9 46  1  0
 10 47  1  0
 11 48  1  0
 12 49  1  0
 15 50  1  0
 16 51  1  1
 17 52  1  0
 17 53  1  0
 18 54  1  0
 18 55  1  0
 19 56  1  0
 19 57  1  0
 20 58  1  0
 22 59  1  0
 22 60  1  0
 23 61  1  0
 26 62  1  0
 27 63  1  6
 28 64  1  0
 28 65  1  0
 30 66  1  0
 31 67  1  0
 32 68  1  0
 33 69  1  0
 34 70  1  0
 36 71  1  0
 36 72  1  0
M  END
$$$$
[H]OC(=O)C([H])([H])Oc1c([H])c([H])c([H])c2c1c(C(=O)C(=O)N([H])[H])c(C([H])([H])[H])n2C([H])([H])c1c([H])c([H])c([H])c([H])c1[H]
     RDKit          3D

 45 47  0  0  0  0  0  0  0  0999 V2000
    1.1209    2.5359   -0.7824 C   0  0  0  0  0  0  0  0  0  0  0  0
    0.4635    1.4374   -0.0465 C   0  0  0  0  0  0  0  0  0  0  0  0
   -0.8030    0.9801   -0.3440 C   0  0  0  0  0  0  0  0  0  0  0  0
   -1.6687    1.4846   -1.4087 C   0  0  0  0  0  0  0  0  0  0  0  0
   -2.4779    2.4483   -1.1611 O   0  0  0  0  0  0  0  0  0  0  0  0
   -1.6670    0.9538   -2.7453 C   0  0  0  0  0  0  0  0  0  0  0  0
   -2.5233    1.4802   -3.7294 N   0  0  0  0  0  0  0  0  0  0  0  0
   -0.8991    0.0155   -3.0405 O   0  0  0  0  0  0  0  0  0  0  0  0
   -1.0469   -0.0218    0.5621 C   0  0  0  0  0  0  0  0  0  0  0  0
   -2.1790   -0.8155    0.7111 C   0  0  0  0  0  0  0  0  0  0  0  0
   -3.2785   -0.6704   -0.1196 O   0  0  0  0  0  0  0  0  0  0  0  0
   -4.3875   -1.5199    0.1033 C   0  0  0  0  0  0  0  0  0  0  0  0
   -5.4833   -1.2581   -0.8494 C   0  0  0  0  0  0  0  0  0  0  0  0
   -5.3191   -0.2660   -1.8050 O   0  0  0  0  0  0  0  0  0  0  0  0
   -6.5466   -1.8994   -0.8204 O   0  0  0  0  0  0  0  0  0  0  0  0
   -2.1518   -1.7489    1.7221 C   0  0  0  0  0  0  0  0  0  0  0  0
   -1.0545   -1.8881    2.5452 C   0  0  0  0  0  0  0  0  0  0  0  0
    0.0406   -1.1037    2.3829 C   0  0  0  0  0  0  0  0  0  0  0  0
    0.0668   -0.1520    1.3845 C   0  0  0  0  0  0  0  0  0  0  0  0
    0.9913    0.7749    0.9755 N   0  0  0  0  0  0  0  0  0  0  0  0
    2.2830    0.9457    1.6045 C   0  0  0  0  0  0  0  0  0  0  0  0
    3.3806    0.1769    1.0398 C   0  0  0  0  0  0  0  0  0  0  0  0
    4.2130    0.7459    0.0984 C   0  0  0  0  0  0  0  0  0  0  0  0
    5.2650    0.0908   -0.4832 C   0  0  0  0  0  0  0  0  0  0  0  0
    5.5417   -1.2097   -0.1363 C   0  0  0  0  0  0  0  0  0  0  0  0
    4.7356   -1.8138    0.7996 C   0  0  0  0  0  0  0  0  0  0  0  0
    3.6695   -1.1254    1.3780 C   0  0  0  0  0  0  0  0  0  0  0  0
    0.3908    3.1076   -1.4241 H   0  0  0  0  0  0  0  0  0  0  0  0
    1.9022    2.1844   -1.4871 H   0  0  0  0  0  0  0  0  0  0  0  0
    1.5468    3.2686   -0.0381 H   0  0  0  0  0  0  0  0  0  0  0  0
   -3.1493    0.9398   -4.3461 H   0  0  0  0  0  0  0  0  0  0  0  0
   -2.5319    2.5276   -3.8550 H   0  0  0  0  0  0  0  0  0  0  0  0
   -4.7596   -1.3743    1.1462 H   0  0  0  0  0  0  0  0  0  0  0  0
   -4.0855   -2.6057    0.0343 H   0  0  0  0  0  0  0  0  0  0  0  0
   -5.5685    0.7076   -1.6505 H   0  0  0  0  0  0  0  0  0  0  0  0
   -3.0097   -2.4140    1.9027 H   0  0  0  0  0  0  0  0  0  0  0  0
   -1.0252   -2.6272    3.3509 H   0  0  0  0  0  0  0  0  0  0  0  0
    0.9338   -1.1617    3.0008 H   0  0  0  0  0  0  0  0  0  0  0  0
    2.5177    2.0534    1.6551 H   0  0  0  0  0  0  0  0  0  0  0  0
    2.2226    0.6744    2.7034 H   0  0  0  0  0  0  0  0  0  0  0  0
    4.0342    1.7709   -0.1921 H   0  0  0  0  0  0  0  0  0  0  0  0
    5.8824    0.5901   -1.2161 H   0  0  0  0  0  0  0  0  0  0  0  0
    6.3776   -1.7303   -0.5987 H   0  0  0  0  0  0  0  0  0  0  0  0
    4.9595   -2.8370    1.0676 H   0  0  0  0  0  0  0  0  0  0  0  0
    3.0766   -1.6518    2.1118 H   0  0  0  0  0  0  0  0  0  0  0  0
  1  2  1  0
  2  3  2  0
  3  4  1  0
  4  5  2  0
  4  6  1  0
  6  7  1  0
  6  8  2  0
  3  9  1  0
  9 10  2  0
 10 11  1  0
 11 12  1  0
 12 13  1  0
 13 14  1  0
 13 15  2  0
 10 16  1  0
 16 17  2  0
 17 18  1  0
 18 19  2  0
 19 20  1  0
 20 21  1  0
 21 22  1  0
 22 23  2  0
 23 24  1  0
 24 25  2  0
 25 26  1  0
 26 27  2  0
 20  2  1  0
 27 22  1  0
 19  9  1  0
  1 28  1  0
  1 29  1  0
  1 30  1  0
  7 31  1  0
  7 32  1  0
 12 33  1  0
 12 34  1  0
 14 35  1  0
 16 36  1  0
 17 37  1  0
 18 38  1  0
 21 39  1  0
 21 40  1  0
 23 41  1  0
 24 42  1  0
 25 43  1  0
 26 44  1  0
 27 45  1  0
M  END
$$$$
[H]OC(=O)c1[se]c(-c2c([H])c([H])c(OC([H])([H])c3c([H])c([H])c([H])c([H])c3[H])c([H])c2[H])nc1C([H])([H])[H]
     RDKit          3D

 38 40  0  0  0  0  0  0  0  0999 V2000
   -6.3241    1.5845    1.3764 C   0  0  0  0  0  0  0  0  0  0  0  0
   -5.3175    0.6260    0.7075 C   0  0  0  0  0  0  0  0  0  0  0  0
   -4.0834    0.8035    0.7868 N   0  0  0  0  0  0  0  0  0  0  0  0
   -3.0758    0.1765    0.3380 C   0  0  0  0  0  0  0  0  0  0  0  0
   -4.1970   -1.3227   -0.6241 Se  0  0  0  0  0  2  0  0  0  0  0  0
   -5.9243   -0.3874    0.0524 C   0  0  0  0  0  0  0  0  0  0  0  0
   -7.2559   -0.8547   -0.2161 C   0  0  0  0  0  0  0  0  0  0  0  0
   -7.4854   -1.9924   -0.9662 O   0  0  0  0  0  0  0  0  0  0  0  0
   -8.1939   -0.2159    0.2391 O   0  0  0  0  0  0  0  0  0  0  0  0
   -1.6385    0.1945    0.3047 C   0  0  0  0  0  0  0  0  0  0  0  0
   -1.0063    1.2170    0.9650 C   0  0  0  0  0  0  0  0  0  0  0  0
    0.3709    1.3231    0.9924 C   0  0  0  0  0  0  0  0  0  0  0  0
    1.1440    0.3739    0.3367 C   0  0  0  0  0  0  0  0  0  0  0  0
    2.5217    0.4529    0.3460 O   0  0  0  0  0  0  0  0  0  0  0  0
    3.2672   -0.5177   -0.3231 C   0  0  0  0  0  0  0  0  0  0  0  0
    4.7207   -0.3077   -0.2291 C   0  0  0  0  0  0  0  0  0  0  0  0
    5.5418   -1.2260   -0.8655 C   0  0  0  0  0  0  0  0  0  0  0  0
    6.9025   -1.0746   -0.8075 C   0  0  0  0  0  0  0  0  0  0  0  0
    7.4605   -0.0142   -0.1199 C   0  0  0  0  0  0  0  0  0  0  0  0
    6.6326    0.8760    0.4981 C   0  0  0  0  0  0  0  0  0  0  0  0
    5.2476    0.7563    0.4620 C   0  0  0  0  0  0  0  0  0  0  0  0
    0.5060   -0.6723   -0.3392 C   0  0  0  0  0  0  0  0  0  0  0  0
   -0.8720   -0.7366   -0.3387 C   0  0  0  0  0  0  0  0  0  0  0  0
   -5.8496    2.4472    1.8164 H   0  0  0  0  0  0  0  0  0  0  0  0
   -6.8411    0.9682    2.1388 H   0  0  0  0  0  0  0  0  0  0  0  0
   -7.0619    1.9342    0.6424 H   0  0  0  0  0  0  0  0  0  0  0  0
   -7.0332   -2.8496   -0.6215 H   0  0  0  0  0  0  0  0  0  0  0  0
   -1.5887    1.9631    1.4796 H   0  0  0  0  0  0  0  0  0  0  0  0
    0.8522    2.1214    1.5082 H   0  0  0  0  0  0  0  0  0  0  0  0
    3.0635   -1.5290    0.1349 H   0  0  0  0  0  0  0  0  0  0  0  0
    2.9289   -0.5831   -1.3691 H   0  0  0  0  0  0  0  0  0  0  0  0
    5.1442   -2.0694   -1.4139 H   0  0  0  0  0  0  0  0  0  0  0  0
    7.5349   -1.7852   -1.2999 H   0  0  0  0  0  0  0  0  0  0  0  0
    8.5198    0.1010   -0.0765 H   0  0  0  0  0  0  0  0  0  0  0  0
    7.0696    1.7077    1.0375 H   0  0  0  0  0  0  0  0  0  0  0  0
    4.6211    1.4763    0.9604 H   0  0  0  0  0  0  0  0  0  0  0  0
    1.0873   -1.4262   -0.8589 H   0  0  0  0  0  0  0  0  0  0  0  0
   -1.3882   -1.5382   -0.8557 H   0  0  0  0  0  0  0  0  0  0  0  0
  1  2  1  0
  2  3  1  0
  3  4  2  0
  4  5  1  0
  5  6  1  0
  6  7  1  0
  7  8  1  0
  7  9  2  0
  4 10  1  0
 10 11  2  0
 11 12  1  0
 12 13  2  0
 13 14  1  0
 14 15  1  0
 15 16  1  0
 16 17  2  0
 17 18  1  0
 18 19  2  0
 19 20  1  0
 20 21  2  0
 13 22  1  0
 22 23  2  0
  6  2  2  0
 23 10  1  0
 21 16  1  0
  1 24  1  0
  1 25  1  0
  1 26  1  0
  8 27  1  0
 11 28  1  0
 12 29  1  0
 15 30  1  0
 15 31  1  0
 17 32  1  0
 18 33  1  0
 19 34  1  0
 20 35  1  0
 21 36  1  0
 22 37  1  0
 23 38  1  0
M  END
$$$$
[H]c1nc2c(c([H])c1-c1c([H])c([H])c([H])c([H])c1[H])c(-c1c([H])c([H])c([H])c(S(=O)(=O)N([H])[H])c1[H])c([H])n2[H]
     RDKit          3D

 40 43  0  0  0  0  0  0  0  0999 V2000
    2.4632   -3.3502   -1.1252 N   0  0  0  0  0  0  0  0  0  0  0  0
    3.2521   -2.7691    0.2998 S   0  0  0  0  0  0  0  0  0  0  0  0
    4.6967   -3.2239    0.2191 O   0  0  0  0  0  0  0  0  0  0  0  0
    2.6232   -3.3101    1.5503 O   0  0  0  0  0  0  0  0  0  0  0  0
    3.2256   -1.0291    0.2580 C   0  0  0  0  0  0  0  0  0  0  0  0
    4.2679   -0.3555   -0.3410 C   0  0  0  0  0  0  0  0  0  0  0  0
    4.3172    1.0213   -0.4127 C   0  0  0  0  0  0  0  0  0  0  0  0
    3.2740    1.7322    0.1421 C   0  0  0  0  0  0  0  0  0  0  0  0
    2.2065    1.1039    0.7536 C   0  0  0  0  0  0  0  0  0  0  0  0
    2.2086   -0.2688    0.7968 C   0  0  0  0  0  0  0  0  0  0  0  0
    1.1518    1.9308    1.3171 C   0  0  0  0  0  0  0  0  0  0  0  0
    1.2802    3.0502    2.1341 C   0  0  0  0  0  0  0  0  0  0  0  0
    0.0558    3.5155    2.4375 N   0  0  0  0  0  0  0  0  0  0  0  0
   -0.8628    2.7263    1.8379 C   0  0  0  0  0  0  0  0  0  0  0  0
   -2.2158    2.7594    1.8221 N   0  0  0  0  0  0  0  0  0  0  0  0
   -2.8947    1.8318    1.1269 C   0  0  0  0  0  0  0  0  0  0  0  0
   -2.2797    0.8265    0.4134 C   0  0  0  0  0  0  0  0  0  0  0  0
   -0.9042    0.7745    0.4162 C   0  0  0  0  0  0  0  0  0  0  0  0
   -0.1982    1.7215    1.1265 C   0  0  0  0  0  0  0  0  0  0  0  0
   -3.0735   -0.1708   -0.3366 C   0  0  0  0  0  0  0  0  0  0  0  0
   -4.3150   -0.5586    0.1219 C   0  0  0  0  0  0  0  0  0  0  0  0
   -5.1057   -1.4799   -0.5251 C   0  0  0  0  0  0  0  0  0  0  0  0
   -4.6500   -2.0571   -1.6955 C   0  0  0  0  0  0  0  0  0  0  0  0
   -3.4008   -1.6747   -2.1677 C   0  0  0  0  0  0  0  0  0  0  0  0
   -2.6208   -0.7426   -1.4972 C   0  0  0  0  0  0  0  0  0  0  0  0
    2.7508   -2.6964   -1.8998 H   0  0  0  0  0  0  0  0  0  0  0  0
    2.8670   -4.2860   -1.3948 H   0  0  0  0  0  0  0  0  0  0  0  0
    5.0655   -0.9251   -0.7646 H   0  0  0  0  0  0  0  0  0  0  0  0
    5.1334    1.5526   -0.8815 H   0  0  0  0  0  0  0  0  0  0  0  0
    3.3076    2.8164    0.0883 H   0  0  0  0  0  0  0  0  0  0  0  0
    1.4024   -0.7903    1.2640 H   0  0  0  0  0  0  0  0  0  0  0  0
    2.2585    3.4260    2.4348 H   0  0  0  0  0  0  0  0  0  0  0  0
   -0.1497    4.3584    3.0447 H   0  0  0  0  0  0  0  0  0  0  0  0
   -3.9947    1.8344    1.0962 H   0  0  0  0  0  0  0  0  0  0  0  0
   -0.3593    0.0150   -0.1230 H   0  0  0  0  0  0  0  0  0  0  0  0
   -4.7000   -0.1257    1.0349 H   0  0  0  0  0  0  0  0  0  0  0  0
   -6.0803   -1.7807   -0.1597 H   0  0  0  0  0  0  0  0  0  0  0  0
   -5.2754   -2.7782   -2.1963 H   0  0  0  0  0  0  0  0  0  0  0  0
   -3.0676   -2.1486   -3.0958 H   0  0  0  0  0  0  0  0  0  0  0  0
   -1.6598   -0.4752   -1.8974 H   0  0  0  0  0  0  0  0  0  0  0  0
  1  2  1  0
  2  3  2  0
  2  4  2  0
  2  5  1  0
  5  6  2  0
  6  7  1  0
  7  8  2  0
  8  9  1  0
  9 10  2  0
  9 11  1  0
 11 12  2  0
 12 13  1  0
 13 14  1  0
 14 15  2  0
 15 16  1  0
 16 17  2  0
 17 18  1  0
 18 19  2  0
 17 20  1  0
 20 21  2  0
 21 22  1  0
 22 23  2  0
 23 24  1  0
 24 25  2  0
 10  5  1  0
 19 11  1  0
 25 20  1  0
 19 14  1  0
  1 26  1  0
  1 27  1  0
  6 28  1  0
  7 29  1  0
  8 30  1  0
 10 31  1  0
 12 32  1  0
 13 33  1  0
 16 34  1  0
 18 35  1  0
 21 36  1  0
 22 37  1  0
 23 38  1  0
 24 39  1  0
 25 40  1  0
M  END
$$$$
[H]c1c(OC([H])([H])[H])c([H])c2c(C([H])([H])C([H])([H])N([H])C(=O)C([H])([H])[H])c([H])n([H])c2c1[H]
     RDKit          3D

 33 34  0  0  0  0  0  0  0  0999 V2000
   -4.7756    2.0820    0.3128 C   0  0  0  0  0  0  0  0  0  0  0  0
   -3.3869    1.8603    0.4384 O   0  0  0  0  0  0  0  0  0  0  0  0
   -2.8625    0.5913    0.2389 C   0  0  0  0  0  0  0  0  0  0  0  0
   -3.6321   -0.5076   -0.0848 C   0  0  0  0  0  0  0  0  0  0  0  0
   -3.0977   -1.7517   -0.2780 C   0  0  0  0  0  0  0  0  0  0  0  0
   -1.7232   -1.9361   -0.1469 C   0  0  0  0  0  0  0  0  0  0  0  0
   -0.9203   -3.0278   -0.2747 N   0  0  0  0  0  0  0  0  0  0  0  0
    0.3608   -2.6851   -0.0453 C   0  0  0  0  0  0  0  0  0  0  0  0
    0.3477   -1.3390    0.2329 C   0  0  0  0  0  0  0  0  0  0  0  0
    1.5342   -0.4992    0.5490 C   0  0  0  0  0  0  0  0  0  0  0  0
    1.8546    0.2942   -0.6717 C   0  0  0  0  0  0  0  0  0  0  0  0
    2.9918    1.1455   -0.4403 N   0  0  0  0  0  0  0  0  0  0  0  0
    4.2447    0.6290   -0.1073 C   0  0  0  0  0  0  0  0  0  0  0  0
    5.3957    1.5770    0.1263 C   0  0  0  0  0  0  0  0  0  0  0  0
    4.4719   -0.5942    0.0108 O   0  0  0  0  0  0  0  0  0  0  0  0
   -0.9550   -0.8353    0.1770 C   0  0  0  0  0  0  0  0  0  0  0  0
   -1.4845    0.4249    0.3742 C   0  0  0  0  0  0  0  0  0  0  0  0
   -4.8874    3.1974    0.1750 H   0  0  0  0  0  0  0  0  0  0  0  0
   -5.1447    1.5860   -0.5951 H   0  0  0  0  0  0  0  0  0  0  0  0
   -5.3429    1.7365    1.1952 H   0  0  0  0  0  0  0  0  0  0  0  0
   -4.7013   -0.3614   -0.1861 H   0  0  0  0  0  0  0  0  0  0  0  0
   -3.7022   -2.6319   -0.5360 H   0  0  0  0  0  0  0  0  0  0  0  0
   -1.2976   -3.9715   -0.5175 H   0  0  0  0  0  0  0  0  0  0  0  0
    1.2005   -3.3712   -0.0839 H   0  0  0  0  0  0  0  0  0  0  0  0
    2.3060   -1.1567    0.9303 H   0  0  0  0  0  0  0  0  0  0  0  0
    1.2421    0.2113    1.3514 H   0  0  0  0  0  0  0  0  0  0  0  0
    2.0516   -0.4203   -1.5216 H   0  0  0  0  0  0  0  0  0  0  0  0
    0.9356    0.8866   -0.9267 H   0  0  0  0  0  0  0  0  0  0  0  0
    2.8455    2.1832   -0.5313 H   0  0  0  0  0  0  0  0  0  0  0  0
    6.3350    1.0127    0.2465 H   0  0  0  0  0  0  0  0  0  0  0  0
    5.4594    2.2383   -0.7647 H   0  0  0  0  0  0  0  0  0  0  0  0
    5.1807    2.1754    1.0528 H   0  0  0  0  0  0  0  0  0  0  0  0
   -0.8440    1.2574    0.6278 H   0  0  0  0  0  0  0  0  0  0  0  0
  1  2  1  0
  2  3  1  0
  3  4  2  0
  4  5  1  0
  5  6  2  0
  6  7  1  0
  7  8  1  0
  8  9  2  0
  9 10  1  0
 10 11  1  0
 11 12  1  0
 12 13  1  0
 13 14  1  0
 13 15  2  0
  9 16  1  0
 16 17  2  0
 17  3  1  0
 16  6  1  0
  1 18  1  0
  1 19  1  0
  1 20  1  0
  4 21  1  0
  5 22  1  0
  7 23  1  0
  8 24  1  0
 10 25  1  0
 10 26  1  0
 11 27  1  0
 11 28  1  0
 12 29  1  0
 14 30  1  0
 14 31  1  0
 14 32  1  0
 17 33  1  0
M  END
$$$$
[H]OC(=O)c1c([H])c([H])c(-c2c([H])c([H])c(N([H])S(=O)(=O)c3c(C([H])([H])[H])c([H])c(C([H])([H])[H])c([H])c3C([H])([H])[H])c([H])c2[H])c([H])c1[H]
     RDKit          3D

 49 51  0  0  0  0  0  0  0  0999 V2000
   -5.4053    2.6726   -1.0824 C   0  0  0  0  0  0  0  0  0  0  0  0
   -4.7141    1.4113   -0.6608 C   0  0  0  0  0  0  0  0  0  0  0  0
   -3.9411    0.7166   -1.5491 C   0  0  0  0  0  0  0  0  0  0  0  0
   -3.2947   -0.4670   -1.1518 C   0  0  0  0  0  0  0  0  0  0  0  0
   -2.4888   -1.1998   -2.1320 C   0  0  0  0  0  0  0  0  0  0  0  0
   -3.4251   -0.9450    0.1263 C   0  0  0  0  0  0  0  0  0  0  0  0
   -4.2134   -0.2236    1.0076 C   0  0  0  0  0  0  0  0  0  0  0  0
   -4.4126   -0.6528    2.4009 C   0  0  0  0  0  0  0  0  0  0  0  0
   -4.8512    0.9422    0.6181 C   0  0  0  0  0  0  0  0  0  0  0  0
   -2.6506   -2.3643    0.6808 S   0  0  0  0  0  0  0  0  0  0  0  0
   -3.6184   -3.2691    1.4568 O   0  0  0  0  0  0  0  0  0  0  0  0
   -2.2543   -3.2697   -0.4938 O   0  0  0  0  0  0  0  0  0  0  0  0
   -1.2210   -2.1337    1.5879 N   0  0  0  0  0  0  0  0  0  0  0  0
   -0.0174   -1.5195    1.1742 C   0  0  0  0  0  0  0  0  0  0  0  0
    0.0628   -0.2488    0.6326 C   0  0  0  0  0  0  0  0  0  0  0  0
    1.2763    0.3229    0.2679 C   0  0  0  0  0  0  0  0  0  0  0  0
    2.4531   -0.3679    0.4376 C   0  0  0  0  0  0  0  0  0  0  0  0
    2.3518   -1.6287    0.9778 C   0  0  0  0  0  0  0  0  0  0  0  0
    1.1812   -2.2156    1.3442 C   0  0  0  0  0  0  0  0  0  0  0  0
    3.7214    0.2349    0.0530 C   0  0  0  0  0  0  0  0  0  0  0  0
    3.9085    1.6068    0.1442 C   0  0  0  0  0  0  0  0  0  0  0  0
    5.1078    2.1827   -0.2202 C   0  0  0  0  0  0  0  0  0  0  0  0
    6.1653    1.4321   -0.6870 C   0  0  0  0  0  0  0  0  0  0  0  0
    5.9788    0.0620   -0.7782 C   0  0  0  0  0  0  0  0  0  0  0  0
    4.7805   -0.5169   -0.4144 C   0  0  0  0  0  0  0  0  0  0  0  0
    7.4325    2.0142   -1.0761 C   0  0  0  0  0  0  0  0  0  0  0  0
    8.4804    1.2468   -1.5409 O   0  0  0  0  0  0  0  0  0  0  0  0
    7.5981    3.2564   -0.9935 O   0  0  0  0  0  0  0  0  0  0  0  0
   -5.5847    2.5740   -2.1727 H   0  0  0  0  0  0  0  0  0  0  0  0
   -6.3347    2.7419   -0.5044 H   0  0  0  0  0  0  0  0  0  0  0  0
   -4.7921    3.5553   -0.8346 H   0  0  0  0  0  0  0  0  0  0  0  0
   -3.8273    1.0809   -2.5635 H   0  0  0  0  0  0  0  0  0  0  0  0
   -1.4459   -1.3958   -1.8414 H   0  0  0  0  0  0  0  0  0  0  0  0
   -2.3968   -0.5511   -3.0545 H   0  0  0  0  0  0  0  0  0  0  0  0
   -3.0053   -2.1120   -2.5212 H   0  0  0  0  0  0  0  0  0  0  0  0
   -3.5825   -1.2326    2.8277 H   0  0  0  0  0  0  0  0  0  0  0  0
   -5.3195   -1.2906    2.4385 H   0  0  0  0  0  0  0  0  0  0  0  0
   -4.6457    0.2363    3.0576 H   0  0  0  0  0  0  0  0  0  0  0  0
   -5.4680    1.5097    1.3011 H   0  0  0  0  0  0  0  0  0  0  0  0
   -1.1848   -2.4824    2.6054 H   0  0  0  0  0  0  0  0  0  0  0  0
   -0.8346    0.3341    0.4927 H   0  0  0  0  0  0  0  0  0  0  0  0
    1.2766    1.3022   -0.1429 H   0  0  0  0  0  0  0  0  0  0  0  0
    3.2579   -2.2072    1.1281 H   0  0  0  0  0  0  0  0  0  0  0  0
    1.1056   -3.2108    1.7702 H   0  0  0  0  0  0  0  0  0  0  0  0
    3.0795    2.1868    0.5090 H   0  0  0  0  0  0  0  0  0  0  0  0
    5.2487    3.2558   -0.1470 H   0  0  0  0  0  0  0  0  0  0  0  0
    6.7915   -0.5452   -1.1402 H   0  0  0  0  0  0  0  0  0  0  0  0
    4.6206   -1.5967   -0.4816 H   0  0  0  0  0  0  0  0  0  0  0  0
    9.0508    0.7686   -0.8564 H   0  0  0  0  0  0  0  0  0  0  0  0
  1  2  1  0
  2  3  2  0
  3  4  1  0
  4  5  1  0
  4  6  2  0
  6  7  1  0
  7  8  1  0
  7  9  2  0
  6 10  1  0
 10 11  2  0
 10 12  2  0
 10 13  1  0
 13 14  1  0
 14 15  2  0
 15 16  1  0
 16 17  2  0
 17 18  1  0
 18 19  2  0
 17 20  1  0
 20 21  2  0
 21 22  1  0
 22 23  2  0
 23 24  1  0
 24 25  2  0
 23 26  1  0
 26 27  1  0
 26 28  2  0
  9  2  1  0
 19 14  1  0
 25 20  1  0
  1 29  1  0
  1 30  1  0
  1 31  1  0
  3 32  1  0
  5 33  1  0
  5 34  1  0
  5 35  1  0
  8 36  1  0
  8 37  1  0
  8 38  1  0
  9 39  1  0
 13 40  1  0
 15 41  1  0
 16 42  1  0
 18 43  1  0
 19 44  1  0
 21 45  1  0
 22 46  1  0
 24 47  1  0
 25 48  1  0
 27 49  1  0
M  END
$$$$
[H]N=C(N([H])[H])N([H])C([H])([H])C([H])([H])C([H])([H])[C@@]([H])(C(=O)N([H])[C@]([H])(C(=O)N([H])[C@]([H])(C(=O)N([H])[H])C([H])([H])C([H])([H])C(=O)N([H])[H])C([H])([H])C([H])([H])C(=O)N([H])[H])N([H])C(=O)[C@@]([H])(N([H])C(=O)[C@@]([H])(N([H])C(=O)[C@@]([H])(N([H])[H])C([H])([H])c1c([H])c([H])c(O[H])c([H])c1[H])C([H])([H])C([H])([H])C(=O)N([H])[H])C([H])([H])C([H])([H])C(=O)N([H])[H]
     RDKit          3D

116116  0  0  0  0  0  0  0  0999 V2000
    4.3270   -5.3845   -2.1236 N   0  0  0  0  0  0  0  0  0  0  0  0
    5.0604   -4.1947   -2.2766 C   0  0  0  0  0  0  0  0  0  0  0  0
    6.2372   -4.1919   -1.6836 N   0  0  0  0  0  0  0  0  0  0  0  0
    4.5876   -3.1080   -3.0012 N   0  0  0  0  0  0  0  0  0  0  0  0
    3.1993   -3.0374   -3.4274 C   0  0  0  0  0  0  0  0  0  0  0  0
    2.3037   -2.8689   -2.1693 C   0  0  0  0  0  0  0  0  0  0  0  0
    2.6812   -1.6109   -1.4809 C   0  0  0  0  0  0  0  0  0  0  0  0
    1.9469   -1.5318   -0.1019 C   0  0  2  0  0  0  0  0  0  0  0  0
    0.6373   -1.4798   -0.0439 N   0  0  0  0  0  0  0  0  0  0  0  0
   -0.7927   -1.4342    0.0061 C   0  0  0  0  0  0  0  0  0  0  0  0
   -1.4637   -2.0850   -0.8818 O   0  0  0  0  0  0  0  0  0  0  0  0
   -1.5779   -0.6784    1.0082 C   0  0  2  0  0  0  0  0  0  0  0  0
   -2.0487   -1.4398    2.1963 C   0  0  0  0  0  0  0  0  0  0  0  0
   -2.9094   -2.6168    2.0641 C   0  0  0  0  0  0  0  0  0  0  0  0
   -2.3459   -3.8359    1.4589 C   0  0  0  0  0  0  0  0  0  0  0  0
   -3.1642   -4.7335    0.7419 N   0  0  0  0  0  0  0  0  0  0  0  0
   -1.0931   -4.1173    1.5720 O   0  0  0  0  0  0  0  0  0  0  0  0
   -2.6647    0.0318    0.3498 N   0  0  0  0  0  0  0  0  0  0  0  0
   -3.5534    0.9588    0.9108 C   0  0  0  0  0  0  0  0  0  0  0  0
   -3.5029    1.2380    2.1212 O   0  0  0  0  0  0  0  0  0  0  0  0
   -4.5889    1.6548    0.0921 C   0  0  2  0  0  0  0  0  0  0  0  0
   -4.2050    3.1464    0.2043 C   0  0  0  0  0  0  0  0  0  0  0  0
   -5.1606    4.0230   -0.5468 C   0  0  0  0  0  0  0  0  0  0  0  0
   -4.8037    5.4434   -0.3951 C   0  0  0  0  0  0  0  0  0  0  0  0
   -5.8050    6.4130   -0.7497 N   0  0  0  0  0  0  0  0  0  0  0  0
   -3.6886    5.7877    0.0205 O   0  0  0  0  0  0  0  0  0  0  0  0
   -5.9347    1.6078    0.6858 N   0  0  0  0  0  0  0  0  0  0  0  0
   -6.9652    0.9440   -0.0103 C   0  0  0  0  0  0  0  0  0  0  0  0
   -6.6219    0.4042   -1.1340 O   0  0  0  0  0  0  0  0  0  0  0  0
   -8.3704    0.7696    0.3414 C   0  0  1  0  0  0  0  0  0  0  0  0
   -8.8513    1.5998    1.3983 N   0  0  0  0  0  0  0  0  0  0  0  0
   -9.2567    0.9251   -0.8800 C   0  0  0  0  0  0  0  0  0  0  0  0
  -10.6929    0.7351   -0.6336 C   0  0  0  0  0  0  0  0  0  0  0  0
  -11.2508   -0.5310   -0.6135 C   0  0  0  0  0  0  0  0  0  0  0  0
  -12.5924   -0.7364   -0.4538 C   0  0  0  0  0  0  0  0  0  0  0  0
  -13.4436    0.3574   -0.3062 C   0  0  0  0  0  0  0  0  0  0  0  0
  -14.7970    0.1267   -0.1557 O   0  0  0  0  0  0  0  0  0  0  0  0
  -12.9105    1.6378   -0.3214 C   0  0  0  0  0  0  0  0  0  0  0  0
  -11.5585    1.8220   -0.4818 C   0  0  0  0  0  0  0  0  0  0  0  0
    2.7896   -0.4818    0.6109 C   0  0  0  0  0  0  0  0  0  0  0  0
    2.2384    0.5397    1.0214 O   0  0  0  0  0  0  0  0  0  0  0  0
    4.2046   -0.7691    0.7526 N   0  0  0  0  0  0  0  0  0  0  0  0
    5.0735    0.1677    1.3755 C   0  0  1  0  0  0  0  0  0  0  0  0
    5.9236   -0.2158    2.5039 C   0  0  0  0  0  0  0  0  0  0  0  0
    5.4644   -0.7601    3.7764 C   0  0  0  0  0  0  0  0  0  0  0  0
    4.8477   -2.0611    3.8121 C   0  0  0  0  0  0  0  0  0  0  0  0
    4.7805   -2.7936    5.0968 N   0  0  0  0  0  0  0  0  0  0  0  0
    4.3385   -2.7143    2.9021 O   0  0  0  0  0  0  0  0  0  0  0  0
    6.0614    0.5683    0.2390 C   0  0  0  0  0  0  0  0  0  0  0  0
    5.6314    0.5063   -0.9297 O   0  0  0  0  0  0  0  0  0  0  0  0
    7.3676    0.9676    0.4862 N   0  0  0  0  0  0  0  0  0  0  0  0
    8.2483    1.2887   -0.6504 C   0  0  1  0  0  0  0  0  0  0  0  0
    8.9625    2.5609   -0.3721 C   0  0  0  0  0  0  0  0  0  0  0  0
    9.9208    2.9535   -1.4673 C   0  0  0  0  0  0  0  0  0  0  0  0
   10.5820    4.2577   -1.1220 C   0  0  0  0  0  0  0  0  0  0  0  0
   11.6811    4.6402   -1.9748 N   0  0  0  0  0  0  0  0  0  0  0  0
   10.2331    4.9736   -0.1751 O   0  0  0  0  0  0  0  0  0  0  0  0
    9.2051    0.1194   -0.7768 C   0  0  0  0  0  0  0  0  0  0  0  0
    9.8609   -0.1706   -2.0004 N   0  0  0  0  0  0  0  0  0  0  0  0
    9.4129   -0.6042    0.2116 O   0  0  0  0  0  0  0  0  0  0  0  0
    4.1684   -6.0596   -2.8945 H   0  0  0  0  0  0  0  0  0  0  0  0
    3.9326   -5.6289   -1.2061 H   0  0  0  0  0  0  0  0  0  0  0  0
    6.6061   -5.0048   -1.1352 H   0  0  0  0  0  0  0  0  0  0  0  0
    5.1959   -2.2830   -3.2734 H   0  0  0  0  0  0  0  0  0  0  0  0
    2.9996   -2.2372   -4.1443 H   0  0  0  0  0  0  0  0  0  0  0  0
    2.9341   -4.0432   -3.8511 H   0  0  0  0  0  0  0  0  0  0  0  0
    1.2582   -2.8099   -2.5899 H   0  0  0  0  0  0  0  0  0  0  0  0
    2.4962   -3.7282   -1.5282 H   0  0  0  0  0  0  0  0  0  0  0  0
    2.4200   -0.6925   -2.0493 H   0  0  0  0  0  0  0  0  0  0  0  0
    3.7445   -1.6249   -1.2708 H   0  0  0  0  0  0  0  0  0  0  0  0
    2.3774   -2.5509    0.3254 H   0  0  0  0  0  0  0  0  0  0  0  0
    0.5329   -2.4352   -1.0021 H   0  0  0  0  0  0  0  0  0  0  0  0
   -0.9186    0.1172    1.4591 H   0  0  0  0  0  0  0  0  0  0  0  0
   -1.0842   -1.8284    2.6841 H   0  0  0  0  0  0  0  0  0  0  0  0
   -2.4069   -0.7075    2.9637 H   0  0  0  0  0  0  0  0  0  0  0  0
   -3.2279   -2.9219    3.1032 H   0  0  0  0  0  0  0  0  0  0  0  0
   -3.8942   -2.4277    1.5507 H   0  0  0  0  0  0  0  0  0  0  0  0
   -2.8365   -5.2342   -0.1086 H   0  0  0  0  0  0  0  0  0  0  0  0
   -4.1238   -4.8987    1.0777 H   0  0  0  0  0  0  0  0  0  0  0  0
   -2.8284   -0.1619   -0.6965 H   0  0  0  0  0  0  0  0  0  0  0  0
   -4.5634    1.3233   -0.9506 H   0  0  0  0  0  0  0  0  0  0  0  0
   -4.2807    3.4085    1.2766 H   0  0  0  0  0  0  0  0  0  0  0  0
   -3.1734    3.2550   -0.1736 H   0  0  0  0  0  0  0  0  0  0  0  0
   -5.1042    3.7345   -1.6375 H   0  0  0  0  0  0  0  0  0  0  0  0
   -6.2208    3.8721   -0.2593 H   0  0  0  0  0  0  0  0  0  0  0  0
   -5.7647    7.0689   -1.5297 H   0  0  0  0  0  0  0  0  0  0  0  0
   -6.6651    6.4319   -0.1236 H   0  0  0  0  0  0  0  0  0  0  0  0
   -6.0888    2.0539    1.5856 H   0  0  0  0  0  0  0  0  0  0  0  0
   -8.4410   -0.3089    0.7239 H   0  0  0  0  0  0  0  0  0  0  0  0
   -9.2463    2.5064    1.0772 H   0  0  0  0  0  0  0  0  0  0  0  0
   -8.2263    1.6526    2.2233 H   0  0  0  0  0  0  0  0  0  0  0  0
   -8.9532    0.1725   -1.6487 H   0  0  0  0  0  0  0  0  0  0  0  0
   -9.0977    1.9630   -1.2626 H   0  0  0  0  0  0  0  0  0  0  0  0
  -10.5754   -1.3796   -0.7373 H   0  0  0  0  0  0  0  0  0  0  0  0
  -13.0567   -1.7415   -0.4373 H   0  0  0  0  0  0  0  0  0  0  0  0
  -15.2197   -0.0006    0.7553 H   0  0  0  0  0  0  0  0  0  0  0  0
  -13.6206    2.4628   -0.2034 H   0  0  0  0  0  0  0  0  0  0  0  0
  -11.1480    2.8009   -0.5039 H   0  0  0  0  0  0  0  0  0  0  0  0
    4.5628   -1.6908    0.3763 H   0  0  0  0  0  0  0  0  0  0  0  0
    4.5055    1.0881    1.5824 H   0  0  0  0  0  0  0  0  0  0  0  0
    6.5529    0.7323    2.7873 H   0  0  0  0  0  0  0  0  0  0  0  0
    6.7793   -0.8514    2.0597 H   0  0  0  0  0  0  0  0  0  0  0  0
    4.8482    0.0099    4.3605 H   0  0  0  0  0  0  0  0  0  0  0  0
    6.3795   -0.8387    4.4796 H   0  0  0  0  0  0  0  0  0  0  0  0
    4.2034   -2.4076    5.8888 H   0  0  0  0  0  0  0  0  0  0  0  0
    5.3349   -3.6585    5.1118 H   0  0  0  0  0  0  0  0  0  0  0  0
    7.7758    1.0543    1.4087 H   0  0  0  0  0  0  0  0  0  0  0  0
    7.6375    1.3593   -1.5488 H   0  0  0  0  0  0  0  0  0  0  0  0
    9.5897    2.5439    0.5700 H   0  0  0  0  0  0  0  0  0  0  0  0
    8.1710    3.3768   -0.3097 H   0  0  0  0  0  0  0  0  0  0  0  0
   10.7600    2.1950   -1.4531 H   0  0  0  0  0  0  0  0  0  0  0  0
    9.4534    3.0108   -2.4528 H   0  0  0  0  0  0  0  0  0  0  0  0
   12.3195    5.4143   -1.7164 H   0  0  0  0  0  0  0  0  0  0  0  0
   11.8511    4.1278   -2.8637 H   0  0  0  0  0  0  0  0  0  0  0  0
   10.3301   -1.0819   -2.0853 H   0  0  0  0  0  0  0  0  0  0  0  0
    9.8519    0.5186   -2.7605 H   0  0  0  0  0  0  0  0  0  0  0  0
  1  2  1  0
  2  3  2  3
  2  4  1  0
  4  5  1  0
  5  6  1  0
  6  7  1  0
  7  8  1  0
  8  9  1  0
  9 10  1  0
 10 11  2  0
 10 12  1  0
 12 13  1  0
 13 14  1  0
 14 15  1  0
 15 16  1  0
 15 17  2  0
 12 18  1  0
 18 19  1  0
 19 20  2  0
 19 21  1  0
 21 22  1  0
 22 23  1  0
 23 24  1  0
 24 25  1  0
 24 26  2  0
 21 27  1  0
 27 28  1  0
 28 29  2  0
 28 30  1  0
 30 31  1  0
 30 32  1  0
 32 33  1  0
 33 34  2  0
 34 35  1  0
 35 36  2  0
 36 37  1  0
 36 38  1  0
 38 39  2  0
  8 40  1  0
 40 41  2  0
 40 42  1  0
 42 43  1  0
 43 44  1  0
 44 45  1  0
 45 46  1  0
 46 47  1  0
 46 48  2  0
 43 49  1  0
 49 50  2  0
 49 51  1  0
 51 52  1  0
 52 53  1  0
 53 54  1  0
 54 55  1  0
 55 56  1  0
 55 57  2  0
 52 58  1  0
 58 59  1  0
 58 60  2  0
 39 33  1  0
  1 61  1  0
  1 62  1  0
  3 63  1  0
  4 64  1  0
  5 65  1  0
  5 66  1  0
  6 67  1  0
  6 68  1  0
  7 69  1  0
  7 70  1  0
  8 71  1  1
  9 72  1  0
 12 73  1  1
 13 74  1  0
 13 75  1  0
 14 76  1  0
 14 77  1  0
 16 78  1  0
 16 79  1  0
 18 80  1  0
 21 81  1  6
 22 82  1  0
 22 83  1  0
 23 84  1  0
 23 85  1  0
 25 86  1  0
 25 87  1  0
 27 88  1  0
 30 89  1  1
 31 90  1  0
 31 91  1  0
 32 92  1  0
 32 93  1  0
 34 94  1  0
 35 95  1  0
 37 96  1  0
 38 97  1  0
 39 98  1  0
 42 99  1  0
 43100  1  1
 44101  1  0
 44102  1  0
 45103  1  0
 45104  1  0
 47105  1  0
 47106  1  0
 51107  1  0
 52108  1  6
 53109  1  0
 53110  1  0
 54111  1  0
 54112  1  0
 56113  1  0
 56114  1  0
 59115  1  0
 59116  1  0
M  END
$$$$
[H]c1nc(N2C([H])([H])C([H])([H])N(c3nc([H])c([H])c(C(F)(F)F)c3[H])[C@@]([H])(C([H])([H])[H])C2([H])[H])c([H])c(C(F)(F)F)c1[H]
     RDKit          3D

 43 45  0  0  0  0  0  0  0  0999 V2000
   -1.0814   -1.4517   -1.4631 C   0  0  0  0  0  0  0  0  0  0  0  0
   -0.7953   -0.9838   -0.0698 C   0  0  1  0  0  0  0  0  0  0  0  0
    0.6233   -1.1355    0.3477 C   0  0  0  0  0  0  0  0  0  0  0  0
    1.5020   -0.0374    0.0488 N   0  0  0  0  0  0  0  0  0  0  0  0
    0.9911    1.2482   -0.2315 C   0  0  0  0  0  0  0  0  0  0  0  0
   -0.3852    1.4637    0.4510 C   0  0  0  0  0  0  0  0  0  0  0  0
   -1.3152    0.3965    0.1597 N   0  0  0  0  0  0  0  0  0  0  0  0
   -2.6883    0.6087    0.1415 C   0  0  0  0  0  0  0  0  0  0  0  0
   -3.7062   -0.2855    0.2914 C   0  0  0  0  0  0  0  0  0  0  0  0
   -5.0754    0.0136    0.2412 C   0  0  0  0  0  0  0  0  0  0  0  0
   -5.4330    1.3083    0.0288 C   0  0  0  0  0  0  0  0  0  0  0  0
   -4.3716    2.2188   -0.1191 C   0  0  0  0  0  0  0  0  0  0  0  0
   -3.0882    1.9288   -0.0839 N   0  0  0  0  0  0  0  0  0  0  0  0
   -6.1055   -1.0171    0.4117 C   0  0  0  0  0  0  0  0  0  0  0  0
   -5.7386   -1.7968    1.4722 F   0  0  0  0  0  0  0  0  0  0  0  0
   -6.1532   -1.7942   -0.6962 F   0  0  0  0  0  0  0  0  0  0  0  0
   -7.3575   -0.4403    0.6549 F   0  0  0  0  0  0  0  0  0  0  0  0
    2.9051   -0.3604    0.0402 C   0  0  0  0  0  0  0  0  0  0  0  0
    3.8906    0.5047   -0.3299 C   0  0  0  0  0  0  0  0  0  0  0  0
    5.2611    0.1755   -0.2944 C   0  0  0  0  0  0  0  0  0  0  0  0
    5.5661   -1.0868    0.1558 C   0  0  0  0  0  0  0  0  0  0  0  0
    4.5836   -1.9352    0.5230 C   0  0  0  0  0  0  0  0  0  0  0  0
    3.2837   -1.5780    0.4667 N   0  0  0  0  0  0  0  0  0  0  0  0
    6.2631    1.1589   -0.7464 C   0  0  0  0  0  0  0  0  0  0  0  0
    7.1411    1.5486    0.2579 F   0  0  0  0  0  0  0  0  0  0  0  0
    5.7142    2.2867   -1.3076 F   0  0  0  0  0  0  0  0  0  0  0  0
    6.9397    0.5075   -1.8076 F   0  0  0  0  0  0  0  0  0  0  0  0
   -0.2511   -1.3590   -2.1589 H   0  0  0  0  0  0  0  0  0  0  0  0
   -1.9457   -0.9036   -1.9276 H   0  0  0  0  0  0  0  0  0  0  0  0
   -1.4125   -2.5252   -1.4531 H   0  0  0  0  0  0  0  0  0  0  0  0
   -1.3963   -1.6005    0.5835 H   0  0  0  0  0  0  0  0  0  0  0  0
    0.9591   -2.0917   -0.1430 H   0  0  0  0  0  0  0  0  0  0  0  0
    0.7102   -1.3040    1.4145 H   0  0  0  0  0  0  0  0  0  0  0  0
    0.9181    1.5397   -1.2924 H   0  0  0  0  0  0  0  0  0  0  0  0
    1.5903    2.0914    0.2456 H   0  0  0  0  0  0  0  0  0  0  0  0
   -0.2493    1.4719    1.5644 H   0  0  0  0  0  0  0  0  0  0  0  0
   -0.7446    2.4165    0.1544 H   0  0  0  0  0  0  0  0  0  0  0  0
   -3.4296   -1.3292    0.4596 H   0  0  0  0  0  0  0  0  0  0  0  0
   -6.4343    1.6506   -0.0260 H   0  0  0  0  0  0  0  0  0  0  0  0
   -4.7265    3.2797   -0.3106 H   0  0  0  0  0  0  0  0  0  0  0  0
    3.6333    1.5146   -0.6585 H   0  0  0  0  0  0  0  0  0  0  0  0
    6.6003   -1.3316    0.1633 H   0  0  0  0  0  0  0  0  0  0  0  0
    4.8087   -2.9854    0.8693 H   0  0  0  0  0  0  0  0  0  0  0  0
  1  2  1  0
  2  3  1  0
  3  4  1  0
  4  5  1  0
  5  6  1  0
  6  7  1  0
  7  8  1  0
  8  9  2  0
  9 10  1  0
 10 11  2  0
 11 12  1  0
 12 13  2  0
 10 14  1  0
 14 15  1  0
 14 16  1  0
 14 17  1  0
  4 18  1  0
 18 19  2  0
 19 20  1  0
 20 21  2  0
 21 22  1  0
 22 23  2  0
 20 24  1  0
 24 25  1  0
 24 26  1  0
 24 27  1  0
  7  2  1  0
 13  8  1  0
 23 18  1  0
  1 28  1  0
  1 29  1  0
  1 30  1  0
  2 31  1  1
  3 32  1  0
  3 33  1  0
  5 34  1  0
  5 35  1  0
  6 36  1  0
  6 37  1  0
  9 38  1  0
 11 39  1  0
 12 40  1  0
 19 41  1  0
 21 42  1  0
 22 43  1  0
M  END
$$$$
[H]O[C@@]1([H])C([H])([H])C([H])([H])[C@]2([H])[C@]1(C([H])([H])[H])C([H])([H])C([H])([H])[C@]1([H])[C@]3(C([H])([H])[H])C(=C([H])C(=O)C([H])([H])C3([H])[H])C([H])([H])C([H])([H])[C@@]21[H]
     RDKit          3D

 49 52  0  0  0  0  0  0  0  0999 V2000
    2.6003    1.3949    0.7370 C   0  0  0  0  0  0  0  0  0  0  0  0
    2.3315    0.4990   -0.4424 C   0  0  2  0  0  0  0  0  0  0  0  0
    1.5103    1.1614   -1.4949 C   0  0  0  0  0  0  0  0  0  0  0  0
    0.1483    1.4556   -0.9170 C   0  0  0  0  0  0  0  0  0  0  0  0
   -0.5369    0.1560   -0.5507 C   0  0  1  0  0  0  0  0  0  0  0  0
    0.2754   -0.6369    0.4710 C   0  0  1  0  0  0  0  0  0  0  0  0
   -0.3169   -2.0384    0.5263 C   0  0  0  0  0  0  0  0  0  0  0  0
   -1.7749   -2.0482    0.8169 C   0  0  0  0  0  0  0  0  0  0  0  0
   -2.5405   -0.9871    0.1457 C   0  0  0  0  0  0  0  0  0  0  0  0
   -3.7658   -1.2727   -0.2625 C   0  0  0  0  0  0  0  0  0  0  0  0
   -4.6079   -0.3042   -0.9341 C   0  0  0  0  0  0  0  0  0  0  0  0
   -5.6066   -0.6232   -1.6118 O   0  0  0  0  0  0  0  0  0  0  0  0
   -4.2087    1.1393   -0.7699 C   0  0  0  0  0  0  0  0  0  0  0  0
   -2.7163    1.1869   -1.0278 C   0  0  0  0  0  0  0  0  0  0  0  0
   -1.9296    0.3620   -0.0560 C   0  0  2  0  0  0  0  0  0  0  0  0
   -1.9459    1.0713    1.2829 C   0  0  0  0  0  0  0  0  0  0  0  0
    1.6457   -0.7900   -0.0472 C   0  0  2  0  0  0  0  0  0  0  0  0
    2.6444   -1.3862    0.8737 C   0  0  0  0  0  0  0  0  0  0  0  0
    3.9631   -1.0731    0.1623 C   0  0  0  0  0  0  0  0  0  0  0  0
    3.6050   -0.1289   -0.9688 C   0  0  2  0  0  0  0  0  0  0  0  0
    4.5812    0.7519   -1.2889 O   0  0  0  0  0  0  0  0  0  0  0  0
    3.6756    1.2716    1.0471 H   0  0  0  0  0  0  0  0  0  0  0  0
    1.9625    1.2047    1.6015 H   0  0  0  0  0  0  0  0  0  0  0  0
    2.4819    2.4492    0.4115 H   0  0  0  0  0  0  0  0  0  0  0  0
    1.9872    2.1545   -1.7263 H   0  0  0  0  0  0  0  0  0  0  0  0
    1.4562    0.5158   -2.3781 H   0  0  0  0  0  0  0  0  0  0  0  0
   -0.4734    1.9510   -1.6671 H   0  0  0  0  0  0  0  0  0  0  0  0
    0.2714    2.1214   -0.0498 H   0  0  0  0  0  0  0  0  0  0  0  0
   -0.5888   -0.4547   -1.4753 H   0  0  0  0  0  0  0  0  0  0  0  0
    0.1940   -0.1895    1.4684 H   0  0  0  0  0  0  0  0  0  0  0  0
   -0.0876   -2.5040   -0.4691 H   0  0  0  0  0  0  0  0  0  0  0  0
    0.2474   -2.5825    1.3004 H   0  0  0  0  0  0  0  0  0  0  0  0
   -2.1698   -3.0559    0.5263 H   0  0  0  0  0  0  0  0  0  0  0  0
   -1.9002   -2.0016    1.9294 H   0  0  0  0  0  0  0  0  0  0  0  0
   -4.1853   -2.2671   -0.1012 H   0  0  0  0  0  0  0  0  0  0  0  0
   -4.4637    1.4087    0.2637 H   0  0  0  0  0  0  0  0  0  0  0  0
   -4.7180    1.7173   -1.5432 H   0  0  0  0  0  0  0  0  0  0  0  0
   -2.5697    0.8169   -2.0700 H   0  0  0  0  0  0  0  0  0  0  0  0
   -2.4147    2.2480   -0.9356 H   0  0  0  0  0  0  0  0  0  0  0  0
   -2.6695    1.9362    1.2729 H   0  0  0  0  0  0  0  0  0  0  0  0
   -2.2828    0.4031    2.1004 H   0  0  0  0  0  0  0  0  0  0  0  0
   -0.9566    1.5164    1.5155 H   0  0  0  0  0  0  0  0  0  0  0  0
    1.6091   -1.4204   -0.9702 H   0  0  0  0  0  0  0  0  0  0  0  0
    2.6340   -0.7940    1.8359 H   0  0  0  0  0  0  0  0  0  0  0  0
    2.5188   -2.4554    1.0564 H   0  0  0  0  0  0  0  0  0  0  0  0
    4.3735   -2.0337   -0.2265 H   0  0  0  0  0  0  0  0  0  0  0  0
    4.6899   -0.6220    0.8558 H   0  0  0  0  0  0  0  0  0  0  0  0
    3.3380   -0.7531   -1.8418 H   0  0  0  0  0  0  0  0  0  0  0  0
    4.6855    1.5297   -0.7163 H   0  0  0  0  0  0  0  0  0  0  0  0
  2  1  1  1
  2  3  1  0
  3  4  1  0
  4  5  1  0
  5  6  1  0
  6  7  1  0
  7  8  1  0
  8  9  1  0
  9 10  2  0
 10 11  1  0
 11 12  2  0
 11 13  1  0
 13 14  1  0
 14 15  1  0
 15 16  1  1
  6 17  1  0
 17 18  1  0
 18 19  1  0
 19 20  1  0
 20 21  1  0
 17  2  1  0
 20  2  1  0
 15  5  1  0
 15  9  1  0
  1 22  1  0
  1 23  1  0
  1 24  1  0
  3 25  1  0
  3 26  1  0
  4 27  1  0
  4 28  1  0
  5 29  1  6
  6 30  1  1
  7 31  1  0
  7 32  1  0
  8 33  1  0
  8 34  1  0
 10 35  1  0
 13 36  1  0
 13 37  1  0
 14 38  1  0
 14 39  1  0
 16 40  1  0
 16 41  1  0
 16 42  1  0
 17 43  1  6
 18 44  1  0
 18 45  1  0
 19 46  1  0
 19 47  1  0
 20 48  1  6
 21 49  1  0
M  END
$$$$
[H]C([H])=C([H])C(=O)N([H])c1c([H])c([H])c([H])c(C([H])([H])N([H])c2nc(N([H])c3c([H])c([H])c(N4C([H])([H])C([H])([H])N(C([H])([H])[H])C([H])([H])C4([H])[H])c([H])c3OC([H])([H])[H])nc([H])c2Cl)c1[H]
     RDKit          3D

 66 69  0  0  0  0  0  0  0  0999 V2000
   -3.6752   -1.0558    3.0120 C   0  0  0  0  0  0  0  0  0  0  0  0
   -2.7428   -0.8658    1.9691 O   0  0  0  0  0  0  0  0  0  0  0  0
   -3.1436   -0.5826    0.6632 C   0  0  0  0  0  0  0  0  0  0  0  0
   -4.4833   -0.4828    0.3718 C   0  0  0  0  0  0  0  0  0  0  0  0
   -4.9399   -0.2002   -0.9238 C   0  0  0  0  0  0  0  0  0  0  0  0
   -3.9780   -0.0305   -1.8780 C   0  0  0  0  0  0  0  0  0  0  0  0
   -2.6040   -0.1362   -1.5626 C   0  0  0  0  0  0  0  0  0  0  0  0
   -2.1619   -0.4081   -0.3140 C   0  0  0  0  0  0  0  0  0  0  0  0
   -0.8267   -0.5154    0.0542 N   0  0  0  0  0  0  0  0  0  0  0  0
    0.3283   -0.3966   -0.7489 C   0  0  0  0  0  0  0  0  0  0  0  0
    0.3095   -0.1547   -2.0569 N   0  0  0  0  0  0  0  0  0  0  0  0
    1.3926   -0.0301   -2.8433 C   0  0  0  0  0  0  0  0  0  0  0  0
    2.6094   -0.1699   -2.2106 C   0  0  0  0  0  0  0  0  0  0  0  0
    4.0754   -0.0292   -3.1288 Cl  0  0  0  0  0  0  0  0  0  0  0  0
    2.6607   -0.4233   -0.8435 C   0  0  0  0  0  0  0  0  0  0  0  0
    3.9431   -0.5514   -0.2522 N   0  0  0  0  0  0  0  0  0  0  0  0
    4.0848   -0.8181    1.1705 C   0  0  0  0  0  0  0  0  0  0  0  0
    5.4917   -0.8909    1.5789 C   0  0  0  0  0  0  0  0  0  0  0  0
    5.9377   -1.8786    2.4331 C   0  0  0  0  0  0  0  0  0  0  0  0
    7.2626   -1.9472    2.8176 C   0  0  0  0  0  0  0  0  0  0  0  0
    8.1780   -0.9959    2.3330 C   0  0  0  0  0  0  0  0  0  0  0  0
    7.7480   -0.0109    1.4842 C   0  0  0  0  0  0  0  0  0  0  0  0
    8.5620    0.9747    0.9093 N   0  0  0  0  0  0  0  0  0  0  0  0
    9.9441    0.8614    0.7514 C   0  0  0  0  0  0  0  0  0  0  0  0
   10.5956   -0.1288    1.0977 O   0  0  0  0  0  0  0  0  0  0  0  0
   10.6862    1.9719    0.1404 C   0  0  0  0  0  0  0  0  0  0  0  0
   11.9909    1.8952   -0.0237 C   0  0  0  0  0  0  0  0  0  0  0  0
    6.3870    0.0364    1.1070 C   0  0  0  0  0  0  0  0  0  0  0  0
    1.5484   -0.5347   -0.1271 N   0  0  0  0  0  0  0  0  0  0  0  0
   -6.3391   -0.1112   -1.1675 N   0  0  0  0  0  0  0  0  0  0  0  0
   -7.3070   -0.4928   -0.1396 C   0  0  0  0  0  0  0  0  0  0  0  0
   -8.6779   -0.4480   -0.7769 C   0  0  0  0  0  0  0  0  0  0  0  0
   -8.9821    0.8625   -1.3111 N   0  0  0  0  0  0  0  0  0  0  0  0
   -9.4696    1.7675   -0.2906 C   0  0  0  0  0  0  0  0  0  0  0  0
   -7.9262    1.4125   -2.0928 C   0  0  0  0  0  0  0  0  0  0  0  0
   -6.8528    0.3615   -2.4192 C   0  0  0  0  0  0  0  0  0  0  0  0
   -4.5024   -1.7016    2.6836 H   0  0  0  0  0  0  0  0  0  0  0  0
   -4.1110   -0.0407    3.2152 H   0  0  0  0  0  0  0  0  0  0  0  0
   -3.2153   -1.3856    3.9439 H   0  0  0  0  0  0  0  0  0  0  0  0
   -5.2534   -0.6177    1.1286 H   0  0  0  0  0  0  0  0  0  0  0  0
   -4.2650    0.1862   -2.9101 H   0  0  0  0  0  0  0  0  0  0  0  0
   -1.9529    0.0216   -2.4105 H   0  0  0  0  0  0  0  0  0  0  0  0
   -0.6282   -0.7209    1.1184 H   0  0  0  0  0  0  0  0  0  0  0  0
    1.2907    0.1671   -3.9020 H   0  0  0  0  0  0  0  0  0  0  0  0
    4.7878   -0.4556   -0.8296 H   0  0  0  0  0  0  0  0  0  0  0  0
    3.5708   -1.7875    1.3682 H   0  0  0  0  0  0  0  0  0  0  0  0
    3.5031   -0.0529    1.7152 H   0  0  0  0  0  0  0  0  0  0  0  0
    5.2058   -2.5934    2.7860 H   0  0  0  0  0  0  0  0  0  0  0  0
    7.6212   -2.7079    3.4788 H   0  0  0  0  0  0  0  0  0  0  0  0
    9.1972   -1.0395    2.6417 H   0  0  0  0  0  0  0  0  0  0  0  0
    8.0793    1.8751    0.5775 H   0  0  0  0  0  0  0  0  0  0  0  0
   10.1888    2.8721   -0.1879 H   0  0  0  0  0  0  0  0  0  0  0  0
   12.5072    0.9810    0.3077 H   0  0  0  0  0  0  0  0  0  0  0  0
   12.5621    2.6953   -0.4693 H   0  0  0  0  0  0  0  0  0  0  0  0
    6.0158    0.8042    0.4364 H   0  0  0  0  0  0  0  0  0  0  0  0
   -7.2724    0.1778    0.7226 H   0  0  0  0  0  0  0  0  0  0  0  0
   -7.1105   -1.5658    0.1153 H   0  0  0  0  0  0  0  0  0  0  0  0
   -8.7747   -1.1863   -1.5948 H   0  0  0  0  0  0  0  0  0  0  0  0
   -9.4365   -0.6764   -0.0023 H   0  0  0  0  0  0  0  0  0  0  0  0
   -9.0012    2.7719   -0.5022 H   0  0  0  0  0  0  0  0  0  0  0  0
  -10.5557    1.8033   -0.2394 H   0  0  0  0  0  0  0  0  0  0  0  0
   -9.0347    1.4627    0.6994 H   0  0  0  0  0  0  0  0  0  0  0  0
   -8.2661    1.8395   -3.0651 H   0  0  0  0  0  0  0  0  0  0  0  0
   -7.3906    2.2077   -1.5301 H   0  0  0  0  0  0  0  0  0  0  0  0
   -7.2911   -0.4498   -3.0409 H   0  0  0  0  0  0  0  0  0  0  0  0
   -6.0943    0.8809   -3.0366 H   0  0  0  0  0  0  0  0  0  0  0  0
  1  2  1  0
  2  3  1  0
  3  4  2  0
  4  5  1  0
  5  6  2  0
  6  7  1  0
  7  8  2  0
  8  9  1  0
  9 10  1  0
 10 11  2  0
 11 12  1  0
 12 13  2  0
 13 14  1  0
 13 15  1  0
 15 16  1  0
 16 17  1  0
 17 18  1  0
 18 19  2  0
 19 20  1  0
 20 21  2  0
 21 22  1  0
 22 23  1  0
 23 24  1  0
 24 25  2  0
 24 26  1  0
 26 27  2  3
 22 28  2  0
 15 29  2  0
  5 30  1  0
 30 31  1  0
 31 32  1  0
 32 33  1  0
 33 34  1  0
 33 35  1  0
 35 36  1  0
  8  3  1  0
 29 10  1  0
 36 30  1  0
 28 18  1  0
  1 37  1  0
  1 38  1  0
  1 39  1  0
  4 40  1  0
  6 41  1  0
  7 42  1  0
  9 43  1  0
 12 44  1  0
 16 45  1  0
 17 46  1  0
 17 47  1  0
 19 48  1  0
 20 49  1  0
 21 50  1  0
 23 51  1  0
 26 52  1  0
 27 53  1  0
 27 54  1  0
 28 55  1  0
 31 56  1  0
 31 57  1  0
 32 58  1  0
 32 59  1  0
 34 60  1  0
 34 61  1  0
 34 62  1  0
 35 63  1  0
 35 64  1  0
 36 65  1  0
 36 66  1  0
M  END
$$$$
[H]N=C(N([H])[H])N([H])C([H])([H])C([H])([H])C([H])([H])[C@@]([H])(C(=O)N([H])[C@]([H])(C(=O)N([H])[H])C([H])([H])c1c([H])c([H])c([H])c([H])c1[H])N([H])C(=O)[C@@]([H])(N([H])C(=O)[C@@]([H])(N([H])C(=O)[C@@]([H])(N([H])[H])C([H])([H])C([H])([H])C(=O)N([H])[H])C([H])([H])C([H])([H])C(=O)N([H])[H])C([H])([H])C([H])([H])C(=O)N([H])[H]
     RDKit          3D

 98 98  0  0  0  0  0  0  0  0999 V2000
   -4.3986   -4.7144   -4.6305 N   0  0  0  0  0  0  0  0  0  0  0  0
   -5.0986   -5.3607   -3.5638 C   0  0  0  0  0  0  0  0  0  0  0  0
   -6.0097   -6.2088   -3.8692 N   0  0  0  0  0  0  0  0  0  0  0  0
   -4.7830   -5.0640   -2.2144 N   0  0  0  0  0  0  0  0  0  0  0  0
   -4.5409   -3.7252   -1.7039 C   0  0  0  0  0  0  0  0  0  0  0  0
   -4.2347   -3.8536   -0.2500 C   0  0  0  0  0  0  0  0  0  0  0  0
   -3.9476   -2.5930    0.4791 C   0  0  0  0  0  0  0  0  0  0  0  0
   -2.7682   -1.8164   -0.0092 C   0  0  2  0  0  0  0  0  0  0  0  0
   -1.5448   -2.6115    0.0706 N   0  0  0  0  0  0  0  0  0  0  0  0
   -0.5260   -2.5108   -0.8884 C   0  0  0  0  0  0  0  0  0  0  0  0
   -0.6780   -1.6949   -1.8348 O   0  0  0  0  0  0  0  0  0  0  0  0
    0.6958   -3.3102   -0.8370 C   0  0  2  0  0  0  0  0  0  0  0  0
    0.8863   -3.9360    0.5024 C   0  0  0  0  0  0  0  0  0  0  0  0
    1.0558   -3.0426    1.6741 C   0  0  0  0  0  0  0  0  0  0  0  0
    1.1625   -3.9105    2.9029 C   0  0  0  0  0  0  0  0  0  0  0  0
    1.3084   -3.2713    4.1431 N   0  0  0  0  0  0  0  0  0  0  0  0
    1.1204   -5.1301    2.7908 O   0  0  0  0  0  0  0  0  0  0  0  0
    1.8516   -2.6675   -1.3917 N   0  0  0  0  0  0  0  0  0  0  0  0
    2.1716   -1.3349   -1.1008 C   0  0  0  0  0  0  0  0  0  0  0  0
    1.3897   -0.6935   -0.3156 O   0  0  0  0  0  0  0  0  0  0  0  0
    3.3649   -0.5935   -1.6294 C   0  0  2  0  0  0  0  0  0  0  0  0
    4.5376   -1.4187   -1.9272 C   0  0  0  0  0  0  0  0  0  0  0  0
    5.2260   -2.2223   -0.9296 C   0  0  0  0  0  0  0  0  0  0  0  0
    5.8930   -1.6279    0.2029 C   0  0  0  0  0  0  0  0  0  0  0  0
    6.4838   -2.5557    1.1545 N   0  0  0  0  0  0  0  0  0  0  0  0
    6.0472   -0.4297    0.4966 O   0  0  0  0  0  0  0  0  0  0  0  0
    3.5365    0.6484   -0.9456 N   0  0  0  0  0  0  0  0  0  0  0  0
    3.6877    1.9446   -1.4737 C   0  0  0  0  0  0  0  0  0  0  0  0
    3.6808    2.1021   -2.7160 O   0  0  0  0  0  0  0  0  0  0  0  0
    3.8574    3.1503   -0.6285 C   0  0  1  0  0  0  0  0  0  0  0  0
    3.7680    2.8415    0.7850 N   0  0  0  0  0  0  0  0  0  0  0  0
    5.1982    3.8289   -0.8050 C   0  0  0  0  0  0  0  0  0  0  0  0
    5.1794    5.0301    0.1528 C   0  0  0  0  0  0  0  0  0  0  0  0
    6.4701    5.7320    0.0350 C   0  0  0  0  0  0  0  0  0  0  0  0
    6.7045    6.8429    0.9149 N   0  0  0  0  0  0  0  0  0  0  0  0
    7.3632    5.4215   -0.7772 O   0  0  0  0  0  0  0  0  0  0  0  0
   -2.6103   -0.5110    0.6790 C   0  0  0  0  0  0  0  0  0  0  0  0
   -1.5699   -0.1390    1.2781 O   0  0  0  0  0  0  0  0  0  0  0  0
   -3.6978    0.3941    0.6676 N   0  0  0  0  0  0  0  0  0  0  0  0
   -3.6433    1.7240    1.3094 C   0  0  1  0  0  0  0  0  0  0  0  0
   -3.9361    2.7415    0.2690 C   0  0  0  0  0  0  0  0  0  0  0  0
   -3.9345    4.1419    0.6286 C   0  0  0  0  0  0  0  0  0  0  0  0
   -2.7568    4.9009    0.6399 C   0  0  0  0  0  0  0  0  0  0  0  0
   -2.7352    6.2324    0.9452 C   0  0  0  0  0  0  0  0  0  0  0  0
   -3.9084    6.8834    1.2604 C   0  0  0  0  0  0  0  0  0  0  0  0
   -5.0898    6.1677    1.2597 C   0  0  0  0  0  0  0  0  0  0  0  0
   -5.0887    4.8090    0.9444 C   0  0  0  0  0  0  0  0  0  0  0  0
   -4.6510    1.7442    2.3879 C   0  0  0  0  0  0  0  0  0  0  0  0
   -4.7730    2.8318    3.2836 N   0  0  0  0  0  0  0  0  0  0  0  0
   -5.4539    0.7672    2.5547 O   0  0  0  0  0  0  0  0  0  0  0  0
   -4.8484   -3.8773   -5.0458 H   0  0  0  0  0  0  0  0  0  0  0  0
   -3.4895   -5.1009   -4.9409 H   0  0  0  0  0  0  0  0  0  0  0  0
   -6.2574   -6.4431   -4.8409 H   0  0  0  0  0  0  0  0  0  0  0  0
   -4.7341   -5.9150   -1.5810 H   0  0  0  0  0  0  0  0  0  0  0  0
   -3.7526   -3.2652   -2.3165 H   0  0  0  0  0  0  0  0  0  0  0  0
   -5.4935   -3.1718   -1.8889 H   0  0  0  0  0  0  0  0  0  0  0  0
   -3.4616   -4.6396   -0.1061 H   0  0  0  0  0  0  0  0  0  0  0  0
   -5.1537   -4.3032    0.2338 H   0  0  0  0  0  0  0  0  0  0  0  0
   -4.8871   -1.9638    0.4053 H   0  0  0  0  0  0  0  0  0  0  0  0
   -3.8864   -2.8302    1.5669 H   0  0  0  0  0  0  0  0  0  0  0  0
   -2.9043   -1.5652   -1.0754 H   0  0  0  0  0  0  0  0  0  0  0  0
   -1.5327   -3.2522    0.8930 H   0  0  0  0  0  0  0  0  0  0  0  0
    0.4566   -4.2364   -1.5237 H   0  0  0  0  0  0  0  0  0  0  0  0
    1.7367   -4.6661    0.4026 H   0  0  0  0  0  0  0  0  0  0  0  0
    0.0123   -4.6039    0.7342 H   0  0  0  0  0  0  0  0  0  0  0  0
    0.3136   -2.2576    1.8288 H   0  0  0  0  0  0  0  0  0  0  0  0
    2.0520   -2.4907    1.6382 H   0  0  0  0  0  0  0  0  0  0  0  0
    0.5287   -2.9416    4.7385 H   0  0  0  0  0  0  0  0  0  0  0  0
    2.3158   -3.1305    4.4619 H   0  0  0  0  0  0  0  0  0  0  0  0
    2.4703   -3.2090   -2.0318 H   0  0  0  0  0  0  0  0  0  0  0  0
    3.0061   -0.2666   -2.6827 H   0  0  0  0  0  0  0  0  0  0  0  0
    5.3067   -0.7365   -2.4061 H   0  0  0  0  0  0  0  0  0  0  0  0
    4.2495   -2.1062   -2.7738 H   0  0  0  0  0  0  0  0  0  0  0  0
    4.6044   -3.0852   -0.5317 H   0  0  0  0  0  0  0  0  0  0  0  0
    6.0392   -2.8012   -1.4917 H   0  0  0  0  0  0  0  0  0  0  0  0
    5.8842   -3.2902    1.5855 H   0  0  0  0  0  0  0  0  0  0  0  0
    7.4760   -2.5281    1.4300 H   0  0  0  0  0  0  0  0  0  0  0  0
    3.5219    0.5971    0.1217 H   0  0  0  0  0  0  0  0  0  0  0  0
    3.0741    3.8931   -0.8618 H   0  0  0  0  0  0  0  0  0  0  0  0
    2.8563    2.4172    1.0578 H   0  0  0  0  0  0  0  0  0  0  0  0
    4.5722    2.1743    0.9889 H   0  0  0  0  0  0  0  0  0  0  0  0
    5.3701    4.1580   -1.8411 H   0  0  0  0  0  0  0  0  0  0  0  0
    5.9806    3.1512   -0.4145 H   0  0  0  0  0  0  0  0  0  0  0  0
    5.0828    4.6514    1.2025 H   0  0  0  0  0  0  0  0  0  0  0  0
    4.3087    5.6340   -0.1104 H   0  0  0  0  0  0  0  0  0  0  0  0
    7.1024    6.6876    1.8576 H   0  0  0  0  0  0  0  0  0  0  0  0
    6.4741    7.7943    0.6039 H   0  0  0  0  0  0  0  0  0  0  0  0
   -4.5791    0.1203    0.1882 H   0  0  0  0  0  0  0  0  0  0  0  0
   -2.6290    1.8172    1.7337 H   0  0  0  0  0  0  0  0  0  0  0  0
   -3.1672    2.6040   -0.5553 H   0  0  0  0  0  0  0  0  0  0  0  0
   -4.9099    2.4728   -0.2374 H   0  0  0  0  0  0  0  0  0  0  0  0
   -1.8654    4.3566    0.3884 H   0  0  0  0  0  0  0  0  0  0  0  0
   -1.8014    6.8074    0.9492 H   0  0  0  0  0  0  0  0  0  0  0  0
   -3.9514    7.9289    1.5105 H   0  0  0  0  0  0  0  0  0  0  0  0
   -6.0104    6.6759    1.5072 H   0  0  0  0  0  0  0  0  0  0  0  0
   -6.0436    4.3064    0.9561 H   0  0  0  0  0  0  0  0  0  0  0  0
   -5.7359    3.1522    3.5584 H   0  0  0  0  0  0  0  0  0  0  0  0
   -3.9622    3.3449    3.6961 H   0  0  0  0  0  0  0  0  0  0  0  0
  1  2  1  0
  2  3  2  3
  2  4  1  0
  4  5  1  0
  5  6  1  0
  6  7  1  0
  7  8  1  0
  8  9  1  0
  9 10  1  0
 10 11  2  0
 10 12  1  0
 12 13  1  0
 13 14  1  0
 14 15  1  0
 15 16  1  0
 15 17  2  0
 12 18  1  0
 18 19  1  0
 19 20  2  0
 19 21  1  0
 21 22  1  0
 22 23  1  0
 23 24  1  0
 24 25  1  0
 24 26  2  0
 21 27  1  0
 27 28  1  0
 28 29  2  0
 28 30  1  0
 30 31  1  0
 30 32  1  0
 32 33  1  0
 33 34  1  0
 34 35  1  0
 34 36  2  0
  8 37  1  0
 37 38  2  0
 37 39  1  0
 39 40  1  0
 40 41  1  0
 41 42  1  0
 42 43  2  0
 43 44  1  0
 44 45  2  0
 45 46  1  0
 46 47  2  0
 40 48  1  0
 48 49  1  0
 48 50  2  0
 47 42  1  0
  1 51  1  0
  1 52  1  0
  3 53  1  0
  4 54  1  0
  5 55  1  0
  5 56  1  0
  6 57  1  0
  6 58  1  0
  7 59  1  0
  7 60  1  0
  8 61  1  6
  9 62  1  0
 12 63  1  6
 13 64  1  0
 13 65  1  0
 14 66  1  0
 14 67  1  0
 16 68  1  0
 16 69  1  0
 18 70  1  0
 21 71  1  6
 22 72  1  0
 22 73  1  0
 23 74  1  0
 23 75  1  0
 25 76  1  0
 25 77  1  0
 27 78  1  0
 30 79  1  6
 31 80  1  0
 31 81  1  0
 32 82  1  0
 32 83  1  0
 33 84  1  0
 33 85  1  0
 35 86  1  0
 35 87  1  0
 39 88  1  0
 40 89  1  1
 41 90  1  0
 41 91  1  0
 43 92  1  0
 44 93  1  0
 45 94  1  0
 46 95  1  0
 47 96  1  0
 49 97  1  0
 49 98  1  0
M  END
$$$$
[H]OC(=O)[C@@]([H])(OC([H])([H])c1c([H])c([H])c([H])c(N([H])C(=O)N([H])[H])c1[H])[C@@]([H])(C(=O)O[H])N([H])[H]
     RDKit          3D

 36 36  0  0  0  0  0  0  0  0999 V2000
   -2.3435    0.8969   -2.0198 N   0  0  0  0  0  0  0  0  0  0  0  0
   -2.3343    0.2661   -0.7163 C   0  0  1  0  0  0  0  0  0  0  0  0
   -1.7487    1.1891    0.3408 C   0  0  2  0  0  0  0  0  0  0  0  0
   -1.7604    0.5582    1.5552 O   0  0  0  0  0  0  0  0  0  0  0  0
   -0.5719    0.3450    2.1784 C   0  0  0  0  0  0  0  0  0  0  0  0
    0.3521   -0.5190    1.4106 C   0  0  0  0  0  0  0  0  0  0  0  0
    0.1599   -1.8693    1.4041 C   0  0  0  0  0  0  0  0  0  0  0  0
    1.0259   -2.6505    0.7029 C   0  0  0  0  0  0  0  0  0  0  0  0
    2.0921   -2.0720    0.0034 C   0  0  0  0  0  0  0  0  0  0  0  0
    2.2997   -0.7265   -0.0017 C   0  0  0  0  0  0  0  0  0  0  0  0
    3.3437   -0.0877   -0.6790 N   0  0  0  0  0  0  0  0  0  0  0  0
    4.3644   -0.6341   -1.4651 C   0  0  0  0  0  0  0  0  0  0  0  0
    5.3717    0.1870   -2.0969 N   0  0  0  0  0  0  0  0  0  0  0  0
    4.4666   -1.8526   -1.6670 O   0  0  0  0  0  0  0  0  0  0  0  0
    1.3907    0.0375    0.7285 C   0  0  0  0  0  0  0  0  0  0  0  0
   -2.4976    2.4831    0.3750 C   0  0  0  0  0  0  0  0  0  0  0  0
   -3.1199    2.9561    1.5218 O   0  0  0  0  0  0  0  0  0  0  0  0
   -2.5846    3.1921   -0.6585 O   0  0  0  0  0  0  0  0  0  0  0  0
   -3.6803   -0.1339   -0.2830 C   0  0  0  0  0  0  0  0  0  0  0  0
   -3.8751   -0.7529    0.9368 O   0  0  0  0  0  0  0  0  0  0  0  0
   -4.6861    0.0830   -1.0230 O   0  0  0  0  0  0  0  0  0  0  0  0
   -3.2469    1.3927   -2.2055 H   0  0  0  0  0  0  0  0  0  0  0  0
   -2.2705    0.1367   -2.7380 H   0  0  0  0  0  0  0  0  0  0  0  0
   -1.6913   -0.6300   -0.7965 H   0  0  0  0  0  0  0  0  0  0  0  0
   -0.7286    1.4350    0.0460 H   0  0  0  0  0  0  0  0  0  0  0  0
   -0.0388    1.3115    2.4299 H   0  0  0  0  0  0  0  0  0  0  0  0
   -0.7785   -0.2123    3.1355 H   0  0  0  0  0  0  0  0  0  0  0  0
   -0.6592   -2.3259    1.9403 H   0  0  0  0  0  0  0  0  0  0  0  0
    0.8882   -3.7386    0.6854 H   0  0  0  0  0  0  0  0  0  0  0  0
    2.7162   -2.7716   -0.5167 H   0  0  0  0  0  0  0  0  0  0  0  0
    3.3913    0.9883   -0.5990 H   0  0  0  0  0  0  0  0  0  0  0  0
    5.0828    0.9795   -2.7065 H   0  0  0  0  0  0  0  0  0  0  0  0
    6.3932    0.0296   -1.9758 H   0  0  0  0  0  0  0  0  0  0  0  0
    1.5437    1.1253    0.7361 H   0  0  0  0  0  0  0  0  0  0  0  0
   -2.6513    3.1134    2.3919 H   0  0  0  0  0  0  0  0  0  0  0  0
   -3.6149   -1.7291    1.0252 H   0  0  0  0  0  0  0  0  0  0  0  0
  1  2  1  0
  2  3  1  0
  3  4  1  0
  4  5  1  0
  5  6  1  0
  6  7  2  0
  7  8  1  0
  8  9  2  0
  9 10  1  0
 10 11  1  0
 11 12  1  0
 12 13  1  0
 12 14  2  0
 10 15  2  0
  3 16  1  0
 16 17  1  0
 16 18  2  0
  2 19  1  0
 19 20  1  0
 19 21  2  0
 15  6  1  0
  1 22  1  0
  1 23  1  0
  2 24  1  6
  3 25  1  6
  5 26  1  0
  5 27  1  0
  7 28  1  0
  8 29  1  0
  9 30  1  0
 11 31  1  0
 13 32  1  0
 13 33  1  0
 15 34  1  0
 17 35  1  0
 20 36  1  0
M  END
$$$$
[H]Oc1c([H])c([H])c2c(c1[H])c(C([H])([H])C([H])([H])N([H])[H])c([H])n2[H]
     RDKit          3D

 25 26  0  0  0  0  0  0  0  0999 V2000
    3.4436   -1.0559    1.3148 N   0  0  0  0  0  0  0  0  0  0  0  0
    2.4315   -0.2897    0.6492 C   0  0  0  0  0  0  0  0  0  0  0  0
    1.7273   -1.1248   -0.4244 C   0  0  0  0  0  0  0  0  0  0  0  0
    0.6971   -0.2570   -1.0378 C   0  0  0  0  0  0  0  0  0  0  0  0
    0.6733    0.4405   -2.2195 C   0  0  0  0  0  0  0  0  0  0  0  0
   -0.4908    1.0999   -2.3455 N   0  0  0  0  0  0  0  0  0  0  0  0
   -1.2394    0.8533   -1.2718 C   0  0  0  0  0  0  0  0  0  0  0  0
   -2.5065    1.2424   -0.8496 C   0  0  0  0  0  0  0  0  0  0  0  0
   -3.0587    0.8260    0.3397 C   0  0  0  0  0  0  0  0  0  0  0  0
   -2.3431   -0.0134    1.1636 C   0  0  0  0  0  0  0  0  0  0  0  0
   -2.8590   -0.4701    2.3889 O   0  0  0  0  0  0  0  0  0  0  0  0
   -1.0828   -0.4133    0.7674 C   0  0  0  0  0  0  0  0  0  0  0  0
   -0.5340    0.0123   -0.4347 C   0  0  0  0  0  0  0  0  0  0  0  0
    3.1868   -1.2759    2.3054 H   0  0  0  0  0  0  0  0  0  0  0  0
    4.3951   -0.6648    1.1907 H   0  0  0  0  0  0  0  0  0  0  0  0
    1.6447    0.0866    1.3217 H   0  0  0  0  0  0  0  0  0  0  0  0
    2.8571    0.5939    0.0945 H   0  0  0  0  0  0  0  0  0  0  0  0
    2.4580   -1.5119   -1.1647 H   0  0  0  0  0  0  0  0  0  0  0  0
    1.2633   -2.0142    0.0784 H   0  0  0  0  0  0  0  0  0  0  0  0
    1.4991    0.4394   -2.9339 H   0  0  0  0  0  0  0  0  0  0  0  0
   -0.7546    1.6977   -3.1459 H   0  0  0  0  0  0  0  0  0  0  0  0
   -3.0777    1.9042   -1.4904 H   0  0  0  0  0  0  0  0  0  0  0  0
   -4.0435    1.1221    0.6739 H   0  0  0  0  0  0  0  0  0  0  0  0
   -3.7855   -0.1488    2.6285 H   0  0  0  0  0  0  0  0  0  0  0  0
   -0.5012   -1.0786    1.4023 H   0  0  0  0  0  0  0  0  0  0  0  0
  1  2  1  0
  2  3  1  0
  3  4  1  0
  4  5  2  0
  5  6  1  0
  6  7  1  0
  7  8  2  0
  8  9  1  0
  9 10  2  0
 10 11  1  0
 10 12  1  0
 12 13  2  0
 13  4  1  0
 13  7  1  0
  1 14  1  0
  1 15  1  0
  2 16  1  0
  2 17  1  0
  3 18  1  0
  3 19  1  0
  5 20  1  0
  6 21  1  0
  8 22  1  0
  9 23  1  0
 11 24  1  0
 12 25  1  0
M  END
$$$$
[H]/C(=C(/C([H])([H])[H])C([H])([H])N1C([H])([H])C([H])([H])N(C([H])([H])C2([H])ON=C3c4c([H])c(OC([H])([H])[H])c(OC([H])([H])[H])c([H])c4OC([H])([H])C32[H])C([H])([H])C1([H])[H])c1c([H])c([H])c([H])c([H])c1[H]
     RDKit          3D

 67 71  0  0  0  0  0  0  0  0999 V2000
    8.7298   -2.5904   -1.0764 C   0  0  0  0  0  0  0  0  0  0  0  0
    8.6171   -1.2236   -0.8032 O   0  0  0  0  0  0  0  0  0  0  0  0
    7.4225   -0.6263   -0.4136 C   0  0  0  0  0  0  0  0  0  0  0  0
    6.2594   -1.3559   -0.2771 C   0  0  0  0  0  0  0  0  0  0  0  0
    5.0588   -0.7403    0.1180 C   0  0  0  0  0  0  0  0  0  0  0  0
    3.9046   -1.4896    0.2493 O   0  0  0  0  0  0  0  0  0  0  0  0
    2.6333   -0.8110    0.1380 C   0  0  0  0  0  0  0  0  0  0  0  0
    2.6844    0.3360    1.0658 C   0  0  0  0  0  0  0  0  0  0  0  0
    1.5281    1.1975    1.2701 C   0  0  0  0  0  0  0  0  0  0  0  0
    0.5222    1.3807    0.2018 C   0  0  0  0  0  0  0  0  0  0  0  0
   -0.3056    0.2199   -0.1141 N   0  0  0  0  0  0  0  0  0  0  0  0
   -1.2990    0.5512   -1.0746 C   0  0  0  0  0  0  0  0  0  0  0  0
   -2.4126   -0.4073   -1.1845 C   0  0  0  0  0  0  0  0  0  0  0  0
   -2.7146   -1.2712   -0.1101 N   0  0  0  0  0  0  0  0  0  0  0  0
   -3.7225   -0.8931    0.8081 C   0  0  0  0  0  0  0  0  0  0  0  0
   -5.0993   -0.8518    0.2328 C   0  0  0  0  0  0  0  0  0  0  0  0
   -5.6194   -2.0960   -0.3549 C   0  0  0  0  0  0  0  0  0  0  0  0
   -5.7870    0.2495    0.2730 C   0  0  0  0  0  0  0  0  0  0  0  0
   -7.1157    0.4331   -0.2386 C   0  0  0  0  0  0  0  0  0  0  0  0
   -7.5391   -0.0126   -1.4757 C   0  0  0  0  0  0  0  0  0  0  0  0
   -8.8559    0.2190   -1.8561 C   0  0  0  0  0  0  0  0  0  0  0  0
   -9.7486    0.8755   -1.0434 C   0  0  0  0  0  0  0  0  0  0  0  0
   -9.3188    1.3146    0.1844 C   0  0  0  0  0  0  0  0  0  0  0  0
   -8.0394    1.1025    0.5812 C   0  0  0  0  0  0  0  0  0  0  0  0
   -1.5067   -1.6889    0.6097 C   0  0  0  0  0  0  0  0  0  0  0  0
   -0.8461   -0.3978    1.0383 C   0  0  0  0  0  0  0  0  0  0  0  0
    2.1515    2.4879    1.4485 O   0  0  0  0  0  0  0  0  0  0  0  0
    3.4436    2.4328    1.0382 N   0  0  0  0  0  0  0  0  0  0  0  0
    3.8246    1.2507    0.8022 C   0  0  0  0  0  0  0  0  0  0  0  0
    5.0778    0.6138    0.3661 C   0  0  0  0  0  0  0  0  0  0  0  0
    6.2157    1.3681    0.2397 C   0  0  0  0  0  0  0  0  0  0  0  0
    7.3836    0.7235   -0.1538 C   0  0  0  0  0  0  0  0  0  0  0  0
    8.5484    1.4433   -0.2924 O   0  0  0  0  0  0  0  0  0  0  0  0
    8.6606    2.8248   -0.0644 C   0  0  0  0  0  0  0  0  0  0  0  0
    8.1497   -3.2192   -0.3408 H   0  0  0  0  0  0  0  0  0  0  0  0
    9.8147   -2.8676   -0.9449 H   0  0  0  0  0  0  0  0  0  0  0  0
    8.4536   -2.8731   -2.0987 H   0  0  0  0  0  0  0  0  0  0  0  0
    6.2697   -2.4235   -0.4745 H   0  0  0  0  0  0  0  0  0  0  0  0
    2.4836   -0.6074   -0.9144 H   0  0  0  0  0  0  0  0  0  0  0  0
    1.9071   -1.5632    0.4950 H   0  0  0  0  0  0  0  0  0  0  0  0
    2.9301   -0.1243    2.0894 H   0  0  0  0  0  0  0  0  0  0  0  0
    1.0336    1.0451    2.2863 H   0  0  0  0  0  0  0  0  0  0  0  0
    0.9598    1.7007   -0.7749 H   0  0  0  0  0  0  0  0  0  0  0  0
   -0.2010    2.1907    0.4610 H   0  0  0  0  0  0  0  0  0  0  0  0
   -1.7282    1.5868   -0.8423 H   0  0  0  0  0  0  0  0  0  0  0  0
   -0.7901    0.6291   -2.0816 H   0  0  0  0  0  0  0  0  0  0  0  0
   -3.3756    0.1857   -1.3777 H   0  0  0  0  0  0  0  0  0  0  0  0
   -2.2795   -1.0517   -2.1034 H   0  0  0  0  0  0  0  0  0  0  0  0
   -3.7333   -1.6716    1.6254 H   0  0  0  0  0  0  0  0  0  0  0  0
   -3.4961    0.1049    1.2596 H   0  0  0  0  0  0  0  0  0  0  0  0
   -5.3128   -2.1458   -1.4179 H   0  0  0  0  0  0  0  0  0  0  0  0
   -6.7144   -2.2023   -0.2802 H   0  0  0  0  0  0  0  0  0  0  0  0
   -5.1176   -2.9839    0.1133 H   0  0  0  0  0  0  0  0  0  0  0  0
   -5.3054    1.1189    0.7456 H   0  0  0  0  0  0  0  0  0  0  0  0
   -6.8655   -0.5287   -2.1492 H   0  0  0  0  0  0  0  0  0  0  0  0
   -9.1912   -0.1333   -2.8377 H   0  0  0  0  0  0  0  0  0  0  0  0
  -10.7878    1.0705   -1.3185 H   0  0  0  0  0  0  0  0  0  0  0  0
  -10.0171    1.8396    0.8452 H   0  0  0  0  0  0  0  0  0  0  0  0
   -7.7057    1.4468    1.5394 H   0  0  0  0  0  0  0  0  0  0  0  0
   -0.8978   -2.2423   -0.1324 H   0  0  0  0  0  0  0  0  0  0  0  0
   -1.8411   -2.3028    1.4425 H   0  0  0  0  0  0  0  0  0  0  0  0
   -0.0640   -0.7254    1.7750 H   0  0  0  0  0  0  0  0  0  0  0  0
   -1.5940    0.2440    1.5320 H   0  0  0  0  0  0  0  0  0  0  0  0
    6.1777    2.4218    0.4454 H   0  0  0  0  0  0  0  0  0  0  0  0
    9.7369    3.1063   -0.1136 H   0  0  0  0  0  0  0  0  0  0  0  0
    8.0724    3.3726   -0.8311 H   0  0  0  0  0  0  0  0  0  0  0  0
    8.2938    3.0340    0.9579 H   0  0  0  0  0  0  0  0  0  0  0  0
  1  2  1  0
  2  3  1  0
  3  4  2  0
  4  5  1  0
  5  6  1  0
  6  7  1  0
  7  8  1  0
  8  9  1  0
  9 10  1  0
 10 11  1  0
 11 12  1  0
 12 13  1  0
 13 14  1  0
 14 15  1  0
 15 16  1  0
 16 17  1  0
 16 18  2  0
 18 19  1  0
 19 20  2  0
 20 21  1  0
 21 22  2  0
 22 23  1  0
 23 24  2  0
 14 25  1  0
 25 26  1  0
  9 27  1  0
 27 28  1  0
 28 29  2  0
 29 30  1  0
 30 31  1  0
 31 32  2  0
 32 33  1  0
 33 34  1  0
 32  3  1  0
 30  5  2  0
 29  8  1  0
 26 11  1  0
 24 19  1  0
  1 35  1  0
  1 36  1  0
  1 37  1  0
  4 38  1  0
  7 39  1  0
  7 40  1  0
  8 41  1  0
  9 42  1  0
 10 43  1  0
 10 44  1  0
 12 45  1  0
 12 46  1  0
 13 47  1  0
 13 48  1  0
 15 49  1  0
 15 50  1  0
 17 51  1  0
 17 52  1  0
 17 53  1  0
 18 54  1  0
 20 55  1  0
 21 56  1  0
 22 57  1  0
 23 58  1  0
 24 59  1  0
 25 60  1  0
 25 61  1  0
 26 62  1  0
 26 63  1  0
 31 64  1  0
 34 65  1  0
 34 66  1  0
 34 67  1  0
M  END
$$$$
[H]c1c([H])c([H])c(C2(C(=O)N([H])[H])C([H])([H])C([H])([H])N(C([H])([H])C([H])([H])C3(c4c([H])c([H])c(F)c([H])c4[H])C([H])([H])N(C(=O)c4c([H])c(OC([H])([H])[H])c(OC([H])([H])[H])c(OC([H])([H])[H])c4[H])C([H])([H])C3([H])[H])C([H])([H])C2([H])[H])c([H])c1[H]
     RDKit          3D

 83 87  0  0  0  0  0  0  0  0999 V2000
    5.6458    3.8959   -1.1300 C   0  0  0  0  0  0  0  0  0  0  0  0
    6.5989    2.8833   -0.9816 O   0  0  0  0  0  0  0  0  0  0  0  0
    6.3470    1.6262   -0.4370 C   0  0  0  0  0  0  0  0  0  0  0  0
    5.0928    1.2760    0.0099 C   0  0  0  0  0  0  0  0  0  0  0  0
    4.8204    0.0529    0.5465 C   0  0  0  0  0  0  0  0  0  0  0  0
    5.9286   -0.8244    0.6103 C   0  0  0  0  0  0  0  0  0  0  0  0
    7.1790   -0.4917    0.1706 C   0  0  0  0  0  0  0  0  0  0  0  0
    8.2598   -1.3686    0.2358 O   0  0  0  0  0  0  0  0  0  0  0  0
    8.0571   -2.6581    0.7688 C   0  0  0  0  0  0  0  0  0  0  0  0
    7.4144    0.7629   -0.3710 C   0  0  0  0  0  0  0  0  0  0  0  0
    8.6640    1.1404   -0.8297 O   0  0  0  0  0  0  0  0  0  0  0  0
    9.6356    1.7638   -0.0336 C   0  0  0  0  0  0  0  0  0  0  0  0
    3.5225   -0.4387    0.9562 C   0  0  0  0  0  0  0  0  0  0  0  0
    3.5258   -1.4686    1.7194 O   0  0  0  0  0  0  0  0  0  0  0  0
    2.2816    0.0966    0.5969 N   0  0  0  0  0  0  0  0  0  0  0  0
    1.9049    1.1780   -0.2729 C   0  0  0  0  0  0  0  0  0  0  0  0
    0.4951    0.8576   -0.7880 C   0  0  0  0  0  0  0  0  0  0  0  0
    0.2204   -0.4961   -0.1722 C   0  0  0  0  0  0  0  0  0  0  0  0
   -1.2507   -0.7602   -0.0642 C   0  0  0  0  0  0  0  0  0  0  0  0
   -2.0068    0.2063    0.7673 C   0  0  0  0  0  0  0  0  0  0  0  0
   -3.4135   -0.1228    0.7333 N   0  0  0  0  0  0  0  0  0  0  0  0
   -4.0284    0.1645   -0.5424 C   0  0  0  0  0  0  0  0  0  0  0  0
   -5.3405   -0.5665   -0.5922 C   0  0  0  0  0  0  0  0  0  0  0  0
   -6.2571   -0.2494    0.5759 C   0  0  0  0  0  0  0  0  0  0  0  0
   -5.5357   -0.1192    1.8627 C   0  0  0  0  0  0  0  0  0  0  0  0
   -4.1815    0.5205    1.7564 C   0  0  0  0  0  0  0  0  0  0  0  0
   -7.1763   -1.4180    0.6546 C   0  0  0  0  0  0  0  0  0  0  0  0
   -6.6873   -2.6963    1.0211 N   0  0  0  0  0  0  0  0  0  0  0  0
   -8.3989   -1.3330    0.4083 O   0  0  0  0  0  0  0  0  0  0  0  0
   -7.0594    0.9194    0.1654 C   0  0  0  0  0  0  0  0  0  0  0  0
   -7.8542    0.8449   -0.9574 C   0  0  0  0  0  0  0  0  0  0  0  0
   -8.6449    1.8966   -1.3896 C   0  0  0  0  0  0  0  0  0  0  0  0
   -8.6444    3.0657   -0.6769 C   0  0  0  0  0  0  0  0  0  0  0  0
   -7.8710    3.1935    0.4492 C   0  0  0  0  0  0  0  0  0  0  0  0
   -7.0839    2.1071    0.8558 C   0  0  0  0  0  0  0  0  0  0  0  0
    0.9676   -0.3757    1.1209 C   0  0  0  0  0  0  0  0  0  0  0  0
    0.8412   -1.6148   -0.9092 C   0  0  0  0  0  0  0  0  0  0  0  0
    0.6770   -2.8889   -0.3911 C   0  0  0  0  0  0  0  0  0  0  0  0
    1.2398   -3.9893   -1.0119 C   0  0  0  0  0  0  0  0  0  0  0  0
    1.9937   -3.8432   -2.1844 C   0  0  0  0  0  0  0  0  0  0  0  0
    2.5600   -4.9026   -2.8157 F   0  0  0  0  0  0  0  0  0  0  0  0
    2.1562   -2.5876   -2.6970 C   0  0  0  0  0  0  0  0  0  0  0  0
    1.5838   -1.5061   -2.0590 C   0  0  0  0  0  0  0  0  0  0  0  0
    5.0073    3.7571   -2.0465 H   0  0  0  0  0  0  0  0  0  0  0  0
    6.1532    4.8889   -1.2592 H   0  0  0  0  0  0  0  0  0  0  0  0
    4.9712    3.9490   -0.2570 H   0  0  0  0  0  0  0  0  0  0  0  0
    4.3216    2.0174   -0.0369 H   0  0  0  0  0  0  0  0  0  0  0  0
    5.7804   -1.8175    1.0291 H   0  0  0  0  0  0  0  0  0  0  0  0
    8.9832   -3.2910    0.6312 H   0  0  0  0  0  0  0  0  0  0  0  0
    7.8055   -2.5555    1.8420 H   0  0  0  0  0  0  0  0  0  0  0  0
    7.2184   -3.1159    0.2126 H   0  0  0  0  0  0  0  0  0  0  0  0
   10.6459    1.4294   -0.3396 H   0  0  0  0  0  0  0  0  0  0  0  0
    9.5580    2.8558   -0.1998 H   0  0  0  0  0  0  0  0  0  0  0  0
    9.5352    1.5202    1.0390 H   0  0  0  0  0  0  0  0  0  0  0  0
    2.5792    1.2908   -1.1613 H   0  0  0  0  0  0  0  0  0  0  0  0
    1.9518    2.1206    0.2896 H   0  0  0  0  0  0  0  0  0  0  0  0
    0.4250    0.8819   -1.8823 H   0  0  0  0  0  0  0  0  0  0  0  0
   -0.1463    1.6392   -0.3936 H   0  0  0  0  0  0  0  0  0  0  0  0
   -1.6326   -0.9116   -1.0686 H   0  0  0  0  0  0  0  0  0  0  0  0
   -1.3624   -1.7614    0.4489 H   0  0  0  0  0  0  0  0  0  0  0  0
   -1.6920    0.1507    1.8289 H   0  0  0  0  0  0  0  0  0  0  0  0
   -1.9441    1.2649    0.4455 H   0  0  0  0  0  0  0  0  0  0  0  0
   -4.2128    1.2711   -0.6357 H   0  0  0  0  0  0  0  0  0  0  0  0
   -3.4032   -0.1806   -1.3739 H   0  0  0  0  0  0  0  0  0  0  0  0
   -5.1257   -1.6495   -0.5651 H   0  0  0  0  0  0  0  0  0  0  0  0
   -5.9016   -0.3627   -1.5247 H   0  0  0  0  0  0  0  0  0  0  0  0
   -5.3543   -1.1302    2.3223 H   0  0  0  0  0  0  0  0  0  0  0  0
   -6.1356    0.4254    2.6025 H   0  0  0  0  0  0  0  0  0  0  0  0
   -4.1901    1.6187    1.6236 H   0  0  0  0  0  0  0  0  0  0  0  0
   -3.6546    0.3466    2.7320 H   0  0  0  0  0  0  0  0  0  0  0  0
   -6.6140   -3.4935    0.3369 H   0  0  0  0  0  0  0  0  0  0  0  0
   -6.3906   -2.8674    1.9870 H   0  0  0  0  0  0  0  0  0  0  0  0
   -7.9133   -0.0481   -1.5903 H   0  0  0  0  0  0  0  0  0  0  0  0
   -9.2565    1.7989   -2.2824 H   0  0  0  0  0  0  0  0  0  0  0  0
   -9.2574    3.9195   -0.9977 H   0  0  0  0  0  0  0  0  0  0  0  0
   -7.8477    4.1146    1.0419 H   0  0  0  0  0  0  0  0  0  0  0  0
   -6.4801    2.1964    1.7389 H   0  0  0  0  0  0  0  0  0  0  0  0
    1.1206   -1.3499    1.6007 H   0  0  0  0  0  0  0  0  0  0  0  0
    0.5810    0.4019    1.7854 H   0  0  0  0  0  0  0  0  0  0  0  0
    0.1216   -3.1015    0.5069 H   0  0  0  0  0  0  0  0  0  0  0  0
    1.1191   -4.9797   -0.6171 H   0  0  0  0  0  0  0  0  0  0  0  0
    2.7295   -2.4329   -3.5939 H   0  0  0  0  0  0  0  0  0  0  0  0
    1.7291   -0.5428   -2.4853 H   0  0  0  0  0  0  0  0  0  0  0  0
  1  2  1  0
  2  3  1  0
  3  4  2  0
  4  5  1  0
  5  6  2  0
  6  7  1  0
  7  8  1  0
  8  9  1  0
  7 10  2  0
 10 11  1  0
 11 12  1  0
  5 13  1  0
 13 14  2  0
 13 15  1  0
 15 16  1  0
 16 17  1  0
 17 18  1  0
 18 19  1  0
 19 20  1  0
 20 21  1  0
 21 22  1  0
 22 23  1  0
 23 24  1  0
 24 25  1  0
 25 26  1  0
 24 27  1  0
 27 28  1  0
 27 29  2  0
 24 30  1  0
 30 31  2  0
 31 32  1  0
 32 33  2  0
 33 34  1  0
 34 35  2  0
 18 36  1  0
 18 37  1  0
 37 38  2  0
 38 39  1  0
 39 40  2  0
 40 41  1  0
 40 42  1  0
 42 43  2  0
 10  3  1  0
 36 15  1  0
 43 37  1  0
 26 21  1  0
 35 30  1  0
  1 44  1  0
  1 45  1  0
  1 46  1  0
  4 47  1  0
  6 48  1  0
  9 49  1  0
  9 50  1  0
  9 51  1  0
 12 52  1  0
 12 53  1  0
 12 54  1  0
 16 55  1  0
 16 56  1  0
 17 57  1  0
 17 58  1  0
 19 59  1  0
 19 60  1  0
 20 61  1  0
 20 62  1  0
 22 63  1  0
 22 64  1  0
 23 65  1  0
 23 66  1  0
 25 67  1  0
 25 68  1  0
 26 69  1  0
 26 70  1  0
 28 71  1  0
 28 72  1  0
 31 73  1  0
 32 74  1  0
 33 75  1  0
 34 76  1  0
 35 77  1  0
 36 78  1  0
 36 79  1  0
 38 80  1  0
 39 81  1  0
 42 82  1  0
 43 83  1  0
M  END
$$$$
[H]c1c([H])c([C@]([H])(c2c([H])c([H])c(C(F)(F)F)c([H])c2[H])N([H])C(=O)c2c([H])c([H])c(=O)n([H])c2[H])c([H])c([H])c1C#N
     RDKit          3D

 43 45  0  0  0  0  0  0  0  0999 V2000
    4.7228   -4.0317   -0.2404 F   0  0  0  0  0  0  0  0  0  0  0  0
    5.0002   -2.7322    0.0581 C   0  0  0  0  0  0  0  0  0  0  0  0
    5.7247   -2.1438   -0.9558 F   0  0  0  0  0  0  0  0  0  0  0  0
    5.7699   -2.7095    1.2006 F   0  0  0  0  0  0  0  0  0  0  0  0
    3.7640   -1.9008    0.2407 C   0  0  0  0  0  0  0  0  0  0  0  0
    3.5022   -1.2739    1.4276 C   0  0  0  0  0  0  0  0  0  0  0  0
    2.3827   -0.5094    1.6225 C   0  0  0  0  0  0  0  0  0  0  0  0
    1.4784   -0.3542    0.6031 C   0  0  0  0  0  0  0  0  0  0  0  0
    1.7194   -0.9743   -0.5995 C   0  0  0  0  0  0  0  0  0  0  0  0
    2.8571   -1.7508   -0.7971 C   0  0  0  0  0  0  0  0  0  0  0  0
    0.2686    0.4609    0.8359 C   0  0  2  0  0  0  0  0  0  0  0  0
   -0.9046   -0.1488    0.2144 N   0  0  0  0  0  0  0  0  0  0  0  0
   -2.0473   -0.5811    0.9271 C   0  0  0  0  0  0  0  0  0  0  0  0
   -2.0652   -0.4354    2.1828 O   0  0  0  0  0  0  0  0  0  0  0  0
   -3.1815   -1.1819    0.2466 C   0  0  0  0  0  0  0  0  0  0  0  0
   -3.3554   -1.1059   -1.1077 C   0  0  0  0  0  0  0  0  0  0  0  0
   -4.4596   -1.7174   -1.6847 C   0  0  0  0  0  0  0  0  0  0  0  0
   -5.3863   -2.4005   -0.9264 C   0  0  0  0  0  0  0  0  0  0  0  0
   -6.3914   -2.9629   -1.4106 O   0  0  0  0  0  0  0  0  0  0  0  0
   -5.2048   -2.4703    0.4186 N   0  0  0  0  0  0  0  0  0  0  0  0
   -4.1408   -1.8798    0.9680 C   0  0  0  0  0  0  0  0  0  0  0  0
    0.4178    1.8443    0.3197 C   0  0  0  0  0  0  0  0  0  0  0  0
   -0.6533    2.7078    0.2473 C   0  0  0  0  0  0  0  0  0  0  0  0
   -0.5177    3.9904   -0.2348 C   0  0  0  0  0  0  0  0  0  0  0  0
    0.7117    4.4782   -0.6740 C   0  0  0  0  0  0  0  0  0  0  0  0
    1.7748    3.6052   -0.5963 C   0  0  0  0  0  0  0  0  0  0  0  0
    1.6436    2.3212   -0.1143 C   0  0  0  0  0  0  0  0  0  0  0  0
    0.8633    5.8126   -1.1781 C   0  0  0  0  0  0  0  0  0  0  0  0
    0.9884    6.8892   -1.5803 N   0  0  0  0  0  0  0  0  0  0  0  0
    4.2047   -1.3743    2.2715 H   0  0  0  0  0  0  0  0  0  0  0  0
    2.2424   -0.0394    2.6002 H   0  0  0  0  0  0  0  0  0  0  0  0
    1.0415   -0.8869   -1.4368 H   0  0  0  0  0  0  0  0  0  0  0  0
    3.0431   -2.2391   -1.7489 H   0  0  0  0  0  0  0  0  0  0  0  0
    0.0070    0.5020    1.9338 H   0  0  0  0  0  0  0  0  0  0  0  0
   -0.8966   -0.2775   -0.8340 H   0  0  0  0  0  0  0  0  0  0  0  0
   -2.6587   -0.5827   -1.7433 H   0  0  0  0  0  0  0  0  0  0  0  0
   -4.6077   -1.6611   -2.7668 H   0  0  0  0  0  0  0  0  0  0  0  0
   -5.9219   -2.9969    0.9832 H   0  0  0  0  0  0  0  0  0  0  0  0
   -3.9914   -1.9296    2.0299 H   0  0  0  0  0  0  0  0  0  0  0  0
   -1.6269    2.3489    0.5872 H   0  0  0  0  0  0  0  0  0  0  0  0
   -1.3332    4.6912   -0.3039 H   0  0  0  0  0  0  0  0  0  0  0  0
    2.7354    3.9666   -0.9327 H   0  0  0  0  0  0  0  0  0  0  0  0
    2.4804    1.6335   -0.0526 H   0  0  0  0  0  0  0  0  0  0  0  0
  1  2  1  0
  2  3  1  0
  2  4  1  0
  2  5  1  0
  5  6  2  0
  6  7  1  0
  7  8  2  0
  8  9  1  0
  9 10  2  0
  8 11  1  0
 11 12  1  0
 12 13  1  0
 13 14  2  0
 13 15  1  0
 15 16  1  0
 16 17  2  0
 17 18  1  0
 18 19  2  0
 18 20  1  0
 20 21  1  0
 11 22  1  0
 22 23  2  0
 23 24  1  0
 24 25  2  0
 25 26  1  0
 26 27  2  0
 25 28  1  0
 28 29  3  0
 10  5  1  0
 21 15  2  0
 27 22  1  0
  6 30  1  0
  7 31  1  0
  9 32  1  0
 10 33  1  0
 11 34  1  1
 12 35  1  0
 16 36  1  0
 17 37  1  0
 20 38  1  0
 21 39  1  0
 23 40  1  0
 24 41  1  0
 26 42  1  0
 27 43  1  0
M  END
$$$$
[H]N=C(N([H])[H])N([H])C([H])([H])C([H])([H])C([H])([H])[C@@]([H])(C(=O)N([H])[C@]([H])(C(=O)N([H])[C@]([H])(C(=O)N([H])[H])C([H])([H])c1c([H])n([H])c2c([H])c([H])c([H])c([H])c12)C([H])([H])C(=O)O[H])N([H])C(=O)[C@@]([H])(N([H])C(=O)[C@@]([H])(N([H])[H])C([H])([H])C([H])([H])C(=O)O[H])C([H])([H])C([H])([H])C(=O)O[H]
     RDKit          3D

 96 97  0  0  0  0  0  0  0  0999 V2000
   -0.7655    5.5236    3.0658 N   0  0  0  0  0  0  0  0  0  0  0  0
   -1.6700    4.9835    2.1385 C   0  0  0  0  0  0  0  0  0  0  0  0
   -2.9362    5.2097    2.2994 N   0  0  0  0  0  0  0  0  0  0  0  0
   -1.2038    4.2077    1.0537 N   0  0  0  0  0  0  0  0  0  0  0  0
   -1.4489    4.6249   -0.2989 C   0  0  0  0  0  0  0  0  0  0  0  0
   -0.8671    3.6227   -1.3211 C   0  0  0  0  0  0  0  0  0  0  0  0
   -1.4949    2.2703   -1.1099 C   0  0  0  0  0  0  0  0  0  0  0  0
   -1.0395    1.1759   -2.0145 C   0  0  2  0  0  0  0  0  0  0  0  0
   -1.8191   -0.0342   -1.7748 N   0  0  0  0  0  0  0  0  0  0  0  0
   -3.1482   -0.2304   -1.4849 C   0  0  0  0  0  0  0  0  0  0  0  0
   -3.9632    0.7202   -1.3452 O   0  0  0  0  0  0  0  0  0  0  0  0
   -3.6998   -1.6288   -1.3169 C   0  0  2  0  0  0  0  0  0  0  0  0
   -4.0640   -2.0725   -2.7201 C   0  0  0  0  0  0  0  0  0  0  0  0
   -5.0672   -1.1717   -3.3679 C   0  0  0  0  0  0  0  0  0  0  0  0
   -5.3628   -1.6722   -4.7379 C   0  0  0  0  0  0  0  0  0  0  0  0
   -6.2163   -1.0181   -5.6024 O   0  0  0  0  0  0  0  0  0  0  0  0
   -4.8091   -2.7491   -5.1404 O   0  0  0  0  0  0  0  0  0  0  0  0
   -4.8099   -1.6576   -0.4046 N   0  0  0  0  0  0  0  0  0  0  0  0
   -4.9568   -2.6044    0.6177 C   0  0  0  0  0  0  0  0  0  0  0  0
   -4.0974   -3.4931    0.7663 O   0  0  0  0  0  0  0  0  0  0  0  0
   -6.1197   -2.5808    1.5401 C   0  0  1  0  0  0  0  0  0  0  0  0
   -6.1146   -3.7647    2.3883 N   0  0  0  0  0  0  0  0  0  0  0  0
   -6.1084   -1.3661    2.4090 C   0  0  0  0  0  0  0  0  0  0  0  0
   -7.2664   -1.2959    3.3412 C   0  0  0  0  0  0  0  0  0  0  0  0
   -7.3199   -2.4280    4.2838 C   0  0  0  0  0  0  0  0  0  0  0  0
   -6.2782   -2.5335    5.2191 O   0  0  0  0  0  0  0  0  0  0  0  0
   -8.2343   -3.2982    4.3003 O   0  0  0  0  0  0  0  0  0  0  0  0
    0.3752    0.8405   -1.9881 C   0  0  0  0  0  0  0  0  0  0  0  0
    0.7182   -0.1496   -2.7385 O   0  0  0  0  0  0  0  0  0  0  0  0
    1.3742    1.4344   -1.2589 N   0  0  0  0  0  0  0  0  0  0  0  0
    2.8034    1.0322   -1.2858 C   0  0  1  0  0  0  0  0  0  0  0  0
    3.5884    2.1543   -1.9936 C   0  0  0  0  0  0  0  0  0  0  0  0
    3.0232    2.2952   -3.3577 C   0  0  0  0  0  0  0  0  0  0  0  0
    3.6364    1.6673   -4.4515 O   0  0  0  0  0  0  0  0  0  0  0  0
    2.0009    2.9785   -3.5188 O   0  0  0  0  0  0  0  0  0  0  0  0
    3.2880    0.9038    0.0892 C   0  0  0  0  0  0  0  0  0  0  0  0
    2.4665    1.1041    1.0346 O   0  0  0  0  0  0  0  0  0  0  0  0
    4.6054    0.5772    0.4588 N   0  0  0  0  0  0  0  0  0  0  0  0
    5.0085    0.4926    1.8322 C   0  0  1  0  0  0  0  0  0  0  0  0
    5.3140   -0.8454    2.3954 C   0  0  0  0  0  0  0  0  0  0  0  0
    6.3871   -1.5967    1.7464 C   0  0  0  0  0  0  0  0  0  0  0  0
    7.7443   -1.6235    2.1249 C   0  0  0  0  0  0  0  0  0  0  0  0
    8.4172   -2.3852    1.2542 N   0  0  0  0  0  0  0  0  0  0  0  0
    7.5866   -2.8718    0.3137 C   0  0  0  0  0  0  0  0  0  0  0  0
    7.8059   -3.6883   -0.7647 C   0  0  0  0  0  0  0  0  0  0  0  0
    6.7483   -4.0347   -1.5670 C   0  0  0  0  0  0  0  0  0  0  0  0
    5.4917   -3.5601   -1.2789 C   0  0  0  0  0  0  0  0  0  0  0  0
    5.2722   -2.7461   -0.2048 C   0  0  0  0  0  0  0  0  0  0  0  0
    6.3060   -2.3720    0.6277 C   0  0  0  0  0  0  0  0  0  0  0  0
    6.0745    1.4824    2.1602 C   0  0  0  0  0  0  0  0  0  0  0  0
    6.6258    1.6639    3.4387 N   0  0  0  0  0  0  0  0  0  0  0  0
    6.4921    2.1932    1.2069 O   0  0  0  0  0  0  0  0  0  0  0  0
    0.1996    5.8373    2.7274 H   0  0  0  0  0  0  0  0  0  0  0  0
   -1.0087    5.6218    4.0561 H   0  0  0  0  0  0  0  0  0  0  0  0
   -3.5818    4.7914    1.5871 H   0  0  0  0  0  0  0  0  0  0  0  0
   -0.6737    3.3215    1.2592 H   0  0  0  0  0  0  0  0  0  0  0  0
   -2.4861    4.8744   -0.5173 H   0  0  0  0  0  0  0  0  0  0  0  0
   -0.8396    5.5622   -0.4555 H   0  0  0  0  0  0  0  0  0  0  0  0
   -1.3295    3.9932   -2.3162 H   0  0  0  0  0  0  0  0  0  0  0  0
    0.1743    3.7018   -1.4465 H   0  0  0  0  0  0  0  0  0  0  0  0
   -1.4907    1.9709   -0.0178 H   0  0  0  0  0  0  0  0  0  0  0  0
   -2.6086    2.4890   -1.2732 H   0  0  0  0  0  0  0  0  0  0  0  0
   -1.3172    1.5782   -3.0490 H   0  0  0  0  0  0  0  0  0  0  0  0
   -1.2229   -0.9332   -1.8644 H   0  0  0  0  0  0  0  0  0  0  0  0
   -2.8991   -2.2669   -0.9558 H   0  0  0  0  0  0  0  0  0  0  0  0
   -4.3689   -3.1068   -2.8169 H   0  0  0  0  0  0  0  0  0  0  0  0
   -3.1039   -1.9773   -3.3139 H   0  0  0  0  0  0  0  0  0  0  0  0
   -6.0365   -1.1103   -2.8357 H   0  0  0  0  0  0  0  0  0  0  0  0
   -4.7252   -0.1158   -3.4916 H   0  0  0  0  0  0  0  0  0  0  0  0
   -5.9126   -0.3896   -6.3525 H   0  0  0  0  0  0  0  0  0  0  0  0
   -5.5448   -0.9165   -0.5104 H   0  0  0  0  0  0  0  0  0  0  0  0
   -7.0869   -2.6034    0.9760 H   0  0  0  0  0  0  0  0  0  0  0  0
   -5.1845   -3.9226    2.8421 H   0  0  0  0  0  0  0  0  0  0  0  0
   -6.2312   -4.5942    1.7420 H   0  0  0  0  0  0  0  0  0  0  0  0
   -6.1103   -0.4879    1.7165 H   0  0  0  0  0  0  0  0  0  0  0  0
   -5.1313   -1.3799    2.9820 H   0  0  0  0  0  0  0  0  0  0  0  0
   -8.1911   -1.3278    2.6821 H   0  0  0  0  0  0  0  0  0  0  0  0
   -7.2766   -0.3178    3.9010 H   0  0  0  0  0  0  0  0  0  0  0  0
   -5.4612   -1.9386    5.1493 H   0  0  0  0  0  0  0  0  0  0  0  0
    1.1811    2.1966   -0.5582 H   0  0  0  0  0  0  0  0  0  0  0  0
    2.8774    0.0995   -1.8287 H   0  0  0  0  0  0  0  0  0  0  0  0
    3.5000    3.0984   -1.4356 H   0  0  0  0  0  0  0  0  0  0  0  0
    4.6743    1.8704   -2.0249 H   0  0  0  0  0  0  0  0  0  0  0  0
    3.6907    0.6730   -4.5391 H   0  0  0  0  0  0  0  0  0  0  0  0
    5.3051    0.3958   -0.2844 H   0  0  0  0  0  0  0  0  0  0  0  0
    4.1068    0.8632    2.4330 H   0  0  0  0  0  0  0  0  0  0  0  0
    5.6402   -0.6779    3.4641 H   0  0  0  0  0  0  0  0  0  0  0  0
    4.3574   -1.4261    2.4885 H   0  0  0  0  0  0  0  0  0  0  0  0
    8.1015   -1.0970    2.9768 H   0  0  0  0  0  0  0  0  0  0  0  0
    9.4587   -2.5772    1.2966 H   0  0  0  0  0  0  0  0  0  0  0  0
    8.7946   -4.0540   -0.9817 H   0  0  0  0  0  0  0  0  0  0  0  0
    6.8867   -4.6909   -2.4393 H   0  0  0  0  0  0  0  0  0  0  0  0
    4.6381   -3.8279   -1.9082 H   0  0  0  0  0  0  0  0  0  0  0  0
    4.2699   -2.3671    0.0416 H   0  0  0  0  0  0  0  0  0  0  0  0
    6.1369    1.3705    4.3058 H   0  0  0  0  0  0  0  0  0  0  0  0
    7.5569    2.1121    3.5315 H   0  0  0  0  0  0  0  0  0  0  0  0
  1  2  1  0
  2  3  2  3
  2  4  1  0
  4  5  1  0
  5  6  1  0
  6  7  1  0
  7  8  1  0
  8  9  1  0
  9 10  1  0
 10 11  2  0
 10 12  1  0
 12 13  1  0
 13 14  1  0
 14 15  1  0
 15 16  1  0
 15 17  2  0
 12 18  1  0
 18 19  1  0
 19 20  2  0
 19 21  1  0
 21 22  1  0
 21 23  1  0
 23 24  1  0
 24 25  1  0
 25 26  1  0
 25 27  2  0
  8 28  1  0
 28 29  2  0
 28 30  1  0
 30 31  1  0
 31 32  1  0
 32 33  1  0
 33 34  1  0
 33 35  2  0
 31 36  1  0
 36 37  2  0
 36 38  1  0
 38 39  1  0
 39 40  1  0
 40 41  1  0
 41 42  2  0
 42 43  1  0
 43 44  1  0
 44 45  2  0
 45 46  1  0
 46 47  2  0
 47 48  1  0
 48 49  2  0
 39 50  1  0
 50 51  1  0
 50 52  2  0
 49 41  1  0
 49 44  1  0
  1 53  1  0
  1 54  1  0
  3 55  1  0
  4 56  1  0
  5 57  1  0
  5 58  1  0
  6 59  1  0
  6 60  1  0
  7 61  1  0
  7 62  1  0
  8 63  1  6
  9 64  1  0
 12 65  1  1
 13 66  1  0
 13 67  1  0
 14 68  1  0
 14 69  1  0
 16 70  1  0
 18 71  1  0
 21 72  1  6
 22 73  1  0
 22 74  1  0
 23 75  1  0
 23 76  1  0
 24 77  1  0
 24 78  1  0
 26 79  1  0
 30 80  1  0
 31 81  1  6
 32 82  1  0
 32 83  1  0
 34 84  1  0
 38 85  1  0
 39 86  1  1
 40 87  1  0
 40 88  1  0
 42 89  1  0
 43 90  1  0
 45 91  1  0
 46 92  1  0
 47 93  1  0
 48 94  1  0
 51 95  1  0
 51 96  1  0
M  END
$$$$
[H]O[C@]1([H])C([H])([H])C([H])([H])[C@@]([H])(n2c(=O)c(-c3c([H])nc(OC([H])([H])[H])c([H])c3[H])c([H])c3c(C([H])([H])[H])nc(N([H])[H])nc32)C([H])([H])C1([H])[H]
     RDKit          3D

 51 54  0  0  0  0  0  0  0  0999 V2000
    7.4164    1.8280    1.0904 C   0  0  0  0  0  0  0  0  0  0  0  0
    6.4473    2.4013    0.2365 O   0  0  0  0  0  0  0  0  0  0  0  0
    5.2053    1.7665    0.1643 C   0  0  0  0  0  0  0  0  0  0  0  0
    4.1912    2.2520   -0.6439 C   0  0  0  0  0  0  0  0  0  0  0  0
    2.9482    1.6653   -0.7524 C   0  0  0  0  0  0  0  0  0  0  0  0
    2.7112    0.5283   -0.0078 C   0  0  0  0  0  0  0  0  0  0  0  0
    3.7322    0.0441    0.8024 C   0  0  0  0  0  0  0  0  0  0  0  0
    4.9297    0.6562    0.8720 N   0  0  0  0  0  0  0  0  0  0  0  0
    1.4322   -0.1737   -0.0455 C   0  0  0  0  0  0  0  0  0  0  0  0
    1.4139   -1.5486   -0.1530 C   0  0  0  0  0  0  0  0  0  0  0  0
    0.1978   -2.1836   -0.1866 C   0  0  0  0  0  0  0  0  0  0  0  0
    0.1431   -3.5524   -0.2930 C   0  0  0  0  0  0  0  0  0  0  0  0
    1.4065   -4.3676   -0.3736 C   0  0  0  0  0  0  0  0  0  0  0  0
   -1.0647   -4.1360   -0.3228 N   0  0  0  0  0  0  0  0  0  0  0  0
   -2.2036   -3.4289   -0.2523 C   0  0  0  0  0  0  0  0  0  0  0  0
   -3.4456   -4.1437   -0.2918 N   0  0  0  0  0  0  0  0  0  0  0  0
   -2.1590   -2.0932   -0.1483 N   0  0  0  0  0  0  0  0  0  0  0  0
   -0.9664   -1.4580   -0.1144 C   0  0  0  0  0  0  0  0  0  0  0  0
   -0.9561   -0.0936   -0.0077 N   0  0  0  0  0  0  0  0  0  0  0  0
   -2.1763    0.6125    0.0639 C   0  0  1  0  0  0  0  0  0  0  0  0
   -2.1726    1.9092    0.8114 C   0  0  0  0  0  0  0  0  0  0  0  0
   -3.6389    2.1642    1.2086 C   0  0  0  0  0  0  0  0  0  0  0  0
   -4.4147    2.3628   -0.0839 C   0  0  2  0  0  0  0  0  0  0  0  0
   -5.7567    2.5252    0.2900 O   0  0  0  0  0  0  0  0  0  0  0  0
   -4.3172    1.1293   -0.9522 C   0  0  0  0  0  0  0  0  0  0  0  0
   -2.8378    0.8756   -1.2740 C   0  0  0  0  0  0  0  0  0  0  0  0
    0.2306    0.5223    0.0249 C   0  0  0  0  0  0  0  0  0  0  0  0
    0.2661    1.7574    0.1212 O   0  0  0  0  0  0  0  0  0  0  0  0
    8.3901    1.7268    0.5569 H   0  0  0  0  0  0  0  0  0  0  0  0
    7.5170    2.3845    2.0441 H   0  0  0  0  0  0  0  0  0  0  0  0
    7.1428    0.7800    1.3889 H   0  0  0  0  0  0  0  0  0  0  0  0
    4.4407    3.1580   -1.2105 H   0  0  0  0  0  0  0  0  0  0  0  0
    2.1735    2.0809   -1.4035 H   0  0  0  0  0  0  0  0  0  0  0  0
    3.6078   -0.8503    1.4154 H   0  0  0  0  0  0  0  0  0  0  0  0
    2.3618   -2.1108   -0.2095 H   0  0  0  0  0  0  0  0  0  0  0  0
    1.8904   -4.3544    0.6214 H   0  0  0  0  0  0  0  0  0  0  0  0
    1.1148   -5.3953   -0.5996 H   0  0  0  0  0  0  0  0  0  0  0  0
    2.0258   -3.9149   -1.1672 H   0  0  0  0  0  0  0  0  0  0  0  0
   -3.8193   -4.5761   -1.1657 H   0  0  0  0  0  0  0  0  0  0  0  0
   -3.9914   -4.2318    0.5866 H   0  0  0  0  0  0  0  0  0  0  0  0
   -2.9073   -0.0571    0.6125 H   0  0  0  0  0  0  0  0  0  0  0  0
   -1.5921    1.9163    1.7322 H   0  0  0  0  0  0  0  0  0  0  0  0
   -1.9529    2.7926    0.1391 H   0  0  0  0  0  0  0  0  0  0  0  0
   -4.0074    1.2476    1.6826 H   0  0  0  0  0  0  0  0  0  0  0  0
   -3.7286    3.0741    1.8101 H   0  0  0  0  0  0  0  0  0  0  0  0
   -4.1054    3.2753   -0.6248 H   0  0  0  0  0  0  0  0  0  0  0  0
   -6.3525    1.8919   -0.1652 H   0  0  0  0  0  0  0  0  0  0  0  0
   -4.6668    0.2734   -0.3054 H   0  0  0  0  0  0  0  0  0  0  0  0
   -4.9291    1.2227   -1.8453 H   0  0  0  0  0  0  0  0  0  0  0  0
   -2.4419    1.8036   -1.6955 H   0  0  0  0  0  0  0  0  0  0  0  0
   -2.7322    0.0420   -1.9799 H   0  0  0  0  0  0  0  0  0  0  0  0
  1  2  1  0
  2  3  1  0
  3  4  2  0
  4  5  1  0
  5  6  2  0
  6  7  1  0
  7  8  2  0
  6  9  1  0
  9 10  2  0
 10 11  1  0
 11 12  2  0
 12 13  1  0
 12 14  1  0
 14 15  2  0
 15 16  1  0
 15 17  1  0
 17 18  2  0
 18 19  1  0
 19 20  1  0
 20 21  1  0
 21 22  1  0
 22 23  1  0
 23 24  1  0
 23 25  1  0
 25 26  1  0
 19 27  1  0
 27 28  2  0
  8  3  1  0
 27  9  1  0
 18 11  1  0
 26 20  1  0
  1 29  1  0
  1 30  1  0
  1 31  1  0
  4 32  1  0
  5 33  1  0
  7 34  1  0
 10 35  1  0
 13 36  1  0
 13 37  1  0
 13 38  1  0
 16 39  1  0
 16 40  1  0
 20 41  1  1
 21 42  1  0
 21 43  1  0
 22 44  1  0
 22 45  1  0
 23 46  1  6
 24 47  1  0
 25 48  1  0
 25 49  1  0
 26 50  1  0
 26 51  1  0
M  END
$$$$
[H]c1nc2c(c([H])c([H])n2[H])c(-c2nc(N3C([H])([H])C([H])([H])OC([H])([H])[C@@]3([H])C([H])([H])[H])nc(C3(S(=O)(=O)C([H])([H])[H])C([H])([H])C3([H])[H])c2[H])c1[H]
     RDKit          3D

 52 56  0  0  0  0  0  0  0  0999 V2000
    3.0384   -1.1359   -2.3362 C   0  0  0  0  0  0  0  0  0  0  0  0
    3.7136   -0.5191   -1.1630 C   0  0  2  0  0  0  0  0  0  0  0  0
    4.7364   -1.4429   -0.5219 C   0  0  0  0  0  0  0  0  0  0  0  0
    5.4951   -0.7623    0.3875 O   0  0  0  0  0  0  0  0  0  0  0  0
    4.9795    0.3869    0.9129 C   0  0  0  0  0  0  0  0  0  0  0  0
    3.4808    0.3922    1.1154 C   0  0  0  0  0  0  0  0  0  0  0  0
    2.8558   -0.0743   -0.1100 N   0  0  0  0  0  0  0  0  0  0  0  0
    1.4253   -0.0626   -0.1358 C   0  0  0  0  0  0  0  0  0  0  0  0
    0.8264    1.1068    0.1836 N   0  0  0  0  0  0  0  0  0  0  0  0
   -0.4998    1.2844    0.2367 C   0  0  0  0  0  0  0  0  0  0  0  0
   -1.2694    0.1604   -0.0649 C   0  0  0  0  0  0  0  0  0  0  0  0
   -0.6794   -1.0379   -0.3891 C   0  0  0  0  0  0  0  0  0  0  0  0
    0.6673   -1.1066   -0.4148 N   0  0  0  0  0  0  0  0  0  0  0  0
   -1.4865   -2.1915   -0.7617 C   0  0  0  0  0  0  0  0  0  0  0  0
   -1.0408   -3.0766   -1.7489 C   0  0  0  0  0  0  0  0  0  0  0  0
   -1.7888   -4.1880   -2.0674 C   0  0  0  0  0  0  0  0  0  0  0  0
   -2.9434   -4.4255   -1.4335 N   0  0  0  0  0  0  0  0  0  0  0  0
   -3.4034   -3.6056   -0.4844 C   0  0  0  0  0  0  0  0  0  0  0  0
   -4.5039   -3.6729    0.2877 N   0  0  0  0  0  0  0  0  0  0  0  0
   -4.5300   -2.6411    1.1279 C   0  0  0  0  0  0  0  0  0  0  0  0
   -3.4038   -1.8709    0.8944 C   0  0  0  0  0  0  0  0  0  0  0  0
   -2.6759   -2.4617   -0.1261 C   0  0  0  0  0  0  0  0  0  0  0  0
   -1.1175    2.5870    0.5980 C   0  0  0  0  0  0  0  0  0  0  0  0
   -0.9476    3.6840   -0.4379 C   0  0  0  0  0  0  0  0  0  0  0  0
   -0.1174    3.7311    0.7836 C   0  0  0  0  0  0  0  0  0  0  0  0
   -2.6222    2.6465    1.4968 S   0  0  0  0  0  0  0  0  0  0  0  0
   -3.0160    4.3688    1.7685 C   0  0  0  0  0  0  0  0  0  0  0  0
   -3.7324    2.0743    0.6356 O   0  0  0  0  0  0  0  0  0  0  0  0
   -2.4959    1.8971    2.7780 O   0  0  0  0  0  0  0  0  0  0  0  0
    3.8503   -1.3658   -3.0802 H   0  0  0  0  0  0  0  0  0  0  0  0
    2.4173   -0.3578   -2.8743 H   0  0  0  0  0  0  0  0  0  0  0  0
    2.4890   -2.0538   -2.1511 H   0  0  0  0  0  0  0  0  0  0  0  0
    4.2456    0.3998   -1.5611 H   0  0  0  0  0  0  0  0  0  0  0  0
    4.1607   -2.2125    0.0323 H   0  0  0  0  0  0  0  0  0  0  0  0
    5.3305   -1.8992   -1.3492 H   0  0  0  0  0  0  0  0  0  0  0  0
    5.3345    1.3299    0.4413 H   0  0  0  0  0  0  0  0  0  0  0  0
    5.4114    0.4509    1.9677 H   0  0  0  0  0  0  0  0  0  0  0  0
    3.1655    1.4143    1.4070 H   0  0  0  0  0  0  0  0  0  0  0  0
    3.2691   -0.3270    1.9513 H   0  0  0  0  0  0  0  0  0  0  0  0
   -2.3427    0.2916   -0.0858 H   0  0  0  0  0  0  0  0  0  0  0  0
   -0.0982   -2.8822   -2.2527 H   0  0  0  0  0  0  0  0  0  0  0  0
   -1.4798   -4.9017   -2.8342 H   0  0  0  0  0  0  0  0  0  0  0  0
   -5.2758   -4.4026    0.2838 H   0  0  0  0  0  0  0  0  0  0  0  0
   -5.2743   -2.4067    1.8730 H   0  0  0  0  0  0  0  0  0  0  0  0
   -3.1537   -0.9741    1.4570 H   0  0  0  0  0  0  0  0  0  0  0  0
   -0.4706    3.4084   -1.4039 H   0  0  0  0  0  0  0  0  0  0  0  0
   -1.7460    4.4659   -0.5032 H   0  0  0  0  0  0  0  0  0  0  0  0
   -0.2885    4.4576    1.5952 H   0  0  0  0  0  0  0  0  0  0  0  0
    0.9492    3.4870    0.6321 H   0  0  0  0  0  0  0  0  0  0  0  0
   -3.3570    4.7555    0.7824 H   0  0  0  0  0  0  0  0  0  0  0  0
   -3.8988    4.3775    2.4445 H   0  0  0  0  0  0  0  0  0  0  0  0
   -2.1819    4.9010    2.2171 H   0  0  0  0  0  0  0  0  0  0  0  0
  1  2  1  0
  2  3  1  0
  3  4  1  0
  4  5  1  0
  5  6  1  0
  6  7  1  0
  7  8  1  0
  8  9  2  0
  9 10  1  0
 10 11  2  0
 11 12  1  0
 12 13  2  0
 12 14  1  0
 14 15  2  0
 15 16  1  0
 16 17  2  0
 17 18  1  0
 18 19  1  0
 19 20  1  0
 20 21  2  0
 21 22  1  0
 10 23  1  0
 23 24  1  0
 24 25  1  0
 23 26  1  0
 26 27  1  0
 26 28  2  0
 26 29  2  0
  7  2  1  0
 13  8  1  0
 22 14  1  0
 25 23  1  0
 22 18  2  0
  1 30  1  0
  1 31  1  0
  1 32  1  0
  2 33  1  6
  3 34  1  0
  3 35  1  0
  5 36  1  0
  5 37  1  0
  6 38  1  0
  6 39  1  0
 11 40  1  0
 15 41  1  0
 16 42  1  0
 19 43  1  0
 20 44  1  0
 21 45  1  0
 24 46  1  0
 24 47  1  0
 25 48  1  0
 25 49  1  0
 27 50  1  0
 27 51  1  0
 27 52  1  0
M  END
$$$$
[H]c1nc2c(C([H])([H])[H])c([H])c(-c3c(C([H])(C([H])([H])[H])C([H])([H])[H])c4c([H])c(C5([H])C([H])([H])C([H])([H])N(C(=O)N([H])C([H])([H])C([H])([H])N(C([H])([H])[H])C([H])([H])[H])C([H])([H])C5([H])[H])c([H])c([H])c4n3[H])c([H])n2n1
     RDKit          3D

 73 77  0  0  0  0  0  0  0  0999 V2000
   -2.1786    2.1947    0.9504 C   0  0  0  0  0  0  0  0  0  0  0  0
   -3.2446    1.6359    0.0389 C   0  0  0  0  0  0  0  0  0  0  0  0
   -4.3081    2.5952   -0.2859 C   0  0  0  0  0  0  0  0  0  0  0  0
   -3.4791    0.1940    0.1013 C   0  0  0  0  0  0  0  0  0  0  0  0
   -4.6005   -0.5464   -0.0324 C   0  0  0  0  0  0  0  0  0  0  0  0
   -4.2259   -1.8719   -0.1627 N   0  0  0  0  0  0  0  0  0  0  0  0
   -2.8999   -1.9716   -0.1063 C   0  0  0  0  0  0  0  0  0  0  0  0
   -2.0800   -3.0697   -0.2101 C   0  0  0  0  0  0  0  0  0  0  0  0
   -0.6880   -2.9230   -0.1508 C   0  0  0  0  0  0  0  0  0  0  0  0
   -0.1526   -1.6823    0.0097 C   0  0  0  0  0  0  0  0  0  0  0  0
   -1.0342   -0.5894    0.1128 C   0  0  0  0  0  0  0  0  0  0  0  0
   -2.3956   -0.7307    0.0558 C   0  0  0  0  0  0  0  0  0  0  0  0
    1.3128   -1.4554    0.0469 C   0  0  0  0  0  0  0  0  0  0  0  0
    1.6700   -0.8622    1.3734 C   0  0  0  0  0  0  0  0  0  0  0  0
    2.9646   -0.1592    1.4512 C   0  0  0  0  0  0  0  0  0  0  0  0
    3.7435   -0.2614    0.2467 N   0  0  0  0  0  0  0  0  0  0  0  0
    3.1509   -0.2380   -1.0539 C   0  0  0  0  0  0  0  0  0  0  0  0
    1.6928   -0.5243   -1.0900 C   0  0  0  0  0  0  0  0  0  0  0  0
    5.1673   -0.3420    0.4234 C   0  0  0  0  0  0  0  0  0  0  0  0
    5.6693   -0.3042    1.5984 O   0  0  0  0  0  0  0  0  0  0  0  0
    6.0121   -0.4571   -0.6733 N   0  0  0  0  0  0  0  0  0  0  0  0
    7.4520   -0.5220   -0.4937 C   0  0  0  0  0  0  0  0  0  0  0  0
    8.0472    0.7159    0.1105 C   0  0  0  0  0  0  0  0  0  0  0  0
    9.4969    0.5766    0.2673 N   0  0  0  0  0  0  0  0  0  0  0  0
    9.9868    1.8482    0.8224 C   0  0  0  0  0  0  0  0  0  0  0  0
   10.1322    0.3328   -1.0056 C   0  0  0  0  0  0  0  0  0  0  0  0
   -5.9975   -0.2007   -0.0741 C   0  0  0  0  0  0  0  0  0  0  0  0
   -6.8215   -0.8910   -0.9863 C   0  0  0  0  0  0  0  0  0  0  0  0
   -8.1780   -0.7467   -1.0342 C   0  0  0  0  0  0  0  0  0  0  0  0
   -9.0363   -1.4814   -2.0091 C   0  0  0  0  0  0  0  0  0  0  0  0
   -8.7295    0.1313   -0.1210 C   0  0  0  0  0  0  0  0  0  0  0  0
  -10.0256    0.4681    0.0588 N   0  0  0  0  0  0  0  0  0  0  0  0
  -10.0670    1.3578    1.0642 C   0  0  0  0  0  0  0  0  0  0  0  0
   -8.7997    1.5384    1.4685 N   0  0  0  0  0  0  0  0  0  0  0  0
   -7.9605    0.7922    0.7508 N   0  0  0  0  0  0  0  0  0  0  0  0
   -6.6269    0.6463    0.7934 C   0  0  0  0  0  0  0  0  0  0  0  0
   -1.9299    1.4428    1.7270 H   0  0  0  0  0  0  0  0  0  0  0  0
   -2.5593    3.1192    1.4788 H   0  0  0  0  0  0  0  0  0  0  0  0
   -1.2594    2.5226    0.4606 H   0  0  0  0  0  0  0  0  0  0  0  0
   -2.6031    1.7211   -1.0199 H   0  0  0  0  0  0  0  0  0  0  0  0
   -4.9712    2.3068   -1.1035 H   0  0  0  0  0  0  0  0  0  0  0  0
   -3.7728    3.5171   -0.7340 H   0  0  0  0  0  0  0  0  0  0  0  0
   -4.8054    3.0627    0.5973 H   0  0  0  0  0  0  0  0  0  0  0  0
   -4.8700   -2.6764   -0.2867 H   0  0  0  0  0  0  0  0  0  0  0  0
   -2.4987   -4.0674   -0.3401 H   0  0  0  0  0  0  0  0  0  0  0  0
   -0.0322   -3.7761   -0.2252 H   0  0  0  0  0  0  0  0  0  0  0  0
   -0.5537    0.3701    0.2244 H   0  0  0  0  0  0  0  0  0  0  0  0
    1.8371   -2.4143   -0.0789 H   0  0  0  0  0  0  0  0  0  0  0  0
    1.6695   -1.7154    2.1134 H   0  0  0  0  0  0  0  0  0  0  0  0
    0.8074   -0.2312    1.7006 H   0  0  0  0  0  0  0  0  0  0  0  0
    3.5784   -0.4840    2.3436 H   0  0  0  0  0  0  0  0  0  0  0  0
    2.8095    0.9519    1.6102 H   0  0  0  0  0  0  0  0  0  0  0  0
    3.2571    0.8493   -1.4020 H   0  0  0  0  0  0  0  0  0  0  0  0
    3.7133   -0.8105   -1.8330 H   0  0  0  0  0  0  0  0  0  0  0  0
    1.3818   -1.0627   -2.0285 H   0  0  0  0  0  0  0  0  0  0  0  0
    1.0363    0.3717   -1.0273 H   0  0  0  0  0  0  0  0  0  0  0  0
    5.6018   -0.4952   -1.6470 H   0  0  0  0  0  0  0  0  0  0  0  0
    7.7206   -1.3826    0.1999 H   0  0  0  0  0  0  0  0  0  0  0  0
    7.9083   -0.8019   -1.4509 H   0  0  0  0  0  0  0  0  0  0  0  0
    7.8793    1.6222   -0.5123 H   0  0  0  0  0  0  0  0  0  0  0  0
    7.6530    0.9524    1.1039 H   0  0  0  0  0  0  0  0  0  0  0  0
    9.1416    2.4069    1.3124 H   0  0  0  0  0  0  0  0  0  0  0  0
   10.8268    1.6819    1.5223 H   0  0  0  0  0  0  0  0  0  0  0  0
   10.3131    2.5229   -0.0186 H   0  0  0  0  0  0  0  0  0  0  0  0
    9.3964    0.5308   -1.8366 H   0  0  0  0  0  0  0  0  0  0  0  0
   10.9277    1.1010   -1.1654 H   0  0  0  0  0  0  0  0  0  0  0  0
   10.5184   -0.6996   -1.1195 H   0  0  0  0  0  0  0  0  0  0  0  0
   -6.3629   -1.5781   -1.6906 H   0  0  0  0  0  0  0  0  0  0  0  0
   -8.9464   -2.5522   -1.7523 H   0  0  0  0  0  0  0  0  0  0  0  0
   -8.6715   -1.3894   -3.0528 H   0  0  0  0  0  0  0  0  0  0  0  0
  -10.0770   -1.1634   -1.8647 H   0  0  0  0  0  0  0  0  0  0  0  0
  -10.9445    1.8510    1.4881 H   0  0  0  0  0  0  0  0  0  0  0  0
   -6.0880    1.1992    1.5692 H   0  0  0  0  0  0  0  0  0  0  0  0
  1  2  1  0
  2  3  1  0
  2  4  1  0
  4  5  2  0
  5  6  1  0
  6  7  1  0
  7  8  2  0
  8  9  1  0
  9 10  2  0
 10 11  1  0
 11 12  2  0
 10 13  1  0
 13 14  1  0
 14 15  1  0
 15 16  1  0
 16 17  1  0
 17 18  1  0
 16 19  1  0
 19 20  2  0
 19 21  1  0
 21 22  1  0
 22 23  1  0
 23 24  1  0
 24 25  1  0
 24 26  1  0
  5 27  1  0
 27 28  1  0
 28 29  2  0
 29 30  1  0
 29 31  1  0
 31 32  2  0
 32 33  1  0
 33 34  2  0
 34 35  1  0
 35 36  1  0
 12  4  1  0
 18 13  1  0
 36 27  2  0
 12  7  1  0
 35 31  1  0
  1 37  1  0
  1 38  1  0
  1 39  1  0
  2 40  1  0
  3 41  1  0
  3 42  1  0
  3 43  1  0
  6 44  1  0
  8 45  1  0
  9 46  1  0
 11 47  1  0
 13 48  1  0
 14 49  1  0
 14 50  1  0
 15 51  1  0
 15 52  1  0
 17 53  1  0
 17 54  1  0
 18 55  1  0
 18 56  1  0
 21 57  1  0
 22 58  1  0
 22 59  1  0
 23 60  1  0
 23 61  1  0
 25 62  1  0
 25 63  1  0
 25 64  1  0
 26 65  1  0
 26 66  1  0
 26 67  1  0
 28 68  1  0
 30 69  1  0
 30 70  1  0
 30 71  1  0
 33 72  1  0
 36 73  1  0
M  END
$$$$
[H]c1nc(N([H])c2c([H])c([H])c(N3C([H])([H])C([H])([H])C([H])(N4C([H])([H])C([H])([H])C([H])([H])C4([H])[H])C([H])([H])C3([H])[H])c([H])c2OC([H])([H])[H])nc(N([H])c2c([H])c([H])c([H])c([H])c2S(=O)(=O)C([H])(C([H])([H])[H])C([H])([H])[H])c1Cl
     RDKit          3D

 77 81  0  0  0  0  0  0  0  0999 V2000
    0.8444    1.1735   -3.4882 C   0  0  0  0  0  0  0  0  0  0  0  0
    0.1439    0.9247   -2.3025 O   0  0  0  0  0  0  0  0  0  0  0  0
    0.7822    0.3868   -1.2119 C   0  0  0  0  0  0  0  0  0  0  0  0
    2.1247    0.0964   -1.3057 C   0  0  0  0  0  0  0  0  0  0  0  0
    2.8153   -0.4444   -0.2422 C   0  0  0  0  0  0  0  0  0  0  0  0
    2.1684   -0.7054    0.9431 C   0  0  0  0  0  0  0  0  0  0  0  0
    0.8041   -0.4045    1.0222 C   0  0  0  0  0  0  0  0  0  0  0  0
    0.0946    0.1289   -0.0087 C   0  0  0  0  0  0  0  0  0  0  0  0
   -1.2782    0.4436    0.0285 N   0  0  0  0  0  0  0  0  0  0  0  0
   -2.2158    0.2947    1.0523 C   0  0  0  0  0  0  0  0  0  0  0  0
   -1.9079   -0.2100    2.2386 N   0  0  0  0  0  0  0  0  0  0  0  0
   -2.7961   -0.3635    3.2240 C   0  0  0  0  0  0  0  0  0  0  0  0
   -4.0813    0.0263    2.9742 C   0  0  0  0  0  0  0  0  0  0  0  0
   -5.2951   -0.1412    4.2182 Cl  0  0  0  0  0  0  0  0  0  0  0  0
   -4.4529    0.5671    1.7291 C   0  0  0  0  0  0  0  0  0  0  0  0
   -5.7836    0.9344    1.4634 N   0  0  0  0  0  0  0  0  0  0  0  0
   -6.3139    1.5195    0.2955 C   0  0  0  0  0  0  0  0  0  0  0  0
   -5.5606    2.1541   -0.6571 C   0  0  0  0  0  0  0  0  0  0  0  0
   -6.0806    2.8280   -1.7613 C   0  0  0  0  0  0  0  0  0  0  0  0
   -7.4338    2.8623   -1.9097 C   0  0  0  0  0  0  0  0  0  0  0  0
   -8.2187    2.2364   -0.9751 C   0  0  0  0  0  0  0  0  0  0  0  0
   -7.6979    1.5567    0.1348 C   0  0  0  0  0  0  0  0  0  0  0  0
   -8.8110    0.7276    1.1504 S   0  0  0  0  0  0  0  0  0  0  0  0
   -8.7176    1.1212    2.6121 O   0  0  0  0  0  0  0  0  0  0  0  0
  -10.2307    1.2112    0.7746 O   0  0  0  0  0  0  0  0  0  0  0  0
   -8.8787   -1.0165    0.9527 C   0  0  0  0  0  0  0  0  0  0  0  0
   -7.6434   -1.7952    1.1622 C   0  0  0  0  0  0  0  0  0  0  0  0
   -9.4496   -1.2951   -0.4370 C   0  0  0  0  0  0  0  0  0  0  0  0
   -3.4913    0.6665    0.8456 N   0  0  0  0  0  0  0  0  0  0  0  0
    4.1960   -0.7607   -0.3178 N   0  0  0  0  0  0  0  0  0  0  0  0
    4.9336   -1.1733    0.8819 C   0  0  0  0  0  0  0  0  0  0  0  0
    6.4199   -1.1596    0.6163 C   0  0  0  0  0  0  0  0  0  0  0  0
    6.8115    0.1552   -0.0512 C   0  0  0  0  0  0  0  0  0  0  0  0
    6.0206    0.3973   -1.2880 C   0  0  0  0  0  0  0  0  0  0  0  0
    4.9953   -0.7223   -1.5248 C   0  0  0  0  0  0  0  0  0  0  0  0
    8.2232    0.2736   -0.2312 N   0  0  0  0  0  0  0  0  0  0  0  0
    8.8279   -0.6885   -1.0738 C   0  0  0  0  0  0  0  0  0  0  0  0
    9.5633   -1.6898   -0.2068 C   0  0  0  0  0  0  0  0  0  0  0  0
    9.6882   -0.9817    1.1154 C   0  0  0  0  0  0  0  0  0  0  0  0
    8.9705    0.3394    0.9746 C   0  0  0  0  0  0  0  0  0  0  0  0
    1.2786    0.2534   -3.9436 H   0  0  0  0  0  0  0  0  0  0  0  0
    0.2521    1.7597   -4.2252 H   0  0  0  0  0  0  0  0  0  0  0  0
    1.7405    1.8297   -3.2721 H   0  0  0  0  0  0  0  0  0  0  0  0
    2.6405    0.3088   -2.2572 H   0  0  0  0  0  0  0  0  0  0  0  0
    2.7020   -1.1359    1.8005 H   0  0  0  0  0  0  0  0  0  0  0  0
    0.3661   -0.6318    1.9705 H   0  0  0  0  0  0  0  0  0  0  0  0
   -1.7003    0.8770   -0.8818 H   0  0  0  0  0  0  0  0  0  0  0  0
   -2.5090   -0.7756    4.1686 H   0  0  0  0  0  0  0  0  0  0  0  0
   -6.4448    0.7483    2.2946 H   0  0  0  0  0  0  0  0  0  0  0  0
   -4.4875    2.1799   -0.5950 H   0  0  0  0  0  0  0  0  0  0  0  0
   -5.4582    3.3165   -2.4921 H   0  0  0  0  0  0  0  0  0  0  0  0
   -7.9369    3.3599   -2.7309 H   0  0  0  0  0  0  0  0  0  0  0  0
   -9.3145    2.2697   -1.1049 H   0  0  0  0  0  0  0  0  0  0  0  0
   -9.6419   -1.3897    1.6818 H   0  0  0  0  0  0  0  0  0  0  0  0
   -6.8736   -1.6188    0.3769 H   0  0  0  0  0  0  0  0  0  0  0  0
   -7.8590   -2.9107    1.0478 H   0  0  0  0  0  0  0  0  0  0  0  0
   -7.1554   -1.6284    2.1419 H   0  0  0  0  0  0  0  0  0  0  0  0
   -8.6222   -1.3689   -1.1571 H   0  0  0  0  0  0  0  0  0  0  0  0
  -10.1824   -0.5193   -0.6655 H   0  0  0  0  0  0  0  0  0  0  0  0
   -9.9573   -2.2694   -0.3724 H   0  0  0  0  0  0  0  0  0  0  0  0
    4.6355   -2.2205    1.0843 H   0  0  0  0  0  0  0  0  0  0  0  0
    4.6564   -0.5745    1.7660 H   0  0  0  0  0  0  0  0  0  0  0  0
    6.9138   -1.2598    1.6106 H   0  0  0  0  0  0  0  0  0  0  0  0
    6.7068   -2.0371    0.0389 H   0  0  0  0  0  0  0  0  0  0  0  0
    6.5190    0.9496    0.6967 H   0  0  0  0  0  0  0  0  0  0  0  0
    5.4138    1.3290   -1.2316 H   0  0  0  0  0  0  0  0  0  0  0  0
    6.6594    0.5251   -2.2015 H   0  0  0  0  0  0  0  0  0  0  0  0
    5.5071   -1.7091   -1.5693 H   0  0  0  0  0  0  0  0  0  0  0  0
    4.4546   -0.5000   -2.4387 H   0  0  0  0  0  0  0  0  0  0  0  0
    9.5960   -0.1824   -1.6990 H   0  0  0  0  0  0  0  0  0  0  0  0
    8.1431   -1.1934   -1.7799 H   0  0  0  0  0  0  0  0  0  0  0  0
    9.0162   -2.6556   -0.1333 H   0  0  0  0  0  0  0  0  0  0  0  0
   10.5501   -1.9363   -0.6537 H   0  0  0  0  0  0  0  0  0  0  0  0
    9.3099   -1.5809    1.9603 H   0  0  0  0  0  0  0  0  0  0  0  0
   10.7892   -0.8438    1.3002 H   0  0  0  0  0  0  0  0  0  0  0  0
    9.7787    1.1139    0.8224 H   0  0  0  0  0  0  0  0  0  0  0  0
    8.4248    0.6477    1.8661 H   0  0  0  0  0  0  0  0  0  0  0  0
  1  2  1  0
  2  3  1  0
  3  4  2  0
  4  5  1  0
  5  6  2  0
  6  7  1  0
  7  8  2  0
  8  9  1  0
  9 10  1  0
 10 11  2  0
 11 12  1  0
 12 13  2  0
 13 14  1  0
 13 15  1  0
 15 16  1  0
 16 17  1  0
 17 18  2  0
 18 19  1  0
 19 20  2  0
 20 21  1  0
 21 22  2  0
 22 23  1  0
 23 24  2  0
 23 25  2  0
 23 26  1  0
 26 27  1  0
 26 28  1  0
 15 29  2  0
  5 30  1  0
 30 31  1  0
 31 32  1  0
 32 33  1  0
 33 34  1  0
 34 35  1  0
 33 36  1  0
 36 37  1  0
 37 38  1  0
 38 39  1  0
 39 40  1  0
  8  3  1  0
 29 10  1  0
 35 30  1  0
 40 36  1  0
 22 17  1  0
  1 41  1  0
  1 42  1  0
  1 43  1  0
  4 44  1  0
  6 45  1  0
  7 46  1  0
  9 47  1  0
 12 48  1  0
 16 49  1  0
 18 50  1  0
 19 51  1  0
 20 52  1  0
 21 53  1  0
 26 54  1  0
 27 55  1  0
 27 56  1  0
 27 57  1  0
 28 58  1  0
 28 59  1  0
 28 60  1  0
 31 61  1  0
 31 62  1  0
 32 63  1  0
 32 64  1  0
 33 65  1  0
 34 66  1  0
 34 67  1  0
 35 68  1  0
 35 69  1  0
 37 70  1  0
 37 71  1  0
 38 72  1  0
 38 73  1  0
 39 74  1  0
 39 75  1  0
 40 76  1  0
 40 77  1  0
M  END
$$$$
[H]ON([H])C(=O)C([H])([H])N(C([H])([H])c1c([H])c([H])c([N+](=O)[O-])c([H])c1[H])S(=O)(=O)c1c([H])c([H])c(F)c([H])c1[H]
     RDKit          3D

 40 41  0  0  0  0  0  0  0  0999 V2000
   -3.0757    1.8773   -3.2290 O   0  0  0  0  0  0  0  0  0  0  0  0
   -2.3374    2.2269   -2.1705 N   0  0  0  0  0  0  0  0  0  0  0  0
   -1.5621    1.2616   -1.4855 C   0  0  0  0  0  0  0  0  0  0  0  0
   -1.5949    0.0793   -1.9047 O   0  0  0  0  0  0  0  0  0  0  0  0
   -0.7366    1.6540   -0.3030 C   0  0  0  0  0  0  0  0  0  0  0  0
   -0.0434    0.5577    0.2465 N   0  0  0  0  0  0  0  0  0  0  0  0
    0.9195   -0.0978   -0.5469 C   0  0  0  0  0  0  0  0  0  0  0  0
    2.3106    0.0281   -0.0557 C   0  0  0  0  0  0  0  0  0  0  0  0
    3.3355   -0.5882   -0.7267 C   0  0  0  0  0  0  0  0  0  0  0  0
    4.6583   -0.4963   -0.3014 C   0  0  0  0  0  0  0  0  0  0  0  0
    4.9600    0.2305    0.8230 C   0  0  0  0  0  0  0  0  0  0  0  0
    3.9499    0.8608    1.5177 C   0  0  0  0  0  0  0  0  0  0  0  0
    2.6304    0.7548    1.0727 C   0  0  0  0  0  0  0  0  0  0  0  0
    6.3064    0.3548    1.3014 N   0  0  0  0  0  0  0  0  0  0  0  0
    7.3431   -0.2537    0.6403 O   0  0  0  0  0  0  0  0  0  0  0  0
    6.5785    1.0115    2.3219 O   0  0  0  0  0  0  0  0  0  0  0  0
   -0.7607   -0.2905    1.5067 S   0  0  0  0  0  0  0  0  0  0  0  0
    0.1752   -1.3111    2.1364 O   0  0  0  0  0  0  0  0  0  0  0  0
   -1.0474    0.6914    2.6366 O   0  0  0  0  0  0  0  0  0  0  0  0
   -2.2843   -1.0500    1.1105 C   0  0  0  0  0  0  0  0  0  0  0  0
   -2.3707   -2.3512    0.6708 C   0  0  0  0  0  0  0  0  0  0  0  0
   -3.5980   -2.9013    0.3713 C   0  0  0  0  0  0  0  0  0  0  0  0
   -4.7444   -2.1483    0.5116 C   0  0  0  0  0  0  0  0  0  0  0  0
   -5.9662   -2.7081    0.2099 F   0  0  0  0  0  0  0  0  0  0  0  0
   -4.6435   -0.8572    0.9493 C   0  0  0  0  0  0  0  0  0  0  0  0
   -3.4347   -0.3085    1.2466 C   0  0  0  0  0  0  0  0  0  0  0  0
   -3.3713    2.6514   -3.7725 H   0  0  0  0  0  0  0  0  0  0  0  0
   -2.3192    3.2077   -1.8325 H   0  0  0  0  0  0  0  0  0  0  0  0
   -1.3833    2.2056    0.3764 H   0  0  0  0  0  0  0  0  0  0  0  0
    0.0333    2.3656   -0.7245 H   0  0  0  0  0  0  0  0  0  0  0  0
    0.8360    0.3078   -1.5981 H   0  0  0  0  0  0  0  0  0  0  0  0
    0.6208   -1.1751   -0.6556 H   0  0  0  0  0  0  0  0  0  0  0  0
    3.1525   -1.1739   -1.6192 H   0  0  0  0  0  0  0  0  0  0  0  0
    5.4735   -0.9769   -0.8217 H   0  0  0  0  0  0  0  0  0  0  0  0
    4.1389    1.4470    2.4119 H   0  0  0  0  0  0  0  0  0  0  0  0
    1.8728    1.2617    1.6440 H   0  0  0  0  0  0  0  0  0  0  0  0
   -1.4678   -2.9227    0.5677 H   0  0  0  0  0  0  0  0  0  0  0  0
   -3.6569   -3.9247    0.0264 H   0  0  0  0  0  0  0  0  0  0  0  0
   -5.5279   -0.2268    1.0739 H   0  0  0  0  0  0  0  0  0  0  0  0
   -3.3689    0.7269    1.5965 H   0  0  0  0  0  0  0  0  0  0  0  0
  1  2  1  0
  2  3  1  0
  3  4  2  0
  3  5  1  0
  5  6  1  0
  6  7  1  0
  7  8  1  0
  8  9  2  0
  9 10  1  0
 10 11  2  0
 11 12  1  0
 12 13  2  0
 11 14  1  0
 14 15  1  0
 14 16  2  0
  6 17  1  0
 17 18  2  0
 17 19  2  0
 17 20  1  0
 20 21  2  0
 21 22  1  0
 22 23  2  0
 23 24  1  0
 23 25  1  0
 25 26  2  0
 13  8  1  0
 26 20  1  0
  1 27  1  0
  2 28  1  0
  5 29  1  0
  5 30  1  0
  7 31  1  0
  7 32  1  0
  9 33  1  0
 10 34  1  0
 12 35  1  0
 13 36  1  0
 21 37  1  0
 22 38  1  0
 25 39  1  0
 26 40  1  0
M  CHG  2  14   1  15  -1
M  END
$$$$
[H]Oc1c([H])c(C([H])([H])C([H])([H])[H])c(-c2c([H])c([H])c3c(-c4nc5c(n4[H])C([H])([H])C([H])([H])N(C4([H])C([H])([H])N(C([H])(C([H])([H])[H])C([H])([H])[H])C4([H])[H])C5([H])[H])nn([H])c3c2[H])c([H])c1F
     RDKit          3D

 66 71  0  0  0  0  0  0  0  0999 V2000
   -6.4329    2.8892   -0.5065 C   0  0  0  0  0  0  0  0  0  0  0  0
   -6.5245    1.8340   -1.5590 C   0  0  0  0  0  0  0  0  0  0  0  0
   -7.2721    0.6566   -1.0112 C   0  0  0  0  0  0  0  0  0  0  0  0
   -8.6403    0.5422   -1.3011 C   0  0  0  0  0  0  0  0  0  0  0  0
   -9.3926   -0.5029   -0.8177 C   0  0  0  0  0  0  0  0  0  0  0  0
  -10.7459   -0.6328   -1.0953 O   0  0  0  0  0  0  0  0  0  0  0  0
   -8.7236   -1.4215   -0.0385 C   0  0  0  0  0  0  0  0  0  0  0  0
   -9.4524   -2.4699    0.4483 F   0  0  0  0  0  0  0  0  0  0  0  0
   -7.3939   -1.3311    0.2571 C   0  0  0  0  0  0  0  0  0  0  0  0
   -6.6179   -0.2665   -0.2333 C   0  0  0  0  0  0  0  0  0  0  0  0
   -5.2032   -0.2174    0.0848 C   0  0  0  0  0  0  0  0  0  0  0  0
   -4.2580   -0.9229   -0.6550 C   0  0  0  0  0  0  0  0  0  0  0  0
   -2.9081   -0.9058   -0.3594 C   0  0  0  0  0  0  0  0  0  0  0  0
   -2.4574   -0.1687    0.7032 C   0  0  0  0  0  0  0  0  0  0  0  0
   -1.2274    0.0568    1.2417 C   0  0  0  0  0  0  0  0  0  0  0  0
   -1.4556    0.8986    2.3008 N   0  0  0  0  0  0  0  0  0  0  0  0
   -2.7271    1.1747    2.4121 N   0  0  0  0  0  0  0  0  0  0  0  0
   -3.3849    0.5356    1.4450 C   0  0  0  0  0  0  0  0  0  0  0  0
   -4.7387    0.5113    1.1400 C   0  0  0  0  0  0  0  0  0  0  0  0
    0.0957   -0.4386    0.8614 C   0  0  0  0  0  0  0  0  0  0  0  0
    1.2147   -0.0945    1.5588 N   0  0  0  0  0  0  0  0  0  0  0  0
    2.3198   -0.6840    1.0231 C   0  0  0  0  0  0  0  0  0  0  0  0
    3.7538   -0.6301    1.4197 C   0  0  0  0  0  0  0  0  0  0  0  0
    4.5813   -0.9675    0.3026 N   0  0  0  0  0  0  0  0  0  0  0  0
    4.1693   -2.2861   -0.1492 C   0  0  0  0  0  0  0  0  0  0  0  0
    2.8309   -2.1976   -0.8508 C   0  0  0  0  0  0  0  0  0  0  0  0
    1.8742   -1.4043   -0.0223 C   0  0  0  0  0  0  0  0  0  0  0  0
    0.5250   -1.2421   -0.1038 N   0  0  0  0  0  0  0  0  0  0  0  0
    5.9387   -1.0668    0.8081 C   0  0  0  0  0  0  0  0  0  0  0  0
    7.0366   -1.2106   -0.1912 C   0  0  0  0  0  0  0  0  0  0  0  0
    7.6842   -0.0220    0.3436 N   0  0  0  0  0  0  0  0  0  0  0  0
    6.4727    0.3470    1.0420 C   0  0  0  0  0  0  0  0  0  0  0  0
    8.1641    0.9147   -0.6372 C   0  0  0  0  0  0  0  0  0  0  0  0
    7.0609    1.5063   -1.4888 C   0  0  0  0  0  0  0  0  0  0  0  0
    8.8441    2.0667    0.0659 C   0  0  0  0  0  0  0  0  0  0  0  0
   -7.0097    3.7977   -0.8482 H   0  0  0  0  0  0  0  0  0  0  0  0
   -5.4010    3.1859   -0.2917 H   0  0  0  0  0  0  0  0  0  0  0  0
   -6.9320    2.6105    0.4535 H   0  0  0  0  0  0  0  0  0  0  0  0
   -5.5096    1.5041   -1.8679 H   0  0  0  0  0  0  0  0  0  0  0  0
   -7.0855    2.2380   -2.4311 H   0  0  0  0  0  0  0  0  0  0  0  0
   -9.1004    1.3011   -1.9219 H   0  0  0  0  0  0  0  0  0  0  0  0
  -11.3294   -1.3798   -0.7589 H   0  0  0  0  0  0  0  0  0  0  0  0
   -6.8584   -2.0595    0.8733 H   0  0  0  0  0  0  0  0  0  0  0  0
   -4.6406   -1.4971   -1.4836 H   0  0  0  0  0  0  0  0  0  0  0  0
   -2.2121   -1.4526   -0.9375 H   0  0  0  0  0  0  0  0  0  0  0  0
   -3.1062    1.8017    3.1589 H   0  0  0  0  0  0  0  0  0  0  0  0
   -5.3819    1.0943    1.7944 H   0  0  0  0  0  0  0  0  0  0  0  0
    3.9532   -1.3980    2.2299 H   0  0  0  0  0  0  0  0  0  0  0  0
    3.9972    0.3592    1.8630 H   0  0  0  0  0  0  0  0  0  0  0  0
    4.9224   -2.6465   -0.8716 H   0  0  0  0  0  0  0  0  0  0  0  0
    4.1006   -3.0186    0.6642 H   0  0  0  0  0  0  0  0  0  0  0  0
    2.4732   -3.1995   -1.0800 H   0  0  0  0  0  0  0  0  0  0  0  0
    2.9682   -1.6216   -1.8028 H   0  0  0  0  0  0  0  0  0  0  0  0
   -0.0441   -1.7058   -0.8371 H   0  0  0  0  0  0  0  0  0  0  0  0
    5.9900   -1.6931    1.7174 H   0  0  0  0  0  0  0  0  0  0  0  0
    7.6951   -2.0905    0.0747 H   0  0  0  0  0  0  0  0  0  0  0  0
    6.7924   -1.1681   -1.2538 H   0  0  0  0  0  0  0  0  0  0  0  0
    6.5823    0.5570    2.1294 H   0  0  0  0  0  0  0  0  0  0  0  0
    5.8706    1.1565    0.5779 H   0  0  0  0  0  0  0  0  0  0  0  0
    8.8403    0.3711   -1.3253 H   0  0  0  0  0  0  0  0  0  0  0  0
    6.3557    0.7519   -1.8760 H   0  0  0  0  0  0  0  0  0  0  0  0
    7.5664    1.9641   -2.3647 H   0  0  0  0  0  0  0  0  0  0  0  0
    6.5503    2.3627   -0.9685 H   0  0  0  0  0  0  0  0  0  0  0  0
    9.7808    1.6897    0.4869 H   0  0  0  0  0  0  0  0  0  0  0  0
    8.1413    2.4819    0.8004 H   0  0  0  0  0  0  0  0  0  0  0  0
    9.0212    2.8537   -0.7230 H   0  0  0  0  0  0  0  0  0  0  0  0
  1  2  1  0
  2  3  1  0
  3  4  2  0
  4  5  1  0
  5  6  1  0
  5  7  2  0
  7  8  1  0
  7  9  1  0
  9 10  2  0
 10 11  1  0
 11 12  2  0
 12 13  1  0
 13 14  2  0
 14 15  1  0
 15 16  2  0
 16 17  1  0
 17 18  1  0
 18 19  2  0
 15 20  1  0
 20 21  2  0
 21 22  1  0
 22 23  1  0
 23 24  1  0
 24 25  1  0
 25 26  1  0
 26 27  1  0
 27 28  1  0
 24 29  1  0
 29 30  1  0
 30 31  1  0
 31 32  1  0
 31 33  1  0
 33 34  1  0
 33 35  1  0
 10  3  1  0
 19 11  1  0
 28 20  1  0
 32 29  1  0
 18 14  1  0
 27 22  2  0
  1 36  1  0
  1 37  1  0
  1 38  1  0
  2 39  1  0
  2 40  1  0
  4 41  1  0
  6 42  1  0
  9 43  1  0
 12 44  1  0
 13 45  1  0
 17 46  1  0
 19 47  1  0
 23 48  1  0
 23 49  1  0
 25 50  1  0
 25 51  1  0
 26 52  1  0
 26 53  1  0
 28 54  1  0
 29 55  1  0
 30 56  1  0
 30 57  1  0
 32 58  1  0
 32 59  1  0
 33 60  1  0
 34 61  1  0
 34 62  1  0
 34 63  1  0
 35 64  1  0
 35 65  1  0
 35 66  1  0
M  END
$$$$
[H]c1nn([H])c([H])c1-c1c([H])nn2c([H])c(-c3c([H])c([H])c(N4C([H])([H])C([H])([H])N([H])C([H])([H])C4([H])[H])c([H])c3[H])c([H])nc12
     RDKit          3D

 45 49  0  0  0  0  0  0  0  0999 V2000
   -6.3827    1.2195   -0.5296 C   0  0  0  0  0  0  0  0  0  0  0  0
   -4.9730    0.8666   -0.8806 C   0  0  0  0  0  0  0  0  0  0  0  0
   -4.2622    0.1098    0.1099 N   0  0  0  0  0  0  0  0  0  0  0  0
   -4.9849   -0.5750    1.1152 C   0  0  0  0  0  0  0  0  0  0  0  0
   -6.3735   -0.8667    0.6913 C   0  0  0  0  0  0  0  0  0  0  0  0
   -7.1135    0.2137    0.1513 N   0  0  0  0  0  0  0  0  0  0  0  0
   -2.8468    0.0616    0.0563 C   0  0  0  0  0  0  0  0  0  0  0  0
   -2.1536   -0.5384    1.0861 C   0  0  0  0  0  0  0  0  0  0  0  0
   -0.7753   -0.5770    1.0089 C   0  0  0  0  0  0  0  0  0  0  0  0
   -0.0569   -0.0524   -0.0338 C   0  0  0  0  0  0  0  0  0  0  0  0
   -0.7557    0.5441   -1.0566 C   0  0  0  0  0  0  0  0  0  0  0  0
   -2.1403    0.6010   -1.0124 C   0  0  0  0  0  0  0  0  0  0  0  0
    1.4127   -0.1223   -0.0624 C   0  0  0  0  0  0  0  0  0  0  0  0
    2.1671    0.8534   -0.6686 C   0  0  0  0  0  0  0  0  0  0  0  0
    3.5107    0.7629   -0.6799 N   0  0  0  0  0  0  0  0  0  0  0  0
    4.0850   -0.3098   -0.0805 C   0  0  0  0  0  0  0  0  0  0  0  0
    5.4365   -0.6198    0.0356 C   0  0  0  0  0  0  0  0  0  0  0  0
    5.4581   -1.8107    0.7302 C   0  0  0  0  0  0  0  0  0  0  0  0
    4.2022   -2.1972    1.0164 N   0  0  0  0  0  0  0  0  0  0  0  0
    3.3688   -1.2759    0.5183 N   0  0  0  0  0  0  0  0  0  0  0  0
    2.0266   -1.1880    0.5311 C   0  0  0  0  0  0  0  0  0  0  0  0
    6.5545    0.1654   -0.4763 C   0  0  0  0  0  0  0  0  0  0  0  0
    6.7291    1.5477   -0.3748 C   0  0  0  0  0  0  0  0  0  0  0  0
    7.8880    1.8752   -0.9762 N   0  0  0  0  0  0  0  0  0  0  0  0
    8.4659    0.7662   -1.4595 N   0  0  0  0  0  0  0  0  0  0  0  0
    7.6650   -0.2701   -1.1606 C   0  0  0  0  0  0  0  0  0  0  0  0
   -6.3714    2.1420    0.0870 H   0  0  0  0  0  0  0  0  0  0  0  0
   -6.9131    1.4760   -1.4709 H   0  0  0  0  0  0  0  0  0  0  0  0
   -4.3849    1.8258   -1.0069 H   0  0  0  0  0  0  0  0  0  0  0  0
   -4.8983    0.3201   -1.8512 H   0  0  0  0  0  0  0  0  0  0  0  0
   -4.4814   -1.5746    1.2795 H   0  0  0  0  0  0  0  0  0  0  0  0
   -4.9434   -0.0853    2.1179 H   0  0  0  0  0  0  0  0  0  0  0  0
   -6.9341   -1.2474    1.5927 H   0  0  0  0  0  0  0  0  0  0  0  0
   -6.3879   -1.7113   -0.0293 H   0  0  0  0  0  0  0  0  0  0  0  0
   -7.7703    0.6657    0.8462 H   0  0  0  0  0  0  0  0  0  0  0  0
   -2.6770   -0.9737    1.9484 H   0  0  0  0  0  0  0  0  0  0  0  0
   -0.2315   -1.0515    1.8236 H   0  0  0  0  0  0  0  0  0  0  0  0
   -0.2360    0.9794   -1.9134 H   0  0  0  0  0  0  0  0  0  0  0  0
   -2.6942    1.0647   -1.8106 H   0  0  0  0  0  0  0  0  0  0  0  0
    1.6937    1.7189   -1.1514 H   0  0  0  0  0  0  0  0  0  0  0  0
    6.3717   -2.3248    0.9865 H   0  0  0  0  0  0  0  0  0  0  0  0
    1.4712   -1.9908    1.0268 H   0  0  0  0  0  0  0  0  0  0  0  0
    5.9989    2.1692    0.1236 H   0  0  0  0  0  0  0  0  0  0  0  0
    9.3694    0.7025   -1.9746 H   0  0  0  0  0  0  0  0  0  0  0  0
    7.8666   -1.2889   -1.4201 H   0  0  0  0  0  0  0  0  0  0  0  0
  1  2  1  0
  2  3  1  0
  3  4  1  0
  4  5  1  0
  5  6  1  0
  3  7  1  0
  7  8  2  0
  8  9  1  0
  9 10  2  0
 10 11  1  0
 11 12  2  0
 10 13  1  0
 13 14  1  0
 14 15  2  0
 15 16  1  0
 16 17  2  0
 17 18  1  0
 18 19  2  0
 19 20  1  0
 20 21  1  0
 17 22  1  0
 22 23  1  0
 23 24  2  0
 24 25  1  0
 25 26  1  0
  6  1  1  0
 12  7  1  0
 21 13  2  0
 26 22  2  0
 20 16  1  0
  1 27  1  0
  1 28  1  0
  2 29  1  0
  2 30  1  0
  4 31  1  0
  4 32  1  0
  5 33  1  0
  5 34  1  0
  6 35  1  0
  8 36  1  0
  9 37  1  0
 11 38  1  0
 12 39  1  0
 14 40  1  0
 18 41  1  0
 21 42  1  0
 23 43  1  0
 25 44  1  0
 26 45  1  0
M  END
$$$$
[H]O[C@@]1([H])C([H])([H])C([H])([H])[C@@]2([H])[C@@]3([H])C([H])([H])C([H])([H])[C@]([H])(OC(=O)c4c([H])c([H])c([N+](=O)[O-])c([H])c4[H])[C@]4(C([H])([H])[H])C(=O)O[C@]([H])(C([H])([H])[H])[C@@]4(C([H])([H])[H])C([H])([H])C([H])([H])[C@]3([H])[C@@]2(C([H])([H])[H])C([H])([H])C1([H])[H]
     RDKit          3D

 76 80  0  0  0  0  0  0  0  0999 V2000
    0.0545   -4.6615   -0.7826 C   0  0  0  0  0  0  0  0  0  0  0  0
    0.3893   -3.5935    0.2207 C   0  0  1  0  0  0  0  0  0  0  0  0
    1.7718   -3.6364    0.5947 O   0  0  0  0  0  0  0  0  0  0  0  0
    2.2975   -2.3530    0.5767 C   0  0  0  0  0  0  0  0  0  0  0  0
    3.4828   -2.0529    0.5568 O   0  0  0  0  0  0  0  0  0  0  0  0
    1.1014   -1.4605    0.5871 C   0  0  1  0  0  0  0  0  0  0  0  0
    0.6080   -1.6813    2.0175 C   0  0  0  0  0  0  0  0  0  0  0  0
    1.5336   -0.0880    0.3988 C   0  0  2  0  0  0  0  0  0  0  0  0
    0.6941    0.7852   -0.5197 C   0  0  0  0  0  0  0  0  0  0  0  0
   -0.6062    1.2101    0.0957 C   0  0  0  0  0  0  0  0  0  0  0  0
   -1.8061    0.7420   -0.6502 C   0  0  2  0  0  0  0  0  0  0  0  0
   -3.0666    1.5806   -0.3723 C   0  0  2  0  0  0  0  0  0  0  0  0
   -2.9843    2.3320    0.9076 C   0  0  0  0  0  0  0  0  0  0  0  0
   -4.3185    2.7408    1.4645 C   0  0  0  0  0  0  0  0  0  0  0  0
   -5.4565    2.5221    0.4950 C   0  0  2  0  0  0  0  0  0  0  0  0
   -6.5143    3.3753    0.8845 O   0  0  0  0  0  0  0  0  0  0  0  0
   -5.9455    1.1212    0.6623 C   0  0  0  0  0  0  0  0  0  0  0  0
   -4.7852    0.1985    0.8341 C   0  0  0  0  0  0  0  0  0  0  0  0
   -3.7790    0.2485   -0.2653 C   0  0  1  0  0  0  0  0  0  0  0  0
   -4.2839   -0.1672   -1.6257 C   0  0  0  0  0  0  0  0  0  0  0  0
   -2.4718   -0.3279    0.1493 C   0  0  1  0  0  0  0  0  0  0  0  0
   -2.1179   -1.7140   -0.1603 C   0  0  0  0  0  0  0  0  0  0  0  0
   -0.9198   -1.9564   -0.9817 C   0  0  0  0  0  0  0  0  0  0  0  0
    0.3774   -2.1930   -0.4388 C   0  0  2  0  0  0  0  0  0  0  0  0
    1.3542   -2.3766   -1.6213 C   0  0  0  0  0  0  0  0  0  0  0  0
    2.8672    0.1456    0.0067 O   0  0  0  0  0  0  0  0  0  0  0  0
    3.7171    0.9525    0.7580 C   0  0  0  0  0  0  0  0  0  0  0  0
    3.2578    1.4714    1.8059 O   0  0  0  0  0  0  0  0  0  0  0  0
    5.0920    1.2087    0.3754 C   0  0  0  0  0  0  0  0  0  0  0  0
    5.6616    0.6728   -0.7602 C   0  0  0  0  0  0  0  0  0  0  0  0
    6.9884    0.9392   -1.1004 C   0  0  0  0  0  0  0  0  0  0  0  0
    7.7720    1.7486   -0.3087 C   0  0  0  0  0  0  0  0  0  0  0  0
    7.2117    2.2861    0.8242 C   0  0  0  0  0  0  0  0  0  0  0  0
    5.8826    2.0169    1.1612 C   0  0  0  0  0  0  0  0  0  0  0  0
    9.1321    2.0083   -0.6776 N   0  0  0  0  0  0  0  0  0  0  0  0
    9.6593    1.4534   -1.8184 O   0  0  0  0  0  0  0  0  0  0  0  0
    9.8781    2.7270   -0.0029 O   0  0  0  0  0  0  0  0  0  0  0  0
   -1.0546   -4.8221   -0.7294 H   0  0  0  0  0  0  0  0  0  0  0  0
    0.4984   -5.6163   -0.3879 H   0  0  0  0  0  0  0  0  0  0  0  0
    0.3988   -4.4442   -1.7930 H   0  0  0  0  0  0  0  0  0  0  0  0
   -0.3023   -3.6695    1.0506 H   0  0  0  0  0  0  0  0  0  0  0  0
    1.2632   -0.9870    2.6292 H   0  0  0  0  0  0  0  0  0  0  0  0
   -0.3985   -1.3904    2.2246 H   0  0  0  0  0  0  0  0  0  0  0  0
    0.8092   -2.6720    2.4172 H   0  0  0  0  0  0  0  0  0  0  0  0
    1.4221    0.4669    1.3887 H   0  0  0  0  0  0  0  0  0  0  0  0
    0.6573    0.4628   -1.5553 H   0  0  0  0  0  0  0  0  0  0  0  0
    1.2948    1.7517   -0.5701 H   0  0  0  0  0  0  0  0  0  0  0  0
   -0.7123    2.3104    0.2333 H   0  0  0  0  0  0  0  0  0  0  0  0
   -0.5931    0.8073    1.1513 H   0  0  0  0  0  0  0  0  0  0  0  0
   -1.7298    0.6329   -1.7268 H   0  0  0  0  0  0  0  0  0  0  0  0
   -3.3680    2.2265   -1.2019 H   0  0  0  0  0  0  0  0  0  0  0  0
   -2.3960    1.8565    1.7038 H   0  0  0  0  0  0  0  0  0  0  0  0
   -2.4438    3.2951    0.6664 H   0  0  0  0  0  0  0  0  0  0  0  0
   -4.3546    3.8395    1.7276 H   0  0  0  0  0  0  0  0  0  0  0  0
   -4.5719    2.2258    2.4212 H   0  0  0  0  0  0  0  0  0  0  0  0
   -5.2090    2.7960   -0.5332 H   0  0  0  0  0  0  0  0  0  0  0  0
   -6.3021    4.3144    0.6152 H   0  0  0  0  0  0  0  0  0  0  0  0
   -6.5386    0.7634   -0.2052 H   0  0  0  0  0  0  0  0  0  0  0  0
   -6.5480    1.0837    1.5960 H   0  0  0  0  0  0  0  0  0  0  0  0
   -4.2467    0.3134    1.7959 H   0  0  0  0  0  0  0  0  0  0  0  0
   -5.1929   -0.8449    0.8494 H   0  0  0  0  0  0  0  0  0  0  0  0
   -4.7408    0.6989   -2.1500 H   0  0  0  0  0  0  0  0  0  0  0  0
   -4.9997   -1.0027   -1.5857 H   0  0  0  0  0  0  0  0  0  0  0  0
   -3.4295   -0.4895   -2.2641 H   0  0  0  0  0  0  0  0  0  0  0  0
   -2.3169   -0.1259    1.2509 H   0  0  0  0  0  0  0  0  0  0  0  0
   -3.0323   -2.1627   -0.6631 H   0  0  0  0  0  0  0  0  0  0  0  0
   -2.0316   -2.3552    0.7680 H   0  0  0  0  0  0  0  0  0  0  0  0
   -0.9682   -1.2361   -1.8555 H   0  0  0  0  0  0  0  0  0  0  0  0
   -1.1504   -2.9239   -1.5629 H   0  0  0  0  0  0  0  0  0  0  0  0
    2.0150   -1.4941   -1.7294 H   0  0  0  0  0  0  0  0  0  0  0  0
    2.0125   -3.2348   -1.5016 H   0  0  0  0  0  0  0  0  0  0  0  0
    0.8148   -2.4932   -2.5749 H   0  0  0  0  0  0  0  0  0  0  0  0
    5.0339    0.0336   -1.3805 H   0  0  0  0  0  0  0  0  0  0  0  0
    7.3980    0.4998   -1.9992 H   0  0  0  0  0  0  0  0  0  0  0  0
    7.8364    2.9222    1.4414 H   0  0  0  0  0  0  0  0  0  0  0  0
    5.4485    2.4391    2.0478 H   0  0  0  0  0  0  0  0  0  0  0  0
  1  2  1  0
  2  3  1  0
  3  4  1  0
  4  5  2  0
  4  6  1  0
  6  7  1  1
  6  8  1  0
  8  9  1  0
  9 10  1  0
 10 11  1  0
 11 12  1  0
 12 13  1  0
 13 14  1  0
 14 15  1  0
 15 16  1  0
 15 17  1  0
 17 18  1  0
 18 19  1  0
 19 20  1  6
 19 21  1  0
 21 22  1  0
 22 23  1  0
 23 24  1  0
 24 25  1  6
  8 26  1  0
 26 27  1  0
 27 28  2  0
 27 29  1  0
 29 30  2  0
 30 31  1  0
 31 32  2  0
 32 33  1  0
 33 34  2  0
 32 35  1  0
 35 36  1  0
 35 37  2  0
 24  2  1  0
 34 29  1  0
 24  6  1  0
 21 11  1  0
 19 12  1  0
  1 38  1  0
  1 39  1  0
  1 40  1  0
  2 41  1  1
  7 42  1  0
  7 43  1  0
  7 44  1  0
  8 45  1  1
  9 46  1  0
  9 47  1  0
 10 48  1  0
 10 49  1  0
 11 50  1  6
 12 51  1  6
 13 52  1  0
 13 53  1  0
 14 54  1  0
 14 55  1  0
 15 56  1  6
 16 57  1  0
 17 58  1  0
 17 59  1  0
 18 60  1  0
 18 61  1  0
 20 62  1  0
 20 63  1  0
 20 64  1  0
 21 65  1  1
 22 66  1  0
 22 67  1  0
 23 68  1  0
 23 69  1  0
 25 70  1  0
 25 71  1  0
 25 72  1  0
 30 73  1  0
 31 74  1  0
 33 75  1  0
 34 76  1  0
M  CHG  2  35   1  36  -1
M  END
$$$$
[H]N=C(N([H])[H])N([H])C([H])([H])C([H])([H])C([H])([H])[C@]([H])(C(=O)N([H])[C@]([H])(C(=O)N([H])C([H])([H])C(=O)N([H])[H])C([H])([H])c1c([H])c([H])c([H])c([H])c1[H])N([H])C(=O)[C@@]([H])(N([H])[H])C([H])([H])c1c(C([H])([H])[H])c([H])c(O[H])c([H])c1C([H])([H])[H]
     RDKit          3D

 81 82  0  0  0  0  0  0  0  0999 V2000
    4.7398   -2.3697    3.0400 C   0  0  0  0  0  0  0  0  0  0  0  0
    5.7734   -1.7320    2.1949 C   0  0  0  0  0  0  0  0  0  0  0  0
    7.1129   -2.0872    2.3827 C   0  0  0  0  0  0  0  0  0  0  0  0
    8.1431   -1.5385    1.6578 C   0  0  0  0  0  0  0  0  0  0  0  0
    9.4622   -1.9114    1.8664 O   0  0  0  0  0  0  0  0  0  0  0  0
    7.7900   -0.5979    0.7095 C   0  0  0  0  0  0  0  0  0  0  0  0
    6.4829   -0.2037    0.4782 C   0  0  0  0  0  0  0  0  0  0  0  0
    6.1564    0.8267   -0.5193 C   0  0  0  0  0  0  0  0  0  0  0  0
    5.4684   -0.7969    1.2472 C   0  0  0  0  0  0  0  0  0  0  0  0
    4.0912   -0.3853    1.0083 C   0  0  0  0  0  0  0  0  0  0  0  0
    3.2454   -1.4238    0.3139 C   0  0  2  0  0  0  0  0  0  0  0  0
    3.7932   -1.8116   -0.9755 N   0  0  0  0  0  0  0  0  0  0  0  0
    1.8899   -0.8010    0.0546 C   0  0  0  0  0  0  0  0  0  0  0  0
    1.3131   -0.3331    1.0399 O   0  0  0  0  0  0  0  0  0  0  0  0
    1.3374   -0.7634   -1.2272 N   0  0  0  0  0  0  0  0  0  0  0  0
    0.0762   -0.1903   -1.5432 C   0  0  2  0  0  0  0  0  0  0  0  0
    0.0525    1.2526   -1.8659 C   0  0  0  0  0  0  0  0  0  0  0  0
    0.5370    2.1865   -0.8074 C   0  0  0  0  0  0  0  0  0  0  0  0
    0.4569    3.6438   -1.2984 C   0  0  0  0  0  0  0  0  0  0  0  0
    0.9399    4.4799   -0.2345 N   0  0  0  0  0  0  0  0  0  0  0  0
    1.0051    5.9031   -0.3446 C   0  0  0  0  0  0  0  0  0  0  0  0
    2.2754    6.5061   -0.4211 N   0  0  0  0  0  0  0  0  0  0  0  0
   -0.0531    6.6175   -0.3811 N   0  0  0  0  0  0  0  0  0  0  0  0
   -1.1000   -0.6937   -0.7701 C   0  0  0  0  0  0  0  0  0  0  0  0
   -0.8961   -1.6113    0.0506 O   0  0  0  0  0  0  0  0  0  0  0  0
   -2.3739   -0.1606   -0.9621 N   0  0  0  0  0  0  0  0  0  0  0  0
   -3.5595   -0.6534   -0.2150 C   0  0  1  0  0  0  0  0  0  0  0  0
   -4.0933    0.4734    0.5984 C   0  0  0  0  0  0  0  0  0  0  0  0
   -5.2836    0.1675    1.3733 C   0  0  0  0  0  0  0  0  0  0  0  0
   -6.5603    0.5282    0.8973 C   0  0  0  0  0  0  0  0  0  0  0  0
   -7.7065    0.2495    1.6191 C   0  0  0  0  0  0  0  0  0  0  0  0
   -7.6091   -0.3997    2.8374 C   0  0  0  0  0  0  0  0  0  0  0  0
   -6.3835   -0.7635    3.3310 C   0  0  0  0  0  0  0  0  0  0  0  0
   -5.2459   -0.4707    2.5835 C   0  0  0  0  0  0  0  0  0  0  0  0
   -4.4689   -1.2966   -1.1649 C   0  0  0  0  0  0  0  0  0  0  0  0
   -4.2114   -1.1803   -2.4393 O   0  0  0  0  0  0  0  0  0  0  0  0
   -5.6139   -2.0483   -0.8684 N   0  0  0  0  0  0  0  0  0  0  0  0
   -6.4036   -2.6240   -1.9543 C   0  0  0  0  0  0  0  0  0  0  0  0
   -5.6530   -3.6339   -2.7019 C   0  0  0  0  0  0  0  0  0  0  0  0
   -6.2189   -4.2829   -3.8220 N   0  0  0  0  0  0  0  0  0  0  0  0
   -4.4738   -3.9609   -2.3691 O   0  0  0  0  0  0  0  0  0  0  0  0
    4.6707   -3.4618    2.8578 H   0  0  0  0  0  0  0  0  0  0  0  0
    3.7743   -1.8457    3.0607 H   0  0  0  0  0  0  0  0  0  0  0  0
    5.1328   -2.2703    4.0996 H   0  0  0  0  0  0  0  0  0  0  0  0
    7.3381   -2.8293    3.1366 H   0  0  0  0  0  0  0  0  0  0  0  0
   10.2487   -1.5514    1.3839 H   0  0  0  0  0  0  0  0  0  0  0  0
    8.5767   -0.1282    0.1056 H   0  0  0  0  0  0  0  0  0  0  0  0
    7.1454    1.2822   -0.8336 H   0  0  0  0  0  0  0  0  0  0  0  0
    5.6880    0.4758   -1.4382 H   0  0  0  0  0  0  0  0  0  0  0  0
    5.6305    1.7013   -0.0417 H   0  0  0  0  0  0  0  0  0  0  0  0
    4.0238    0.5258    0.3516 H   0  0  0  0  0  0  0  0  0  0  0  0
    3.5499   -0.1128    1.9507 H   0  0  0  0  0  0  0  0  0  0  0  0
    3.0738   -2.3394    0.8920 H   0  0  0  0  0  0  0  0  0  0  0  0
    3.8924   -1.0382   -1.6285 H   0  0  0  0  0  0  0  0  0  0  0  0
    3.2689   -2.6342   -1.3229 H   0  0  0  0  0  0  0  0  0  0  0  0
    1.9463   -1.2160   -1.9949 H   0  0  0  0  0  0  0  0  0  0  0  0
   -0.1665   -0.6916   -2.5853 H   0  0  0  0  0  0  0  0  0  0  0  0
   -0.9212    1.5283   -2.2966 H   0  0  0  0  0  0  0  0  0  0  0  0
    0.7825    1.3927   -2.7273 H   0  0  0  0  0  0  0  0  0  0  0  0
   -0.1059    2.1651    0.0922 H   0  0  0  0  0  0  0  0  0  0  0  0
    1.6053    2.0222   -0.6057 H   0  0  0  0  0  0  0  0  0  0  0  0
   -0.6217    3.8647   -1.5041 H   0  0  0  0  0  0  0  0  0  0  0  0
    1.0657    3.7882   -2.2147 H   0  0  0  0  0  0  0  0  0  0  0  0
    1.2669    4.0797    0.6907 H   0  0  0  0  0  0  0  0  0  0  0  0
    2.8525    6.3866   -1.2701 H   0  0  0  0  0  0  0  0  0  0  0  0
    2.6326    7.0633    0.3692 H   0  0  0  0  0  0  0  0  0  0  0  0
   -0.0303    7.6619   -0.4651 H   0  0  0  0  0  0  0  0  0  0  0  0
   -2.5543    0.5956   -1.6303 H   0  0  0  0  0  0  0  0  0  0  0  0
   -3.1679   -1.4338    0.4540 H   0  0  0  0  0  0  0  0  0  0  0  0
   -4.3281    1.3786   -0.0300 H   0  0  0  0  0  0  0  0  0  0  0  0
   -3.2693    0.7744    1.3227 H   0  0  0  0  0  0  0  0  0  0  0  0
   -6.6675    1.0353   -0.0371 H   0  0  0  0  0  0  0  0  0  0  0  0
   -8.6965    0.5106    1.2830 H   0  0  0  0  0  0  0  0  0  0  0  0
   -8.5323   -0.6079    3.3893 H   0  0  0  0  0  0  0  0  0  0  0  0
   -6.3233   -1.2614    4.2775 H   0  0  0  0  0  0  0  0  0  0  0  0
   -4.2917   -0.7781    3.0152 H   0  0  0  0  0  0  0  0  0  0  0  0
   -5.8948   -2.2396    0.1067 H   0  0  0  0  0  0  0  0  0  0  0  0
   -7.3255   -3.0322   -1.5337 H   0  0  0  0  0  0  0  0  0  0  0  0
   -6.6300   -1.7431   -2.6233 H   0  0  0  0  0  0  0  0  0  0  0  0
   -6.4626   -5.2927   -3.7234 H   0  0  0  0  0  0  0  0  0  0  0  0
   -6.4105   -3.8342   -4.7314 H   0  0  0  0  0  0  0  0  0  0  0  0
  1  2  1  0
  2  3  2  0
  3  4  1  0
  4  5  1  0
  4  6  2  0
  6  7  1  0
  7  8  1  0
  7  9  2  0
  9 10  1  0
 10 11  1  0
 11 12  1  0
 11 13  1  0
 13 14  2  0
 13 15  1  0
 15 16  1  0
 16 17  1  0
 17 18  1  0
 18 19  1  0
 19 20  1  0
 20 21  1  0
 21 22  1  0
 21 23  2  3
 16 24  1  0
 24 25  2  0
 24 26  1  0
 26 27  1  0
 27 28  1  0
 28 29  1  0
 29 30  2  0
 30 31  1  0
 31 32  2  0
 32 33  1  0
 33 34  2  0
 27 35  1  0
 35 36  2  0
 35 37  1  0
 37 38  1  0
 38 39  1  0
 39 40  1  0
 39 41  2  0
  9  2  1  0
 34 29  1  0
  1 42  1  0
  1 43  1  0
  1 44  1  0
  3 45  1  0
  5 46  1  0
  6 47  1  0
  8 48  1  0
  8 49  1  0
  8 50  1  0
 10 51  1  0
 10 52  1  0
 11 53  1  1
 12 54  1  0
 12 55  1  0
 15 56  1  0
 16 57  1  6
 17 58  1  0
 17 59  1  0
 18 60  1  0
 18 61  1  0
 19 62  1  0
 19 63  1  0
 20 64  1  0
 22 65  1  0
 22 66  1  0
 23 67  1  0
 26 68  1  0
 27 69  1  1
 28 70  1  0
 28 71  1  0
 30 72  1  0
 31 73  1  0
 32 74  1  0
 33 75  1  0
 34 76  1  0
 37 77  1  0
 38 78  1  0
 38 79  1  0
 40 80  1  0
 40 81  1  0
M  END
$$$$
[H]OC(=O)[C@@]([H])(N([H])[C@]1([H])C([H])([H])C([H])([H])[C@@]([H])(n2c([H])c(-c3c([H])c([H])c(Oc4c([H])c([H])c([H])c([H])c4[H])c([H])c3[H])c3c(N([H])[H])nc([H])nc32)C([H])([H])C1([H])[H])C([H])([H])c1c([H])c([H])c([H])c([H])c1[H]
     RDKit          3D

 74 79  0  0  0  0  0  0  0  0999 V2000
    4.1115   -2.7759    2.1999 N   0  0  0  0  0  0  0  0  0  0  0  0
    2.7386   -2.4592    2.3468 C   0  0  0  0  0  0  0  0  0  0  0  0
    1.9806   -3.0276    3.3100 N   0  0  0  0  0  0  0  0  0  0  0  0
    0.6828   -2.7335    3.4694 C   0  0  0  0  0  0  0  0  0  0  0  0
    0.1237   -1.8496    2.6478 N   0  0  0  0  0  0  0  0  0  0  0  0
    0.7923   -1.2247    1.6524 C   0  0  0  0  0  0  0  0  0  0  0  0
    0.4447   -0.3123    0.7296 N   0  0  0  0  0  0  0  0  0  0  0  0
    1.5091   -0.0449    0.0120 C   0  0  0  0  0  0  0  0  0  0  0  0
    2.5925   -0.7967    0.4646 C   0  0  0  0  0  0  0  0  0  0  0  0
    3.9381   -0.8223   -0.0835 C   0  0  0  0  0  0  0  0  0  0  0  0
    4.4151   -1.9077   -0.8027 C   0  0  0  0  0  0  0  0  0  0  0  0
    5.7070   -1.9188   -1.2746 C   0  0  0  0  0  0  0  0  0  0  0  0
    6.5594   -0.8598   -1.0486 C   0  0  0  0  0  0  0  0  0  0  0  0
    7.8859   -0.8503   -1.5214 O   0  0  0  0  0  0  0  0  0  0  0  0
    8.7289    0.1875   -1.1792 C   0  0  0  0  0  0  0  0  0  0  0  0
    8.8307    1.3180   -1.9229 C   0  0  0  0  0  0  0  0  0  0  0  0
    9.6934    2.3552   -1.5525 C   0  0  0  0  0  0  0  0  0  0  0  0
   10.4485    2.2197   -0.4127 C   0  0  0  0  0  0  0  0  0  0  0  0
   10.3634    1.0812    0.3601 C   0  0  0  0  0  0  0  0  0  0  0  0
    9.4911    0.0594   -0.0357 C   0  0  0  0  0  0  0  0  0  0  0  0
    6.1097    0.2385   -0.3343 C   0  0  0  0  0  0  0  0  0  0  0  0
    4.8199    0.2342    0.1291 C   0  0  0  0  0  0  0  0  0  0  0  0
    2.1377   -1.5444    1.5047 C   0  0  0  0  0  0  0  0  0  0  0  0
   -0.9352    0.1937    0.6417 C   0  0  1  0  0  0  0  0  0  0  0  0
   -1.1690    1.1892   -0.3966 C   0  0  0  0  0  0  0  0  0  0  0  0
   -2.1848    0.9141   -1.4646 C   0  0  0  0  0  0  0  0  0  0  0  0
   -3.3988    0.2652   -0.7803 C   0  0  1  0  0  0  0  0  0  0  0  0
   -2.9026   -1.0648   -0.3125 C   0  0  0  0  0  0  0  0  0  0  0  0
   -1.8167   -1.0032    0.6959 C   0  0  0  0  0  0  0  0  0  0  0  0
   -3.9677    1.1236    0.1924 N   0  0  0  0  0  0  0  0  0  0  0  0
   -5.3931    1.4510   -0.0732 C   0  0  1  0  0  0  0  0  0  0  0  0
   -6.1507    0.1519    0.0918 C   0  0  0  0  0  0  0  0  0  0  0  0
   -7.5865    0.1915   -0.1040 C   0  0  0  0  0  0  0  0  0  0  0  0
   -8.0998    0.0265   -1.3868 C   0  0  0  0  0  0  0  0  0  0  0  0
   -9.4684    0.0214   -1.5698 C   0  0  0  0  0  0  0  0  0  0  0  0
  -10.3079    0.1792   -0.4870 C   0  0  0  0  0  0  0  0  0  0  0  0
   -9.8219    0.3455    0.7976 C   0  0  0  0  0  0  0  0  0  0  0  0
   -8.4674    0.3478    0.9593 C   0  0  0  0  0  0  0  0  0  0  0  0
   -5.7934    2.4545    0.9041 C   0  0  0  0  0  0  0  0  0  0  0  0
   -7.0504    3.0016    0.8937 O   0  0  0  0  0  0  0  0  0  0  0  0
   -4.9790    2.8404    1.7786 O   0  0  0  0  0  0  0  0  0  0  0  0
    4.4844   -3.6638    1.7882 H   0  0  0  0  0  0  0  0  0  0  0  0
    4.7906   -2.0336    2.5436 H   0  0  0  0  0  0  0  0  0  0  0  0
    0.0802   -3.2078    4.2593 H   0  0  0  0  0  0  0  0  0  0  0  0
    1.5855    0.6317   -0.7986 H   0  0  0  0  0  0  0  0  0  0  0  0
    3.7418   -2.7552   -0.9867 H   0  0  0  0  0  0  0  0  0  0  0  0
    6.0695   -2.7788   -1.8402 H   0  0  0  0  0  0  0  0  0  0  0  0
    8.2245    1.3990   -2.8129 H   0  0  0  0  0  0  0  0  0  0  0  0
    9.7858    3.2568   -2.1286 H   0  0  0  0  0  0  0  0  0  0  0  0
   11.1244    3.0174   -0.1112 H   0  0  0  0  0  0  0  0  0  0  0  0
   10.9447    0.9690    1.2440 H   0  0  0  0  0  0  0  0  0  0  0  0
    9.4394   -0.8209    0.5810 H   0  0  0  0  0  0  0  0  0  0  0  0
    6.8013    1.0460   -0.1761 H   0  0  0  0  0  0  0  0  0  0  0  0
    4.4542    1.0853    0.6909 H   0  0  0  0  0  0  0  0  0  0  0  0
   -1.0494    0.7145    1.6462 H   0  0  0  0  0  0  0  0  0  0  0  0
   -0.2270    1.4403   -0.9454 H   0  0  0  0  0  0  0  0  0  0  0  0
   -1.4639    2.2029    0.0288 H   0  0  0  0  0  0  0  0  0  0  0  0
   -2.4466    1.8655   -1.9551 H   0  0  0  0  0  0  0  0  0  0  0  0
   -1.7462    0.1942   -2.1867 H   0  0  0  0  0  0  0  0  0  0  0  0
   -4.1387    0.0354   -1.6117 H   0  0  0  0  0  0  0  0  0  0  0  0
   -2.4776   -1.5627   -1.2433 H   0  0  0  0  0  0  0  0  0  0  0  0
   -3.7210   -1.7381    0.0264 H   0  0  0  0  0  0  0  0  0  0  0  0
   -2.2980   -1.1467    1.6975 H   0  0  0  0  0  0  0  0  0  0  0  0
   -1.2324   -1.9663    0.5484 H   0  0  0  0  0  0  0  0  0  0  0  0
   -3.9226    0.8378    1.1710 H   0  0  0  0  0  0  0  0  0  0  0  0
   -5.4792    1.8271   -1.1323 H   0  0  0  0  0  0  0  0  0  0  0  0
   -5.7328   -0.6048   -0.6350 H   0  0  0  0  0  0  0  0  0  0  0  0
   -5.8949   -0.3014    1.0872 H   0  0  0  0  0  0  0  0  0  0  0  0
   -7.4353   -0.0948   -2.2090 H   0  0  0  0  0  0  0  0  0  0  0  0
   -9.8451   -0.1131   -2.5945 H   0  0  0  0  0  0  0  0  0  0  0  0
  -11.3764    0.1764   -0.6198 H   0  0  0  0  0  0  0  0  0  0  0  0
  -10.4888    0.4723    1.6632 H   0  0  0  0  0  0  0  0  0  0  0  0
   -8.0097    0.4749    1.9513 H   0  0  0  0  0  0  0  0  0  0  0  0
   -7.1523    3.9463    0.5226 H   0  0  0  0  0  0  0  0  0  0  0  0
  1  2  1  0
  2  3  2  0
  3  4  1  0
  4  5  2  0
  5  6  1  0
  6  7  1  0
  7  8  1  0
  8  9  2  0
  9 10  1  0
 10 11  2  0
 11 12  1  0
 12 13  2  0
 13 14  1  0
 14 15  1  0
 15 16  2  0
 16 17  1  0
 17 18  2  0
 18 19  1  0
 19 20  2  0
 13 21  1  0
 21 22  2  0
  9 23  1  0
  7 24  1  0
 24 25  1  0
 25 26  1  0
 26 27  1  0
 27 28  1  0
 28 29  1  0
 27 30  1  0
 30 31  1  0
 31 32  1  0
 32 33  1  0
 33 34  2  0
 34 35  1  0
 35 36  2  0
 36 37  1  0
 37 38  2  0
 31 39  1  0
 39 40  1  0
 39 41  2  0
 23  2  1  0
 29 24  1  0
 38 33  1  0
 23  6  2  0
 22 10  1  0
 20 15  1  0
  1 42  1  0
  1 43  1  0
  4 44  1  0
  8 45  1  0
 11 46  1  0
 12 47  1  0
 16 48  1  0
 17 49  1  0
 18 50  1  0
 19 51  1  0
 20 52  1  0
 21 53  1  0
 22 54  1  0
 24 55  1  1
 25 56  1  0
 25 57  1  0
 26 58  1  0
 26 59  1  0
 27 60  1  6
 28 61  1  0
 28 62  1  0
 29 63  1  0
 29 64  1  0
 30 65  1  0
 31 66  1  6
 32 67  1  0
 32 68  1  0
 34 69  1  0
 35 70  1  0
 36 71  1  0
 37 72  1  0
 38 73  1  0
 40 74  1  0
M  END
$$$$
[H]C#CC([H])([H])[N+]([H])(C([H])([H])[H])C([H])([H])C(=C([H])[H])c1c([H])c([H])c(F)c(Br)c1[H].[H]OC(=O)C(=O)[O-]
     RDKit          3D

 37 36  0  0  0  0  0  0  0  0999 V2000
   -1.2939   -0.1486   -0.7352 O   0  0  0  0  0  0  0  0  0  0  0  0
   -0.3604   -0.0204    0.2763 C   0  0  0  0  0  0  0  0  0  0  0  0
   -0.7565   -0.2395    1.4424 O   0  0  0  0  0  0  0  0  0  0  0  0
    0.9988    0.3539   -0.0683 C   0  0  0  0  0  0  0  0  0  0  0  0
    1.8975    0.4665    1.0104 O   0  0  0  0  0  0  0  0  0  0  0  0
    1.3963    0.5719   -1.2205 O   0  0  0  0  0  0  0  0  0  0  0  0
   -2.8164   -0.3962    1.4288 C   0  0  0  0  0  0  0  0  0  0  0  0
   -1.9968   -0.5802    0.2168 N   0  0  0  0  0  0  0  0  0  0  0  0
   -2.6150    0.1054   -0.9004 C   0  0  0  0  0  0  0  0  0  0  0  0
   -3.4106    1.2295   -0.3997 C   0  0  0  0  0  0  0  0  0  0  0  0
   -4.0812    2.1433    0.0185 C   0  0  0  0  0  0  0  0  0  0  0  0
   -0.6700   -0.1173    0.4781 C   0  0  0  0  0  0  0  0  0  0  0  0
    0.3497   -0.6529   -0.4265 C   0  0  0  0  0  0  0  0  0  0  0  0
    0.0513   -1.4765   -1.3795 C   0  0  0  0  0  0  0  0  0  0  0  0
    1.7622   -0.2454   -0.2498 C   0  0  0  0  0  0  0  0  0  0  0  0
    2.0655    0.6579    0.7801 C   0  0  0  0  0  0  0  0  0  0  0  0
    3.3572    1.0760    0.9981 C   0  0  0  0  0  0  0  0  0  0  0  0
    4.4036    0.6296    0.2203 C   0  0  0  0  0  0  0  0  0  0  0  0
    5.6778    1.0682    0.4672 F   0  0  0  0  0  0  0  0  0  0  0  0
    4.1184   -0.2519   -0.7872 C   0  0  0  0  0  0  0  0  0  0  0  0
    5.5335   -0.8907   -1.8816 Br  0  0  0  0  0  0  0  0  0  0  0  0
    2.8038   -0.6775   -1.0091 C   0  0  0  0  0  0  0  0  0  0  0  0
   -1.8818   -0.9838   -0.7051 H   0  0  0  0  0  0  0  0  0  0  0  0
   -2.5869    0.5556    1.9251 H   0  0  0  0  0  0  0  0  0  0  0  0
   -2.5011   -1.2033    2.1217 H   0  0  0  0  0  0  0  0  0  0  0  0
   -3.8626   -0.5531    1.1681 H   0  0  0  0  0  0  0  0  0  0  0  0
   -2.0311   -1.5980    0.0394 H   0  0  0  0  0  0  0  0  0  0  0  0
   -3.2979   -0.5444   -1.4669 H   0  0  0  0  0  0  0  0  0  0  0  0
   -1.8128    0.4606   -1.5704 H   0  0  0  0  0  0  0  0  0  0  0  0
   -4.6703    2.9532    0.4061 H   0  0  0  0  0  0  0  0  0  0  0  0
   -0.6344    1.0010    0.5457 H   0  0  0  0  0  0  0  0  0  0  0  0
   -0.4480   -0.4262    1.5530 H   0  0  0  0  0  0  0  0  0  0  0  0
   -0.9793   -1.7899   -1.5270 H   0  0  0  0  0  0  0  0  0  0  0  0
    0.8090   -1.8869   -2.0677 H   0  0  0  0  0  0  0  0  0  0  0  0
    1.2556    1.0144    1.3955 H   0  0  0  0  0  0  0  0  0  0  0  0
    3.5924    1.7759    1.7961 H   0  0  0  0  0  0  0  0  0  0  0  0
    2.6341   -1.3799   -1.8240 H   0  0  0  0  0  0  0  0  0  0  0  0
  1  2  1  0
  2  3  2  0
  2  4  1  0
  4  5  1  0
  4  6  2  0
  7  8  1  0
  8  9  1  0
  9 10  1  0
 10 11  3  0
  8 12  1  0
 12 13  1  0
 13 14  2  3
 13 15  1  0
 15 16  2  0
 16 17  1  0
 17 18  2  0
 18 19  1  0
 18 20  1  0
 20 21  1  0
 20 22  2  0
 22 15  1  0
  1 23  1  0
  7 24  1  0
  7 25  1  0
  7 26  1  0
  8 27  1  0
  9 28  1  0
  9 29  1  0
 11 30  1  0
 12 31  1  0
 12 32  1  0
 14 33  1  0
 14 34  1  0
 16 35  1  0
 17 36  1  0
 22 37  1  0
M  CHG  2   5  -1   8   1
M  END
$$$$
[H]c1nc(N([H])c2c([H])c([H])c(N3C([H])([H])C([H])([H])C([H])(N4C([H])([H])C([H])([H])N(C(=O)C([H])([H])[H])C([H])([H])C4([H])[H])C([H])([H])C3([H])[H])c([H])c2OC([H])([H])[H])nc(N([H])c2c([H])c([H])c([H])c([H])c2S(=O)(=O)C([H])(C([H])([H])[H])C([H])([H])[H])c1Cl
     RDKit          3D

 84 88  0  0  0  0  0  0  0  0999 V2000
    1.1803   -3.1691    1.9825 C   0  0  0  0  0  0  0  0  0  0  0  0
    1.6081   -2.1417    1.0971 O   0  0  0  0  0  0  0  0  0  0  0  0
    0.6567   -1.4623    0.3535 C   0  0  0  0  0  0  0  0  0  0  0  0
   -0.6676   -1.7560    0.4617 C   0  0  0  0  0  0  0  0  0  0  0  0
   -1.6479   -1.1153   -0.2516 C   0  0  0  0  0  0  0  0  0  0  0  0
   -1.2299   -0.1278   -1.1125 C   0  0  0  0  0  0  0  0  0  0  0  0
    0.1417    0.1860   -1.2311 C   0  0  0  0  0  0  0  0  0  0  0  0
    1.1096   -0.4508   -0.5235 C   0  0  0  0  0  0  0  0  0  0  0  0
    2.4909   -0.2046   -0.6029 N   0  0  0  0  0  0  0  0  0  0  0  0
    3.1421    0.8124   -1.2981 C   0  0  0  0  0  0  0  0  0  0  0  0
    2.5005    1.7454   -2.0046 N   0  0  0  0  0  0  0  0  0  0  0  0
    3.1392    2.7102   -2.6614 C   0  0  0  0  0  0  0  0  0  0  0  0
    4.5130    2.7553   -2.6158 C   0  0  0  0  0  0  0  0  0  0  0  0
    5.3617    3.9882   -3.4682 Cl  0  0  0  0  0  0  0  0  0  0  0  0
    5.2436    1.8007   -1.8877 C   0  0  0  0  0  0  0  0  0  0  0  0
    6.6424    1.8939   -1.8330 N   0  0  0  0  0  0  0  0  0  0  0  0
    7.5886    1.0612   -1.2276 C   0  0  0  0  0  0  0  0  0  0  0  0
    7.2438   -0.2394   -0.8805 C   0  0  0  0  0  0  0  0  0  0  0  0
    8.1903   -1.1324   -0.3718 C   0  0  0  0  0  0  0  0  0  0  0  0
    9.4762   -0.6903   -0.2249 C   0  0  0  0  0  0  0  0  0  0  0  0
    9.8134    0.5928   -0.5673 C   0  0  0  0  0  0  0  0  0  0  0  0
    8.8936    1.5200   -1.0781 C   0  0  0  0  0  0  0  0  0  0  0  0
    9.4488    3.1307   -1.3411 S   0  0  0  0  0  0  0  0  0  0  0  0
    9.1659    3.6641   -2.7250 O   0  0  0  0  0  0  0  0  0  0  0  0
   10.9889    3.1288   -1.2803 O   0  0  0  0  0  0  0  0  0  0  0  0
    8.9377    4.3117   -0.1581 C   0  0  0  0  0  0  0  0  0  0  0  0
    7.4879    4.4708    0.0863 C   0  0  0  0  0  0  0  0  0  0  0  0
    9.5748    4.0207    1.2182 C   0  0  0  0  0  0  0  0  0  0  0  0
    4.5130    0.8896   -1.2752 N   0  0  0  0  0  0  0  0  0  0  0  0
   -3.0268   -1.3860   -0.1422 N   0  0  0  0  0  0  0  0  0  0  0  0
   -3.4735   -2.1319    1.0258 C   0  0  0  0  0  0  0  0  0  0  0  0
   -4.8505   -1.5537    1.3297 C   0  0  0  0  0  0  0  0  0  0  0  0
   -5.7518   -1.9761    0.1924 C   0  0  0  0  0  0  0  0  0  0  0  0
   -5.3135   -1.4142   -1.0994 C   0  0  0  0  0  0  0  0  0  0  0  0
   -3.9210   -0.9358   -1.1552 C   0  0  0  0  0  0  0  0  0  0  0  0
   -7.0862   -1.6258    0.5735 N   0  0  0  0  0  0  0  0  0  0  0  0
   -7.6128   -2.2437    1.7241 C   0  0  0  0  0  0  0  0  0  0  0  0
   -9.1144   -2.3573    1.7823 C   0  0  0  0  0  0  0  0  0  0  0  0
   -9.6728   -1.1370    1.2554 N   0  0  0  0  0  0  0  0  0  0  0  0
   -8.7950   -0.0222    1.0045 C   0  0  0  0  0  0  0  0  0  0  0  0
   -7.6270   -0.4246    0.1145 C   0  0  0  0  0  0  0  0  0  0  0  0
  -11.0459   -1.0548    0.9991 C   0  0  0  0  0  0  0  0  0  0  0  0
  -11.9509   -2.2202    1.2701 C   0  0  0  0  0  0  0  0  0  0  0  0
  -11.5176    0.0277    0.5313 O   0  0  0  0  0  0  0  0  0  0  0  0
    0.7092   -4.0023    1.3827 H   0  0  0  0  0  0  0  0  0  0  0  0
    0.3671   -2.7831    2.6169 H   0  0  0  0  0  0  0  0  0  0  0  0
    2.0121   -3.6285    2.5233 H   0  0  0  0  0  0  0  0  0  0  0  0
   -1.0260   -2.5407    1.1409 H   0  0  0  0  0  0  0  0  0  0  0  0
   -1.9393    0.4328   -1.7190 H   0  0  0  0  0  0  0  0  0  0  0  0
    0.4037    0.9687   -1.9325 H   0  0  0  0  0  0  0  0  0  0  0  0
    3.1474   -0.8888   -0.0676 H   0  0  0  0  0  0  0  0  0  0  0  0
    2.6221    3.4744   -3.2408 H   0  0  0  0  0  0  0  0  0  0  0  0
    7.0679    2.7302   -2.3649 H   0  0  0  0  0  0  0  0  0  0  0  0
    6.2469   -0.6526   -0.9833 H   0  0  0  0  0  0  0  0  0  0  0  0
    7.9094   -2.1316   -0.1055 H   0  0  0  0  0  0  0  0  0  0  0  0
   10.2019   -1.4015    0.1720 H   0  0  0  0  0  0  0  0  0  0  0  0
   10.8531    0.9126   -0.4362 H   0  0  0  0  0  0  0  0  0  0  0  0
    9.3465    5.3402   -0.4044 H   0  0  0  0  0  0  0  0  0  0  0  0
    7.0857    3.5759    0.6027 H   0  0  0  0  0  0  0  0  0  0  0  0
    7.3441    5.3507    0.7829 H   0  0  0  0  0  0  0  0  0  0  0  0
    6.9849    4.7099   -0.8652 H   0  0  0  0  0  0  0  0  0  0  0  0
    9.3395    4.8436    1.9203 H   0  0  0  0  0  0  0  0  0  0  0  0
    9.1420    3.0924    1.5782 H   0  0  0  0  0  0  0  0  0  0  0  0
   10.6609    3.9021    1.0675 H   0  0  0  0  0  0  0  0  0  0  0  0
   -3.6108   -3.2101    0.8255 H   0  0  0  0  0  0  0  0  0  0  0  0
   -2.8303   -1.9505    1.8843 H   0  0  0  0  0  0  0  0  0  0  0  0
   -4.8153   -0.4403    1.3255 H   0  0  0  0  0  0  0  0  0  0  0  0
   -5.2580   -1.9676    2.2596 H   0  0  0  0  0  0  0  0  0  0  0  0
   -5.6630   -3.0972    0.1535 H   0  0  0  0  0  0  0  0  0  0  0  0
   -5.4090   -2.2236   -1.8921 H   0  0  0  0  0  0  0  0  0  0  0  0
   -6.0133   -0.5742   -1.3990 H   0  0  0  0  0  0  0  0  0  0  0  0
   -3.4450   -1.1615   -2.1514 H   0  0  0  0  0  0  0  0  0  0  0  0
   -3.9095    0.1913   -1.1227 H   0  0  0  0  0  0  0  0  0  0  0  0
   -7.2412   -1.7531    2.6653 H   0  0  0  0  0  0  0  0  0  0  0  0
   -7.2099   -3.2893    1.7756 H   0  0  0  0  0  0  0  0  0  0  0  0
   -9.3667   -2.4587    2.8823 H   0  0  0  0  0  0  0  0  0  0  0  0
   -9.4570   -3.2631    1.2498 H   0  0  0  0  0  0  0  0  0  0  0  0
   -8.3244    0.2562    1.9888 H   0  0  0  0  0  0  0  0  0  0  0  0
   -9.3146    0.8700    0.6300 H   0  0  0  0  0  0  0  0  0  0  0  0
   -6.8932    0.4145    0.1834 H   0  0  0  0  0  0  0  0  0  0  0  0
   -8.0088   -0.4090   -0.9196 H   0  0  0  0  0  0  0  0  0  0  0  0
  -12.0534   -2.2730    2.3774 H   0  0  0  0  0  0  0  0  0  0  0  0
  -12.9344   -2.0783    0.7717 H   0  0  0  0  0  0  0  0  0  0  0  0
  -11.4690   -3.1198    0.8589 H   0  0  0  0  0  0  0  0  0  0  0  0
  1  2  1  0
  2  3  1  0
  3  4  2  0
  4  5  1  0
  5  6  2  0
  6  7  1  0
  7  8  2  0
  8  9  1  0
  9 10  1  0
 10 11  2  0
 11 12  1  0
 12 13  2  0
 13 14  1  0
 13 15  1  0
 15 16  1  0
 16 17  1  0
 17 18  2  0
 18 19  1  0
 19 20  2  0
 20 21  1  0
 21 22  2  0
 22 23  1  0
 23 24  2  0
 23 25  2  0
 23 26  1  0
 26 27  1  0
 26 28  1  0
 15 29  2  0
  5 30  1  0
 30 31  1  0
 31 32  1  0
 32 33  1  0
 33 34  1  0
 34 35  1  0
 33 36  1  0
 36 37  1  0
 37 38  1  0
 38 39  1  0
 39 40  1  0
 40 41  1  0
 39 42  1  0
 42 43  1  0
 42 44  2  0
  8  3  1  0
 29 10  1  0
 35 30  1  0
 41 36  1  0
 22 17  1  0
  1 45  1  0
  1 46  1  0
  1 47  1  0
  4 48  1  0
  6 49  1  0
  7 50  1  0
  9 51  1  0
 12 52  1  0
 16 53  1  0
 18 54  1  0
 19 55  1  0
 20 56  1  0
 21 57  1  0
 26 58  1  0
 27 59  1  0
 27 60  1  0
 27 61  1  0
 28 62  1  0
 28 63  1  0
 28 64  1  0
 31 65  1  0
 31 66  1  0
 32 67  1  0
 32 68  1  0
 33 69  1  0
 34 70  1  0
 34 71  1  0
 35 72  1  0
 35 73  1  0
 37 74  1  0
 37 75  1  0
 38 76  1  0
 38 77  1  0
 40 78  1  0
 40 79  1  0
 41 80  1  0
 41 81  1  0
 43 82  1  0
 43 83  1  0
 43 84  1  0
M  END
$$$$
[H]N=C(N([H])[H])N([H])C([H])([H])C([H])([H])C([H])([H])[C@@]([H])(C(=O)N([H])[C@]([H])(C(=O)N([H])[H])C([H])([H])c1c([H])c([H])c([H])c([H])c1[H])N([H])C(=O)[C@@]([H])(N([H])C(=O)C([H])([H])[H])C([H])([H])c1c([H])n([H])c2c([H])c([H])c([H])c([H])c12
     RDKit          3D

 76 78  0  0  0  0  0  0  0  0999 V2000
    5.8463    3.2273    0.6726 C   0  0  0  0  0  0  0  0  0  0  0  0
    4.9029    2.2882    0.0227 C   0  0  0  0  0  0  0  0  0  0  0  0
    4.7572    2.2462   -1.2387 O   0  0  0  0  0  0  0  0  0  0  0  0
    4.1418    1.4122    0.8250 N   0  0  0  0  0  0  0  0  0  0  0  0
    3.1965    0.4642    0.2482 C   0  0  1  0  0  0  0  0  0  0  0  0
    3.6383   -0.9028    0.7146 C   0  0  0  0  0  0  0  0  0  0  0  0
    5.0056   -1.2270    0.2477 C   0  0  0  0  0  0  0  0  0  0  0  0
    6.1882   -1.1755    0.9473 C   0  0  0  0  0  0  0  0  0  0  0  0
    7.1816   -1.5453    0.1183 N   0  0  0  0  0  0  0  0  0  0  0  0
    6.7169   -1.8389   -1.0953 C   0  0  0  0  0  0  0  0  0  0  0  0
    7.3112   -2.2596   -2.2621 C   0  0  0  0  0  0  0  0  0  0  0  0
    6.5090   -2.4820   -3.3626 C   0  0  0  0  0  0  0  0  0  0  0  0
    5.1456   -2.2882   -3.2993 C   0  0  0  0  0  0  0  0  0  0  0  0
    4.5757   -1.8677   -2.1245 C   0  0  0  0  0  0  0  0  0  0  0  0
    5.3468   -1.6440   -1.0317 C   0  0  0  0  0  0  0  0  0  0  0  0
    1.8371    0.8353    0.6873 C   0  0  0  0  0  0  0  0  0  0  0  0
    1.5368    1.7465    1.4694 O   0  0  0  0  0  0  0  0  0  0  0  0
    0.7540    0.0501    0.1401 N   0  0  0  0  0  0  0  0  0  0  0  0
   -0.6270    0.2604    0.4419 C   0  0  1  0  0  0  0  0  0  0  0  0
   -1.3135    0.8470   -0.8088 C   0  0  0  0  0  0  0  0  0  0  0  0
   -0.6624    2.1605   -1.1841 C   0  0  0  0  0  0  0  0  0  0  0  0
   -1.3764    2.7206   -2.3872 C   0  0  0  0  0  0  0  0  0  0  0  0
   -2.7822    2.9640   -2.0980 N   0  0  0  0  0  0  0  0  0  0  0  0
   -3.1473    3.9856   -1.1902 C   0  0  0  0  0  0  0  0  0  0  0  0
   -3.0338    5.3735   -1.5040 N   0  0  0  0  0  0  0  0  0  0  0  0
   -3.6063    3.6359   -0.0162 N   0  0  0  0  0  0  0  0  0  0  0  0
   -1.2740   -1.0378    0.7067 C   0  0  0  0  0  0  0  0  0  0  0  0
   -0.5829   -2.0735    0.7582 O   0  0  0  0  0  0  0  0  0  0  0  0
   -2.7016   -1.1403    0.9055 N   0  0  0  0  0  0  0  0  0  0  0  0
   -3.2542   -2.4442    1.1623 C   0  0  1  0  0  0  0  0  0  0  0  0
   -4.1399   -2.4635    2.3725 C   0  0  0  0  0  0  0  0  0  0  0  0
   -5.2919   -1.5519    2.2871 C   0  0  0  0  0  0  0  0  0  0  0  0
   -6.4877   -2.0031    1.7955 C   0  0  0  0  0  0  0  0  0  0  0  0
   -7.5675   -1.1290    1.7141 C   0  0  0  0  0  0  0  0  0  0  0  0
   -7.4327    0.1598    2.1212 C   0  0  0  0  0  0  0  0  0  0  0  0
   -6.2463    0.6343    2.6173 C   0  0  0  0  0  0  0  0  0  0  0  0
   -5.1886   -0.2369    2.6914 C   0  0  0  0  0  0  0  0  0  0  0  0
   -3.8993   -3.0013   -0.0655 C   0  0  0  0  0  0  0  0  0  0  0  0
   -4.4577   -4.3127   -0.0191 N   0  0  0  0  0  0  0  0  0  0  0  0
   -3.9232   -2.2933   -1.0930 O   0  0  0  0  0  0  0  0  0  0  0  0
    5.4946    3.5668    1.6450 H   0  0  0  0  0  0  0  0  0  0  0  0
    6.0126    4.1049   -0.0014 H   0  0  0  0  0  0  0  0  0  0  0  0
    6.8402    2.7238    0.8416 H   0  0  0  0  0  0  0  0  0  0  0  0
    4.2474    1.4349    1.8600 H   0  0  0  0  0  0  0  0  0  0  0  0
    3.1933    0.5287   -0.8583 H   0  0  0  0  0  0  0  0  0  0  0  0
    2.9004   -1.6331    0.3132 H   0  0  0  0  0  0  0  0  0  0  0  0
    3.5610   -0.9983    1.8270 H   0  0  0  0  0  0  0  0  0  0  0  0
    6.3316   -0.8913    1.9843 H   0  0  0  0  0  0  0  0  0  0  0  0
    8.2131   -1.6065    0.3631 H   0  0  0  0  0  0  0  0  0  0  0  0
    8.3702   -2.4283   -2.3723 H   0  0  0  0  0  0  0  0  0  0  0  0
    6.9650   -2.8205   -4.3093 H   0  0  0  0  0  0  0  0  0  0  0  0
    4.5324   -2.4751   -4.1945 H   0  0  0  0  0  0  0  0  0  0  0  0
    3.5153   -1.7163   -2.0710 H   0  0  0  0  0  0  0  0  0  0  0  0
    0.9469   -0.7496   -0.5374 H   0  0  0  0  0  0  0  0  0  0  0  0
   -0.7796    0.9647    1.2956 H   0  0  0  0  0  0  0  0  0  0  0  0
   -2.3949    0.9078   -0.6984 H   0  0  0  0  0  0  0  0  0  0  0  0
   -1.1068    0.1447   -1.6465 H   0  0  0  0  0  0  0  0  0  0  0  0
    0.3878    1.9567   -1.4839 H   0  0  0  0  0  0  0  0  0  0  0  0
   -0.7562    2.8671   -0.3494 H   0  0  0  0  0  0  0  0  0  0  0  0
   -0.9192    3.6941   -2.6619 H   0  0  0  0  0  0  0  0  0  0  0  0
   -1.2374    2.0447   -3.2545 H   0  0  0  0  0  0  0  0  0  0  0  0
   -3.5206    2.4000   -2.5480 H   0  0  0  0  0  0  0  0  0  0  0  0
   -2.5340    5.6881   -2.3439 H   0  0  0  0  0  0  0  0  0  0  0  0
   -3.4618    6.0852   -0.8792 H   0  0  0  0  0  0  0  0  0  0  0  0
   -3.7091    2.6390    0.2649 H   0  0  0  0  0  0  0  0  0  0  0  0
   -3.2540   -0.2866    0.8526 H   0  0  0  0  0  0  0  0  0  0  0  0
   -2.3760   -3.1271    1.3998 H   0  0  0  0  0  0  0  0  0  0  0  0
   -4.4519   -3.5212    2.5269 H   0  0  0  0  0  0  0  0  0  0  0  0
   -3.4937   -2.1437    3.2378 H   0  0  0  0  0  0  0  0  0  0  0  0
   -6.6825   -2.9971    1.4640 H   0  0  0  0  0  0  0  0  0  0  0  0
   -8.5142   -1.4699    1.3312 H   0  0  0  0  0  0  0  0  0  0  0  0
   -8.2569    0.8845    2.0762 H   0  0  0  0  0  0  0  0  0  0  0  0
   -6.1356    1.6686    2.9414 H   0  0  0  0  0  0  0  0  0  0  0  0
   -4.2202    0.0866    3.0785 H   0  0  0  0  0  0  0  0  0  0  0  0
   -5.3436   -4.5398   -0.5019 H   0  0  0  0  0  0  0  0  0  0  0  0
   -3.9588   -5.0796    0.5222 H   0  0  0  0  0  0  0  0  0  0  0  0
  1  2  1  0
  2  3  2  0
  2  4  1  0
  4  5  1  0
  5  6  1  0
  6  7  1  0
  7  8  2  0
  8  9  1  0
  9 10  1  0
 10 11  2  0
 11 12  1  0
 12 13  2  0
 13 14  1  0
 14 15  2  0
  5 16  1  0
 16 17  2  0
 16 18  1  0
 18 19  1  0
 19 20  1  0
 20 21  1  0
 21 22  1  0
 22 23  1  0
 23 24  1  0
 24 25  1  0
 24 26  2  3
 19 27  1  0
 27 28  2  0
 27 29  1  0
 29 30  1  0
 30 31  1  0
 31 32  1  0
 32 33  2  0
 33 34  1  0
 34 35  2  0
 35 36  1  0
 36 37  2  0
 30 38  1  0
 38 39  1  0
 38 40  2  0
 15  7  1  0
 37 32  1  0
 15 10  1  0
  1 41  1  0
  1 42  1  0
  1 43  1  0
  4 44  1  0
  5 45  1  6
  6 46  1  0
  6 47  1  0
  8 48  1  0
  9 49  1  0
 11 50  1  0
 12 51  1  0
 13 52  1  0
 14 53  1  0
 18 54  1  0
 19 55  1  1
 20 56  1  0
 20 57  1  0
 21 58  1  0
 21 59  1  0
 22 60  1  0
 22 61  1  0
 23 62  1  0
 25 63  1  0
 25 64  1  0
 26 65  1  0
 29 66  1  0
 30 67  1  1
 31 68  1  0
 31 69  1  0
 33 70  1  0
 34 71  1  0
 35 72  1  0
 36 73  1  0
 37 74  1  0
 39 75  1  0
 39 76  1  0
M  END
$$$$
[H]C([H])=C([H])C(=O)N([H])[C@]1([H])C([H])([H])C([H])([H])[C@]([H])(n2c([H])c(-c3c([H])c([H])c(Oc4c([H])c([H])c([H])c([H])c4[H])c([H])c3[H])c3c(N([H])[H])nc([H])nc32)C([H])([H])C1([H])[H]
     RDKit          3D

 61 65  0  0  0  0  0  0  0  0999 V2000
   -1.7303   -2.7669    2.9173 N   0  0  0  0  0  0  0  0  0  0  0  0
   -0.4512   -2.6989    2.3109 C   0  0  0  0  0  0  0  0  0  0  0  0
    0.5515   -3.5148    2.6689 N   0  0  0  0  0  0  0  0  0  0  0  0
    1.7587   -3.4149    2.0998 C   0  0  0  0  0  0  0  0  0  0  0  0
    2.0387   -2.5091    1.1524 N   0  0  0  0  0  0  0  0  0  0  0  0
    1.0534   -1.6804    0.7753 C   0  0  0  0  0  0  0  0  0  0  0  0
    1.0393   -0.6834   -0.1254 N   0  0  0  0  0  0  0  0  0  0  0  0
   -0.1601   -0.1282   -0.1579 C   0  0  0  0  0  0  0  0  0  0  0  0
   -1.0045   -0.7701    0.7568 C   0  0  0  0  0  0  0  0  0  0  0  0
   -2.4071   -0.4865    0.9880 C   0  0  0  0  0  0  0  0  0  0  0  0
   -3.4404   -1.3678    0.7492 C   0  0  0  0  0  0  0  0  0  0  0  0
   -4.7674   -1.0910    0.9820 C   0  0  0  0  0  0  0  0  0  0  0  0
   -5.1270    0.1396    1.4873 C   0  0  0  0  0  0  0  0  0  0  0  0
   -6.4754    0.4391    1.7307 O   0  0  0  0  0  0  0  0  0  0  0  0
   -7.2223    1.0150    0.7131 C   0  0  0  0  0  0  0  0  0  0  0  0
   -7.9266    0.2701   -0.2124 C   0  0  0  0  0  0  0  0  0  0  0  0
   -8.6588    0.8882   -1.2116 C   0  0  0  0  0  0  0  0  0  0  0  0
   -8.7139    2.2634   -1.3218 C   0  0  0  0  0  0  0  0  0  0  0  0
   -8.0157    3.0069   -0.4044 C   0  0  0  0  0  0  0  0  0  0  0  0
   -7.2766    2.3891    0.6040 C   0  0  0  0  0  0  0  0  0  0  0  0
   -4.1286    1.0481    1.7395 C   0  0  0  0  0  0  0  0  0  0  0  0
   -2.8096    0.7554    1.5016 C   0  0  0  0  0  0  0  0  0  0  0  0
   -0.2364   -1.7428    1.3410 C   0  0  0  0  0  0  0  0  0  0  0  0
    2.1554   -0.2712   -0.9403 C   0  0  2  0  0  0  0  0  0  0  0  0
    3.3631   -1.1304   -0.8388 C   0  0  0  0  0  0  0  0  0  0  0  0
    4.3734   -0.5511   -1.8487 C   0  0  0  0  0  0  0  0  0  0  0  0
    5.0097    0.6575   -1.2017 C   0  0  1  0  0  0  0  0  0  0  0  0
    4.0347    1.2481   -0.2291 C   0  0  0  0  0  0  0  0  0  0  0  0
    2.5918    1.1574   -0.6764 C   0  0  0  0  0  0  0  0  0  0  0  0
    6.2326    0.3228   -0.5244 N   0  0  0  0  0  0  0  0  0  0  0  0
    7.4899    0.8978   -0.8423 C   0  0  0  0  0  0  0  0  0  0  0  0
    7.5336    1.7444   -1.7651 O   0  0  0  0  0  0  0  0  0  0  0  0
    8.7187    0.5548   -0.1551 C   0  0  0  0  0  0  0  0  0  0  0  0
    9.8601    1.1206   -0.4913 C   0  0  0  0  0  0  0  0  0  0  0  0
   -2.3987   -3.5414    2.8380 H   0  0  0  0  0  0  0  0  0  0  0  0
   -2.0247   -1.9444    3.5062 H   0  0  0  0  0  0  0  0  0  0  0  0
    2.5915   -4.0783    2.3838 H   0  0  0  0  0  0  0  0  0  0  0  0
   -0.5094    0.6963   -0.7692 H   0  0  0  0  0  0  0  0  0  0  0  0
   -3.2142   -2.3600    0.3377 H   0  0  0  0  0  0  0  0  0  0  0  0
   -5.5573   -1.7996    0.7865 H   0  0  0  0  0  0  0  0  0  0  0  0
   -7.8774   -0.8031   -0.1182 H   0  0  0  0  0  0  0  0  0  0  0  0
   -9.2044    0.2950   -1.9282 H   0  0  0  0  0  0  0  0  0  0  0  0
   -9.2882    2.7487   -2.1056 H   0  0  0  0  0  0  0  0  0  0  0  0
   -8.0479    4.0803   -0.4759 H   0  0  0  0  0  0  0  0  0  0  0  0
   -6.7314    2.9736    1.3203 H   0  0  0  0  0  0  0  0  0  0  0  0
   -4.4161    2.0213    2.1392 H   0  0  0  0  0  0  0  0  0  0  0  0
   -2.0070    1.4699    1.6982 H   0  0  0  0  0  0  0  0  0  0  0  0
    1.8187   -0.3083   -2.0086 H   0  0  0  0  0  0  0  0  0  0  0  0
    3.8713   -1.0461    0.1244 H   0  0  0  0  0  0  0  0  0  0  0  0
    3.1167   -2.1636   -1.1605 H   0  0  0  0  0  0  0  0  0  0  0  0
    5.0890   -1.3116   -2.1589 H   0  0  0  0  0  0  0  0  0  0  0  0
    3.8017   -0.1827   -2.7389 H   0  0  0  0  0  0  0  0  0  0  0  0
    5.2688    1.4168   -1.9774 H   0  0  0  0  0  0  0  0  0  0  0  0
    4.2297    2.3489   -0.1008 H   0  0  0  0  0  0  0  0  0  0  0  0
    4.1550    0.8443    0.8153 H   0  0  0  0  0  0  0  0  0  0  0  0
    1.9791    1.5627    0.1526 H   0  0  0  0  0  0  0  0  0  0  0  0
    2.4937    1.8014   -1.5820 H   0  0  0  0  0  0  0  0  0  0  0  0
    6.1989   -0.3755    0.2378 H   0  0  0  0  0  0  0  0  0  0  0  0
    8.6930   -0.1685    0.6353 H   0  0  0  0  0  0  0  0  0  0  0  0
   10.7770    0.8605    0.0263 H   0  0  0  0  0  0  0  0  0  0  0  0
    9.9397    1.8526   -1.2778 H   0  0  0  0  0  0  0  0  0  0  0  0
  1  2  1  0
  2  3  2  0
  3  4  1  0
  4  5  2  0
  5  6  1  0
  6  7  1  0
  7  8  1  0
  8  9  2  0
  9 10  1  0
 10 11  2  0
 11 12  1  0
 12 13  2  0
 13 14  1  0
 14 15  1  0
 15 16  2  0
 16 17  1  0
 17 18  2  0
 18 19  1  0
 19 20  2  0
 13 21  1  0
 21 22  2  0
  9 23  1  0
  7 24  1  0
 24 25  1  0
 25 26  1  0
 26 27  1  0
 27 28  1  0
 28 29  1  0
 27 30  1  0
 30 31  1  0
 31 32  2  0
 31 33  1  0
 33 34  2  3
 23  2  1  0
 29 24  1  0
 23  6  2  0
 22 10  1  0
 20 15  1  0
  1 35  1  0
  1 36  1  0
  4 37  1  0
  8 38  1  0
 11 39  1  0
 12 40  1  0
 16 41  1  0
 17 42  1  0
 18 43  1  0
 19 44  1  0
 20 45  1  0
 21 46  1  0
 22 47  1  0
 24 48  1  6
 25 49  1  0
 25 50  1  0
 26 51  1  0
 26 52  1  0
 27 53  1  6
 28 54  1  0
 28 55  1  0
 29 56  1  0
 29 57  1  0
 30 58  1  0
 33 59  1  0
 34 60  1  0
 34 61  1  0
M  END
$$$$
[H]c1c([H])c([H])c(C2=NC([H])([H])c3nnc(C([H])([H])[H])n3-c3c([H])c([H])c(Cl)c([H])c32)c(F)c1[H]
     RDKit          3D

 35 38  0  0  0  0  0  0  0  0999 V2000
    4.0270   -0.4692   -1.1839 C   0  0  0  0  0  0  0  0  0  0  0  0
    3.3922   -0.7519    0.1170 C   0  0  0  0  0  0  0  0  0  0  0  0
    3.8307   -1.6321    1.0732 N   0  0  0  0  0  0  0  0  0  0  0  0
    2.9570   -1.6754    2.0895 N   0  0  0  0  0  0  0  0  0  0  0  0
    1.9545   -0.8549    1.8421 C   0  0  0  0  0  0  0  0  0  0  0  0
    0.7100   -0.5829    2.6614 C   0  0  0  0  0  0  0  0  0  0  0  0
   -0.5009   -0.7549    1.8723 N   0  0  0  0  0  0  0  0  0  0  0  0
   -0.7983   -0.2625    0.6917 C   0  0  0  0  0  0  0  0  0  0  0  0
   -2.0770   -0.6100    0.1441 C   0  0  0  0  0  0  0  0  0  0  0  0
   -2.5232   -0.3624   -1.0997 C   0  0  0  0  0  0  0  0  0  0  0  0
   -3.8063   -0.6607   -1.4881 C   0  0  0  0  0  0  0  0  0  0  0  0
   -4.6913   -1.2420   -0.5804 C   0  0  0  0  0  0  0  0  0  0  0  0
   -4.2557   -1.5071    0.6981 C   0  0  0  0  0  0  0  0  0  0  0  0
   -2.9818   -1.2027    1.0624 C   0  0  0  0  0  0  0  0  0  0  0  0
   -2.5832   -1.4818    2.3473 F   0  0  0  0  0  0  0  0  0  0  0  0
    0.0684    0.6879    0.0221 C   0  0  0  0  0  0  0  0  0  0  0  0
   -0.6052    1.7066   -0.5932 C   0  0  0  0  0  0  0  0  0  0  0  0
    0.1081    2.6783   -1.2586 C   0  0  0  0  0  0  0  0  0  0  0  0
   -0.8153    3.9497   -2.0421 Cl  0  0  0  0  0  0  0  0  0  0  0  0
    1.5081    2.6358   -1.3050 C   0  0  0  0  0  0  0  0  0  0  0  0
    2.2174    1.6063   -0.6767 C   0  0  0  0  0  0  0  0  0  0  0  0
    1.4563    0.6790   -0.0431 C   0  0  0  0  0  0  0  0  0  0  0  0
    2.2566   -0.2926    0.6081 N   0  0  0  0  0  0  0  0  0  0  0  0
    4.9477    0.1196   -1.1722 H   0  0  0  0  0  0  0  0  0  0  0  0
    3.3318   -0.2868   -2.0279 H   0  0  0  0  0  0  0  0  0  0  0  0
    4.4372   -1.4840   -1.5189 H   0  0  0  0  0  0  0  0  0  0  0  0
    0.6917   -1.2693    3.5013 H   0  0  0  0  0  0  0  0  0  0  0  0
    0.7723    0.4587    3.0126 H   0  0  0  0  0  0  0  0  0  0  0  0
   -1.8848    0.0276   -1.8716 H   0  0  0  0  0  0  0  0  0  0  0  0
   -4.1526   -0.4506   -2.5022 H   0  0  0  0  0  0  0  0  0  0  0  0
   -5.7035   -1.4837   -0.8663 H   0  0  0  0  0  0  0  0  0  0  0  0
   -4.9194   -1.9656    1.4460 H   0  0  0  0  0  0  0  0  0  0  0  0
   -1.6811    1.7393   -0.4811 H   0  0  0  0  0  0  0  0  0  0  0  0
    2.0507    3.3886   -1.8205 H   0  0  0  0  0  0  0  0  0  0  0  0
    3.2620    1.6056   -0.6576 H   0  0  0  0  0  0  0  0  0  0  0  0
  1  2  1  0
  2  3  2  0
  3  4  1  0
  4  5  2  0
  5  6  1  0
  6  7  1  0
  7  8  2  0
  8  9  1  0
  9 10  2  0
 10 11  1  0
 11 12  2  0
 12 13  1  0
 13 14  2  0
 14 15  1  0
  8 16  1  0
 16 17  2  0
 17 18  1  0
 18 19  1  0
 18 20  2  0
 20 21  1  0
 21 22  2  0
 22 23  1  0
 23  2  1  0
 23  5  1  0
 14  9  1  0
 22 16  1  0
  1 24  1  0
  1 25  1  0
  1 26  1  0
  6 27  1  0
  6 28  1  0
 10 29  1  0
 11 30  1  0
 12 31  1  0
 13 32  1  0
 17 33  1  0
 20 34  1  0
 21 35  1  0
M  END
$$$$
[H]c1nc2c([H])c(OC([H])([H])[H])c(OC([H])([H])[H])c([H])c2c(Oc2c([H])c([H])c(N([H])C(=O)N([H])c3c([H])c(C([H])([H])[H])c([H])c([H])c3F)c(F)c2[H])c1[H]
     RDKit          3D

 55 58  0  0  0  0  0  0  0  0999 V2000
   -9.6174    0.4187   -0.6297 C   0  0  0  0  0  0  0  0  0  0  0  0
   -8.5120    0.9847    0.0200 O   0  0  0  0  0  0  0  0  0  0  0  0
   -7.2054    0.8144   -0.3467 C   0  0  0  0  0  0  0  0  0  0  0  0
   -6.8094    0.0569   -1.4462 C   0  0  0  0  0  0  0  0  0  0  0  0
   -5.4666   -0.0431   -1.7152 C   0  0  0  0  0  0  0  0  0  0  0  0
   -5.0428   -0.7861   -2.7813 N   0  0  0  0  0  0  0  0  0  0  0  0
   -3.7356   -0.9168   -3.0744 C   0  0  0  0  0  0  0  0  0  0  0  0
   -2.7220   -0.3301   -2.3446 C   0  0  0  0  0  0  0  0  0  0  0  0
   -3.1252    0.4224   -1.2662 C   0  0  0  0  0  0  0  0  0  0  0  0
   -2.2004    1.0348   -0.4620 O   0  0  0  0  0  0  0  0  0  0  0  0
   -0.8574    0.9465   -0.5151 C   0  0  0  0  0  0  0  0  0  0  0  0
   -0.0503    2.0136   -0.7253 C   0  0  0  0  0  0  0  0  0  0  0  0
    1.3400    1.8902   -0.7603 C   0  0  0  0  0  0  0  0  0  0  0  0
    1.9468    0.6463   -0.5757 C   0  0  0  0  0  0  0  0  0  0  0  0
    3.3092    0.4309   -0.3944 N   0  0  0  0  0  0  0  0  0  0  0  0
    4.5825    0.2298   -0.2250 C   0  0  0  0  0  0  0  0  0  0  0  0
    5.5727    0.8556   -0.7505 O   0  0  0  0  0  0  0  0  0  0  0  0
    4.9570   -0.8374    0.6762 N   0  0  0  0  0  0  0  0  0  0  0  0
    6.1796   -1.3133    1.0205 C   0  0  0  0  0  0  0  0  0  0  0  0
    7.3378   -1.2102    0.2941 C   0  0  0  0  0  0  0  0  0  0  0  0
    8.4973   -1.8195    0.6673 C   0  0  0  0  0  0  0  0  0  0  0  0
    9.7074   -1.6658   -0.1805 C   0  0  0  0  0  0  0  0  0  0  0  0
    8.5870   -2.6043    1.8395 C   0  0  0  0  0  0  0  0  0  0  0  0
    7.4393   -2.7187    2.5820 C   0  0  0  0  0  0  0  0  0  0  0  0
    6.2675   -2.0939    2.1838 C   0  0  0  0  0  0  0  0  0  0  0  0
    5.1836   -2.2397    2.9431 F   0  0  0  0  0  0  0  0  0  0  0  0
    1.0873   -0.4498   -0.3660 C   0  0  0  0  0  0  0  0  0  0  0  0
    1.6283   -1.7060   -0.2208 F   0  0  0  0  0  0  0  0  0  0  0  0
   -0.2439   -0.3067   -0.3370 C   0  0  0  0  0  0  0  0  0  0  0  0
   -4.4662    0.5429   -0.9901 C   0  0  0  0  0  0  0  0  0  0  0  0
   -4.9138    1.2943    0.1043 C   0  0  0  0  0  0  0  0  0  0  0  0
   -6.2251    1.4403    0.4343 C   0  0  0  0  0  0  0  0  0  0  0  0
   -6.6288    2.2008    1.5350 O   0  0  0  0  0  0  0  0  0  0  0  0
   -5.6836    2.8414    2.3571 C   0  0  0  0  0  0  0  0  0  0  0  0
   -9.3756   -0.5378   -1.1198 H   0  0  0  0  0  0  0  0  0  0  0  0
  -10.3763    0.2122    0.1756 H   0  0  0  0  0  0  0  0  0  0  0  0
  -10.0151    1.1610   -1.3510 H   0  0  0  0  0  0  0  0  0  0  0  0
   -7.5601   -0.4136   -2.0285 H   0  0  0  0  0  0  0  0  0  0  0  0
   -3.4328   -1.5231   -3.9370 H   0  0  0  0  0  0  0  0  0  0  0  0
   -1.6755   -0.4596   -2.6208 H   0  0  0  0  0  0  0  0  0  0  0  0
   -0.4226    3.0305   -0.8761 H   0  0  0  0  0  0  0  0  0  0  0  0
    1.9589    2.7559   -0.9164 H   0  0  0  0  0  0  0  0  0  0  0  0
    3.5386    1.3388   -1.4211 H   0  0  0  0  0  0  0  0  0  0  0  0
    4.0988   -1.3075    1.1206 H   0  0  0  0  0  0  0  0  0  0  0  0
    7.3412   -0.6107   -0.6452 H   0  0  0  0  0  0  0  0  0  0  0  0
    9.6073   -0.8370   -0.8718 H   0  0  0  0  0  0  0  0  0  0  0  0
   10.5854   -1.4486    0.4850 H   0  0  0  0  0  0  0  0  0  0  0  0
    9.8668   -2.6347   -0.6805 H   0  0  0  0  0  0  0  0  0  0  0  0
    9.5163   -3.0610    2.0879 H   0  0  0  0  0  0  0  0  0  0  0  0
    7.4627   -3.3117    3.4872 H   0  0  0  0  0  0  0  0  0  0  0  0
   -0.8702   -1.1787   -0.1868 H   0  0  0  0  0  0  0  0  0  0  0  0
   -4.1460    1.7726    0.6894 H   0  0  0  0  0  0  0  0  0  0  0  0
   -4.7826    2.2169    2.5586 H   0  0  0  0  0  0  0  0  0  0  0  0
   -6.1195    3.0607    3.3701 H   0  0  0  0  0  0  0  0  0  0  0  0
   -5.3168    3.7522    1.8631 H   0  0  0  0  0  0  0  0  0  0  0  0
  1  2  1  0
  2  3  1  0
  3  4  2  0
  4  5  1  0
  5  6  2  0
  6  7  1  0
  7  8  2  0
  8  9  1  0
  9 10  1  0
 10 11  1  0
 11 12  2  0
 12 13  1  0
 13 14  2  0
 14 15  1  0
 15 16  1  0
 16 17  2  0
 16 18  1  0
 18 19  1  0
 19 20  2  0
 20 21  1  0
 21 22  1  0
 21 23  2  0
 23 24  1  0
 24 25  2  0
 25 26  1  0
 14 27  1  0
 27 28  1  0
 27 29  2  0
  9 30  2  0
 30 31  1  0
 31 32  2  0
 32 33  1  0
 33 34  1  0
 32  3  1  0
 30  5  1  0
 29 11  1  0
 25 19  1  0
  1 35  1  0
  1 36  1  0
  1 37  1  0
  4 38  1  0
  7 39  1  0
  8 40  1  0
 12 41  1  0
 13 42  1  0
 15 43  1  0
 18 44  1  0
 20 45  1  0
 22 46  1  0
 22 47  1  0
 22 48  1  0
 23 49  1  0
 24 50  1  0
 29 51  1  0
 31 52  1  0
 34 53  1  0
 34 54  1  0
 34 55  1  0
M  END
$$$$
[H]c1nc(N([H])c2c([H])c([H])c(N3C([H])([H])C([H])([H])C([H])(C([H])([H])N(C([H])([H])[H])C([H])([H])[H])C([H])([H])C3([H])[H])c([H])c2OC([H])([H])[H])nc(N([H])c2c([H])c([H])c([H])c([H])c2S(=O)(=O)C([H])(C([H])([H])[H])C([H])([H])[H])c1Cl
     RDKit          3D

 76 79  0  0  0  0  0  0  0  0999 V2000
   -2.6227   -4.6165    2.5240 C   0  0  0  0  0  0  0  0  0  0  0  0
   -1.5095   -3.7615    2.5601 O   0  0  0  0  0  0  0  0  0  0  0  0
   -1.4101   -2.6746    1.7327 C   0  0  0  0  0  0  0  0  0  0  0  0
   -2.4275   -2.4161    0.8428 C   0  0  0  0  0  0  0  0  0  0  0  0
   -2.3458   -1.3325    0.0059 C   0  0  0  0  0  0  0  0  0  0  0  0
   -1.2515   -0.5204    0.0675 C   0  0  0  0  0  0  0  0  0  0  0  0
   -0.2257   -0.8018    0.9834 C   0  0  0  0  0  0  0  0  0  0  0  0
   -0.2666   -1.8629    1.8269 C   0  0  0  0  0  0  0  0  0  0  0  0
    0.7040   -2.1573    2.7730 N   0  0  0  0  0  0  0  0  0  0  0  0
    2.0063   -1.6427    2.9537 C   0  0  0  0  0  0  0  0  0  0  0  0
    2.7184   -2.0886    4.0441 N   0  0  0  0  0  0  0  0  0  0  0  0
    3.9639   -1.6977    4.2971 C   0  0  0  0  0  0  0  0  0  0  0  0
    4.6266   -0.8179    3.4806 C   0  0  0  0  0  0  0  0  0  0  0  0
    6.2744   -0.3145    3.8281 Cl  0  0  0  0  0  0  0  0  0  0  0  0
    3.9251   -0.3453    2.3558 C   0  0  0  0  0  0  0  0  0  0  0  0
    4.6064    0.5897    1.5524 N   0  0  0  0  0  0  0  0  0  0  0  0
    4.2571    1.1731    0.3209 C   0  0  0  0  0  0  0  0  0  0  0  0
    3.1957    0.7322   -0.4386 C   0  0  0  0  0  0  0  0  0  0  0  0
    2.8359    1.3010   -1.6534 C   0  0  0  0  0  0  0  0  0  0  0  0
    3.6053    2.3605   -2.0916 C   0  0  0  0  0  0  0  0  0  0  0  0
    4.6706    2.8092   -1.3425 C   0  0  0  0  0  0  0  0  0  0  0  0
    5.0378    2.2496   -0.1316 C   0  0  0  0  0  0  0  0  0  0  0  0
    6.4328    2.8083    0.7376 S   0  0  0  0  0  0  0  0  0  0  0  0
    6.9378    4.0566    0.0144 O   0  0  0  0  0  0  0  0  0  0  0  0
    6.0985    3.2883    2.1220 O   0  0  0  0  0  0  0  0  0  0  0  0
    7.7911    1.6822    0.7327 C   0  0  0  0  0  0  0  0  0  0  0  0
    8.9207    2.3659    1.5288 C   0  0  0  0  0  0  0  0  0  0  0  0
    8.3135    1.6004   -0.7002 C   0  0  0  0  0  0  0  0  0  0  0  0
    2.6691   -0.7942    2.1801 N   0  0  0  0  0  0  0  0  0  0  0  0
   -3.4434   -1.0848   -0.9225 N   0  0  0  0  0  0  0  0  0  0  0  0
   -4.6334   -1.8736   -0.8256 C   0  0  0  0  0  0  0  0  0  0  0  0
   -5.7480   -1.5586   -1.7234 C   0  0  0  0  0  0  0  0  0  0  0  0
   -5.6558   -0.3040   -2.5041 C   0  0  0  0  0  0  0  0  0  0  0  0
   -6.0451    0.9450   -1.7581 C   0  0  0  0  0  0  0  0  0  0  0  0
   -7.4233    0.8028   -1.3330 N   0  0  0  0  0  0  0  0  0  0  0  0
   -7.8814    1.9762   -0.6068 C   0  0  0  0  0  0  0  0  0  0  0  0
   -8.2359    0.6289   -2.5203 C   0  0  0  0  0  0  0  0  0  0  0  0
   -4.2325   -0.1844   -3.0259 C   0  0  0  0  0  0  0  0  0  0  0  0
   -3.2642   -0.0472   -1.9034 C   0  0  0  0  0  0  0  0  0  0  0  0
   -2.7733   -4.9711    1.4950 H   0  0  0  0  0  0  0  0  0  0  0  0
   -3.5280   -4.1291    2.9267 H   0  0  0  0  0  0  0  0  0  0  0  0
   -2.3894   -5.4565    3.2373 H   0  0  0  0  0  0  0  0  0  0  0  0
   -3.3116   -3.0491    0.7746 H   0  0  0  0  0  0  0  0  0  0  0  0
   -1.1630    0.3351   -0.5769 H   0  0  0  0  0  0  0  0  0  0  0  0
    0.5946   -0.1099    1.0006 H   0  0  0  0  0  0  0  0  0  0  0  0
    0.4264   -2.9170    3.5180 H   0  0  0  0  0  0  0  0  0  0  0  0
    4.5285   -2.0537    5.1686 H   0  0  0  0  0  0  0  0  0  0  0  0
    5.5443    0.9188    1.9809 H   0  0  0  0  0  0  0  0  0  0  0  0
    2.5883   -0.1072   -0.1520 H   0  0  0  0  0  0  0  0  0  0  0  0
    1.9940    0.9289   -2.2243 H   0  0  0  0  0  0  0  0  0  0  0  0
    3.3296    2.8158   -3.0477 H   0  0  0  0  0  0  0  0  0  0  0  0
    5.2641    3.6419   -1.7027 H   0  0  0  0  0  0  0  0  0  0  0  0
    7.6207    0.7005    1.1483 H   0  0  0  0  0  0  0  0  0  0  0  0
    9.6456    1.5939    1.8646 H   0  0  0  0  0  0  0  0  0  0  0  0
    9.4524    3.0704    0.8831 H   0  0  0  0  0  0  0  0  0  0  0  0
    8.5150    2.8668    2.4293 H   0  0  0  0  0  0  0  0  0  0  0  0
    9.2261    2.2096   -0.8481 H   0  0  0  0  0  0  0  0  0  0  0  0
    8.6005    0.5515   -0.9234 H   0  0  0  0  0  0  0  0  0  0  0  0
    7.5688    1.9696   -1.4209 H   0  0  0  0  0  0  0  0  0  0  0  0
   -4.3106   -2.9460   -0.9910 H   0  0  0  0  0  0  0  0  0  0  0  0
   -5.0245   -1.8814    0.2371 H   0  0  0  0  0  0  0  0  0  0  0  0
   -5.8667   -2.3929   -2.4853 H   0  0  0  0  0  0  0  0  0  0  0  0
   -6.7074   -1.4927   -1.1285 H   0  0  0  0  0  0  0  0  0  0  0  0
   -6.2818   -0.4209   -3.4395 H   0  0  0  0  0  0  0  0  0  0  0  0
   -6.0419    1.7999   -2.4832 H   0  0  0  0  0  0  0  0  0  0  0  0
   -5.3631    1.2060   -0.9530 H   0  0  0  0  0  0  0  0  0  0  0  0
   -8.8048    1.6658   -0.0609 H   0  0  0  0  0  0  0  0  0  0  0  0
   -7.1170    2.3000    0.1104 H   0  0  0  0  0  0  0  0  0  0  0  0
   -8.1712    2.7670   -1.3295 H   0  0  0  0  0  0  0  0  0  0  0  0
   -7.7124    1.1248   -3.3614 H   0  0  0  0  0  0  0  0  0  0  0  0
   -9.2615    1.0288   -2.3793 H   0  0  0  0  0  0  0  0  0  0  0  0
   -8.2551   -0.4655   -2.7678 H   0  0  0  0  0  0  0  0  0  0  0  0
   -4.1630    0.6788   -3.7164 H   0  0  0  0  0  0  0  0  0  0  0  0
   -3.9797   -1.0968   -3.6041 H   0  0  0  0  0  0  0  0  0  0  0  0
   -2.2410   -0.1038   -2.3470 H   0  0  0  0  0  0  0  0  0  0  0  0
   -3.4005    0.9464   -1.3843 H   0  0  0  0  0  0  0  0  0  0  0  0
  1  2  1  0
  2  3  1  0
  3  4  2  0
  4  5  1  0
  5  6  2  0
  6  7  1  0
  7  8  2  0
  8  9  1  0
  9 10  1  0
 10 11  2  0
 11 12  1  0
 12 13  2  0
 13 14  1  0
 13 15  1  0
 15 16  1  0
 16 17  1  0
 17 18  2  0
 18 19  1  0
 19 20  2  0
 20 21  1  0
 21 22  2  0
 22 23  1  0
 23 24  2  0
 23 25  2  0
 23 26  1  0
 26 27  1  0
 26 28  1  0
 15 29  2  0
  5 30  1  0
 30 31  1  0
 31 32  1  0
 32 33  1  0
 33 34  1  0
 34 35  1  0
 35 36  1  0
 35 37  1  0
 33 38  1  0
 38 39  1  0
  8  3  1  0
 29 10  1  0
 39 30  1  0
 22 17  1  0
  1 40  1  0
  1 41  1  0
  1 42  1  0
  4 43  1  0
  6 44  1  0
  7 45  1  0
  9 46  1  0
 12 47  1  0
 16 48  1  0
 18 49  1  0
 19 50  1  0
 20 51  1  0
 21 52  1  0
 26 53  1  0
 27 54  1  0
 27 55  1  0
 27 56  1  0
 28 57  1  0
 28 58  1  0
 28 59  1  0
 31 60  1  0
 31 61  1  0
 32 62  1  0
 32 63  1  0
 33 64  1  0
 34 65  1  0
 34 66  1  0
 36 67  1  0
 36 68  1  0
 36 69  1  0
 37 70  1  0
 37 71  1  0
 37 72  1  0
 38 73  1  0
 38 74  1  0
 39 75  1  0
 39 76  1  0
M  END
$$$$
[H]c1nc(N([H])c2c([H])c([H])c(N3C([H])([H])C([H])([H])C([H])(N4C([H])([H])C([H])([H])N(C([H])([H])[H])C([H])([H])C4([H])[H])C([H])([H])C3([H])[H])c([H])c2OC([H])([H])[H])nc(N([H])c2c([H])c([H])c([H])c([H])c2S(=O)(=O)C([H])(C([H])([H])[H])C([H])([H])[H])c1Cl
     RDKit          3D

 82 86  0  0  0  0  0  0  0  0999 V2000
   -0.1870    3.7228   -1.2569 C   0  0  0  0  0  0  0  0  0  0  0  0
    0.4390    2.5297   -0.8437 O   0  0  0  0  0  0  0  0  0  0  0  0
   -0.3483    1.4775   -0.4024 C   0  0  0  0  0  0  0  0  0  0  0  0
   -1.7220    1.6350   -0.3827 C   0  0  0  0  0  0  0  0  0  0  0  0
   -2.5624    0.6308    0.0436 C   0  0  0  0  0  0  0  0  0  0  0  0
   -1.9599   -0.5357    0.4478 C   0  0  0  0  0  0  0  0  0  0  0  0
   -0.5748   -0.7280    0.4408 C   0  0  0  0  0  0  0  0  0  0  0  0
    0.2576    0.2764    0.0150 C   0  0  0  0  0  0  0  0  0  0  0  0
    1.6540    0.2011   -0.0367 N   0  0  0  0  0  0  0  0  0  0  0  0
    2.4984   -0.8842    0.3177 C   0  0  0  0  0  0  0  0  0  0  0  0
    2.1033   -2.0726    0.7812 N   0  0  0  0  0  0  0  0  0  0  0  0
    2.9559   -3.0558    1.0957 C   0  0  0  0  0  0  0  0  0  0  0  0
    4.3092   -2.8632    0.9451 C   0  0  0  0  0  0  0  0  0  0  0  0
    5.4455   -4.1449    1.3534 Cl  0  0  0  0  0  0  0  0  0  0  0  0
    4.7527   -1.6166    0.4572 C   0  0  0  0  0  0  0  0  0  0  0  0
    6.1380   -1.4466    0.3110 N   0  0  0  0  0  0  0  0  0  0  0  0
    6.9009   -0.3576   -0.1368 C   0  0  0  0  0  0  0  0  0  0  0  0
    6.2766    0.8084   -0.5266 C   0  0  0  0  0  0  0  0  0  0  0  0
    7.0240    1.9039   -0.9778 C   0  0  0  0  0  0  0  0  0  0  0  0
    8.3820    1.8034   -1.0274 C   0  0  0  0  0  0  0  0  0  0  0  0
    9.0024    0.6381   -0.6374 C   0  0  0  0  0  0  0  0  0  0  0  0
    8.2961   -0.4485   -0.1920 C   0  0  0  0  0  0  0  0  0  0  0  0
    9.0842   -1.8926    0.2913 S   0  0  0  0  0  0  0  0  0  0  0  0
    8.6633   -3.0312   -0.6035 O   0  0  0  0  0  0  0  0  0  0  0  0
    8.8235   -2.3045    1.7132 O   0  0  0  0  0  0  0  0  0  0  0  0
   10.8572   -1.7881    0.1370 C   0  0  0  0  0  0  0  0  0  0  0  0
   11.2609   -1.6791   -1.2975 C   0  0  0  0  0  0  0  0  0  0  0  0
   11.4760   -0.7869    1.0544 C   0  0  0  0  0  0  0  0  0  0  0  0
    3.8248   -0.7008    0.1721 N   0  0  0  0  0  0  0  0  0  0  0  0
   -3.9818    0.8060    0.0512 N   0  0  0  0  0  0  0  0  0  0  0  0
   -4.5241    1.9609   -0.5784 C   0  0  0  0  0  0  0  0  0  0  0  0
   -6.0011    1.9283   -0.8544 C   0  0  0  0  0  0  0  0  0  0  0  0
   -6.8245    1.3726    0.2584 C   0  0  0  0  0  0  0  0  0  0  0  0
   -6.0036    0.6088    1.2781 C   0  0  0  0  0  0  0  0  0  0  0  0
   -4.8657   -0.1463    0.6796 C   0  0  0  0  0  0  0  0  0  0  0  0
   -7.9560    0.6086   -0.0875 N   0  0  0  0  0  0  0  0  0  0  0  0
   -7.7905   -0.5856   -0.8057 C   0  0  0  0  0  0  0  0  0  0  0  0
   -9.1362   -1.0235   -1.3907 C   0  0  0  0  0  0  0  0  0  0  0  0
  -10.1390   -0.8718   -0.3544 N   0  0  0  0  0  0  0  0  0  0  0  0
  -10.0361   -1.8235    0.7053 C   0  0  0  0  0  0  0  0  0  0  0  0
  -10.3349    0.4834    0.0484 C   0  0  0  0  0  0  0  0  0  0  0  0
   -9.1475    1.3193   -0.4248 C   0  0  0  0  0  0  0  0  0  0  0  0
    0.5375    4.4499   -1.6799 H   0  0  0  0  0  0  0  0  0  0  0  0
   -0.9481    3.5330   -2.0530 H   0  0  0  0  0  0  0  0  0  0  0  0
   -0.6880    4.2523   -0.4156 H   0  0  0  0  0  0  0  0  0  0  0  0
   -2.1476    2.5764   -0.7105 H   0  0  0  0  0  0  0  0  0  0  0  0
   -2.6020   -1.3517    0.7883 H   0  0  0  0  0  0  0  0  0  0  0  0
   -0.2121   -1.6859    0.7807 H   0  0  0  0  0  0  0  0  0  0  0  0
    2.1500    1.0935   -0.3956 H   0  0  0  0  0  0  0  0  0  0  0  0
    2.6174   -4.0222    1.4737 H   0  0  0  0  0  0  0  0  0  0  0  0
    6.7215   -2.3022    0.5911 H   0  0  0  0  0  0  0  0  0  0  0  0
    5.2202    0.9989   -0.5296 H   0  0  0  0  0  0  0  0  0  0  0  0
    6.5603    2.8305   -1.2896 H   0  0  0  0  0  0  0  0  0  0  0  0
    9.0220    2.6252   -1.3712 H   0  0  0  0  0  0  0  0  0  0  0  0
   10.0936    0.6299   -0.7052 H   0  0  0  0  0  0  0  0  0  0  0  0
   11.2252   -2.8031    0.4806 H   0  0  0  0  0  0  0  0  0  0  0  0
   11.9033   -0.7785   -1.4926 H   0  0  0  0  0  0  0  0  0  0  0  0
   10.3307   -1.5514   -1.9199 H   0  0  0  0  0  0  0  0  0  0  0  0
   11.7765   -2.5763   -1.6995 H   0  0  0  0  0  0  0  0  0  0  0  0
   12.0225   -1.2557    1.8769 H   0  0  0  0  0  0  0  0  0  0  0  0
   12.1781   -0.1622    0.4319 H   0  0  0  0  0  0  0  0  0  0  0  0
   10.7434   -0.0899    1.5079 H   0  0  0  0  0  0  0  0  0  0  0  0
   -4.2803    2.8410    0.0525 H   0  0  0  0  0  0  0  0  0  0  0  0
   -3.9354    2.1199   -1.5269 H   0  0  0  0  0  0  0  0  0  0  0  0
   -6.3084    2.9635   -1.1164 H   0  0  0  0  0  0  0  0  0  0  0  0
   -6.1470    1.3325   -1.7818 H   0  0  0  0  0  0  0  0  0  0  0  0
   -7.2139    2.2642    0.8421 H   0  0  0  0  0  0  0  0  0  0  0  0
   -6.6586   -0.1075    1.8153 H   0  0  0  0  0  0  0  0  0  0  0  0
   -5.5929    1.2907    2.0626 H   0  0  0  0  0  0  0  0  0  0  0  0
   -5.1731   -0.8869   -0.0780 H   0  0  0  0  0  0  0  0  0  0  0  0
   -4.3121   -0.6097    1.5260 H   0  0  0  0  0  0  0  0  0  0  0  0
   -7.5080   -1.4012   -0.0997 H   0  0  0  0  0  0  0  0  0  0  0  0
   -7.0082   -0.5774   -1.5870 H   0  0  0  0  0  0  0  0  0  0  0  0
   -9.4445   -0.3742   -2.2343 H   0  0  0  0  0  0  0  0  0  0  0  0
   -9.0261   -2.0597   -1.7202 H   0  0  0  0  0  0  0  0  0  0  0  0
   -9.1822   -2.5377    0.5321 H   0  0  0  0  0  0  0  0  0  0  0  0
   -9.9814   -1.3564    1.7041 H   0  0  0  0  0  0  0  0  0  0  0  0
  -10.9456   -2.4645    0.6802 H   0  0  0  0  0  0  0  0  0  0  0  0
  -11.2261    0.8855   -0.4545 H   0  0  0  0  0  0  0  0  0  0  0  0
  -10.4517    0.5517    1.1515 H   0  0  0  0  0  0  0  0  0  0  0  0
   -9.2778    1.5186   -1.4917 H   0  0  0  0  0  0  0  0  0  0  0  0
   -9.1611    2.2698    0.1783 H   0  0  0  0  0  0  0  0  0  0  0  0
  1  2  1  0
  2  3  1  0
  3  4  2  0
  4  5  1  0
  5  6  2  0
  6  7  1  0
  7  8  2  0
  8  9  1  0
  9 10  1  0
 10 11  2  0
 11 12  1  0
 12 13  2  0
 13 14  1  0
 13 15  1  0
 15 16  1  0
 16 17  1  0
 17 18  2  0
 18 19  1  0
 19 20  2  0
 20 21  1  0
 21 22  2  0
 22 23  1  0
 23 24  2  0
 23 25  2  0
 23 26  1  0
 26 27  1  0
 26 28  1  0
 15 29  2  0
  5 30  1  0
 30 31  1  0
 31 32  1  0
 32 33  1  0
 33 34  1  0
 34 35  1  0
 33 36  1  0
 36 37  1  0
 37 38  1  0
 38 39  1  0
 39 40  1  0
 39 41  1  0
 41 42  1  0
  8  3  1  0
 29 10  1  0
 35 30  1  0
 42 36  1  0
 22 17  1  0
  1 43  1  0
  1 44  1  0
  1 45  1  0
  4 46  1  0
  6 47  1  0
  7 48  1  0
  9 49  1  0
 12 50  1  0
 16 51  1  0
 18 52  1  0
 19 53  1  0
 20 54  1  0
 21 55  1  0
 26 56  1  0
 27 57  1  0
 27 58  1  0
 27 59  1  0
 28 60  1  0
 28 61  1  0
 28 62  1  0
 31 63  1  0
 31 64  1  0
 32 65  1  0
 32 66  1  0
 33 67  1  0
 34 68  1  0
 34 69  1  0
 35 70  1  0
 35 71  1  0
 37 72  1  0
 37 73  1  0
 38 74  1  0
 38 75  1  0
 40 76  1  0
 40 77  1  0
 40 78  1  0
 41 79  1  0
 41 80  1  0
 42 81  1  0
 42 82  1  0
M  END
$$$$
[H]c1nn2c(N([H])C3([H])C([H])([H])C3([H])[H])c([H])c(N([H])c3c([H])c([H])c(N4C([H])([H])C([H])([H])N(C(=O)C([H])([H])[H])C([H])([H])C4([H])[H])c([H])c3[H])nc2c1C#N
     RDKit          3D

 55 59  0  0  0  0  0  0  0  0999 V2000
    6.9065    1.5715    0.0692 C   0  0  0  0  0  0  0  0  0  0  0  0
    6.3209    0.3904    0.7531 C   0  0  0  0  0  0  0  0  0  0  0  0
    6.2912    0.3905    2.0045 O   0  0  0  0  0  0  0  0  0  0  0  0
    5.8048   -0.7167    0.0324 N   0  0  0  0  0  0  0  0  0  0  0  0
    5.2489   -1.8358    0.7813 C   0  0  0  0  0  0  0  0  0  0  0  0
    4.1247   -2.4849   -0.0071 C   0  0  0  0  0  0  0  0  0  0  0  0
    3.6536   -1.6045   -1.0489 N   0  0  0  0  0  0  0  0  0  0  0  0
    4.6393   -1.2754   -2.0751 C   0  0  0  0  0  0  0  0  0  0  0  0
    5.8468   -0.7039   -1.4110 C   0  0  0  0  0  0  0  0  0  0  0  0
    2.3367   -1.1124   -1.0164 C   0  0  0  0  0  0  0  0  0  0  0  0
    1.7644   -0.6705   -2.2145 C   0  0  0  0  0  0  0  0  0  0  0  0
    0.4952   -0.1741   -2.1971 C   0  0  0  0  0  0  0  0  0  0  0  0
   -0.2632   -0.0877   -1.0262 C   0  0  0  0  0  0  0  0  0  0  0  0
   -1.5637    0.4710   -1.1108 N   0  0  0  0  0  0  0  0  0  0  0  0
   -2.5849    0.2305   -0.1882 C   0  0  0  0  0  0  0  0  0  0  0  0
   -3.8042    0.9107   -0.3997 C   0  0  0  0  0  0  0  0  0  0  0  0
   -4.8460    0.6827    0.4773 C   0  0  0  0  0  0  0  0  0  0  0  0
   -6.0724    1.3651    0.2695 N   0  0  0  0  0  0  0  0  0  0  0  0
   -6.2597    2.2865   -0.8289 C   0  0  0  0  0  0  0  0  0  0  0  0
   -7.5840    2.9817   -0.9673 C   0  0  0  0  0  0  0  0  0  0  0  0
   -6.2908    3.7446   -0.6425 C   0  0  0  0  0  0  0  0  0  0  0  0
   -4.7239   -0.1620    1.5137 N   0  0  0  0  0  0  0  0  0  0  0  0
   -5.5816   -0.5076    2.4430 N   0  0  0  0  0  0  0  0  0  0  0  0
   -5.0187   -1.3967    3.2934 C   0  0  0  0  0  0  0  0  0  0  0  0
   -3.7342   -1.6028    2.8483 C   0  0  0  0  0  0  0  0  0  0  0  0
   -2.7189   -2.4500    3.3921 C   0  0  0  0  0  0  0  0  0  0  0  0
   -1.8953   -3.1295    3.8524 N   0  0  0  0  0  0  0  0  0  0  0  0
   -3.5581   -0.8161    1.7208 C   0  0  0  0  0  0  0  0  0  0  0  0
   -2.5505   -0.5912    0.8668 N   0  0  0  0  0  0  0  0  0  0  0  0
    0.3242   -0.5259    0.1217 C   0  0  0  0  0  0  0  0  0  0  0  0
    1.6144   -1.0391    0.1507 C   0  0  0  0  0  0  0  0  0  0  0  0
    6.0765    2.1294   -0.3985 H   0  0  0  0  0  0  0  0  0  0  0  0
    7.5507    1.1791   -0.7600 H   0  0  0  0  0  0  0  0  0  0  0  0
    7.4688    2.1943    0.7759 H   0  0  0  0  0  0  0  0  0  0  0  0
    4.8247   -1.4994    1.7383 H   0  0  0  0  0  0  0  0  0  0  0  0
    6.0665   -2.5535    0.9627 H   0  0  0  0  0  0  0  0  0  0  0  0
    4.5781   -3.3708   -0.5441 H   0  0  0  0  0  0  0  0  0  0  0  0
    3.2884   -2.8107    0.6062 H   0  0  0  0  0  0  0  0  0  0  0  0
    4.9018   -2.2674   -2.5379 H   0  0  0  0  0  0  0  0  0  0  0  0
    4.2715   -0.5733   -2.8295 H   0  0  0  0  0  0  0  0  0  0  0  0
    5.9410    0.3816   -1.7184 H   0  0  0  0  0  0  0  0  0  0  0  0
    6.7888   -1.1800   -1.7938 H   0  0  0  0  0  0  0  0  0  0  0  0
    2.3126   -0.7213   -3.1514 H   0  0  0  0  0  0  0  0  0  0  0  0
    0.0159    0.1808   -3.1179 H   0  0  0  0  0  0  0  0  0  0  0  0
   -1.7606    1.1172   -1.9380 H   0  0  0  0  0  0  0  0  0  0  0  0
   -3.9001    1.5942   -1.2393 H   0  0  0  0  0  0  0  0  0  0  0  0
   -6.8605    1.1999    0.9234 H   0  0  0  0  0  0  0  0  0  0  0  0
   -5.8301    1.9149   -1.7951 H   0  0  0  0  0  0  0  0  0  0  0  0
   -7.9985    3.1070   -1.9834 H   0  0  0  0  0  0  0  0  0  0  0  0
   -8.3117    2.9323   -0.1141 H   0  0  0  0  0  0  0  0  0  0  0  0
   -5.9314    4.3919   -1.4782 H   0  0  0  0  0  0  0  0  0  0  0  0
   -6.2411    4.2504    0.3286 H   0  0  0  0  0  0  0  0  0  0  0  0
   -5.4380   -1.8820    4.1622 H   0  0  0  0  0  0  0  0  0  0  0  0
   -0.1756   -0.4800    1.0669 H   0  0  0  0  0  0  0  0  0  0  0  0
    2.0408   -1.3731    1.1113 H   0  0  0  0  0  0  0  0  0  0  0  0
  1  2  1  0
  2  3  2  0
  2  4  1  0
  4  5  1  0
  5  6  1  0
  6  7  1  0
  7  8  1  0
  8  9  1  0
  7 10  1  0
 10 11  2  0
 11 12  1  0
 12 13  2  0
 13 14  1  0
 14 15  1  0
 15 16  1  0
 16 17  2  0
 17 18  1  0
 18 19  1  0
 19 20  1  0
 20 21  1  0
 17 22  1  0
 22 23  1  0
 23 24  2  0
 24 25  1  0
 25 26  1  0
 26 27  3  0
 25 28  2  0
 28 29  1  0
 13 30  1  0
 30 31  2  0
  9  4  1  0
 31 10  1  0
 29 15  2  0
 21 19  1  0
 28 22  1  0
  1 32  1  0
  1 33  1  0
  1 34  1  0
  5 35  1  0
  5 36  1  0
  6 37  1  0
  6 38  1  0
  8 39  1  0
  8 40  1  0
  9 41  1  0
  9 42  1  0
 11 43  1  0
 12 44  1  0
 14 45  1  0
 16 46  1  0
 18 47  1  0
 19 48  1  0
 20 49  1  0
 20 50  1  0
 21 51  1  0
 21 52  1  0
 24 53  1  0
 30 54  1  0
 31 55  1  0
M  END
$$$$
[H]c1nnc2c(nc([H])n2C([H])([H])C([H])([H])[H])c1-c1c([H])c([H])c(F)c(-c2c([H])c([H])c(S(=O)(=O)C([H])([H])C([H])([H])[H])c([H])c2[H])c1[H]
     RDKit          3D

 48 51  0  0  0  0  0  0  0  0999 V2000
    7.1611   -2.2721    1.2665 C   0  0  0  0  0  0  0  0  0  0  0  0
    7.2285   -1.4370    0.0095 C   0  0  0  0  0  0  0  0  0  0  0  0
    5.9992   -0.6688   -0.1154 N   0  0  0  0  0  0  0  0  0  0  0  0
    5.7349    0.5606    0.3618 C   0  0  0  0  0  0  0  0  0  0  0  0
    4.4792    0.9214    0.0334 N   0  0  0  0  0  0  0  0  0  0  0  0
    3.9137   -0.0718   -0.6618 C   0  0  0  0  0  0  0  0  0  0  0  0
    2.6564   -0.1996   -1.2222 C   0  0  0  0  0  0  0  0  0  0  0  0
    2.4249   -1.3938   -1.8797 C   0  0  0  0  0  0  0  0  0  0  0  0
    3.3784   -2.3425   -1.9499 N   0  0  0  0  0  0  0  0  0  0  0  0
    4.5743   -2.1924   -1.4034 N   0  0  0  0  0  0  0  0  0  0  0  0
    4.8748   -1.0608   -0.7480 C   0  0  0  0  0  0  0  0  0  0  0  0
    1.6339    0.8279   -1.1420 C   0  0  0  0  0  0  0  0  0  0  0  0
    1.9491    2.1566   -1.3794 C   0  0  0  0  0  0  0  0  0  0  0  0
    0.9931    3.1570   -1.3096 C   0  0  0  0  0  0  0  0  0  0  0  0
   -0.3173    2.8592   -0.9983 C   0  0  0  0  0  0  0  0  0  0  0  0
   -1.2846    3.8079   -0.9217 F   0  0  0  0  0  0  0  0  0  0  0  0
   -0.6655    1.5474   -0.7562 C   0  0  0  0  0  0  0  0  0  0  0  0
    0.3190    0.5530   -0.8327 C   0  0  0  0  0  0  0  0  0  0  0  0
   -2.0387    1.2168   -0.4251 C   0  0  0  0  0  0  0  0  0  0  0  0
   -2.8096    1.9014    0.4884 C   0  0  0  0  0  0  0  0  0  0  0  0
   -4.1107    1.5471    0.7650 C   0  0  0  0  0  0  0  0  0  0  0  0
   -4.6952    0.4777    0.1266 C   0  0  0  0  0  0  0  0  0  0  0  0
   -3.9513   -0.2215   -0.7871 C   0  0  0  0  0  0  0  0  0  0  0  0
   -2.6520    0.1510   -1.0478 C   0  0  0  0  0  0  0  0  0  0  0  0
   -6.3516    0.0700    0.5151 S   0  0  0  0  0  0  0  0  0  0  0  0
   -7.0643   -0.4962   -0.6765 O   0  0  0  0  0  0  0  0  0  0  0  0
   -7.0306    1.3198    0.9977 O   0  0  0  0  0  0  0  0  0  0  0  0
   -6.3280   -1.0806    1.8694 C   0  0  0  0  0  0  0  0  0  0  0  0
   -7.7282   -1.4880    2.2715 C   0  0  0  0  0  0  0  0  0  0  0  0
    7.5815   -3.2848    1.1103 H   0  0  0  0  0  0  0  0  0  0  0  0
    6.0891   -2.4174    1.5114 H   0  0  0  0  0  0  0  0  0  0  0  0
    7.6440   -1.7454    2.1218 H   0  0  0  0  0  0  0  0  0  0  0  0
    7.3598   -2.1343   -0.8505 H   0  0  0  0  0  0  0  0  0  0  0  0
    8.1170   -0.7710   -0.0085 H   0  0  0  0  0  0  0  0  0  0  0  0
    6.4371    1.1484    0.9193 H   0  0  0  0  0  0  0  0  0  0  0  0
    1.4838   -1.6113   -2.3569 H   0  0  0  0  0  0  0  0  0  0  0  0
    2.9873    2.3617   -1.6220 H   0  0  0  0  0  0  0  0  0  0  0  0
    1.2833    4.1808   -1.5023 H   0  0  0  0  0  0  0  0  0  0  0  0
    0.0296   -0.4684   -0.6405 H   0  0  0  0  0  0  0  0  0  0  0  0
   -2.4034    2.7463    1.0194 H   0  0  0  0  0  0  0  0  0  0  0  0
   -4.6673    2.1224    1.4923 H   0  0  0  0  0  0  0  0  0  0  0  0
   -4.4006   -1.0529   -1.2856 H   0  0  0  0  0  0  0  0  0  0  0  0
   -2.1113   -0.4425   -1.7833 H   0  0  0  0  0  0  0  0  0  0  0  0
   -5.8738   -0.5406    2.7377 H   0  0  0  0  0  0  0  0  0  0  0  0
   -5.7133   -1.9511    1.5634 H   0  0  0  0  0  0  0  0  0  0  0  0
   -7.7682   -1.5841    3.3748 H   0  0  0  0  0  0  0  0  0  0  0  0
   -8.4770   -0.7719    1.8784 H   0  0  0  0  0  0  0  0  0  0  0  0
   -7.8903   -2.5212    1.8727 H   0  0  0  0  0  0  0  0  0  0  0  0
  1  2  1  0
  2  3  1  0
  3  4  1  0
  4  5  2  0
  5  6  1  0
  6  7  2  0
  7  8  1  0
  8  9  2  0
  9 10  1  0
 10 11  2  0
  7 12  1  0
 12 13  2  0
 13 14  1  0
 14 15  2  0
 15 16  1  0
 15 17  1  0
 17 18  2  0
 17 19  1  0
 19 20  2  0
 20 21  1  0
 21 22  2  0
 22 23  1  0
 23 24  2  0
 22 25  1  0
 25 26  2  0
 25 27  2  0
 25 28  1  0
 28 29  1  0
 11  3  1  0
 18 12  1  0
 24 19  1  0
 11  6  1  0
  1 30  1  0
  1 31  1  0
  1 32  1  0
  2 33  1  0
  2 34  1  0
  4 35  1  0
  8 36  1  0
 13 37  1  0
 14 38  1  0
 18 39  1  0
 20 40  1  0
 21 41  1  0
 23 42  1  0
 24 43  1  0
 28 44  1  0
 28 45  1  0
 29 46  1  0
 29 47  1  0
 29 48  1  0
M  END
$$$$
[H]OC(=O)[C@]([H])(c1c([H])c([H])c(OC(F)(F)F)c([H])c1[H])N([H])C(=O)c1c([H])c([H])c(C(F)(F)F)c([H])c1[H]
     RDKit          3D

 39 40  0  0  0  0  0  0  0  0999 V2000
    1.7638    1.4449    2.7894 O   0  0  0  0  0  0  0  0  0  0  0  0
    0.7793    0.7534    2.2357 C   0  0  0  0  0  0  0  0  0  0  0  0
   -0.3840    0.7246    2.8477 O   0  0  0  0  0  0  0  0  0  0  0  0
    0.8292   -0.0349    0.9061 C   0  0  1  0  0  0  0  0  0  0  0  0
   -0.3556    0.3931    0.2284 N   0  0  0  0  0  0  0  0  0  0  0  0
   -1.4999   -0.4013    0.3600 C   0  0  0  0  0  0  0  0  0  0  0  0
   -1.3560   -1.5348    1.0136 O   0  0  0  0  0  0  0  0  0  0  0  0
   -2.8502   -0.1907   -0.0983 C   0  0  0  0  0  0  0  0  0  0  0  0
   -3.4142    1.1040   -0.0676 C   0  0  0  0  0  0  0  0  0  0  0  0
   -4.7400    1.3131   -0.3141 C   0  0  0  0  0  0  0  0  0  0  0  0
   -5.6035    0.2542   -0.6081 C   0  0  0  0  0  0  0  0  0  0  0  0
   -5.0751   -1.0068   -0.6474 C   0  0  0  0  0  0  0  0  0  0  0  0
   -3.7137   -1.2038   -0.3958 C   0  0  0  0  0  0  0  0  0  0  0  0
   -7.0825    0.5243   -0.8030 C   0  0  0  0  0  0  0  0  0  0  0  0
   -7.4977    0.5070   -2.0796 F   0  0  0  0  0  0  0  0  0  0  0  0
   -7.8187   -0.4462   -0.1043 F   0  0  0  0  0  0  0  0  0  0  0  0
   -7.4457    1.7281   -0.2462 F   0  0  0  0  0  0  0  0  0  0  0  0
    2.1386   -0.0160    0.3635 C   0  0  0  0  0  0  0  0  0  0  0  0
    3.2257   -0.0655    1.2705 C   0  0  0  0  0  0  0  0  0  0  0  0
    4.5216   -0.0805    0.9175 C   0  0  0  0  0  0  0  0  0  0  0  0
    4.8911   -0.0502   -0.4216 C   0  0  0  0  0  0  0  0  0  0  0  0
    6.2451   -0.0649   -0.6848 O   0  0  0  0  0  0  0  0  0  0  0  0
    7.0004   -1.2734   -0.8341 C   0  0  0  0  0  0  0  0  0  0  0  0
    6.8255   -2.0323    0.3422 F   0  0  0  0  0  0  0  0  0  0  0  0
    6.6434   -1.9777   -1.9041 F   0  0  0  0  0  0  0  0  0  0  0  0
    8.3753   -0.9437   -0.8918 F   0  0  0  0  0  0  0  0  0  0  0  0
    3.8776   -0.0044   -1.3400 C   0  0  0  0  0  0  0  0  0  0  0  0
    2.5313    0.0137   -0.9392 C   0  0  0  0  0  0  0  0  0  0  0  0
    1.6458    2.4523    2.9697 H   0  0  0  0  0  0  0  0  0  0  0  0
    0.6359   -1.1031    1.3120 H   0  0  0  0  0  0  0  0  0  0  0  0
   -0.3773    1.2681   -0.3367 H   0  0  0  0  0  0  0  0  0  0  0  0
   -2.7408    1.9361    0.1751 H   0  0  0  0  0  0  0  0  0  0  0  0
   -5.2207    2.3062   -0.2792 H   0  0  0  0  0  0  0  0  0  0  0  0
   -5.7290   -1.8550   -0.8779 H   0  0  0  0  0  0  0  0  0  0  0  0
   -3.2967   -2.2140   -0.4252 H   0  0  0  0  0  0  0  0  0  0  0  0
    3.0306   -0.1602    2.3377 H   0  0  0  0  0  0  0  0  0  0  0  0
    5.3566   -0.1239    1.6500 H   0  0  0  0  0  0  0  0  0  0  0  0
    4.1289    0.0120   -2.4027 H   0  0  0  0  0  0  0  0  0  0  0  0
    1.7554    0.0480   -1.7184 H   0  0  0  0  0  0  0  0  0  0  0  0
  1  2  1  0
  2  3  2  0
  2  4  1  0
  4  5  1  0
  5  6  1  0
  6  7  2  0
  6  8  1  0
  8  9  2  0
  9 10  1  0
 10 11  2  0
 11 12  1  0
 12 13  2  0
 11 14  1  0
 14 15  1  0
 14 16  1  0
 14 17  1  0
  4 18  1  0
 18 19  2  0
 19 20  1  0
 20 21  2  0
 21 22  1  0
 22 23  1  0
 23 24  1  0
 23 25  1  0
 23 26  1  0
 21 27  1  0
 27 28  2  0
 13  8  1  0
 28 18  1  0
  1 29  1  0
  4 30  1  1
  5 31  1  0
  9 32  1  0
 10 33  1  0
 12 34  1  0
 13 35  1  0
 19 36  1  0
 20 37  1  0
 27 38  1  0
 28 39  1  0
M  END
$$$$
[H]OC(=O)[C@@]([H])(N([H])C(=O)[C@]([H])(C([H])([H])[H])C([H])([H])S[H])C([H])([H])c1c([H])c([H])c(-c2c([H])c([H])c([H])c([H])c2[H])c([H])c1[H]
     RDKit          3D

 45 46  0  0  0  0  0  0  0  0999 V2000
    3.2274    1.6788    1.2951 C   0  0  0  0  0  0  0  0  0  0  0  0
    4.2040    0.7694    0.5589 C   0  0  2  0  0  0  0  0  0  0  0  0
    4.5423    1.2428   -0.8147 C   0  0  0  0  0  0  0  0  0  0  0  0
    3.1243    1.3827   -1.9134 S   0  0  0  0  0  0  0  0  0  0  0  0
    3.7137   -0.6258    0.6110 C   0  0  0  0  0  0  0  0  0  0  0  0
    4.4846   -1.5018    1.0829 O   0  0  0  0  0  0  0  0  0  0  0  0
    2.4021   -0.9756    0.1394 N   0  0  0  0  0  0  0  0  0  0  0  0
    1.9190   -2.3367    0.1853 C   0  0  1  0  0  0  0  0  0  0  0  0
    0.7807   -2.4156    1.1630 C   0  0  0  0  0  0  0  0  0  0  0  0
   -0.3636   -1.5494    0.8303 C   0  0  0  0  0  0  0  0  0  0  0  0
   -1.3751   -2.0246    0.0555 C   0  0  0  0  0  0  0  0  0  0  0  0
   -2.4431   -1.1979   -0.2466 C   0  0  0  0  0  0  0  0  0  0  0  0
   -2.5103    0.0893    0.2141 C   0  0  0  0  0  0  0  0  0  0  0  0
   -1.4663    0.5317    0.9951 C   0  0  0  0  0  0  0  0  0  0  0  0
   -0.3902   -0.2597    1.3157 C   0  0  0  0  0  0  0  0  0  0  0  0
   -3.6317    0.9545   -0.1041 C   0  0  0  0  0  0  0  0  0  0  0  0
   -4.9000    0.4467   -0.2824 C   0  0  0  0  0  0  0  0  0  0  0  0
   -5.9801    1.2741   -0.5885 C   0  0  0  0  0  0  0  0  0  0  0  0
   -5.7726    2.6476   -0.7172 C   0  0  0  0  0  0  0  0  0  0  0  0
   -4.5096    3.1634   -0.5408 C   0  0  0  0  0  0  0  0  0  0  0  0
   -3.4602    2.3226   -0.2390 C   0  0  0  0  0  0  0  0  0  0  0  0
    1.5707   -2.8340   -1.1653 C   0  0  0  0  0  0  0  0  0  0  0  0
    1.1061   -4.1318   -1.3112 O   0  0  0  0  0  0  0  0  0  0  0  0
    1.6850   -2.1048   -2.2028 O   0  0  0  0  0  0  0  0  0  0  0  0
    3.6333    2.7061    1.3136 H   0  0  0  0  0  0  0  0  0  0  0  0
    3.1820    1.2982    2.3384 H   0  0  0  0  0  0  0  0  0  0  0  0
    2.2278    1.6492    0.8087 H   0  0  0  0  0  0  0  0  0  0  0  0
    5.1548    0.8442    1.1580 H   0  0  0  0  0  0  0  0  0  0  0  0
    5.2231    0.4626   -1.2542 H   0  0  0  0  0  0  0  0  0  0  0  0
    5.1050    2.2131   -0.7505 H   0  0  0  0  0  0  0  0  0  0  0  0
    3.3867    2.1768   -3.0266 H   0  0  0  0  0  0  0  0  0  0  0  0
    1.7666   -0.2492   -0.2481 H   0  0  0  0  0  0  0  0  0  0  0  0
    2.7488   -2.9548    0.5997 H   0  0  0  0  0  0  0  0  0  0  0  0
    1.1625   -2.1532    2.1700 H   0  0  0  0  0  0  0  0  0  0  0  0
    0.4308   -3.4831    1.2592 H   0  0  0  0  0  0  0  0  0  0  0  0
   -1.3737   -3.0402   -0.3351 H   0  0  0  0  0  0  0  0  0  0  0  0
   -3.2218   -1.6012   -0.8575 H   0  0  0  0  0  0  0  0  0  0  0  0
   -1.4708    1.5418    1.3848 H   0  0  0  0  0  0  0  0  0  0  0  0
    0.4365    0.0993    1.9375 H   0  0  0  0  0  0  0  0  0  0  0  0
   -5.0188   -0.6169   -0.1749 H   0  0  0  0  0  0  0  0  0  0  0  0
   -6.9665    0.8771   -0.7270 H   0  0  0  0  0  0  0  0  0  0  0  0
   -6.6140    3.2883   -0.9550 H   0  0  0  0  0  0  0  0  0  0  0  0
   -4.3446    4.2227   -0.6392 H   0  0  0  0  0  0  0  0  0  0  0  0
   -2.4509    2.7314   -0.0978 H   0  0  0  0  0  0  0  0  0  0  0  0
    1.0458   -4.5582   -2.2243 H   0  0  0  0  0  0  0  0  0  0  0  0
  1  2  1  0
  2  3  1  0
  3  4  1  0
  2  5  1  0
  5  6  2  0
  5  7  1  0
  7  8  1  0
  8  9  1  0
  9 10  1  0
 10 11  2  0
 11 12  1  0
 12 13  2  0
 13 14  1  0
 14 15  2  0
 13 16  1  0
 16 17  2  0
 17 18  1  0
 18 19  2  0
 19 20  1  0
 20 21  2  0
  8 22  1  0
 22 23  1  0
 22 24  2  0
 15 10  1  0
 21 16  1  0
  1 25  1  0
  1 26  1  0
  1 27  1  0
  2 28  1  1
  3 29  1  0
  3 30  1  0
  4 31  1  0
  7 32  1  0
  8 33  1  1
  9 34  1  0
  9 35  1  0
 11 36  1  0
 12 37  1  0
 14 38  1  0
 15 39  1  0
 17 40  1  0
 18 41  1  0
 19 42  1  0
 20 43  1  0
 21 44  1  0
 23 45  1  0
M  END
$$$$
[H]c1nnc2c(nc([H])n2C([H])([H])C([H])([H])[H])c1-c1c([H])c([H])c(F)c(-c2c([H])c([H])c(F)c([H])c2[H])c1[H]
     RDKit          3D

 39 42  0  0  0  0  0  0  0  0999 V2000
    5.4338   -0.5203   -1.8191 C   0  0  0  0  0  0  0  0  0  0  0  0
    5.1449    0.5300   -0.7798 C   0  0  0  0  0  0  0  0  0  0  0  0
    3.7495    0.5528   -0.3989 N   0  0  0  0  0  0  0  0  0  0  0  0
    2.7434    1.2630   -0.9363 C   0  0  0  0  0  0  0  0  0  0  0  0
    1.6225    0.9655   -0.2605 N   0  0  0  0  0  0  0  0  0  0  0  0
    1.8920    0.0778    0.6997 C   0  0  0  0  0  0  0  0  0  0  0  0
    1.0922   -0.5431    1.6602 C   0  0  0  0  0  0  0  0  0  0  0  0
    1.7371   -1.4231    2.5019 C   0  0  0  0  0  0  0  0  0  0  0  0
    3.0636   -1.6463    2.3756 N   0  0  0  0  0  0  0  0  0  0  0  0
    3.8127   -1.0689    1.4809 N   0  0  0  0  0  0  0  0  0  0  0  0
    3.2371   -0.1951    0.6263 C   0  0  0  0  0  0  0  0  0  0  0  0
   -0.3265   -0.2561    1.7388 C   0  0  0  0  0  0  0  0  0  0  0  0
   -0.8902   -0.0287    2.9774 C   0  0  0  0  0  0  0  0  0  0  0  0
   -2.2469    0.2519    3.1180 C   0  0  0  0  0  0  0  0  0  0  0  0
   -3.0538    0.3045    1.9849 C   0  0  0  0  0  0  0  0  0  0  0  0
   -4.3924    0.5764    2.1066 F   0  0  0  0  0  0  0  0  0  0  0  0
   -2.5191    0.0818    0.7347 C   0  0  0  0  0  0  0  0  0  0  0  0
   -1.1736   -0.1908    0.6563 C   0  0  0  0  0  0  0  0  0  0  0  0
   -3.3618    0.1382   -0.4695 C   0  0  0  0  0  0  0  0  0  0  0  0
   -3.2577   -0.8582   -1.4097 C   0  0  0  0  0  0  0  0  0  0  0  0
   -4.0259   -0.8553   -2.5677 C   0  0  0  0  0  0  0  0  0  0  0  0
   -4.9222    0.1694   -2.7937 C   0  0  0  0  0  0  0  0  0  0  0  0
   -5.6868    0.1960   -3.9203 F   0  0  0  0  0  0  0  0  0  0  0  0
   -5.0254    1.1630   -1.8553 C   0  0  0  0  0  0  0  0  0  0  0  0
   -4.2476    1.1529   -0.6908 C   0  0  0  0  0  0  0  0  0  0  0  0
    4.9231   -0.2650   -2.7689 H   0  0  0  0  0  0  0  0  0  0  0  0
    6.5319   -0.4772   -2.0193 H   0  0  0  0  0  0  0  0  0  0  0  0
    5.1654   -1.5406   -1.4769 H   0  0  0  0  0  0  0  0  0  0  0  0
    5.4676    1.5083   -1.2180 H   0  0  0  0  0  0  0  0  0  0  0  0
    5.7955    0.3203    0.1021 H   0  0  0  0  0  0  0  0  0  0  0  0
    2.8711    1.9390   -1.7649 H   0  0  0  0  0  0  0  0  0  0  0  0
    1.1830   -1.9349    3.2629 H   0  0  0  0  0  0  0  0  0  0  0  0
   -0.3142   -0.0576    3.8782 H   0  0  0  0  0  0  0  0  0  0  0  0
   -2.6841    0.4302    4.0991 H   0  0  0  0  0  0  0  0  0  0  0  0
   -0.7577   -0.3642   -0.3172 H   0  0  0  0  0  0  0  0  0  0  0  0
   -2.5615   -1.6730   -1.2550 H   0  0  0  0  0  0  0  0  0  0  0  0
   -3.9602   -1.6274   -3.3191 H   0  0  0  0  0  0  0  0  0  0  0  0
   -5.7269    1.9684   -2.0284 H   0  0  0  0  0  0  0  0  0  0  0  0
   -4.3320    1.9364    0.0400 H   0  0  0  0  0  0  0  0  0  0  0  0
  1  2  1  0
  2  3  1  0
  3  4  1  0
  4  5  2  0
  5  6  1  0
  6  7  2  0
  7  8  1  0
  8  9  2  0
  9 10  1  0
 10 11  2  0
  7 12  1  0
 12 13  2  0
 13 14  1  0
 14 15  2  0
 15 16  1  0
 15 17  1  0
 17 18  2  0
 17 19  1  0
 19 20  2  0
 20 21  1  0
 21 22  2  0
 22 23  1  0
 22 24  1  0
 24 25  2  0
 11  3  1  0
 18 12  1  0
 25 19  1  0
 11  6  1  0
  1 26  1  0
  1 27  1  0
  1 28  1  0
  2 29  1  0
  2 30  1  0
  4 31  1  0
  8 32  1  0
 13 33  1  0
 14 34  1  0
 18 35  1  0
 20 36  1  0
 21 37  1  0
 24 38  1  0
 25 39  1  0
M  END
$$$$
[H]c1c([H])c(-c2nn([H])c(=S)o2)c([H])c([H])c1Oc1c([H])c([H])c([H])c2c1c([H])c(C(=O)N([H])C([H])([H])[H])n2[H]
     RDKit          3D

 40 43  0  0  0  0  0  0  0  0999 V2000
   -5.1389    3.6473    0.8562 C   0  0  0  0  0  0  0  0  0  0  0  0
   -4.6581    2.4017    0.3187 N   0  0  0  0  0  0  0  0  0  0  0  0
   -3.4568    1.7997    0.7575 C   0  0  0  0  0  0  0  0  0  0  0  0
   -2.7441    2.3213    1.6415 O   0  0  0  0  0  0  0  0  0  0  0  0
   -2.9977    0.5254    0.1840 C   0  0  0  0  0  0  0  0  0  0  0  0
   -1.8537   -0.1701    0.5151 C   0  0  0  0  0  0  0  0  0  0  0  0
   -1.7735   -1.3181   -0.2428 C   0  0  0  0  0  0  0  0  0  0  0  0
   -0.8903   -2.3591   -0.3340 C   0  0  0  0  0  0  0  0  0  0  0  0
    0.2306   -2.4184    0.4316 O   0  0  0  0  0  0  0  0  0  0  0  0
    1.3388   -1.6537    0.5373 C   0  0  0  0  0  0  0  0  0  0  0  0
    2.3349   -1.7441   -0.4595 C   0  0  0  0  0  0  0  0  0  0  0  0
    3.4687   -0.9761   -0.3614 C   0  0  0  0  0  0  0  0  0  0  0  0
    3.7126   -0.0988    0.6676 C   0  0  0  0  0  0  0  0  0  0  0  0
    2.7436   -0.0062    1.6437 C   0  0  0  0  0  0  0  0  0  0  0  0
    1.5945   -0.7747    1.5582 C   0  0  0  0  0  0  0  0  0  0  0  0
    4.9222    0.7073    0.7536 C   0  0  0  0  0  0  0  0  0  0  0  0
    5.9380    0.7051   -0.1355 N   0  0  0  0  0  0  0  0  0  0  0  0
    6.8631    1.5599    0.2675 N   0  0  0  0  0  0  0  0  0  0  0  0
    6.4390    2.1106    1.4167 C   0  0  0  0  0  0  0  0  0  0  0  0
    7.2137    3.2348    2.3323 S   0  0  0  0  0  0  0  0  0  0  0  0
    5.2733    1.5723    1.6716 O   0  0  0  0  0  0  0  0  0  0  0  0
   -1.1417   -3.4032   -1.2423 C   0  0  0  0  0  0  0  0  0  0  0  0
   -2.2457   -3.3844   -2.0235 C   0  0  0  0  0  0  0  0  0  0  0  0
   -3.1411   -2.3538   -1.9498 C   0  0  0  0  0  0  0  0  0  0  0  0
   -2.9003   -1.3180   -1.0541 C   0  0  0  0  0  0  0  0  0  0  0  0
   -3.5915   -0.2064   -0.7634 N   0  0  0  0  0  0  0  0  0  0  0  0
   -5.7649    3.4548    1.7557 H   0  0  0  0  0  0  0  0  0  0  0  0
   -5.6844    4.1918    0.0598 H   0  0  0  0  0  0  0  0  0  0  0  0
   -4.2410    4.2470    1.1790 H   0  0  0  0  0  0  0  0  0  0  0  0
   -5.2284    1.9376   -0.4218 H   0  0  0  0  0  0  0  0  0  0  0  0
   -1.1730    0.1817    1.2676 H   0  0  0  0  0  0  0  0  0  0  0  0
    2.1621   -2.4300   -1.2794 H   0  0  0  0  0  0  0  0  0  0  0  0
    4.2519   -1.0328   -1.1246 H   0  0  0  0  0  0  0  0  0  0  0  0
    2.8822    0.6708    2.4809 H   0  0  0  0  0  0  0  0  0  0  0  0
    0.8364   -0.6947    2.3327 H   0  0  0  0  0  0  0  0  0  0  0  0
    7.7582    1.7637   -0.2248 H   0  0  0  0  0  0  0  0  0  0  0  0
   -0.4050   -4.2062   -1.2716 H   0  0  0  0  0  0  0  0  0  0  0  0
   -2.4195   -4.2264   -2.7352 H   0  0  0  0  0  0  0  0  0  0  0  0
   -4.0191   -2.3154   -2.5554 H   0  0  0  0  0  0  0  0  0  0  0  0
   -4.4952    0.0575   -1.2275 H   0  0  0  0  0  0  0  0  0  0  0  0
  1  2  1  0
  2  3  1  0
  3  4  2  0
  3  5  1  0
  5  6  2  0
  6  7  1  0
  7  8  2  0
  8  9  1  0
  9 10  1  0
 10 11  2  0
 11 12  1  0
 12 13  2  0
 13 14  1  0
 14 15  2  0
 13 16  1  0
 16 17  2  0
 17 18  1  0
 18 19  1  0
 19 20  2  0
 19 21  1  0
  8 22  1  0
 22 23  2  0
 23 24  1  0
 24 25  2  0
 25 26  1  0
 26  5  1  0
 25  7  1  0
 15 10  1  0
 21 16  1  0
  1 27  1  0
  1 28  1  0
  1 29  1  0
  2 30  1  0
  6 31  1  0
 11 32  1  0
 12 33  1  0
 14 34  1  0
 15 35  1  0
 18 36  1  0
 22 37  1  0
 23 38  1  0
 24 39  1  0
 26 40  1  0
M  END
$$$$
[H]c1nc(-c2c([H])c([H])c([H])c(S(=O)(=O)N([H])C(=O)[C@@]([H])(N([H])[H])C([H])([H])C([H])(C([H])([H])[H])C([H])([H])[H])c2[H])c([H])c(N([H])[H])n1
     RDKit          3D

 46 47  0  0  0  0  0  0  0  0999 V2000
    6.3920   -0.4867    0.2009 C   0  0  0  0  0  0  0  0  0  0  0  0
    5.1568   -1.2404   -0.1520 C   0  0  0  0  0  0  0  0  0  0  0  0
    5.2959   -2.7182    0.1606 C   0  0  0  0  0  0  0  0  0  0  0  0
    3.9401   -0.6571    0.4887 C   0  0  0  0  0  0  0  0  0  0  0  0
    3.6687    0.7476    0.0693 C   0  0  2  0  0  0  0  0  0  0  0  0
    4.7277    1.6874    0.3909 N   0  0  0  0  0  0  0  0  0  0  0  0
    2.3760    1.2000    0.6241 C   0  0  0  0  0  0  0  0  0  0  0  0
    2.3708    2.2625    1.2804 O   0  0  0  0  0  0  0  0  0  0  0  0
    1.1771    0.4814    0.4352 N   0  0  0  0  0  0  0  0  0  0  0  0
   -0.2483    1.1741    1.1501 S   0  0  0  0  0  0  0  0  0  0  0  0
    0.0232    2.5427    1.7065 O   0  0  0  0  0  0  0  0  0  0  0  0
   -0.6639    0.2138    2.2357 O   0  0  0  0  0  0  0  0  0  0  0  0
   -1.5150    1.2262   -0.0448 C   0  0  0  0  0  0  0  0  0  0  0  0
   -1.3896    2.0055   -1.1980 C   0  0  0  0  0  0  0  0  0  0  0  0
   -2.4115    2.1098   -2.1105 C   0  0  0  0  0  0  0  0  0  0  0  0
   -3.5980    1.4348   -1.9010 C   0  0  0  0  0  0  0  0  0  0  0  0
   -3.7773    0.6382   -0.7612 C   0  0  0  0  0  0  0  0  0  0  0  0
   -2.7248    0.5679    0.1180 C   0  0  0  0  0  0  0  0  0  0  0  0
   -5.0607    0.0012   -0.5931 C   0  0  0  0  0  0  0  0  0  0  0  0
   -5.3225   -0.7607    0.5112 C   0  0  0  0  0  0  0  0  0  0  0  0
   -6.5750   -1.3532    0.7017 C   0  0  0  0  0  0  0  0  0  0  0  0
   -6.8545   -2.1326    1.8577 N   0  0  0  0  0  0  0  0  0  0  0  0
   -7.4974   -1.1343   -0.2533 N   0  0  0  0  0  0  0  0  0  0  0  0
   -7.2276   -0.3723   -1.3546 C   0  0  0  0  0  0  0  0  0  0  0  0
   -6.0168    0.1820   -1.5082 N   0  0  0  0  0  0  0  0  0  0  0  0
    6.3842   -0.0376    1.2153 H   0  0  0  0  0  0  0  0  0  0  0  0
    7.3100   -1.1449    0.1496 H   0  0  0  0  0  0  0  0  0  0  0  0
    6.5743    0.3035   -0.5424 H   0  0  0  0  0  0  0  0  0  0  0  0
    4.9648   -1.1973   -1.2729 H   0  0  0  0  0  0  0  0  0  0  0  0
    6.1062   -3.1132   -0.5079 H   0  0  0  0  0  0  0  0  0  0  0  0
    4.3299   -3.1963   -0.0132 H   0  0  0  0  0  0  0  0  0  0  0  0
    5.5578   -2.8370    1.2328 H   0  0  0  0  0  0  0  0  0  0  0  0
    4.0242   -0.6661    1.6118 H   0  0  0  0  0  0  0  0  0  0  0  0
    3.0207   -1.2514    0.2521 H   0  0  0  0  0  0  0  0  0  0  0  0
    3.5627    0.7563   -1.0588 H   0  0  0  0  0  0  0  0  0  0  0  0
    4.8599    1.8243    1.4071 H   0  0  0  0  0  0  0  0  0  0  0  0
    4.4521    2.5979   -0.0335 H   0  0  0  0  0  0  0  0  0  0  0  0
    1.0580   -0.4084   -0.0817 H   0  0  0  0  0  0  0  0  0  0  0  0
   -0.4363    2.5197   -1.3211 H   0  0  0  0  0  0  0  0  0  0  0  0
   -2.2854    2.7223   -2.9975 H   0  0  0  0  0  0  0  0  0  0  0  0
   -4.3850    1.5322   -2.6326 H   0  0  0  0  0  0  0  0  0  0  0  0
   -2.8358   -0.0360    0.9961 H   0  0  0  0  0  0  0  0  0  0  0  0
   -4.6016   -0.9570    1.2914 H   0  0  0  0  0  0  0  0  0  0  0  0
   -7.7740   -2.6111    1.9188 H   0  0  0  0  0  0  0  0  0  0  0  0
   -6.1770   -2.2265    2.6166 H   0  0  0  0  0  0  0  0  0  0  0  0
   -7.9550   -0.1932   -2.1150 H   0  0  0  0  0  0  0  0  0  0  0  0
  1  2  1  0
  2  3  1  0
  2  4  1  0
  4  5  1  0
  5  6  1  0
  5  7  1  0
  7  8  2  0
  7  9  1  0
  9 10  1  0
 10 11  2  0
 10 12  2  0
 10 13  1  0
 13 14  2  0
 14 15  1  0
 15 16  2  0
 16 17  1  0
 17 18  2  0
 17 19  1  0
 19 20  2  0
 20 21  1  0
 21 22  1  0
 21 23  2  0
 23 24  1  0
 24 25  2  0
 18 13  1  0
 25 19  1  0
  1 26  1  0
  1 27  1  0
  1 28  1  0
  2 29  1  0
  3 30  1  0
  3 31  1  0
  3 32  1  0
  4 33  1  0
  4 34  1  0
  5 35  1  6
  6 36  1  0
  6 37  1  0
  9 38  1  0
 14 39  1  0
 15 40  1  0
 16 41  1  0
 18 42  1  0
 20 43  1  0
 22 44  1  0
 22 45  1  0
 24 46  1  0
M  END
$$$$
[H]c1nc([H])c(-c2c([H])c3nc(N([H])C(=O)N([H])C([H])([H])C([H])([H])[H])sc3n(C([H])([H])C3([H])C([H])([H])C3([H])[H])c2=O)c([H])c1[H]
     RDKit          3D

 45 48  0  0  0  0  0  0  0  0999 V2000
    7.8675   -0.5977    1.1364 C   0  0  0  0  0  0  0  0  0  0  0  0
    6.4863   -1.0308    0.7062 C   0  0  0  0  0  0  0  0  0  0  0  0
    5.5014   -0.0337    1.0759 N   0  0  0  0  0  0  0  0  0  0  0  0
    4.1169   -0.1961    0.7854 C   0  0  0  0  0  0  0  0  0  0  0  0
    3.7765   -1.2529    0.1872 O   0  0  0  0  0  0  0  0  0  0  0  0
    3.2066    0.7878    1.1593 N   0  0  0  0  0  0  0  0  0  0  0  0
    1.8101    0.6196    0.8640 C   0  0  0  0  0  0  0  0  0  0  0  0
    1.2015   -0.3790    0.2560 N   0  0  0  0  0  0  0  0  0  0  0  0
   -0.0855   -0.3488    0.0798 C   0  0  0  0  0  0  0  0  0  0  0  0
   -0.9055   -1.3114   -0.5410 C   0  0  0  0  0  0  0  0  0  0  0  0
   -2.2570   -1.1677   -0.6681 C   0  0  0  0  0  0  0  0  0  0  0  0
   -3.0522   -2.2172   -1.3321 C   0  0  0  0  0  0  0  0  0  0  0  0
   -2.8653   -3.5438   -1.0377 C   0  0  0  0  0  0  0  0  0  0  0  0
   -3.6151   -4.5353   -1.6661 C   0  0  0  0  0  0  0  0  0  0  0  0
   -4.5634   -4.1812   -2.6016 C   0  0  0  0  0  0  0  0  0  0  0  0
   -4.7359   -2.8743   -2.8807 N   0  0  0  0  0  0  0  0  0  0  0  0
   -4.0040   -1.8979   -2.2681 C   0  0  0  0  0  0  0  0  0  0  0  0
   -2.8864   -0.0313   -0.1731 C   0  0  0  0  0  0  0  0  0  0  0  0
   -4.1149    0.1257   -0.2746 O   0  0  0  0  0  0  0  0  0  0  0  0
   -2.1176    0.8937    0.4206 N   0  0  0  0  0  0  0  0  0  0  0  0
   -2.7062    2.0980    0.9568 C   0  0  0  0  0  0  0  0  0  0  0  0
   -2.7573    3.2137   -0.0589 C   0  0  0  0  0  0  0  0  0  0  0  0
   -3.3789    4.5155    0.4753 C   0  0  0  0  0  0  0  0  0  0  0  0
   -1.8683    4.4045    0.3058 C   0  0  0  0  0  0  0  0  0  0  0  0
   -0.7637    0.7475    0.5466 C   0  0  0  0  0  0  0  0  0  0  0  0
    0.5130    1.6740    1.2169 S   0  0  0  0  0  0  0  0  0  0  0  0
    8.0930   -0.8848    2.1813 H   0  0  0  0  0  0  0  0  0  0  0  0
    8.0166    0.4971    0.9914 H   0  0  0  0  0  0  0  0  0  0  0  0
    8.6023   -1.1005    0.4616 H   0  0  0  0  0  0  0  0  0  0  0  0
    6.2616   -1.9671    1.2805 H   0  0  0  0  0  0  0  0  0  0  0  0
    6.4343   -1.2155   -0.3816 H   0  0  0  0  0  0  0  0  0  0  0  0
    5.8472    0.8380    1.5789 H   0  0  0  0  0  0  0  0  0  0  0  0
    3.4987    1.6410    1.6448 H   0  0  0  0  0  0  0  0  0  0  0  0
   -0.4651   -2.2239   -0.9481 H   0  0  0  0  0  0  0  0  0  0  0  0
   -2.1384   -3.8762   -0.3152 H   0  0  0  0  0  0  0  0  0  0  0  0
   -3.4866   -5.5843   -1.4517 H   0  0  0  0  0  0  0  0  0  0  0  0
   -5.1631   -4.9495   -3.1065 H   0  0  0  0  0  0  0  0  0  0  0  0
   -4.1692   -0.8766   -2.5167 H   0  0  0  0  0  0  0  0  0  0  0  0
   -2.1583    2.3763    1.8671 H   0  0  0  0  0  0  0  0  0  0  0  0
   -3.7574    1.8669    1.2293 H   0  0  0  0  0  0  0  0  0  0  0  0
   -2.9481    2.9911   -1.1070 H   0  0  0  0  0  0  0  0  0  0  0  0
   -3.7849    4.4974    1.5134 H   0  0  0  0  0  0  0  0  0  0  0  0
   -3.8510    5.1902   -0.2679 H   0  0  0  0  0  0  0  0  0  0  0  0
   -1.3897    4.9509   -0.5301 H   0  0  0  0  0  0  0  0  0  0  0  0
   -1.2443    4.3483    1.2059 H   0  0  0  0  0  0  0  0  0  0  0  0
  1  2  1  0
  2  3  1  0
  3  4  1  0
  4  5  2  0
  4  6  1  0
  6  7  1  0
  7  8  2  0
  8  9  1  0
  9 10  1  0
 10 11  2  0
 11 12  1  0
 12 13  2  0
 13 14  1  0
 14 15  2  0
 15 16  1  0
 16 17  2  0
 11 18  1  0
 18 19  2  0
 18 20  1  0
 20 21  1  0
 21 22  1  0
 22 23  1  0
 23 24  1  0
 20 25  1  0
 25 26  1  0
 26  7  1  0
 25  9  2  0
 17 12  1  0
 24 22  1  0
  1 27  1  0
  1 28  1  0
  1 29  1  0
  2 30  1  0
  2 31  1  0
  3 32  1  0
  6 33  1  0
 10 34  1  0
 13 35  1  0
 14 36  1  0
 15 37  1  0
 17 38  1  0
 21 39  1  0
 21 40  1  0
 22 41  1  0
 23 42  1  0
 23 43  1  0
 24 44  1  0
 24 45  1  0
M  END
$$$$
[H]Oc1c([H])c([H])c(C(=O)/C([H])=C(\[H])c2c([H])c([H])c([H])c([H])c2O[H])c(O[H])c1[H]
     RDKit          3D

 31 32  0  0  0  0  0  0  0  0999 V2000
    2.3668   -1.1633   -0.6221 O   0  0  0  0  0  0  0  0  0  0  0  0
    3.1514   -0.0302   -0.3993 C   0  0  0  0  0  0  0  0  0  0  0  0
    4.5267   -0.1254   -0.6896 C   0  0  0  0  0  0  0  0  0  0  0  0
    5.3211    0.9664   -0.4838 C   0  0  0  0  0  0  0  0  0  0  0  0
    4.7716    2.1288   -0.0007 C   0  0  0  0  0  0  0  0  0  0  0  0
    3.4451    2.2404    0.2859 C   0  0  0  0  0  0  0  0  0  0  0  0
    2.5932    1.1255    0.0828 C   0  0  0  0  0  0  0  0  0  0  0  0
    1.1899    1.2941    0.3931 C   0  0  0  0  0  0  0  0  0  0  0  0
    0.2133    0.4362    0.2463 C   0  0  0  0  0  0  0  0  0  0  0  0
   -1.1634    0.7608    0.6113 C   0  0  0  0  0  0  0  0  0  0  0  0
   -1.4362    1.9087    1.1026 O   0  0  0  0  0  0  0  0  0  0  0  0
   -2.2527   -0.1879    0.4341 C   0  0  0  0  0  0  0  0  0  0  0  0
   -2.0527   -1.4329   -0.1042 C   0  0  0  0  0  0  0  0  0  0  0  0
   -3.0932   -2.3171   -0.2810 C   0  0  0  0  0  0  0  0  0  0  0  0
   -4.3635   -1.9405    0.0925 C   0  0  0  0  0  0  0  0  0  0  0  0
   -5.4317   -2.8024   -0.0712 O   0  0  0  0  0  0  0  0  0  0  0  0
   -4.5918   -0.6835    0.6410 C   0  0  0  0  0  0  0  0  0  0  0  0
   -3.5460    0.1785    0.8082 C   0  0  0  0  0  0  0  0  0  0  0  0
   -3.7576    1.4286    1.3521 O   0  0  0  0  0  0  0  0  0  0  0  0
    2.7721   -2.0190   -0.9587 H   0  0  0  0  0  0  0  0  0  0  0  0
    4.8894   -1.0721   -1.0654 H   0  0  0  0  0  0  0  0  0  0  0  0
    6.3831    0.9014   -0.7069 H   0  0  0  0  0  0  0  0  0  0  0  0
    5.4231    2.9994    0.1577 H   0  0  0  0  0  0  0  0  0  0  0  0
    3.0146    3.1571    0.6654 H   0  0  0  0  0  0  0  0  0  0  0  0
    0.8735    2.2714    0.8100 H   0  0  0  0  0  0  0  0  0  0  0  0
    0.3886   -0.5308   -0.1437 H   0  0  0  0  0  0  0  0  0  0  0  0
   -1.0633   -1.7850   -0.4192 H   0  0  0  0  0  0  0  0  0  0  0  0
   -2.9099   -3.3178   -0.7170 H   0  0  0  0  0  0  0  0  0  0  0  0
   -5.3651   -3.7249   -0.4589 H   0  0  0  0  0  0  0  0  0  0  0  0
   -5.6117   -0.4027    0.9309 H   0  0  0  0  0  0  0  0  0  0  0  0
   -4.6848    1.7380    1.6431 H   0  0  0  0  0  0  0  0  0  0  0  0
  1  2  1  0
  2  3  2  0
  3  4  1  0
  4  5  2  0
  5  6  1  0
  6  7  2  0
  7  8  1  0
  8  9  2  0
  9 10  1  0
 10 11  2  0
 10 12  1  0
 12 13  2  0
 13 14  1  0
 14 15  2  0
 15 16  1  0
 15 17  1  0
 17 18  2  0
 18 19  1  0
  7  2  1  0
 18 12  1  0
  1 20  1  0
  3 21  1  0
  4 22  1  0
  5 23  1  0
  6 24  1  0
  8 25  1  0
  9 26  1  0
 13 27  1  0
 14 28  1  0
 16 29  1  0
 17 30  1  0
 19 31  1  0
M  END
$$$$
[H]c1c([H])c([H])c(N2C([H])([H])C([H])([H])N(C([H])([H])C([H])([H])n3c(=O)c4sc5c([H])c([H])c(C([H])([H])[H])c([H])c5c4n([H])c3=O)C([H])([H])C2([H])[H])c(OC([H])([H])[H])c1[H]
     RDKit          3D

 58 62  0  0  0  0  0  0  0  0999 V2000
   -7.0822    2.3165    0.2290 C   0  0  0  0  0  0  0  0  0  0  0  0
   -5.9074    1.6165   -0.0545 O   0  0  0  0  0  0  0  0  0  0  0  0
   -5.9077    0.3001   -0.4740 C   0  0  0  0  0  0  0  0  0  0  0  0
   -7.1217   -0.3434   -0.6161 C   0  0  0  0  0  0  0  0  0  0  0  0
   -7.1404   -1.6535   -1.0320 C   0  0  0  0  0  0  0  0  0  0  0  0
   -5.9725   -2.3447   -1.3120 C   0  0  0  0  0  0  0  0  0  0  0  0
   -4.7798   -1.6642   -1.1567 C   0  0  0  0  0  0  0  0  0  0  0  0
   -4.7333   -0.3718   -0.7478 C   0  0  0  0  0  0  0  0  0  0  0  0
   -3.4938    0.2847   -0.6029 N   0  0  0  0  0  0  0  0  0  0  0  0
   -3.0643    0.8368    0.6820 C   0  0  0  0  0  0  0  0  0  0  0  0
   -1.6051    1.1695    0.5986 C   0  0  0  0  0  0  0  0  0  0  0  0
   -0.8259    0.1407   -0.0296 N   0  0  0  0  0  0  0  0  0  0  0  0
   -0.6343   -0.9968    0.7756 C   0  0  0  0  0  0  0  0  0  0  0  0
    0.3188   -0.8101    1.9145 C   0  0  0  0  0  0  0  0  0  0  0  0
    1.6398   -0.5349    1.4683 N   0  0  0  0  0  0  0  0  0  0  0  0
    2.2686    0.6192    1.3124 C   0  0  0  0  0  0  0  0  0  0  0  0
    1.6375    1.6769    1.6379 O   0  0  0  0  0  0  0  0  0  0  0  0
    3.4973    0.7824    0.8519 N   0  0  0  0  0  0  0  0  0  0  0  0
    4.2843   -0.2857    0.4709 C   0  0  0  0  0  0  0  0  0  0  0  0
    5.5547   -0.2831   -0.0175 C   0  0  0  0  0  0  0  0  0  0  0  0
    6.3910    0.8286   -0.2584 C   0  0  0  0  0  0  0  0  0  0  0  0
    7.6488    0.7054   -0.7516 C   0  0  0  0  0  0  0  0  0  0  0  0
    8.4709    1.9088   -0.9851 C   0  0  0  0  0  0  0  0  0  0  0  0
    8.1906   -0.5131   -1.0487 C   0  0  0  0  0  0  0  0  0  0  0  0
    7.4092   -1.6224   -0.8285 C   0  0  0  0  0  0  0  0  0  0  0  0
    6.1047   -1.4917   -0.3172 C   0  0  0  0  0  0  0  0  0  0  0  0
    4.8725   -2.5989    0.0758 S   0  0  0  0  0  0  0  0  0  0  0  0
    3.6794   -1.5002    0.6148 C   0  0  0  0  0  0  0  0  0  0  0  0
    2.3730   -1.6372    1.1065 C   0  0  0  0  0  0  0  0  0  0  0  0
    1.9234   -2.7908    1.1940 O   0  0  0  0  0  0  0  0  0  0  0  0
   -1.2761   -0.1835   -1.3547 C   0  0  0  0  0  0  0  0  0  0  0  0
   -2.5862    0.4491   -1.7114 C   0  0  0  0  0  0  0  0  0  0  0  0
   -7.5193    2.0747    1.2201 H   0  0  0  0  0  0  0  0  0  0  0  0
   -7.8764    2.1780   -0.5557 H   0  0  0  0  0  0  0  0  0  0  0  0
   -6.9147    3.4312    0.2505 H   0  0  0  0  0  0  0  0  0  0  0  0
   -8.0588    0.1390   -0.4127 H   0  0  0  0  0  0  0  0  0  0  0  0
   -8.0770   -2.1639   -1.1466 H   0  0  0  0  0  0  0  0  0  0  0  0
   -6.0328   -3.3595   -1.6302 H   0  0  0  0  0  0  0  0  0  0  0  0
   -3.8498   -2.2095   -1.3791 H   0  0  0  0  0  0  0  0  0  0  0  0
   -3.6082    1.7986    0.8433 H   0  0  0  0  0  0  0  0  0  0  0  0
   -3.2447    0.1233    1.4982 H   0  0  0  0  0  0  0  0  0  0  0  0
   -1.2345    1.3276    1.6286 H   0  0  0  0  0  0  0  0  0  0  0  0
   -1.4984    2.0914   -0.0176 H   0  0  0  0  0  0  0  0  0  0  0  0
   -1.6321   -1.3607    1.1599 H   0  0  0  0  0  0  0  0  0  0  0  0
   -0.2936   -1.8422    0.1089 H   0  0  0  0  0  0  0  0  0  0  0  0
   -0.0589    0.0039    2.6053 H   0  0  0  0  0  0  0  0  0  0  0  0
    0.2785   -1.7216    2.5781 H   0  0  0  0  0  0  0  0  0  0  0  0
    3.8673    1.7634    0.7808 H   0  0  0  0  0  0  0  0  0  0  0  0
    6.0275    1.8481   -0.0448 H   0  0  0  0  0  0  0  0  0  0  0  0
    9.2498    1.7455   -1.7531 H   0  0  0  0  0  0  0  0  0  0  0  0
    7.7736    2.6806   -1.4209 H   0  0  0  0  0  0  0  0  0  0  0  0
    8.8776    2.3631   -0.0594 H   0  0  0  0  0  0  0  0  0  0  0  0
    9.1825   -0.5892   -1.4338 H   0  0  0  0  0  0  0  0  0  0  0  0
    7.7507   -2.6132   -1.0329 H   0  0  0  0  0  0  0  0  0  0  0  0
   -0.4889    0.1316   -2.0815 H   0  0  0  0  0  0  0  0  0  0  0  0
   -1.3764   -1.2944   -1.4454 H   0  0  0  0  0  0  0  0  0  0  0  0
   -2.4028    1.5214   -1.9250 H   0  0  0  0  0  0  0  0  0  0  0  0
   -2.9738   -0.0765   -2.6100 H   0  0  0  0  0  0  0  0  0  0  0  0
  1  2  1  0
  2  3  1  0
  3  4  2  0
  4  5  1  0
  5  6  2  0
  6  7  1  0
  7  8  2  0
  8  9  1  0
  9 10  1  0
 10 11  1  0
 11 12  1  0
 12 13  1  0
 13 14  1  0
 14 15  1  0
 15 16  1  0
 16 17  2  0
 16 18  1  0
 18 19  1  0
 19 20  1  0
 20 21  2  0
 21 22  1  0
 22 23  1  0
 22 24  2  0
 24 25  1  0
 25 26  2  0
 26 27  1  0
 27 28  1  0
 28 29  1  0
 29 30  2  0
 12 31  1  0
 31 32  1  0
  8  3  1  0
 32  9  1  0
 29 15  1  0
 28 19  2  0
 26 20  1  0
  1 33  1  0
  1 34  1  0
  1 35  1  0
  4 36  1  0
  5 37  1  0
  6 38  1  0
  7 39  1  0
 10 40  1  0
 10 41  1  0
 11 42  1  0
 11 43  1  0
 13 44  1  0
 13 45  1  0
 14 46  1  0
 14 47  1  0
 18 48  1  0
 21 49  1  0
 23 50  1  0
 23 51  1  0
 23 52  1  0
 24 53  1  0
 25 54  1  0
 31 55  1  0
 31 56  1  0
 32 57  1  0
 32 58  1  0
M  END
$$$$
[H]c1nc(Oc2c([H])c([H])c(N([H])C(=O)N([H])c3c([H])c([H])c(C([H])([H])N4C([H])([H])C([H])([H])N(C([H])([H])C([H])([H])[H])C([H])([H])C4([H])[H])c(C(F)(F)F)c3[H])c([H])c2[H])c([H])c(N([H])C([H])([H])[H])n1
     RDKit          3D

 68 71  0  0  0  0  0  0  0  0999 V2000
  -10.2990   -0.3201   -0.2443 C   0  0  0  0  0  0  0  0  0  0  0  0
   -9.0487    0.5002   -0.4280 C   0  0  0  0  0  0  0  0  0  0  0  0
   -8.1793   -0.0359   -1.4572 N   0  0  0  0  0  0  0  0  0  0  0  0
   -7.0305    0.8062   -1.5517 C   0  0  0  0  0  0  0  0  0  0  0  0
   -5.7154    0.1130   -1.2911 C   0  0  0  0  0  0  0  0  0  0  0  0
   -5.7379   -0.8228   -0.2229 N   0  0  0  0  0  0  0  0  0  0  0  0
   -5.1553   -0.4373    1.0060 C   0  0  0  0  0  0  0  0  0  0  0  0
   -3.7153   -0.2169    1.0542 C   0  0  0  0  0  0  0  0  0  0  0  0
   -2.9459   -0.4458   -0.0457 C   0  0  0  0  0  0  0  0  0  0  0  0
   -1.5554   -0.2549    0.0222 C   0  0  0  0  0  0  0  0  0  0  0  0
   -0.9188    0.1543    1.1522 C   0  0  0  0  0  0  0  0  0  0  0  0
    0.4451    0.3547    1.3623 N   0  0  0  0  0  0  0  0  0  0  0  0
    1.4499   -0.2261    0.5465 C   0  0  0  0  0  0  0  0  0  0  0  0
    1.1958   -0.9699   -0.4220 O   0  0  0  0  0  0  0  0  0  0  0  0
    2.8063    0.0526    0.8476 N   0  0  0  0  0  0  0  0  0  0  0  0
    3.8841   -0.4730    0.1219 C   0  0  0  0  0  0  0  0  0  0  0  0
    5.0696    0.2695    0.1595 C   0  0  0  0  0  0  0  0  0  0  0  0
    6.1724   -0.1959   -0.5017 C   0  0  0  0  0  0  0  0  0  0  0  0
    6.1984   -1.3743   -1.2203 C   0  0  0  0  0  0  0  0  0  0  0  0
    7.3559   -1.8175   -1.8874 O   0  0  0  0  0  0  0  0  0  0  0  0
    8.4788   -0.9936   -1.7796 C   0  0  0  0  0  0  0  0  0  0  0  0
    9.3306   -1.0781   -0.6992 C   0  0  0  0  0  0  0  0  0  0  0  0
   10.4383   -0.2312   -0.6411 C   0  0  0  0  0  0  0  0  0  0  0  0
   11.3426   -0.2777    0.4449 N   0  0  0  0  0  0  0  0  0  0  0  0
   12.4721    0.6190    0.4560 C   0  0  0  0  0  0  0  0  0  0  0  0
   10.6148    0.6290   -1.6528 N   0  0  0  0  0  0  0  0  0  0  0  0
    9.7904    0.7181   -2.7086 C   0  0  0  0  0  0  0  0  0  0  0  0
    8.7293   -0.1014   -2.7527 N   0  0  0  0  0  0  0  0  0  0  0  0
    5.0337   -2.0940   -1.2508 C   0  0  0  0  0  0  0  0  0  0  0  0
    3.8935   -1.6380   -0.5818 C   0  0  0  0  0  0  0  0  0  0  0  0
   -1.7503    0.3770    2.2572 C   0  0  0  0  0  0  0  0  0  0  0  0
   -3.1090    0.2069    2.2445 C   0  0  0  0  0  0  0  0  0  0  0  0
   -3.9076    0.4692    3.4596 C   0  0  0  0  0  0  0  0  0  0  0  0
   -3.0267    0.8724    4.4765 F   0  0  0  0  0  0  0  0  0  0  0  0
   -4.5531   -0.6222    3.9660 F   0  0  0  0  0  0  0  0  0  0  0  0
   -4.7451    1.5847    3.3219 F   0  0  0  0  0  0  0  0  0  0  0  0
   -6.9874   -1.4884    0.0062 C   0  0  0  0  0  0  0  0  0  0  0  0
   -7.8513   -1.4181   -1.2341 C   0  0  0  0  0  0  0  0  0  0  0  0
  -10.0056   -1.2236    0.3376 H   0  0  0  0  0  0  0  0  0  0  0  0
  -11.0156    0.2828    0.3494 H   0  0  0  0  0  0  0  0  0  0  0  0
  -10.7451   -0.5533   -1.2099 H   0  0  0  0  0  0  0  0  0  0  0  0
   -9.3902    1.5064   -0.7967 H   0  0  0  0  0  0  0  0  0  0  0  0
   -8.5282    0.6942    0.5188 H   0  0  0  0  0  0  0  0  0  0  0  0
   -6.9427    1.2787   -2.5729 H   0  0  0  0  0  0  0  0  0  0  0  0
   -7.0852    1.6803   -0.8419 H   0  0  0  0  0  0  0  0  0  0  0  0
   -5.3787   -0.3639   -2.2424 H   0  0  0  0  0  0  0  0  0  0  0  0
   -4.9782    0.9378   -1.0987 H   0  0  0  0  0  0  0  0  0  0  0  0
   -5.3596   -1.2873    1.7313 H   0  0  0  0  0  0  0  0  0  0  0  0
   -5.7610    0.3966    1.4141 H   0  0  0  0  0  0  0  0  0  0  0  0
   -3.3300   -0.7898   -1.0118 H   0  0  0  0  0  0  0  0  0  0  0  0
   -0.9627   -0.4277   -0.8741 H   0  0  0  0  0  0  0  0  0  0  0  0
    0.7597    0.9698    2.1611 H   0  0  0  0  0  0  0  0  0  0  0  0
    3.0013    0.6928    1.6707 H   0  0  0  0  0  0  0  0  0  0  0  0
    5.0877    1.2125    0.7209 H   0  0  0  0  0  0  0  0  0  0  0  0
    7.0847    0.3965   -0.4601 H   0  0  0  0  0  0  0  0  0  0  0  0
    9.1416   -1.7902    0.0899 H   0  0  0  0  0  0  0  0  0  0  0  0
   11.2010   -0.9471    1.2284 H   0  0  0  0  0  0  0  0  0  0  0  0
   12.6067    1.1140   -0.5277 H   0  0  0  0  0  0  0  0  0  0  0  0
   13.4237    0.0623    0.6491 H   0  0  0  0  0  0  0  0  0  0  0  0
   12.3043    1.3858    1.2464 H   0  0  0  0  0  0  0  0  0  0  0  0
    9.9776    1.4417   -3.5159 H   0  0  0  0  0  0  0  0  0  0  0  0
    5.0003   -3.0327   -1.8043 H   0  0  0  0  0  0  0  0  0  0  0  0
    3.0130   -2.2945   -0.6480 H   0  0  0  0  0  0  0  0  0  0  0  0
   -1.3081    0.7006    3.1773 H   0  0  0  0  0  0  0  0  0  0  0  0
   -7.5417   -1.0573    0.8567 H   0  0  0  0  0  0  0  0  0  0  0  0
   -6.7530   -2.5420    0.2777 H   0  0  0  0  0  0  0  0  0  0  0  0
   -7.2335   -1.7544   -2.0856 H   0  0  0  0  0  0  0  0  0  0  0  0
   -8.7522   -2.0077   -1.0717 H   0  0  0  0  0  0  0  0  0  0  0  0
  1  2  1  0
  2  3  1  0
  3  4  1  0
  4  5  1  0
  5  6  1  0
  6  7  1  0
  7  8  1  0
  8  9  2  0
  9 10  1  0
 10 11  2  0
 11 12  1  0
 12 13  1  0
 13 14  2  0
 13 15  1  0
 15 16  1  0
 16 17  2  0
 17 18  1  0
 18 19  2  0
 19 20  1  0
 20 21  1  0
 21 22  2  0
 22 23  1  0
 23 24  1  0
 24 25  1  0
 23 26  2  0
 26 27  1  0
 27 28  2  0
 19 29  1  0
 29 30  2  0
 11 31  1  0
 31 32  2  0
 32 33  1  0
 33 34  1  0
 33 35  1  0
 33 36  1  0
  6 37  1  0
 37 38  1  0
 38  3  1  0
 32  8  1  0
 30 16  1  0
 28 21  1  0
  1 39  1  0
  1 40  1  0
  1 41  1  0
  2 42  1  0
  2 43  1  0
  4 44  1  0
  4 45  1  0
  5 46  1  0
  5 47  1  0
  7 48  1  0
  7 49  1  0
  9 50  1  0
 10 51  1  0
 12 52  1  0
 15 53  1  0
 17 54  1  0
 18 55  1  0
 22 56  1  0
 24 57  1  0
 25 58  1  0
 25 59  1  0
 25 60  1  0
 27 61  1  0
 29 62  1  0
 30 63  1  0
 31 64  1  0
 37 65  1  0
 37 66  1  0
 38 67  1  0
 38 68  1  0
M  END
$$$$
[H]c1nc([H])c(C([H])([H])[C@]2([H])N3C([H])([H])C([H])([H])C([H])(C([H])([H])C3([H])[H])[C@@]2([H])N([H])C(=O)c2c([H])c([H])c(Cl)c([H])c2[H])c([H])c1[H]
     RDKit          3D

 47 50  0  0  0  0  0  0  0  0999 V2000
    7.5011    2.3704   -0.3778 Cl  0  0  0  0  0  0  0  0  0  0  0  0
    5.9558    1.6010   -0.0123 C   0  0  0  0  0  0  0  0  0  0  0  0
    5.5976    1.3112    1.2742 C   0  0  0  0  0  0  0  0  0  0  0  0
    4.3873    0.7150    1.4921 C   0  0  0  0  0  0  0  0  0  0  0  0
    3.5156    0.3955    0.4634 C   0  0  0  0  0  0  0  0  0  0  0  0
    3.8759    0.6864   -0.8231 C   0  0  0  0  0  0  0  0  0  0  0  0
    5.1074    1.2939   -1.0539 C   0  0  0  0  0  0  0  0  0  0  0  0
    2.2295   -0.2401    0.7166 C   0  0  0  0  0  0  0  0  0  0  0  0
    1.9587   -0.4837    1.9472 O   0  0  0  0  0  0  0  0  0  0  0  0
    1.2867   -0.5967   -0.2702 N   0  0  0  0  0  0  0  0  0  0  0  0
    0.0577   -1.2148    0.0865 C   0  0  2  0  0  0  0  0  0  0  0  0
   -0.1881   -2.5304   -0.6249 C   0  0  0  0  0  0  0  0  0  0  0  0
   -0.9582   -2.2698   -1.9195 C   0  0  0  0  0  0  0  0  0  0  0  0
   -2.3753   -1.8432   -1.5517 C   0  0  0  0  0  0  0  0  0  0  0  0
   -2.3007   -1.2015   -0.2435 N   0  0  0  0  0  0  0  0  0  0  0  0
   -2.1911   -2.2811    0.7300 C   0  0  0  0  0  0  0  0  0  0  0  0
   -1.1434   -3.3026    0.2735 C   0  0  0  0  0  0  0  0  0  0  0  0
   -1.1549   -0.3398   -0.2517 C   0  0  1  0  0  0  0  0  0  0  0  0
   -1.2115    0.7419    0.8001 C   0  0  0  0  0  0  0  0  0  0  0  0
   -2.3238    1.6762    0.6249 C   0  0  0  0  0  0  0  0  0  0  0  0
   -2.2263    2.8315   -0.1227 C   0  0  0  0  0  0  0  0  0  0  0  0
   -3.3012    3.6988   -0.2700 C   0  0  0  0  0  0  0  0  0  0  0  0
   -4.4934    3.3917    0.3493 C   0  0  0  0  0  0  0  0  0  0  0  0
   -4.5888    2.2633    1.0796 N   0  0  0  0  0  0  0  0  0  0  0  0
   -3.5373    1.4165    1.2227 C   0  0  0  0  0  0  0  0  0  0  0  0
    6.2508    1.5449    2.1069 H   0  0  0  0  0  0  0  0  0  0  0  0
    4.0559    0.4629    2.5085 H   0  0  0  0  0  0  0  0  0  0  0  0
    3.2362    0.4611   -1.6766 H   0  0  0  0  0  0  0  0  0  0  0  0
    5.3583    1.5087   -2.0822 H   0  0  0  0  0  0  0  0  0  0  0  0
    1.4987   -0.4032   -1.2629 H   0  0  0  0  0  0  0  0  0  0  0  0
   -0.0015   -1.3474    1.2069 H   0  0  0  0  0  0  0  0  0  0  0  0
    0.7413   -3.0942   -0.8129 H   0  0  0  0  0  0  0  0  0  0  0  0
   -0.4593   -1.5069   -2.5442 H   0  0  0  0  0  0  0  0  0  0  0  0
   -1.0544   -3.2538   -2.4259 H   0  0  0  0  0  0  0  0  0  0  0  0
   -2.7806   -1.1095   -2.2761 H   0  0  0  0  0  0  0  0  0  0  0  0
   -3.0586   -2.7058   -1.4729 H   0  0  0  0  0  0  0  0  0  0  0  0
   -1.9725   -1.9006    1.7428 H   0  0  0  0  0  0  0  0  0  0  0  0
   -3.1664   -2.8072    0.7441 H   0  0  0  0  0  0  0  0  0  0  0  0
   -0.5542   -3.6830    1.1155 H   0  0  0  0  0  0  0  0  0  0  0  0
   -1.6061   -4.0962   -0.3435 H   0  0  0  0  0  0  0  0  0  0  0  0
   -0.9813    0.1152   -1.2428 H   0  0  0  0  0  0  0  0  0  0  0  0
   -0.2199    1.2601    0.7702 H   0  0  0  0  0  0  0  0  0  0  0  0
   -1.2284    0.2204    1.7935 H   0  0  0  0  0  0  0  0  0  0  0  0
   -1.3104    3.1104   -0.6250 H   0  0  0  0  0  0  0  0  0  0  0  0
   -3.2345    4.6072   -0.8543 H   0  0  0  0  0  0  0  0  0  0  0  0
   -5.3654    4.0132    0.2804 H   0  0  0  0  0  0  0  0  0  0  0  0
   -3.6271    0.5139    1.8117 H   0  0  0  0  0  0  0  0  0  0  0  0
  1  2  1  0
  2  3  2  0
  3  4  1  0
  4  5  2  0
  5  6  1  0
  6  7  2  0
  5  8  1  0
  8  9  2  0
  8 10  1  0
 10 11  1  0
 11 12  1  0
 12 13  1  0
 13 14  1  0
 14 15  1  0
 15 16  1  0
 16 17  1  0
 15 18  1  0
 18 19  1  0
 19 20  1  0
 20 21  2  0
 21 22  1  0
 22 23  2  0
 23 24  1  0
 24 25  2  0
  7  2  1  0
 18 11  1  0
 25 20  1  0
 17 12  1  0
  3 26  1  0
  4 27  1  0
  6 28  1  0
  7 29  1  0
 10 30  1  0
 11 31  1  1
 12 32  1  0
 13 33  1  0
 13 34  1  0
 14 35  1  0
 14 36  1  0
 16 37  1  0
 16 38  1  0
 17 39  1  0
 17 40  1  0
 18 41  1  6
 19 42  1  0
 19 43  1  0
 21 44  1  0
 22 45  1  0
 23 46  1  0
 25 47  1  0
M  END
$$$$
