[H]Oc1c([H])c([H])c(C([H])([H])C([H])([H])N([H])c2nc(N(C([H])([H])c3c([H])c([H])c(N([H])C(=O)C([H])([H])c4c([H])c([H])c([H])c([H])c4[H])c([H])c3[H])C([H])([H])C([H])([H])[H])nc(N3C([H])([H])C([H])([H])OC([H])([H])C3([H])[H])n2)c([H])c1[H]
     RDKit          3D

 79 83  0  0  0  0  0  0  0  0999 V2000
    0.3253    0.2958    3.6760 C   0  0  0  0  0  0  0  0  0  0  0  0
    1.1108    1.0273    2.6609 C   0  0  0  0  0  0  0  0  0  0  0  0
    0.4445    1.2455    1.4339 N   0  0  0  0  0  0  0  0  0  0  0  0
    1.1823    1.9314    0.3626 C   0  0  0  0  0  0  0  0  0  0  0  0
    2.3985    1.2067   -0.0320 C   0  0  0  0  0  0  0  0  0  0  0  0
    2.3685    0.1629   -0.9284 C   0  0  0  0  0  0  0  0  0  0  0  0
    3.4996   -0.5223   -1.3089 C   0  0  0  0  0  0  0  0  0  0  0  0
    4.7649   -0.1822   -0.7910 C   0  0  0  0  0  0  0  0  0  0  0  0
    5.8768   -0.9300   -1.2174 N   0  0  0  0  0  0  0  0  0  0  0  0
    7.2402   -0.6745   -1.0236 C   0  0  0  0  0  0  0  0  0  0  0  0
    7.6394    0.3227   -0.4060 O   0  0  0  0  0  0  0  0  0  0  0  0
    8.2510   -1.6231   -1.5716 C   0  0  0  0  0  0  0  0  0  0  0  0
    9.5968   -1.0948   -1.2310 C   0  0  0  0  0  0  0  0  0  0  0  0
   10.2711   -0.2707   -2.1331 C   0  0  0  0  0  0  0  0  0  0  0  0
   11.5171    0.2367   -1.8438 C   0  0  0  0  0  0  0  0  0  0  0  0
   12.1058   -0.0668   -0.6587 C   0  0  0  0  0  0  0  0  0  0  0  0
   11.4865   -0.8858    0.2893 C   0  0  0  0  0  0  0  0  0  0  0  0
   10.2404   -1.3727   -0.0415 C   0  0  0  0  0  0  0  0  0  0  0  0
    4.7731    0.8622    0.1018 C   0  0  0  0  0  0  0  0  0  0  0  0
    3.6095    1.5538    0.4829 C   0  0  0  0  0  0  0  0  0  0  0  0
   -0.8709    0.8764    1.1488 C   0  0  0  0  0  0  0  0  0  0  0  0
   -1.7256    0.2667    1.9787 N   0  0  0  0  0  0  0  0  0  0  0  0
   -2.9918   -0.0751    1.7094 C   0  0  0  0  0  0  0  0  0  0  0  0
   -3.8163   -0.7345    2.6588 N   0  0  0  0  0  0  0  0  0  0  0  0
   -5.1641   -1.0730    2.3112 C   0  0  0  0  0  0  0  0  0  0  0  0
   -6.0751    0.0895    2.0708 C   0  0  0  0  0  0  0  0  0  0  0  0
   -7.4580   -0.3747    1.7066 C   0  0  0  0  0  0  0  0  0  0  0  0
   -8.4130   -0.5948    2.6674 C   0  0  0  0  0  0  0  0  0  0  0  0
   -9.6934   -1.0253    2.3424 C   0  0  0  0  0  0  0  0  0  0  0  0
  -10.0287   -1.2410    1.0267 C   0  0  0  0  0  0  0  0  0  0  0  0
  -11.3217   -1.6766    0.6942 O   0  0  0  0  0  0  0  0  0  0  0  0
   -9.0813   -1.0245    0.0415 C   0  0  0  0  0  0  0  0  0  0  0  0
   -7.8201   -0.5980    0.3971 C   0  0  0  0  0  0  0  0  0  0  0  0
   -3.4268    0.2374    0.4708 N   0  0  0  0  0  0  0  0  0  0  0  0
   -2.6386    0.8502   -0.4300 C   0  0  0  0  0  0  0  0  0  0  0  0
   -1.3830    1.1641   -0.0982 N   0  0  0  0  0  0  0  0  0  0  0  0
   -3.1075    1.2050   -1.7237 N   0  0  0  0  0  0  0  0  0  0  0  0
   -4.1360    2.2022   -1.9538 C   0  0  0  0  0  0  0  0  0  0  0  0
   -4.5821    2.0148   -3.3927 C   0  0  0  0  0  0  0  0  0  0  0  0
   -4.8798    0.6736   -3.6093 O   0  0  0  0  0  0  0  0  0  0  0  0
   -3.7330   -0.1167   -3.6087 C   0  0  0  0  0  0  0  0  0  0  0  0
   -2.5667    0.5368   -2.8851 C   0  0  0  0  0  0  0  0  0  0  0  0
    0.9520    0.1235    4.6160 H   0  0  0  0  0  0  0  0  0  0  0  0
   -0.5546    0.8401    4.0587 H   0  0  0  0  0  0  0  0  0  0  0  0
    0.0096   -0.7290    3.4098 H   0  0  0  0  0  0  0  0  0  0  0  0
    1.3031    2.0752    3.0861 H   0  0  0  0  0  0  0  0  0  0  0  0
    2.1490    0.6196    2.5343 H   0  0  0  0  0  0  0  0  0  0  0  0
    0.5706    2.1214   -0.5225 H   0  0  0  0  0  0  0  0  0  0  0  0
    1.4545    2.9343    0.8005 H   0  0  0  0  0  0  0  0  0  0  0  0
    1.3790   -0.0851   -1.3185 H   0  0  0  0  0  0  0  0  0  0  0  0
    3.4086   -1.3396   -2.0273 H   0  0  0  0  0  0  0  0  0  0  0  0
    5.6533   -1.8134   -1.7603 H   0  0  0  0  0  0  0  0  0  0  0  0
    8.0987   -2.6122   -1.1118 H   0  0  0  0  0  0  0  0  0  0  0  0
    8.1311   -1.7578   -2.6669 H   0  0  0  0  0  0  0  0  0  0  0  0
    9.7681   -0.0505   -3.0736 H   0  0  0  0  0  0  0  0  0  0  0  0
   12.0279    0.8734   -2.5449 H   0  0  0  0  0  0  0  0  0  0  0  0
   13.0868    0.3227   -0.4130 H   0  0  0  0  0  0  0  0  0  0  0  0
   11.9690   -1.1206    1.2346 H   0  0  0  0  0  0  0  0  0  0  0  0
    9.7117   -2.0143    0.6575 H   0  0  0  0  0  0  0  0  0  0  0  0
    5.7192    1.1603    0.5323 H   0  0  0  0  0  0  0  0  0  0  0  0
    3.7193    2.3730    1.2049 H   0  0  0  0  0  0  0  0  0  0  0  0
   -3.4426   -0.9643    3.5859 H   0  0  0  0  0  0  0  0  0  0  0  0
   -5.1805   -1.6751    1.3555 H   0  0  0  0  0  0  0  0  0  0  0  0
   -5.6125   -1.7628    3.0662 H   0  0  0  0  0  0  0  0  0  0  0  0
   -6.2046    0.6162    3.0613 H   0  0  0  0  0  0  0  0  0  0  0  0
   -5.7301    0.8400    1.3633 H   0  0  0  0  0  0  0  0  0  0  0  0
   -8.1948   -0.4366    3.7188 H   0  0  0  0  0  0  0  0  0  0  0  0
  -10.4053   -1.1786    3.1718 H   0  0  0  0  0  0  0  0  0  0  0  0
  -12.0729   -1.0423    0.4966 H   0  0  0  0  0  0  0  0  0  0  0  0
   -9.3676   -1.1969   -0.9906 H   0  0  0  0  0  0  0  0  0  0  0  0
   -7.0760   -0.4305   -0.3690 H   0  0  0  0  0  0  0  0  0  0  0  0
   -4.9587    2.1734   -1.2281 H   0  0  0  0  0  0  0  0  0  0  0  0
   -3.6328    3.2085   -1.8876 H   0  0  0  0  0  0  0  0  0  0  0  0
   -5.4759    2.6123   -3.6050 H   0  0  0  0  0  0  0  0  0  0  0  0
   -3.7132    2.3302   -4.0339 H   0  0  0  0  0  0  0  0  0  0  0  0
   -3.9728   -1.0319   -3.0297 H   0  0  0  0  0  0  0  0  0  0  0  0
   -3.4163   -0.4029   -4.6106 H   0  0  0  0  0  0  0  0  0  0  0  0
   -2.0085    1.2405   -3.5040 H   0  0  0  0  0  0  0  0  0  0  0  0
   -1.8807   -0.2985   -2.6001 H   0  0  0  0  0  0  0  0  0  0  0  0
  1  2  1  0
  2  3  1  0
  3  4  1  0
  4  5  1  0
  5  6  2  0
  6  7  1  0
  7  8  2  0
  8  9  1  0
  9 10  1  0
 10 11  2  0
 10 12  1  0
 12 13  1  0
 13 14  2  0
 14 15  1  0
 15 16  2  0
 16 17  1  0
 17 18  2  0
  8 19  1  0
 19 20  2  0
  3 21  1  0
 21 22  2  0
 22 23  1  0
 23 24  1  0
 24 25  1  0
 25 26  1  0
 26 27  1  0
 27 28  2  0
 28 29  1  0
 29 30  2  0
 30 31  1  0
 30 32  1  0
 32 33  2  0
 23 34  2  0
 34 35  1  0
 35 36  2  0
 35 37  1  0
 37 38  1  0
 38 39  1  0
 39 40  1  0
 40 41  1  0
 41 42  1  0
 20  5  1  0
 36 21  1  0
 42 37  1  0
 18 13  1  0
 33 27  1  0
  1 43  1  0
  1 44  1  0
  1 45  1  0
  2 46  1  0
  2 47  1  0
  4 48  1  0
  4 49  1  0
  6 50  1  0
  7 51  1  0
  9 52  1  0
 12 53  1  0
 12 54  1  0
 14 55  1  0
 15 56  1  0
 16 57  1  0
 17 58  1  0
 18 59  1  0
 19 60  1  0
 20 61  1  0
 24 62  1  0
 25 63  1  0
 25 64  1  0
 26 65  1  0
 26 66  1  0
 28 67  1  0
 29 68  1  0
 31 69  1  0
 32 70  1  0
 33 71  1  0
 38 72  1  0
 38 73  1  0
 39 74  1  0
 39 75  1  0
 41 76  1  0
 41 77  1  0
 42 78  1  0
 42 79  1  0
M  END
$$$$
[H]C1=C2C([H])([H])C([H])([H])[C@@]3([H])[C@]4([H])C([H])([H])[C@@]([H])(OC([H])([H])C([H])([H])[H])[C@@]4(C([H])([H])[H])C([H])([H])C([H])([H])[C@]3([H])[C@@]2(C([H])([H])[H])C([H])([H])C([H])([H])C1=O
     RDKit          3D

 52 55  0  0  0  0  0  0  0  0999 V2000
    5.2731   -0.2236    0.9452 C   0  0  0  0  0  0  0  0  0  0  0  0
    4.4488    0.0528    2.1906 C   0  0  0  0  0  0  0  0  0  0  0  0
    3.0819    0.0428    1.9176 O   0  0  0  0  0  0  0  0  0  0  0  0
    2.7689    1.0086    0.9799 C   0  0  2  0  0  0  0  0  0  0  0  0
    1.5706    1.8352    1.5140 C   0  0  0  0  0  0  0  0  0  0  0  0
    0.7681    0.7220    1.0189 C   0  0  1  0  0  0  0  0  0  0  0  0
   -0.5532    0.8142    0.4007 C   0  0  2  0  0  0  0  0  0  0  0  0
   -1.6058    0.9403    1.4615 C   0  0  0  0  0  0  0  0  0  0  0  0
   -2.9933    0.6294    1.0492 C   0  0  0  0  0  0  0  0  0  0  0  0
   -3.1342   -0.3822   -0.0184 C   0  0  0  0  0  0  0  0  0  0  0  0
   -4.2103   -1.1521    0.0043 C   0  0  0  0  0  0  0  0  0  0  0  0
   -4.4243   -2.1863   -1.0272 C   0  0  0  0  0  0  0  0  0  0  0  0
   -5.1902   -3.1582   -0.8970 O   0  0  0  0  0  0  0  0  0  0  0  0
   -3.6264   -1.9768   -2.2871 C   0  0  0  0  0  0  0  0  0  0  0  0
   -2.2061   -1.7532   -1.8637 C   0  0  0  0  0  0  0  0  0  0  0  0
   -2.0682   -0.4778   -1.0483 C   0  0  1  0  0  0  0  0  0  0  0  0
   -2.1297    0.6832   -2.0171 C   0  0  0  0  0  0  0  0  0  0  0  0
   -0.7739   -0.5108   -0.3163 C   0  0  1  0  0  0  0  0  0  0  0  0
    0.3353   -0.9192   -1.2093 C   0  0  0  0  0  0  0  0  0  0  0  0
    1.7195   -0.7846   -0.5618 C   0  0  0  0  0  0  0  0  0  0  0  0
    1.8122    0.6038   -0.1003 C   0  0  2  0  0  0  0  0  0  0  0  0
    1.7495    1.6359   -1.1662 C   0  0  0  0  0  0  0  0  0  0  0  0
    5.5422   -1.3009    0.9297 H   0  0  0  0  0  0  0  0  0  0  0  0
    4.7209   -0.0147    0.0205 H   0  0  0  0  0  0  0  0  0  0  0  0
    6.2203    0.3846    0.9563 H   0  0  0  0  0  0  0  0  0  0  0  0
    4.7367    1.0260    2.6241 H   0  0  0  0  0  0  0  0  0  0  0  0
    4.6569   -0.7370    2.9593 H   0  0  0  0  0  0  0  0  0  0  0  0
    3.5921    1.6149    0.6017 H   0  0  0  0  0  0  0  0  0  0  0  0
    1.6299    1.9364    2.6377 H   0  0  0  0  0  0  0  0  0  0  0  0
    1.4834    2.8262    1.0735 H   0  0  0  0  0  0  0  0  0  0  0  0
    0.8614   -0.1757    1.6647 H   0  0  0  0  0  0  0  0  0  0  0  0
   -0.6775    1.6751   -0.2855 H   0  0  0  0  0  0  0  0  0  0  0  0
   -1.5958    1.9639    1.9382 H   0  0  0  0  0  0  0  0  0  0  0  0
   -1.3468    0.2528    2.3200 H   0  0  0  0  0  0  0  0  0  0  0  0
   -3.4378    1.5797    0.6271 H   0  0  0  0  0  0  0  0  0  0  0  0
   -3.6635    0.3998    1.9237 H   0  0  0  0  0  0  0  0  0  0  0  0
   -4.9885   -1.0820    0.7580 H   0  0  0  0  0  0  0  0  0  0  0  0
   -4.0925   -1.1037   -2.7820 H   0  0  0  0  0  0  0  0  0  0  0  0
   -3.7190   -2.8243   -2.9682 H   0  0  0  0  0  0  0  0  0  0  0  0
   -1.9479   -2.5859   -1.1497 H   0  0  0  0  0  0  0  0  0  0  0  0
   -1.4961   -1.6831   -2.6913 H   0  0  0  0  0  0  0  0  0  0  0  0
   -2.9409    0.5758   -2.7646 H   0  0  0  0  0  0  0  0  0  0  0  0
   -2.3546    1.6449   -1.4679 H   0  0  0  0  0  0  0  0  0  0  0  0
   -1.1892    0.7687   -2.5968 H   0  0  0  0  0  0  0  0  0  0  0  0
   -0.8729   -1.2959    0.4786 H   0  0  0  0  0  0  0  0  0  0  0  0
    0.4089   -0.4099   -2.1724 H   0  0  0  0  0  0  0  0  0  0  0  0
    0.2223   -2.0029   -1.4237 H   0  0  0  0  0  0  0  0  0  0  0  0
    2.4565   -1.1062   -1.3130 H   0  0  0  0  0  0  0  0  0  0  0  0
    1.7318   -1.4655    0.3181 H   0  0  0  0  0  0  0  0  0  0  0  0
    2.4878    1.3043   -1.9562 H   0  0  0  0  0  0  0  0  0  0  0  0
    2.1598    2.6359   -0.8406 H   0  0  0  0  0  0  0  0  0  0  0  0
    0.7997    1.7552   -1.6833 H   0  0  0  0  0  0  0  0  0  0  0  0
  1  2  1  0
  2  3  1  0
  3  4  1  0
  4  5  1  0
  5  6  1  0
  6  7  1  0
  7  8  1  0
  8  9  1  0
  9 10  1  0
 10 11  2  0
 11 12  1  0
 12 13  2  0
 12 14  1  0
 14 15  1  0
 15 16  1  0
 16 17  1  6
 16 18  1  0
 18 19  1  0
 19 20  1  0
 20 21  1  0
 21 22  1  6
 21  4  1  0
 21  6  1  0
 18  7  1  0
 16 10  1  0
  1 23  1  0
  1 24  1  0
  1 25  1  0
  2 26  1  0
  2 27  1  0
  4 28  1  6
  5 29  1  0
  5 30  1  0
  6 31  1  1
  7 32  1  6
  8 33  1  0
  8 34  1  0
  9 35  1  0
  9 36  1  0
 11 37  1  0
 14 38  1  0
 14 39  1  0
 15 40  1  0
 15 41  1  0
 17 42  1  0
 17 43  1  0
 17 44  1  0
 18 45  1  1
 19 46  1  0
 19 47  1  0
 20 48  1  0
 20 49  1  0
 22 50  1  0
 22 51  1  0
 22 52  1  0
M  END
$$$$
[H]Oc1c([H])c([H])c(C(=O)c2c(C([H])([H])C([H])([H])[H])n(-c3c([H])c([H])c([H])c([H])c3[H])c(=O)c3c([H])c([H])c([H])c([H])c23)c([H])c1[H]
     RDKit          3D

 47 50  0  0  0  0  0  0  0  0999 V2000
    0.6700   -0.9196    2.6427 C   0  0  0  0  0  0  0  0  0  0  0  0
    0.7664   -1.1423    1.1849 C   0  0  0  0  0  0  0  0  0  0  0  0
    0.7766   -0.0134    0.2747 C   0  0  0  0  0  0  0  0  0  0  0  0
   -0.3681    0.6916   -0.0119 C   0  0  0  0  0  0  0  0  0  0  0  0
   -1.5936    0.4859    0.7132 C   0  0  0  0  0  0  0  0  0  0  0  0
   -1.5562    1.0715    1.8849 O   0  0  0  0  0  0  0  0  0  0  0  0
   -2.7915   -0.2206    0.3727 C   0  0  0  0  0  0  0  0  0  0  0  0
   -2.9314   -1.2047   -0.5625 C   0  0  0  0  0  0  0  0  0  0  0  0
   -4.1446   -1.8607   -0.8320 C   0  0  0  0  0  0  0  0  0  0  0  0
   -5.2814   -1.4934   -0.1052 C   0  0  0  0  0  0  0  0  0  0  0  0
   -6.4992   -2.1530   -0.3736 O   0  0  0  0  0  0  0  0  0  0  0  0
   -5.1776   -0.5201    0.8280 C   0  0  0  0  0  0  0  0  0  0  0  0
   -3.9714    0.1064    1.0701 C   0  0  0  0  0  0  0  0  0  0  0  0
   -0.2982    1.7065   -0.9682 C   0  0  0  0  0  0  0  0  0  0  0  0
   -1.4526    2.4049   -1.2517 C   0  0  0  0  0  0  0  0  0  0  0  0
   -1.3817    3.4165   -2.2046 C   0  0  0  0  0  0  0  0  0  0  0  0
   -0.1998    3.7073   -2.8388 C   0  0  0  0  0  0  0  0  0  0  0  0
    0.9378    2.9964   -2.5415 C   0  0  0  0  0  0  0  0  0  0  0  0
    0.9231    1.9683   -1.5912 C   0  0  0  0  0  0  0  0  0  0  0  0
    2.0471    1.2573   -1.2879 C   0  0  0  0  0  0  0  0  0  0  0  0
    3.1447    1.4732   -1.8250 O   0  0  0  0  0  0  0  0  0  0  0  0
    1.9549    0.2785   -0.3600 N   0  0  0  0  0  0  0  0  0  0  0  0
    3.1237   -0.4687    0.0013 C   0  0  0  0  0  0  0  0  0  0  0  0
    3.6569   -0.1066    1.2432 C   0  0  0  0  0  0  0  0  0  0  0  0
    4.8005   -0.7489    1.6807 C   0  0  0  0  0  0  0  0  0  0  0  0
    5.3852   -1.7177    0.8968 C   0  0  0  0  0  0  0  0  0  0  0  0
    4.8344   -2.0592   -0.3370 C   0  0  0  0  0  0  0  0  0  0  0  0
    3.6923   -1.4297   -0.7901 C   0  0  0  0  0  0  0  0  0  0  0  0
    0.9911    0.0748    2.9801 H   0  0  0  0  0  0  0  0  0  0  0  0
   -0.3460   -1.1951    3.0648 H   0  0  0  0  0  0  0  0  0  0  0  0
    1.3328   -1.6614    3.2057 H   0  0  0  0  0  0  0  0  0  0  0  0
   -0.0823   -1.8270    0.8347 H   0  0  0  0  0  0  0  0  0  0  0  0
    1.6613   -1.8310    1.0071 H   0  0  0  0  0  0  0  0  0  0  0  0
   -2.0503   -1.4956   -1.1277 H   0  0  0  0  0  0  0  0  0  0  0  0
   -4.2353   -2.6281   -1.5681 H   0  0  0  0  0  0  0  0  0  0  0  0
   -6.6953   -2.9889    0.1652 H   0  0  0  0  0  0  0  0  0  0  0  0
   -6.0582   -0.2100    1.4254 H   0  0  0  0  0  0  0  0  0  0  0  0
   -3.8774    0.8917    1.8213 H   0  0  0  0  0  0  0  0  0  0  0  0
   -2.3970    2.1860   -0.7661 H   0  0  0  0  0  0  0  0  0  0  0  0
   -2.2887    3.9742   -2.4277 H   0  0  0  0  0  0  0  0  0  0  0  0
   -0.1149    4.4890   -3.5741 H   0  0  0  0  0  0  0  0  0  0  0  0
    1.8741    3.1948   -3.0197 H   0  0  0  0  0  0  0  0  0  0  0  0
    3.2066    0.6632    1.8629 H   0  0  0  0  0  0  0  0  0  0  0  0
    5.2281   -0.4904    2.6359 H   0  0  0  0  0  0  0  0  0  0  0  0
    6.2858   -2.1983    1.2629 H   0  0  0  0  0  0  0  0  0  0  0  0
    5.2855   -2.8040   -0.9572 H   0  0  0  0  0  0  0  0  0  0  0  0
    3.2137   -1.6496   -1.7374 H   0  0  0  0  0  0  0  0  0  0  0  0
  1  2  1  0
  2  3  1  0
  3  4  2  0
  4  5  1  0
  5  6  2  0
  5  7  1  0
  7  8  2  0
  8  9  1  0
  9 10  2  0
 10 11  1  0
 10 12  1  0
 12 13  2  0
  4 14  1  0
 14 15  2  0
 15 16  1  0
 16 17  2  0
 17 18  1  0
 18 19  2  0
 19 20  1  0
 20 21  2  0
 20 22  1  0
 22 23  1  0
 23 24  2  0
 24 25  1  0
 25 26  2  0
 26 27  1  0
 27 28  2  0
 22  3  1  0
 28 23  1  0
 13  7  1  0
 19 14  1  0
  1 29  1  0
  1 30  1  0
  1 31  1  0
  2 32  1  0
  2 33  1  0
  8 34  1  0
  9 35  1  0
 11 36  1  0
 12 37  1  0
 13 38  1  0
 15 39  1  0
 16 40  1  0
 17 41  1  0
 18 42  1  0
 24 43  1  0
 25 44  1  0
 26 45  1  0
 27 46  1  0
 28 47  1  0
M  END
$$$$
[H]c1c([H])c([H])c([C@@]2([H])N(C([H])([H])[H])C([H])([H])C([H])([H])N(c3c([H])c(C([H])([H])[H])c([H])c4c([H])c([H])c([H])c([H])c34)C2([H])[H])c(F)c1[H]
     RDKit          3D

 48 51  0  0  0  0  0  0  0  0999 V2000
    3.7228    3.1686    0.9137 C   0  0  0  0  0  0  0  0  0  0  0  0
    3.3721    1.7309    0.6459 C   0  0  0  0  0  0  0  0  0  0  0  0
    2.0978    1.4471    0.2935 C   0  0  0  0  0  0  0  0  0  0  0  0
    1.6302    0.1506    0.0160 C   0  0  0  0  0  0  0  0  0  0  0  0
    0.2811   -0.0315   -0.3797 N   0  0  0  0  0  0  0  0  0  0  0  0
   -0.0397   -0.3778   -1.7190 C   0  0  0  0  0  0  0  0  0  0  0  0
   -1.4417   -0.7958   -1.9895 C   0  0  0  0  0  0  0  0  0  0  0  0
   -2.1722   -1.2396   -0.8628 N   0  0  0  0  0  0  0  0  0  0  0  0
   -1.9441   -2.6101   -0.4874 C   0  0  0  0  0  0  0  0  0  0  0  0
   -2.0926   -0.3437    0.2759 C   0  0  1  0  0  0  0  0  0  0  0  0
   -0.7549    0.1720    0.6061 C   0  0  0  0  0  0  0  0  0  0  0  0
   -3.1888    0.6546    0.2908 C   0  0  0  0  0  0  0  0  0  0  0  0
   -3.1084    1.8670    0.9240 C   0  0  0  0  0  0  0  0  0  0  0  0
   -4.1790    2.7566    0.9238 C   0  0  0  0  0  0  0  0  0  0  0  0
   -5.3284    2.3911    0.2705 C   0  0  0  0  0  0  0  0  0  0  0  0
   -5.4437    1.1768   -0.3770 C   0  0  0  0  0  0  0  0  0  0  0  0
   -4.3785    0.3156   -0.3649 C   0  0  0  0  0  0  0  0  0  0  0  0
   -4.5022   -0.8908   -1.0128 F   0  0  0  0  0  0  0  0  0  0  0  0
    2.5654   -0.8605    0.1242 C   0  0  0  0  0  0  0  0  0  0  0  0
    2.1957   -2.1494   -0.1165 C   0  0  0  0  0  0  0  0  0  0  0  0
    3.1370   -3.1522   -0.0002 C   0  0  0  0  0  0  0  0  0  0  0  0
    4.4516   -2.9361    0.3502 C   0  0  0  0  0  0  0  0  0  0  0  0
    4.7931   -1.6217    0.5891 C   0  0  0  0  0  0  0  0  0  0  0  0
    3.8847   -0.5795    0.4863 C   0  0  0  0  0  0  0  0  0  0  0  0
    4.2785    0.7258    0.7461 C   0  0  0  0  0  0  0  0  0  0  0  0
    3.3536    3.7920    0.0703 H   0  0  0  0  0  0  0  0  0  0  0  0
    3.1849    3.4224    1.8545 H   0  0  0  0  0  0  0  0  0  0  0  0
    4.8170    3.2837    1.0667 H   0  0  0  0  0  0  0  0  0  0  0  0
    1.3455    2.2465    0.2079 H   0  0  0  0  0  0  0  0  0  0  0  0
    0.6869   -1.0497   -2.2296 H   0  0  0  0  0  0  0  0  0  0  0  0
    0.1041    0.6010   -2.3092 H   0  0  0  0  0  0  0  0  0  0  0  0
   -1.4330   -1.6165   -2.7420 H   0  0  0  0  0  0  0  0  0  0  0  0
   -2.0508    0.0196   -2.4852 H   0  0  0  0  0  0  0  0  0  0  0  0
   -1.0402   -3.0501   -0.9623 H   0  0  0  0  0  0  0  0  0  0  0  0
   -2.8291   -3.2470   -0.7517 H   0  0  0  0  0  0  0  0  0  0  0  0
   -1.8745   -2.6412    0.6217 H   0  0  0  0  0  0  0  0  0  0  0  0
   -2.3769   -1.0329    1.1640 H   0  0  0  0  0  0  0  0  0  0  0  0
   -0.8106    1.3069    0.6803 H   0  0  0  0  0  0  0  0  0  0  0  0
   -0.4059   -0.1688    1.6175 H   0  0  0  0  0  0  0  0  0  0  0  0
   -2.2090    2.1858    1.4760 H   0  0  0  0  0  0  0  0  0  0  0  0
   -4.0487    3.6888    1.4369 H   0  0  0  0  0  0  0  0  0  0  0  0
   -6.1727    3.0617    0.2563 H   0  0  0  0  0  0  0  0  0  0  0  0
   -6.3822    0.9566   -0.8733 H   0  0  0  0  0  0  0  0  0  0  0  0
    1.1676   -2.3582   -0.3809 H   0  0  0  0  0  0  0  0  0  0  0  0
    2.8369   -4.1699   -0.1943 H   0  0  0  0  0  0  0  0  0  0  0  0
    5.1858   -3.7425    0.4363 H   0  0  0  0  0  0  0  0  0  0  0  0
    5.8181   -1.3650    0.8729 H   0  0  0  0  0  0  0  0  0  0  0  0
    5.2976    0.9087    1.0208 H   0  0  0  0  0  0  0  0  0  0  0  0
  1  2  1  0
  2  3  2  0
  3  4  1  0
  4  5  1  0
  5  6  1  0
  6  7  1  0
  7  8  1  0
  8  9  1  0
  8 10  1  0
 10 11  1  0
 10 12  1  0
 12 13  2  0
 13 14  1  0
 14 15  2  0
 15 16  1  0
 16 17  2  0
 17 18  1  0
  4 19  2  0
 19 20  1  0
 20 21  2  0
 21 22  1  0
 22 23  2  0
 23 24  1  0
 24 25  2  0
 25  2  1  0
 11  5  1  0
 17 12  1  0
 24 19  1  0
  1 26  1  0
  1 27  1  0
  1 28  1  0
  3 29  1  0
  6 30  1  0
  6 31  1  0
  7 32  1  0
  7 33  1  0
  9 34  1  0
  9 35  1  0
  9 36  1  0
 10 37  1  1
 11 38  1  0
 11 39  1  0
 13 40  1  0
 14 41  1  0
 15 42  1  0
 16 43  1  0
 20 44  1  0
 21 45  1  0
 22 46  1  0
 23 47  1  0
 25 48  1  0
M  END
$$$$
[H]c1c2c(c3c(nnn3[H])c1[H])C([H])([H])C1(C([H])([H])C([H])([H])C([H])([H])C([H])([H])[H])C2=C(Br)C(=O)C([H])([H])C1([H])[H]
     RDKit          3D

 40 43  0  0  0  0  0  0  0  0999 V2000
    4.0335    1.7871    0.6671 C   0  0  0  0  0  0  0  0  0  0  0  0
    2.5314    1.3725    0.5935 C   0  0  0  0  0  0  0  0  0  0  0  0
    2.3624    0.3921   -0.5211 C   0  0  0  0  0  0  0  0  0  0  0  0
    1.0637   -0.1215   -0.8891 C   0  0  0  0  0  0  0  0  0  0  0  0
    0.1535   -0.8549   -0.0217 C   0  0  0  0  0  0  0  0  0  0  0  0
   -0.3993   -0.1575    1.1842 C   0  0  0  0  0  0  0  0  0  0  0  0
   -1.6138    0.5537    0.6591 C   0  0  0  0  0  0  0  0  0  0  0  0
   -2.0080   -0.0863   -0.4924 C   0  0  0  0  0  0  0  0  0  0  0  0
   -3.1232    0.3639   -1.2094 C   0  0  0  0  0  0  0  0  0  0  0  0
   -3.8060    1.4753   -0.7083 C   0  0  0  0  0  0  0  0  0  0  0  0
   -3.4036    2.1118    0.4486 C   0  0  0  0  0  0  0  0  0  0  0  0
   -3.8859    3.1640    1.1031 N   0  0  0  0  0  0  0  0  0  0  0  0
   -3.1164    3.3660    2.1739 N   0  0  0  0  0  0  0  0  0  0  0  0
   -2.1606    2.4579    2.2006 N   0  0  0  0  0  0  0  0  0  0  0  0
   -2.2835    1.6402    1.1464 C   0  0  0  0  0  0  0  0  0  0  0  0
   -1.1188   -1.2027   -0.7713 C   0  0  0  0  0  0  0  0  0  0  0  0
   -1.2408   -2.3079   -1.4828 C   0  0  0  0  0  0  0  0  0  0  0  0
   -2.8642   -2.7249   -2.4213 Br  0  0  0  0  0  0  0  0  0  0  0  0
   -0.1486   -3.2643   -1.5966 C   0  0  0  0  0  0  0  0  0  0  0  0
   -0.2334   -4.2532   -2.3671 O   0  0  0  0  0  0  0  0  0  0  0  0
    1.0667   -3.0350   -0.7752 C   0  0  0  0  0  0  0  0  0  0  0  0
    0.6743   -2.2177    0.4237 C   0  0  0  0  0  0  0  0  0  0  0  0
    4.6612    0.9203    0.4399 H   0  0  0  0  0  0  0  0  0  0  0  0
    4.2371    2.5904   -0.0569 H   0  0  0  0  0  0  0  0  0  0  0  0
    4.2748    2.1571    1.6651 H   0  0  0  0  0  0  0  0  0  0  0  0
    1.9004    2.2439    0.5957 H   0  0  0  0  0  0  0  0  0  0  0  0
    2.4291    0.8356    1.5944 H   0  0  0  0  0  0  0  0  0  0  0  0
    3.1434   -0.3958   -0.3078 H   0  0  0  0  0  0  0  0  0  0  0  0
    2.8110    0.8716   -1.4656 H   0  0  0  0  0  0  0  0  0  0  0  0
    1.1235   -0.7193   -1.8719 H   0  0  0  0  0  0  0  0  0  0  0  0
    0.4629    0.7879   -1.2892 H   0  0  0  0  0  0  0  0  0  0  0  0
    0.2713    0.5177    1.6855 H   0  0  0  0  0  0  0  0  0  0  0  0
   -0.7617   -0.9844    1.8734 H   0  0  0  0  0  0  0  0  0  0  0  0
   -3.4858   -0.0712   -2.1033 H   0  0  0  0  0  0  0  0  0  0  0  0
   -4.6779    1.8237   -1.2726 H   0  0  0  0  0  0  0  0  0  0  0  0
   -1.4289    2.4111    2.9503 H   0  0  0  0  0  0  0  0  0  0  0  0
    1.8398   -2.5450   -1.4180 H   0  0  0  0  0  0  0  0  0  0  0  0
    1.4785   -4.0296   -0.4411 H   0  0  0  0  0  0  0  0  0  0  0  0
    1.4437   -2.1473    1.1957 H   0  0  0  0  0  0  0  0  0  0  0  0
   -0.2017   -2.7253    0.8828 H   0  0  0  0  0  0  0  0  0  0  0  0
  1  2  1  0
  2  3  1  0
  3  4  1  0
  4  5  1  0
  5  6  1  0
  6  7  1  0
  7  8  2  0
  8  9  1  0
  9 10  2  0
 10 11  1  0
 11 12  1  0
 12 13  2  0
 13 14  1  0
 14 15  1  0
  8 16  1  0
 16 17  2  0
 17 18  1  0
 17 19  1  0
 19 20  2  0
 19 21  1  0
 21 22  1  0
 16  5  1  0
 22  5  1  0
 15  7  1  0
 15 11  2  0
  1 23  1  0
  1 24  1  0
  1 25  1  0
  2 26  1  0
  2 27  1  0
  3 28  1  0
  3 29  1  0
  4 30  1  0
  4 31  1  0
  6 32  1  0
  6 33  1  0
  9 34  1  0
 10 35  1  0
 14 36  1  0
 21 37  1  0
 21 38  1  0
 22 39  1  0
 22 40  1  0
M  END
$$$$
[H]Oc1c([H])c([H])c(-n2nc([H])c3c(F)c([H])c(O[H])c(C#N)c32)c([H])c1[H]
     RDKit          3D

 28 30  0  0  0  0  0  0  0  0999 V2000
    5.2430    0.1610    0.3223 O   0  0  0  0  0  0  0  0  0  0  0  0
    3.8672   -0.1236    0.3115 C   0  0  0  0  0  0  0  0  0  0  0  0
    3.1129   -0.0204    1.4611 C   0  0  0  0  0  0  0  0  0  0  0  0
    1.7713   -0.2952    1.4628 C   0  0  0  0  0  0  0  0  0  0  0  0
    1.1538   -0.6817    0.3044 C   0  0  0  0  0  0  0  0  0  0  0  0
    1.9168   -0.7814   -0.8375 C   0  0  0  0  0  0  0  0  0  0  0  0
    3.2600   -0.5121   -0.8654 C   0  0  0  0  0  0  0  0  0  0  0  0
   -0.2271   -0.9999    0.2270 N   0  0  0  0  0  0  0  0  0  0  0  0
   -0.6700   -2.2356    0.4350 N   0  0  0  0  0  0  0  0  0  0  0  0
   -1.9950   -2.2998    0.3112 C   0  0  0  0  0  0  0  0  0  0  0  0
   -2.4449   -1.0357    0.0052 C   0  0  0  0  0  0  0  0  0  0  0  0
   -3.6692   -0.4600   -0.2395 C   0  0  0  0  0  0  0  0  0  0  0  0
   -4.7708   -1.2363   -0.1939 F   0  0  0  0  0  0  0  0  0  0  0  0
   -3.8142    0.8632   -0.5262 C   0  0  0  0  0  0  0  0  0  0  0  0
   -2.6861    1.6514   -0.5715 C   0  0  0  0  0  0  0  0  0  0  0  0
   -2.7534    3.0171   -0.8588 O   0  0  0  0  0  0  0  0  0  0  0  0
   -1.4224    1.0951   -0.3266 C   0  0  0  0  0  0  0  0  0  0  0  0
   -0.2732    1.9778   -0.3891 C   0  0  0  0  0  0  0  0  0  0  0  0
    0.6414    2.7189   -0.4468 N   0  0  0  0  0  0  0  0  0  0  0  0
   -1.2946   -0.2454   -0.0382 C   0  0  0  0  0  0  0  0  0  0  0  0
    5.8927   -0.5869    0.5158 H   0  0  0  0  0  0  0  0  0  0  0  0
    3.6502    0.2936    2.3700 H   0  0  0  0  0  0  0  0  0  0  0  0
    1.2150   -0.2080    2.3600 H   0  0  0  0  0  0  0  0  0  0  0  0
    1.4645   -1.0887   -1.7941 H   0  0  0  0  0  0  0  0  0  0  0  0
    3.8497   -0.5986   -1.7899 H   0  0  0  0  0  0  0  0  0  0  0  0
   -2.6273   -3.1729    0.4252 H   0  0  0  0  0  0  0  0  0  0  0  0
   -4.7761    1.3281   -0.7210 H   0  0  0  0  0  0  0  0  0  0  0  0
   -3.6139    3.4759   -1.0419 H   0  0  0  0  0  0  0  0  0  0  0  0
  1  2  1  0
  2  3  2  0
  3  4  1  0
  4  5  2  0
  5  6  1  0
  6  7  2  0
  5  8  1  0
  8  9  1  0
  9 10  2  0
 10 11  1  0
 11 12  2  0
 12 13  1  0
 12 14  1  0
 14 15  2  0
 15 16  1  0
 15 17  1  0
 17 18  1  0
 18 19  3  0
 17 20  2  0
  7  2  1  0
 20  8  1  0
 20 11  1  0
  1 21  1  0
  3 22  1  0
  4 23  1  0
  6 24  1  0
  7 25  1  0
 10 26  1  0
 14 27  1  0
 16 28  1  0
M  END
$$$$
[H]Oc1c([H])c([H])c2c(oc(=O)c3c2oc2c([H])c(O[H])c([H])c([H])c23)c1[H]
     RDKit          3D

 28 31  0  0  0  0  0  0  0  0999 V2000
    5.6699   -0.9286   -0.0559 O   0  0  0  0  0  0  0  0  0  0  0  0
    4.3021   -0.6228   -0.0090 C   0  0  0  0  0  0  0  0  0  0  0  0
    3.8899    0.5991    0.4820 C   0  0  0  0  0  0  0  0  0  0  0  0
    2.5335    0.8416    0.5029 C   0  0  0  0  0  0  0  0  0  0  0  0
    1.6028   -0.0829    0.0567 C   0  0  0  0  0  0  0  0  0  0  0  0
    2.0338   -1.3022   -0.4321 C   0  0  0  0  0  0  0  0  0  0  0  0
    3.4055   -1.5743   -0.4645 C   0  0  0  0  0  0  0  0  0  0  0  0
    1.1529   -2.1952   -0.8620 O   0  0  0  0  0  0  0  0  0  0  0  0
   -0.1477   -1.9529   -0.8378 C   0  0  0  0  0  0  0  0  0  0  0  0
   -0.9179   -2.8459   -1.2610 O   0  0  0  0  0  0  0  0  0  0  0  0
   -0.6343   -0.7602   -0.3636 C   0  0  0  0  0  0  0  0  0  0  0  0
   -1.8851   -0.2113   -0.2071 C   0  0  0  0  0  0  0  0  0  0  0  0
   -3.1342   -0.7180   -0.4960 C   0  0  0  0  0  0  0  0  0  0  0  0
   -4.2595    0.0351   -0.2458 C   0  0  0  0  0  0  0  0  0  0  0  0
   -4.0854    1.2892    0.2941 C   0  0  0  0  0  0  0  0  0  0  0  0
   -5.2070    2.0643    0.5539 O   0  0  0  0  0  0  0  0  0  0  0  0
   -2.8555    1.8335    0.5978 C   0  0  0  0  0  0  0  0  0  0  0  0
   -1.7379    1.0647    0.3404 C   0  0  0  0  0  0  0  0  0  0  0  0
   -0.4497    1.2417    0.4925 O   0  0  0  0  0  0  0  0  0  0  0  0
    0.2420    0.2015    0.0950 C   0  0  0  0  0  0  0  0  0  0  0  0
    6.3498   -0.2541    0.2697 H   0  0  0  0  0  0  0  0  0  0  0  0
    4.6355    1.3044    0.8245 H   0  0  0  0  0  0  0  0  0  0  0  0
    2.1603    1.7778    0.8756 H   0  0  0  0  0  0  0  0  0  0  0  0
    3.7170   -2.5375   -0.8523 H   0  0  0  0  0  0  0  0  0  0  0  0
   -3.2230   -1.7063   -0.9185 H   0  0  0  0  0  0  0  0  0  0  0  0
   -5.2597   -0.3626   -0.4737 H   0  0  0  0  0  0  0  0  0  0  0  0
   -5.1692    2.9759    0.9409 H   0  0  0  0  0  0  0  0  0  0  0  0
   -2.7289    2.8261    1.0244 H   0  0  0  0  0  0  0  0  0  0  0  0
  1  2  1  0
  2  3  2  0
  3  4  1  0
  4  5  2  0
  5  6  1  0
  6  7  2  0
  6  8  1  0
  8  9  1  0
  9 10  2  0
  9 11  1  0
 11 12  1  0
 12 13  2  0
 13 14  1  0
 14 15  2  0
 15 16  1  0
 15 17  1  0
 17 18  2  0
 18 19  1  0
 19 20  1  0
  7  2  1  0
 20 11  2  0
 20  5  1  0
 18 12  1  0
  1 21  1  0
  3 22  1  0
  4 23  1  0
  7 24  1  0
 13 25  1  0
 14 26  1  0
 16 27  1  0
 17 28  1  0
M  END
$$$$
[H]OC(=O)C([H])([H])[C@@]([H])(/C([H])=C(\[H])C(=O)c1c([H])c([H])c([H])c([H])c1[H])C([H])([H])C([H])([H])c1c([H])c([H])c(Cl)c([H])c1[H]
     RDKit          3D

 43 44  0  0  0  0  0  0  0  0999 V2000
    0.6676    3.7736   -0.3850 O   0  0  0  0  0  0  0  0  0  0  0  0
    0.2616    2.5812    0.1904 C   0  0  0  0  0  0  0  0  0  0  0  0
    0.5323    2.3861    1.3902 O   0  0  0  0  0  0  0  0  0  0  0  0
   -0.4596    1.6085   -0.6186 C   0  0  0  0  0  0  0  0  0  0  0  0
   -0.8088    0.3117    0.0011 C   0  0  2  0  0  0  0  0  0  0  0  0
   -1.6432    0.3979    1.2331 C   0  0  0  0  0  0  0  0  0  0  0  0
   -2.9863    1.0228    1.0859 C   0  0  0  0  0  0  0  0  0  0  0  0
   -3.9214    0.3429    0.1901 C   0  0  0  0  0  0  0  0  0  0  0  0
   -4.7235   -0.6668    0.7184 C   0  0  0  0  0  0  0  0  0  0  0  0
   -5.6443   -1.3708   -0.0277 C   0  0  0  0  0  0  0  0  0  0  0  0
   -5.7834   -1.0604   -1.3785 C   0  0  0  0  0  0  0  0  0  0  0  0
   -6.9496   -1.9450   -2.3452 Cl  0  0  0  0  0  0  0  0  0  0  0  0
   -5.0204   -0.0789   -1.9426 C   0  0  0  0  0  0  0  0  0  0  0  0
   -4.0986    0.6087   -1.1442 C   0  0  0  0  0  0  0  0  0  0  0  0
    0.3019   -0.6478    0.1236 C   0  0  0  0  0  0  0  0  0  0  0  0
    1.5820   -0.3879   -0.0262 C   0  0  0  0  0  0  0  0  0  0  0  0
    2.5802   -1.4551    0.1300 C   0  0  0  0  0  0  0  0  0  0  0  0
    2.2032   -2.6358    0.4118 O   0  0  0  0  0  0  0  0  0  0  0  0
    4.0055   -1.2182   -0.0261 C   0  0  0  0  0  0  0  0  0  0  0  0
    4.9050   -2.2515    0.1272 C   0  0  0  0  0  0  0  0  0  0  0  0
    6.2673   -2.0765   -0.0102 C   0  0  0  0  0  0  0  0  0  0  0  0
    6.7887   -0.8353   -0.3122 C   0  0  0  0  0  0  0  0  0  0  0  0
    5.9157    0.2071   -0.4693 C   0  0  0  0  0  0  0  0  0  0  0  0
    4.5349    0.0148   -0.3268 C   0  0  0  0  0  0  0  0  0  0  0  0
    1.5822    4.1705   -0.3154 H   0  0  0  0  0  0  0  0  0  0  0  0
   -1.3719    2.1401   -1.0245 H   0  0  0  0  0  0  0  0  0  0  0  0
    0.1050    1.3767   -1.5821 H   0  0  0  0  0  0  0  0  0  0  0  0
   -1.5152   -0.2004   -0.7705 H   0  0  0  0  0  0  0  0  0  0  0  0
   -1.8530   -0.6797    1.5473 H   0  0  0  0  0  0  0  0  0  0  0  0
   -1.1540    0.8260    2.1188 H   0  0  0  0  0  0  0  0  0  0  0  0
   -3.4486    1.0576    2.1127 H   0  0  0  0  0  0  0  0  0  0  0  0
   -2.9441    2.0901    0.7704 H   0  0  0  0  0  0  0  0  0  0  0  0
   -4.5924   -0.8855    1.7722 H   0  0  0  0  0  0  0  0  0  0  0  0
   -6.2421   -2.1453    0.4305 H   0  0  0  0  0  0  0  0  0  0  0  0
   -5.1202    0.1728   -2.9965 H   0  0  0  0  0  0  0  0  0  0  0  0
   -3.5080    1.3848   -1.6079 H   0  0  0  0  0  0  0  0  0  0  0  0
    0.0877   -1.7131    0.3655 H   0  0  0  0  0  0  0  0  0  0  0  0
    1.9015    0.6069   -0.2815 H   0  0  0  0  0  0  0  0  0  0  0  0
    4.5142   -3.2362    0.3650 H   0  0  0  0  0  0  0  0  0  0  0  0
    6.9737   -2.9021    0.1133 H   0  0  0  0  0  0  0  0  0  0  0  0
    7.8639   -0.7312   -0.4134 H   0  0  0  0  0  0  0  0  0  0  0  0
    6.3246    1.1743   -0.7046 H   0  0  0  0  0  0  0  0  0  0  0  0
    3.8902    0.8684   -0.4608 H   0  0  0  0  0  0  0  0  0  0  0  0
  1  2  1  0
  2  3  2  0
  2  4  1  0
  4  5  1  0
  5  6  1  0
  6  7  1  0
  7  8  1  0
  8  9  2  0
  9 10  1  0
 10 11  2  0
 11 12  1  0
 11 13  1  0
 13 14  2  0
  5 15  1  0
 15 16  2  0
 16 17  1  0
 17 18  2  0
 17 19  1  0
 19 20  2  0
 20 21  1  0
 21 22  2  0
 22 23  1  0
 23 24  2  0
 14  8  1  0
 24 19  1  0
  1 25  1  0
  4 26  1  0
  4 27  1  0
  5 28  1  6
  6 29  1  0
  6 30  1  0
  7 31  1  0
  7 32  1  0
  9 33  1  0
 10 34  1  0
 13 35  1  0
 14 36  1  0
 15 37  1  0
 16 38  1  0
 20 39  1  0
 21 40  1  0
 22 41  1  0
 23 42  1  0
 24 43  1  0
M  END
$$$$
[H]Oc1c([H])c([H])c2c(oc3c4c([H])c([H])c([H])c([H])c4n(C([H])([H])c4c([H])c([H])c(OC([H])([H])C([H])([H])N5C([H])([H])C([H])([H])OC([H])([H])C5([H])[H])c([H])c4[H])c32)c1[H]
     RDKit          3D

 59 64  0  0  0  0  0  0  0  0999 V2000
   -5.3069    5.2741    1.0191 O   0  0  0  0  0  0  0  0  0  0  0  0
   -4.9944    3.9072    0.9594 C   0  0  0  0  0  0  0  0  0  0  0  0
   -3.9458    3.4587    1.7472 C   0  0  0  0  0  0  0  0  0  0  0  0
   -3.5926    2.1276    1.7300 C   0  0  0  0  0  0  0  0  0  0  0  0
   -4.2728    1.2474    0.9381 C   0  0  0  0  0  0  0  0  0  0  0  0
   -5.3353    1.7089    0.1431 C   0  0  0  0  0  0  0  0  0  0  0  0
   -5.6926    3.0423    0.1569 C   0  0  0  0  0  0  0  0  0  0  0  0
   -5.7917    0.6698   -0.4907 O   0  0  0  0  0  0  0  0  0  0  0  0
   -5.1135   -0.4260   -0.1717 C   0  0  0  0  0  0  0  0  0  0  0  0
   -5.0022   -1.7817   -0.3918 C   0  0  0  0  0  0  0  0  0  0  0  0
   -5.7707   -2.5686   -1.2170 C   0  0  0  0  0  0  0  0  0  0  0  0
   -5.4685   -3.9107   -1.2583 C   0  0  0  0  0  0  0  0  0  0  0  0
   -4.4490   -4.4420   -0.5119 C   0  0  0  0  0  0  0  0  0  0  0  0
   -3.7048   -3.6140    0.3021 C   0  0  0  0  0  0  0  0  0  0  0  0
   -3.9568   -2.2580    0.3878 C   0  0  0  0  0  0  0  0  0  0  0  0
   -3.4169   -1.2146    1.0851 N   0  0  0  0  0  0  0  0  0  0  0  0
   -2.3124   -1.3477    1.9892 C   0  0  0  0  0  0  0  0  0  0  0  0
   -0.9749   -1.2410    1.3608 C   0  0  0  0  0  0  0  0  0  0  0  0
   -0.2575   -2.3635    0.9903 C   0  0  0  0  0  0  0  0  0  0  0  0
    0.9825   -2.3132    0.4003 C   0  0  0  0  0  0  0  0  0  0  0  0
    1.5877   -1.0962    0.1429 C   0  0  0  0  0  0  0  0  0  0  0  0
    2.8441   -1.0524   -0.4561 O   0  0  0  0  0  0  0  0  0  0  0  0
    3.4051    0.2418   -0.6874 C   0  0  0  0  0  0  0  0  0  0  0  0
    4.7530    0.0615   -1.3443 C   0  0  0  0  0  0  0  0  0  0  0  0
    5.4232    1.2850   -1.6384 N   0  0  0  0  0  0  0  0  0  0  0  0
    6.6640    0.9433   -2.3318 C   0  0  0  0  0  0  0  0  0  0  0  0
    7.6544    0.2977   -1.4055 C   0  0  0  0  0  0  0  0  0  0  0  0
    7.9155    1.1437   -0.3476 O   0  0  0  0  0  0  0  0  0  0  0  0
    6.7555    1.3039    0.4138 C   0  0  0  0  0  0  0  0  0  0  0  0
    5.7052    2.0098   -0.4256 C   0  0  0  0  0  0  0  0  0  0  0  0
    0.9017    0.0415    0.4996 C   0  0  0  0  0  0  0  0  0  0  0  0
   -0.3656   -0.0339    1.1018 C   0  0  0  0  0  0  0  0  0  0  0  0
   -4.1247   -0.1186    0.7398 C   0  0  0  0  0  0  0  0  0  0  0  0
   -4.8182    5.8620    0.3512 H   0  0  0  0  0  0  0  0  0  0  0  0
   -3.4003    4.1556    2.3799 H   0  0  0  0  0  0  0  0  0  0  0  0
   -2.7713    1.7476    2.3500 H   0  0  0  0  0  0  0  0  0  0  0  0
   -6.4996    3.4277   -0.4397 H   0  0  0  0  0  0  0  0  0  0  0  0
   -6.5806   -2.1779   -1.8169 H   0  0  0  0  0  0  0  0  0  0  0  0
   -6.0898   -4.5330   -1.9229 H   0  0  0  0  0  0  0  0  0  0  0  0
   -4.2362   -5.5015   -0.5657 H   0  0  0  0  0  0  0  0  0  0  0  0
   -2.8961   -4.0280    0.9139 H   0  0  0  0  0  0  0  0  0  0  0  0
   -2.3297   -0.5556    2.7952 H   0  0  0  0  0  0  0  0  0  0  0  0
   -2.3441   -2.3080    2.5576 H   0  0  0  0  0  0  0  0  0  0  0  0
   -0.7002   -3.3292    1.1877 H   0  0  0  0  0  0  0  0  0  0  0  0
    1.5493   -3.1922    0.1080 H   0  0  0  0  0  0  0  0  0  0  0  0
    3.4314    0.7209    0.2923 H   0  0  0  0  0  0  0  0  0  0  0  0
    2.7173    0.8310   -1.3295 H   0  0  0  0  0  0  0  0  0  0  0  0
    4.5515   -0.5039   -2.3003 H   0  0  0  0  0  0  0  0  0  0  0  0
    5.3816   -0.6215   -0.7305 H   0  0  0  0  0  0  0  0  0  0  0  0
    7.1038    1.9000   -2.6622 H   0  0  0  0  0  0  0  0  0  0  0  0
    6.4182    0.2500   -3.1527 H   0  0  0  0  0  0  0  0  0  0  0  0
    7.3633   -0.7335   -1.0872 H   0  0  0  0  0  0  0  0  0  0  0  0
    8.6151    0.2309   -2.0024 H   0  0  0  0  0  0  0  0  0  0  0  0
    6.9578    1.9567    1.2873 H   0  0  0  0  0  0  0  0  0  0  0  0
    6.4091    0.3332    0.7905 H   0  0  0  0  0  0  0  0  0  0  0  0
    6.1220    3.0252   -0.6296 H   0  0  0  0  0  0  0  0  0  0  0  0
    4.7851    2.1471    0.1433 H   0  0  0  0  0  0  0  0  0  0  0  0
    1.3418    1.0254    0.3157 H   0  0  0  0  0  0  0  0  0  0  0  0
   -0.8236    0.8888    1.3497 H   0  0  0  0  0  0  0  0  0  0  0  0
  1  2  1  0
  2  3  2  0
  3  4  1  0
  4  5  2  0
  5  6  1  0
  6  7  2  0
  6  8  1  0
  8  9  1  0
  9 10  1  0
 10 11  2  0
 11 12  1  0
 12 13  2  0
 13 14  1  0
 14 15  2  0
 15 16  1  0
 16 17  1  0
 17 18  1  0
 18 19  2  0
 19 20  1  0
 20 21  2  0
 21 22  1  0
 22 23  1  0
 23 24  1  0
 24 25  1  0
 25 26  1  0
 26 27  1  0
 27 28  1  0
 28 29  1  0
 29 30  1  0
 21 31  1  0
 31 32  2  0
 16 33  1  0
  7  2  1  0
 33  9  2  0
 33  5  1  0
 15 10  1  0
 32 18  1  0
 30 25  1  0
  1 34  1  0
  3 35  1  0
  4 36  1  0
  7 37  1  0
 11 38  1  0
 12 39  1  0
 13 40  1  0
 14 41  1  0
 17 42  1  0
 17 43  1  0
 19 44  1  0
 20 45  1  0
 23 46  1  0
 23 47  1  0
 24 48  1  0
 24 49  1  0
 26 50  1  0
 26 51  1  0
 27 52  1  0
 27 53  1  0
 29 54  1  0
 29 55  1  0
 30 56  1  0
 30 57  1  0
 31 58  1  0
 32 59  1  0
M  END
$$$$
[H]Oc1c([H])c(Br)c([H])c(-c2c([H])c([H])c3c([H])c(O[H])c([H])c([H])c3c2[H])c1[H]
     RDKit          3D

 30 32  0  0  0  0  0  0  0  0999 V2000
    5.8374   -0.0029   -0.2066 O   0  0  0  0  0  0  0  0  0  0  0  0
    4.4489    0.2144   -0.1910 C   0  0  0  0  0  0  0  0  0  0  0  0
    3.9204    1.4742   -0.4003 C   0  0  0  0  0  0  0  0  0  0  0  0
    2.5518    1.5849   -0.3660 C   0  0  0  0  0  0  0  0  0  0  0  0
    1.7026    0.5118   -0.1358 C   0  0  0  0  0  0  0  0  0  0  0  0
    0.3197    0.6998   -0.1150 C   0  0  0  0  0  0  0  0  0  0  0  0
   -0.4976   -0.3805    0.1153 C   0  0  0  0  0  0  0  0  0  0  0  0
    0.0941   -1.6121    0.3169 C   0  0  0  0  0  0  0  0  0  0  0  0
    1.4592   -1.8042    0.2975 C   0  0  0  0  0  0  0  0  0  0  0  0
    2.2822   -0.7198    0.0663 C   0  0  0  0  0  0  0  0  0  0  0  0
    3.6508   -0.8613    0.0376 C   0  0  0  0  0  0  0  0  0  0  0  0
   -1.9593   -0.2227    0.1447 C   0  0  0  0  0  0  0  0  0  0  0  0
   -2.7086   -1.0462    0.9580 C   0  0  0  0  0  0  0  0  0  0  0  0
   -4.0971   -0.9177    1.0050 C   0  0  0  0  0  0  0  0  0  0  0  0
   -5.1364   -2.0714    2.1435 Br  0  0  0  0  0  0  0  0  0  0  0  0
   -4.7143    0.0394    0.2319 C   0  0  0  0  0  0  0  0  0  0  0  0
   -3.9835    0.8664   -0.5823 C   0  0  0  0  0  0  0  0  0  0  0  0
   -4.6325    1.8279   -1.3556 O   0  0  0  0  0  0  0  0  0  0  0  0
   -2.6185    0.7183   -0.6094 C   0  0  0  0  0  0  0  0  0  0  0  0
    6.3413    0.0888    0.6894 H   0  0  0  0  0  0  0  0  0  0  0  0
    4.5750    2.3307   -0.5831 H   0  0  0  0  0  0  0  0  0  0  0  0
    2.0953    2.5595   -0.5260 H   0  0  0  0  0  0  0  0  0  0  0  0
   -0.0864    1.6806   -0.2782 H   0  0  0  0  0  0  0  0  0  0  0  0
   -0.5839   -2.4545    0.4981 H   0  0  0  0  0  0  0  0  0  0  0  0
    1.8995   -2.7796    0.4583 H   0  0  0  0  0  0  0  0  0  0  0  0
    4.0622   -1.8558    0.2031 H   0  0  0  0  0  0  0  0  0  0  0  0
   -2.2273   -1.8051    1.5720 H   0  0  0  0  0  0  0  0  0  0  0  0
   -5.7952    0.1181    0.2874 H   0  0  0  0  0  0  0  0  0  0  0  0
   -4.1687    2.4584   -1.9657 H   0  0  0  0  0  0  0  0  0  0  0  0
   -2.0312    1.3605   -1.2441 H   0  0  0  0  0  0  0  0  0  0  0  0
  1  2  1  0
  2  3  2  0
  3  4  1  0
  4  5  2  0
  5  6  1  0
  6  7  2  0
  7  8  1  0
  8  9  2  0
  9 10  1  0
 10 11  2  0
  7 12  1  0
 12 13  2  0
 13 14  1  0
 14 15  1  0
 14 16  2  0
 16 17  1  0
 17 18  1  0
 17 19  2  0
 11  2  1  0
 19 12  1  0
 10  5  1  0
  1 20  1  0
  3 21  1  0
  4 22  1  0
  6 23  1  0
  8 24  1  0
  9 25  1  0
 11 26  1  0
 13 27  1  0
 16 28  1  0
 18 29  1  0
 19 30  1  0
M  END
$$$$
[H]c1c2c(c3c([H])nn([H])c3c1[H])C([H])([H])[C@@]1(C([H])([H])C([H])([H])C([H])([H])[H])C2=C(C(=O)N([H])N([H])[H])C(=O)C([H])([H])C1([H])[H]
     RDKit          3D

 44 47  0  0  0  0  0  0  0  0999 V2000
   -3.9088   -0.2013   -1.5458 C   0  0  0  0  0  0  0  0  0  0  0  0
   -2.8693   -0.9400   -0.6990 C   0  0  0  0  0  0  0  0  0  0  0  0
   -1.4832   -0.5305   -1.0738 C   0  0  0  0  0  0  0  0  0  0  0  0
   -0.4393   -1.2477   -0.2655 C   0  0  2  0  0  0  0  0  0  0  0  0
   -0.6925   -0.8878    1.2130 C   0  0  0  0  0  0  0  0  0  0  0  0
   -0.4736    0.5948    1.1670 C   0  0  0  0  0  0  0  0  0  0  0  0
    0.4765    0.7976    0.1727 C   0  0  0  0  0  0  0  0  0  0  0  0
    0.8938    2.0713   -0.1751 C   0  0  0  0  0  0  0  0  0  0  0  0
    0.3764    3.1825    0.4656 C   0  0  0  0  0  0  0  0  0  0  0  0
   -0.5632    2.9592    1.4516 C   0  0  0  0  0  0  0  0  0  0  0  0
   -1.2513    3.8136    2.2547 N   0  0  0  0  0  0  0  0  0  0  0  0
   -2.0457    3.1205    3.0473 N   0  0  0  0  0  0  0  0  0  0  0  0
   -1.9187    1.8014    2.8059 C   0  0  0  0  0  0  0  0  0  0  0  0
   -0.9945    1.6946    1.8106 C   0  0  0  0  0  0  0  0  0  0  0  0
    0.8684   -0.5113   -0.3511 C   0  0  0  0  0  0  0  0  0  0  0  0
    1.9707   -0.9234   -0.8810 C   0  0  0  0  0  0  0  0  0  0  0  0
    1.9149   -2.3025   -1.5055 C   0  0  0  0  0  0  0  0  0  0  0  0
    2.6500   -2.5514   -2.4760 O   0  0  0  0  0  0  0  0  0  0  0  0
    0.9592   -3.2663   -0.8863 C   0  0  0  0  0  0  0  0  0  0  0  0
   -0.3526   -2.6706   -0.5626 C   0  0  0  0  0  0  0  0  0  0  0  0
    3.2985   -0.3515   -0.7525 C   0  0  0  0  0  0  0  0  0  0  0  0
    4.2277   -0.8248   -1.5309 O   0  0  0  0  0  0  0  0  0  0  0  0
    3.7372    0.6350    0.1092 N   0  0  0  0  0  0  0  0  0  0  0  0
    5.0961    1.0744    0.0698 N   0  0  0  0  0  0  0  0  0  0  0  0
   -3.4990    0.0843   -2.5308 H   0  0  0  0  0  0  0  0  0  0  0  0
   -4.7976   -0.8450   -1.5927 H   0  0  0  0  0  0  0  0  0  0  0  0
   -4.2177    0.7411   -1.0345 H   0  0  0  0  0  0  0  0  0  0  0  0
   -2.9790   -2.0231   -0.9697 H   0  0  0  0  0  0  0  0  0  0  0  0
   -3.1440   -0.8035    0.3437 H   0  0  0  0  0  0  0  0  0  0  0  0
   -1.4285    0.5813   -0.9265 H   0  0  0  0  0  0  0  0  0  0  0  0
   -1.3257   -0.6655   -2.1729 H   0  0  0  0  0  0  0  0  0  0  0  0
    0.1886   -1.3052    1.7448 H   0  0  0  0  0  0  0  0  0  0  0  0
   -1.6441   -1.2034    1.5909 H   0  0  0  0  0  0  0  0  0  0  0  0
    1.6096    2.2449   -0.9644 H   0  0  0  0  0  0  0  0  0  0  0  0
    0.6600    4.1957    0.2430 H   0  0  0  0  0  0  0  0  0  0  0  0
   -1.1655    4.8606    2.2471 H   0  0  0  0  0  0  0  0  0  0  0  0
   -2.4153    0.9628    3.2687 H   0  0  0  0  0  0  0  0  0  0  0  0
    0.7901   -4.1380   -1.5872 H   0  0  0  0  0  0  0  0  0  0  0  0
    1.3924   -3.6949    0.0693 H   0  0  0  0  0  0  0  0  0  0  0  0
   -0.7809   -3.2398    0.3195 H   0  0  0  0  0  0  0  0  0  0  0  0
   -1.0557   -2.9082   -1.4182 H   0  0  0  0  0  0  0  0  0  0  0  0
    3.1917    1.0705    0.8424 H   0  0  0  0  0  0  0  0  0  0  0  0
    5.6919    0.3522   -0.3797 H   0  0  0  0  0  0  0  0  0  0  0  0
    5.4518    1.1973    1.0448 H   0  0  0  0  0  0  0  0  0  0  0  0
  1  2  1  0
  2  3  1  0
  4  3  1  6
  4  5  1  0
  5  6  1  0
  6  7  2  0
  7  8  1  0
  8  9  2  0
  9 10  1  0
 10 11  1  0
 11 12  1  0
 12 13  2  0
 13 14  1  0
  7 15  1  0
 15 16  2  0
 16 17  1  0
 17 18  2  0
 17 19  1  0
 19 20  1  0
 16 21  1  0
 21 22  2  0
 21 23  1  0
 23 24  1  0
 15  4  1  0
 20  4  1  0
 14  6  1  0
 14 10  2  0
  1 25  1  0
  1 26  1  0
  1 27  1  0
  2 28  1  0
  2 29  1  0
  3 30  1  0
  3 31  1  0
  5 32  1  0
  5 33  1  0
  8 34  1  0
  9 35  1  0
 11 36  1  0
 13 37  1  0
 19 38  1  0
 19 39  1  0
 20 40  1  0
 20 41  1  0
 23 42  1  0
 24 43  1  0
 24 44  1  0
M  END
$$$$
[H]Oc1c([H])c([H])c(-c2c([H])c([H])c(O[H])c([H])c2Oc2c([H])c([H])c([H])c([H])c2[H])c([H])c1[H]
     RDKit          3D

 35 37  0  0  0  0  0  0  0  0999 V2000
   -0.3994    5.0757    1.3607 O   0  0  0  0  0  0  0  0  0  0  0  0
    0.0054    3.7948    0.9697 C   0  0  0  0  0  0  0  0  0  0  0  0
    1.1231    3.7062    0.1480 C   0  0  0  0  0  0  0  0  0  0  0  0
    1.5141    2.4539   -0.2287 C   0  0  0  0  0  0  0  0  0  0  0  0
    0.8505    1.2800    0.1696 C   0  0  0  0  0  0  0  0  0  0  0  0
    1.4645   -0.0047   -0.2450 C   0  0  0  0  0  0  0  0  0  0  0  0
    2.0798   -0.7761    0.7513 C   0  0  0  0  0  0  0  0  0  0  0  0
    2.6743   -1.9720    0.4324 C   0  0  0  0  0  0  0  0  0  0  0  0
    2.6772   -2.4322   -0.8617 C   0  0  0  0  0  0  0  0  0  0  0  0
    3.2850   -3.6549   -1.1884 O   0  0  0  0  0  0  0  0  0  0  0  0
    2.0670   -1.6578   -1.8236 C   0  0  0  0  0  0  0  0  0  0  0  0
    1.4615   -0.4505   -1.5286 C   0  0  0  0  0  0  0  0  0  0  0  0
   -0.2370    1.3995    0.9672 C   0  0  0  0  0  0  0  0  0  0  0  0
   -0.9627    0.3405    1.4086 O   0  0  0  0  0  0  0  0  0  0  0  0
   -1.7309   -0.5646    0.7410 C   0  0  0  0  0  0  0  0  0  0  0  0
   -1.5003   -1.8864    0.5045 C   0  0  0  0  0  0  0  0  0  0  0  0
   -2.3744   -2.6808   -0.1933 C   0  0  0  0  0  0  0  0  0  0  0  0
   -3.5469   -2.1441   -0.6887 C   0  0  0  0  0  0  0  0  0  0  0  0
   -3.8098   -0.8130   -0.4669 C   0  0  0  0  0  0  0  0  0  0  0  0
   -2.9321   -0.0332    0.2286 C   0  0  0  0  0  0  0  0  0  0  0  0
   -0.6742    2.6878    1.3824 C   0  0  0  0  0  0  0  0  0  0  0  0
   -1.1812    5.2630    1.9449 H   0  0  0  0  0  0  0  0  0  0  0  0
    1.6383    4.6148   -0.1615 H   0  0  0  0  0  0  0  0  0  0  0  0
    2.3809    2.3207   -0.8709 H   0  0  0  0  0  0  0  0  0  0  0  0
    2.0636   -0.3906    1.7642 H   0  0  0  0  0  0  0  0  0  0  0  0
    3.1414   -2.5455    1.2229 H   0  0  0  0  0  0  0  0  0  0  0  0
    4.2628   -3.6611   -1.4499 H   0  0  0  0  0  0  0  0  0  0  0  0
    2.0840   -2.0469   -2.8418 H   0  0  0  0  0  0  0  0  0  0  0  0
    0.9859    0.1459   -2.2984 H   0  0  0  0  0  0  0  0  0  0  0  0
   -0.5726   -2.3083    0.9094 H   0  0  0  0  0  0  0  0  0  0  0  0
   -2.1205   -3.7199   -0.3398 H   0  0  0  0  0  0  0  0  0  0  0  0
   -4.2568   -2.7390   -1.2416 H   0  0  0  0  0  0  0  0  0  0  0  0
   -4.7435   -0.4167   -0.8698 H   0  0  0  0  0  0  0  0  0  0  0  0
   -3.1858    1.0126    0.3771 H   0  0  0  0  0  0  0  0  0  0  0  0
   -1.5314    2.8030    2.0162 H   0  0  0  0  0  0  0  0  0  0  0  0
  1  2  1  0
  2  3  2  0
  3  4  1  0
  4  5  2  0
  5  6  1  0
  6  7  2  0
  7  8  1  0
  8  9  2  0
  9 10  1  0
  9 11  1  0
 11 12  2  0
  5 13  1  0
 13 14  1  0
 14 15  1  0
 15 16  2  0
 16 17  1  0
 17 18  2  0
 18 19  1  0
 19 20  2  0
 13 21  2  0
 21  2  1  0
 12  6  1  0
 20 15  1  0
  1 22  1  0
  3 23  1  0
  4 24  1  0
  7 25  1  0
  8 26  1  0
 10 27  1  0
 11 28  1  0
 12 29  1  0
 16 30  1  0
 17 31  1  0
 18 32  1  0
 19 33  1  0
 20 34  1  0
 21 35  1  0
M  END
$$$$
[H]Oc1c([H])c([H])c(-c2sc3c([H])c(O[H])c([H])c([H])c3c2C(=O)c2c([H])c([H])c([H])c(C(F)(F)F)c2[H])c([H])c1[H]
     RDKit          3D

 42 45  0  0  0  0  0  0  0  0999 V2000
   -4.9965   -4.1530    0.3912 O   0  0  0  0  0  0  0  0  0  0  0  0
   -4.2598   -2.9790    0.3241 C   0  0  0  0  0  0  0  0  0  0  0  0
   -4.8398   -1.7289    0.1756 C   0  0  0  0  0  0  0  0  0  0  0  0
   -4.0664   -0.5823    0.1155 C   0  0  0  0  0  0  0  0  0  0  0  0
   -2.6657   -0.6516    0.2102 C   0  0  0  0  0  0  0  0  0  0  0  0
   -2.1423   -1.9018    0.3598 C   0  0  0  0  0  0  0  0  0  0  0  0
   -2.8929   -3.0459    0.4169 C   0  0  0  0  0  0  0  0  0  0  0  0
   -1.8524    0.5588    0.2270 C   0  0  0  0  0  0  0  0  0  0  0  0
   -2.4546    2.0829    0.7858 S   0  0  0  0  0  0  0  0  0  0  0  0
   -1.1120    3.0395    0.4211 C   0  0  0  0  0  0  0  0  0  0  0  0
   -0.8466    4.4075    0.5844 C   0  0  0  0  0  0  0  0  0  0  0  0
    0.3464    4.9593    0.1932 C   0  0  0  0  0  0  0  0  0  0  0  0
    0.6863    6.3022    0.3212 O   0  0  0  0  0  0  0  0  0  0  0  0
    1.2327    4.0741   -0.3592 C   0  0  0  0  0  0  0  0  0  0  0  0
    0.9803    2.7640   -0.5148 C   0  0  0  0  0  0  0  0  0  0  0  0
   -0.2242    2.1683   -0.1248 C   0  0  0  0  0  0  0  0  0  0  0  0
   -0.5945    0.8661   -0.2334 C   0  0  0  0  0  0  0  0  0  0  0  0
    0.1783   -0.1850   -0.8695 C   0  0  0  0  0  0  0  0  0  0  0  0
   -0.3477   -0.5622   -2.0270 O   0  0  0  0  0  0  0  0  0  0  0  0
    1.3547   -0.9031   -0.5427 C   0  0  0  0  0  0  0  0  0  0  0  0
    1.4828   -2.2000   -1.0742 C   0  0  0  0  0  0  0  0  0  0  0  0
    2.5802   -2.9600   -0.8753 C   0  0  0  0  0  0  0  0  0  0  0  0
    3.6591   -2.5093   -0.1309 C   0  0  0  0  0  0  0  0  0  0  0  0
    3.5713   -1.2467    0.4008 C   0  0  0  0  0  0  0  0  0  0  0  0
    2.4341   -0.4838    0.1881 C   0  0  0  0  0  0  0  0  0  0  0  0
    4.7470   -0.6865    1.1703 C   0  0  0  0  0  0  0  0  0  0  0  0
    4.3462    0.4274    1.8771 F   0  0  0  0  0  0  0  0  0  0  0  0
    5.2408   -1.6062    2.0516 F   0  0  0  0  0  0  0  0  0  0  0  0
    5.7196   -0.3126    0.2099 F   0  0  0  0  0  0  0  0  0  0  0  0
   -4.5596   -5.0410    0.5095 H   0  0  0  0  0  0  0  0  0  0  0  0
   -5.9155   -1.7261    0.1019 H   0  0  0  0  0  0  0  0  0  0  0  0
   -4.5212    0.3675    0.0041 H   0  0  0  0  0  0  0  0  0  0  0  0
   -1.0933   -2.0415    0.4992 H   0  0  0  0  0  0  0  0  0  0  0  0
   -2.4388   -4.0464    0.5338 H   0  0  0  0  0  0  0  0  0  0  0  0
   -1.5633    5.0926    1.0315 H   0  0  0  0  0  0  0  0  0  0  0  0
    0.5577    7.0233   -0.3490 H   0  0  0  0  0  0  0  0  0  0  0  0
    2.1982    4.4991   -0.6770 H   0  0  0  0  0  0  0  0  0  0  0  0
    1.7708    2.1767   -0.9905 H   0  0  0  0  0  0  0  0  0  0  0  0
    0.6514   -2.6246   -1.6698 H   0  0  0  0  0  0  0  0  0  0  0  0
    2.6520   -3.9768   -1.2943 H   0  0  0  0  0  0  0  0  0  0  0  0
    4.5412   -3.1428    0.0132 H   0  0  0  0  0  0  0  0  0  0  0  0
    2.4561    0.4878    0.6736 H   0  0  0  0  0  0  0  0  0  0  0  0
  1  2  1  0
  2  3  2  0
  3  4  1  0
  4  5  2  0
  5  6  1  0
  6  7  2  0
  5  8  1  0
  8  9  1  0
  9 10  1  0
 10 11  2  0
 11 12  1  0
 12 13  1  0
 12 14  2  0
 14 15  1  0
 15 16  2  0
 16 17  1  0
 17 18  1  0
 18 19  2  0
 18 20  1  0
 20 21  2  0
 21 22  1  0
 22 23  2  0
 23 24  1  0
 24 25  2  0
 24 26  1  0
 26 27  1  0
 26 28  1  0
 26 29  1  0
  7  2  1  0
 17  8  2  0
 25 20  1  0
 16 10  1  0
  1 30  1  0
  3 31  1  0
  4 32  1  0
  6 33  1  0
  7 34  1  0
 11 35  1  0
 13 36  1  0
 14 37  1  0
 15 38  1  0
 21 39  1  0
 22 40  1  0
 23 41  1  0
 25 42  1  0
M  END
$$$$
[H]Oc1c([H])c([H])c(/C(=N/OC([H])([H])c2c([H])c([H])c([H])c([H])c2[H])C([H])([H])[H])c(O[H])c1F
     RDKit          3D

 34 35  0  0  0  0  0  0  0  0999 V2000
    0.5908    0.1733   -1.6965 C   0  0  0  0  0  0  0  0  0  0  0  0
    1.0566   -0.2976   -0.3849 C   0  0  0  0  0  0  0  0  0  0  0  0
    0.2116   -0.4767    0.5737 N   0  0  0  0  0  0  0  0  0  0  0  0
   -1.1116   -0.2162    0.3276 O   0  0  0  0  0  0  0  0  0  0  0  0
   -1.8734    0.4076    1.3142 C   0  0  0  0  0  0  0  0  0  0  0  0
   -3.2819    0.5989    0.8475 C   0  0  0  0  0  0  0  0  0  0  0  0
   -4.2112    1.1993    1.6664 C   0  0  0  0  0  0  0  0  0  0  0  0
   -5.5115    1.3785    1.2418 C   0  0  0  0  0  0  0  0  0  0  0  0
   -5.9311    0.9638   -0.0181 C   0  0  0  0  0  0  0  0  0  0  0  0
   -4.9849    0.3677   -0.8153 C   0  0  0  0  0  0  0  0  0  0  0  0
   -3.6859    0.1887   -0.3911 C   0  0  0  0  0  0  0  0  0  0  0  0
    2.4886   -0.5589   -0.1852 C   0  0  0  0  0  0  0  0  0  0  0  0
    2.9338   -1.0080    1.0671 C   0  0  0  0  0  0  0  0  0  0  0  0
    4.2589   -1.2711    1.3211 C   0  0  0  0  0  0  0  0  0  0  0  0
    5.2212   -1.1041    0.3473 C   0  0  0  0  0  0  0  0  0  0  0  0
    6.5633   -1.3732    0.6133 O   0  0  0  0  0  0  0  0  0  0  0  0
    4.7969   -0.6637   -0.8861 C   0  0  0  0  0  0  0  0  0  0  0  0
    5.7309   -0.4956   -1.8505 F   0  0  0  0  0  0  0  0  0  0  0  0
    3.4467   -0.3948   -1.1475 C   0  0  0  0  0  0  0  0  0  0  0  0
    3.0835    0.0430   -2.4001 O   0  0  0  0  0  0  0  0  0  0  0  0
    0.9757    1.1714   -1.9953 H   0  0  0  0  0  0  0  0  0  0  0  0
    0.7344   -0.5518   -2.5261 H   0  0  0  0  0  0  0  0  0  0  0  0
   -0.5281    0.3351   -1.6188 H   0  0  0  0  0  0  0  0  0  0  0  0
   -1.8883   -0.2431    2.2174 H   0  0  0  0  0  0  0  0  0  0  0  0
   -1.4704    1.3955    1.5494 H   0  0  0  0  0  0  0  0  0  0  0  0
   -3.8982    1.5265    2.6483 H   0  0  0  0  0  0  0  0  0  0  0  0
   -6.2062    1.8518    1.9119 H   0  0  0  0  0  0  0  0  0  0  0  0
   -6.9427    1.1023   -0.3504 H   0  0  0  0  0  0  0  0  0  0  0  0
   -5.2968    0.0370   -1.8050 H   0  0  0  0  0  0  0  0  0  0  0  0
   -2.9529   -0.2810   -1.0277 H   0  0  0  0  0  0  0  0  0  0  0  0
    2.1633   -1.1385    1.8360 H   0  0  0  0  0  0  0  0  0  0  0  0
    4.5640   -1.6178    2.3049 H   0  0  0  0  0  0  0  0  0  0  0  0
    7.2293   -1.2342   -0.1366 H   0  0  0  0  0  0  0  0  0  0  0  0
    3.7259    0.1859   -3.1520 H   0  0  0  0  0  0  0  0  0  0  0  0
  1  2  1  0
  2  3  2  0
  3  4  1  0
  4  5  1  0
  5  6  1  0
  6  7  2  0
  7  8  1  0
  8  9  2  0
  9 10  1  0
 10 11  2  0
  2 12  1  0
 12 13  2  0
 13 14  1  0
 14 15  2  0
 15 16  1  0
 15 17  1  0
 17 18  1  0
 17 19  2  0
 19 20  1  0
 11  6  1  0
 19 12  1  0
  1 21  1  0
  1 22  1  0
  1 23  1  0
  5 24  1  0
  5 25  1  0
  7 26  1  0
  8 27  1  0
  9 28  1  0
 10 29  1  0
 11 30  1  0
 13 31  1  0
 14 32  1  0
 16 33  1  0
 20 34  1  0
M  END
$$$$
[H]Oc1c([H])c([H])c(-c2c([H])c([H])c3c([H])c(O[H])c([H])c([H])c3c2[H])c(O[H])c1F
     RDKit          3D

 31 33  0  0  0  0  0  0  0  0999 V2000
    5.9734   -0.6240    0.2808 O   0  0  0  0  0  0  0  0  0  0  0  0
    4.6082   -0.4217    0.1409 C   0  0  0  0  0  0  0  0  0  0  0  0
    4.1693    0.4662   -0.8124 C   0  0  0  0  0  0  0  0  0  0  0  0
    2.8364    0.7395   -1.0327 C   0  0  0  0  0  0  0  0  0  0  0  0
    1.8650    0.0990   -0.2664 C   0  0  0  0  0  0  0  0  0  0  0  0
    0.5203    0.3550   -0.4668 C   0  0  0  0  0  0  0  0  0  0  0  0
   -0.3991   -0.3062    0.3191 C   0  0  0  0  0  0  0  0  0  0  0  0
    0.0136   -1.2091    1.2905 C   0  0  0  0  0  0  0  0  0  0  0  0
    1.3594   -1.4372    1.4601 C   0  0  0  0  0  0  0  0  0  0  0  0
    2.3079   -0.7922    0.6903 C   0  0  0  0  0  0  0  0  0  0  0  0
    3.6597   -1.0527    0.8953 C   0  0  0  0  0  0  0  0  0  0  0  0
   -1.8213   -0.0505    0.1255 C   0  0  0  0  0  0  0  0  0  0  0  0
   -2.7339   -1.0783    0.0663 C   0  0  0  0  0  0  0  0  0  0  0  0
   -4.0846   -0.8245   -0.1194 C   0  0  0  0  0  0  0  0  0  0  0  0
   -4.5365    0.4681   -0.2482 C   0  0  0  0  0  0  0  0  0  0  0  0
   -5.9040    0.6859   -0.4341 O   0  0  0  0  0  0  0  0  0  0  0  0
   -3.6373    1.4838   -0.1900 C   0  0  0  0  0  0  0  0  0  0  0  0
   -4.1193    2.7578   -0.3217 F   0  0  0  0  0  0  0  0  0  0  0  0
   -2.2847    1.2495   -0.0052 C   0  0  0  0  0  0  0  0  0  0  0  0
   -1.4328    2.3286    0.0437 O   0  0  0  0  0  0  0  0  0  0  0  0
    6.5698   -0.0933    0.8947 H   0  0  0  0  0  0  0  0  0  0  0  0
    4.8916    0.9881   -1.4325 H   0  0  0  0  0  0  0  0  0  0  0  0
    2.4890    1.4329   -1.7768 H   0  0  0  0  0  0  0  0  0  0  0  0
    0.2447    1.0715   -1.2421 H   0  0  0  0  0  0  0  0  0  0  0  0
   -0.7260   -1.7308    1.9115 H   0  0  0  0  0  0  0  0  0  0  0  0
    1.6740   -2.1556    2.2338 H   0  0  0  0  0  0  0  0  0  0  0  0
    3.9791   -1.7528    1.6485 H   0  0  0  0  0  0  0  0  0  0  0  0
   -2.3508   -2.1013    0.1715 H   0  0  0  0  0  0  0  0  0  0  0  0
   -4.7624   -1.6776   -0.1585 H   0  0  0  0  0  0  0  0  0  0  0  0
   -6.5645   -0.0779   -0.4759 H   0  0  0  0  0  0  0  0  0  0  0  0
   -1.8041    3.2599   -0.0549 H   0  0  0  0  0  0  0  0  0  0  0  0
  1  2  1  0
  2  3  2  0
  3  4  1  0
  4  5  2  0
  5  6  1  0
  6  7  2  0
  7  8  1  0
  8  9  2  0
  9 10  1  0
 10 11  2  0
  7 12  1  0
 12 13  2  0
 13 14  1  0
 14 15  2  0
 15 16  1  0
 15 17  1  0
 17 18  1  0
 17 19  2  0
 19 20  1  0
 11  2  1  0
 19 12  1  0
 10  5  1  0
  1 21  1  0
  3 22  1  0
  4 23  1  0
  6 24  1  0
  8 25  1  0
  9 26  1  0
 11 27  1  0
 13 28  1  0
 14 29  1  0
 16 30  1  0
 20 31  1  0
M  END
$$$$
[H]Oc1c([H])c([H])c(-c2sc3c([H])c(O[H])c([H])c([H])c3c2C(=O)c2c([H])c([H])c([H])c(C(F)(F)F)c2[H])c([H])c1[H]
     RDKit          3D

 42 45  0  0  0  0  0  0  0  0999 V2000
   -4.9965   -4.1530    0.3912 O   0  0  0  0  0  0  0  0  0  0  0  0
   -4.2598   -2.9790    0.3241 C   0  0  0  0  0  0  0  0  0  0  0  0
   -4.8398   -1.7289    0.1756 C   0  0  0  0  0  0  0  0  0  0  0  0
   -4.0664   -0.5823    0.1155 C   0  0  0  0  0  0  0  0  0  0  0  0
   -2.6657   -0.6516    0.2102 C   0  0  0  0  0  0  0  0  0  0  0  0
   -2.1423   -1.9018    0.3598 C   0  0  0  0  0  0  0  0  0  0  0  0
   -2.8929   -3.0459    0.4169 C   0  0  0  0  0  0  0  0  0  0  0  0
   -1.8524    0.5588    0.2270 C   0  0  0  0  0  0  0  0  0  0  0  0
   -2.4546    2.0829    0.7858 S   0  0  0  0  0  0  0  0  0  0  0  0
   -1.1120    3.0395    0.4211 C   0  0  0  0  0  0  0  0  0  0  0  0
   -0.8466    4.4075    0.5844 C   0  0  0  0  0  0  0  0  0  0  0  0
    0.3464    4.9593    0.1932 C   0  0  0  0  0  0  0  0  0  0  0  0
    0.6863    6.3022    0.3212 O   0  0  0  0  0  0  0  0  0  0  0  0
    1.2327    4.0741   -0.3592 C   0  0  0  0  0  0  0  0  0  0  0  0
    0.9803    2.7640   -0.5148 C   0  0  0  0  0  0  0  0  0  0  0  0
   -0.2242    2.1683   -0.1248 C   0  0  0  0  0  0  0  0  0  0  0  0
   -0.5945    0.8661   -0.2334 C   0  0  0  0  0  0  0  0  0  0  0  0
    0.1783   -0.1850   -0.8695 C   0  0  0  0  0  0  0  0  0  0  0  0
   -0.3477   -0.5622   -2.0270 O   0  0  0  0  0  0  0  0  0  0  0  0
    1.3547   -0.9031   -0.5427 C   0  0  0  0  0  0  0  0  0  0  0  0
    1.4828   -2.2000   -1.0742 C   0  0  0  0  0  0  0  0  0  0  0  0
    2.5802   -2.9600   -0.8753 C   0  0  0  0  0  0  0  0  0  0  0  0
    3.6591   -2.5093   -0.1309 C   0  0  0  0  0  0  0  0  0  0  0  0
    3.5713   -1.2467    0.4008 C   0  0  0  0  0  0  0  0  0  0  0  0
    2.4341   -0.4838    0.1881 C   0  0  0  0  0  0  0  0  0  0  0  0
    4.7470   -0.6865    1.1703 C   0  0  0  0  0  0  0  0  0  0  0  0
    4.3462    0.4274    1.8771 F   0  0  0  0  0  0  0  0  0  0  0  0
    5.2408   -1.6062    2.0516 F   0  0  0  0  0  0  0  0  0  0  0  0
    5.7196   -0.3126    0.2099 F   0  0  0  0  0  0  0  0  0  0  0  0
   -4.5596   -5.0410    0.5095 H   0  0  0  0  0  0  0  0  0  0  0  0
   -5.9155   -1.7261    0.1019 H   0  0  0  0  0  0  0  0  0  0  0  0
   -4.5212    0.3675    0.0041 H   0  0  0  0  0  0  0  0  0  0  0  0
   -1.0933   -2.0415    0.4992 H   0  0  0  0  0  0  0  0  0  0  0  0
   -2.4388   -4.0464    0.5338 H   0  0  0  0  0  0  0  0  0  0  0  0
   -1.5633    5.0926    1.0315 H   0  0  0  0  0  0  0  0  0  0  0  0
    0.5577    7.0233   -0.3490 H   0  0  0  0  0  0  0  0  0  0  0  0
    2.1982    4.4991   -0.6770 H   0  0  0  0  0  0  0  0  0  0  0  0
    1.7708    2.1767   -0.9905 H   0  0  0  0  0  0  0  0  0  0  0  0
    0.6514   -2.6246   -1.6698 H   0  0  0  0  0  0  0  0  0  0  0  0
    2.6520   -3.9768   -1.2943 H   0  0  0  0  0  0  0  0  0  0  0  0
    4.5412   -3.1428    0.0132 H   0  0  0  0  0  0  0  0  0  0  0  0
    2.4561    0.4878    0.6736 H   0  0  0  0  0  0  0  0  0  0  0  0
  1  2  1  0
  2  3  2  0
  3  4  1  0
  4  5  2  0
  5  6  1  0
  6  7  2  0
  5  8  1  0
  8  9  1  0
  9 10  1  0
 10 11  2  0
 11 12  1  0
 12 13  1  0
 12 14  2  0
 14 15  1  0
 15 16  2  0
 16 17  1  0
 17 18  1  0
 18 19  2  0
 18 20  1  0
 20 21  2  0
 21 22  1  0
 22 23  2  0
 23 24  1  0
 24 25  2  0
 24 26  1  0
 26 27  1  0
 26 28  1  0
 26 29  1  0
  7  2  1  0
 17  8  2  0
 25 20  1  0
 16 10  1  0
  1 30  1  0
  3 31  1  0
  4 32  1  0
  6 33  1  0
  7 34  1  0
 11 35  1  0
 13 36  1  0
 14 37  1  0
 15 38  1  0
 21 39  1  0
 22 40  1  0
 23 41  1  0
 25 42  1  0
M  END
$$$$
