[H]c1nc(OC([H])([H])C([H])([H])N([H])C([H])([H])C([H])([H])C([H])([H])F)c([H])c([H])c1[C@]1([H])c2c(c3c([H])c([H])c([H])c([H])c3n2[H])C([H])([H])[C@@]([H])(C([H])([H])[H])N1C([H])([H])C1(F)C([H])([H])OC1([H])[H]
     RDKit          3D

 66 70  0  0  0  0  0  0  0  0999 V2000
   -4.9201    0.0747    0.2247 C   0  0  0  0  0  0  0  0  0  0  0  0
   -3.9317    0.1300   -0.9396 C   0  0  2  0  0  0  0  0  0  0  0  0
   -3.5681   -1.3127   -1.2510 C   0  0  0  0  0  0  0  0  0  0  0  0
   -2.7426   -1.8327   -0.1539 C   0  0  0  0  0  0  0  0  0  0  0  0
   -2.0760   -0.9901    0.6729 C   0  0  0  0  0  0  0  0  0  0  0  0
   -1.3979   -1.7002    1.5875 N   0  0  0  0  0  0  0  0  0  0  0  0
   -1.6173   -3.0204    1.3638 C   0  0  0  0  0  0  0  0  0  0  0  0
   -1.1511   -4.1417    2.0177 C   0  0  0  0  0  0  0  0  0  0  0  0
   -1.5479   -5.3980    1.5562 C   0  0  0  0  0  0  0  0  0  0  0  0
   -2.3922   -5.4946    0.4631 C   0  0  0  0  0  0  0  0  0  0  0  0
   -2.8568   -4.3700   -0.1887 C   0  0  0  0  0  0  0  0  0  0  0  0
   -2.4602   -3.1180    0.2727 C   0  0  0  0  0  0  0  0  0  0  0  0
   -2.1159    0.5208    0.5430 C   0  0  2  0  0  0  0  0  0  0  0  0
   -2.8207    0.9267   -0.5904 N   0  0  0  0  0  0  0  0  0  0  0  0
   -2.6288    2.1619   -1.1992 C   0  0  0  0  0  0  0  0  0  0  0  0
   -3.6423    3.2406   -0.8713 C   0  0  0  0  0  0  0  0  0  0  0  0
   -4.9298    2.9722   -1.1923 F   0  0  0  0  0  0  0  0  0  0  0  0
   -3.2030    4.5468   -1.5485 C   0  0  0  0  0  0  0  0  0  0  0  0
   -3.6340    5.2176   -0.4127 O   0  0  0  0  0  0  0  0  0  0  0  0
   -3.3660    4.0739    0.3317 C   0  0  0  0  0  0  0  0  0  0  0  0
   -0.7237    0.9448    0.6745 C   0  0  0  0  0  0  0  0  0  0  0  0
   -0.2664    1.5081    1.8369 C   0  0  0  0  0  0  0  0  0  0  0  0
    1.0394    1.9106    2.0094 C   0  0  0  0  0  0  0  0  0  0  0  0
    1.9043    1.7185    0.9275 C   0  0  0  0  0  0  0  0  0  0  0  0
    3.2080    2.1103    1.0660 O   0  0  0  0  0  0  0  0  0  0  0  0
    4.2350    2.0124    0.1456 C   0  0  0  0  0  0  0  0  0  0  0  0
    4.5210    0.5856   -0.2344 C   0  0  0  0  0  0  0  0  0  0  0  0
    5.6161    0.5269   -1.2068 N   0  0  0  0  0  0  0  0  0  0  0  0
    5.8414   -0.8389   -1.5650 C   0  0  0  0  0  0  0  0  0  0  0  0
    6.3891   -1.7003   -0.4794 C   0  0  0  0  0  0  0  0  0  0  0  0
    7.7290   -1.2142    0.0362 C   0  0  0  0  0  0  0  0  0  0  0  0
    8.1812   -2.0556    1.0399 F   0  0  0  0  0  0  0  0  0  0  0  0
    1.4393    1.1718   -0.1855 N   0  0  0  0  0  0  0  0  0  0  0  0
    0.1668    0.7830   -0.3462 C   0  0  0  0  0  0  0  0  0  0  0  0
   -5.9665    0.2433   -0.1108 H   0  0  0  0  0  0  0  0  0  0  0  0
   -4.7092    0.8456    0.9812 H   0  0  0  0  0  0  0  0  0  0  0  0
   -4.9144   -0.9265    0.7204 H   0  0  0  0  0  0  0  0  0  0  0  0
   -4.5004    0.4962   -1.8102 H   0  0  0  0  0  0  0  0  0  0  0  0
   -4.5642   -1.8446   -1.3144 H   0  0  0  0  0  0  0  0  0  0  0  0
   -3.0971   -1.3736   -2.2385 H   0  0  0  0  0  0  0  0  0  0  0  0
   -0.7822   -1.3368    2.3719 H   0  0  0  0  0  0  0  0  0  0  0  0
   -0.4908   -4.1169    2.8739 H   0  0  0  0  0  0  0  0  0  0  0  0
   -1.1998   -6.2902    2.0474 H   0  0  0  0  0  0  0  0  0  0  0  0
   -2.6915   -6.4707    0.1159 H   0  0  0  0  0  0  0  0  0  0  0  0
   -3.5213   -4.4259   -1.0491 H   0  0  0  0  0  0  0  0  0  0  0  0
   -2.7249    0.8253    1.4474 H   0  0  0  0  0  0  0  0  0  0  0  0
   -2.6408    2.0742   -2.3178 H   0  0  0  0  0  0  0  0  0  0  0  0
   -1.6573    2.6163   -0.8814 H   0  0  0  0  0  0  0  0  0  0  0  0
   -2.1114    4.5729   -1.7456 H   0  0  0  0  0  0  0  0  0  0  0  0
   -3.8014    4.7662   -2.4585 H   0  0  0  0  0  0  0  0  0  0  0  0
   -4.0460    3.9118    1.1946 H   0  0  0  0  0  0  0  0  0  0  0  0
   -2.2889    4.0448    0.5959 H   0  0  0  0  0  0  0  0  0  0  0  0
   -0.9206    1.6710    2.7038 H   0  0  0  0  0  0  0  0  0  0  0  0
    1.4146    2.3576    2.9231 H   0  0  0  0  0  0  0  0  0  0  0  0
    4.0054    2.5434   -0.8181 H   0  0  0  0  0  0  0  0  0  0  0  0
    5.1923    2.4508    0.4950 H   0  0  0  0  0  0  0  0  0  0  0  0
    4.9271    0.0702    0.6874 H   0  0  0  0  0  0  0  0  0  0  0  0
    3.6554    0.0071   -0.5701 H   0  0  0  0  0  0  0  0  0  0  0  0
    5.4293    1.1207   -2.0253 H   0  0  0  0  0  0  0  0  0  0  0  0
    6.5256   -0.8708   -2.4334 H   0  0  0  0  0  0  0  0  0  0  0  0
    4.8878   -1.2936   -1.9083 H   0  0  0  0  0  0  0  0  0  0  0  0
    5.6882   -1.8857    0.3549 H   0  0  0  0  0  0  0  0  0  0  0  0
    6.5988   -2.7063   -0.9424 H   0  0  0  0  0  0  0  0  0  0  0  0
    8.4810   -1.1843   -0.7730 H   0  0  0  0  0  0  0  0  0  0  0  0
    7.6313   -0.1907    0.4477 H   0  0  0  0  0  0  0  0  0  0  0  0
   -0.0865    0.3494   -1.3068 H   0  0  0  0  0  0  0  0  0  0  0  0
  1  2  1  0
  2  3  1  0
  3  4  1  0
  4  5  2  0
  5  6  1  0
  6  7  1  0
  7  8  2  0
  8  9  1  0
  9 10  2  0
 10 11  1  0
 11 12  2  0
  5 13  1  0
 13 14  1  0
 14 15  1  0
 15 16  1  0
 16 17  1  0
 16 18  1  0
 18 19  1  0
 19 20  1  0
 13 21  1  0
 21 22  2  0
 22 23  1  0
 23 24  2  0
 24 25  1  0
 25 26  1  0
 26 27  1  0
 27 28  1  0
 28 29  1  0
 29 30  1  0
 30 31  1  0
 31 32  1  0
 24 33  1  0
 33 34  2  0
 14  2  1  0
 20 16  1  0
 34 21  1  0
 12  4  1  0
 12  7  1  0
  1 35  1  0
  1 36  1  0
  1 37  1  0
  2 38  1  6
  3 39  1  0
  3 40  1  0
  6 41  1  0
  8 42  1  0
  9 43  1  0
 10 44  1  0
 11 45  1  0
 13 46  1  1
 15 47  1  0
 15 48  1  0
 18 49  1  0
 18 50  1  0
 20 51  1  0
 20 52  1  0
 22 53  1  0
 23 54  1  0
 26 55  1  0
 26 56  1  0
 27 57  1  0
 27 58  1  0
 28 59  1  0
 29 60  1  0
 29 61  1  0
 30 62  1  0
 30 63  1  0
 31 64  1  0
 31 65  1  0
 34 66  1  0
M  END
$$$$
[H]Oc1c([H])c([H])c2c(c1[H])C([H])([H])C([H])([H])C([H])([H])C(C1=C([H])C([H])([H])OC([H])([H])C1([H])[H])=C2c1c([H])c([H])c(O[C@]2([H])C([H])([H])N(C([H])([H])C([H])([H])C([H])([H])F)C([H])([H])C2([H])[H])c([H])c1[H]
     RDKit          3D

 68 72  0  0  0  0  0  0  0  0999 V2000
   -4.5162    5.2168    1.8317 O   0  0  0  0  0  0  0  0  0  0  0  0
   -4.1450    3.9345    1.3776 C   0  0  0  0  0  0  0  0  0  0  0  0
   -3.2695    3.8637    0.3271 C   0  0  0  0  0  0  0  0  0  0  0  0
   -2.9032    2.6076   -0.1210 C   0  0  0  0  0  0  0  0  0  0  0  0
   -3.3943    1.4638    0.4580 C   0  0  0  0  0  0  0  0  0  0  0  0
   -4.2862    1.5201    1.5285 C   0  0  0  0  0  0  0  0  0  0  0  0
   -4.9550    0.4965    2.3691 C   0  0  0  0  0  0  0  0  0  0  0  0
   -4.8594   -0.8931    1.8517 C   0  0  0  0  0  0  0  0  0  0  0  0
   -4.9976   -1.0037    0.3749 C   0  0  0  0  0  0  0  0  0  0  0  0
   -3.5771   -0.9851   -0.2029 C   0  0  0  0  0  0  0  0  0  0  0  0
   -3.0534   -2.1232   -0.8045 C   0  0  0  0  0  0  0  0  0  0  0  0
   -3.8684   -3.2328   -0.7025 C   0  0  0  0  0  0  0  0  0  0  0  0
   -3.4784   -4.5339   -1.2802 C   0  0  0  0  0  0  0  0  0  0  0  0
   -2.7757   -4.5673   -2.4345 O   0  0  0  0  0  0  0  0  0  0  0  0
   -2.4630   -3.2963   -2.8605 C   0  0  0  0  0  0  0  0  0  0  0  0
   -1.9023   -2.5746   -1.5916 C   0  0  0  0  0  0  0  0  0  0  0  0
   -2.8938    0.1838   -0.1330 C   0  0  0  0  0  0  0  0  0  0  0  0
   -1.5290    0.2425   -0.5175 C   0  0  0  0  0  0  0  0  0  0  0  0
   -1.0048    0.7414   -1.6697 C   0  0  0  0  0  0  0  0  0  0  0  0
    0.3377    0.8507   -1.9205 C   0  0  0  0  0  0  0  0  0  0  0  0
    1.2340    0.4333   -0.9594 C   0  0  0  0  0  0  0  0  0  0  0  0
    2.5824    0.5512   -1.2215 O   0  0  0  0  0  0  0  0  0  0  0  0
    3.6489    0.1594   -0.4291 C   0  0  1  0  0  0  0  0  0  0  0  0
    4.7175   -0.4693   -1.2916 C   0  0  0  0  0  0  0  0  0  0  0  0
    5.8692    0.5274   -1.2240 C   0  0  0  0  0  0  0  0  0  0  0  0
    5.6851    1.3096   -0.0935 N   0  0  0  0  0  0  0  0  0  0  0  0
    6.6140    1.5920    0.8731 C   0  0  0  0  0  0  0  0  0  0  0  0
    7.1270    0.5620    1.8030 C   0  0  0  0  0  0  0  0  0  0  0  0
    7.8564   -0.5949    1.1700 C   0  0  0  0  0  0  0  0  0  0  0  0
    8.9717   -0.1827    0.4688 F   0  0  0  0  0  0  0  0  0  0  0  0
    4.2932    1.4188    0.1787 C   0  0  0  0  0  0  0  0  0  0  0  0
    0.7170   -0.0864    0.2339 C   0  0  0  0  0  0  0  0  0  0  0  0
   -0.6218   -0.1775    0.4451 C   0  0  0  0  0  0  0  0  0  0  0  0
   -4.6402    2.7986    1.9635 C   0  0  0  0  0  0  0  0  0  0  0  0
   -5.1491    5.2788    2.5927 H   0  0  0  0  0  0  0  0  0  0  0  0
   -2.8370    4.7067   -0.1839 H   0  0  0  0  0  0  0  0  0  0  0  0
   -2.2140    2.5040   -0.9397 H   0  0  0  0  0  0  0  0  0  0  0  0
   -6.0379    0.7722    2.4239 H   0  0  0  0  0  0  0  0  0  0  0  0
   -4.5219    0.5306    3.4023 H   0  0  0  0  0  0  0  0  0  0  0  0
   -5.6481   -1.5154    2.3694 H   0  0  0  0  0  0  0  0  0  0  0  0
   -3.8878   -1.3483    2.2150 H   0  0  0  0  0  0  0  0  0  0  0  0
   -5.4996   -0.0481   -0.0002 H   0  0  0  0  0  0  0  0  0  0  0  0
   -5.5795   -1.8358    0.0767 H   0  0  0  0  0  0  0  0  0  0  0  0
   -4.7955   -3.2302   -0.1844 H   0  0  0  0  0  0  0  0  0  0  0  0
   -4.4655   -5.0578   -1.5108 H   0  0  0  0  0  0  0  0  0  0  0  0
   -2.9807   -5.1766   -0.4888 H   0  0  0  0  0  0  0  0  0  0  0  0
   -3.4541   -2.8125   -3.1105 H   0  0  0  0  0  0  0  0  0  0  0  0
   -1.7085   -3.2003   -3.6275 H   0  0  0  0  0  0  0  0  0  0  0  0
   -1.2024   -1.8862   -1.9629 H   0  0  0  0  0  0  0  0  0  0  0  0
   -1.3516   -3.4114   -1.0702 H   0  0  0  0  0  0  0  0  0  0  0  0
   -1.6331    1.0735   -2.5244 H   0  0  0  0  0  0  0  0  0  0  0  0
    0.7439    1.2521   -2.8490 H   0  0  0  0  0  0  0  0  0  0  0  0
    3.3205   -0.5020    0.4083 H   0  0  0  0  0  0  0  0  0  0  0  0
    5.0088   -1.4780   -0.9403 H   0  0  0  0  0  0  0  0  0  0  0  0
    4.4010   -0.5869   -2.3422 H   0  0  0  0  0  0  0  0  0  0  0  0
    6.8045    0.0269   -1.4236 H   0  0  0  0  0  0  0  0  0  0  0  0
    5.7137    1.2054   -2.1296 H   0  0  0  0  0  0  0  0  0  0  0  0
    7.5327    2.0719    0.3900 H   0  0  0  0  0  0  0  0  0  0  0  0
    6.2265    2.4704    1.4948 H   0  0  0  0  0  0  0  0  0  0  0  0
    7.9052    1.0831    2.4432 H   0  0  0  0  0  0  0  0  0  0  0  0
    6.3823    0.2055    2.5501 H   0  0  0  0  0  0  0  0  0  0  0  0
    7.1416   -1.1915    0.5840 H   0  0  0  0  0  0  0  0  0  0  0  0
    8.1566   -1.2816    2.0187 H   0  0  0  0  0  0  0  0  0  0  0  0
    3.8913    2.3249   -0.3104 H   0  0  0  0  0  0  0  0  0  0  0  0
    4.0520    1.4339    1.2594 H   0  0  0  0  0  0  0  0  0  0  0  0
    1.4361   -0.4199    0.9996 H   0  0  0  0  0  0  0  0  0  0  0  0
   -0.9396   -0.6047    1.4210 H   0  0  0  0  0  0  0  0  0  0  0  0
   -5.3305    2.8943    2.7917 H   0  0  0  0  0  0  0  0  0  0  0  0
  1  2  1  0
  2  3  2  0
  3  4  1  0
  4  5  2  0
  5  6  1  0
  6  7  1  0
  7  8  1  0
  8  9  1  0
  9 10  1  0
 10 11  1  0
 11 12  2  0
 12 13  1  0
 13 14  1  0
 14 15  1  0
 15 16  1  0
 10 17  2  0
 17 18  1  0
 18 19  2  0
 19 20  1  0
 20 21  2  0
 21 22  1  0
 22 23  1  0
 23 24  1  0
 24 25  1  0
 25 26  1  0
 26 27  1  0
 27 28  1  0
 28 29  1  0
 29 30  1  0
 26 31  1  0
 21 32  1  0
 32 33  2  0
  6 34  2  0
 34  2  1  0
 17  5  1  0
 33 18  1  0
 16 11  1  0
 31 23  1  0
  1 35  1  0
  3 36  1  0
  4 37  1  0
  7 38  1  0
  7 39  1  0
  8 40  1  0
  8 41  1  0
  9 42  1  0
  9 43  1  0
 12 44  1  0
 13 45  1  0
 13 46  1  0
 15 47  1  0
 15 48  1  0
 16 49  1  0
 16 50  1  0
 19 51  1  0
 20 52  1  0
 23 53  1  1
 24 54  1  0
 24 55  1  0
 25 56  1  0
 25 57  1  0
 27 58  1  0
 27 59  1  0
 28 60  1  0
 28 61  1  0
 29 62  1  0
 29 63  1  0
 31 64  1  0
 31 65  1  0
 32 66  1  0
 33 67  1  0
 34 68  1  0
M  END
$$$$
[H]Oc1c([H])c([H])c([C@@]2([H])Sc3c([H])c(O[H])c([H])c([H])c3O[C@@]2([H])c2c([H])c([H])c(OC([H])([H])C([H])([H])N3C([H])([H])C([H])([H])C([H])(F)C([H])([H])C3([H])[H])c([H])c2[H])c([H])c1[H]
     RDKit          3D

 62 66  0  0  0  0  0  0  0  0999 V2000
   -4.8158    4.3243   -2.3697 O   0  0  0  0  0  0  0  0  0  0  0  0
   -4.4461    3.3161   -1.4571 C   0  0  0  0  0  0  0  0  0  0  0  0
   -3.5054    3.5586   -0.4785 C   0  0  0  0  0  0  0  0  0  0  0  0
   -3.1402    2.5685    0.4203 C   0  0  0  0  0  0  0  0  0  0  0  0
   -3.7011    1.3032    0.3731 C   0  0  0  0  0  0  0  0  0  0  0  0
   -4.6353    1.0919   -0.6128 C   0  0  0  0  0  0  0  0  0  0  0  0
   -5.0078    2.0690   -1.5139 C   0  0  0  0  0  0  0  0  0  0  0  0
   -3.3636    0.2323    1.3024 C   0  0  1  0  0  0  0  0  0  0  0  0
   -4.8031   -0.5397    2.0634 S   0  0  0  0  0  0  0  0  0  0  0  0
   -4.9926   -2.1605    1.3431 C   0  0  0  0  0  0  0  0  0  0  0  0
   -6.0591   -2.9086    1.8118 C   0  0  0  0  0  0  0  0  0  0  0  0
   -6.2794   -4.1726    1.3091 C   0  0  0  0  0  0  0  0  0  0  0  0
   -7.3387   -4.9496    1.7562 O   0  0  0  0  0  0  0  0  0  0  0  0
   -5.4238   -4.6582    0.3463 C   0  0  0  0  0  0  0  0  0  0  0  0
   -4.3488   -3.8942   -0.1207 C   0  0  0  0  0  0  0  0  0  0  0  0
   -4.1297   -2.6324    0.3818 C   0  0  0  0  0  0  0  0  0  0  0  0
   -3.0782   -1.8069   -0.0327 O   0  0  0  0  0  0  0  0  0  0  0  0
   -2.4843   -0.8556    0.7807 C   0  0  1  0  0  0  0  0  0  0  0  0
   -1.2555   -0.3520    0.1446 C   0  0  0  0  0  0  0  0  0  0  0  0
   -1.2054   -0.1096   -1.2111 C   0  0  0  0  0  0  0  0  0  0  0  0
   -0.0919    0.3624   -1.8345 C   0  0  0  0  0  0  0  0  0  0  0  0
    1.0842    0.6343   -1.1353 C   0  0  0  0  0  0  0  0  0  0  0  0
    2.1582    1.1099   -1.8367 O   0  0  0  0  0  0  0  0  0  0  0  0
    3.4335    1.4248   -1.4165 C   0  0  0  0  0  0  0  0  0  0  0  0
    4.1759    0.2472   -0.9440 C   0  0  0  0  0  0  0  0  0  0  0  0
    5.5021    0.4654   -0.4740 N   0  0  0  0  0  0  0  0  0  0  0  0
    6.0867   -0.7672   -0.0525 C   0  0  0  0  0  0  0  0  0  0  0  0
    7.1351   -0.6079    1.0123 C   0  0  0  0  0  0  0  0  0  0  0  0
    7.9887    0.6206    0.7223 C   0  0  0  0  0  0  0  0  0  0  0  0
    8.3989    0.5348   -0.5940 F   0  0  0  0  0  0  0  0  0  0  0  0
    7.0718    1.8188    0.8361 C   0  0  0  0  0  0  0  0  0  0  0  0
    5.6383    1.4367    0.5676 C   0  0  0  0  0  0  0  0  0  0  0  0
    1.0436    0.3955    0.2230 C   0  0  0  0  0  0  0  0  0  0  0  0
   -0.0969   -0.0849    0.8409 C   0  0  0  0  0  0  0  0  0  0  0  0
   -5.6061    4.9131   -2.0696 H   0  0  0  0  0  0  0  0  0  0  0  0
   -3.0736    4.5535   -0.4521 H   0  0  0  0  0  0  0  0  0  0  0  0
   -2.3943    2.7792    1.1874 H   0  0  0  0  0  0  0  0  0  0  0  0
   -5.1142    0.1370   -0.7118 H   0  0  0  0  0  0  0  0  0  0  0  0
   -5.7544    1.8453   -2.2756 H   0  0  0  0  0  0  0  0  0  0  0  0
   -2.7674    0.7016    2.1512 H   0  0  0  0  0  0  0  0  0  0  0  0
   -6.7458   -2.5567    2.5640 H   0  0  0  0  0  0  0  0  0  0  0  0
   -7.5211   -5.8613    1.4129 H   0  0  0  0  0  0  0  0  0  0  0  0
   -5.5978   -5.6504   -0.0475 H   0  0  0  0  0  0  0  0  0  0  0  0
   -3.6773   -4.2632   -0.8698 H   0  0  0  0  0  0  0  0  0  0  0  0
   -2.1458   -1.4274    1.7112 H   0  0  0  0  0  0  0  0  0  0  0  0
   -2.1300   -0.3274   -1.7814 H   0  0  0  0  0  0  0  0  0  0  0  0
   -0.0984    0.5367   -2.8917 H   0  0  0  0  0  0  0  0  0  0  0  0
    3.9562    1.8514   -2.3343 H   0  0  0  0  0  0  0  0  0  0  0  0
    3.3233    2.2366   -0.6567 H   0  0  0  0  0  0  0  0  0  0  0  0
    4.2673   -0.4519   -1.8461 H   0  0  0  0  0  0  0  0  0  0  0  0
    3.6179   -0.3448   -0.2192 H   0  0  0  0  0  0  0  0  0  0  0  0
    6.5656   -1.2835   -0.9183 H   0  0  0  0  0  0  0  0  0  0  0  0
    5.3072   -1.4489    0.3520 H   0  0  0  0  0  0  0  0  0  0  0  0
    6.7188   -0.5823    2.0318 H   0  0  0  0  0  0  0  0  0  0  0  0
    7.8142   -1.4827    0.9484 H   0  0  0  0  0  0  0  0  0  0  0  0
    8.8413    0.6673    1.4152 H   0  0  0  0  0  0  0  0  0  0  0  0
    7.4234    2.6523    0.1973 H   0  0  0  0  0  0  0  0  0  0  0  0
    7.1284    2.1730    1.8865 H   0  0  0  0  0  0  0  0  0  0  0  0
    5.2791    0.9330    1.5155 H   0  0  0  0  0  0  0  0  0  0  0  0
    5.0251    2.3320    0.4607 H   0  0  0  0  0  0  0  0  0  0  0  0
    1.9061    0.6049    0.8437 H   0  0  0  0  0  0  0  0  0  0  0  0
   -0.0624   -0.2510    1.9051 H   0  0  0  0  0  0  0  0  0  0  0  0
  1  2  1  0
  2  3  2  0
  3  4  1  0
  4  5  2  0
  5  6  1  0
  6  7  2  0
  5  8  1  0
  8  9  1  0
  9 10  1  0
 10 11  2  0
 11 12  1  0
 12 13  1  0
 12 14  2  0
 14 15  1  0
 15 16  2  0
 16 17  1  0
 17 18  1  0
 18 19  1  0
 19 20  2  0
 20 21  1  0
 21 22  2  0
 22 23  1  0
 23 24  1  0
 24 25  1  0
 25 26  1  0
 26 27  1  0
 27 28  1  0
 28 29  1  0
 29 30  1  0
 29 31  1  0
 31 32  1  0
 22 33  1  0
 33 34  2  0
  7  2  1  0
 18  8  1  0
 34 19  1  0
 16 10  1  0
 32 26  1  0
  1 35  1  0
  3 36  1  0
  4 37  1  0
  6 38  1  0
  7 39  1  0
  8 40  1  1
 11 41  1  0
 13 42  1  0
 14 43  1  0
 15 44  1  0
 18 45  1  1
 20 46  1  0
 21 47  1  0
 24 48  1  0
 24 49  1  0
 25 50  1  0
 25 51  1  0
 27 52  1  0
 27 53  1  0
 28 54  1  0
 28 55  1  0
 29 56  1  0
 31 57  1  0
 31 58  1  0
 32 59  1  0
 32 60  1  0
 33 61  1  0
 34 62  1  0
M  END
$$$$
[H]c1c([H])c([H])c(C2=C(c3c([H])c([H])c(OC([H])([H])C([H])([H])N4C([H])([H])C([H])([H])C4([H])[H])c([H])c3[H])c3c([H])c([H])c([H])c([H])c3OC([H])([H])C2([H])[H])c([H])c1[H]
     RDKit          3D

 57 61  0  0  0  0  0  0  0  0999 V2000
    3.5273   -0.0328    2.0255 C   0  0  0  0  0  0  0  0  0  0  0  0
    4.8817    0.3529    2.4969 C   0  0  0  0  0  0  0  0  0  0  0  0
    5.9087    0.5065    1.5538 N   0  0  0  0  0  0  0  0  0  0  0  0
    6.3050   -0.7513    0.9395 C   0  0  0  0  0  0  0  0  0  0  0  0
    6.8227    0.0929   -0.2235 C   0  0  0  0  0  0  0  0  0  0  0  0
    5.7034    1.0397    0.2654 C   0  0  0  0  0  0  0  0  0  0  0  0
    2.9103    0.8591    1.1387 O   0  0  0  0  0  0  0  0  0  0  0  0
    1.6472    0.5765    0.6615 C   0  0  0  0  0  0  0  0  0  0  0  0
    0.9985   -0.5731    1.0574 C   0  0  0  0  0  0  0  0  0  0  0  0
   -0.2588   -0.8440    0.5763 C   0  0  0  0  0  0  0  0  0  0  0  0
   -0.9079    0.0256   -0.3161 C   0  0  0  0  0  0  0  0  0  0  0  0
   -0.2655    1.1564   -0.7042 C   0  0  0  0  0  0  0  0  0  0  0  0
    0.9916    1.4351   -0.2277 C   0  0  0  0  0  0  0  0  0  0  0  0
   -2.2097   -0.4326   -0.7672 C   0  0  0  0  0  0  0  0  0  0  0  0
   -3.2858    0.3076   -0.6758 C   0  0  0  0  0  0  0  0  0  0  0  0
   -4.6866   -0.0775   -1.1223 C   0  0  0  0  0  0  0  0  0  0  0  0
   -5.1807   -1.3113   -0.4442 C   0  0  0  0  0  0  0  0  0  0  0  0
   -4.5198   -2.4999   -0.8558 O   0  0  0  0  0  0  0  0  0  0  0  0
   -3.2619   -2.7012   -1.3850 C   0  0  0  0  0  0  0  0  0  0  0  0
   -3.0927   -3.9236   -1.9738 C   0  0  0  0  0  0  0  0  0  0  0  0
   -1.8806   -4.2269   -2.5332 C   0  0  0  0  0  0  0  0  0  0  0  0
   -0.8432   -3.3242   -2.5094 C   0  0  0  0  0  0  0  0  0  0  0  0
   -0.9757   -2.0715   -1.9207 C   0  0  0  0  0  0  0  0  0  0  0  0
   -2.2226   -1.8026   -1.3628 C   0  0  0  0  0  0  0  0  0  0  0  0
   -3.1794    1.5904   -0.0423 C   0  0  0  0  0  0  0  0  0  0  0  0
   -3.6496    2.7109   -0.7443 C   0  0  0  0  0  0  0  0  0  0  0  0
   -3.6452    3.9705   -0.1831 C   0  0  0  0  0  0  0  0  0  0  0  0
   -3.1635    4.1120    1.0997 C   0  0  0  0  0  0  0  0  0  0  0  0
   -2.7078    3.0227    1.7799 C   0  0  0  0  0  0  0  0  0  0  0  0
   -2.7098    1.7533    1.2213 C   0  0  0  0  0  0  0  0  0  0  0  0
    3.4879   -1.0840    1.6418 H   0  0  0  0  0  0  0  0  0  0  0  0
    2.8676   -0.0560    2.9434 H   0  0  0  0  0  0  0  0  0  0  0  0
    5.1489   -0.3717    3.3100 H   0  0  0  0  0  0  0  0  0  0  0  0
    4.7591    1.3544    3.0162 H   0  0  0  0  0  0  0  0  0  0  0  0
    5.4565   -1.3623    0.6089 H   0  0  0  0  0  0  0  0  0  0  0  0
    7.1221   -1.2613    1.4760 H   0  0  0  0  0  0  0  0  0  0  0  0
    6.6446   -0.3592   -1.1984 H   0  0  0  0  0  0  0  0  0  0  0  0
    7.8303    0.4506    0.0091 H   0  0  0  0  0  0  0  0  0  0  0  0
    6.0971    2.0727    0.1500 H   0  0  0  0  0  0  0  0  0  0  0  0
    4.8166    0.8094   -0.3169 H   0  0  0  0  0  0  0  0  0  0  0  0
    1.4827   -1.2773    1.7606 H   0  0  0  0  0  0  0  0  0  0  0  0
   -0.7269   -1.7533    0.9132 H   0  0  0  0  0  0  0  0  0  0  0  0
   -0.7785    1.8194   -1.4077 H   0  0  0  0  0  0  0  0  0  0  0  0
    1.4939    2.3357   -0.5414 H   0  0  0  0  0  0  0  0  0  0  0  0
   -4.6159   -0.2776   -2.2090 H   0  0  0  0  0  0  0  0  0  0  0  0
   -5.3788    0.7495   -0.9676 H   0  0  0  0  0  0  0  0  0  0  0  0
   -4.9525   -1.2054    0.6534 H   0  0  0  0  0  0  0  0  0  0  0  0
   -6.2704   -1.3820   -0.5155 H   0  0  0  0  0  0  0  0  0  0  0  0
   -3.8947   -4.6287   -1.9957 H   0  0  0  0  0  0  0  0  0  0  0  0
   -1.7262   -5.2033   -3.0102 H   0  0  0  0  0  0  0  0  0  0  0  0
    0.1118   -3.5898   -2.9622 H   0  0  0  0  0  0  0  0  0  0  0  0
   -0.1665   -1.3704   -1.9184 H   0  0  0  0  0  0  0  0  0  0  0  0
   -4.0332    2.6146   -1.7593 H   0  0  0  0  0  0  0  0  0  0  0  0
   -3.9987    4.8436   -0.6971 H   0  0  0  0  0  0  0  0  0  0  0  0
   -3.1503    5.0957    1.5614 H   0  0  0  0  0  0  0  0  0  0  0  0
   -2.3279    3.1442    2.7964 H   0  0  0  0  0  0  0  0  0  0  0  0
   -2.3479    0.9529    1.8346 H   0  0  0  0  0  0  0  0  0  0  0  0
  1  2  1  0
  2  3  1  0
  3  4  1  0
  4  5  1  0
  5  6  1  0
  1  7  1  0
  7  8  1  0
  8  9  2  0
  9 10  1  0
 10 11  2  0
 11 12  1  0
 12 13  2  0
 11 14  1  0
 14 15  2  0
 15 16  1  0
 16 17  1  0
 17 18  1  0
 18 19  1  0
 19 20  2  0
 20 21  1  0
 21 22  2  0
 22 23  1  0
 23 24  2  0
 15 25  1  0
 25 26  2  0
 26 27  1  0
 27 28  2  0
 28 29  1  0
 29 30  2  0
  6  3  1  0
 13  8  1  0
 24 14  1  0
 30 25  1  0
 24 19  1  0
  1 31  1  0
  1 32  1  0
  2 33  1  0
  2 34  1  0
  4 35  1  0
  4 36  1  0
  5 37  1  0
  5 38  1  0
  6 39  1  0
  6 40  1  0
  9 41  1  0
 10 42  1  0
 12 43  1  0
 13 44  1  0
 16 45  1  0
 16 46  1  0
 17 47  1  0
 17 48  1  0
 20 49  1  0
 21 50  1  0
 22 51  1  0
 23 52  1  0
 26 53  1  0
 27 54  1  0
 28 55  1  0
 29 56  1  0
 30 57  1  0
M  END
$$$$
[H]Oc1c([H])c([H])c(/C(=C(\c2c([H])c([H])c([H])c([H])c2[H])C([H])([H])C([H])([H])[H])c2c([H])c([H])c(OC([H])([H])C([H])([H])N([H])[H])c([H])c2[H])c([H])c1[H]
     RDKit          3D

 52 54  0  0  0  0  0  0  0  0999 V2000
   -1.8189   -3.4948   -0.3853 C   0  0  0  0  0  0  0  0  0  0  0  0
   -1.2271   -2.3626   -1.1739 C   0  0  0  0  0  0  0  0  0  0  0  0
   -1.6340   -1.0104   -0.6212 C   0  0  0  0  0  0  0  0  0  0  0  0
   -0.8015   -0.1137   -0.1925 C   0  0  0  0  0  0  0  0  0  0  0  0
   -1.1896    1.2094    0.3347 C   0  0  0  0  0  0  0  0  0  0  0  0
   -2.0480    2.0774   -0.2841 C   0  0  0  0  0  0  0  0  0  0  0  0
   -2.3950    3.3040    0.2207 C   0  0  0  0  0  0  0  0  0  0  0  0
   -1.8678    3.7220    1.4188 C   0  0  0  0  0  0  0  0  0  0  0  0
   -2.2038    4.9674    1.9563 O   0  0  0  0  0  0  0  0  0  0  0  0
   -0.9976    2.8682    2.0670 C   0  0  0  0  0  0  0  0  0  0  0  0
   -0.6547    1.6370    1.5530 C   0  0  0  0  0  0  0  0  0  0  0  0
    0.6638   -0.3551   -0.1596 C   0  0  0  0  0  0  0  0  0  0  0  0
    1.2591   -1.4532    0.3875 C   0  0  0  0  0  0  0  0  0  0  0  0
    2.6280   -1.6169    0.3731 C   0  0  0  0  0  0  0  0  0  0  0  0
    3.4328   -0.6487   -0.2087 C   0  0  0  0  0  0  0  0  0  0  0  0
    4.8122   -0.7753   -0.2445 O   0  0  0  0  0  0  0  0  0  0  0  0
    5.5988    0.2288   -0.8427 C   0  0  0  0  0  0  0  0  0  0  0  0
    7.0686   -0.1212   -0.7673 C   0  0  0  0  0  0  0  0  0  0  0  0
    7.4279   -0.2500    0.6393 N   0  0  0  0  0  0  0  0  0  0  0  0
    2.8625    0.4736   -0.7695 C   0  0  0  0  0  0  0  0  0  0  0  0
    1.4898    0.6009   -0.7359 C   0  0  0  0  0  0  0  0  0  0  0  0
   -3.0848   -0.8012   -0.5273 C   0  0  0  0  0  0  0  0  0  0  0  0
   -3.7011   -0.4257    0.6380 C   0  0  0  0  0  0  0  0  0  0  0  0
   -5.0726   -0.2460    0.6654 C   0  0  0  0  0  0  0  0  0  0  0  0
   -5.8549   -0.4324   -0.4495 C   0  0  0  0  0  0  0  0  0  0  0  0
   -5.2558   -0.8107   -1.6324 C   0  0  0  0  0  0  0  0  0  0  0  0
   -3.8905   -0.9899   -1.6603 C   0  0  0  0  0  0  0  0  0  0  0  0
   -2.7735   -3.8769   -0.8055 H   0  0  0  0  0  0  0  0  0  0  0  0
   -1.0735   -4.3312   -0.3797 H   0  0  0  0  0  0  0  0  0  0  0  0
   -1.9550   -3.1331    0.6709 H   0  0  0  0  0  0  0  0  0  0  0  0
   -0.1924   -2.4451   -1.4382 H   0  0  0  0  0  0  0  0  0  0  0  0
   -1.7722   -2.3892   -2.1856 H   0  0  0  0  0  0  0  0  0  0  0  0
   -2.4580    1.7506   -1.2387 H   0  0  0  0  0  0  0  0  0  0  0  0
   -3.0958    3.9236   -0.3478 H   0  0  0  0  0  0  0  0  0  0  0  0
   -2.8457    5.5413    1.4334 H   0  0  0  0  0  0  0  0  0  0  0  0
   -0.5677    3.1714    3.0146 H   0  0  0  0  0  0  0  0  0  0  0  0
    0.0260    0.9494    2.0436 H   0  0  0  0  0  0  0  0  0  0  0  0
    0.6801   -2.2195    0.8575 H   0  0  0  0  0  0  0  0  0  0  0  0
    3.1199   -2.4832    0.8009 H   0  0  0  0  0  0  0  0  0  0  0  0
    5.4844    1.1707   -0.2360 H   0  0  0  0  0  0  0  0  0  0  0  0
    5.2908    0.4286   -1.8823 H   0  0  0  0  0  0  0  0  0  0  0  0
    7.3253   -1.0364   -1.3130 H   0  0  0  0  0  0  0  0  0  0  0  0
    7.6169    0.7450   -1.2109 H   0  0  0  0  0  0  0  0  0  0  0  0
    7.2806   -1.2461    0.9159 H   0  0  0  0  0  0  0  0  0  0  0  0
    6.7381    0.2971    1.2267 H   0  0  0  0  0  0  0  0  0  0  0  0
    3.5044    1.2428   -1.2296 H   0  0  0  0  0  0  0  0  0  0  0  0
    1.0677    1.5081   -1.1908 H   0  0  0  0  0  0  0  0  0  0  0  0
   -3.1125   -0.2690    1.5580 H   0  0  0  0  0  0  0  0  0  0  0  0
   -5.5801    0.0483    1.5672 H   0  0  0  0  0  0  0  0  0  0  0  0
   -6.9392   -0.2903   -0.4280 H   0  0  0  0  0  0  0  0  0  0  0  0
   -5.8764   -0.9569   -2.5162 H   0  0  0  0  0  0  0  0  0  0  0  0
   -3.4379   -1.2808   -2.5802 H   0  0  0  0  0  0  0  0  0  0  0  0
  1  2  1  0
  2  3  1  0
  3  4  2  0
  4  5  1  0
  5  6  2  0
  6  7  1  0
  7  8  2  0
  8  9  1  0
  8 10  1  0
 10 11  2  0
  4 12  1  0
 12 13  2  0
 13 14  1  0
 14 15  2  0
 15 16  1  0
 16 17  1  0
 17 18  1  0
 18 19  1  0
 15 20  1  0
 20 21  2  0
  3 22  1  0
 22 23  2  0
 23 24  1  0
 24 25  2  0
 25 26  1  0
 26 27  2  0
 11  5  1  0
 21 12  1  0
 27 22  1  0
  1 28  1  0
  1 29  1  0
  1 30  1  0
  2 31  1  0
  2 32  1  0
  6 33  1  0
  7 34  1  0
  9 35  1  0
 10 36  1  0
 11 37  1  0
 13 38  1  0
 14 39  1  0
 17 40  1  0
 17 41  1  0
 18 42  1  0
 18 43  1  0
 19 44  1  0
 19 45  1  0
 20 46  1  0
 21 47  1  0
 23 48  1  0
 24 49  1  0
 25 50  1  0
 26 51  1  0
 27 52  1  0
M  END
$$$$
[H]Oc1c([H])c([H])c(-c2sc3c([H])c(O[H])c([H])c([H])c3c2Oc2c([H])c([H])c(/C([H])=C(\[H])c3nc(=O)n([H])c(C(F)(F)F)c3[H])c([H])c2[H])c([H])c1[H]
     RDKit          3D

 54 58  0  0  0  0  0  0  0  0999 V2000
   -5.1783    4.5279   -3.5311 O   0  0  0  0  0  0  0  0  0  0  0  0
   -4.8536    3.3851   -2.7762 C   0  0  0  0  0  0  0  0  0  0  0  0
   -5.3054    2.1432   -3.1696 C   0  0  0  0  0  0  0  0  0  0  0  0
   -5.0036    1.0247   -2.4390 C   0  0  0  0  0  0  0  0  0  0  0  0
   -4.2324    1.0800   -1.2701 C   0  0  0  0  0  0  0  0  0  0  0  0
   -3.8040    2.2955   -0.9090 C   0  0  0  0  0  0  0  0  0  0  0  0
   -4.0951    3.4724   -1.6385 C   0  0  0  0  0  0  0  0  0  0  0  0
   -4.0704   -0.1466   -0.4678 C   0  0  0  0  0  0  0  0  0  0  0  0
   -5.1042   -1.5223   -0.7717 S   0  0  0  0  0  0  0  0  0  0  0  0
   -4.6014   -2.5164    0.4954 C   0  0  0  0  0  0  0  0  0  0  0  0
   -5.0115   -3.7885    0.9441 C   0  0  0  0  0  0  0  0  0  0  0  0
   -4.4689   -4.3647    2.0581 C   0  0  0  0  0  0  0  0  0  0  0  0
   -4.8212   -5.6094    2.5482 O   0  0  0  0  0  0  0  0  0  0  0  0
   -3.5126   -3.6120    2.6949 C   0  0  0  0  0  0  0  0  0  0  0  0
   -3.1111   -2.3864    2.2714 C   0  0  0  0  0  0  0  0  0  0  0  0
   -3.6495   -1.7815    1.1246 C   0  0  0  0  0  0  0  0  0  0  0  0
   -3.3632   -0.5302    0.6078 C   0  0  0  0  0  0  0  0  0  0  0  0
   -2.3646    0.3233    1.1534 O   0  0  0  0  0  0  0  0  0  0  0  0
   -1.0158    0.3768    0.9361 C   0  0  0  0  0  0  0  0  0  0  0  0
   -0.1231   -0.4778    1.6132 C   0  0  0  0  0  0  0  0  0  0  0  0
    1.2372   -0.4483    1.4297 C   0  0  0  0  0  0  0  0  0  0  0  0
    1.8447    0.4430    0.5471 C   0  0  0  0  0  0  0  0  0  0  0  0
    3.2987    0.3952    0.4541 C   0  0  0  0  0  0  0  0  0  0  0  0
    4.0537    1.2694   -0.1482 C   0  0  0  0  0  0  0  0  0  0  0  0
    5.4957    1.1167   -0.1828 C   0  0  0  0  0  0  0  0  0  0  0  0
    6.1679   -0.0293    0.1721 C   0  0  0  0  0  0  0  0  0  0  0  0
    7.5536   -0.1266    0.2180 C   0  0  0  0  0  0  0  0  0  0  0  0
    8.2601    0.9616   -0.1000 N   0  0  0  0  0  0  0  0  0  0  0  0
    7.6358    2.0927   -0.4474 C   0  0  0  0  0  0  0  0  0  0  0  0
    8.3807    3.0919   -0.7354 O   0  0  0  0  0  0  0  0  0  0  0  0
    6.2877    2.1971   -0.4988 N   0  0  0  0  0  0  0  0  0  0  0  0
    8.2377   -1.4086    0.5698 C   0  0  0  0  0  0  0  0  0  0  0  0
    7.9613   -2.3712   -0.3984 F   0  0  0  0  0  0  0  0  0  0  0  0
    7.8331   -1.8751    1.8061 F   0  0  0  0  0  0  0  0  0  0  0  0
    9.5926   -1.1585    0.6142 F   0  0  0  0  0  0  0  0  0  0  0  0
    1.0247    1.2769   -0.1213 C   0  0  0  0  0  0  0  0  0  0  0  0
   -0.3534    1.2332    0.0756 C   0  0  0  0  0  0  0  0  0  0  0  0
   -6.0209    5.0257   -3.3036 H   0  0  0  0  0  0  0  0  0  0  0  0
   -5.9097    2.1107   -4.0755 H   0  0  0  0  0  0  0  0  0  0  0  0
   -5.3664    0.0669   -2.7689 H   0  0  0  0  0  0  0  0  0  0  0  0
   -3.2113    2.4253   -0.0188 H   0  0  0  0  0  0  0  0  0  0  0  0
   -3.7145    4.4095   -1.2756 H   0  0  0  0  0  0  0  0  0  0  0  0
   -5.7723   -4.2798    0.3846 H   0  0  0  0  0  0  0  0  0  0  0  0
   -5.5690   -5.6894    3.2235 H   0  0  0  0  0  0  0  0  0  0  0  0
   -3.0760   -4.0592    3.5949 H   0  0  0  0  0  0  0  0  0  0  0  0
   -2.3966   -1.8763    2.9045 H   0  0  0  0  0  0  0  0  0  0  0  0
   -0.5283   -1.1718    2.3277 H   0  0  0  0  0  0  0  0  0  0  0  0
    1.8369   -1.1551    2.0047 H   0  0  0  0  0  0  0  0  0  0  0  0
    3.8251   -0.4421    0.9416 H   0  0  0  0  0  0  0  0  0  0  0  0
    3.6309    2.1377   -0.6403 H   0  0  0  0  0  0  0  0  0  0  0  0
    5.6045   -0.9066    0.4158 H   0  0  0  0  0  0  0  0  0  0  0  0
    9.3061    0.9366   -0.0857 H   0  0  0  0  0  0  0  0  0  0  0  0
    1.4587    1.9940   -0.8311 H   0  0  0  0  0  0  0  0  0  0  0  0
   -0.9192    1.9208   -0.5115 H   0  0  0  0  0  0  0  0  0  0  0  0
  1  2  1  0
  2  3  2  0
  3  4  1  0
  4  5  2  0
  5  6  1  0
  6  7  2  0
  5  8  1  0
  8  9  1  0
  9 10  1  0
 10 11  2  0
 11 12  1  0
 12 13  1  0
 12 14  2  0
 14 15  1  0
 15 16  2  0
 16 17  1  0
 17 18  1  0
 18 19  1  0
 19 20  2  0
 20 21  1  0
 21 22  2  0
 22 23  1  0
 23 24  2  0
 24 25  1  0
 25 26  1  0
 26 27  2  0
 27 28  1  0
 28 29  1  0
 29 30  2  0
 29 31  1  0
 27 32  1  0
 32 33  1  0
 32 34  1  0
 32 35  1  0
 22 36  1  0
 36 37  2  0
  7  2  1  0
 17  8  2  0
 37 19  1  0
 16 10  1  0
 31 25  2  0
  1 38  1  0
  3 39  1  0
  4 40  1  0
  6 41  1  0
  7 42  1  0
 11 43  1  0
 13 44  1  0
 14 45  1  0
 15 46  1  0
 20 47  1  0
 21 48  1  0
 23 49  1  0
 24 50  1  0
 26 51  1  0
 28 52  1  0
 36 53  1  0
 37 54  1  0
M  END
$$$$
[H]Oc1c([H])c([H])c2c(c1[H])C([H])([H])C([H])([H])C([H])([H])C(c1c([H])c([H])c(F)c(OC([H])([H])[H])c1F)=C2c1c([H])c([H])c(O[C@]2([H])C([H])([H])N(C([H])([H])C([H])([H])C([H])([H])F)C([H])([H])C2([H])[H])c([H])c1[H]
     RDKit          3D

 70 74  0  0  0  0  0  0  0  0999 V2000
   -5.7850   -1.9709    4.6823 C   0  0  0  0  0  0  0  0  0  0  0  0
   -4.4964   -1.4331    4.4730 O   0  0  0  0  0  0  0  0  0  0  0  0
   -3.8522   -1.7122    3.2773 C   0  0  0  0  0  0  0  0  0  0  0  0
   -3.0618   -2.8298    3.2055 C   0  0  0  0  0  0  0  0  0  0  0  0
   -2.9186   -3.6431    4.3022 F   0  0  0  0  0  0  0  0  0  0  0  0
   -2.4235   -3.1099    2.0218 C   0  0  0  0  0  0  0  0  0  0  0  0
   -2.5726   -2.2803    0.9166 C   0  0  0  0  0  0  0  0  0  0  0  0
   -3.3540   -1.1657    0.9704 C   0  0  0  0  0  0  0  0  0  0  0  0
   -3.9839   -0.9049    2.1676 C   0  0  0  0  0  0  0  0  0  0  0  0
   -4.7635    0.1962    2.3480 F   0  0  0  0  0  0  0  0  0  0  0  0
   -3.5623   -0.2473   -0.1388 C   0  0  0  0  0  0  0  0  0  0  0  0
   -2.5011    0.3550   -0.6031 C   0  0  0  0  0  0  0  0  0  0  0  0
   -1.1901    0.1258   -0.0467 C   0  0  0  0  0  0  0  0  0  0  0  0
   -0.2453   -0.3427   -0.9828 C   0  0  0  0  0  0  0  0  0  0  0  0
    1.0452   -0.5697   -0.6269 C   0  0  0  0  0  0  0  0  0  0  0  0
    1.5178   -0.3547    0.6832 C   0  0  0  0  0  0  0  0  0  0  0  0
    2.7566   -0.5846    0.9823 O   0  0  0  0  0  0  0  0  0  0  0  0
    3.9632   -0.7798    1.3944 C   0  0  1  0  0  0  0  0  0  0  0  0
    4.5910   -2.1362    0.9963 C   0  0  0  0  0  0  0  0  0  0  0  0
    5.2440   -1.7748   -0.3133 C   0  0  0  0  0  0  0  0  0  0  0  0
    6.0196   -0.5829    0.1638 N   0  0  0  0  0  0  0  0  0  0  0  0
    6.6517    0.0164   -0.9701 C   0  0  0  0  0  0  0  0  0  0  0  0
    7.7060    0.9859   -0.6351 C   0  0  0  0  0  0  0  0  0  0  0  0
    7.3531    2.1802    0.1844 C   0  0  0  0  0  0  0  0  0  0  0  0
    6.3662    2.9688   -0.3433 F   0  0  0  0  0  0  0  0  0  0  0  0
    4.9404    0.2162    0.7342 C   0  0  0  0  0  0  0  0  0  0  0  0
    0.5357    0.1124    1.5728 C   0  0  0  0  0  0  0  0  0  0  0  0
   -0.7645    0.3419    1.2177 C   0  0  0  0  0  0  0  0  0  0  0  0
   -2.5036    1.3406   -1.7207 C   0  0  0  0  0  0  0  0  0  0  0  0
   -1.4455    2.1792   -1.6115 C   0  0  0  0  0  0  0  0  0  0  0  0
   -1.2644    3.1643   -2.5952 C   0  0  0  0  0  0  0  0  0  0  0  0
   -2.1360    3.2875   -3.6520 C   0  0  0  0  0  0  0  0  0  0  0  0
   -1.9964    4.2439   -4.6482 O   0  0  0  0  0  0  0  0  0  0  0  0
   -3.2151    2.3990   -3.7194 C   0  0  0  0  0  0  0  0  0  0  0  0
   -3.3940    1.4447   -2.7700 C   0  0  0  0  0  0  0  0  0  0  0  0
   -4.6337    0.6001   -2.9536 C   0  0  0  0  0  0  0  0  0  0  0  0
   -5.3515    0.7862   -1.5995 C   0  0  0  0  0  0  0  0  0  0  0  0
   -4.9936   -0.2331   -0.5966 C   0  0  0  0  0  0  0  0  0  0  0  0
   -6.4862   -1.2282    5.1017 H   0  0  0  0  0  0  0  0  0  0  0  0
   -6.2229   -2.4305    3.7970 H   0  0  0  0  0  0  0  0  0  0  0  0
   -5.6355   -2.8019    5.4251 H   0  0  0  0  0  0  0  0  0  0  0  0
   -1.8009   -3.9917    1.9707 H   0  0  0  0  0  0  0  0  0  0  0  0
   -2.0694   -2.5476   -0.0005 H   0  0  0  0  0  0  0  0  0  0  0  0
   -0.5244   -0.5379   -2.0225 H   0  0  0  0  0  0  0  0  0  0  0  0
    1.7608   -0.9316   -1.3550 H   0  0  0  0  0  0  0  0  0  0  0  0
    4.1706   -0.6349    2.5089 H   0  0  0  0  0  0  0  0  0  0  0  0
    5.3481   -2.3807    1.7330 H   0  0  0  0  0  0  0  0  0  0  0  0
    3.7956   -2.9014    0.8787 H   0  0  0  0  0  0  0  0  0  0  0  0
    4.4626   -1.4432   -1.0170 H   0  0  0  0  0  0  0  0  0  0  0  0
    5.9377   -2.5172   -0.6915 H   0  0  0  0  0  0  0  0  0  0  0  0
    7.0583   -0.8100   -1.6223 H   0  0  0  0  0  0  0  0  0  0  0  0
    5.9124    0.5341   -1.6382 H   0  0  0  0  0  0  0  0  0  0  0  0
    8.5756    0.4945   -0.0721 H   0  0  0  0  0  0  0  0  0  0  0  0
    8.2231    1.3021   -1.5914 H   0  0  0  0  0  0  0  0  0  0  0  0
    8.3120    2.8383    0.1208 H   0  0  0  0  0  0  0  0  0  0  0  0
    7.2282    1.9978    1.2635 H   0  0  0  0  0  0  0  0  0  0  0  0
    5.2779    0.9537    1.4646 H   0  0  0  0  0  0  0  0  0  0  0  0
    4.4286    0.7427   -0.0923 H   0  0  0  0  0  0  0  0  0  0  0  0
    0.9141    0.2731    2.5827 H   0  0  0  0  0  0  0  0  0  0  0  0
   -1.4583    0.7168    1.9415 H   0  0  0  0  0  0  0  0  0  0  0  0
   -0.7600    2.1254   -0.7848 H   0  0  0  0  0  0  0  0  0  0  0  0
   -0.4199    3.8305   -2.5043 H   0  0  0  0  0  0  0  0  0  0  0  0
   -2.4481    5.1402   -4.5114 H   0  0  0  0  0  0  0  0  0  0  0  0
   -3.9249    2.4750   -4.5497 H   0  0  0  0  0  0  0  0  0  0  0  0
   -4.2945   -0.4471   -2.9976 H   0  0  0  0  0  0  0  0  0  0  0  0
   -5.2275    0.9552   -3.7935 H   0  0  0  0  0  0  0  0  0  0  0  0
   -6.4342    0.6438   -1.8597 H   0  0  0  0  0  0  0  0  0  0  0  0
   -5.1577    1.7898   -1.1931 H   0  0  0  0  0  0  0  0  0  0  0  0
   -5.7075   -0.2186    0.2215 H   0  0  0  0  0  0  0  0  0  0  0  0
   -5.1157   -1.2792   -1.0495 H   0  0  0  0  0  0  0  0  0  0  0  0
  1  2  1  0
  2  3  1  0
  3  4  2  0
  4  5  1  0
  4  6  1  0
  6  7  2  0
  7  8  1  0
  8  9  2  0
  9 10  1  0
  8 11  1  0
 11 12  2  0
 12 13  1  0
 13 14  2  0
 14 15  1  0
 15 16  2  0
 16 17  1  0
 17 18  1  0
 18 19  1  0
 19 20  1  0
 20 21  1  0
 21 22  1  0
 22 23  1  0
 23 24  1  0
 24 25  1  0
 21 26  1  0
 16 27  1  0
 27 28  2  0
 12 29  1  0
 29 30  2  0
 30 31  1  0
 31 32  2  0
 32 33  1  0
 32 34  1  0
 34 35  2  0
 35 36  1  0
 36 37  1  0
 37 38  1  0
  9  3  1  0
 38 11  1  0
 28 13  1  0
 35 29  1  0
 26 18  1  0
  1 39  1  0
  1 40  1  0
  1 41  1  0
  6 42  1  0
  7 43  1  0
 14 44  1  0
 15 45  1  0
 18 46  1  1
 19 47  1  0
 19 48  1  0
 20 49  1  0
 20 50  1  0
 22 51  1  0
 22 52  1  0
 23 53  1  0
 23 54  1  0
 24 55  1  0
 24 56  1  0
 26 57  1  0
 26 58  1  0
 27 59  1  0
 28 60  1  0
 30 61  1  0
 31 62  1  0
 33 63  1  0
 34 64  1  0
 36 65  1  0
 36 66  1  0
 37 67  1  0
 37 68  1  0
 38 69  1  0
 38 70  1  0
M  END
$$$$
[H]Oc1c([H])c([H])c2c(Oc3c([H])c([H])c(/C([H])=C(\[H])C(=O)N([H])C([H])(C([H])([H])[H])C([H])([H])[H])c([H])c3[H])c(-c3c([H])c([H])c([H])c([H])c3[H])c(C([H])([H])C([H])([H])[H])nc2c1[H]
     RDKit          3D

 62 65  0  0  0  0  0  0  0  0999 V2000
   -6.4813   -1.4678    0.3914 C   0  0  0  0  0  0  0  0  0  0  0  0
   -5.3084   -1.7186   -0.5507 C   0  0  0  0  0  0  0  0  0  0  0  0
   -4.5259   -0.4697   -0.7082 C   0  0  0  0  0  0  0  0  0  0  0  0
   -4.7700    0.3081   -1.8190 N   0  0  0  0  0  0  0  0  0  0  0  0
   -4.0862    1.4467   -1.9489 C   0  0  0  0  0  0  0  0  0  0  0  0
   -4.3623    2.2206   -3.0902 C   0  0  0  0  0  0  0  0  0  0  0  0
   -3.7072    3.4020   -3.2968 C   0  0  0  0  0  0  0  0  0  0  0  0
   -3.9456    4.2128   -4.4202 O   0  0  0  0  0  0  0  0  0  0  0  0
   -2.7825    3.8247   -2.3859 C   0  0  0  0  0  0  0  0  0  0  0  0
   -2.4802    3.0880   -1.2447 C   0  0  0  0  0  0  0  0  0  0  0  0
   -3.1590    1.8879   -1.0528 C   0  0  0  0  0  0  0  0  0  0  0  0
   -2.8898    1.1121    0.0873 C   0  0  0  0  0  0  0  0  0  0  0  0
   -1.9667    1.5912    0.9443 O   0  0  0  0  0  0  0  0  0  0  0  0
   -0.5883    1.4247    0.8971 C   0  0  0  0  0  0  0  0  0  0  0  0
    0.2161    2.2459    1.6477 C   0  0  0  0  0  0  0  0  0  0  0  0
    1.5784    2.0773    1.5949 C   0  0  0  0  0  0  0  0  0  0  0  0
    2.1695    1.1102    0.8153 C   0  0  0  0  0  0  0  0  0  0  0  0
    3.6133    1.0168    0.7594 C   0  0  0  0  0  0  0  0  0  0  0  0
    4.2866    0.0571    0.1959 C   0  0  0  0  0  0  0  0  0  0  0  0
    5.7526    0.0124    0.1605 C   0  0  0  0  0  0  0  0  0  0  0  0
    6.4624    0.9305    0.6372 O   0  0  0  0  0  0  0  0  0  0  0  0
    6.4276   -1.0988   -0.4285 N   0  0  0  0  0  0  0  0  0  0  0  0
    7.8565   -1.1617   -0.5023 C   0  0  0  0  0  0  0  0  0  0  0  0
    8.4250   -1.8588    0.7292 C   0  0  0  0  0  0  0  0  0  0  0  0
    8.3514   -1.8698   -1.7269 C   0  0  0  0  0  0  0  0  0  0  0  0
    1.3536    0.2838    0.0618 C   0  0  0  0  0  0  0  0  0  0  0  0
   -0.0081    0.4601    0.1183 C   0  0  0  0  0  0  0  0  0  0  0  0
   -3.5878   -0.0503    0.2252 C   0  0  0  0  0  0  0  0  0  0  0  0
   -3.3545   -0.8978    1.3961 C   0  0  0  0  0  0  0  0  0  0  0  0
   -3.8864   -0.6472    2.6496 C   0  0  0  0  0  0  0  0  0  0  0  0
   -3.6480   -1.5209    3.6884 C   0  0  0  0  0  0  0  0  0  0  0  0
   -2.8803   -2.6690    3.5337 C   0  0  0  0  0  0  0  0  0  0  0  0
   -2.3468   -2.9147    2.2662 C   0  0  0  0  0  0  0  0  0  0  0  0
   -2.5934   -2.0337    1.2395 C   0  0  0  0  0  0  0  0  0  0  0  0
   -6.3682   -0.4681    0.8535 H   0  0  0  0  0  0  0  0  0  0  0  0
   -7.4427   -1.4205   -0.2052 H   0  0  0  0  0  0  0  0  0  0  0  0
   -6.5508   -2.2545    1.1691 H   0  0  0  0  0  0  0  0  0  0  0  0
   -4.7334   -2.5223   -0.0940 H   0  0  0  0  0  0  0  0  0  0  0  0
   -5.7029   -2.0758   -1.5320 H   0  0  0  0  0  0  0  0  0  0  0  0
   -5.0883    1.9029   -3.8195 H   0  0  0  0  0  0  0  0  0  0  0  0
   -4.6818    4.9226   -4.3111 H   0  0  0  0  0  0  0  0  0  0  0  0
   -2.2616    4.7478   -2.5455 H   0  0  0  0  0  0  0  0  0  0  0  0
   -1.7542    3.4129   -0.5156 H   0  0  0  0  0  0  0  0  0  0  0  0
   -0.2301    2.9980    2.2572 H   0  0  0  0  0  0  0  0  0  0  0  0
    2.2229    2.7429    2.2023 H   0  0  0  0  0  0  0  0  0  0  0  0
    4.2129    1.8131    1.2267 H   0  0  0  0  0  0  0  0  0  0  0  0
    3.7644   -0.7607   -0.2782 H   0  0  0  0  0  0  0  0  0  0  0  0
    5.8414   -1.8673   -0.8056 H   0  0  0  0  0  0  0  0  0  0  0  0
    8.2881   -0.1386   -0.4828 H   0  0  0  0  0  0  0  0  0  0  0  0
    7.6560   -2.4437    1.2435 H   0  0  0  0  0  0  0  0  0  0  0  0
    8.8582   -1.0585    1.3941 H   0  0  0  0  0  0  0  0  0  0  0  0
    9.2835   -2.5144    0.4639 H   0  0  0  0  0  0  0  0  0  0  0  0
    9.0410   -1.1994   -2.2988 H   0  0  0  0  0  0  0  0  0  0  0  0
    7.5032   -2.1219   -2.4256 H   0  0  0  0  0  0  0  0  0  0  0  0
    8.9413   -2.7923   -1.5136 H   0  0  0  0  0  0  0  0  0  0  0  0
    1.8205   -0.4751   -0.5507 H   0  0  0  0  0  0  0  0  0  0  0  0
   -0.6295   -0.2184   -0.5021 H   0  0  0  0  0  0  0  0  0  0  0  0
   -4.4817    0.2302    2.8020 H   0  0  0  0  0  0  0  0  0  0  0  0
   -4.0496   -1.3630    4.6963 H   0  0  0  0  0  0  0  0  0  0  0  0
   -2.6843   -3.3665    4.3285 H   0  0  0  0  0  0  0  0  0  0  0  0
   -1.7469   -3.8001    2.1207 H   0  0  0  0  0  0  0  0  0  0  0  0
   -2.1621   -2.2431    0.2379 H   0  0  0  0  0  0  0  0  0  0  0  0
  1  2  1  0
  2  3  1  0
  3  4  2  0
  4  5  1  0
  5  6  2  0
  6  7  1  0
  7  8  1  0
  7  9  2  0
  9 10  1  0
 10 11  2  0
 11 12  1  0
 12 13  1  0
 13 14  1  0
 14 15  2  0
 15 16  1  0
 16 17  2  0
 17 18  1  0
 18 19  2  0
 19 20  1  0
 20 21  2  0
 20 22  1  0
 22 23  1  0
 23 24  1  0
 23 25  1  0
 17 26  1  0
 26 27  2  0
 12 28  2  0
 28 29  1  0
 29 30  2  0
 30 31  1  0
 31 32  2  0
 32 33  1  0
 33 34  2  0
 28  3  1  0
 34 29  1  0
 11  5  1  0
 27 14  1  0
  1 35  1  0
  1 36  1  0
  1 37  1  0
  2 38  1  0
  2 39  1  0
  6 40  1  0
  8 41  1  0
  9 42  1  0
 10 43  1  0
 15 44  1  0
 16 45  1  0
 18 46  1  0
 19 47  1  0
 22 48  1  0
 23 49  1  0
 24 50  1  0
 24 51  1  0
 24 52  1  0
 25 53  1  0
 25 54  1  0
 25 55  1  0
 26 56  1  0
 27 57  1  0
 30 58  1  0
 31 59  1  0
 32 60  1  0
 33 61  1  0
 34 62  1  0
M  END
$$$$
[H]OC(=O)/C([H])=C(\[H])c1c([H])c([H])c(Oc2c(-c3c([H])c([H])c([H])c([H])c3OC(F)(F)F)sc3c([H])c(O[H])c([H])c([H])c23)c([H])c1[H]
     RDKit          3D

 48 51  0  0  0  0  0  0  0  0999 V2000
    8.1163   -2.1445   -0.6997 O   0  0  0  0  0  0  0  0  0  0  0  0
    7.0790   -1.8049    0.1403 C   0  0  0  0  0  0  0  0  0  0  0  0
    7.2019   -1.8850    1.3711 O   0  0  0  0  0  0  0  0  0  0  0  0
    5.8172   -1.3429   -0.4687 C   0  0  0  0  0  0  0  0  0  0  0  0
    4.8193   -1.0156    0.3168 C   0  0  0  0  0  0  0  0  0  0  0  0
    3.5325   -0.5486   -0.1678 C   0  0  0  0  0  0  0  0  0  0  0  0
    3.2417   -0.4065   -1.4937 C   0  0  0  0  0  0  0  0  0  0  0  0
    1.9948    0.0439   -1.8910 C   0  0  0  0  0  0  0  0  0  0  0  0
    1.0080    0.3638   -0.9848 C   0  0  0  0  0  0  0  0  0  0  0  0
   -0.2096    0.8077   -1.5077 O   0  0  0  0  0  0  0  0  0  0  0  0
   -1.2568    1.1482   -0.5796 C   0  0  0  0  0  0  0  0  0  0  0  0
   -2.2194    0.2621   -0.2953 C   0  0  0  0  0  0  0  0  0  0  0  0
   -3.1912    1.1393    0.8502 S   0  0  0  0  0  0  0  0  0  0  0  0
   -2.3133    2.5938    0.9002 C   0  0  0  0  0  0  0  0  0  0  0  0
   -2.4847    3.7990    1.6083 C   0  0  0  0  0  0  0  0  0  0  0  0
   -1.5947    4.8373    1.4486 C   0  0  0  0  0  0  0  0  0  0  0  0
   -1.7749    6.0124    2.1487 O   0  0  0  0  0  0  0  0  0  0  0  0
   -0.5665    4.6030    0.5731 C   0  0  0  0  0  0  0  0  0  0  0  0
   -0.3710    3.4405   -0.1322 C   0  0  0  0  0  0  0  0  0  0  0  0
   -1.2861    2.3692    0.0302 C   0  0  0  0  0  0  0  0  0  0  0  0
   -2.5292   -1.1049   -0.7143 C   0  0  0  0  0  0  0  0  0  0  0  0
   -1.9026   -1.7298   -1.7249 C   0  0  0  0  0  0  0  0  0  0  0  0
   -2.1712   -3.0499   -2.1043 C   0  0  0  0  0  0  0  0  0  0  0  0
   -3.1220   -3.7563   -1.4194 C   0  0  0  0  0  0  0  0  0  0  0  0
   -3.7852   -3.1323   -0.3709 C   0  0  0  0  0  0  0  0  0  0  0  0
   -3.5006   -1.8307   -0.0176 C   0  0  0  0  0  0  0  0  0  0  0  0
   -4.1666   -1.2165    1.0296 O   0  0  0  0  0  0  0  0  0  0  0  0
   -5.1556   -1.8340    1.8052 C   0  0  0  0  0  0  0  0  0  0  0  0
   -5.5856   -0.8987    2.7549 F   0  0  0  0  0  0  0  0  0  0  0  0
   -4.6710   -2.9306    2.5156 F   0  0  0  0  0  0  0  0  0  0  0  0
   -6.2596   -2.1480    1.0510 F   0  0  0  0  0  0  0  0  0  0  0  0
    1.2897    0.2250    0.3400 C   0  0  0  0  0  0  0  0  0  0  0  0
    2.5445   -0.2287    0.7539 C   0  0  0  0  0  0  0  0  0  0  0  0
    8.5287   -1.5216   -1.3902 H   0  0  0  0  0  0  0  0  0  0  0  0
    5.7254   -1.2784   -1.5449 H   0  0  0  0  0  0  0  0  0  0  0  0
    4.9876   -1.1070    1.3930 H   0  0  0  0  0  0  0  0  0  0  0  0
    3.9596   -0.6362   -2.2556 H   0  0  0  0  0  0  0  0  0  0  0  0
    1.8076    0.1411   -2.9391 H   0  0  0  0  0  0  0  0  0  0  0  0
   -3.3406    3.8285    2.2573 H   0  0  0  0  0  0  0  0  0  0  0  0
   -1.3832    6.1892    3.0614 H   0  0  0  0  0  0  0  0  0  0  0  0
    0.1494    5.4171    0.4345 H   0  0  0  0  0  0  0  0  0  0  0  0
    0.4818    3.3666   -0.8005 H   0  0  0  0  0  0  0  0  0  0  0  0
   -1.1669   -1.2157   -2.3103 H   0  0  0  0  0  0  0  0  0  0  0  0
   -1.6354   -3.5063   -2.9271 H   0  0  0  0  0  0  0  0  0  0  0  0
   -3.3698   -4.7788   -1.6691 H   0  0  0  0  0  0  0  0  0  0  0  0
   -4.5366   -3.6787    0.1750 H   0  0  0  0  0  0  0  0  0  0  0  0
    0.5110    0.4775    1.0520 H   0  0  0  0  0  0  0  0  0  0  0  0
    2.7538   -0.3340    1.8102 H   0  0  0  0  0  0  0  0  0  0  0  0
  1  2  1  0
  2  3  2  0
  2  4  1  0
  4  5  2  0
  5  6  1  0
  6  7  2  0
  7  8  1  0
  8  9  2  0
  9 10  1  0
 10 11  1  0
 11 12  2  0
 12 13  1  0
 13 14  1  0
 14 15  2  0
 15 16  1  0
 16 17  1  0
 16 18  2  0
 18 19  1  0
 19 20  2  0
 12 21  1  0
 21 22  2  0
 22 23  1  0
 23 24  2  0
 24 25  1  0
 25 26  2  0
 26 27  1  0
 27 28  1  0
 28 29  1  0
 28 30  1  0
 28 31  1  0
  9 32  1  0
 32 33  2  0
 33  6  1  0
 20 11  1  0
 26 21  1  0
 20 14  1  0
  1 34  1  0
  4 35  1  0
  5 36  1  0
  7 37  1  0
  8 38  1  0
 15 39  1  0
 17 40  1  0
 18 41  1  0
 19 42  1  0
 22 43  1  0
 23 44  1  0
 24 45  1  0
 25 46  1  0
 32 47  1  0
 33 48  1  0
M  END
$$$$
[H]OC(=O)/C([H])=C(\[H])c1c([H])c([H])c(/C(=C(\c2c([H])c([H])nc([H])c2C([H])([H])[H])C([H])([H])C([H])([H])[H])c2c([H])c([H])c3c(c([H])nn3[H])c2[H])c([H])c1[H]
     RDKit          3D

 54 57  0  0  0  0  0  0  0  0999 V2000
   -4.0980   -0.8814   -0.8105 C   0  0  0  0  0  0  0  0  0  0  0  0
   -3.1134    0.1625   -1.2152 C   0  0  0  0  0  0  0  0  0  0  0  0
   -1.6755   -0.2586   -0.9506 C   0  0  0  0  0  0  0  0  0  0  0  0
   -0.8623    0.3853   -0.1781 C   0  0  0  0  0  0  0  0  0  0  0  0
    0.5472    0.0484    0.1184 C   0  0  0  0  0  0  0  0  0  0  0  0
    1.0195    0.1412    1.4212 C   0  0  0  0  0  0  0  0  0  0  0  0
    2.3279   -0.1154    1.7378 C   0  0  0  0  0  0  0  0  0  0  0  0
    3.2450   -0.4823    0.7634 C   0  0  0  0  0  0  0  0  0  0  0  0
    4.6312   -0.7488    1.1232 C   0  0  0  0  0  0  0  0  0  0  0  0
    5.5811   -1.1096    0.2891 C   0  0  0  0  0  0  0  0  0  0  0  0
    6.9449   -1.3554    0.7405 C   0  0  0  0  0  0  0  0  0  0  0  0
    7.8930   -1.7304   -0.1884 O   0  0  0  0  0  0  0  0  0  0  0  0
    7.2903   -1.2387    1.9422 O   0  0  0  0  0  0  0  0  0  0  0  0
    2.7803   -0.5733   -0.5162 C   0  0  0  0  0  0  0  0  0  0  0  0
    1.4493   -0.3105   -0.8334 C   0  0  0  0  0  0  0  0  0  0  0  0
   -1.3991    1.5743    0.5531 C   0  0  0  0  0  0  0  0  0  0  0  0
   -2.4536    1.4788    1.4126 C   0  0  0  0  0  0  0  0  0  0  0  0
   -2.9345    2.6116    2.0548 C   0  0  0  0  0  0  0  0  0  0  0  0
   -2.3679    3.8521    1.8467 C   0  0  0  0  0  0  0  0  0  0  0  0
   -2.6435    5.0700    2.3364 N   0  0  0  0  0  0  0  0  0  0  0  0
   -1.7934    5.9405    1.8141 N   0  0  0  0  0  0  0  0  0  0  0  0
   -0.9564    5.2888    0.9776 C   0  0  0  0  0  0  0  0  0  0  0  0
   -1.3094    3.9457    0.9846 C   0  0  0  0  0  0  0  0  0  0  0  0
   -0.8305    2.8119    0.3436 C   0  0  0  0  0  0  0  0  0  0  0  0
   -1.3095   -1.5169   -1.6041 C   0  0  0  0  0  0  0  0  0  0  0  0
   -1.3053   -1.5731   -3.0078 C   0  0  0  0  0  0  0  0  0  0  0  0
   -1.0416   -2.7237   -3.7010 C   0  0  0  0  0  0  0  0  0  0  0  0
   -0.7801   -3.8259   -2.9767 N   0  0  0  0  0  0  0  0  0  0  0  0
   -0.7744   -3.8196   -1.6408 C   0  0  0  0  0  0  0  0  0  0  0  0
   -1.0396   -2.6674   -0.9328 C   0  0  0  0  0  0  0  0  0  0  0  0
   -1.0754   -2.8170    0.5452 C   0  0  0  0  0  0  0  0  0  0  0  0
   -4.0284   -1.0796    0.2727 H   0  0  0  0  0  0  0  0  0  0  0  0
   -5.0994   -0.5130   -1.0920 H   0  0  0  0  0  0  0  0  0  0  0  0
   -3.8966   -1.7906   -1.4176 H   0  0  0  0  0  0  0  0  0  0  0  0
   -3.1372    0.1454   -2.3644 H   0  0  0  0  0  0  0  0  0  0  0  0
   -3.3040    1.1806   -0.9424 H   0  0  0  0  0  0  0  0  0  0  0  0
    0.2902    0.4289    2.1719 H   0  0  0  0  0  0  0  0  0  0  0  0
    2.6773   -0.0369    2.7636 H   0  0  0  0  0  0  0  0  0  0  0  0
    4.9361   -0.6496    2.1594 H   0  0  0  0  0  0  0  0  0  0  0  0
    5.3407   -1.2242   -0.7432 H   0  0  0  0  0  0  0  0  0  0  0  0
    8.3162   -1.0533   -0.8223 H   0  0  0  0  0  0  0  0  0  0  0  0
    3.4706   -0.8607   -1.3163 H   0  0  0  0  0  0  0  0  0  0  0  0
    1.1633   -0.3853   -1.8687 H   0  0  0  0  0  0  0  0  0  0  0  0
   -2.9375    0.5534    1.6378 H   0  0  0  0  0  0  0  0  0  0  0  0
   -3.7621    2.5431    2.7312 H   0  0  0  0  0  0  0  0  0  0  0  0
   -3.3875    5.3350    3.0106 H   0  0  0  0  0  0  0  0  0  0  0  0
   -0.1546    5.7318    0.4042 H   0  0  0  0  0  0  0  0  0  0  0  0
    0.0097    2.9665   -0.3226 H   0  0  0  0  0  0  0  0  0  0  0  0
   -1.5173   -0.6804   -3.5743 H   0  0  0  0  0  0  0  0  0  0  0  0
   -1.0477   -2.7239   -4.7852 H   0  0  0  0  0  0  0  0  0  0  0  0
   -0.5556   -4.7500   -1.1305 H   0  0  0  0  0  0  0  0  0  0  0  0
   -0.0618   -2.9215    0.9610 H   0  0  0  0  0  0  0  0  0  0  0  0
   -1.6354   -3.7569    0.7551 H   0  0  0  0  0  0  0  0  0  0  0  0
   -1.6251   -2.0216    1.0629 H   0  0  0  0  0  0  0  0  0  0  0  0
  1  2  1  0
  2  3  1  0
  3  4  2  0
  4  5  1  0
  5  6  2  0
  6  7  1  0
  7  8  2  0
  8  9  1  0
  9 10  2  0
 10 11  1  0
 11 12  1  0
 11 13  2  0
  8 14  1  0
 14 15  2  0
  4 16  1  0
 16 17  2  0
 17 18  1  0
 18 19  2  0
 19 20  1  0
 20 21  1  0
 21 22  2  0
 22 23  1  0
 23 24  2  0
  3 25  1  0
 25 26  2  0
 26 27  1  0
 27 28  2  0
 28 29  1  0
 29 30  2  0
 30 31  1  0
 15  5  1  0
 24 16  1  0
 30 25  1  0
 23 19  1  0
  1 32  1  0
  1 33  1  0
  1 34  1  0
  2 35  1  0
  2 36  1  0
  6 37  1  0
  7 38  1  0
  9 39  1  0
 10 40  1  0
 12 41  1  0
 14 42  1  0
 15 43  1  0
 17 44  1  0
 18 45  1  0
 20 46  1  0
 22 47  1  0
 24 48  1  0
 26 49  1  0
 27 50  1  0
 29 51  1  0
 31 52  1  0
 31 53  1  0
 31 54  1  0
M  END
$$$$
[H]Oc1c([H])c([H])c(C2=C(c3c([H])c([H])c(OC([H])([H])C([H])([H])N4C([H])([H])C([H])([H])C([H])([H])C([H])([H])C4([H])[H])c([H])c3[H])c3c([H])c([H])c(O[H])c([H])c3C2([H])[H])c([H])c1[H]
     RDKit          3D

 61 65  0  0  0  0  0  0  0  0999 V2000
   -5.3323    5.5198   -0.8527 O   0  0  0  0  0  0  0  0  0  0  0  0
   -5.0518    4.1870   -0.5990 C   0  0  0  0  0  0  0  0  0  0  0  0
   -4.6369    3.8004    0.6533 C   0  0  0  0  0  0  0  0  0  0  0  0
   -4.3485    2.4571    0.9300 C   0  0  0  0  0  0  0  0  0  0  0  0
   -4.4575    1.4768   -0.0003 C   0  0  0  0  0  0  0  0  0  0  0  0
   -4.8852    1.8903   -1.2804 C   0  0  0  0  0  0  0  0  0  0  0  0
   -5.1687    3.2036   -1.5542 C   0  0  0  0  0  0  0  0  0  0  0  0
   -4.1431    0.0531    0.1800 C   0  0  0  0  0  0  0  0  0  0  0  0
   -3.0518   -0.5782    0.4969 C   0  0  0  0  0  0  0  0  0  0  0  0
   -3.2724   -2.0484    0.5471 C   0  0  0  0  0  0  0  0  0  0  0  0
   -2.4450   -3.1096    0.8289 C   0  0  0  0  0  0  0  0  0  0  0  0
   -2.9835   -4.3995    0.7865 C   0  0  0  0  0  0  0  0  0  0  0  0
   -4.3061   -4.6103    0.4722 C   0  0  0  0  0  0  0  0  0  0  0  0
   -4.8086   -5.9202    0.4407 O   0  0  0  0  0  0  0  0  0  0  0  0
   -5.1279   -3.5501    0.1920 C   0  0  0  0  0  0  0  0  0  0  0  0
   -4.5785   -2.2741    0.2379 C   0  0  0  0  0  0  0  0  0  0  0  0
   -5.2271   -0.9985   -0.0145 C   0  0  0  0  0  0  0  0  0  0  0  0
   -1.7312   -0.0662    0.7880 C   0  0  0  0  0  0  0  0  0  0  0  0
   -1.4106    0.7634    1.7993 C   0  0  0  0  0  0  0  0  0  0  0  0
   -0.1354    1.2434    2.0054 C   0  0  0  0  0  0  0  0  0  0  0  0
    0.9113    0.8726    1.1418 C   0  0  0  0  0  0  0  0  0  0  0  0
    2.1437    1.3804    1.3964 O   0  0  0  0  0  0  0  0  0  0  0  0
    3.3587    1.1986    0.7761 C   0  0  0  0  0  0  0  0  0  0  0  0
    3.9273   -0.2028    0.8246 C   0  0  0  0  0  0  0  0  0  0  0  0
    5.1687   -0.1981    0.1281 N   0  0  0  0  0  0  0  0  0  0  0  0
    5.1255    0.0058   -1.2701 C   0  0  0  0  0  0  0  0  0  0  0  0
    6.3093   -0.4996   -2.0208 C   0  0  0  0  0  0  0  0  0  0  0  0
    7.5339   -0.6085   -1.1521 C   0  0  0  0  0  0  0  0  0  0  0  0
    7.5424    0.3716   -0.0139 C   0  0  0  0  0  0  0  0  0  0  0  0
    6.2904    0.3099    0.8308 C   0  0  0  0  0  0  0  0  0  0  0  0
    0.5890    0.0241    0.1061 C   0  0  0  0  0  0  0  0  0  0  0  0
   -0.7026   -0.4451   -0.0803 C   0  0  0  0  0  0  0  0  0  0  0  0
   -5.6394    5.8084   -1.7764 H   0  0  0  0  0  0  0  0  0  0  0  0
   -4.5373    4.5542    1.4219 H   0  0  0  0  0  0  0  0  0  0  0  0
   -4.0620    2.2376    1.9286 H   0  0  0  0  0  0  0  0  0  0  0  0
   -4.9772    1.1104   -2.0345 H   0  0  0  0  0  0  0  0  0  0  0  0
   -5.4990    3.5246   -2.5384 H   0  0  0  0  0  0  0  0  0  0  0  0
   -1.4262   -2.9323    1.0707 H   0  0  0  0  0  0  0  0  0  0  0  0
   -2.2999   -5.2130    1.0151 H   0  0  0  0  0  0  0  0  0  0  0  0
   -4.7900   -6.4709   -0.4029 H   0  0  0  0  0  0  0  0  0  0  0  0
   -6.1588   -3.7385   -0.0509 H   0  0  0  0  0  0  0  0  0  0  0  0
   -5.5137   -0.9387   -1.0914 H   0  0  0  0  0  0  0  0  0  0  0  0
   -6.0815   -0.7863    0.6376 H   0  0  0  0  0  0  0  0  0  0  0  0
   -2.1448    1.0964    2.5553 H   0  0  0  0  0  0  0  0  0  0  0  0
    0.0921    1.9185    2.8393 H   0  0  0  0  0  0  0  0  0  0  0  0
    4.1183    1.8555    1.3079 H   0  0  0  0  0  0  0  0  0  0  0  0
    3.3657    1.6010   -0.2687 H   0  0  0  0  0  0  0  0  0  0  0  0
    3.2156   -0.9474    0.4899 H   0  0  0  0  0  0  0  0  0  0  0  0
    4.1017   -0.3901    1.9386 H   0  0  0  0  0  0  0  0  0  0  0  0
    4.2124   -0.4955   -1.6834 H   0  0  0  0  0  0  0  0  0  0  0  0
    5.0028    1.0878   -1.4790 H   0  0  0  0  0  0  0  0  0  0  0  0
    6.5422    0.2146   -2.8368 H   0  0  0  0  0  0  0  0  0  0  0  0
    6.1410   -1.4812   -2.5115 H   0  0  0  0  0  0  0  0  0  0  0  0
    7.6547   -1.6491   -0.7788 H   0  0  0  0  0  0  0  0  0  0  0  0
    8.4520   -0.3980   -1.7585 H   0  0  0  0  0  0  0  0  0  0  0  0
    8.3965    0.0865    0.6479 H   0  0  0  0  0  0  0  0  0  0  0  0
    7.7125    1.3997   -0.3660 H   0  0  0  0  0  0  0  0  0  0  0  0
    6.0733    1.3453    1.1672 H   0  0  0  0  0  0  0  0  0  0  0  0
    6.4892   -0.2534    1.7899 H   0  0  0  0  0  0  0  0  0  0  0  0
    1.3555   -0.2795   -0.6044 H   0  0  0  0  0  0  0  0  0  0  0  0
   -0.8909   -1.1155   -0.9198 H   0  0  0  0  0  0  0  0  0  0  0  0
  1  2  1  0
  2  3  2  0
  3  4  1  0
  4  5  2  0
  5  6  1  0
  6  7  2  0
  5  8  1  0
  8  9  2  0
  9 10  1  0
 10 11  2  0
 11 12  1  0
 12 13  2  0
 13 14  1  0
 13 15  1  0
 15 16  2  0
 16 17  1  0
  9 18  1  0
 18 19  2  0
 19 20  1  0
 20 21  2  0
 21 22  1  0
 22 23  1  0
 23 24  1  0
 24 25  1  0
 25 26  1  0
 26 27  1  0
 27 28  1  0
 28 29  1  0
 29 30  1  0
 21 31  1  0
 31 32  2  0
  7  2  1  0
 17  8  1  0
 32 18  1  0
 16 10  1  0
 30 25  1  0
  1 33  1  0
  3 34  1  0
  4 35  1  0
  6 36  1  0
  7 37  1  0
 11 38  1  0
 12 39  1  0
 14 40  1  0
 15 41  1  0
 17 42  1  0
 17 43  1  0
 19 44  1  0
 20 45  1  0
 23 46  1  0
 23 47  1  0
 24 48  1  0
 24 49  1  0
 26 50  1  0
 26 51  1  0
 27 52  1  0
 27 53  1  0
 28 54  1  0
 28 55  1  0
 29 56  1  0
 29 57  1  0
 30 58  1  0
 30 59  1  0
 31 60  1  0
 32 61  1  0
M  END
$$$$
[H]OC(=O)[C@@]([H])(C([H])([H])[H])C([H])([H])N1[C@]([H])(c2c(F)c([H])c([H])c(OC([H])([H])C([H])([H])N([H])C([H])([H])C([H])([H])C([H])([H])F)c2F)c2c(c3c([H])c([H])c([H])c([H])c3n2[H])C([H])([H])[C@@]1([H])C([H])([H])[H]
     RDKit          3D

 68 71  0  0  0  0  0  0  0  0999 V2000
   -1.6112    4.0872    1.3948 C   0  0  0  0  0  0  0  0  0  0  0  0
   -1.2333    2.8056    0.6092 C   0  0  1  0  0  0  0  0  0  0  0  0
   -2.5369    2.2253    0.1531 C   0  0  0  0  0  0  0  0  0  0  0  0
   -2.5013    1.0119   -0.5938 N   0  0  0  0  0  0  0  0  0  0  0  0
   -3.8100    0.5846   -1.0063 C   0  0  2  0  0  0  0  0  0  0  0  0
   -4.6308    1.6788   -1.6206 C   0  0  0  0  0  0  0  0  0  0  0  0
   -4.5445   -0.0534    0.1850 C   0  0  0  0  0  0  0  0  0  0  0  0
   -3.8051   -1.3130    0.3978 C   0  0  0  0  0  0  0  0  0  0  0  0
   -2.4525   -1.2826    0.3148 C   0  0  0  0  0  0  0  0  0  0  0  0
   -2.0186   -2.5413    0.5301 N   0  0  0  0  0  0  0  0  0  0  0  0
   -3.0726   -3.3462    0.7453 C   0  0  0  0  0  0  0  0  0  0  0  0
   -3.2178   -4.6966    1.0146 C   0  0  0  0  0  0  0  0  0  0  0  0
   -4.4509   -5.3035    1.2035 C   0  0  0  0  0  0  0  0  0  0  0  0
   -5.5989   -4.5371    1.1217 C   0  0  0  0  0  0  0  0  0  0  0  0
   -5.4639   -3.1965    0.8557 C   0  0  0  0  0  0  0  0  0  0  0  0
   -4.2220   -2.5903    0.6666 C   0  0  0  0  0  0  0  0  0  0  0  0
   -1.7592    0.0083    0.0480 C   0  0  1  0  0  0  0  0  0  0  0  0
   -0.4072   -0.2847   -0.5690 C   0  0  0  0  0  0  0  0  0  0  0  0
   -0.1783   -0.2912   -1.9170 C   0  0  0  0  0  0  0  0  0  0  0  0
   -1.1436    0.0116   -2.7844 F   0  0  0  0  0  0  0  0  0  0  0  0
    1.0786   -0.6029   -2.4345 C   0  0  0  0  0  0  0  0  0  0  0  0
    2.1253   -0.9113   -1.6165 C   0  0  0  0  0  0  0  0  0  0  0  0
    1.9323   -0.9157   -0.2169 C   0  0  0  0  0  0  0  0  0  0  0  0
    2.9285   -1.2124    0.5569 O   0  0  0  0  0  0  0  0  0  0  0  0
    3.9450   -1.5124    1.2773 C   0  0  0  0  0  0  0  0  0  0  0  0
    5.2298   -0.6903    1.2167 C   0  0  0  0  0  0  0  0  0  0  0  0
    5.7999   -0.6806   -0.1076 N   0  0  0  0  0  0  0  0  0  0  0  0
    7.0968   -0.1012   -0.1409 C   0  0  0  0  0  0  0  0  0  0  0  0
    7.1904    1.3654    0.1341 C   0  0  0  0  0  0  0  0  0  0  0  0
    6.4428    2.2314   -0.8248 C   0  0  0  0  0  0  0  0  0  0  0  0
    6.6298    3.5722   -0.4547 F   0  0  0  0  0  0  0  0  0  0  0  0
    0.6471   -0.5940    0.2398 C   0  0  0  0  0  0  0  0  0  0  0  0
    0.5059   -0.6061    1.5936 F   0  0  0  0  0  0  0  0  0  0  0  0
   -0.3614    3.2896   -0.4912 C   0  0  0  0  0  0  0  0  0  0  0  0
   -0.9245    4.0784   -1.5004 O   0  0  0  0  0  0  0  0  0  0  0  0
    0.8605    3.0532   -0.6012 O   0  0  0  0  0  0  0  0  0  0  0  0
   -1.1015    4.0633    2.3889 H   0  0  0  0  0  0  0  0  0  0  0  0
   -1.2894    4.9784    0.8369 H   0  0  0  0  0  0  0  0  0  0  0  0
   -2.7074    4.1347    1.5004 H   0  0  0  0  0  0  0  0  0  0  0  0
   -0.6448    2.1529    1.2714 H   0  0  0  0  0  0  0  0  0  0  0  0
   -3.0826    3.0470   -0.3831 H   0  0  0  0  0  0  0  0  0  0  0  0
   -3.1474    2.1185    1.1054 H   0  0  0  0  0  0  0  0  0  0  0  0
   -3.7084   -0.2259   -1.7447 H   0  0  0  0  0  0  0  0  0  0  0  0
   -5.3382    2.1661   -0.9232 H   0  0  0  0  0  0  0  0  0  0  0  0
   -5.2667    1.2227   -2.4097 H   0  0  0  0  0  0  0  0  0  0  0  0
   -3.9635    2.3986   -2.1132 H   0  0  0  0  0  0  0  0  0  0  0  0
   -4.4147    0.6187    1.0392 H   0  0  0  0  0  0  0  0  0  0  0  0
   -5.6102   -0.2244   -0.0749 H   0  0  0  0  0  0  0  0  0  0  0  0
   -1.0311   -2.8549    0.5312 H   0  0  0  0  0  0  0  0  0  0  0  0
   -2.3079   -5.2783    1.0749 H   0  0  0  0  0  0  0  0  0  0  0  0
   -4.5607   -6.3616    1.4155 H   0  0  0  0  0  0  0  0  0  0  0  0
   -6.5765   -5.0036    1.2704 H   0  0  0  0  0  0  0  0  0  0  0  0
   -6.3713   -2.6064    0.7958 H   0  0  0  0  0  0  0  0  0  0  0  0
   -1.4920    0.3649    1.1017 H   0  0  0  0  0  0  0  0  0  0  0  0
    1.2507   -0.6090   -3.5138 H   0  0  0  0  0  0  0  0  0  0  0  0
    3.1142   -1.1579   -1.9973 H   0  0  0  0  0  0  0  0  0  0  0  0
    3.7211   -1.5287    2.4075 H   0  0  0  0  0  0  0  0  0  0  0  0
    4.2998   -2.5839    1.1173 H   0  0  0  0  0  0  0  0  0  0  0  0
    5.0577    0.3338    1.5973 H   0  0  0  0  0  0  0  0  0  0  0  0
    5.9660   -1.2260    1.8711 H   0  0  0  0  0  0  0  0  0  0  0  0
    5.8518   -1.6625   -0.4502 H   0  0  0  0  0  0  0  0  0  0  0  0
    7.8102   -0.6213    0.5433 H   0  0  0  0  0  0  0  0  0  0  0  0
    7.5087   -0.2456   -1.1847 H   0  0  0  0  0  0  0  0  0  0  0  0
    6.9390    1.5936    1.1948 H   0  0  0  0  0  0  0  0  0  0  0  0
    8.2875    1.6286    0.0355 H   0  0  0  0  0  0  0  0  0  0  0  0
    5.3647    2.0356   -0.8471 H   0  0  0  0  0  0  0  0  0  0  0  0
    6.8317    2.1394   -1.8450 H   0  0  0  0  0  0  0  0  0  0  0  0
   -1.8569    4.4532   -1.3510 H   0  0  0  0  0  0  0  0  0  0  0  0
  1  2  1  0
  2  3  1  0
  3  4  1  0
  4  5  1  0
  5  6  1  0
  5  7  1  0
  7  8  1  0
  8  9  2  0
  9 10  1  0
 10 11  1  0
 11 12  2  0
 12 13  1  0
 13 14  2  0
 14 15  1  0
 15 16  2  0
  9 17  1  0
 17 18  1  0
 18 19  2  0
 19 20  1  0
 19 21  1  0
 21 22  2  0
 22 23  1  0
 23 24  1  0
 24 25  1  0
 25 26  1  0
 26 27  1  0
 27 28  1  0
 28 29  1  0
 29 30  1  0
 30 31  1  0
 23 32  2  0
 32 33  1  0
  2 34  1  0
 34 35  1  0
 34 36  2  0
 17  4  1  0
 32 18  1  0
 16  8  1  0
 16 11  1  0
  1 37  1  0
  1 38  1  0
  1 39  1  0
  2 40  1  1
  3 41  1  0
  3 42  1  0
  5 43  1  6
  6 44  1  0
  6 45  1  0
  6 46  1  0
  7 47  1  0
  7 48  1  0
 10 49  1  0
 12 50  1  0
 13 51  1  0
 14 52  1  0
 15 53  1  0
 17 54  1  1
 21 55  1  0
 22 56  1  0
 25 57  1  0
 25 58  1  0
 26 59  1  0
 26 60  1  0
 27 61  1  0
 28 62  1  0
 28 63  1  0
 29 64  1  0
 29 65  1  0
 30 66  1  0
 30 67  1  0
 35 68  1  0
M  END
$$$$
[H]c1c(OC([H])([H])C([H])([H])N([H])C([H])([H])C([H])([H])C([H])([H])F)nc(OC([H])([H])[H])c([C@]2([H])c3c(c4c([H])c([H])c([H])c([H])c4n3[H])C([H])([H])[C@@]([H])(C([H])([H])[H])N2C([H])([H])C(F)(F)C([H])([H])[H])c1[H]
     RDKit          3D

 68 71  0  0  0  0  0  0  0  0999 V2000
   -0.7025    3.2073    2.9162 C   0  0  0  0  0  0  0  0  0  0  0  0
   -1.1548    2.1535    2.0972 O   0  0  0  0  0  0  0  0  0  0  0  0
   -0.3639    1.3494    1.3131 C   0  0  0  0  0  0  0  0  0  0  0  0
    0.9592    1.5425    1.2915 N   0  0  0  0  0  0  0  0  0  0  0  0
    1.8377    0.8256    0.5668 C   0  0  0  0  0  0  0  0  0  0  0  0
    3.1966    1.0375    0.5565 O   0  0  0  0  0  0  0  0  0  0  0  0
    3.9414    1.9838    1.2374 C   0  0  0  0  0  0  0  0  0  0  0  0
    5.4376    1.8358    0.9516 C   0  0  0  0  0  0  0  0  0  0  0  0
    5.9068    0.5462    1.3717 N   0  0  0  0  0  0  0  0  0  0  0  0
    7.2679    0.2523    1.0887 C   0  0  0  0  0  0  0  0  0  0  0  0
    7.5083    0.0589   -0.4092 C   0  0  0  0  0  0  0  0  0  0  0  0
    8.9757   -0.2438   -0.5887 C   0  0  0  0  0  0  0  0  0  0  0  0
    9.2398   -1.4009    0.1390 F   0  0  0  0  0  0  0  0  0  0  0  0
    1.2875   -0.1977   -0.2159 C   0  0  0  0  0  0  0  0  0  0  0  0
   -0.0595   -0.4179   -0.2134 C   0  0  0  0  0  0  0  0  0  0  0  0
   -0.9157    0.3508    0.5525 C   0  0  0  0  0  0  0  0  0  0  0  0
   -2.3482    0.0557    0.5583 C   0  0  1  0  0  0  0  0  0  0  0  0
   -3.1553    0.9493   -0.2305 N   0  0  0  0  0  0  0  0  0  0  0  0
   -2.4965    1.5259   -1.3235 C   0  0  0  0  0  0  0  0  0  0  0  0
   -3.1693    2.5652   -2.1326 C   0  0  0  0  0  0  0  0  0  0  0  0
   -2.2245    3.0678   -3.2597 C   0  0  0  0  0  0  0  0  0  0  0  0
   -3.4903    3.7015   -1.4136 F   0  0  0  0  0  0  0  0  0  0  0  0
   -4.2569    2.0898   -2.8496 F   0  0  0  0  0  0  0  0  0  0  0  0
   -4.4742    0.4809   -0.4248 C   0  0  2  0  0  0  0  0  0  0  0  0
   -5.1539    0.1425    0.9081 C   0  0  0  0  0  0  0  0  0  0  0  0
   -4.5504   -0.7863   -1.2519 C   0  0  0  0  0  0  0  0  0  0  0  0
   -3.6920   -1.7783   -0.5013 C   0  0  0  0  0  0  0  0  0  0  0  0
   -2.6749   -1.3772    0.3337 C   0  0  0  0  0  0  0  0  0  0  0  0
   -2.0960   -2.4873    0.8448 N   0  0  0  0  0  0  0  0  0  0  0  0
   -2.7055   -3.6026    0.3685 C   0  0  0  0  0  0  0  0  0  0  0  0
   -2.5262   -4.9548    0.5510 C   0  0  0  0  0  0  0  0  0  0  0  0
   -3.3135   -5.8897   -0.0804 C   0  0  0  0  0  0  0  0  0  0  0  0
   -4.3014   -5.4070   -0.9126 C   0  0  0  0  0  0  0  0  0  0  0  0
   -4.5164   -4.0639   -1.1250 C   0  0  0  0  0  0  0  0  0  0  0  0
   -3.6959   -3.1508   -0.4671 C   0  0  0  0  0  0  0  0  0  0  0  0
   -0.8470    4.1769    2.3918 H   0  0  0  0  0  0  0  0  0  0  0  0
    0.3964    3.0665    3.0692 H   0  0  0  0  0  0  0  0  0  0  0  0
   -1.2241    3.1609    3.8948 H   0  0  0  0  0  0  0  0  0  0  0  0
    3.8360    1.9098    2.3396 H   0  0  0  0  0  0  0  0  0  0  0  0
    3.6133    3.0155    0.9805 H   0  0  0  0  0  0  0  0  0  0  0  0
    5.9748    2.6078    1.5516 H   0  0  0  0  0  0  0  0  0  0  0  0
    5.6648    2.0421   -0.1118 H   0  0  0  0  0  0  0  0  0  0  0  0
    5.2227   -0.1752    1.0757 H   0  0  0  0  0  0  0  0  0  0  0  0
    7.5528   -0.6676    1.6322 H   0  0  0  0  0  0  0  0  0  0  0  0
    7.8728    1.1326    1.4047 H   0  0  0  0  0  0  0  0  0  0  0  0
    7.2034    0.9242   -0.9976 H   0  0  0  0  0  0  0  0  0  0  0  0
    6.9333   -0.8222   -0.7793 H   0  0  0  0  0  0  0  0  0  0  0  0
    9.1774   -0.4687   -1.6716 H   0  0  0  0  0  0  0  0  0  0  0  0
    9.5582    0.6015   -0.2048 H   0  0  0  0  0  0  0  0  0  0  0  0
    1.9449   -0.8019   -0.8135 H   0  0  0  0  0  0  0  0  0  0  0  0
   -0.4130   -1.2274   -0.8431 H   0  0  0  0  0  0  0  0  0  0  0  0
   -2.6850    0.2459    1.6311 H   0  0  0  0  0  0  0  0  0  0  0  0
   -1.4780    1.9350   -1.0622 H   0  0  0  0  0  0  0  0  0  0  0  0
   -2.2239    0.6624   -2.0248 H   0  0  0  0  0  0  0  0  0  0  0  0
   -2.1609    2.3389   -4.0698 H   0  0  0  0  0  0  0  0  0  0  0  0
   -2.7248    4.0005   -3.6232 H   0  0  0  0  0  0  0  0  0  0  0  0
   -1.2487    3.3753   -2.8442 H   0  0  0  0  0  0  0  0  0  0  0  0
   -5.1067    1.2374   -0.8853 H   0  0  0  0  0  0  0  0  0  0  0  0
   -6.1916    0.5065    0.8409 H   0  0  0  0  0  0  0  0  0  0  0  0
   -4.6731    0.6174    1.7599 H   0  0  0  0  0  0  0  0  0  0  0  0
   -5.2246   -0.9540    1.0654 H   0  0  0  0  0  0  0  0  0  0  0  0
   -5.6202   -1.0955   -1.2613 H   0  0  0  0  0  0  0  0  0  0  0  0
   -4.2203   -0.6827   -2.2812 H   0  0  0  0  0  0  0  0  0  0  0  0
   -1.2963   -2.5226    1.5108 H   0  0  0  0  0  0  0  0  0  0  0  0
   -1.7471   -5.3124    1.2057 H   0  0  0  0  0  0  0  0  0  0  0  0
   -3.1560   -6.9695    0.0743 H   0  0  0  0  0  0  0  0  0  0  0  0
   -4.9393   -6.1409   -1.4243 H   0  0  0  0  0  0  0  0  0  0  0  0
   -5.2912   -3.6804   -1.7772 H   0  0  0  0  0  0  0  0  0  0  0  0
  1  2  1  0
  2  3  1  0
  3  4  2  0
  4  5  1  0
  5  6  1  0
  6  7  1  0
  7  8  1  0
  8  9  1  0
  9 10  1  0
 10 11  1  0
 11 12  1  0
 12 13  1  0
  5 14  2  0
 14 15  1  0
 15 16  2  0
 16 17  1  0
 17 18  1  0
 18 19  1  0
 19 20  1  0
 20 21  1  0
 20 22  1  0
 20 23  1  0
 18 24  1  0
 24 25  1  0
 24 26  1  0
 26 27  1  0
 27 28  2  0
 28 29  1  0
 29 30  1  0
 30 31  2  0
 31 32  1  0
 32 33  2  0
 33 34  1  0
 34 35  2  0
 16  3  1  0
 28 17  1  0
 35 30  1  0
 35 27  1  0
  1 36  1  0
  1 37  1  0
  1 38  1  0
  7 39  1  0
  7 40  1  0
  8 41  1  0
  8 42  1  0
  9 43  1  0
 10 44  1  0
 10 45  1  0
 11 46  1  0
 11 47  1  0
 12 48  1  0
 12 49  1  0
 14 50  1  0
 15 51  1  0
 17 52  1  1
 19 53  1  0
 19 54  1  0
 21 55  1  0
 21 56  1  0
 21 57  1  0
 24 58  1  6
 25 59  1  0
 25 60  1  0
 25 61  1  0
 26 62  1  0
 26 63  1  0
 29 64  1  0
 31 65  1  0
 32 66  1  0
 33 67  1  0
 34 68  1  0
M  END
$$$$
[H]Oc1c([H])c([H])c2c(c1[H])C([H])([H])C([H])([H])N(c1c([H])c([H])c([H])c(Cl)c1[H])C2(c1c([H])c([H])c(OC([H])([H])C([H])([H])N2C([H])([H])C([H])([H])C([H])([H])C2([H])[H])c([H])c1[H])C([H])([H])[H]
     RDKit          3D

 64 68  0  0  0  0  0  0  0  0999 V2000
   -2.9379   -0.2001    2.1198 C   0  0  0  0  0  0  0  0  0  0  0  0
   -2.5483    0.1052    0.7116 C   0  0  0  0  0  0  0  0  0  0  0  0
   -2.8382   -0.9399   -0.2474 N   0  0  0  0  0  0  0  0  0  0  0  0
   -2.1850   -0.7523   -1.5589 C   0  0  0  0  0  0  0  0  0  0  0  0
   -2.7287    0.5031   -2.2134 C   0  0  0  0  0  0  0  0  0  0  0  0
   -3.1445    1.5023   -1.1983 C   0  0  0  0  0  0  0  0  0  0  0  0
   -3.6548    2.6937   -1.7324 C   0  0  0  0  0  0  0  0  0  0  0  0
   -4.0868    3.7264   -0.9396 C   0  0  0  0  0  0  0  0  0  0  0  0
   -4.5956    4.9149   -1.4434 O   0  0  0  0  0  0  0  0  0  0  0  0
   -4.0119    3.5761    0.4284 C   0  0  0  0  0  0  0  0  0  0  0  0
   -3.5116    2.4073    0.9481 C   0  0  0  0  0  0  0  0  0  0  0  0
   -3.0666    1.3434    0.1626 C   0  0  0  0  0  0  0  0  0  0  0  0
   -3.6678   -2.0449   -0.0868 C   0  0  0  0  0  0  0  0  0  0  0  0
   -4.8540   -1.9536    0.5902 C   0  0  0  0  0  0  0  0  0  0  0  0
   -5.6884   -3.0603    0.7714 C   0  0  0  0  0  0  0  0  0  0  0  0
   -5.2976   -4.2687    0.2514 C   0  0  0  0  0  0  0  0  0  0  0  0
   -4.1094   -4.3954   -0.4363 C   0  0  0  0  0  0  0  0  0  0  0  0
   -3.6932   -5.9726   -1.0619 Cl  0  0  0  0  0  0  0  0  0  0  0  0
   -3.3122   -3.2876   -0.5966 C   0  0  0  0  0  0  0  0  0  0  0  0
   -1.0458    0.1930    0.7568 C   0  0  0  0  0  0  0  0  0  0  0  0
   -0.3299    1.3262    0.5800 C   0  0  0  0  0  0  0  0  0  0  0  0
    1.0520    1.2556    0.6785 C   0  0  0  0  0  0  0  0  0  0  0  0
    1.7271    0.0995    0.9455 C   0  0  0  0  0  0  0  0  0  0  0  0
    3.0909   -0.0395    1.0582 O   0  0  0  0  0  0  0  0  0  0  0  0
    3.9299    1.0968    0.8948 C   0  0  0  0  0  0  0  0  0  0  0  0
    5.3709    0.7242    1.0599 C   0  0  0  0  0  0  0  0  0  0  0  0
    5.7128   -0.2675    0.0386 N   0  0  0  0  0  0  0  0  0  0  0  0
    7.0434   -0.7911    0.2876 C   0  0  0  0  0  0  0  0  0  0  0  0
    7.7520   -0.7913   -1.0434 C   0  0  0  0  0  0  0  0  0  0  0  0
    7.0864    0.3789   -1.7380 C   0  0  0  0  0  0  0  0  0  0  0  0
    5.6651    0.2745   -1.2781 C   0  0  0  0  0  0  0  0  0  0  0  0
    0.9681   -1.0615    1.1248 C   0  0  0  0  0  0  0  0  0  0  0  0
   -0.4059   -1.0168    1.0319 C   0  0  0  0  0  0  0  0  0  0  0  0
   -3.8786    0.1881    2.4800 H   0  0  0  0  0  0  0  0  0  0  0  0
   -2.9209   -1.2979    2.2510 H   0  0  0  0  0  0  0  0  0  0  0  0
   -2.1451    0.1531    2.8579 H   0  0  0  0  0  0  0  0  0  0  0  0
   -1.1142   -0.5631   -1.4015 H   0  0  0  0  0  0  0  0  0  0  0  0
   -2.3012   -1.6482   -2.1579 H   0  0  0  0  0  0  0  0  0  0  0  0
   -3.6399    0.1899   -2.7603 H   0  0  0  0  0  0  0  0  0  0  0  0
   -2.0256    0.9437   -2.9387 H   0  0  0  0  0  0  0  0  0  0  0  0
   -3.7311    2.8513   -2.8127 H   0  0  0  0  0  0  0  0  0  0  0  0
   -4.0507    5.7353   -1.6610 H   0  0  0  0  0  0  0  0  0  0  0  0
   -4.3444    4.3708    1.1059 H   0  0  0  0  0  0  0  0  0  0  0  0
   -3.4642    2.3151    2.0263 H   0  0  0  0  0  0  0  0  0  0  0  0
   -5.2151   -1.0381    1.0077 H   0  0  0  0  0  0  0  0  0  0  0  0
   -6.6146   -2.9395    1.3132 H   0  0  0  0  0  0  0  0  0  0  0  0
   -5.9626   -5.1287    0.4014 H   0  0  0  0  0  0  0  0  0  0  0  0
   -2.3820   -3.3977   -1.1345 H   0  0  0  0  0  0  0  0  0  0  0  0
   -0.8422    2.2675    0.3666 H   0  0  0  0  0  0  0  0  0  0  0  0
    1.6538    2.1534    0.5397 H   0  0  0  0  0  0  0  0  0  0  0  0
    3.6576    1.5458   -0.0679 H   0  0  0  0  0  0  0  0  0  0  0  0
    3.6999    1.8698    1.6649 H   0  0  0  0  0  0  0  0  0  0  0  0
    5.5796    0.3243    2.0769 H   0  0  0  0  0  0  0  0  0  0  0  0
    6.0124    1.5993    0.8865 H   0  0  0  0  0  0  0  0  0  0  0  0
    6.8795   -1.8651    0.5971 H   0  0  0  0  0  0  0  0  0  0  0  0
    7.5685   -0.2188    1.0597 H   0  0  0  0  0  0  0  0  0  0  0  0
    8.8239   -0.5521   -0.9564 H   0  0  0  0  0  0  0  0  0  0  0  0
    7.5899   -1.7299   -1.5739 H   0  0  0  0  0  0  0  0  0  0  0  0
    7.2179    0.3263   -2.8388 H   0  0  0  0  0  0  0  0  0  0  0  0
    7.5121    1.3264   -1.3416 H   0  0  0  0  0  0  0  0  0  0  0  0
    5.1850    1.2904   -1.2608 H   0  0  0  0  0  0  0  0  0  0  0  0
    5.0781   -0.4078   -1.9469 H   0  0  0  0  0  0  0  0  0  0  0  0
    1.4638   -1.9984    1.3381 H   0  0  0  0  0  0  0  0  0  0  0  0
   -0.9743   -1.9429    1.1784 H   0  0  0  0  0  0  0  0  0  0  0  0
  1  2  1  0
  2  3  1  0
  3  4  1  0
  4  5  1  0
  5  6  1  0
  6  7  2  0
  7  8  1  0
  8  9  1  0
  8 10  2  0
 10 11  1  0
 11 12  2  0
  3 13  1  0
 13 14  2  0
 14 15  1  0
 15 16  2  0
 16 17  1  0
 17 18  1  0
 17 19  2  0
  2 20  1  0
 20 21  2  0
 21 22  1  0
 22 23  2  0
 23 24  1  0
 24 25  1  0
 25 26  1  0
 26 27  1  0
 27 28  1  0
 28 29  1  0
 29 30  1  0
 30 31  1  0
 23 32  1  0
 32 33  2  0
 12  2  1  0
 19 13  1  0
 33 20  1  0
 12  6  1  0
 31 27  1  0
  1 34  1  0
  1 35  1  0
  1 36  1  0
  4 37  1  0
  4 38  1  0
  5 39  1  0
  5 40  1  0
  7 41  1  0
  9 42  1  0
 10 43  1  0
 11 44  1  0
 14 45  1  0
 15 46  1  0
 16 47  1  0
 19 48  1  0
 21 49  1  0
 22 50  1  0
 25 51  1  0
 25 52  1  0
 26 53  1  0
 26 54  1  0
 28 55  1  0
 28 56  1  0
 29 57  1  0
 29 58  1  0
 30 59  1  0
 30 60  1  0
 31 61  1  0
 31 62  1  0
 32 63  1  0
 33 64  1  0
M  END
$$$$
[H]Oc1c([H])c([H])c(C([H])([H])C([H])([H])[C@]([H])(N([H])C(=O)C([H])([H])c2c(-c3c([H])c([H])c([H])c([H])c3[H])n(C([H])([H])c3c([H])c([H])c(OC([H])([H])C([H])([H])N4C([H])([H])C([H])([H])C([H])([H])C([H])([H])C4([H])[H])c([H])c3[H])c3c([H])c([H])c([H])c([H])c23)C([H])([H])[H])c([H])c1[H]
     RDKit          3D

 91 96  0  0  0  0  0  0  0  0999 V2000
    6.8051   -1.2989    1.6423 C   0  0  0  0  0  0  0  0  0  0  0  0
    6.5733   -0.8141    0.2151 C   0  0  2  0  0  0  0  0  0  0  0  0
    7.5643    0.2273   -0.1858 C   0  0  0  0  0  0  0  0  0  0  0  0
    7.5004    1.4423    0.7186 C   0  0  0  0  0  0  0  0  0  0  0  0
    8.5043    2.4437    0.2819 C   0  0  0  0  0  0  0  0  0  0  0  0
    8.1665    3.4042   -0.6261 C   0  0  0  0  0  0  0  0  0  0  0  0
    9.0647    4.3689   -1.0737 C   0  0  0  0  0  0  0  0  0  0  0  0
   10.3458    4.3397   -0.5688 C   0  0  0  0  0  0  0  0  0  0  0  0
   11.2820    5.2785   -0.9802 O   0  0  0  0  0  0  0  0  0  0  0  0
   10.6939    3.3672    0.3527 C   0  0  0  0  0  0  0  0  0  0  0  0
    9.7950    2.4090    0.7943 C   0  0  0  0  0  0  0  0  0  0  0  0
    5.2276   -0.4066   -0.0346 N   0  0  0  0  0  0  0  0  0  0  0  0
    4.3053   -1.1691   -0.8707 C   0  0  0  0  0  0  0  0  0  0  0  0
    4.8298   -2.1974   -1.3302 O   0  0  0  0  0  0  0  0  0  0  0  0
    2.9642   -0.7516   -1.1093 C   0  0  0  0  0  0  0  0  0  0  0  0
    1.7702   -1.1334   -0.3970 C   0  0  0  0  0  0  0  0  0  0  0  0
    0.8696   -2.1368   -0.4848 C   0  0  0  0  0  0  0  0  0  0  0  0
    0.9555   -3.4292   -1.1951 C   0  0  0  0  0  0  0  0  0  0  0  0
    2.1066   -4.1872   -1.2189 C   0  0  0  0  0  0  0  0  0  0  0  0
    2.3009   -5.3361   -1.9338 C   0  0  0  0  0  0  0  0  0  0  0  0
    1.2621   -5.7980   -2.7065 C   0  0  0  0  0  0  0  0  0  0  0  0
    0.0958   -5.0819   -2.7151 C   0  0  0  0  0  0  0  0  0  0  0  0
   -0.0670   -3.9285   -1.9855 C   0  0  0  0  0  0  0  0  0  0  0  0
   -0.1340   -1.9164    0.4235 N   0  0  0  0  0  0  0  0  0  0  0  0
   -1.3552   -2.6437    0.6184 C   0  0  0  0  0  0  0  0  0  0  0  0
   -2.5788   -1.9759    0.1289 C   0  0  0  0  0  0  0  0  0  0  0  0
   -2.6379   -1.2586   -1.0282 C   0  0  0  0  0  0  0  0  0  0  0  0
   -3.7747   -0.6676   -1.5030 C   0  0  0  0  0  0  0  0  0  0  0  0
   -4.9981   -0.7723   -0.7914 C   0  0  0  0  0  0  0  0  0  0  0  0
   -6.0982   -0.1825   -1.2918 O   0  0  0  0  0  0  0  0  0  0  0  0
   -7.4083   -0.0364   -0.9266 C   0  0  0  0  0  0  0  0  0  0  0  0
   -7.6502    0.7246    0.3064 C   0  0  0  0  0  0  0  0  0  0  0  0
   -8.9988    0.8835    0.7114 N   0  0  0  0  0  0  0  0  0  0  0  0
   -9.1930    1.6498    1.9008 C   0  0  0  0  0  0  0  0  0  0  0  0
   -9.2778    3.1166    1.5008 C   0  0  0  0  0  0  0  0  0  0  0  0
  -10.5149    3.2518    0.6261 C   0  0  0  0  0  0  0  0  0  0  0  0
  -10.4297    2.3789   -0.6080 C   0  0  0  0  0  0  0  0  0  0  0  0
  -10.0161    0.9662   -0.2489 C   0  0  0  0  0  0  0  0  0  0  0  0
   -4.9363   -1.4952    0.3763 C   0  0  0  0  0  0  0  0  0  0  0  0
   -3.7876   -2.0877    0.8490 C   0  0  0  0  0  0  0  0  0  0  0  0
    0.1307   -0.7591    1.1125 C   0  0  0  0  0  0  0  0  0  0  0  0
   -0.5912   -0.1285    2.1391 C   0  0  0  0  0  0  0  0  0  0  0  0
   -0.1004    1.0427    2.6734 C   0  0  0  0  0  0  0  0  0  0  0  0
    1.0764    1.5527    2.1841 C   0  0  0  0  0  0  0  0  0  0  0  0
    1.7810    0.9196    1.1683 C   0  0  0  0  0  0  0  0  0  0  0  0
    1.2898   -0.2522    0.6346 C   0  0  0  0  0  0  0  0  0  0  0  0
    6.7543   -0.4966    2.3758 H   0  0  0  0  0  0  0  0  0  0  0  0
    7.7817   -1.8458    1.6253 H   0  0  0  0  0  0  0  0  0  0  0  0
    6.0044   -2.0211    1.8906 H   0  0  0  0  0  0  0  0  0  0  0  0
    6.7705   -1.7302   -0.4144 H   0  0  0  0  0  0  0  0  0  0  0  0
    7.3912    0.5322   -1.2335 H   0  0  0  0  0  0  0  0  0  0  0  0
    8.5900   -0.2163   -0.0293 H   0  0  0  0  0  0  0  0  0  0  0  0
    7.8042    1.1287    1.7407 H   0  0  0  0  0  0  0  0  0  0  0  0
    6.5076    1.9385    0.6953 H   0  0  0  0  0  0  0  0  0  0  0  0
    7.1662    3.4524   -1.0391 H   0  0  0  0  0  0  0  0  0  0  0  0
    8.7284    5.1052   -1.7990 H   0  0  0  0  0  0  0  0  0  0  0  0
   11.8816    5.0908   -1.7965 H   0  0  0  0  0  0  0  0  0  0  0  0
   11.7081    3.3385    0.7545 H   0  0  0  0  0  0  0  0  0  0  0  0
   10.0966    1.6652    1.5115 H   0  0  0  0  0  0  0  0  0  0  0  0
    4.8560    0.4582    0.3754 H   0  0  0  0  0  0  0  0  0  0  0  0
    2.7804   -1.0268   -2.2426 H   0  0  0  0  0  0  0  0  0  0  0  0
    2.9686    0.3972   -1.2501 H   0  0  0  0  0  0  0  0  0  0  0  0
    2.9299   -3.8683   -0.5518 H   0  0  0  0  0  0  0  0  0  0  0  0
    3.2614   -5.8765   -1.8921 H   0  0  0  0  0  0  0  0  0  0  0  0
    1.3903   -6.7143   -3.2884 H   0  0  0  0  0  0  0  0  0  0  0  0
   -0.7272   -5.4704   -3.3419 H   0  0  0  0  0  0  0  0  0  0  0  0
   -0.9930   -3.4171   -2.0491 H   0  0  0  0  0  0  0  0  0  0  0  0
   -1.4956   -2.7116    1.7486 H   0  0  0  0  0  0  0  0  0  0  0  0
   -1.3122   -3.7124    0.3167 H   0  0  0  0  0  0  0  0  0  0  0  0
   -1.7368   -1.1308   -1.6350 H   0  0  0  0  0  0  0  0  0  0  0  0
   -3.7831   -0.0988   -2.4366 H   0  0  0  0  0  0  0  0  0  0  0  0
   -7.8257   -1.0919   -0.7933 H   0  0  0  0  0  0  0  0  0  0  0  0
   -7.9453    0.3687   -1.8246 H   0  0  0  0  0  0  0  0  0  0  0  0
   -7.2408    1.7725    0.1520 H   0  0  0  0  0  0  0  0  0  0  0  0
   -7.0752    0.3330    1.1520 H   0  0  0  0  0  0  0  0  0  0  0  0
   -8.3867    1.4316    2.6016 H   0  0  0  0  0  0  0  0  0  0  0  0
  -10.1921    1.3739    2.3225 H   0  0  0  0  0  0  0  0  0  0  0  0
   -8.3698    3.3446    0.9025 H   0  0  0  0  0  0  0  0  0  0  0  0
   -9.3935    3.7951    2.3486 H   0  0  0  0  0  0  0  0  0  0  0  0
  -10.5245    4.3168    0.2857 H   0  0  0  0  0  0  0  0  0  0  0  0
  -11.4222    3.0765    1.2145 H   0  0  0  0  0  0  0  0  0  0  0  0
   -9.7693    2.8638   -1.3236 H   0  0  0  0  0  0  0  0  0  0  0  0
  -11.4503    2.3529   -1.0474 H   0  0  0  0  0  0  0  0  0  0  0  0
  -10.9465    0.5166    0.2208 H   0  0  0  0  0  0  0  0  0  0  0  0
   -9.8264    0.3548   -1.1208 H   0  0  0  0  0  0  0  0  0  0  0  0
   -5.8821   -1.6014    0.9414 H   0  0  0  0  0  0  0  0  0  0  0  0
   -3.8189   -2.6338    1.7689 H   0  0  0  0  0  0  0  0  0  0  0  0
   -1.4978   -0.5891    2.4658 H   0  0  0  0  0  0  0  0  0  0  0  0
   -0.6627    1.5348    3.4751 H   0  0  0  0  0  0  0  0  0  0  0  0
    1.4982    2.4738    2.5788 H   0  0  0  0  0  0  0  0  0  0  0  0
    2.6957    1.3145    0.7805 H   0  0  0  0  0  0  0  0  0  0  0  0
  1  2  1  0
  2  3  1  0
  3  4  1  0
  4  5  1  0
  5  6  2  0
  6  7  1  0
  7  8  2  0
  8  9  1  0
  8 10  1  0
 10 11  2  0
  2 12  1  0
 12 13  1  0
 13 14  2  0
 13 15  1  0
 15 16  1  0
 16 17  2  0
 17 18  1  0
 18 19  2  0
 19 20  1  0
 20 21  2  0
 21 22  1  0
 22 23  2  0
 17 24  1  0
 24 25  1  0
 25 26  1  0
 26 27  2  0
 27 28  1  0
 28 29  2  0
 29 30  1  0
 30 31  1  0
 31 32  1  0
 32 33  1  0
 33 34  1  0
 34 35  1  0
 35 36  1  0
 36 37  1  0
 37 38  1  0
 29 39  1  0
 39 40  2  0
 24 41  1  0
 41 42  2  0
 42 43  1  0
 43 44  2  0
 44 45  1  0
 45 46  2  0
 11  5  1  0
 46 16  1  0
 23 18  1  0
 40 26  1  0
 46 41  1  0
 38 33  1  0
  1 47  1  0
  1 48  1  0
  1 49  1  0
  2 50  1  6
  3 51  1  0
  3 52  1  0
  4 53  1  0
  4 54  1  0
  6 55  1  0
  7 56  1  0
  9 57  1  0
 10 58  1  0
 11 59  1  0
 12 60  1  0
 15 61  1  0
 15 62  1  0
 19 63  1  0
 20 64  1  0
 21 65  1  0
 22 66  1  0
 23 67  1  0
 25 68  1  0
 25 69  1  0
 27 70  1  0
 28 71  1  0
 31 72  1  0
 31 73  1  0
 32 74  1  0
 32 75  1  0
 34 76  1  0
 34 77  1  0
 35 78  1  0
 35 79  1  0
 36 80  1  0
 36 81  1  0
 37 82  1  0
 37 83  1  0
 38 84  1  0
 38 85  1  0
 39 86  1  0
 40 87  1  0
 42 88  1  0
 43 89  1  0
 44 90  1  0
 45 91  1  0
M  END
$$$$
[H]Oc1c([H])c([H])c([C@]2([H])OC(C([H])([H])[H])(C([H])([H])[H])[C@]3(O[H])C([H])([H])C([H])=C(C([H])([H])[H])[C@@]2([H])C3([H])[H])c([H])c1F
     RDKit          3D

 42 44  0  0  0  0  0  0  0  0999 V2000
    0.0299    2.9498   -0.8300 C   0  0  0  0  0  0  0  0  0  0  0  0
   -0.7871    1.8672   -0.2317 C   0  0  0  0  0  0  0  0  0  0  0  0
   -2.0043    1.6808   -0.7156 C   0  0  0  0  0  0  0  0  0  0  0  0
   -2.9553    0.6497   -0.2398 C   0  0  0  0  0  0  0  0  0  0  0  0
   -2.3134   -0.2723    0.7796 C   0  0  2  0  0  0  0  0  0  0  0  0
   -3.3090   -0.9286    1.5088 O   0  0  0  0  0  0  0  0  0  0  0  0
   -1.4758    0.5907    1.6738 C   0  0  0  0  0  0  0  0  0  0  0  0
   -0.2462    1.0487    0.8541 C   0  0  1  0  0  0  0  0  0  0  0  0
    0.3901   -0.2465    0.4069 C   0  0  1  0  0  0  0  0  0  0  0  0
   -0.4134   -0.7931   -0.6014 O   0  0  0  0  0  0  0  0  0  0  0  0
   -1.5402   -1.3150    0.0349 C   0  0  0  0  0  0  0  0  0  0  0  0
   -2.4215   -1.8812   -1.0784 C   0  0  0  0  0  0  0  0  0  0  0  0
   -1.2095   -2.4865    0.9363 C   0  0  0  0  0  0  0  0  0  0  0  0
    1.7932   -0.1535    0.0041 C   0  0  0  0  0  0  0  0  0  0  0  0
    2.3338   -1.1984   -0.7531 C   0  0  0  0  0  0  0  0  0  0  0  0
    3.6510   -1.1837   -1.1585 C   0  0  0  0  0  0  0  0  0  0  0  0
    4.4857   -0.1379   -0.8326 C   0  0  0  0  0  0  0  0  0  0  0  0
    5.8228   -0.1460   -1.2572 O   0  0  0  0  0  0  0  0  0  0  0  0
    3.9682    0.8958   -0.0888 C   0  0  0  0  0  0  0  0  0  0  0  0
    4.7787    1.9270    0.2365 F   0  0  0  0  0  0  0  0  0  0  0  0
    2.6271    0.8721    0.3192 C   0  0  0  0  0  0  0  0  0  0  0  0
    0.5363    2.5309   -1.7296 H   0  0  0  0  0  0  0  0  0  0  0  0
   -0.6479    3.7840   -1.1755 H   0  0  0  0  0  0  0  0  0  0  0  0
    0.7691    3.3785   -0.1177 H   0  0  0  0  0  0  0  0  0  0  0  0
   -2.3720    2.3209   -1.5334 H   0  0  0  0  0  0  0  0  0  0  0  0
   -3.3578    0.1074   -1.1126 H   0  0  0  0  0  0  0  0  0  0  0  0
   -3.8050    1.1679    0.2682 H   0  0  0  0  0  0  0  0  0  0  0  0
   -3.0626   -0.9287    2.4703 H   0  0  0  0  0  0  0  0  0  0  0  0
   -1.0836    0.0733    2.5646 H   0  0  0  0  0  0  0  0  0  0  0  0
   -2.0918    1.4708    1.9611 H   0  0  0  0  0  0  0  0  0  0  0  0
    0.3915    1.5610    1.5761 H   0  0  0  0  0  0  0  0  0  0  0  0
    0.3293   -0.9518    1.2690 H   0  0  0  0  0  0  0  0  0  0  0  0
   -2.2618   -1.3491   -2.0307 H   0  0  0  0  0  0  0  0  0  0  0  0
   -2.1383   -2.9525   -1.2846 H   0  0  0  0  0  0  0  0  0  0  0  0
   -3.4678   -1.9009   -0.7620 H   0  0  0  0  0  0  0  0  0  0  0  0
   -1.1229   -2.1775    2.0092 H   0  0  0  0  0  0  0  0  0  0  0  0
   -0.2543   -2.9690    0.6298 H   0  0  0  0  0  0  0  0  0  0  0  0
   -2.0527   -3.2083    0.9094 H   0  0  0  0  0  0  0  0  0  0  0  0
    1.6907   -2.0304   -1.0189 H   0  0  0  0  0  0  0  0  0  0  0  0
    4.0902   -1.9880   -1.7485 H   0  0  0  0  0  0  0  0  0  0  0  0
    6.4258    0.6179   -1.0171 H   0  0  0  0  0  0  0  0  0  0  0  0
    2.2808    1.7047    0.9057 H   0  0  0  0  0  0  0  0  0  0  0  0
  1  2  1  0
  2  3  2  0
  3  4  1  0
  4  5  1  0
  5  6  1  1
  5  7  1  0
  7  8  1  0
  8  9  1  0
  9 10  1  0
 10 11  1  0
 11 12  1  0
 11 13  1  0
  9 14  1  0
 14 15  2  0
 15 16  1  0
 16 17  2  0
 17 18  1  0
 17 19  1  0
 19 20  1  0
 19 21  2  0
  8  2  1  0
 21 14  1  0
 11  5  1  0
  1 22  1  0
  1 23  1  0
  1 24  1  0
  3 25  1  0
  4 26  1  0
  4 27  1  0
  6 28  1  0
  7 29  1  0
  7 30  1  0
  8 31  1  1
  9 32  1  1
 12 33  1  0
 12 34  1  0
 12 35  1  0
 13 36  1  0
 13 37  1  0
 13 38  1  0
 15 39  1  0
 16 40  1  0
 18 41  1  0
 21 42  1  0
M  END
$$$$
[H]Oc1c([H])c([H])c2c(c1[H])C([H])([H])C([H])([H])C([H])([H])C(c1c([H])c([H])c(OC([H])([H])C([H])([H])[H])c(F)c1F)=C2c1c([H])c([H])c(O[C@]2([H])C([H])([H])N(C([H])([H])C([H])([H])C([H])([H])F)C([H])([H])C2([H])[H])c([H])c1[H]
     RDKit          3D

 73 77  0  0  0  0  0  0  0  0999 V2000
   -0.5597   -4.5653    1.5882 C   0  0  0  0  0  0  0  0  0  0  0  0
   -1.8851   -4.6757    2.2988 C   0  0  0  0  0  0  0  0  0  0  0  0
   -2.8739   -3.8378    1.8050 O   0  0  0  0  0  0  0  0  0  0  0  0
   -2.8495   -2.4527    1.7560 C   0  0  0  0  0  0  0  0  0  0  0  0
   -1.8067   -1.6934    2.2219 C   0  0  0  0  0  0  0  0  0  0  0  0
   -1.8090   -0.2914    2.1625 C   0  0  0  0  0  0  0  0  0  0  0  0
   -2.8677    0.4006    1.6277 C   0  0  0  0  0  0  0  0  0  0  0  0
   -3.9261   -0.3741    1.1547 C   0  0  0  0  0  0  0  0  0  0  0  0
   -4.9913    0.2528    0.5888 F   0  0  0  0  0  0  0  0  0  0  0  0
   -3.9280   -1.7493    1.2122 C   0  0  0  0  0  0  0  0  0  0  0  0
   -4.9672   -2.4973    0.7505 F   0  0  0  0  0  0  0  0  0  0  0  0
   -2.9630    1.8478    1.5126 C   0  0  0  0  0  0  0  0  0  0  0  0
   -2.0909    2.4444    0.7638 C   0  0  0  0  0  0  0  0  0  0  0  0
   -1.0820    1.6966    0.0882 C   0  0  0  0  0  0  0  0  0  0  0  0
   -1.2488    0.7279   -0.8532 C   0  0  0  0  0  0  0  0  0  0  0  0
   -0.1829    0.0445   -1.4127 C   0  0  0  0  0  0  0  0  0  0  0  0
    1.1229    0.2971   -1.0566 C   0  0  0  0  0  0  0  0  0  0  0  0
    2.2303   -0.3434   -1.5723 O   0  0  0  0  0  0  0  0  0  0  0  0
    2.2558   -1.3356   -2.5466 C   0  0  1  0  0  0  0  0  0  0  0  0
    3.2671   -0.8717   -3.6059 C   0  0  0  0  0  0  0  0  0  0  0  0
    4.5594   -1.0148   -2.8313 C   0  0  0  0  0  0  0  0  0  0  0  0
    4.3958   -2.2134   -2.0692 N   0  0  0  0  0  0  0  0  0  0  0  0
    5.3288   -3.1950   -2.4960 C   0  0  0  0  0  0  0  0  0  0  0  0
    5.2507   -4.5045   -1.7864 C   0  0  0  0  0  0  0  0  0  0  0  0
    6.3410   -5.3902   -2.4066 C   0  0  0  0  0  0  0  0  0  0  0  0
    6.0330   -5.4919   -3.7535 F   0  0  0  0  0  0  0  0  0  0  0  0
    3.0216   -2.5811   -2.0573 C   0  0  0  0  0  0  0  0  0  0  0  0
    1.2970    1.2784   -0.1043 C   0  0  0  0  0  0  0  0  0  0  0  0
    0.2580    1.9667    0.4631 C   0  0  0  0  0  0  0  0  0  0  0  0
   -2.0343    3.8865    0.4698 C   0  0  0  0  0  0  0  0  0  0  0  0
   -1.2936    4.1807   -0.6262 C   0  0  0  0  0  0  0  0  0  0  0  0
   -1.1191    5.5079   -1.0497 C   0  0  0  0  0  0  0  0  0  0  0  0
   -1.7034    6.5386   -0.3534 C   0  0  0  0  0  0  0  0  0  0  0  0
   -1.5634    7.8639   -0.7270 O   0  0  0  0  0  0  0  0  0  0  0  0
   -2.4655    6.2589    0.7678 C   0  0  0  0  0  0  0  0  0  0  0  0
   -2.6049    4.9650    1.1363 C   0  0  0  0  0  0  0  0  0  0  0  0
   -3.5188    4.8028    2.3309 C   0  0  0  0  0  0  0  0  0  0  0  0
   -4.5548    3.7447    1.9112 C   0  0  0  0  0  0  0  0  0  0  0  0
   -4.0606    2.4419    2.3967 C   0  0  0  0  0  0  0  0  0  0  0  0
   -0.3136   -5.5228    1.0892 H   0  0  0  0  0  0  0  0  0  0  0  0
    0.2461   -4.3384    2.3121 H   0  0  0  0  0  0  0  0  0  0  0  0
   -0.5589   -3.7141    0.8605 H   0  0  0  0  0  0  0  0  0  0  0  0
   -1.7446   -4.4355    3.3919 H   0  0  0  0  0  0  0  0  0  0  0  0
   -2.2845   -5.7181    2.2929 H   0  0  0  0  0  0  0  0  0  0  0  0
   -0.9416   -2.1756    2.6587 H   0  0  0  0  0  0  0  0  0  0  0  0
   -0.9824    0.2636    2.5655 H   0  0  0  0  0  0  0  0  0  0  0  0
   -2.2471    0.5008   -1.1906 H   0  0  0  0  0  0  0  0  0  0  0  0
   -0.3495   -0.7241   -2.1620 H   0  0  0  0  0  0  0  0  0  0  0  0
    1.2898   -1.6122   -2.9690 H   0  0  0  0  0  0  0  0  0  0  0  0
    3.1874   -1.5056   -4.4874 H   0  0  0  0  0  0  0  0  0  0  0  0
    3.0420    0.1920   -3.8326 H   0  0  0  0  0  0  0  0  0  0  0  0
    5.4360   -1.1015   -3.4975 H   0  0  0  0  0  0  0  0  0  0  0  0
    4.6374   -0.1416   -2.1476 H   0  0  0  0  0  0  0  0  0  0  0  0
    6.3581   -2.7824   -2.3044 H   0  0  0  0  0  0  0  0  0  0  0  0
    5.2831   -3.3969   -3.5854 H   0  0  0  0  0  0  0  0  0  0  0  0
    4.2848   -5.0301   -2.0289 H   0  0  0  0  0  0  0  0  0  0  0  0
    5.4509   -4.4685   -0.7102 H   0  0  0  0  0  0  0  0  0  0  0  0
    7.3363   -4.9455   -2.3242 H   0  0  0  0  0  0  0  0  0  0  0  0
    6.2969   -6.4133   -1.9857 H   0  0  0  0  0  0  0  0  0  0  0  0
    2.6299   -2.7456   -1.0185 H   0  0  0  0  0  0  0  0  0  0  0  0
    2.7367   -3.4487   -2.6514 H   0  0  0  0  0  0  0  0  0  0  0  0
    2.3336    1.5022    0.2000 H   0  0  0  0  0  0  0  0  0  0  0  0
    0.4387    2.7383    1.2147 H   0  0  0  0  0  0  0  0  0  0  0  0
   -0.8427    3.4309   -1.2160 H   0  0  0  0  0  0  0  0  0  0  0  0
   -0.5266    5.7334   -1.9228 H   0  0  0  0  0  0  0  0  0  0  0  0
   -1.9943    8.6084   -0.2106 H   0  0  0  0  0  0  0  0  0  0  0  0
   -2.9320    7.0444    1.3288 H   0  0  0  0  0  0  0  0  0  0  0  0
   -2.9540    4.4055    3.1695 H   0  0  0  0  0  0  0  0  0  0  0  0
   -4.0457    5.7464    2.5004 H   0  0  0  0  0  0  0  0  0  0  0  0
   -5.5442    3.9805    2.3869 H   0  0  0  0  0  0  0  0  0  0  0  0
   -4.6243    3.7856    0.8246 H   0  0  0  0  0  0  0  0  0  0  0  0
   -3.6385    2.5108    3.4492 H   0  0  0  0  0  0  0  0  0  0  0  0
   -4.8747    1.7089    2.4624 H   0  0  0  0  0  0  0  0  0  0  0  0
  1  2  1  0
  2  3  1  0
  3  4  1  0
  4  5  2  0
  5  6  1  0
  6  7  2  0
  7  8  1  0
  8  9  1  0
  8 10  2  0
 10 11  1  0
  7 12  1  0
 12 13  2  0
 13 14  1  0
 14 15  2  0
 15 16  1  0
 16 17  2  0
 17 18  1  0
 18 19  1  0
 19 20  1  0
 20 21  1  0
 21 22  1  0
 22 23  1  0
 23 24  1  0
 24 25  1  0
 25 26  1  0
 22 27  1  0
 17 28  1  0
 28 29  2  0
 13 30  1  0
 30 31  2  0
 31 32  1  0
 32 33  2  0
 33 34  1  0
 33 35  1  0
 35 36  2  0
 36 37  1  0
 37 38  1  0
 38 39  1  0
 10  4  1  0
 39 12  1  0
 29 14  1  0
 36 30  1  0
 27 19  1  0
  1 40  1  0
  1 41  1  0
  1 42  1  0
  2 43  1  0
  2 44  1  0
  5 45  1  0
  6 46  1  0
 15 47  1  0
 16 48  1  0
 19 49  1  6
 20 50  1  0
 20 51  1  0
 21 52  1  0
 21 53  1  0
 23 54  1  0
 23 55  1  0
 24 56  1  0
 24 57  1  0
 25 58  1  0
 25 59  1  0
 27 60  1  0
 27 61  1  0
 28 62  1  0
 29 63  1  0
 31 64  1  0
 32 65  1  0
 34 66  1  0
 35 67  1  0
 37 68  1  0
 37 69  1  0
 38 70  1  0
 38 71  1  0
 39 72  1  0
 39 73  1  0
M  END
$$$$
[H]Oc1c([H])c([H])c([C@]2([H])C([H])([H])C([H])([H])C([H])([H])[C@@]([H])(C([H])([H])O[H])C([H])([H])C2([H])[H])c([H])c1[H]
     RDKit          3D

 36 37  0  0  0  0  0  0  0  0999 V2000
    4.4898   -1.3768    0.3253 O   0  0  0  0  0  0  0  0  0  0  0  0
    3.9124   -0.8447   -0.8119 C   0  0  0  0  0  0  0  0  0  0  0  0
    2.5053   -0.3378   -0.5804 C   0  0  2  0  0  0  0  0  0  0  0  0
    2.4686    0.7497    0.4652 C   0  0  0  0  0  0  0  0  0  0  0  0
    1.5269    1.8086    0.0145 C   0  0  0  0  0  0  0  0  0  0  0  0
    0.1812    1.3236   -0.4029 C   0  0  0  0  0  0  0  0  0  0  0  0
   -0.2979    0.1049    0.3345 C   0  0  2  0  0  0  0  0  0  0  0  0
    0.1694   -1.1825   -0.2987 C   0  0  0  0  0  0  0  0  0  0  0  0
    1.6264   -1.4590   -0.0709 C   0  0  0  0  0  0  0  0  0  0  0  0
   -1.7772    0.1273    0.2959 C   0  0  0  0  0  0  0  0  0  0  0  0
   -2.4912    0.1389    1.4780 C   0  0  0  0  0  0  0  0  0  0  0  0
   -3.8619    0.1597    1.5147 C   0  0  0  0  0  0  0  0  0  0  0  0
   -4.5769    0.1697    0.3501 C   0  0  0  0  0  0  0  0  0  0  0  0
   -5.9914    0.1912    0.3608 O   0  0  0  0  0  0  0  0  0  0  0  0
   -3.9079    0.1587   -0.8502 C   0  0  0  0  0  0  0  0  0  0  0  0
   -2.5332    0.1379   -0.8545 C   0  0  0  0  0  0  0  0  0  0  0  0
    5.3044   -0.8595    0.6049 H   0  0  0  0  0  0  0  0  0  0  0  0
    4.5192    0.0457   -1.1389 H   0  0  0  0  0  0  0  0  0  0  0  0
    3.9134   -1.5348   -1.6741 H   0  0  0  0  0  0  0  0  0  0  0  0
    2.1211   -0.0035   -1.5664 H   0  0  0  0  0  0  0  0  0  0  0  0
    2.2267    0.3369    1.4648 H   0  0  0  0  0  0  0  0  0  0  0  0
    3.4854    1.1921    0.5230 H   0  0  0  0  0  0  0  0  0  0  0  0
    1.4534    2.5708    0.8294 H   0  0  0  0  0  0  0  0  0  0  0  0
    1.9899    2.3362   -0.8501 H   0  0  0  0  0  0  0  0  0  0  0  0
   -0.5507    2.1353   -0.2061 H   0  0  0  0  0  0  0  0  0  0  0  0
    0.1115    1.0963   -1.4899 H   0  0  0  0  0  0  0  0  0  0  0  0
    0.0473    0.1004    1.3782 H   0  0  0  0  0  0  0  0  0  0  0  0
   -0.3977   -2.0040    0.2092 H   0  0  0  0  0  0  0  0  0  0  0  0
   -0.0392   -1.2540   -1.3696 H   0  0  0  0  0  0  0  0  0  0  0  0
    1.8769   -2.4256   -0.4994 H   0  0  0  0  0  0  0  0  0  0  0  0
    1.8149   -1.5194    1.0397 H   0  0  0  0  0  0  0  0  0  0  0  0
   -1.9619    0.1316    2.4091 H   0  0  0  0  0  0  0  0  0  0  0  0
   -4.3830    0.1683    2.4507 H   0  0  0  0  0  0  0  0  0  0  0  0
   -6.4800   -0.6787    0.3650 H   0  0  0  0  0  0  0  0  0  0  0  0
   -4.4817    0.1668   -1.7945 H   0  0  0  0  0  0  0  0  0  0  0  0
   -2.0120    0.1294   -1.8173 H   0  0  0  0  0  0  0  0  0  0  0  0
  1  2  1  0
  2  3  1  0
  3  4  1  0
  4  5  1  0
  5  6  1  0
  6  7  1  0
  7  8  1  0
  8  9  1  0
  7 10  1  0
 10 11  2  0
 11 12  1  0
 12 13  2  0
 13 14  1  0
 13 15  1  0
 15 16  2  0
  9  3  1  0
 16 10  1  0
  1 17  1  0
  2 18  1  0
  2 19  1  0
  3 20  1  6
  4 21  1  0
  4 22  1  0
  5 23  1  0
  5 24  1  0
  6 25  1  0
  6 26  1  0
  7 27  1  1
  8 28  1  0
  8 29  1  0
  9 30  1  0
  9 31  1  0
 11 32  1  0
 12 33  1  0
 14 34  1  0
 15 35  1  0
 16 36  1  0
M  END
$$$$
[H]Oc1c([H])c([H])c2c(c1[H])C([H])([H])C([H])([H])C1([H])C2([H])C([H])([H])C([H])([H])[C@@]2(C([H])([H])[H])C1([H])C([H])([H])C([H])([H])[C@]2(C#Cc1c([H])c([H])c([H])c(C(=O)[O-])c1[H])O[H]
     RDKit          3D

 58 62  0  0  0  0  0  0  0  0999 V2000
   -0.4637   -3.0223   -1.9319 C   0  0  0  0  0  0  0  0  0  0  0  0
    0.0443   -1.6378   -1.5043 C   0  0  2  0  0  0  0  0  0  0  0  0
   -0.0800   -1.5916   -0.0081 C   0  0  0  0  0  0  0  0  0  0  0  0
   -1.5080   -1.5010    0.4559 C   0  0  0  0  0  0  0  0  0  0  0  0
   -2.4144   -0.7854   -0.4802 C   0  0  0  0  0  0  0  0  0  0  0  0
   -1.6776    0.1882   -1.3835 C   0  0  0  0  0  0  0  0  0  0  0  0
   -1.1186    1.3655   -0.6712 C   0  0  0  0  0  0  0  0  0  0  0  0
   -1.8232    1.6982    0.5971 C   0  0  0  0  0  0  0  0  0  0  0  0
   -3.2095    1.2037    0.6895 C   0  0  0  0  0  0  0  0  0  0  0  0
   -4.2128    1.9634    1.3053 C   0  0  0  0  0  0  0  0  0  0  0  0
   -5.5012    1.5000    1.3950 C   0  0  0  0  0  0  0  0  0  0  0  0
   -6.4972    2.2772    2.0176 O   0  0  0  0  0  0  0  0  0  0  0  0
   -5.7911    0.2639    0.8639 C   0  0  0  0  0  0  0  0  0  0  0  0
   -4.7924   -0.4946    0.2497 C   0  0  0  0  0  0  0  0  0  0  0  0
   -3.5006   -0.0329    0.1582 C   0  0  0  0  0  0  0  0  0  0  0  0
   -0.7297   -0.5904   -2.2207 C   0  0  0  0  0  0  0  0  0  0  0  0
    0.3177    0.2404   -2.9308 C   0  0  0  0  0  0  0  0  0  0  0  0
    1.3080   -0.8682   -3.3213 C   0  0  0  0  0  0  0  0  0  0  0  0
    1.4646   -1.5432   -1.9506 C   0  0  2  0  0  0  0  0  0  0  0  0
    2.0716   -2.7832   -2.1297 O   0  0  0  0  0  0  0  0  0  0  0  0
    2.3031   -0.7419   -1.0600 C   0  0  0  0  0  0  0  0  0  0  0  0
    3.0069   -0.0976   -0.3215 C   0  0  0  0  0  0  0  0  0  0  0  0
    3.8603    0.6499    0.5605 C   0  0  0  0  0  0  0  0  0  0  0  0
    4.2406    1.9508    0.3211 C   0  0  0  0  0  0  0  0  0  0  0  0
    5.0603    2.6618    1.1726 C   0  0  0  0  0  0  0  0  0  0  0  0
    5.5165    2.0386    2.3127 C   0  0  0  0  0  0  0  0  0  0  0  0
    5.1470    0.7183    2.5822 C   0  0  0  0  0  0  0  0  0  0  0  0
    4.3189    0.0320    1.7009 C   0  0  0  0  0  0  0  0  0  0  0  0
    5.6393    0.0837    3.7876 C   0  0  0  0  0  0  0  0  0  0  0  0
    6.4630    0.7838    4.6528 O   0  0  0  0  0  0  0  0  0  0  0  0
    5.3043   -1.1002    4.0234 O   0  0  0  0  0  0  0  0  0  0  0  0
    0.3200   -3.7775   -1.8712 H   0  0  0  0  0  0  0  0  0  0  0  0
   -0.8352   -2.9436   -2.9614 H   0  0  0  0  0  0  0  0  0  0  0  0
   -1.2662   -3.3465   -1.2097 H   0  0  0  0  0  0  0  0  0  0  0  0
    0.3111   -2.5799    0.3690 H   0  0  0  0  0  0  0  0  0  0  0  0
    0.5575   -0.8264    0.4745 H   0  0  0  0  0  0  0  0  0  0  0  0
   -1.5432   -1.0107    1.4513 H   0  0  0  0  0  0  0  0  0  0  0  0
   -1.9479   -2.5269    0.6331 H   0  0  0  0  0  0  0  0  0  0  0  0
   -2.8574   -1.5500   -1.1800 H   0  0  0  0  0  0  0  0  0  0  0  0
   -2.4827    0.5813   -2.0761 H   0  0  0  0  0  0  0  0  0  0  0  0
   -0.0253    1.2949   -0.4794 H   0  0  0  0  0  0  0  0  0  0  0  0
   -1.2135    2.2770   -1.3347 H   0  0  0  0  0  0  0  0  0  0  0  0
   -1.2078    1.3609    1.4822 H   0  0  0  0  0  0  0  0  0  0  0  0
   -1.8816    2.8172    0.7495 H   0  0  0  0  0  0  0  0  0  0  0  0
   -3.9523    2.9376    1.7161 H   0  0  0  0  0  0  0  0  0  0  0  0
   -7.0504    2.9416    1.4572 H   0  0  0  0  0  0  0  0  0  0  0  0
   -6.8078   -0.0888    0.9411 H   0  0  0  0  0  0  0  0  0  0  0  0
   -5.0359   -1.4632   -0.1625 H   0  0  0  0  0  0  0  0  0  0  0  0
   -1.3224   -1.0716   -3.0555 H   0  0  0  0  0  0  0  0  0  0  0  0
   -0.0812    0.7403   -3.8317 H   0  0  0  0  0  0  0  0  0  0  0  0
    0.8713    0.9030   -2.2588 H   0  0  0  0  0  0  0  0  0  0  0  0
    2.2446   -0.4510   -3.6845 H   0  0  0  0  0  0  0  0  0  0  0  0
    0.8222   -1.5916   -3.9741 H   0  0  0  0  0  0  0  0  0  0  0  0
    2.2012   -3.1663   -1.2233 H   0  0  0  0  0  0  0  0  0  0  0  0
    3.8857    2.4305   -0.5625 H   0  0  0  0  0  0  0  0  0  0  0  0
    5.3582    3.6830    0.9837 H   0  0  0  0  0  0  0  0  0  0  0  0
    6.1578    2.5816    2.9876 H   0  0  0  0  0  0  0  0  0  0  0  0
    4.0349   -0.9840    1.9088 H   0  0  0  0  0  0  0  0  0  0  0  0
  2  1  1  6
  2  3  1  0
  3  4  1  0
  4  5  1  0
  5  6  1  0
  6  7  1  0
  7  8  1  0
  8  9  1  0
  9 10  2  0
 10 11  1  0
 11 12  1  0
 11 13  2  0
 13 14  1  0
 14 15  2  0
  6 16  1  0
 16 17  1  0
 17 18  1  0
 18 19  1  0
 19 20  1  0
 19 21  1  1
 21 22  3  0
 22 23  1  0
 23 24  2  0
 24 25  1  0
 25 26  2  0
 26 27  1  0
 27 28  2  0
 27 29  1  0
 29 30  1  0
 29 31  2  0
 16  2  1  0
 28 23  1  0
 19  2  1  0
 15  5  1  0
 15  9  1  0
  1 32  1  0
  1 33  1  0
  1 34  1  0
  3 35  1  0
  3 36  1  0
  4 37  1  0
  4 38  1  0
  5 39  1  0
  6 40  1  0
  7 41  1  0
  7 42  1  0
  8 43  1  0
  8 44  1  0
 10 45  1  0
 12 46  1  0
 13 47  1  0
 14 48  1  0
 16 49  1  0
 17 50  1  0
 17 51  1  0
 18 52  1  0
 18 53  1  0
 20 54  1  0
 24 55  1  0
 25 56  1  0
 26 57  1  0
 28 58  1  0
M  CHG  1  30  -1
M  END
$$$$
[H]Oc1c([H])c([H])c2c(c1[H])C([H])([H])C([H])([H])C([H])([H])C(c1c([H])c([H])c(OC([H])([H])[H])c([H])c1C(F)(F)F)=C2c1c([H])c([H])c(O[C@]2([H])C([H])([H])N(C([H])([H])C([H])([H])C([H])([H])F)C([H])([H])C2([H])[H])c([H])c1[H]
     RDKit          3D

 73 77  0  0  0  0  0  0  0  0999 V2000
   -2.3258   -5.6417    0.4490 C   0  0  0  0  0  0  0  0  0  0  0  0
   -2.2211   -4.7610   -0.6560 O   0  0  0  0  0  0  0  0  0  0  0  0
   -2.6151   -3.4313   -0.5087 C   0  0  0  0  0  0  0  0  0  0  0  0
   -2.5148   -2.5715   -1.5811 C   0  0  0  0  0  0  0  0  0  0  0  0
   -2.9045   -1.2665   -1.4214 C   0  0  0  0  0  0  0  0  0  0  0  0
   -3.3979   -0.7784   -0.2100 C   0  0  0  0  0  0  0  0  0  0  0  0
   -3.5124   -1.6092    0.8737 C   0  0  0  0  0  0  0  0  0  0  0  0
   -3.1049   -2.9409    0.6802 C   0  0  0  0  0  0  0  0  0  0  0  0
   -4.0615   -1.2949    2.1972 C   0  0  0  0  0  0  0  0  0  0  0  0
   -5.4272   -1.0559    2.2194 F   0  0  0  0  0  0  0  0  0  0  0  0
   -3.8743   -2.3732    3.0395 F   0  0  0  0  0  0  0  0  0  0  0  0
   -3.4182   -0.2379    2.8416 F   0  0  0  0  0  0  0  0  0  0  0  0
   -3.6834    0.6231   -0.1346 C   0  0  0  0  0  0  0  0  0  0  0  0
   -2.6889    1.4765   -0.2484 C   0  0  0  0  0  0  0  0  0  0  0  0
   -1.3559    0.9960   -0.4591 C   0  0  0  0  0  0  0  0  0  0  0  0
   -0.6639    1.2697   -1.6574 C   0  0  0  0  0  0  0  0  0  0  0  0
    0.6081    0.8563   -1.8483 C   0  0  0  0  0  0  0  0  0  0  0  0
    1.3151    0.1352   -0.8748 C   0  0  0  0  0  0  0  0  0  0  0  0
    2.6286   -0.2586   -1.1438 O   0  0  0  0  0  0  0  0  0  0  0  0
    3.4183   -0.9730   -0.2752 C   0  0  1  0  0  0  0  0  0  0  0  0
    3.8519   -2.2504   -1.0214 C   0  0  0  0  0  0  0  0  0  0  0  0
    5.0925   -2.6344   -0.2422 C   0  0  0  0  0  0  0  0  0  0  0  0
    5.5000   -1.4838    0.4993 N   0  0  0  0  0  0  0  0  0  0  0  0
    6.9074   -1.2973    0.6288 C   0  0  0  0  0  0  0  0  0  0  0  0
    7.6223   -0.9540   -0.6486 C   0  0  0  0  0  0  0  0  0  0  0  0
    9.0992   -0.8032   -0.2802 C   0  0  0  0  0  0  0  0  0  0  0  0
    9.4838   -2.0237    0.2364 F   0  0  0  0  0  0  0  0  0  0  0  0
    4.7981   -0.3440   -0.0711 C   0  0  0  0  0  0  0  0  0  0  0  0
    0.6560   -0.1320    0.2825 C   0  0  0  0  0  0  0  0  0  0  0  0
   -0.6554    0.2959    0.4769 C   0  0  0  0  0  0  0  0  0  0  0  0
   -2.7433    2.9664   -0.1074 C   0  0  0  0  0  0  0  0  0  0  0  0
   -1.5320    3.5653    0.0448 C   0  0  0  0  0  0  0  0  0  0  0  0
   -1.3840    4.9350    0.1872 C   0  0  0  0  0  0  0  0  0  0  0  0
   -2.4732    5.7590    0.1816 C   0  0  0  0  0  0  0  0  0  0  0  0
   -2.2826    7.1230    0.3251 O   0  0  0  0  0  0  0  0  0  0  0  0
   -3.7244    5.1719    0.0301 C   0  0  0  0  0  0  0  0  0  0  0  0
   -3.8431    3.7993   -0.1100 C   0  0  0  0  0  0  0  0  0  0  0  0
   -5.2925    3.4631   -0.1931 C   0  0  0  0  0  0  0  0  0  0  0  0
   -5.4754    2.2014    0.6631 C   0  0  0  0  0  0  0  0  0  0  0  0
   -5.1200    0.9872   -0.1278 C   0  0  0  0  0  0  0  0  0  0  0  0
   -3.3104   -5.5972    0.9459 H   0  0  0  0  0  0  0  0  0  0  0  0
   -1.5382   -5.4631    1.2107 H   0  0  0  0  0  0  0  0  0  0  0  0
   -2.1906   -6.6854    0.1002 H   0  0  0  0  0  0  0  0  0  0  0  0
   -2.1330   -2.9526   -2.5131 H   0  0  0  0  0  0  0  0  0  0  0  0
   -2.8346   -0.6456   -2.3121 H   0  0  0  0  0  0  0  0  0  0  0  0
   -3.1741   -3.6407    1.5090 H   0  0  0  0  0  0  0  0  0  0  0  0
   -1.2094    1.8224   -2.3977 H   0  0  0  0  0  0  0  0  0  0  0  0
    1.1544    1.0567   -2.7599 H   0  0  0  0  0  0  0  0  0  0  0  0
    3.0004   -1.2661    0.6828 H   0  0  0  0  0  0  0  0  0  0  0  0
    4.1091   -1.9406   -2.0522 H   0  0  0  0  0  0  0  0  0  0  0  0
    3.0503   -2.9902   -0.9650 H   0  0  0  0  0  0  0  0  0  0  0  0
    4.7933   -3.4256    0.4670 H   0  0  0  0  0  0  0  0  0  0  0  0
    5.8499   -2.9748   -0.9736 H   0  0  0  0  0  0  0  0  0  0  0  0
    7.3660   -2.2002    1.0553 H   0  0  0  0  0  0  0  0  0  0  0  0
    7.0757   -0.4901    1.3869 H   0  0  0  0  0  0  0  0  0  0  0  0
    7.5572   -1.8013   -1.3583 H   0  0  0  0  0  0  0  0  0  0  0  0
    7.2627    0.0049   -1.0672 H   0  0  0  0  0  0  0  0  0  0  0  0
    9.1854   -0.0628    0.5401 H   0  0  0  0  0  0  0  0  0  0  0  0
    9.7270   -0.5865   -1.1495 H   0  0  0  0  0  0  0  0  0  0  0  0
    4.7647    0.5023    0.6234 H   0  0  0  0  0  0  0  0  0  0  0  0
    5.2146   -0.0597   -1.0363 H   0  0  0  0  0  0  0  0  0  0  0  0
    1.1669   -0.6933    1.0749 H   0  0  0  0  0  0  0  0  0  0  0  0
   -1.0462    0.0414    1.4496 H   0  0  0  0  0  0  0  0  0  0  0  0
   -0.6439    2.9943    0.0887 H   0  0  0  0  0  0  0  0  0  0  0  0
   -0.3675    5.3404    0.3044 H   0  0  0  0  0  0  0  0  0  0  0  0
   -3.0099    7.8129    0.3345 H   0  0  0  0  0  0  0  0  0  0  0  0
   -4.5679    5.8471    0.0309 H   0  0  0  0  0  0  0  0  0  0  0  0
   -5.9242    4.2512    0.2589 H   0  0  0  0  0  0  0  0  0  0  0  0
   -5.6458    3.2941   -1.2244 H   0  0  0  0  0  0  0  0  0  0  0  0
   -6.4995    2.1874    1.0558 H   0  0  0  0  0  0  0  0  0  0  0  0
   -4.7680    2.2911    1.5193 H   0  0  0  0  0  0  0  0  0  0  0  0
   -5.2730    1.3573   -1.2404 H   0  0  0  0  0  0  0  0  0  0  0  0
   -5.8267    0.1652   -0.1069 H   0  0  0  0  0  0  0  0  0  0  0  0
  1  2  1  0
  2  3  1  0
  3  4  2  0
  4  5  1  0
  5  6  2  0
  6  7  1  0
  7  8  2  0
  7  9  1  0
  9 10  1  0
  9 11  1  0
  9 12  1  0
  6 13  1  0
 13 14  2  0
 14 15  1  0
 15 16  2  0
 16 17  1  0
 17 18  2  0
 18 19  1  0
 19 20  1  0
 20 21  1  0
 21 22  1  0
 22 23  1  0
 23 24  1  0
 24 25  1  0
 25 26  1  0
 26 27  1  0
 23 28  1  0
 18 29  1  0
 29 30  2  0
 14 31  1  0
 31 32  2  0
 32 33  1  0
 33 34  2  0
 34 35  1  0
 34 36  1  0
 36 37  2  0
 37 38  1  0
 38 39  1  0
 39 40  1  0
  8  3  1  0
 40 13  1  0
 30 15  1  0
 37 31  1  0
 28 20  1  0
  1 41  1  0
  1 42  1  0
  1 43  1  0
  4 44  1  0
  5 45  1  0
  8 46  1  0
 16 47  1  0
 17 48  1  0
 20 49  1  1
 21 50  1  0
 21 51  1  0
 22 52  1  0
 22 53  1  0
 24 54  1  0
 24 55  1  0
 25 56  1  0
 25 57  1  0
 26 58  1  0
 26 59  1  0
 28 60  1  0
 28 61  1  0
 29 62  1  0
 30 63  1  0
 32 64  1  0
 33 65  1  0
 35 66  1  0
 36 67  1  0
 38 68  1  0
 38 69  1  0
 39 70  1  0
 39 71  1  0
 40 72  1  0
 40 73  1  0
M  END
$$$$
[H]Oc1c([H])c([H])c2c(c1[H])O[C@@]([H])(c1c([H])c([H])c(OC([H])([H])C([H])([H])N3C([H])([H])C([H])([H])C([H])([H])C([H])([H])C3([H])[H])c([H])c1[H])C1=C2C([H])([H])Oc2c([H])c(O[H])c([H])c([H])c21
     RDKit          3D

 64 69  0  0  0  0  0  0  0  0999 V2000
   -4.1656    2.4646    5.4979 O   0  0  0  0  0  0  0  0  0  0  0  0
   -4.0487    1.8152    4.2686 C   0  0  0  0  0  0  0  0  0  0  0  0
   -3.6005    0.5156    4.1696 C   0  0  0  0  0  0  0  0  0  0  0  0
   -3.4942   -0.1034    2.9426 C   0  0  0  0  0  0  0  0  0  0  0  0
   -3.8278    0.5359    1.7443 C   0  0  0  0  0  0  0  0  0  0  0  0
   -3.7253   -0.1396    0.4569 C   0  0  0  0  0  0  0  0  0  0  0  0
   -4.0804    0.5308   -0.6419 C   0  0  0  0  0  0  0  0  0  0  0  0
   -4.5686    1.9486   -0.6007 C   0  0  0  0  0  0  0  0  0  0  0  0
   -4.6099    2.4873    0.6905 O   0  0  0  0  0  0  0  0  0  0  0  0
   -4.2738    1.8326    1.8561 C   0  0  0  0  0  0  0  0  0  0  0  0
   -4.3825    2.4624    3.0996 C   0  0  0  0  0  0  0  0  0  0  0  0
   -4.0922   -0.1347   -1.9378 C   0  0  0  0  0  0  0  0  0  0  0  0
   -4.4111    0.5695   -3.1028 C   0  0  0  0  0  0  0  0  0  0  0  0
   -4.3660   -0.0881   -4.3083 C   0  0  0  0  0  0  0  0  0  0  0  0
   -4.0180   -1.4179   -4.4151 C   0  0  0  0  0  0  0  0  0  0  0  0
   -3.9776   -2.0713   -5.6607 O   0  0  0  0  0  0  0  0  0  0  0  0
   -3.7042   -2.1133   -3.2680 C   0  0  0  0  0  0  0  0  0  0  0  0
   -3.7461   -1.4551   -2.0245 C   0  0  0  0  0  0  0  0  0  0  0  0
   -3.4396   -2.1460   -0.8655 O   0  0  0  0  0  0  0  0  0  0  0  0
   -3.1824   -1.5096    0.3833 C   0  0  1  0  0  0  0  0  0  0  0  0
   -1.6990   -1.5519    0.5289 C   0  0  0  0  0  0  0  0  0  0  0  0
   -1.0828   -2.7755    0.4391 C   0  0  0  0  0  0  0  0  0  0  0  0
    0.2695   -2.8676    0.5457 C   0  0  0  0  0  0  0  0  0  0  0  0
    1.1128   -1.7548    0.7493 C   0  0  0  0  0  0  0  0  0  0  0  0
    2.4513   -1.9668    0.8433 O   0  0  0  0  0  0  0  0  0  0  0  0
    3.5291   -1.1429    1.0140 C   0  0  0  0  0  0  0  0  0  0  0  0
    3.8105   -0.1493   -0.0549 C   0  0  0  0  0  0  0  0  0  0  0  0
    4.9992    0.6165    0.3273 N   0  0  0  0  0  0  0  0  0  0  0  0
    5.3331    1.5997   -0.6619 C   0  0  0  0  0  0  0  0  0  0  0  0
    6.3551    1.0940   -1.6632 C   0  0  0  0  0  0  0  0  0  0  0  0
    7.6483    0.6899   -1.0172 C   0  0  0  0  0  0  0  0  0  0  0  0
    7.4331    0.4746    0.4552 C   0  0  0  0  0  0  0  0  0  0  0  0
    6.1009   -0.2312    0.6650 C   0  0  0  0  0  0  0  0  0  0  0  0
    0.4668   -0.5483    0.8349 C   0  0  0  0  0  0  0  0  0  0  0  0
   -0.9303   -0.4419    0.7255 C   0  0  0  0  0  0  0  0  0  0  0  0
   -5.0278    2.4252    6.0419 H   0  0  0  0  0  0  0  0  0  0  0  0
   -3.3342   -0.0092    5.0703 H   0  0  0  0  0  0  0  0  0  0  0  0
   -3.1457   -1.1289    2.8359 H   0  0  0  0  0  0  0  0  0  0  0  0
   -3.8167    2.5300   -1.1961 H   0  0  0  0  0  0  0  0  0  0  0  0
   -5.5852    2.0330   -1.0389 H   0  0  0  0  0  0  0  0  0  0  0  0
   -4.7373    3.4838    3.1495 H   0  0  0  0  0  0  0  0  0  0  0  0
   -4.6770    1.5992   -2.9869 H   0  0  0  0  0  0  0  0  0  0  0  0
   -4.6115    0.4487   -5.2178 H   0  0  0  0  0  0  0  0  0  0  0  0
   -4.8161   -2.5337   -6.0090 H   0  0  0  0  0  0  0  0  0  0  0  0
   -3.4271   -3.1531   -3.3059 H   0  0  0  0  0  0  0  0  0  0  0  0
   -3.6685   -2.1861    1.1465 H   0  0  0  0  0  0  0  0  0  0  0  0
   -1.6676   -3.6525    0.2856 H   0  0  0  0  0  0  0  0  0  0  0  0
    0.7470   -3.8536    0.4717 H   0  0  0  0  0  0  0  0  0  0  0  0
    3.3853   -0.5373    1.9705 H   0  0  0  0  0  0  0  0  0  0  0  0
    4.4761   -1.7045    1.2378 H   0  0  0  0  0  0  0  0  0  0  0  0
    4.0808   -0.6238   -1.0241 H   0  0  0  0  0  0  0  0  0  0  0  0
    3.0035    0.5792   -0.1417 H   0  0  0  0  0  0  0  0  0  0  0  0
    4.4355    1.8902   -1.2586 H   0  0  0  0  0  0  0  0  0  0  0  0
    5.7453    2.5383   -0.2313 H   0  0  0  0  0  0  0  0  0  0  0  0
    5.9554    0.2761   -2.2957 H   0  0  0  0  0  0  0  0  0  0  0  0
    6.5701    1.9483   -2.3507 H   0  0  0  0  0  0  0  0  0  0  0  0
    8.0751   -0.2435   -1.4864 H   0  0  0  0  0  0  0  0  0  0  0  0
    8.4416    1.4603   -1.1334 H   0  0  0  0  0  0  0  0  0  0  0  0
    7.4428    1.4622    0.9576 H   0  0  0  0  0  0  0  0  0  0  0  0
    8.2305   -0.1578    0.8829 H   0  0  0  0  0  0  0  0  0  0  0  0
    6.1124   -1.1498    0.0634 H   0  0  0  0  0  0  0  0  0  0  0  0
    6.0309   -0.4856    1.7493 H   0  0  0  0  0  0  0  0  0  0  0  0
    1.0592    0.3410    1.0070 H   0  0  0  0  0  0  0  0  0  0  0  0
   -1.3597    0.5400    0.7918 H   0  0  0  0  0  0  0  0  0  0  0  0
  1  2  1  0
  2  3  2  0
  3  4  1  0
  4  5  2  0
  5  6  1  0
  6  7  2  0
  7  8  1  0
  8  9  1  0
  9 10  1  0
 10 11  2  0
  7 12  1  0
 12 13  2  0
 13 14  1  0
 14 15  2  0
 15 16  1  0
 15 17  1  0
 17 18  2  0
 18 19  1  0
 19 20  1  0
 20 21  1  0
 21 22  2  0
 22 23  1  0
 23 24  2  0
 24 25  1  0
 25 26  1  0
 26 27  1  0
 27 28  1  0
 28 29  1  0
 29 30  1  0
 30 31  1  0
 31 32  1  0
 32 33  1  0
 24 34  1  0
 34 35  2  0
 11  2  1  0
 18 12  1  0
 35 21  1  0
 10  5  1  0
 33 28  1  0
 20  6  1  0
  1 36  1  0
  3 37  1  0
  4 38  1  0
  8 39  1  0
  8 40  1  0
 11 41  1  0
 13 42  1  0
 14 43  1  0
 16 44  1  0
 17 45  1  0
 20 46  1  1
 22 47  1  0
 23 48  1  0
 26 49  1  0
 26 50  1  0
 27 51  1  0
 27 52  1  0
 29 53  1  0
 29 54  1  0
 30 55  1  0
 30 56  1  0
 31 57  1  0
 31 58  1  0
 32 59  1  0
 32 60  1  0
 33 61  1  0
 33 62  1  0
 34 63  1  0
 35 64  1  0
M  END
$$$$
[H]Oc1c([H])c([H])c([H])c(C2=C(C([H])([H])[H])c3c([H])c(O[H])c([H])c([H])c3OC2([H])c2c([H])c([H])c(OC([H])([H])C([H])([H])N3C([H])([H])C([H])(C([H])([H])[H])C3([H])[H])c([H])c2[H])c1[H]
     RDKit          3D

 62 66  0  0  0  0  0  0  0  0999 V2000
    6.9034    1.8939   -0.2132 C   0  0  0  0  0  0  0  0  0  0  0  0
    7.2399    0.4167   -0.0753 C   0  0  0  0  0  0  0  0  0  0  0  0
    6.8148   -0.2078    1.2212 C   0  0  0  0  0  0  0  0  0  0  0  0
    6.0712   -1.2670    0.5541 N   0  0  0  0  0  0  0  0  0  0  0  0
    4.6710   -1.3706    1.0098 C   0  0  0  0  0  0  0  0  0  0  0  0
    4.0521   -2.6160    0.4251 C   0  0  0  0  0  0  0  0  0  0  0  0
    2.7383   -2.8497    0.7441 O   0  0  0  0  0  0  0  0  0  0  0  0
    1.6593   -2.1026    0.3734 C   0  0  0  0  0  0  0  0  0  0  0  0
    0.3768   -2.4708    0.8501 C   0  0  0  0  0  0  0  0  0  0  0  0
   -0.7160   -1.7237    0.4769 C   0  0  0  0  0  0  0  0  0  0  0  0
   -0.6792   -0.6461   -0.3217 C   0  0  0  0  0  0  0  0  0  0  0  0
    0.6052   -0.2902   -0.7906 C   0  0  0  0  0  0  0  0  0  0  0  0
    1.7295   -1.0243   -0.4317 C   0  0  0  0  0  0  0  0  0  0  0  0
   -1.7207    0.2501   -0.7969 C   0  0  0  0  0  0  0  0  0  0  0  0
   -1.2451    1.5466   -0.7202 O   0  0  0  0  0  0  0  0  0  0  0  0
   -1.9670    2.6427   -0.3818 C   0  0  0  0  0  0  0  0  0  0  0  0
   -1.3327    3.8975   -0.3254 C   0  0  0  0  0  0  0  0  0  0  0  0
   -2.0652    5.0049    0.0202 C   0  0  0  0  0  0  0  0  0  0  0  0
   -3.4137    4.8482    0.3039 C   0  0  0  0  0  0  0  0  0  0  0  0
   -4.0996    6.0063    0.6494 O   0  0  0  0  0  0  0  0  0  0  0  0
   -4.0367    3.6176    0.2481 C   0  0  0  0  0  0  0  0  0  0  0  0
   -3.3052    2.5191   -0.0972 C   0  0  0  0  0  0  0  0  0  0  0  0
   -3.8379    1.1454   -0.1911 C   0  0  0  0  0  0  0  0  0  0  0  0
   -5.3390    1.0324    0.0233 C   0  0  0  0  0  0  0  0  0  0  0  0
   -3.0949    0.0987   -0.5157 C   0  0  0  0  0  0  0  0  0  0  0  0
   -3.8449   -1.1845   -0.5269 C   0  0  0  0  0  0  0  0  0  0  0  0
   -3.7664   -2.0107   -1.6561 C   0  0  0  0  0  0  0  0  0  0  0  0
   -4.4140   -3.2249   -1.7257 C   0  0  0  0  0  0  0  0  0  0  0  0
   -5.1742   -3.6696   -0.6600 C   0  0  0  0  0  0  0  0  0  0  0  0
   -5.2618   -2.8743    0.4529 C   0  0  0  0  0  0  0  0  0  0  0  0
   -6.0204   -3.3034    1.5310 O   0  0  0  0  0  0  0  0  0  0  0  0
   -4.6081   -1.6662    0.5029 C   0  0  0  0  0  0  0  0  0  0  0  0
    6.1661   -0.4519   -0.6716 C   0  0  0  0  0  0  0  0  0  0  0  0
    7.6832    2.5086    0.2649 H   0  0  0  0  0  0  0  0  0  0  0  0
    5.8837    2.0558    0.1810 H   0  0  0  0  0  0  0  0  0  0  0  0
    6.9027    2.1370   -1.2969 H   0  0  0  0  0  0  0  0  0  0  0  0
    8.2775    0.1594   -0.3851 H   0  0  0  0  0  0  0  0  0  0  0  0
    7.6814   -0.6603    1.7790 H   0  0  0  0  0  0  0  0  0  0  0  0
    6.1558    0.3755    1.8645 H   0  0  0  0  0  0  0  0  0  0  0  0
    4.2014   -0.4287    0.7487 H   0  0  0  0  0  0  0  0  0  0  0  0
    4.6718   -1.4220    2.1255 H   0  0  0  0  0  0  0  0  0  0  0  0
    4.2639   -2.6679   -0.6832 H   0  0  0  0  0  0  0  0  0  0  0  0
    4.6482   -3.4639    0.9034 H   0  0  0  0  0  0  0  0  0  0  0  0
    0.3345   -3.3322    1.4906 H   0  0  0  0  0  0  0  0  0  0  0  0
   -1.6582   -2.0315    0.8626 H   0  0  0  0  0  0  0  0  0  0  0  0
    0.7779    0.5551   -1.4400 H   0  0  0  0  0  0  0  0  0  0  0  0
    2.7017   -0.7113   -0.8559 H   0  0  0  0  0  0  0  0  0  0  0  0
   -1.6493    0.0437   -1.9486 H   0  0  0  0  0  0  0  0  0  0  0  0
   -0.2739    3.9810   -0.5571 H   0  0  0  0  0  0  0  0  0  0  0  0
   -1.6008    5.9898    0.0735 H   0  0  0  0  0  0  0  0  0  0  0  0
   -4.1292    6.2475    1.6283 H   0  0  0  0  0  0  0  0  0  0  0  0
   -5.0781    3.5520    0.4870 H   0  0  0  0  0  0  0  0  0  0  0  0
   -5.6281    1.0307    1.0630 H   0  0  0  0  0  0  0  0  0  0  0  0
   -5.7854    0.2584   -0.6351 H   0  0  0  0  0  0  0  0  0  0  0  0
   -5.7934    1.9788   -0.4399 H   0  0  0  0  0  0  0  0  0  0  0  0
   -3.1648   -1.6403   -2.4719 H   0  0  0  0  0  0  0  0  0  0  0  0
   -4.3489   -3.8653   -2.6036 H   0  0  0  0  0  0  0  0  0  0  0  0
   -5.6824   -4.6377   -0.7299 H   0  0  0  0  0  0  0  0  0  0  0  0
   -5.5511   -3.8552    2.2484 H   0  0  0  0  0  0  0  0  0  0  0  0
   -4.6801   -1.0691    1.4174 H   0  0  0  0  0  0  0  0  0  0  0  0
    5.2058    0.0499   -0.8891 H   0  0  0  0  0  0  0  0  0  0  0  0
    6.5489   -1.1033   -1.4868 H   0  0  0  0  0  0  0  0  0  0  0  0
  1  2  1  0
  2  3  1  0
  3  4  1  0
  4  5  1  0
  5  6  1  0
  6  7  1  0
  7  8  1  0
  8  9  2  0
  9 10  1  0
 10 11  2  0
 11 12  1  0
 12 13  2  0
 11 14  1  0
 14 15  1  0
 15 16  1  0
 16 17  2  0
 17 18  1  0
 18 19  2  0
 19 20  1  0
 19 21  1  0
 21 22  2  0
 22 23  1  0
 23 24  1  0
 23 25  2  0
 25 26  1  0
 26 27  2  0
 27 28  1  0
 28 29  2  0
 29 30  1  0
 30 31  1  0
 30 32  2  0
  4 33  1  0
 33  2  1  0
 13  8  1  0
 25 14  1  0
 32 26  1  0
 22 16  1  0
  1 34  1  0
  1 35  1  0
  1 36  1  0
  2 37  1  0
  3 38  1  0
  3 39  1  0
  5 40  1  0
  5 41  1  0
  6 42  1  0
  6 43  1  0
  9 44  1  0
 10 45  1  0
 12 46  1  0
 13 47  1  0
 14 48  1  0
 17 49  1  0
 18 50  1  0
 20 51  1  0
 21 52  1  0
 24 53  1  0
 24 54  1  0
 24 55  1  0
 27 56  1  0
 28 57  1  0
 29 58  1  0
 31 59  1  0
 32 60  1  0
 33 61  1  0
 33 62  1  0
M  END
$$$$
[H]Oc1c([H])c([H])c2c(Oc3c([H])c([H])c(/C([H])=C(\[H])c4nnc(C([H])([H])C([H])([H])C([H])([H])[H])o4)c([H])c3[H])c(-c3c([H])c([H])c([H])c([H])c3C([H])(C([H])([H])[H])C([H])([H])[H])sc2c1[H]
     RDKit          3D

 64 68  0  0  0  0  0  0  0  0999 V2000
    8.2824    0.7371    3.2006 C   0  0  0  0  0  0  0  0  0  0  0  0
    8.9683   -0.6290    3.3052 C   0  0  0  0  0  0  0  0  0  0  0  0
    8.9327   -1.2362    1.8999 C   0  0  0  0  0  0  0  0  0  0  0  0
    7.4877   -1.3364    1.5581 C   0  0  0  0  0  0  0  0  0  0  0  0
    6.7269   -2.4017    1.8151 N   0  0  0  0  0  0  0  0  0  0  0  0
    5.4986   -2.1746    1.3896 N   0  0  0  0  0  0  0  0  0  0  0  0
    5.4814   -0.9436    0.8537 C   0  0  0  0  0  0  0  0  0  0  0  0
    4.3391   -0.2535    0.2520 C   0  0  0  0  0  0  0  0  0  0  0  0
    3.1817   -0.8709    0.2011 C   0  0  0  0  0  0  0  0  0  0  0  0
    1.9801   -0.2781   -0.3742 C   0  0  0  0  0  0  0  0  0  0  0  0
    1.9333    0.9917   -0.9044 C   0  0  0  0  0  0  0  0  0  0  0  0
    0.7491    1.5038   -1.4458 C   0  0  0  0  0  0  0  0  0  0  0  0
   -0.4087    0.7582   -1.4667 C   0  0  0  0  0  0  0  0  0  0  0  0
   -1.5239    1.3812   -2.0334 O   0  0  0  0  0  0  0  0  0  0  0  0
   -2.7455    0.6461   -2.1325 C   0  0  0  0  0  0  0  0  0  0  0  0
   -3.6966    0.7618   -1.1472 C   0  0  0  0  0  0  0  0  0  0  0  0
   -4.9133   -0.2969   -1.7194 S   0  0  0  0  0  0  0  0  0  0  0  0
   -4.2066   -0.8408   -3.1524 C   0  0  0  0  0  0  0  0  0  0  0  0
   -4.6228   -1.7311   -4.1519 C   0  0  0  0  0  0  0  0  0  0  0  0
   -3.8050   -1.9857   -5.2346 C   0  0  0  0  0  0  0  0  0  0  0  0
   -4.1251   -2.8440   -6.2669 O   0  0  0  0  0  0  0  0  0  0  0  0
   -2.6009   -1.3294   -5.2628 C   0  0  0  0  0  0  0  0  0  0  0  0
   -2.2017   -0.4611   -4.2823 C   0  0  0  0  0  0  0  0  0  0  0  0
   -3.0194   -0.1878   -3.1709 C   0  0  0  0  0  0  0  0  0  0  0  0
   -3.6208    1.5427    0.0998 C   0  0  0  0  0  0  0  0  0  0  0  0
   -2.7898    2.6411    0.1787 C   0  0  0  0  0  0  0  0  0  0  0  0
   -2.5925    3.3398    1.3549 C   0  0  0  0  0  0  0  0  0  0  0  0
   -3.2286    2.9585    2.4986 C   0  0  0  0  0  0  0  0  0  0  0  0
   -4.0633    1.8726    2.4477 C   0  0  0  0  0  0  0  0  0  0  0  0
   -4.2545    1.1707    1.2474 C   0  0  0  0  0  0  0  0  0  0  0  0
   -5.2254    0.0484    1.3388 C   0  0  0  0  0  0  0  0  0  0  0  0
   -5.3960   -0.3707    2.8180 C   0  0  0  0  0  0  0  0  0  0  0  0
   -6.6271    0.5344    0.9395 C   0  0  0  0  0  0  0  0  0  0  0  0
   -0.3827   -0.4949   -0.9487 C   0  0  0  0  0  0  0  0  0  0  0  0
    0.7898   -1.0032   -0.4126 C   0  0  0  0  0  0  0  0  0  0  0  0
    6.7148   -0.4704    0.9780 O   0  0  0  0  0  0  0  0  0  0  0  0
    8.8357    1.4317    3.8684 H   0  0  0  0  0  0  0  0  0  0  0  0
    8.3144    1.0804    2.1503 H   0  0  0  0  0  0  0  0  0  0  0  0
    7.2342    0.6130    3.5086 H   0  0  0  0  0  0  0  0  0  0  0  0
    8.3739   -1.2723    3.9560 H   0  0  0  0  0  0  0  0  0  0  0  0
   10.0146   -0.4711    3.6402 H   0  0  0  0  0  0  0  0  0  0  0  0
    9.5002   -0.6143    1.1838 H   0  0  0  0  0  0  0  0  0  0  0  0
    9.4355   -2.2164    1.9584 H   0  0  0  0  0  0  0  0  0  0  0  0
    4.4704    0.7255   -0.1292 H   0  0  0  0  0  0  0  0  0  0  0  0
    3.1181   -1.8685    0.6066 H   0  0  0  0  0  0  0  0  0  0  0  0
    2.8308    1.5988   -0.8999 H   0  0  0  0  0  0  0  0  0  0  0  0
    0.8112    2.5121   -1.8389 H   0  0  0  0  0  0  0  0  0  0  0  0
   -5.5793   -2.2187   -4.0777 H   0  0  0  0  0  0  0  0  0  0  0  0
   -4.6226   -2.4253   -7.0660 H   0  0  0  0  0  0  0  0  0  0  0  0
   -1.8964   -1.4870   -6.1055 H   0  0  0  0  0  0  0  0  0  0  0  0
   -1.2127    0.0161   -4.3974 H   0  0  0  0  0  0  0  0  0  0  0  0
   -2.3002    3.0134   -0.6978 H   0  0  0  0  0  0  0  0  0  0  0  0
   -1.9347    4.1904    1.3795 H   0  0  0  0  0  0  0  0  0  0  0  0
   -3.0872    3.4978    3.4452 H   0  0  0  0  0  0  0  0  0  0  0  0
   -4.5530    1.6017    3.3655 H   0  0  0  0  0  0  0  0  0  0  0  0
   -4.9585   -0.8101    0.7373 H   0  0  0  0  0  0  0  0  0  0  0  0
   -4.4338   -0.4003    3.3116 H   0  0  0  0  0  0  0  0  0  0  0  0
   -6.0840    0.3004    3.3541 H   0  0  0  0  0  0  0  0  0  0  0  0
   -5.9179   -1.3539    2.7677 H   0  0  0  0  0  0  0  0  0  0  0  0
   -7.1428   -0.3291    0.4899 H   0  0  0  0  0  0  0  0  0  0  0  0
   -6.5473    1.4261    0.3086 H   0  0  0  0  0  0  0  0  0  0  0  0
   -7.1851    0.7386    1.8846 H   0  0  0  0  0  0  0  0  0  0  0  0
   -1.2984   -1.0766   -0.9694 H   0  0  0  0  0  0  0  0  0  0  0  0
    0.7991   -1.9980   -0.0047 H   0  0  0  0  0  0  0  0  0  0  0  0
  1  2  1  0
  2  3  1  0
  3  4  1  0
  4  5  2  0
  5  6  1  0
  6  7  2  0
  7  8  1  0
  8  9  2  0
  9 10  1  0
 10 11  2  0
 11 12  1  0
 12 13  2  0
 13 14  1  0
 14 15  1  0
 15 16  2  0
 16 17  1  0
 17 18  1  0
 18 19  2  0
 19 20  1  0
 20 21  1  0
 20 22  2  0
 22 23  1  0
 23 24  2  0
 16 25  1  0
 25 26  2  0
 26 27  1  0
 27 28  2  0
 28 29  1  0
 29 30  2  0
 30 31  1  0
 31 32  1  0
 31 33  1  0
 13 34  1  0
 34 35  2  0
  7 36  1  0
 36  4  1  0
 35 10  1  0
 24 15  1  0
 30 25  1  0
 24 18  1  0
  1 37  1  0
  1 38  1  0
  1 39  1  0
  2 40  1  0
  2 41  1  0
  3 42  1  0
  3 43  1  0
  8 44  1  0
  9 45  1  0
 11 46  1  0
 12 47  1  0
 19 48  1  0
 21 49  1  0
 22 50  1  0
 23 51  1  0
 26 52  1  0
 27 53  1  0
 28 54  1  0
 29 55  1  0
 31 56  1  0
 32 57  1  0
 32 58  1  0
 32 59  1  0
 33 60  1  0
 33 61  1  0
 33 62  1  0
 34 63  1  0
 35 64  1  0
M  END
$$$$
[H]OC(=O)/C([H])=C(\[H])c1c([H])c([H])c(Oc2c(-c3c([H])c([H])c([H])c([H])c3C(=O)C([H])([H])[H])sc3c([H])c(O[H])c([H])c([H])c23)c([H])c1[H]
     RDKit          3D

 49 52  0  0  0  0  0  0  0  0999 V2000
   -3.3268   -2.5898    2.1871 C   0  0  0  0  0  0  0  0  0  0  0  0
   -3.3020   -1.5144    1.1767 C   0  0  0  0  0  0  0  0  0  0  0  0
   -3.6050   -0.3725    1.5371 O   0  0  0  0  0  0  0  0  0  0  0  0
   -2.9271   -1.8169   -0.1964 C   0  0  0  0  0  0  0  0  0  0  0  0
   -2.9835   -3.1748   -0.5663 C   0  0  0  0  0  0  0  0  0  0  0  0
   -2.8557   -3.5925   -1.8557 C   0  0  0  0  0  0  0  0  0  0  0  0
   -2.6647   -2.6387   -2.8241 C   0  0  0  0  0  0  0  0  0  0  0  0
   -2.6030   -1.3125   -2.4871 C   0  0  0  0  0  0  0  0  0  0  0  0
   -2.7302   -0.8732   -1.1558 C   0  0  0  0  0  0  0  0  0  0  0  0
   -2.4288    0.5491   -0.8812 C   0  0  0  0  0  0  0  0  0  0  0  0
   -3.1259    1.8905   -1.7264 S   0  0  0  0  0  0  0  0  0  0  0  0
   -2.2610    3.1488   -0.9883 C   0  0  0  0  0  0  0  0  0  0  0  0
   -2.2793    4.5524   -1.1357 C   0  0  0  0  0  0  0  0  0  0  0  0
   -1.4578    5.3484   -0.3728 C   0  0  0  0  0  0  0  0  0  0  0  0
   -1.4836    6.7209   -0.5257 O   0  0  0  0  0  0  0  0  0  0  0  0
   -0.6453    4.7019    0.5139 C   0  0  0  0  0  0  0  0  0  0  0  0
   -0.6225    3.3522    0.6604 C   0  0  0  0  0  0  0  0  0  0  0  0
   -1.4488    2.5115   -0.1059 C   0  0  0  0  0  0  0  0  0  0  0  0
   -1.5224    1.1489   -0.0412 C   0  0  0  0  0  0  0  0  0  0  0  0
   -0.7286    0.3193    0.8107 O   0  0  0  0  0  0  0  0  0  0  0  0
    0.5283   -0.1168    0.6452 C   0  0  0  0  0  0  0  0  0  0  0  0
    0.8691   -1.0697   -0.2738 C   0  0  0  0  0  0  0  0  0  0  0  0
    2.2026   -1.4824   -0.3900 C   0  0  0  0  0  0  0  0  0  0  0  0
    3.1895   -0.9462    0.4074 C   0  0  0  0  0  0  0  0  0  0  0  0
    4.5522   -1.4052    0.2493 C   0  0  0  0  0  0  0  0  0  0  0  0
    5.5942   -1.0013    0.9208 C   0  0  0  0  0  0  0  0  0  0  0  0
    6.9152   -1.5661    0.6417 C   0  0  0  0  0  0  0  0  0  0  0  0
    8.0254   -1.1549    1.3371 O   0  0  0  0  0  0  0  0  0  0  0  0
    7.0530   -2.4432   -0.2463 O   0  0  0  0  0  0  0  0  0  0  0  0
    2.8314    0.0073    1.3232 C   0  0  0  0  0  0  0  0  0  0  0  0
    1.5276    0.4008    1.4266 C   0  0  0  0  0  0  0  0  0  0  0  0
   -4.3023   -3.1358    2.0668 H   0  0  0  0  0  0  0  0  0  0  0  0
   -2.4798   -3.2901    2.0252 H   0  0  0  0  0  0  0  0  0  0  0  0
   -3.2863   -2.1369    3.1971 H   0  0  0  0  0  0  0  0  0  0  0  0
   -3.1332   -3.9073    0.2007 H   0  0  0  0  0  0  0  0  0  0  0  0
   -2.8990   -4.6459   -2.1441 H   0  0  0  0  0  0  0  0  0  0  0  0
   -2.5631   -2.9278   -3.8476 H   0  0  0  0  0  0  0  0  0  0  0  0
   -2.4550   -0.5476   -3.2238 H   0  0  0  0  0  0  0  0  0  0  0  0
   -2.9582    4.9270   -1.8609 H   0  0  0  0  0  0  0  0  0  0  0  0
   -0.8614    7.1543   -1.2006 H   0  0  0  0  0  0  0  0  0  0  0  0
    0.0282    5.3071    1.1446 H   0  0  0  0  0  0  0  0  0  0  0  0
    0.0376    2.9579    1.3954 H   0  0  0  0  0  0  0  0  0  0  0  0
    0.1387   -1.5500   -0.9481 H   0  0  0  0  0  0  0  0  0  0  0  0
    2.4582   -2.2457   -1.1303 H   0  0  0  0  0  0  0  0  0  0  0  0
    4.7545   -2.1778   -0.5137 H   0  0  0  0  0  0  0  0  0  0  0  0
    5.4612   -0.2511    1.6767 H   0  0  0  0  0  0  0  0  0  0  0  0
    8.8403   -0.7170    0.9425 H   0  0  0  0  0  0  0  0  0  0  0  0
    3.6142    0.4470    1.9709 H   0  0  0  0  0  0  0  0  0  0  0  0
    1.3189    1.1589    2.1849 H   0  0  0  0  0  0  0  0  0  0  0  0
  1  2  1  0
  2  3  2  0
  2  4  1  0
  4  5  2  0
  5  6  1  0
  6  7  2  0
  7  8  1  0
  8  9  2  0
  9 10  1  0
 10 11  1  0
 11 12  1  0
 12 13  2  0
 13 14  1  0
 14 15  1  0
 14 16  2  0
 16 17  1  0
 17 18  2  0
 18 19  1  0
 19 20  1  0
 20 21  1  0
 21 22  2  0
 22 23  1  0
 23 24  2  0
 24 25  1  0
 25 26  2  0
 26 27  1  0
 27 28  1  0
 27 29  2  0
 24 30  1  0
 30 31  2  0
  9  4  1  0
 19 10  2  0
 31 21  1  0
 18 12  1  0
  1 32  1  0
  1 33  1  0
  1 34  1  0
  5 35  1  0
  6 36  1  0
  7 37  1  0
  8 38  1  0
 13 39  1  0
 15 40  1  0
 16 41  1  0
 17 42  1  0
 22 43  1  0
 23 44  1  0
 25 45  1  0
 26 46  1  0
 28 47  1  0
 30 48  1  0
 31 49  1  0
M  END
$$$$
[H]c1c([H])c(N([H])C([H])([H])C([H])([H])N([H])C([H])([H])C([H])([H])C([H])([H])F)c(F)c([C@]2([H])c3c(c4c([H])c([H])c([H])c([H])c4n3[H])C([H])([H])[C@@]([H])(C([H])([H])[H])N2C([H])([H])C(F)(F)F)c1F
     RDKit          3D

 63 66  0  0  0  0  0  0  0  0999 V2000
   -4.0690   -2.2754   -1.6730 C   0  0  0  0  0  0  0  0  0  0  0  0
   -3.5749   -2.3716   -0.2508 C   0  0  2  0  0  0  0  0  0  0  0  0
   -4.5591   -1.6173    0.6666 C   0  0  0  0  0  0  0  0  0  0  0  0
   -4.3229   -0.1845    0.4273 C   0  0  0  0  0  0  0  0  0  0  0  0
   -3.1245    0.3252   -0.0372 C   0  0  0  0  0  0  0  0  0  0  0  0
   -3.2481    1.6581   -0.1431 N   0  0  0  0  0  0  0  0  0  0  0  0
   -4.4947    2.0481    0.2384 C   0  0  0  0  0  0  0  0  0  0  0  0
   -5.0922    3.2860    0.3069 C   0  0  0  0  0  0  0  0  0  0  0  0
   -6.3922    3.3623    0.7430 C   0  0  0  0  0  0  0  0  0  0  0  0
   -7.0840    2.2114    1.1060 C   0  0  0  0  0  0  0  0  0  0  0  0
   -6.4761    0.9765    1.0336 C   0  0  0  0  0  0  0  0  0  0  0  0
   -5.1668    0.8927    0.5955 C   0  0  0  0  0  0  0  0  0  0  0  0
   -1.9801   -0.5924   -0.3186 C   0  0  2  0  0  0  0  0  0  0  0  0
   -2.2554   -1.9479   -0.0991 N   0  0  0  0  0  0  0  0  0  0  0  0
   -1.2676   -2.8684    0.1941 C   0  0  0  0  0  0  0  0  0  0  0  0
   -0.9706   -3.8220   -0.9359 C   0  0  0  0  0  0  0  0  0  0  0  0
   -2.0437   -4.5874   -1.3233 F   0  0  0  0  0  0  0  0  0  0  0  0
    0.0342   -4.7245   -0.5743 F   0  0  0  0  0  0  0  0  0  0  0  0
   -0.4609   -3.1393   -2.0420 F   0  0  0  0  0  0  0  0  0  0  0  0
   -0.7192   -0.1105    0.3068 C   0  0  0  0  0  0  0  0  0  0  0  0
   -0.5994   -0.0429    1.6733 C   0  0  0  0  0  0  0  0  0  0  0  0
   -1.6032   -0.3934    2.4977 F   0  0  0  0  0  0  0  0  0  0  0  0
    0.5732    0.3933    2.2421 C   0  0  0  0  0  0  0  0  0  0  0  0
    1.6473    0.7697    1.4630 C   0  0  0  0  0  0  0  0  0  0  0  0
    1.5666    0.7161    0.0903 C   0  0  0  0  0  0  0  0  0  0  0  0
    2.6671    1.0792   -0.7276 N   0  0  0  0  0  0  0  0  0  0  0  0
    3.9136    1.5713   -0.1625 C   0  0  0  0  0  0  0  0  0  0  0  0
    4.9444    1.7551   -1.2563 C   0  0  0  0  0  0  0  0  0  0  0  0
    6.2006    2.2402   -0.7651 N   0  0  0  0  0  0  0  0  0  0  0  0
    6.9197    1.3209    0.0595 C   0  0  0  0  0  0  0  0  0  0  0  0
    7.4263    0.0986   -0.6745 C   0  0  0  0  0  0  0  0  0  0  0  0
    8.1477   -0.7499    0.3578 C   0  0  0  0  0  0  0  0  0  0  0  0
    7.2731   -1.1043    1.3632 F   0  0  0  0  0  0  0  0  0  0  0  0
    0.3688    0.2719   -0.4430 C   0  0  0  0  0  0  0  0  0  0  0  0
    0.2976    0.2228   -1.8208 F   0  0  0  0  0  0  0  0  0  0  0  0
   -4.7860   -1.4432   -1.7915 H   0  0  0  0  0  0  0  0  0  0  0  0
   -3.2198   -2.1092   -2.3902 H   0  0  0  0  0  0  0  0  0  0  0  0
   -4.5944   -3.2113   -1.9389 H   0  0  0  0  0  0  0  0  0  0  0  0
   -3.6802   -3.4393    0.1012 H   0  0  0  0  0  0  0  0  0  0  0  0
   -5.5660   -1.9561    0.3469 H   0  0  0  0  0  0  0  0  0  0  0  0
   -4.4328   -1.9356    1.7198 H   0  0  0  0  0  0  0  0  0  0  0  0
   -2.5404    2.3634   -0.4617 H   0  0  0  0  0  0  0  0  0  0  0  0
   -4.5610    4.1780    0.0267 H   0  0  0  0  0  0  0  0  0  0  0  0
   -6.9428    4.3129    0.8271 H   0  0  0  0  0  0  0  0  0  0  0  0
   -8.1176    2.2407    1.4584 H   0  0  0  0  0  0  0  0  0  0  0  0
   -6.9917    0.0568    1.3102 H   0  0  0  0  0  0  0  0  0  0  0  0
   -1.8246   -0.4786   -1.4371 H   0  0  0  0  0  0  0  0  0  0  0  0
   -1.6230   -3.5340    1.0418 H   0  0  0  0  0  0  0  0  0  0  0  0
   -0.2850   -2.4707    0.5169 H   0  0  0  0  0  0  0  0  0  0  0  0
    0.6930    0.4562    3.3368 H   0  0  0  0  0  0  0  0  0  0  0  0
    2.5998    1.1222    1.8753 H   0  0  0  0  0  0  0  0  0  0  0  0
    2.5776    0.9908   -1.7555 H   0  0  0  0  0  0  0  0  0  0  0  0
    3.7435    2.5412    0.3790 H   0  0  0  0  0  0  0  0  0  0  0  0
    4.2908    0.8073    0.5424 H   0  0  0  0  0  0  0  0  0  0  0  0
    4.5981    2.4305   -2.0541 H   0  0  0  0  0  0  0  0  0  0  0  0
    5.0619    0.7495   -1.7214 H   0  0  0  0  0  0  0  0  0  0  0  0
    6.7645    2.7150   -1.4826 H   0  0  0  0  0  0  0  0  0  0  0  0
    7.8176    1.8541    0.4487 H   0  0  0  0  0  0  0  0  0  0  0  0
    6.2650    0.9785    0.8800 H   0  0  0  0  0  0  0  0  0  0  0  0
    8.0963    0.4182   -1.4837 H   0  0  0  0  0  0  0  0  0  0  0  0
    6.6063   -0.4934   -1.0952 H   0  0  0  0  0  0  0  0  0  0  0  0
    8.5847   -1.6348   -0.1467 H   0  0  0  0  0  0  0  0  0  0  0  0
    8.9907   -0.1769    0.8291 H   0  0  0  0  0  0  0  0  0  0  0  0
  1  2  1  0
  2  3  1  0
  3  4  1  0
  4  5  2  0
  5  6  1  0
  6  7  1  0
  7  8  2  0
  8  9  1  0
  9 10  2  0
 10 11  1  0
 11 12  2  0
  5 13  1  0
 13 14  1  0
 14 15  1  0
 15 16  1  0
 16 17  1  0
 16 18  1  0
 16 19  1  0
 13 20  1  0
 20 21  2  0
 21 22  1  0
 21 23  1  0
 23 24  2  0
 24 25  1  0
 25 26  1  0
 26 27  1  0
 27 28  1  0
 28 29  1  0
 29 30  1  0
 30 31  1  0
 31 32  1  0
 32 33  1  0
 25 34  2  0
 34 35  1  0
 14  2  1  0
 34 20  1  0
 12  4  1  0
 12  7  1  0
  1 36  1  0
  1 37  1  0
  1 38  1  0
  2 39  1  1
  3 40  1  0
  3 41  1  0
  6 42  1  0
  8 43  1  0
  9 44  1  0
 10 45  1  0
 11 46  1  0
 13 47  1  6
 15 48  1  0
 15 49  1  0
 23 50  1  0
 24 51  1  0
 26 52  1  0
 27 53  1  0
 27 54  1  0
 28 55  1  0
 28 56  1  0
 29 57  1  0
 30 58  1  0
 30 59  1  0
 31 60  1  0
 31 61  1  0
 32 62  1  0
 32 63  1  0
M  END
$$$$
[H]Oc1c([H])c([H])c2c(c1[H])C([H])([H])C([H])([H])[C@@]([H])(c1c([H])c([H])c([H])c([H])c1[H])[C@@]2([H])c1c([H])c([H])c(N([H])C([H])([H])C([H])([H])N2C([H])([H])C([H])([H])[C@@]([H])(C([H])([H])F)C2([H])[H])c([H])c1[H]
     RDKit          3D

 66 70  0  0  0  0  0  0  0  0999 V2000
   -5.8449   -5.4166   -0.4506 O   0  0  0  0  0  0  0  0  0  0  0  0
   -5.2103   -4.1735   -0.5096 C   0  0  0  0  0  0  0  0  0  0  0  0
   -4.2563   -3.9151   -1.4603 C   0  0  0  0  0  0  0  0  0  0  0  0
   -3.6558   -2.6809   -1.4856 C   0  0  0  0  0  0  0  0  0  0  0  0
   -3.9921   -1.6830   -0.5679 C   0  0  0  0  0  0  0  0  0  0  0  0
   -3.3044   -0.3599   -0.6538 C   0  0  1  0  0  0  0  0  0  0  0  0
   -4.2360    0.7141   -0.1788 C   0  0  1  0  0  0  0  0  0  0  0  0
   -4.9289    0.4620    1.1093 C   0  0  0  0  0  0  0  0  0  0  0  0
   -5.3404   -0.9417    1.3709 C   0  0  0  0  0  0  0  0  0  0  0  0
   -4.9307   -1.9307    0.3711 C   0  0  0  0  0  0  0  0  0  0  0  0
   -5.5381   -3.1915    0.3901 C   0  0  0  0  0  0  0  0  0  0  0  0
   -3.7149    2.0730   -0.3088 C   0  0  0  0  0  0  0  0  0  0  0  0
   -3.7756    2.7117   -1.5621 C   0  0  0  0  0  0  0  0  0  0  0  0
   -3.3127    3.9947   -1.7356 C   0  0  0  0  0  0  0  0  0  0  0  0
   -2.7734    4.6940   -0.6792 C   0  0  0  0  0  0  0  0  0  0  0  0
   -2.7118    4.0772    0.5435 C   0  0  0  0  0  0  0  0  0  0  0  0
   -3.1788    2.7718    0.7356 C   0  0  0  0  0  0  0  0  0  0  0  0
   -1.9418   -0.3489   -0.1719 C   0  0  0  0  0  0  0  0  0  0  0  0
   -0.8913   -0.4043   -1.0896 C   0  0  0  0  0  0  0  0  0  0  0  0
    0.4170   -0.4082   -0.6567 C   0  0  0  0  0  0  0  0  0  0  0  0
    0.7166   -0.3576    0.6843 C   0  0  0  0  0  0  0  0  0  0  0  0
    2.0751   -0.3658    1.0778 N   0  0  0  0  0  0  0  0  0  0  0  0
    3.1625   -0.4863    0.1296 C   0  0  0  0  0  0  0  0  0  0  0  0
    4.4622   -0.4449    0.8493 C   0  0  0  0  0  0  0  0  0  0  0  0
    5.6116   -0.5603    0.0083 N   0  0  0  0  0  0  0  0  0  0  0  0
    5.8539    0.5413   -0.8659 C   0  0  0  0  0  0  0  0  0  0  0  0
    7.3476    0.3530   -1.1675 C   0  0  0  0  0  0  0  0  0  0  0  0
    7.8767    0.1494    0.2442 C   0  0  1  0  0  0  0  0  0  0  0  0
    8.0434    1.4667    0.9649 C   0  0  0  0  0  0  0  0  0  0  0  0
    8.9325    2.2638    0.2789 F   0  0  0  0  0  0  0  0  0  0  0  0
    6.7965   -0.6970    0.8540 C   0  0  0  0  0  0  0  0  0  0  0  0
   -0.2978   -0.3037    1.5868 C   0  0  0  0  0  0  0  0  0  0  0  0
   -1.6278   -0.2997    1.1548 C   0  0  0  0  0  0  0  0  0  0  0  0
   -6.7014   -5.5947   -0.9698 H   0  0  0  0  0  0  0  0  0  0  0  0
   -3.9990   -4.6965   -2.1738 H   0  0  0  0  0  0  0  0  0  0  0  0
   -2.8976   -2.4817   -2.2434 H   0  0  0  0  0  0  0  0  0  0  0  0
   -3.2673   -0.1908   -1.8015 H   0  0  0  0  0  0  0  0  0  0  0  0
   -5.0886    0.6696   -0.9652 H   0  0  0  0  0  0  0  0  0  0  0  0
   -4.4325    0.8594    2.0174 H   0  0  0  0  0  0  0  0  0  0  0  0
   -5.8944    1.0669    1.0667 H   0  0  0  0  0  0  0  0  0  0  0  0
   -6.4601   -1.0616    1.4856 H   0  0  0  0  0  0  0  0  0  0  0  0
   -4.9579   -1.2857    2.3795 H   0  0  0  0  0  0  0  0  0  0  0  0
   -6.2965   -3.3756    1.1579 H   0  0  0  0  0  0  0  0  0  0  0  0
   -4.2021    2.1444   -2.3774 H   0  0  0  0  0  0  0  0  0  0  0  0
   -3.3588    4.4869   -2.6984 H   0  0  0  0  0  0  0  0  0  0  0  0
   -2.4003    5.7175   -0.8030 H   0  0  0  0  0  0  0  0  0  0  0  0
   -2.2975    4.5888    1.3964 H   0  0  0  0  0  0  0  0  0  0  0  0
   -3.1158    2.3398    1.7121 H   0  0  0  0  0  0  0  0  0  0  0  0
   -1.0924   -0.4461   -2.1665 H   0  0  0  0  0  0  0  0  0  0  0  0
    1.1974   -0.4511   -1.4046 H   0  0  0  0  0  0  0  0  0  0  0  0
    2.3330   -0.2795    2.1049 H   0  0  0  0  0  0  0  0  0  0  0  0
    3.0642    0.2772   -0.6702 H   0  0  0  0  0  0  0  0  0  0  0  0
    3.0054   -1.4798   -0.3754 H   0  0  0  0  0  0  0  0  0  0  0  0
    4.5693    0.4292    1.4973 H   0  0  0  0  0  0  0  0  0  0  0  0
    4.4836   -1.3375    1.5383 H   0  0  0  0  0  0  0  0  0  0  0  0
    5.7646    1.5337   -0.4107 H   0  0  0  0  0  0  0  0  0  0  0  0
    5.3516    0.4581   -1.8505 H   0  0  0  0  0  0  0  0  0  0  0  0
    7.7822    1.2046   -1.6839 H   0  0  0  0  0  0  0  0  0  0  0  0
    7.5126   -0.6280   -1.6910 H   0  0  0  0  0  0  0  0  0  0  0  0
    8.8580   -0.3589    0.2556 H   0  0  0  0  0  0  0  0  0  0  0  0
    8.4213    1.2403    1.9800 H   0  0  0  0  0  0  0  0  0  0  0  0
    7.0968    2.0271    1.0565 H   0  0  0  0  0  0  0  0  0  0  0  0
    6.5596   -0.3991    1.8995 H   0  0  0  0  0  0  0  0  0  0  0  0
    7.1170   -1.7595    0.7759 H   0  0  0  0  0  0  0  0  0  0  0  0
   -0.1222   -0.2632    2.6523 H   0  0  0  0  0  0  0  0  0  0  0  0
   -2.3636   -0.2570    1.9464 H   0  0  0  0  0  0  0  0  0  0  0  0
  1  2  1  0
  2  3  2  0
  3  4  1  0
  4  5  2  0
  5  6  1  0
  6  7  1  0
  7  8  1  0
  8  9  1  0
  9 10  1  0
 10 11  2  0
  7 12  1  0
 12 13  2  0
 13 14  1  0
 14 15  2  0
 15 16  1  0
 16 17  2  0
  6 18  1  0
 18 19  2  0
 19 20  1  0
 20 21  2  0
 21 22  1  0
 22 23  1  0
 23 24  1  0
 24 25  1  0
 25 26  1  0
 26 27  1  0
 27 28  1  0
 28 29  1  0
 29 30  1  0
 28 31  1  0
 21 32  1  0
 32 33  2  0
 11  2  1  0
 17 12  1  0
 33 18  1  0
 10  5  1  0
 31 25  1  0
  1 34  1  0
  3 35  1  0
  4 36  1  0
  6 37  1  6
  7 38  1  6
  8 39  1  0
  8 40  1  0
  9 41  1  0
  9 42  1  0
 11 43  1  0
 13 44  1  0
 14 45  1  0
 15 46  1  0
 16 47  1  0
 17 48  1  0
 19 49  1  0
 20 50  1  0
 22 51  1  0
 23 52  1  0
 23 53  1  0
 24 54  1  0
 24 55  1  0
 26 56  1  0
 26 57  1  0
 27 58  1  0
 27 59  1  0
 28 60  1  6
 29 61  1  0
 29 62  1  0
 31 63  1  0
 31 64  1  0
 32 65  1  0
 33 66  1  0
M  END
$$$$
[H]Oc1c([H])c([H])c(Oc2c(-c3c([H])c([H])c(F)c([H])c3[H])sc3c([H])c(O[H])c([H])c([H])c23)c([H])c1[H]
     RDKit          3D

 38 41  0  0  0  0  0  0  0  0999 V2000
    5.0116   -2.1461    0.4321 O   0  0  0  0  0  0  0  0  0  0  0  0
    3.7794   -1.6813   -0.0432 C   0  0  0  0  0  0  0  0  0  0  0  0
    3.3427   -2.0763   -1.2963 C   0  0  0  0  0  0  0  0  0  0  0  0
    2.1287   -1.6089   -1.7461 C   0  0  0  0  0  0  0  0  0  0  0  0
    1.3651   -0.7715   -0.9757 C   0  0  0  0  0  0  0  0  0  0  0  0
    0.1425   -0.2727   -1.3743 O   0  0  0  0  0  0  0  0  0  0  0  0
   -0.6130    0.5989   -0.5288 C   0  0  0  0  0  0  0  0  0  0  0  0
   -1.6179    0.0824    0.2272 C   0  0  0  0  0  0  0  0  0  0  0  0
   -2.2141    1.4865    1.0711 S   0  0  0  0  0  0  0  0  0  0  0  0
   -1.1675    2.6526    0.4245 C   0  0  0  0  0  0  0  0  0  0  0  0
   -1.0388    4.0295    0.6268 C   0  0  0  0  0  0  0  0  0  0  0  0
   -0.0762    4.7514   -0.0485 C   0  0  0  0  0  0  0  0  0  0  0  0
    0.1040    6.1045    0.1035 O   0  0  0  0  0  0  0  0  0  0  0  0
    0.7222    4.0232   -0.9120 C   0  0  0  0  0  0  0  0  0  0  0  0
    0.6030    2.6801   -1.1149 C   0  0  0  0  0  0  0  0  0  0  0  0
   -0.3835    1.9401   -0.4228 C   0  0  0  0  0  0  0  0  0  0  0  0
   -2.1745   -1.2484    0.4184 C   0  0  0  0  0  0  0  0  0  0  0  0
   -3.0875   -1.4598    1.4646 C   0  0  0  0  0  0  0  0  0  0  0  0
   -3.6821   -2.6822    1.6854 C   0  0  0  0  0  0  0  0  0  0  0  0
   -3.3820   -3.7487    0.8595 C   0  0  0  0  0  0  0  0  0  0  0  0
   -3.9416   -4.9624    1.0415 F   0  0  0  0  0  0  0  0  0  0  0  0
   -2.4949   -3.5729   -0.1704 C   0  0  0  0  0  0  0  0  0  0  0  0
   -1.9078   -2.3111   -0.3662 C   0  0  0  0  0  0  0  0  0  0  0  0
    1.8340   -0.4026    0.2628 C   0  0  0  0  0  0  0  0  0  0  0  0
    3.0436   -0.8404    0.7650 C   0  0  0  0  0  0  0  0  0  0  0  0
    5.8567   -1.6231    0.2477 H   0  0  0  0  0  0  0  0  0  0  0  0
    3.9561   -2.7482   -1.9135 H   0  0  0  0  0  0  0  0  0  0  0  0
    1.7784   -1.9070   -2.7150 H   0  0  0  0  0  0  0  0  0  0  0  0
   -1.6807    4.5536    1.3070 H   0  0  0  0  0  0  0  0  0  0  0  0
   -0.4655    6.6509    0.7255 H   0  0  0  0  0  0  0  0  0  0  0  0
    1.4811    4.5982   -1.4431 H   0  0  0  0  0  0  0  0  0  0  0  0
    1.2706    2.2307   -1.8005 H   0  0  0  0  0  0  0  0  0  0  0  0
   -3.3025   -0.6153    2.0930 H   0  0  0  0  0  0  0  0  0  0  0  0
   -4.3893   -2.8160    2.5085 H   0  0  0  0  0  0  0  0  0  0  0  0
   -2.2377   -4.3871   -0.8359 H   0  0  0  0  0  0  0  0  0  0  0  0
   -1.2346   -2.2114   -1.2030 H   0  0  0  0  0  0  0  0  0  0  0  0
    1.2543    0.2591    0.8979 H   0  0  0  0  0  0  0  0  0  0  0  0
    3.4173   -0.5484    1.7483 H   0  0  0  0  0  0  0  0  0  0  0  0
  1  2  1  0
  2  3  2  0
  3  4  1  0
  4  5  2  0
  5  6  1  0
  6  7  1  0
  7  8  2  0
  8  9  1  0
  9 10  1  0
 10 11  2  0
 11 12  1  0
 12 13  1  0
 12 14  2  0
 14 15  1  0
 15 16  2  0
  8 17  1  0
 17 18  2  0
 18 19  1  0
 19 20  2  0
 20 21  1  0
 20 22  1  0
 22 23  2  0
  5 24  1  0
 24 25  2  0
 25  2  1  0
 16  7  1  0
 23 17  1  0
 16 10  1  0
  1 26  1  0
  3 27  1  0
  4 28  1  0
 11 29  1  0
 13 30  1  0
 14 31  1  0
 15 32  1  0
 18 33  1  0
 19 34  1  0
 22 35  1  0
 23 36  1  0
 24 37  1  0
 25 38  1  0
M  END
$$$$
[H]Oc1c([H])c([H])c(-c2sc3c([H])c(O[H])c([H])c([H])c3c2C(=O)c2c([H])c([H])c(OC([H])([H])C([H])([H])N([H])C([H])([H])C([H])([H])C([H])([H])C([H])([H])C([H])([H])C([H])([H])C([H])([H])C([H])([H])C([H])([H])C([H])([H])C([H])([H])C([H])([H])C([H])([H])C([H])([H])C([H])([H])C([H])([H])[H])c([H])c2[H])c([H])c1[H]
     RDKit          3D

 96 99  0  0  0  0  0  0  0  0999 V2000
   12.6278   -1.0571    1.0411 C   0  0  0  0  0  0  0  0  0  0  0  0
   12.8265   -0.0084    0.0344 C   0  0  0  0  0  0  0  0  0  0  0  0
   11.6646    0.8046   -0.3704 C   0  0  0  0  0  0  0  0  0  0  0  0
   10.5078    0.1799   -1.0182 C   0  0  0  0  0  0  0  0  0  0  0  0
    9.6822   -0.7662   -0.2356 C   0  0  0  0  0  0  0  0  0  0  0  0
    9.0101   -0.0955    0.9568 C   0  0  0  0  0  0  0  0  0  0  0  0
    8.0834    1.0026    0.5749 C   0  0  0  0  0  0  0  0  0  0  0  0
    6.9365    0.5365   -0.2692 C   0  0  0  0  0  0  0  0  0  0  0  0
    6.1010   -0.4454    0.4822 C   0  0  0  0  0  0  0  0  0  0  0  0
    4.9353   -0.9215   -0.3379 C   0  0  0  0  0  0  0  0  0  0  0  0
    4.0737    0.2160   -0.7696 C   0  0  0  0  0  0  0  0  0  0  0  0
    3.5369    0.9543    0.4513 C   0  0  0  0  0  0  0  0  0  0  0  0
    2.7008    2.1124    0.0385 C   0  0  0  0  0  0  0  0  0  0  0  0
    1.4783    1.9219   -0.7303 C   0  0  0  0  0  0  0  0  0  0  0  0
    0.2966    1.2745   -0.1776 C   0  0  0  0  0  0  0  0  0  0  0  0
    0.2260   -0.1126    0.2772 C   0  0  0  0  0  0  0  0  0  0  0  0
    0.4905   -1.1515   -0.6273 N   0  0  0  0  0  0  0  0  0  0  0  0
   -0.3095   -1.3343   -1.7581 C   0  0  0  0  0  0  0  0  0  0  0  0
   -1.7737   -1.6921   -1.5777 C   0  0  0  0  0  0  0  0  0  0  0  0
   -2.4631   -0.7445   -0.8854 O   0  0  0  0  0  0  0  0  0  0  0  0
   -3.7182   -0.4725   -0.5080 C   0  0  0  0  0  0  0  0  0  0  0  0
   -3.8838    0.6914    0.2830 C   0  0  0  0  0  0  0  0  0  0  0  0
   -5.1334    1.0390    0.7042 C   0  0  0  0  0  0  0  0  0  0  0  0
   -6.2748    0.3287    0.4148 C   0  0  0  0  0  0  0  0  0  0  0  0
   -6.1035   -0.7902   -0.3498 C   0  0  0  0  0  0  0  0  0  0  0  0
   -4.8358   -1.1858   -0.8056 C   0  0  0  0  0  0  0  0  0  0  0  0
   -7.5003    0.7697    0.9698 C   0  0  0  0  0  0  0  0  0  0  0  0
   -7.4147    1.3419    2.1337 O   0  0  0  0  0  0  0  0  0  0  0  0
   -8.8850    0.6762    0.3955 C   0  0  0  0  0  0  0  0  0  0  0  0
   -9.6589   -0.4370    0.4865 C   0  0  0  0  0  0  0  0  0  0  0  0
  -11.1137    0.0330   -0.3396 S   0  0  0  0  0  0  0  0  0  0  0  0
  -10.6884    1.6214   -0.7622 C   0  0  0  0  0  0  0  0  0  0  0  0
  -11.3759    2.6449   -1.4354 C   0  0  0  0  0  0  0  0  0  0  0  0
  -10.7605    3.8853   -1.6167 C   0  0  0  0  0  0  0  0  0  0  0  0
  -11.4598    4.8794   -2.2810 O   0  0  0  0  0  0  0  0  0  0  0  0
   -9.5000    4.0173   -1.1154 C   0  0  0  0  0  0  0  0  0  0  0  0
   -8.8408    3.0136   -0.4615 C   0  0  0  0  0  0  0  0  0  0  0  0
   -9.4365    1.7544   -0.2621 C   0  0  0  0  0  0  0  0  0  0  0  0
   -9.4600   -1.7685    1.0752 C   0  0  0  0  0  0  0  0  0  0  0  0
   -8.5390   -2.1188    1.9907 C   0  0  0  0  0  0  0  0  0  0  0  0
   -8.4179   -3.4315    2.3964 C   0  0  0  0  0  0  0  0  0  0  0  0
   -9.2084   -4.4362    1.9042 C   0  0  0  0  0  0  0  0  0  0  0  0
   -9.0710   -5.7498    2.3220 O   0  0  0  0  0  0  0  0  0  0  0  0
  -10.1562   -4.0724    0.9625 C   0  0  0  0  0  0  0  0  0  0  0  0
  -10.2864   -2.7718    0.5508 C   0  0  0  0  0  0  0  0  0  0  0  0
   12.4574   -2.0804    0.6209 H   0  0  0  0  0  0  0  0  0  0  0  0
   13.6093   -1.2036    1.6269 H   0  0  0  0  0  0  0  0  0  0  0  0
   11.8458   -0.8034    1.7620 H   0  0  0  0  0  0  0  0  0  0  0  0
   13.5989    0.7131    0.4457 H   0  0  0  0  0  0  0  0  0  0  0  0
   13.2541   -0.4388   -0.9370 H   0  0  0  0  0  0  0  0  0  0  0  0
   12.0366    1.6885   -1.0128 H   0  0  0  0  0  0  0  0  0  0  0  0
   11.3327    1.3549    0.5776 H   0  0  0  0  0  0  0  0  0  0  0  0
    9.8738    0.9922   -1.4892 H   0  0  0  0  0  0  0  0  0  0  0  0
   10.8739   -0.3919   -1.9252 H   0  0  0  0  0  0  0  0  0  0  0  0
    8.8158   -1.0984   -0.8830 H   0  0  0  0  0  0  0  0  0  0  0  0
   10.2537   -1.6162    0.1096 H   0  0  0  0  0  0  0  0  0  0  0  0
    9.8208    0.3516    1.5938 H   0  0  0  0  0  0  0  0  0  0  0  0
    8.4929   -0.8599    1.5348 H   0  0  0  0  0  0  0  0  0  0  0  0
    7.6440    1.3979    1.5258 H   0  0  0  0  0  0  0  0  0  0  0  0
    8.6082    1.8610    0.0915 H   0  0  0  0  0  0  0  0  0  0  0  0
    7.2758    0.1219   -1.2528 H   0  0  0  0  0  0  0  0  0  0  0  0
    6.3015    1.4395   -0.4803 H   0  0  0  0  0  0  0  0  0  0  0  0
    6.7289   -1.3416    0.7886 H   0  0  0  0  0  0  0  0  0  0  0  0
    5.7232    0.0114    1.4136 H   0  0  0  0  0  0  0  0  0  0  0  0
    5.2668   -1.4907   -1.2401 H   0  0  0  0  0  0  0  0  0  0  0  0
    4.3281   -1.6332    0.2800 H   0  0  0  0  0  0  0  0  0  0  0  0
    4.6192    0.9297   -1.4223 H   0  0  0  0  0  0  0  0  0  0  0  0
    3.2196   -0.1528   -1.3970 H   0  0  0  0  0  0  0  0  0  0  0  0
    3.0836    0.2216    1.1119 H   0  0  0  0  0  0  0  0  0  0  0  0
    4.4378    1.4181    0.9666 H   0  0  0  0  0  0  0  0  0  0  0  0
    3.4060    2.8305   -0.5049 H   0  0  0  0  0  0  0  0  0  0  0  0
    2.5081    2.7009    0.9952 H   0  0  0  0  0  0  0  0  0  0  0  0
    1.7909    1.4433   -1.7277 H   0  0  0  0  0  0  0  0  0  0  0  0
    1.1484    2.9645   -1.1000 H   0  0  0  0  0  0  0  0  0  0  0  0
    0.0129    1.9109    0.7577 H   0  0  0  0  0  0  0  0  0  0  0  0
   -0.6336    1.5168   -0.8318 H   0  0  0  0  0  0  0  0  0  0  0  0
   -0.8218   -0.2708    0.6921 H   0  0  0  0  0  0  0  0  0  0  0  0
    0.9037   -0.2634    1.1651 H   0  0  0  0  0  0  0  0  0  0  0  0
    0.8962   -1.9750   -0.1984 H   0  0  0  0  0  0  0  0  0  0  0  0
    0.1958   -2.1517   -2.3834 H   0  0  0  0  0  0  0  0  0  0  0  0
   -0.2597   -0.4551   -2.4742 H   0  0  0  0  0  0  0  0  0  0  0  0
   -1.8563   -2.6786   -1.0535 H   0  0  0  0  0  0  0  0  0  0  0  0
   -2.2012   -1.8282   -2.5928 H   0  0  0  0  0  0  0  0  0  0  0  0
   -2.9989    1.2860    0.5344 H   0  0  0  0  0  0  0  0  0  0  0  0
   -5.2281    1.9360    1.3037 H   0  0  0  0  0  0  0  0  0  0  0  0
   -6.9101   -1.4402   -0.6561 H   0  0  0  0  0  0  0  0  0  0  0  0
   -4.7200   -2.0898   -1.4148 H   0  0  0  0  0  0  0  0  0  0  0  0
  -12.3544    2.4229   -1.7802 H   0  0  0  0  0  0  0  0  0  0  0  0
  -11.4123    4.9938   -3.2622 H   0  0  0  0  0  0  0  0  0  0  0  0
   -9.0156    4.9997   -1.2560 H   0  0  0  0  0  0  0  0  0  0  0  0
   -7.8508    3.2533   -0.1173 H   0  0  0  0  0  0  0  0  0  0  0  0
   -7.9010   -1.4012    2.4241 H   0  0  0  0  0  0  0  0  0  0  0  0
   -7.6646   -3.7043    3.1451 H   0  0  0  0  0  0  0  0  0  0  0  0
   -9.5951   -6.1095    3.1205 H   0  0  0  0  0  0  0  0  0  0  0  0
  -10.7961   -4.8679    0.5579 H   0  0  0  0  0  0  0  0  0  0  0  0
  -11.0535   -2.5488   -0.1998 H   0  0  0  0  0  0  0  0  0  0  0  0
  1  2  1  0
  2  3  1  0
  3  4  1  0
  4  5  1  0
  5  6  1  0
  6  7  1  0
  7  8  1  0
  8  9  1  0
  9 10  1  0
 10 11  1  0
 11 12  1  0
 12 13  1  0
 13 14  1  0
 14 15  1  0
 15 16  1  0
 16 17  1  0
 17 18  1  0
 18 19  1  0
 19 20  1  0
 20 21  1  0
 21 22  2  0
 22 23  1  0
 23 24  2  0
 24 25  1  0
 25 26  2  0
 24 27  1  0
 27 28  2  0
 27 29  1  0
 29 30  2  0
 30 31  1  0
 31 32  1  0
 32 33  2  0
 33 34  1  0
 34 35  1  0
 34 36  2  0
 36 37  1  0
 37 38  2  0
 30 39  1  0
 39 40  2  0
 40 41  1  0
 41 42  2  0
 42 43  1  0
 42 44  1  0
 44 45  2  0
 26 21  1  0
 38 29  1  0
 45 39  1  0
 38 32  1  0
  1 46  1  0
  1 47  1  0
  1 48  1  0
  2 49  1  0
  2 50  1  0
  3 51  1  0
  3 52  1  0
  4 53  1  0
  4 54  1  0
  5 55  1  0
  5 56  1  0
  6 57  1  0
  6 58  1  0
  7 59  1  0
  7 60  1  0
  8 61  1  0
  8 62  1  0
  9 63  1  0
  9 64  1  0
 10 65  1  0
 10 66  1  0
 11 67  1  0
 11 68  1  0
 12 69  1  0
 12 70  1  0
 13 71  1  0
 13 72  1  0
 14 73  1  0
 14 74  1  0
 15 75  1  0
 15 76  1  0
 16 77  1  0
 16 78  1  0
 17 79  1  0
 18 80  1  0
 18 81  1  0
 19 82  1  0
 19 83  1  0
 22 84  1  0
 23 85  1  0
 25 86  1  0
 26 87  1  0
 33 88  1  0
 35 89  1  0
 36 90  1  0
 37 91  1  0
 40 92  1  0
 41 93  1  0
 43 94  1  0
 44 95  1  0
 45 96  1  0
M  END
$$$$
[H]c1c(F)c(OC([H])([H])[H])c([C@]2([H])c3c(c4c([H])c([H])c([H])c([H])c4n3[H])C([H])([H])[C@@]([H])(C([H])([H])[H])N2C([H])([H])C(F)(F)F)c([H])c1OC([H])([H])C([H])([H])N([H])C([H])([H])C([H])([H])C([H])([H])F
     RDKit          3D

 66 69  0  0  0  0  0  0  0  0999 V2000
   -2.0350   -0.1562    4.6892 C   0  0  0  0  0  0  0  0  0  0  0  0
   -1.6850   -1.0089    3.6440 O   0  0  0  0  0  0  0  0  0  0  0  0
   -0.5545   -0.8470    2.8236 C   0  0  0  0  0  0  0  0  0  0  0  0
    0.6398   -1.4231    3.1965 C   0  0  0  0  0  0  0  0  0  0  0  0
    0.6795   -2.1383    4.3580 F   0  0  0  0  0  0  0  0  0  0  0  0
    1.7849   -1.3026    2.4446 C   0  0  0  0  0  0  0  0  0  0  0  0
    1.7721   -0.5909    1.2777 C   0  0  0  0  0  0  0  0  0  0  0  0
    2.9247   -0.4499    0.4898 O   0  0  0  0  0  0  0  0  0  0  0  0
    2.8910    0.2928   -0.7198 C   0  0  0  0  0  0  0  0  0  0  0  0
    4.2723    0.2664   -1.3378 C   0  0  0  0  0  0  0  0  0  0  0  0
    4.6487   -1.1091   -1.6069 N   0  0  0  0  0  0  0  0  0  0  0  0
    5.9415   -1.2221   -2.2068 C   0  0  0  0  0  0  0  0  0  0  0  0
    7.0299   -0.8244   -1.2354 C   0  0  0  0  0  0  0  0  0  0  0  0
    8.3509   -0.9839   -1.9792 C   0  0  0  0  0  0  0  0  0  0  0  0
    9.3941   -0.6335   -1.1401 F   0  0  0  0  0  0  0  0  0  0  0  0
    0.5661   -0.0128    0.9066 C   0  0  0  0  0  0  0  0  0  0  0  0
   -0.5982   -0.1155    1.6364 C   0  0  0  0  0  0  0  0  0  0  0  0
   -1.8652    0.5044    1.1937 C   0  0  1  0  0  0  0  0  0  0  0  0
   -1.6711    1.8517    0.6179 N   0  0  0  0  0  0  0  0  0  0  0  0
   -2.3281    2.7825    1.4282 C   0  0  0  0  0  0  0  0  0  0  0  0
   -2.2833    4.2343    1.1746 C   0  0  0  0  0  0  0  0  0  0  0  0
   -2.7987    4.6831   -0.0105 F   0  0  0  0  0  0  0  0  0  0  0  0
   -3.0219    4.9384    2.1585 F   0  0  0  0  0  0  0  0  0  0  0  0
   -0.9978    4.7586    1.3149 F   0  0  0  0  0  0  0  0  0  0  0  0
   -1.8692    1.7616   -0.7635 C   0  0  2  0  0  0  0  0  0  0  0  0
   -1.2410    2.7211   -1.6873 C   0  0  0  0  0  0  0  0  0  0  0  0
   -3.3334    1.4880   -1.1332 C   0  0  0  0  0  0  0  0  0  0  0  0
   -3.5051    0.0741   -0.7032 C   0  0  0  0  0  0  0  0  0  0  0  0
   -2.7554   -0.3467    0.3929 C   0  0  0  0  0  0  0  0  0  0  0  0
   -3.0250   -1.6743    0.6014 N   0  0  0  0  0  0  0  0  0  0  0  0
   -3.9066   -2.0893   -0.3128 C   0  0  0  0  0  0  0  0  0  0  0  0
   -4.5148   -3.2882   -0.5708 C   0  0  0  0  0  0  0  0  0  0  0  0
   -5.4179   -3.4443   -1.6167 C   0  0  0  0  0  0  0  0  0  0  0  0
   -5.7003   -2.3682   -2.4029 C   0  0  0  0  0  0  0  0  0  0  0  0
   -5.1173   -1.1514   -2.1835 C   0  0  0  0  0  0  0  0  0  0  0  0
   -4.2094   -1.0133   -1.1242 C   0  0  0  0  0  0  0  0  0  0  0  0
   -3.0155    0.3010    4.4646 H   0  0  0  0  0  0  0  0  0  0  0  0
   -2.1234   -0.7137    5.6646 H   0  0  0  0  0  0  0  0  0  0  0  0
   -1.2297    0.5866    4.8407 H   0  0  0  0  0  0  0  0  0  0  0  0
    2.7171   -1.7654    2.7569 H   0  0  0  0  0  0  0  0  0  0  0  0
    2.1814   -0.1807   -1.4306 H   0  0  0  0  0  0  0  0  0  0  0  0
    2.5791    1.3484   -0.5459 H   0  0  0  0  0  0  0  0  0  0  0  0
    4.2618    0.8528   -2.2941 H   0  0  0  0  0  0  0  0  0  0  0  0
    4.9646    0.7645   -0.6494 H   0  0  0  0  0  0  0  0  0  0  0  0
    3.9503   -1.5949   -2.2001 H   0  0  0  0  0  0  0  0  0  0  0  0
    6.0152   -0.5219   -3.0782 H   0  0  0  0  0  0  0  0  0  0  0  0
    6.0815   -2.2461   -2.5939 H   0  0  0  0  0  0  0  0  0  0  0  0
    7.0366   -1.4693   -0.3398 H   0  0  0  0  0  0  0  0  0  0  0  0
    6.9067    0.2159   -0.8969 H   0  0  0  0  0  0  0  0  0  0  0  0
    8.3162   -0.3229   -2.8759 H   0  0  0  0  0  0  0  0  0  0  0  0
    8.4063   -2.0269   -2.3242 H   0  0  0  0  0  0  0  0  0  0  0  0
    0.6329    0.5503   -0.0325 H   0  0  0  0  0  0  0  0  0  0  0  0
   -2.3988    0.7262    2.2001 H   0  0  0  0  0  0  0  0  0  0  0  0
   -1.8957    2.6458    2.4836 H   0  0  0  0  0  0  0  0  0  0  0  0
   -3.4145    2.5282    1.6158 H   0  0  0  0  0  0  0  0  0  0  0  0
   -1.3942    0.7414   -1.0525 H   0  0  0  0  0  0  0  0  0  0  0  0
   -0.6100    2.1474   -2.4408 H   0  0  0  0  0  0  0  0  0  0  0  0
   -1.9504    3.2739   -2.3636 H   0  0  0  0  0  0  0  0  0  0  0  0
   -0.5067    3.4106   -1.2195 H   0  0  0  0  0  0  0  0  0  0  0  0
   -3.3849    1.6084   -2.2363 H   0  0  0  0  0  0  0  0  0  0  0  0
   -4.0430    2.1667   -0.6813 H   0  0  0  0  0  0  0  0  0  0  0  0
   -2.6214   -2.3109    1.3466 H   0  0  0  0  0  0  0  0  0  0  0  0
   -4.2909   -4.1486    0.0561 H   0  0  0  0  0  0  0  0  0  0  0  0
   -5.8540   -4.4209   -1.7539 H   0  0  0  0  0  0  0  0  0  0  0  0
   -6.4170   -2.5324   -3.2154 H   0  0  0  0  0  0  0  0  0  0  0  0
   -5.3610   -0.3300   -2.8181 H   0  0  0  0  0  0  0  0  0  0  0  0
  1  2  1  0
  2  3  1  0
  3  4  2  0
  4  5  1  0
  4  6  1  0
  6  7  2  0
  7  8  1  0
  8  9  1  0
  9 10  1  0
 10 11  1  0
 11 12  1  0
 12 13  1  0
 13 14  1  0
 14 15  1  0
  7 16  1  0
 16 17  2  0
 17 18  1  0
 18 19  1  0
 19 20  1  0
 20 21  1  0
 21 22  1  0
 21 23  1  0
 21 24  1  0
 19 25  1  0
 25 26  1  0
 25 27  1  0
 27 28  1  0
 28 29  2  0
 29 30  1  0
 30 31  1  0
 31 32  2  0
 32 33  1  0
 33 34  2  0
 34 35  1  0
 35 36  2  0
 17  3  1  0
 29 18  1  0
 36 31  1  0
 36 28  1  0
  1 37  1  0
  1 38  1  0
  1 39  1  0
  6 40  1  0
  9 41  1  0
  9 42  1  0
 10 43  1  0
 10 44  1  0
 11 45  1  0
 12 46  1  0
 12 47  1  0
 13 48  1  0
 13 49  1  0
 14 50  1  0
 14 51  1  0
 16 52  1  0
 18 53  1  1
 20 54  1  0
 20 55  1  0
 25 56  1  6
 26 57  1  0
 26 58  1  0
 26 59  1  0
 27 60  1  0
 27 61  1  0
 30 62  1  0
 32 63  1  0
 33 64  1  0
 34 65  1  0
 35 66  1  0
M  END
$$$$
[H]Oc1c([H])c([H])c2c(c1[H])C([H])([H])C([H])([H])N(c1c([H])c([H])c([H])c(N(C([H])([H])[H])C([H])([H])[H])c1[H])C2(c1c([H])c([H])c(OC([H])([H])C([H])([H])N2C([H])([H])C([H])([H])C([H])([H])C([H])([H])C2([H])[H])c([H])c1[H])C([H])([H])[H]
     RDKit          3D

 75 79  0  0  0  0  0  0  0  0999 V2000
   -6.2788    4.3748    0.5072 C   0  0  0  0  0  0  0  0  0  0  0  0
   -5.1893    3.4683    0.8763 N   0  0  0  0  0  0  0  0  0  0  0  0
   -4.3168    3.8995    1.9197 C   0  0  0  0  0  0  0  0  0  0  0  0
   -5.0616    2.2303    0.1878 C   0  0  0  0  0  0  0  0  0  0  0  0
   -5.9565    1.9022   -0.8034 C   0  0  0  0  0  0  0  0  0  0  0  0
   -5.8487    0.7095   -1.4807 C   0  0  0  0  0  0  0  0  0  0  0  0
   -4.8241   -0.1700   -1.1573 C   0  0  0  0  0  0  0  0  0  0  0  0
   -3.9141    0.1155   -0.1815 C   0  0  0  0  0  0  0  0  0  0  0  0
   -4.0733    1.3422    0.4736 C   0  0  0  0  0  0  0  0  0  0  0  0
   -2.8423   -0.7088    0.1930 N   0  0  0  0  0  0  0  0  0  0  0  0
   -2.5998   -0.9073    1.6493 C   0  0  0  0  0  0  0  0  0  0  0  0
   -2.8586   -2.3331    2.0252 C   0  0  0  0  0  0  0  0  0  0  0  0
   -2.4346   -3.2309    0.9251 C   0  0  0  0  0  0  0  0  0  0  0  0
   -2.5092   -4.6041    1.2459 C   0  0  0  0  0  0  0  0  0  0  0  0
   -2.1532   -5.5661    0.3339 C   0  0  0  0  0  0  0  0  0  0  0  0
   -2.2330   -6.9258    0.6681 O   0  0  0  0  0  0  0  0  0  0  0  0
   -1.7188   -5.1565   -0.9088 C   0  0  0  0  0  0  0  0  0  0  0  0
   -1.6462   -3.8146   -1.2212 C   0  0  0  0  0  0  0  0  0  0  0  0
   -2.0003   -2.8362   -0.3158 C   0  0  0  0  0  0  0  0  0  0  0  0
   -1.9126   -1.3820   -0.6730 C   0  0  0  0  0  0  0  0  0  0  0  0
   -2.2138   -1.2736   -2.1408 C   0  0  0  0  0  0  0  0  0  0  0  0
   -0.5131   -0.8892   -0.4918 C   0  0  0  0  0  0  0  0  0  0  0  0
   -0.1189    0.1679   -1.2947 C   0  0  0  0  0  0  0  0  0  0  0  0
    1.1484    0.7041   -1.2299 C   0  0  0  0  0  0  0  0  0  0  0  0
    2.0517    0.1715   -0.3379 C   0  0  0  0  0  0  0  0  0  0  0  0
    3.3228    0.7056   -0.2694 O   0  0  0  0  0  0  0  0  0  0  0  0
    3.7421    1.7624   -1.0605 C   0  0  0  0  0  0  0  0  0  0  0  0
    5.1441    2.1688   -0.8178 C   0  0  0  0  0  0  0  0  0  0  0  0
    6.1788    1.2360   -1.0482 N   0  0  0  0  0  0  0  0  0  0  0  0
    7.4853    1.8656   -0.8218 C   0  0  0  0  0  0  0  0  0  0  0  0
    8.3498    1.1043    0.1277 C   0  0  0  0  0  0  0  0  0  0  0  0
    7.6829    0.6833    1.4002 C   0  0  0  0  0  0  0  0  0  0  0  0
    6.3001    0.1158    1.1286 C   0  0  0  0  0  0  0  0  0  0  0  0
    6.1344   -0.0203   -0.3865 C   0  0  0  0  0  0  0  0  0  0  0  0
    1.6501   -0.8822    0.4587 C   0  0  0  0  0  0  0  0  0  0  0  0
    0.3805   -1.4099    0.3849 C   0  0  0  0  0  0  0  0  0  0  0  0
   -6.1674    4.7720   -0.5075 H   0  0  0  0  0  0  0  0  0  0  0  0
   -6.3941    5.2006    1.2129 H   0  0  0  0  0  0  0  0  0  0  0  0
   -7.2508    3.8053    0.5183 H   0  0  0  0  0  0  0  0  0  0  0  0
   -4.9064    4.5128    2.6420 H   0  0  0  0  0  0  0  0  0  0  0  0
   -3.8635    3.0938    2.5199 H   0  0  0  0  0  0  0  0  0  0  0  0
   -3.5610    4.5942    1.4827 H   0  0  0  0  0  0  0  0  0  0  0  0
   -6.7741    2.5699   -1.0835 H   0  0  0  0  0  0  0  0  0  0  0  0
   -6.5420    0.4359   -2.2614 H   0  0  0  0  0  0  0  0  0  0  0  0
   -4.7839   -1.0897   -1.6970 H   0  0  0  0  0  0  0  0  0  0  0  0
   -3.3634    1.5868    1.2492 H   0  0  0  0  0  0  0  0  0  0  0  0
   -3.3071   -0.2709    2.2176 H   0  0  0  0  0  0  0  0  0  0  0  0
   -1.5974   -0.5885    1.9395 H   0  0  0  0  0  0  0  0  0  0  0  0
   -2.3129   -2.5527    2.9695 H   0  0  0  0  0  0  0  0  0  0  0  0
   -3.9531   -2.4499    2.1655 H   0  0  0  0  0  0  0  0  0  0  0  0
   -2.8453   -4.9465    2.2094 H   0  0  0  0  0  0  0  0  0  0  0  0
   -3.1330   -7.3712    0.4568 H   0  0  0  0  0  0  0  0  0  0  0  0
   -1.4343   -5.8882   -1.6408 H   0  0  0  0  0  0  0  0  0  0  0  0
   -1.3029   -3.4767   -2.2050 H   0  0  0  0  0  0  0  0  0  0  0  0
   -1.2280   -1.4403   -2.6844 H   0  0  0  0  0  0  0  0  0  0  0  0
   -2.5556   -0.2991   -2.4842 H   0  0  0  0  0  0  0  0  0  0  0  0
   -2.8298   -2.1368   -2.4955 H   0  0  0  0  0  0  0  0  0  0  0  0
   -0.8072    0.6258   -2.0219 H   0  0  0  0  0  0  0  0  0  0  0  0
    1.4247    1.5334   -1.8744 H   0  0  0  0  0  0  0  0  0  0  0  0
    3.0578    2.6606   -0.9500 H   0  0  0  0  0  0  0  0  0  0  0  0
    3.5736    1.4717   -2.1443 H   0  0  0  0  0  0  0  0  0  0  0  0
    5.2902    2.6286    0.1917 H   0  0  0  0  0  0  0  0  0  0  0  0
    5.3447    3.0428   -1.5193 H   0  0  0  0  0  0  0  0  0  0  0  0
    7.3055    2.8632   -0.3914 H   0  0  0  0  0  0  0  0  0  0  0  0
    8.0415    1.9691   -1.7737 H   0  0  0  0  0  0  0  0  0  0  0  0
    9.1943    1.7971    0.4185 H   0  0  0  0  0  0  0  0  0  0  0  0
    8.8466    0.2245   -0.3365 H   0  0  0  0  0  0  0  0  0  0  0  0
    8.3318   -0.1263    1.8468 H   0  0  0  0  0  0  0  0  0  0  0  0
    7.5934    1.4766    2.1535 H   0  0  0  0  0  0  0  0  0  0  0  0
    6.2460   -0.9209    1.5276 H   0  0  0  0  0  0  0  0  0  0  0  0
    5.5208    0.7596    1.5680 H   0  0  0  0  0  0  0  0  0  0  0  0
    5.2479   -0.6002   -0.5828 H   0  0  0  0  0  0  0  0  0  0  0  0
    7.0319   -0.6028   -0.7390 H   0  0  0  0  0  0  0  0  0  0  0  0
    2.4042   -1.2603    1.1418 H   0  0  0  0  0  0  0  0  0  0  0  0
    0.1050   -2.2200    1.0099 H   0  0  0  0  0  0  0  0  0  0  0  0
  1  2  1  0
  2  3  1  0
  2  4  1  0
  4  5  2  0
  5  6  1  0
  6  7  2  0
  7  8  1  0
  8  9  2  0
  8 10  1  0
 10 11  1  0
 11 12  1  0
 12 13  1  0
 13 14  2  0
 14 15  1  0
 15 16  1  0
 15 17  2  0
 17 18  1  0
 18 19  2  0
 19 20  1  0
 20 21  1  0
 20 22  1  0
 22 23  2  0
 23 24  1  0
 24 25  2  0
 25 26  1  0
 26 27  1  0
 27 28  1  0
 28 29  1  0
 29 30  1  0
 30 31  1  0
 31 32  1  0
 32 33  1  0
 33 34  1  0
 25 35  1  0
 35 36  2  0
  9  4  1  0
 20 10  1  0
 36 22  1  0
 19 13  1  0
 34 29  1  0
  1 37  1  0
  1 38  1  0
  1 39  1  0
  3 40  1  0
  3 41  1  0
  3 42  1  0
  5 43  1  0
  6 44  1  0
  7 45  1  0
  9 46  1  0
 11 47  1  0
 11 48  1  0
 12 49  1  0
 12 50  1  0
 14 51  1  0
 16 52  1  0
 17 53  1  0
 18 54  1  0
 21 55  1  0
 21 56  1  0
 21 57  1  0
 23 58  1  0
 24 59  1  0
 27 60  1  0
 27 61  1  0
 28 62  1  0
 28 63  1  0
 30 64  1  0
 30 65  1  0
 31 66  1  0
 31 67  1  0
 32 68  1  0
 32 69  1  0
 33 70  1  0
 33 71  1  0
 34 72  1  0
 34 73  1  0
 35 74  1  0
 36 75  1  0
M  END
$$$$
[H]Oc1c([H])c([H])c(C(=C(c2c([H])c([H])c([H])c([H])c2[H])C([H])([H])[H])c2c([H])c([H])c(O[H])c([H])c2[H])c([H])c1[H]
     RDKit          3D

 41 43  0  0  0  0  0  0  0  0999 V2000
   -1.0664   -2.2719   -0.8416 C   0  0  0  0  0  0  0  0  0  0  0  0
   -0.9292   -0.8614   -0.3904 C   0  0  0  0  0  0  0  0  0  0  0  0
    0.2596   -0.3550   -0.2144 C   0  0  0  0  0  0  0  0  0  0  0  0
    0.4982    1.0415    0.2202 C   0  0  0  0  0  0  0  0  0  0  0  0
   -0.1573    2.1203   -0.3100 C   0  0  0  0  0  0  0  0  0  0  0  0
    0.1123    3.4100    0.1414 C   0  0  0  0  0  0  0  0  0  0  0  0
    1.0495    3.6203    1.1354 C   0  0  0  0  0  0  0  0  0  0  0  0
    1.3280    4.8989    1.5947 O   0  0  0  0  0  0  0  0  0  0  0  0
    1.7131    2.5435    1.6737 C   0  0  0  0  0  0  0  0  0  0  0  0
    1.4299    1.2753    1.2117 C   0  0  0  0  0  0  0  0  0  0  0  0
    1.4512   -1.1827   -0.3917 C   0  0  0  0  0  0  0  0  0  0  0  0
    1.6216   -2.3703    0.2672 C   0  0  0  0  0  0  0  0  0  0  0  0
    2.7428   -3.1941    0.0942 C   0  0  0  0  0  0  0  0  0  0  0  0
    3.7276   -2.7949   -0.7808 C   0  0  0  0  0  0  0  0  0  0  0  0
    4.8208   -3.6336   -0.9279 O   0  0  0  0  0  0  0  0  0  0  0  0
    3.5935   -1.5900   -1.4727 C   0  0  0  0  0  0  0  0  0  0  0  0
    2.4738   -0.8144   -1.2701 C   0  0  0  0  0  0  0  0  0  0  0  0
   -2.2010   -0.1768   -0.1114 C   0  0  0  0  0  0  0  0  0  0  0  0
   -3.2134   -0.1572   -1.0657 C   0  0  0  0  0  0  0  0  0  0  0  0
   -4.4442    0.4221   -0.8424 C   0  0  0  0  0  0  0  0  0  0  0  0
   -4.6771    1.0077    0.3855 C   0  0  0  0  0  0  0  0  0  0  0  0
   -3.7188    1.0228    1.3706 C   0  0  0  0  0  0  0  0  0  0  0  0
   -2.4920    0.4235    1.0941 C   0  0  0  0  0  0  0  0  0  0  0  0
   -2.0233   -2.3037   -1.4679 H   0  0  0  0  0  0  0  0  0  0  0  0
   -0.2485   -2.6247   -1.4746 H   0  0  0  0  0  0  0  0  0  0  0  0
   -1.2297   -2.9078    0.0524 H   0  0  0  0  0  0  0  0  0  0  0  0
   -0.8956    1.9766   -1.0960 H   0  0  0  0  0  0  0  0  0  0  0  0
   -0.3973    4.2667   -0.2676 H   0  0  0  0  0  0  0  0  0  0  0  0
    0.7774    5.2460    2.3774 H   0  0  0  0  0  0  0  0  0  0  0  0
    2.4631    2.7003    2.4673 H   0  0  0  0  0  0  0  0  0  0  0  0
    1.9898    0.4509    1.6766 H   0  0  0  0  0  0  0  0  0  0  0  0
    0.8863   -2.7265    0.9777 H   0  0  0  0  0  0  0  0  0  0  0  0
    2.8065   -4.1213    0.6525 H   0  0  0  0  0  0  0  0  0  0  0  0
    4.7354   -4.3484   -1.6663 H   0  0  0  0  0  0  0  0  0  0  0  0
    4.3733   -1.2915   -2.1555 H   0  0  0  0  0  0  0  0  0  0  0  0
    2.3213    0.1299   -1.7839 H   0  0  0  0  0  0  0  0  0  0  0  0
   -2.9956   -0.6281   -2.0350 H   0  0  0  0  0  0  0  0  0  0  0  0
   -5.1903    0.4048   -1.6269 H   0  0  0  0  0  0  0  0  0  0  0  0
   -5.6420    1.4761    0.6033 H   0  0  0  0  0  0  0  0  0  0  0  0
   -3.9311    1.4864    2.3229 H   0  0  0  0  0  0  0  0  0  0  0  0
   -1.7220    0.4308    1.8740 H   0  0  0  0  0  0  0  0  0  0  0  0
  1  2  1  0
  2  3  2  3
  3  4  1  0
  4  5  2  0
  5  6  1  0
  6  7  2  0
  7  8  1  0
  7  9  1  0
  9 10  2  0
  3 11  1  0
 11 12  2  0
 12 13  1  0
 13 14  2  0
 14 15  1  0
 14 16  1  0
 16 17  2  0
  2 18  1  0
 18 19  2  0
 19 20  1  0
 20 21  2  0
 21 22  1  0
 22 23  2  0
 10  4  1  0
 17 11  1  0
 23 18  1  0
  1 24  1  0
  1 25  1  0
  1 26  1  0
  5 27  1  0
  6 28  1  0
  8 29  1  0
  9 30  1  0
 10 31  1  0
 12 32  1  0
 13 33  1  0
 15 34  1  0
 16 35  1  0
 17 36  1  0
 19 37  1  0
 20 38  1  0
 21 39  1  0
 22 40  1  0
 23 41  1  0
M  END
$$$$
[H]Oc1c([H])c([H])c2c(c1[H])c(C([H])([H])[H])c(-c1c([H])c([H])c(OC([H])(C([H])([H])[H])C([H])([H])[H])c([H])c1[H])n2C([H])([H])c1c([H])c([H])c(OC2([H])C([H])=C([H])C([H])=C2[H])c([H])c1[H]
     RDKit          3D

 63 67  0  0  0  0  0  0  0  0999 V2000
   -6.7019    3.5290   -0.4023 C   0  0  0  0  0  0  0  0  0  0  0  0
   -5.2225    3.3887   -0.0007 C   0  0  0  0  0  0  0  0  0  0  0  0
   -4.7778    4.8467    0.2349 C   0  0  0  0  0  0  0  0  0  0  0  0
   -4.4749    2.8035   -1.0134 O   0  0  0  0  0  0  0  0  0  0  0  0
   -3.7519    1.6459   -0.8361 C   0  0  0  0  0  0  0  0  0  0  0  0
   -3.0245    1.1256   -1.9172 C   0  0  0  0  0  0  0  0  0  0  0  0
   -2.2939   -0.0348   -1.7585 C   0  0  0  0  0  0  0  0  0  0  0  0
   -2.2088   -0.7540   -0.5934 C   0  0  0  0  0  0  0  0  0  0  0  0
   -2.9245   -0.2402    0.4679 C   0  0  0  0  0  0  0  0  0  0  0  0
   -3.6763    0.9344    0.3372 C   0  0  0  0  0  0  0  0  0  0  0  0
   -1.3533   -1.9076   -0.4214 C   0  0  0  0  0  0  0  0  0  0  0  0
   -1.6747   -2.9566    0.4488 C   0  0  0  0  0  0  0  0  0  0  0  0
   -2.9391   -3.1536    1.2466 C   0  0  0  0  0  0  0  0  0  0  0  0
   -0.6184   -3.8232    0.4083 C   0  0  0  0  0  0  0  0  0  0  0  0
   -0.4537   -5.0183    1.0775 C   0  0  0  0  0  0  0  0  0  0  0  0
    0.6785   -5.7514    0.8852 C   0  0  0  0  0  0  0  0  0  0  0  0
    0.8228   -6.9498    1.5691 O   0  0  0  0  0  0  0  0  0  0  0  0
    1.6288   -5.2627    0.0158 C   0  0  0  0  0  0  0  0  0  0  0  0
    1.4462   -4.0552   -0.6504 C   0  0  0  0  0  0  0  0  0  0  0  0
    0.3001   -3.3006   -0.4613 C   0  0  0  0  0  0  0  0  0  0  0  0
   -0.1507   -2.1115   -0.9748 N   0  0  0  0  0  0  0  0  0  0  0  0
    0.6941   -1.3493   -1.8556 C   0  0  0  0  0  0  0  0  0  0  0  0
    1.6651   -0.4597   -1.1563 C   0  0  0  0  0  0  0  0  0  0  0  0
    1.3334    0.7607   -0.5819 C   0  0  0  0  0  0  0  0  0  0  0  0
    2.2771    1.5630    0.0412 C   0  0  0  0  0  0  0  0  0  0  0  0
    3.6061    1.1790    0.1188 C   0  0  0  0  0  0  0  0  0  0  0  0
    4.4542    2.0554    0.7611 O   0  0  0  0  0  0  0  0  0  0  0  0
    5.8207    1.9217    0.9790 C   0  0  0  0  0  0  0  0  0  0  0  0
    6.6152    3.0498    0.4835 C   0  0  0  0  0  0  0  0  0  0  0  0
    7.2302    3.6163    1.4974 C   0  0  0  0  0  0  0  0  0  0  0  0
    6.8996    2.9207    2.7336 C   0  0  0  0  0  0  0  0  0  0  0  0
    6.0781    1.9302    2.4447 C   0  0  0  0  0  0  0  0  0  0  0  0
    3.9503   -0.0108   -0.4374 C   0  0  0  0  0  0  0  0  0  0  0  0
    3.0014   -0.7854   -1.0471 C   0  0  0  0  0  0  0  0  0  0  0  0
   -7.1106    2.6012   -0.7965 H   0  0  0  0  0  0  0  0  0  0  0  0
   -7.2379    3.8508    0.5135 H   0  0  0  0  0  0  0  0  0  0  0  0
   -6.8016    4.3823   -1.1235 H   0  0  0  0  0  0  0  0  0  0  0  0
   -5.2358    2.9114    0.9704 H   0  0  0  0  0  0  0  0  0  0  0  0
   -3.6626    4.8818    0.2875 H   0  0  0  0  0  0  0  0  0  0  0  0
   -5.1381    5.4697   -0.6000 H   0  0  0  0  0  0  0  0  0  0  0  0
   -5.2373    5.2236    1.1616 H   0  0  0  0  0  0  0  0  0  0  0  0
   -3.0765    1.6755   -2.8408 H   0  0  0  0  0  0  0  0  0  0  0  0
   -1.8118   -0.3540   -2.6878 H   0  0  0  0  0  0  0  0  0  0  0  0
   -2.9551   -0.6514    1.4658 H   0  0  0  0  0  0  0  0  0  0  0  0
   -4.2057    1.2766    1.1921 H   0  0  0  0  0  0  0  0  0  0  0  0
   -3.1516   -4.2690    1.3186 H   0  0  0  0  0  0  0  0  0  0  0  0
   -2.8201   -2.8523    2.3031 H   0  0  0  0  0  0  0  0  0  0  0  0
   -3.8221   -2.7368    0.7763 H   0  0  0  0  0  0  0  0  0  0  0  0
   -1.2268   -5.3728    1.7569 H   0  0  0  0  0  0  0  0  0  0  0  0
    0.4716   -7.7946    1.1172 H   0  0  0  0  0  0  0  0  0  0  0  0
    2.5323   -5.8282   -0.1512 H   0  0  0  0  0  0  0  0  0  0  0  0
    2.2151   -3.7472   -1.3221 H   0  0  0  0  0  0  0  0  0  0  0  0
    1.3846   -2.0754   -2.4294 H   0  0  0  0  0  0  0  0  0  0  0  0
    0.2517   -0.7842   -2.6455 H   0  0  0  0  0  0  0  0  0  0  0  0
    0.2978    1.0740   -0.6401 H   0  0  0  0  0  0  0  0  0  0  0  0
    1.9081    2.4960    0.4562 H   0  0  0  0  0  0  0  0  0  0  0  0
    6.2239    0.9529    0.5521 H   0  0  0  0  0  0  0  0  0  0  0  0
    6.7395    3.4312   -0.5281 H   0  0  0  0  0  0  0  0  0  0  0  0
    7.9045    4.4944    1.4381 H   0  0  0  0  0  0  0  0  0  0  0  0
    7.2737    3.1806    3.7366 H   0  0  0  0  0  0  0  0  0  0  0  0
    5.6783    1.2527    3.1939 H   0  0  0  0  0  0  0  0  0  0  0  0
    4.9969   -0.3079   -0.3736 H   0  0  0  0  0  0  0  0  0  0  0  0
    3.3607   -1.7269   -1.4836 H   0  0  0  0  0  0  0  0  0  0  0  0
  1  2  1  0
  2  3  1  0
  2  4  1  0
  4  5  1  0
  5  6  2  0
  6  7  1  0
  7  8  2  0
  8  9  1  0
  9 10  2  0
  8 11  1  0
 11 12  2  0
 12 13  1  0
 12 14  1  0
 14 15  2  0
 15 16  1  0
 16 17  1  0
 16 18  2  0
 18 19  1  0
 19 20  2  0
 20 21  1  0
 21 22  1  0
 22 23  1  0
 23 24  2  0
 24 25  1  0
 25 26  2  0
 26 27  1  0
 27 28  1  0
 28 29  1  0
 29 30  2  0
 30 31  1  0
 31 32  2  0
 26 33  1  0
 33 34  2  0
 10  5  1  0
 21 11  1  0
 34 23  1  0
 20 14  1  0
 32 28  1  0
  1 35  1  0
  1 36  1  0
  1 37  1  0
  2 38  1  0
  3 39  1  0
  3 40  1  0
  3 41  1  0
  6 42  1  0
  7 43  1  0
  9 44  1  0
 10 45  1  0
 13 46  1  0
 13 47  1  0
 13 48  1  0
 15 49  1  0
 17 50  1  0
 18 51  1  0
 19 52  1  0
 22 53  1  0
 22 54  1  0
 24 55  1  0
 25 56  1  0
 28 57  1  0
 29 58  1  0
 30 59  1  0
 31 60  1  0
 32 61  1  0
 33 62  1  0
 34 63  1  0
M  END
$$$$
[H]OC(=O)/C([H])=C(\[H])c1c([H])c([H])c(Oc2c(-c3c([H])c([H])c(F)c([H])c3C([H])([H])C(F)(F)F)sc3c([H])c(O[H])c([H])c([H])c23)c([H])c1[H]
     RDKit          3D

 50 53  0  0  0  0  0  0  0  0999 V2000
    7.1475    2.1214    1.0758 O   0  0  0  0  0  0  0  0  0  0  0  0
    6.9118    2.0261   -0.2883 C   0  0  0  0  0  0  0  0  0  0  0  0
    7.8228    2.3513   -1.0916 O   0  0  0  0  0  0  0  0  0  0  0  0
    5.6409    1.5607   -0.8197 C   0  0  0  0  0  0  0  0  0  0  0  0
    4.6950    1.2238    0.0321 C   0  0  0  0  0  0  0  0  0  0  0  0
    3.3806    0.7435   -0.3711 C   0  0  0  0  0  0  0  0  0  0  0  0
    2.4444    0.4118    0.6102 C   0  0  0  0  0  0  0  0  0  0  0  0
    1.1927   -0.0464    0.2550 C   0  0  0  0  0  0  0  0  0  0  0  0
    0.8193   -0.1941   -1.0616 C   0  0  0  0  0  0  0  0  0  0  0  0
   -0.4557   -0.6624   -1.4525 O   0  0  0  0  0  0  0  0  0  0  0  0
   -1.3454   -1.1997   -0.4491 C   0  0  0  0  0  0  0  0  0  0  0  0
   -2.4902   -0.6139   -0.0781 C   0  0  0  0  0  0  0  0  0  0  0  0
   -3.0839   -1.7420    1.1462 S   0  0  0  0  0  0  0  0  0  0  0  0
   -1.8375   -2.8821    1.1030 C   0  0  0  0  0  0  0  0  0  0  0  0
   -1.5974   -4.0913    1.7883 C   0  0  0  0  0  0  0  0  0  0  0  0
   -0.4762   -4.8414    1.5280 C   0  0  0  0  0  0  0  0  0  0  0  0
   -0.2008   -6.0338    2.1769 O   0  0  0  0  0  0  0  0  0  0  0  0
    0.3670   -4.3399    0.5789 C   0  0  0  0  0  0  0  0  0  0  0  0
    0.1537   -3.1671   -0.0987 C   0  0  0  0  0  0  0  0  0  0  0  0
   -0.9941   -2.3914    0.1641 C   0  0  0  0  0  0  0  0  0  0  0  0
   -3.3570    0.4923   -0.5420 C   0  0  0  0  0  0  0  0  0  0  0  0
   -4.7117    0.0623   -0.7810 C   0  0  0  0  0  0  0  0  0  0  0  0
   -5.6975    0.9192   -1.1519 C   0  0  0  0  0  0  0  0  0  0  0  0
   -5.4008    2.2544   -1.3082 C   0  0  0  0  0  0  0  0  0  0  0  0
   -6.3815    3.1073   -1.6796 F   0  0  0  0  0  0  0  0  0  0  0  0
   -4.1079    2.6479   -1.0751 C   0  0  0  0  0  0  0  0  0  0  0  0
   -3.0787    1.7762   -0.6901 C   0  0  0  0  0  0  0  0  0  0  0  0
   -1.7835    2.3930   -0.3882 C   0  0  0  0  0  0  0  0  0  0  0  0
   -1.5348    2.6327    1.0903 C   0  0  0  0  0  0  0  0  0  0  0  0
   -0.2758    3.2105    1.1661 F   0  0  0  0  0  0  0  0  0  0  0  0
   -1.6596    1.5717    1.9013 F   0  0  0  0  0  0  0  0  0  0  0  0
   -2.4176    3.6283    1.5504 F   0  0  0  0  0  0  0  0  0  0  0  0
    1.7593    0.1394   -2.0121 C   0  0  0  0  0  0  0  0  0  0  0  0
    3.0155    0.5991   -1.6925 C   0  0  0  0  0  0  0  0  0  0  0  0
    7.8373    2.7418    1.4722 H   0  0  0  0  0  0  0  0  0  0  0  0
    5.4731    1.4918   -1.8801 H   0  0  0  0  0  0  0  0  0  0  0  0
    4.9189    1.3132    1.0870 H   0  0  0  0  0  0  0  0  0  0  0  0
    2.7493    0.5318    1.6413 H   0  0  0  0  0  0  0  0  0  0  0  0
    0.5014   -0.2854    1.0497 H   0  0  0  0  0  0  0  0  0  0  0  0
   -2.3293   -4.3823    2.5102 H   0  0  0  0  0  0  0  0  0  0  0  0
   -0.5655   -6.8858    1.7450 H   0  0  0  0  0  0  0  0  0  0  0  0
    1.2612   -4.9426    0.3728 H   0  0  0  0  0  0  0  0  0  0  0  0
    0.8994   -2.9110   -0.8216 H   0  0  0  0  0  0  0  0  0  0  0  0
   -4.9372   -0.9996   -0.6547 H   0  0  0  0  0  0  0  0  0  0  0  0
   -6.7253    0.6132   -1.3368 H   0  0  0  0  0  0  0  0  0  0  0  0
   -3.8795    3.6994   -1.1985 H   0  0  0  0  0  0  0  0  0  0  0  0
   -1.8576    3.4867   -0.7757 H   0  0  0  0  0  0  0  0  0  0  0  0
   -0.9413    2.0093   -0.9440 H   0  0  0  0  0  0  0  0  0  0  0  0
    1.4593    0.0211   -3.0461 H   0  0  0  0  0  0  0  0  0  0  0  0
    3.6725    0.8311   -2.4920 H   0  0  0  0  0  0  0  0  0  0  0  0
  1  2  1  0
  2  3  2  0
  2  4  1  0
  4  5  2  0
  5  6  1  0
  6  7  2  0
  7  8  1  0
  8  9  2  0
  9 10  1  0
 10 11  1  0
 11 12  2  0
 12 13  1  0
 13 14  1  0
 14 15  2  0
 15 16  1  0
 16 17  1  0
 16 18  2  0
 18 19  1  0
 19 20  2  0
 12 21  1  0
 21 22  2  0
 22 23  1  0
 23 24  2  0
 24 25  1  0
 24 26  1  0
 26 27  2  0
 27 28  1  0
 28 29  1  0
 29 30  1  0
 29 31  1  0
 29 32  1  0
  9 33  1  0
 33 34  2  0
 34  6  1  0
 20 11  1  0
 27 21  1  0
 20 14  1  0
  1 35  1  0
  4 36  1  0
  5 37  1  0
  7 38  1  0
  8 39  1  0
 15 40  1  0
 17 41  1  0
 18 42  1  0
 19 43  1  0
 22 44  1  0
 23 45  1  0
 26 46  1  0
 28 47  1  0
 28 48  1  0
 33 49  1  0
 34 50  1  0
M  END
$$$$
[H]OC(=O)/C([H])=C(\[H])c1nc([H])c(Oc2c(-c3c([H])c([H])c([H])c([H])c3C([H])(C([H])([H])[H])C([H])([H])[H])sc3c([H])c(O[H])c([H])c([H])c23)c([H])c1[H]
     RDKit          3D

 52 55  0  0  0  0  0  0  0  0999 V2000
   -5.5825    1.0425    0.9317 C   0  0  0  0  0  0  0  0  0  0  0  0
   -4.0828    0.9678    1.1366 C   0  0  0  0  0  0  0  0  0  0  0  0
   -3.5349   -0.0135    2.0714 C   0  0  0  0  0  0  0  0  0  0  0  0
   -3.2840    1.7666    0.1893 C   0  0  0  0  0  0  0  0  0  0  0  0
   -3.5384    3.1649    0.1227 C   0  0  0  0  0  0  0  0  0  0  0  0
   -2.7276    4.0498   -0.5077 C   0  0  0  0  0  0  0  0  0  0  0  0
   -1.6092    3.5926   -1.1151 C   0  0  0  0  0  0  0  0  0  0  0  0
   -1.3360    2.1911   -1.0655 C   0  0  0  0  0  0  0  0  0  0  0  0
   -2.1586    1.2985   -0.4275 C   0  0  0  0  0  0  0  0  0  0  0  0
   -1.9456   -0.1413   -0.6062 C   0  0  0  0  0  0  0  0  0  0  0  0
   -3.0887   -1.4253   -0.5576 S   0  0  0  0  0  0  0  0  0  0  0  0
   -2.0611   -2.7577   -0.7067 C   0  0  0  0  0  0  0  0  0  0  0  0
   -2.2704   -4.1511   -0.6761 C   0  0  0  0  0  0  0  0  0  0  0  0
   -1.1789   -5.0118   -0.7437 C   0  0  0  0  0  0  0  0  0  0  0  0
   -1.3277   -6.3837   -0.7109 O   0  0  0  0  0  0  0  0  0  0  0  0
    0.0727   -4.4592   -0.8419 C   0  0  0  0  0  0  0  0  0  0  0  0
    0.2300   -3.0970   -0.8673 C   0  0  0  0  0  0  0  0  0  0  0  0
   -0.8503   -2.1987   -0.8001 C   0  0  0  0  0  0  0  0  0  0  0  0
   -0.7309   -0.8262   -0.7581 C   0  0  0  0  0  0  0  0  0  0  0  0
    0.4261   -0.1221   -0.8517 O   0  0  0  0  0  0  0  0  0  0  0  0
    1.5948    0.1992   -0.3948 C   0  0  0  0  0  0  0  0  0  0  0  0
    2.6901   -0.1348   -1.2495 C   0  0  0  0  0  0  0  0  0  0  0  0
    3.9692    0.1186   -0.9205 C   0  0  0  0  0  0  0  0  0  0  0  0
    4.2194    0.7238    0.2849 C   0  0  0  0  0  0  0  0  0  0  0  0
    5.6055    1.0375    0.6702 C   0  0  0  0  0  0  0  0  0  0  0  0
    6.6196    0.8289   -0.1631 C   0  0  0  0  0  0  0  0  0  0  0  0
    7.9872    1.1271    0.1981 C   0  0  0  0  0  0  0  0  0  0  0  0
    8.2479    1.5829    1.4979 O   0  0  0  0  0  0  0  0  0  0  0  0
    8.9326    1.0043   -0.5711 O   0  0  0  0  0  0  0  0  0  0  0  0
    3.1952    1.0391    1.0881 N   0  0  0  0  0  0  0  0  0  0  0  0
    1.9213    0.8016    0.7923 C   0  0  0  0  0  0  0  0  0  0  0  0
   -6.0743    0.0279    1.1088 H   0  0  0  0  0  0  0  0  0  0  0  0
   -5.8004    1.3299   -0.1568 H   0  0  0  0  0  0  0  0  0  0  0  0
   -6.1415    1.7549    1.5232 H   0  0  0  0  0  0  0  0  0  0  0  0
   -4.1201    1.9020    2.0402 H   0  0  0  0  0  0  0  0  0  0  0  0
   -3.6126    0.3226    3.1980 H   0  0  0  0  0  0  0  0  0  0  0  0
   -2.4568   -0.1969    2.0270 H   0  0  0  0  0  0  0  0  0  0  0  0
   -4.1845   -0.9209    2.1409 H   0  0  0  0  0  0  0  0  0  0  0  0
   -4.4419    3.5053    0.6038 H   0  0  0  0  0  0  0  0  0  0  0  0
   -3.0342    5.1087   -0.4720 H   0  0  0  0  0  0  0  0  0  0  0  0
   -0.9293    4.2589   -1.6058 H   0  0  0  0  0  0  0  0  0  0  0  0
   -0.4446    1.8896   -1.5981 H   0  0  0  0  0  0  0  0  0  0  0  0
   -3.2771   -4.4958   -0.6009 H   0  0  0  0  0  0  0  0  0  0  0  0
   -0.5195   -6.9886   -0.7560 H   0  0  0  0  0  0  0  0  0  0  0  0
    0.9678   -5.0992   -0.8832 H   0  0  0  0  0  0  0  0  0  0  0  0
    1.2632   -2.7649   -0.9395 H   0  0  0  0  0  0  0  0  0  0  0  0
    2.4523   -0.6206   -2.1892 H   0  0  0  0  0  0  0  0  0  0  0  0
    4.7440   -0.1778   -1.6373 H   0  0  0  0  0  0  0  0  0  0  0  0
    5.8190    1.4566    1.6366 H   0  0  0  0  0  0  0  0  0  0  0  0
    6.4667    0.4112   -1.1654 H   0  0  0  0  0  0  0  0  0  0  0  0
    7.7763    2.4128    1.8058 H   0  0  0  0  0  0  0  0  0  0  0  0
    1.1434    1.0699    1.4716 H   0  0  0  0  0  0  0  0  0  0  0  0
  1  2  1  0
  2  3  1  0
  2  4  1  0
  4  5  2  0
  5  6  1  0
  6  7  2  0
  7  8  1  0
  8  9  2  0
  9 10  1  0
 10 11  1  0
 11 12  1  0
 12 13  2  0
 13 14  1  0
 14 15  1  0
 14 16  2  0
 16 17  1  0
 17 18  2  0
 18 19  1  0
 19 20  1  0
 20 21  1  0
 21 22  2  0
 22 23  1  0
 23 24  2  0
 24 25  1  0
 25 26  2  0
 26 27  1  0
 27 28  1  0
 27 29  2  0
 24 30  1  0
 30 31  2  0
  9  4  1  0
 19 10  2  0
 31 21  1  0
 18 12  1  0
  1 32  1  0
  1 33  1  0
  1 34  1  0
  2 35  1  0
  3 36  1  0
  3 37  1  0
  3 38  1  0
  5 39  1  0
  6 40  1  0
  7 41  1  0
  8 42  1  0
 13 43  1  0
 15 44  1  0
 16 45  1  0
 17 46  1  0
 22 47  1  0
 23 48  1  0
 25 49  1  0
 26 50  1  0
 28 51  1  0
 31 52  1  0
M  END
$$$$
[H]Oc1c([H])c([H])c([H])c(C2=C(C([H])([H])[H])c3c([H])c(O[H])c([H])c([H])c3OC2([H])c2c([H])c([H])c(OC([H])([H])C([H])([H])N3C([H])([H])C([H])([H])C([H])([H])C3([H])[H])c([H])c2[H])c1[H]
     RDKit          3D

 62 66  0  0  0  0  0  0  0  0999 V2000
   -5.1681   -0.5731    0.2358 C   0  0  0  0  0  0  0  0  0  0  0  0
   -4.0046    0.2882    0.6051 C   0  0  0  0  0  0  0  0  0  0  0  0
   -3.0040    0.4260   -0.2466 C   0  0  0  0  0  0  0  0  0  0  0  0
   -1.8580    1.2657    0.1041 C   0  0  0  0  0  0  0  0  0  0  0  0
   -1.9270    1.8416    1.3916 O   0  0  0  0  0  0  0  0  0  0  0  0
   -2.9518    1.7068    2.2649 C   0  0  0  0  0  0  0  0  0  0  0  0
   -2.9820    2.3159    3.5132 C   0  0  0  0  0  0  0  0  0  0  0  0
   -4.0242    2.1771    4.3960 C   0  0  0  0  0  0  0  0  0  0  0  0
   -5.1021    1.3987    4.0436 C   0  0  0  0  0  0  0  0  0  0  0  0
   -6.1934    1.2312    4.9232 O   0  0  0  0  0  0  0  0  0  0  0  0
   -5.0920    0.7853    2.8095 C   0  0  0  0  0  0  0  0  0  0  0  0
   -4.0443    0.9283    1.9295 C   0  0  0  0  0  0  0  0  0  0  0  0
   -0.5225    0.6775   -0.0851 C   0  0  0  0  0  0  0  0  0  0  0  0
    0.2228    0.9729   -1.2087 C   0  0  0  0  0  0  0  0  0  0  0  0
    1.4969    0.4301   -1.3884 C   0  0  0  0  0  0  0  0  0  0  0  0
    2.0331   -0.4120   -0.4434 C   0  0  0  0  0  0  0  0  0  0  0  0
    3.3093   -0.9478   -0.6365 O   0  0  0  0  0  0  0  0  0  0  0  0
    3.8539   -1.8013    0.3216 C   0  0  0  0  0  0  0  0  0  0  0  0
    5.2120   -2.2994   -0.0145 C   0  0  0  0  0  0  0  0  0  0  0  0
    6.2513   -1.3828   -0.1819 N   0  0  0  0  0  0  0  0  0  0  0  0
    6.2650   -0.5018   -1.2812 C   0  0  0  0  0  0  0  0  0  0  0  0
    7.2209    0.6314   -0.9303 C   0  0  0  0  0  0  0  0  0  0  0  0
    7.1707    0.6453    0.5633 C   0  0  0  0  0  0  0  0  0  0  0  0
    6.8281   -0.7664    0.9520 C   0  0  0  0  0  0  0  0  0  0  0  0
    1.2850   -0.7037    0.6770 C   0  0  0  0  0  0  0  0  0  0  0  0
    0.0182   -0.1664    0.8591 C   0  0  0  0  0  0  0  0  0  0  0  0
   -3.1093   -0.1965   -1.5458 C   0  0  0  0  0  0  0  0  0  0  0  0
   -2.2924   -1.1249   -2.0968 C   0  0  0  0  0  0  0  0  0  0  0  0
   -2.4837   -1.6073   -3.3979 C   0  0  0  0  0  0  0  0  0  0  0  0
   -3.5275   -1.1457   -4.1711 C   0  0  0  0  0  0  0  0  0  0  0  0
   -4.3831   -0.1945   -3.6341 C   0  0  0  0  0  0  0  0  0  0  0  0
   -5.4371    0.2704   -4.4150 O   0  0  0  0  0  0  0  0  0  0  0  0
   -4.1637    0.2514   -2.3634 C   0  0  0  0  0  0  0  0  0  0  0  0
   -6.0283   -0.0125   -0.1501 H   0  0  0  0  0  0  0  0  0  0  0  0
   -5.5172   -1.1648    1.1309 H   0  0  0  0  0  0  0  0  0  0  0  0
   -4.8209   -1.3976   -0.4580 H   0  0  0  0  0  0  0  0  0  0  0  0
   -1.9595    2.1776   -0.5925 H   0  0  0  0  0  0  0  0  0  0  0  0
   -2.0922    2.9244    3.7364 H   0  0  0  0  0  0  0  0  0  0  0  0
   -3.9711    2.6842    5.3502 H   0  0  0  0  0  0  0  0  0  0  0  0
   -6.9422    1.9208    4.8218 H   0  0  0  0  0  0  0  0  0  0  0  0
   -5.9398    0.1721    2.5154 H   0  0  0  0  0  0  0  0  0  0  0  0
   -0.2087    1.6351   -1.9427 H   0  0  0  0  0  0  0  0  0  0  0  0
    2.0622    0.6838   -2.2907 H   0  0  0  0  0  0  0  0  0  0  0  0
    3.1816   -2.7096    0.3553 H   0  0  0  0  0  0  0  0  0  0  0  0
    3.7809   -1.3140    1.3143 H   0  0  0  0  0  0  0  0  0  0  0  0
    5.0959   -2.8735   -0.9898 H   0  0  0  0  0  0  0  0  0  0  0  0
    5.5262   -3.1264    0.6979 H   0  0  0  0  0  0  0  0  0  0  0  0
    5.3268   -0.0191   -1.5712 H   0  0  0  0  0  0  0  0  0  0  0  0
    6.6656   -0.9777   -2.2187 H   0  0  0  0  0  0  0  0  0  0  0  0
    8.2237    0.3991   -1.3459 H   0  0  0  0  0  0  0  0  0  0  0  0
    6.8919    1.5777   -1.3931 H   0  0  0  0  0  0  0  0  0  0  0  0
    8.1676    0.9397    0.9965 H   0  0  0  0  0  0  0  0  0  0  0  0
    6.3934    1.3553    0.8912 H   0  0  0  0  0  0  0  0  0  0  0  0
    7.8157   -1.2821    1.1421 H   0  0  0  0  0  0  0  0  0  0  0  0
    6.2756   -0.8518    1.8957 H   0  0  0  0  0  0  0  0  0  0  0  0
    1.7304   -1.3679    1.4054 H   0  0  0  0  0  0  0  0  0  0  0  0
   -0.5614   -0.4029    1.7430 H   0  0  0  0  0  0  0  0  0  0  0  0
   -1.4864   -1.5171   -1.5042 H   0  0  0  0  0  0  0  0  0  0  0  0
   -1.8307   -2.3445   -3.8291 H   0  0  0  0  0  0  0  0  0  0  0  0
   -3.7261   -1.4811   -5.1824 H   0  0  0  0  0  0  0  0  0  0  0  0
   -6.0951    0.9514   -4.1061 H   0  0  0  0  0  0  0  0  0  0  0  0
   -4.8544    1.0009   -1.9705 H   0  0  0  0  0  0  0  0  0  0  0  0
  1  2  1  0
  2  3  2  0
  3  4  1  0
  4  5  1  0
  5  6  1  0
  6  7  2  0
  7  8  1  0
  8  9  2  0
  9 10  1  0
  9 11  1  0
 11 12  2  0
  4 13  1  0
 13 14  2  0
 14 15  1  0
 15 16  2  0
 16 17  1  0
 17 18  1  0
 18 19  1  0
 19 20  1  0
 20 21  1  0
 21 22  1  0
 22 23  1  0
 23 24  1  0
 16 25  1  0
 25 26  2  0
  3 27  1  0
 27 28  2  0
 28 29  1  0
 29 30  2  0
 30 31  1  0
 31 32  1  0
 31 33  2  0
 12  2  1  0
 26 13  1  0
 33 27  1  0
 12  6  1  0
 24 20  1  0
  1 34  1  0
  1 35  1  0
  1 36  1  0
  4 37  1  0
  7 38  1  0
  8 39  1  0
 10 40  1  0
 11 41  1  0
 14 42  1  0
 15 43  1  0
 18 44  1  0
 18 45  1  0
 19 46  1  0
 19 47  1  0
 21 48  1  0
 21 49  1  0
 22 50  1  0
 22 51  1  0
 23 52  1  0
 23 53  1  0
 24 54  1  0
 24 55  1  0
 25 56  1  0
 26 57  1  0
 28 58  1  0
 29 59  1  0
 30 60  1  0
 32 61  1  0
 33 62  1  0
M  END
$$$$
[H]O[C@]1([H])C([H])([H])C2=C([H])C([H])([H])C3([H])C4([H])C([H])([H])C([H])([H])[C@]([H])(O[H])[C@@]4(C([H])([H])[H])C([H])([H])C([H])([H])C3([H])[C@@]2(C([H])([H])[H])C([H])([H])C1([H])[H]
     RDKit          3D

 51 54  0  0  0  0  0  0  0  0999 V2000
   -3.7754    1.3633    0.2139 C   0  0  0  0  0  0  0  0  0  0  0  0
   -2.4959    0.5789    0.5439 C   0  0  2  0  0  0  0  0  0  0  0  0
   -1.5551    1.5254    1.1853 C   0  0  0  0  0  0  0  0  0  0  0  0
   -0.3107    1.7829    0.3148 C   0  0  0  0  0  0  0  0  0  0  0  0
    0.2991    0.4548    0.1364 C   0  0  0  0  0  0  0  0  0  0  0  0
   -0.5631   -0.3795   -0.7722 C   0  0  0  0  0  0  0  0  0  0  0  0
   -0.2022   -1.8240   -0.4973 C   0  0  0  0  0  0  0  0  0  0  0  0
    1.2341   -2.0066   -0.1797 C   0  0  0  0  0  0  0  0  0  0  0  0
    2.1229   -1.0242   -0.1114 C   0  0  0  0  0  0  0  0  0  0  0  0
    3.5070   -1.3946    0.2177 C   0  0  0  0  0  0  0  0  0  0  0  0
    4.2697   -0.3176    0.9401 C   0  0  1  0  0  0  0  0  0  0  0  0
    5.0865    0.3240    0.0178 O   0  0  0  0  0  0  0  0  0  0  0  0
    3.3039    0.7286    1.5052 C   0  0  0  0  0  0  0  0  0  0  0  0
    2.6564    1.3545    0.2837 C   0  0  0  0  0  0  0  0  0  0  0  0
    1.7009    0.4079   -0.3635 C   0  0  2  0  0  0  0  0  0  0  0  0
    1.7635    0.7098   -1.8675 C   0  0  0  0  0  0  0  0  0  0  0  0
   -2.0100   -0.0946   -0.6902 C   0  0  0  0  0  0  0  0  0  0  0  0
   -2.8988   -1.3104   -0.8105 C   0  0  0  0  0  0  0  0  0  0  0  0
   -3.6744   -1.4434    0.4598 C   0  0  0  0  0  0  0  0  0  0  0  0
   -2.9276   -0.5674    1.4231 C   0  0  2  0  0  0  0  0  0  0  0  0
   -3.7886   -0.0487    2.3933 O   0  0  0  0  0  0  0  0  0  0  0  0
   -3.6400    2.4440    0.3676 H   0  0  0  0  0  0  0  0  0  0  0  0
   -4.0250    1.2346   -0.8704 H   0  0  0  0  0  0  0  0  0  0  0  0
   -4.6272    1.0403    0.8087 H   0  0  0  0  0  0  0  0  0  0  0  0
   -1.9928    2.4690    1.5347 H   0  0  0  0  0  0  0  0  0  0  0  0
   -1.1391    1.0196    2.1058 H   0  0  0  0  0  0  0  0  0  0  0  0
   -0.7154    2.1726   -0.6453 H   0  0  0  0  0  0  0  0  0  0  0  0
    0.2608    2.5356    0.8565 H   0  0  0  0  0  0  0  0  0  0  0  0
    0.2902   -0.0697    1.1374 H   0  0  0  0  0  0  0  0  0  0  0  0
   -0.2289   -0.2116   -1.8404 H   0  0  0  0  0  0  0  0  0  0  0  0
   -0.3707   -2.4239   -1.4414 H   0  0  0  0  0  0  0  0  0  0  0  0
   -0.7760   -2.2640    0.3363 H   0  0  0  0  0  0  0  0  0  0  0  0
    1.5400   -3.0430    0.0049 H   0  0  0  0  0  0  0  0  0  0  0  0
    4.0664   -1.6826   -0.6956 H   0  0  0  0  0  0  0  0  0  0  0  0
    3.5490   -2.3020    0.8901 H   0  0  0  0  0  0  0  0  0  0  0  0
    4.9173   -0.7192    1.7281 H   0  0  0  0  0  0  0  0  0  0  0  0
    5.6902   -0.3163   -0.4226 H   0  0  0  0  0  0  0  0  0  0  0  0
    3.9216    1.5112    1.9904 H   0  0  0  0  0  0  0  0  0  0  0  0
    2.5720    0.2701    2.1861 H   0  0  0  0  0  0  0  0  0  0  0  0
    2.2434    2.3372    0.4713 H   0  0  0  0  0  0  0  0  0  0  0  0
    3.5116    1.5162   -0.4378 H   0  0  0  0  0  0  0  0  0  0  0  0
    1.7155   -0.2133   -2.4673 H   0  0  0  0  0  0  0  0  0  0  0  0
    2.7136    1.2204   -2.1334 H   0  0  0  0  0  0  0  0  0  0  0  0
    0.9519    1.4334   -2.1326 H   0  0  0  0  0  0  0  0  0  0  0  0
   -2.3035    0.5806   -1.5500 H   0  0  0  0  0  0  0  0  0  0  0  0
   -3.6241   -1.2383   -1.6514 H   0  0  0  0  0  0  0  0  0  0  0  0
   -2.3434   -2.2488   -0.9678 H   0  0  0  0  0  0  0  0  0  0  0  0
   -4.7041   -1.0837    0.3195 H   0  0  0  0  0  0  0  0  0  0  0  0
   -3.7128   -2.5017    0.8051 H   0  0  0  0  0  0  0  0  0  0  0  0
   -2.1051   -1.0727    1.9366 H   0  0  0  0  0  0  0  0  0  0  0  0
   -3.3778    0.7870    2.7192 H   0  0  0  0  0  0  0  0  0  0  0  0
  2  1  1  6
  2  3  1  0
  3  4  1  0
  4  5  1  0
  5  6  1  0
  6  7  1  0
  7  8  1  0
  8  9  2  0
  9 10  1  0
 10 11  1  0
 11 12  1  0
 11 13  1  0
 13 14  1  0
 14 15  1  0
 15 16  1  6
  6 17  1  0
 17 18  1  0
 18 19  1  0
 19 20  1  0
 20 21  1  0
 17  2  1  0
 20  2  1  0
 15  5  1  0
 15  9  1  0
  1 22  1  0
  1 23  1  0
  1 24  1  0
  3 25  1  0
  3 26  1  0
  4 27  1  0
  4 28  1  0
  5 29  1  0
  6 30  1  0
  7 31  1  0
  7 32  1  0
  8 33  1  0
 10 34  1  0
 10 35  1  0
 11 36  1  1
 12 37  1  0
 13 38  1  0
 13 39  1  0
 14 40  1  0
 14 41  1  0
 16 42  1  0
 16 43  1  0
 16 44  1  0
 17 45  1  0
 18 46  1  0
 18 47  1  0
 19 48  1  0
 19 49  1  0
 20 50  1  1
 21 51  1  0
M  END
$$$$
[H]Oc1c([H])c([H])c2c(c1[H])C([H])([H])C([H])([H])C([H])([H])C(c1c([H])c([H])c([H])c([H])c1[H])=C2c1c([H])c([H])c(OC([H])([H])C([H])([H])[H])c([H])c1[H]
     RDKit          3D

 51 54  0  0  0  0  0  0  0  0999 V2000
    6.5013   -1.7361   -0.2197 C   0  0  0  0  0  0  0  0  0  0  0  0
    5.2139   -1.0626    0.2756 C   0  0  0  0  0  0  0  0  0  0  0  0
    4.2353   -1.3848   -0.6916 O   0  0  0  0  0  0  0  0  0  0  0  0
    2.9329   -0.9526   -0.5921 C   0  0  0  0  0  0  0  0  0  0  0  0
    1.9640   -1.2599   -1.5294 C   0  0  0  0  0  0  0  0  0  0  0  0
    0.6693   -0.8258   -1.4223 C   0  0  0  0  0  0  0  0  0  0  0  0
    0.3092   -0.0620   -0.3566 C   0  0  0  0  0  0  0  0  0  0  0  0
    1.2884    0.2600    0.6083 C   0  0  0  0  0  0  0  0  0  0  0  0
    2.5668   -0.1832    0.4786 C   0  0  0  0  0  0  0  0  0  0  0  0
   -1.0134    0.4646   -0.0761 C   0  0  0  0  0  0  0  0  0  0  0  0
   -2.0370   -0.3319    0.0324 C   0  0  0  0  0  0  0  0  0  0  0  0
   -3.5107   -0.0649    0.3122 C   0  0  0  0  0  0  0  0  0  0  0  0
   -3.9330    1.3345    0.2736 C   0  0  0  0  0  0  0  0  0  0  0  0
   -3.2558    2.1915    1.3527 C   0  0  0  0  0  0  0  0  0  0  0  0
   -2.0016    2.7234    0.6891 C   0  0  0  0  0  0  0  0  0  0  0  0
   -1.8678    4.0712    0.7145 C   0  0  0  0  0  0  0  0  0  0  0  0
   -0.7806    4.6937    0.0825 C   0  0  0  0  0  0  0  0  0  0  0  0
   -0.6694    6.0846    0.1260 O   0  0  0  0  0  0  0  0  0  0  0  0
    0.1588    3.9284   -0.5700 C   0  0  0  0  0  0  0  0  0  0  0  0
    0.0106    2.5410   -0.5888 C   0  0  0  0  0  0  0  0  0  0  0  0
   -1.0617    1.9548    0.0393 C   0  0  0  0  0  0  0  0  0  0  0  0
   -1.7893   -1.7632   -0.0493 C   0  0  0  0  0  0  0  0  0  0  0  0
   -0.9493   -2.4309    0.7752 C   0  0  0  0  0  0  0  0  0  0  0  0
   -0.7475   -3.8190    0.6515 C   0  0  0  0  0  0  0  0  0  0  0  0
   -1.4095   -4.5320   -0.3210 C   0  0  0  0  0  0  0  0  0  0  0  0
   -2.2578   -3.8739   -1.1561 C   0  0  0  0  0  0  0  0  0  0  0  0
   -2.4507   -2.5146   -1.0305 C   0  0  0  0  0  0  0  0  0  0  0  0
    6.6936   -1.4265   -1.2674 H   0  0  0  0  0  0  0  0  0  0  0  0
    7.3242   -1.5034    0.4647 H   0  0  0  0  0  0  0  0  0  0  0  0
    6.2569   -2.8283   -0.2710 H   0  0  0  0  0  0  0  0  0  0  0  0
    5.3465    0.0143    0.4333 H   0  0  0  0  0  0  0  0  0  0  0  0
    4.9258   -1.6110    1.2046 H   0  0  0  0  0  0  0  0  0  0  0  0
    2.3067   -1.8806   -2.3707 H   0  0  0  0  0  0  0  0  0  0  0  0
   -0.0359   -1.0746   -2.1783 H   0  0  0  0  0  0  0  0  0  0  0  0
    1.0174    0.8741    1.4713 H   0  0  0  0  0  0  0  0  0  0  0  0
    3.2738    0.1031    1.2620 H   0  0  0  0  0  0  0  0  0  0  0  0
   -4.0758   -0.7112   -0.3679 H   0  0  0  0  0  0  0  0  0  0  0  0
   -3.7440   -0.4643    1.3480 H   0  0  0  0  0  0  0  0  0  0  0  0
   -3.7735    1.7896   -0.7279 H   0  0  0  0  0  0  0  0  0  0  0  0
   -5.0159    1.3970    0.4945 H   0  0  0  0  0  0  0  0  0  0  0  0
   -2.9095    1.5137    2.1513 H   0  0  0  0  0  0  0  0  0  0  0  0
   -3.8845    3.0182    1.6662 H   0  0  0  0  0  0  0  0  0  0  0  0
   -2.5877    4.6684    1.2140 H   0  0  0  0  0  0  0  0  0  0  0  0
   -1.3462    6.6436    0.5965 H   0  0  0  0  0  0  0  0  0  0  0  0
    0.9994    4.4066   -1.0595 H   0  0  0  0  0  0  0  0  0  0  0  0
    0.7609    1.9841   -1.1311 H   0  0  0  0  0  0  0  0  0  0  0  0
   -0.4146   -1.9740    1.5727 H   0  0  0  0  0  0  0  0  0  0  0  0
   -0.0782   -4.3305    1.3121 H   0  0  0  0  0  0  0  0  0  0  0  0
   -1.2637   -5.6190   -0.4329 H   0  0  0  0  0  0  0  0  0  0  0  0
   -2.7734   -4.4633   -1.9215 H   0  0  0  0  0  0  0  0  0  0  0  0
   -3.1176   -1.9762   -1.6811 H   0  0  0  0  0  0  0  0  0  0  0  0
  1  2  1  0
  2  3  1  0
  3  4  1  0
  4  5  2  0
  5  6  1  0
  6  7  2  0
  7  8  1  0
  8  9  2  0
  7 10  1  0
 10 11  2  0
 11 12  1  0
 12 13  1  0
 13 14  1  0
 14 15  1  0
 15 16  2  0
 16 17  1  0
 17 18  1  0
 17 19  2  0
 19 20  1  0
 20 21  2  0
 11 22  1  0
 22 23  2  0
 23 24  1  0
 24 25  2  0
 25 26  1  0
 26 27  2  0
  9  4  1  0
 21 10  1  0
 27 22  1  0
 21 15  1  0
  1 28  1  0
  1 29  1  0
  1 30  1  0
  2 31  1  0
  2 32  1  0
  5 33  1  0
  6 34  1  0
  8 35  1  0
  9 36  1  0
 12 37  1  0
 12 38  1  0
 13 39  1  0
 13 40  1  0
 14 41  1  0
 14 42  1  0
 16 43  1  0
 18 44  1  0
 19 45  1  0
 20 46  1  0
 23 47  1  0
 24 48  1  0
 25 49  1  0
 26 50  1  0
 27 51  1  0
M  END
$$$$
[H]Oc1c([H])c([H])c2c(c1[H])OC([H])([H])C([H])([H])C([H])([H])C1=C2C([H])(c2c([H])c([H])c(OC([H])([H])C([H])([H])N3C([H])([H])C([H])([H])C([H])([H])C([H])([H])C3([H])[H])c([H])c2[H])Oc2c([H])c(O[H])c([H])c([H])c21
     RDKit          3D

 70 75  0  0  0  0  0  0  0  0999 V2000
   -3.1107   -0.6535   -5.8451 O   0  0  0  0  0  0  0  0  0  0  0  0
   -3.3339   -0.5606   -4.4784 C   0  0  0  0  0  0  0  0  0  0  0  0
   -3.6804   -1.7042   -3.7921 C   0  0  0  0  0  0  0  0  0  0  0  0
   -3.9095   -1.6510   -2.4249 C   0  0  0  0  0  0  0  0  0  0  0  0
   -3.7993   -0.4746   -1.7275 C   0  0  0  0  0  0  0  0  0  0  0  0
   -3.8824   -0.4099   -0.3001 C   0  0  0  0  0  0  0  0  0  0  0  0
   -3.5820    0.7735    0.3094 C   0  0  0  0  0  0  0  0  0  0  0  0
   -3.1695    1.9232   -0.4000 C   0  0  0  0  0  0  0  0  0  0  0  0
   -3.3390    1.9054   -1.8289 O   0  0  0  0  0  0  0  0  0  0  0  0
   -3.4550    0.6668   -2.4281 C   0  0  0  0  0  0  0  0  0  0  0  0
   -3.2213    0.6134   -3.8085 C   0  0  0  0  0  0  0  0  0  0  0  0
   -1.6373    1.7228   -0.4932 C   0  0  0  0  0  0  0  0  0  0  0  0
   -0.9177    0.8257    0.2106 C   0  0  0  0  0  0  0  0  0  0  0  0
    0.4816    0.7154    0.0742 C   0  0  0  0  0  0  0  0  0  0  0  0
    1.1669    1.5253   -0.7880 C   0  0  0  0  0  0  0  0  0  0  0  0
    2.5712    1.4176   -0.9278 O   0  0  0  0  0  0  0  0  0  0  0  0
    3.3053    0.4713   -0.1817 C   0  0  0  0  0  0  0  0  0  0  0  0
    4.7596    0.6285   -0.5714 C   0  0  0  0  0  0  0  0  0  0  0  0
    5.6407   -0.2380    0.0781 N   0  0  0  0  0  0  0  0  0  0  0  0
    5.6260   -1.6139   -0.1687 C   0  0  0  0  0  0  0  0  0  0  0  0
    7.0506   -2.1577   -0.0509 C   0  0  0  0  0  0  0  0  0  0  0  0
    8.0069   -1.1939   -0.7349 C   0  0  0  0  0  0  0  0  0  0  0  0
    8.0256    0.0657    0.0995 C   0  0  0  0  0  0  0  0  0  0  0  0
    6.7166    0.2619    0.8262 C   0  0  0  0  0  0  0  0  0  0  0  0
    0.4644    2.4479   -1.5182 C   0  0  0  0  0  0  0  0  0  0  0  0
   -0.8994    2.5358   -1.3670 C   0  0  0  0  0  0  0  0  0  0  0  0
   -3.7117    1.1276    1.7408 C   0  0  0  0  0  0  0  0  0  0  0  0
   -4.0932    2.4341    1.7334 C   0  0  0  0  0  0  0  0  0  0  0  0
   -4.2818    3.0751    2.9440 C   0  0  0  0  0  0  0  0  0  0  0  0
   -4.0782    2.3622    4.0956 C   0  0  0  0  0  0  0  0  0  0  0  0
   -4.2658    3.0018    5.3202 O   0  0  0  0  0  0  0  0  0  0  0  0
   -3.6926    1.0277    4.0840 C   0  0  0  0  0  0  0  0  0  0  0  0
   -3.4981    0.3667    2.9000 C   0  0  0  0  0  0  0  0  0  0  0  0
   -3.1246   -0.9528    3.1314 O   0  0  0  0  0  0  0  0  0  0  0  0
   -3.5350   -2.1847    2.6003 C   0  0  0  0  0  0  0  0  0  0  0  0
   -3.2651   -2.2861    1.1320 C   0  0  0  0  0  0  0  0  0  0  0  0
   -4.3568   -1.7052    0.2543 C   0  0  0  0  0  0  0  0  0  0  0  0
   -3.8005   -0.5372   -6.5539 H   0  0  0  0  0  0  0  0  0  0  0  0
   -3.7716   -2.6433   -4.3235 H   0  0  0  0  0  0  0  0  0  0  0  0
   -4.1613   -2.5865   -1.9728 H   0  0  0  0  0  0  0  0  0  0  0  0
   -2.9785    2.9063    0.0150 H   0  0  0  0  0  0  0  0  0  0  0  0
   -2.9484    1.5077   -4.3550 H   0  0  0  0  0  0  0  0  0  0  0  0
   -1.3836    0.1553    0.9068 H   0  0  0  0  0  0  0  0  0  0  0  0
    1.0225   -0.0177    0.6577 H   0  0  0  0  0  0  0  0  0  0  0  0
    2.9647   -0.5569   -0.3273 H   0  0  0  0  0  0  0  0  0  0  0  0
    3.1786    0.7487    0.8900 H   0  0  0  0  0  0  0  0  0  0  0  0
    5.1023    1.6802   -0.4084 H   0  0  0  0  0  0  0  0  0  0  0  0
    4.7961    0.5023   -1.6927 H   0  0  0  0  0  0  0  0  0  0  0  0
    5.0195   -2.1718    0.5971 H   0  0  0  0  0  0  0  0  0  0  0  0
    5.2451   -1.9231   -1.1638 H   0  0  0  0  0  0  0  0  0  0  0  0
    7.1091   -3.1482   -0.5417 H   0  0  0  0  0  0  0  0  0  0  0  0
    7.3703   -2.2321    0.9966 H   0  0  0  0  0  0  0  0  0  0  0  0
    7.5811   -0.9960   -1.7417 H   0  0  0  0  0  0  0  0  0  0  0  0
    9.0098   -1.6310   -0.7733 H   0  0  0  0  0  0  0  0  0  0  0  0
    8.3019    0.9522   -0.5256 H   0  0  0  0  0  0  0  0  0  0  0  0
    8.8689   -0.0484    0.8224 H   0  0  0  0  0  0  0  0  0  0  0  0
    6.8345   -0.1907    1.8355 H   0  0  0  0  0  0  0  0  0  0  0  0
    6.5817    1.3738    0.9374 H   0  0  0  0  0  0  0  0  0  0  0  0
    1.0006    3.0932   -2.2047 H   0  0  0  0  0  0  0  0  0  0  0  0
   -1.4983    3.2570   -1.9291 H   0  0  0  0  0  0  0  0  0  0  0  0
   -4.2899    2.9000    0.7865 H   0  0  0  0  0  0  0  0  0  0  0  0
   -4.5792    4.1051    2.8874 H   0  0  0  0  0  0  0  0  0  0  0  0
   -4.1283    2.5193    6.2024 H   0  0  0  0  0  0  0  0  0  0  0  0
   -3.5346    0.4749    5.0054 H   0  0  0  0  0  0  0  0  0  0  0  0
   -2.9460   -2.9714    3.1732 H   0  0  0  0  0  0  0  0  0  0  0  0
   -4.6076   -2.4350    2.7423 H   0  0  0  0  0  0  0  0  0  0  0  0
   -3.2062   -3.4213    0.9400 H   0  0  0  0  0  0  0  0  0  0  0  0
   -2.2547   -1.9555    0.8298 H   0  0  0  0  0  0  0  0  0  0  0  0
   -5.1857   -1.4756    1.0213 H   0  0  0  0  0  0  0  0  0  0  0  0
   -4.6875   -2.4442   -0.4320 H   0  0  0  0  0  0  0  0  0  0  0  0
  1  2  1  0
  2  3  2  0
  3  4  1  0
  4  5  2  0
  5  6  1  0
  6  7  2  0
  7  8  1  0
  8  9  1  0
  9 10  1  0
 10 11  2  0
  8 12  1  0
 12 13  2  0
 13 14  1  0
 14 15  2  0
 15 16  1  0
 16 17  1  0
 17 18  1  0
 18 19  1  0
 19 20  1  0
 20 21  1  0
 21 22  1  0
 22 23  1  0
 23 24  1  0
 15 25  1  0
 25 26  2  0
  7 27  1  0
 27 28  2  0
 28 29  1  0
 29 30  2  0
 30 31  1  0
 30 32  1  0
 32 33  2  0
 33 34  1  0
 34 35  1  0
 35 36  1  0
 36 37  1  0
 11  2  1  0
 26 12  1  0
 33 27  1  0
 10  5  1  0
 24 19  1  0
 37  6  1  0
  1 38  1  0
  3 39  1  0
  4 40  1  0
  8 41  1  0
 11 42  1  0
 13 43  1  0
 14 44  1  0
 17 45  1  0
 17 46  1  0
 18 47  1  0
 18 48  1  0
 20 49  1  0
 20 50  1  0
 21 51  1  0
 21 52  1  0
 22 53  1  0
 22 54  1  0
 23 55  1  0
 23 56  1  0
 24 57  1  0
 24 58  1  0
 25 59  1  0
 26 60  1  0
 28 61  1  0
 29 62  1  0
 31 63  1  0
 32 64  1  0
 35 65  1  0
 35 66  1  0
 36 67  1  0
 36 68  1  0
 37 69  1  0
 37 70  1  0
M  END
$$$$
[H]Oc1c([H])c([H])c([H])c(N2C([H])([H])C([H])([H])c3c([H])c(O[H])c([H])c([H])c3C2(c2c([H])c([H])c(OC([H])([H])C([H])([H])N3C([H])([H])C([H])([H])C([H])([H])C([H])([H])C3([H])[H])c([H])c2[H])C([H])([H])[H])c1[H]
     RDKit          3D

 68 72  0  0  0  0  0  0  0  0999 V2000
   -3.2988    1.1750   -1.8270 C   0  0  0  0  0  0  0  0  0  0  0  0
   -2.5573    0.2657   -0.9138 C   0  0  0  0  0  0  0  0  0  0  0  0
   -2.8620    0.4225    0.5007 N   0  0  0  0  0  0  0  0  0  0  0  0
   -1.9935   -0.3896    1.3697 C   0  0  0  0  0  0  0  0  0  0  0  0
   -2.5770   -1.8005    1.2575 C   0  0  0  0  0  0  0  0  0  0  0  0
   -2.8500   -2.1207   -0.1531 C   0  0  0  0  0  0  0  0  0  0  0  0
   -3.1294   -3.4630   -0.4362 C   0  0  0  0  0  0  0  0  0  0  0  0
   -3.4056   -3.8882   -1.7160 C   0  0  0  0  0  0  0  0  0  0  0  0
   -3.6853   -5.2324   -1.9986 O   0  0  0  0  0  0  0  0  0  0  0  0
   -3.4061   -2.9758   -2.7304 C   0  0  0  0  0  0  0  0  0  0  0  0
   -3.1308   -1.6530   -2.4523 C   0  0  0  0  0  0  0  0  0  0  0  0
   -2.8490   -1.1928   -1.1768 C   0  0  0  0  0  0  0  0  0  0  0  0
   -3.8699    1.1925    1.0728 C   0  0  0  0  0  0  0  0  0  0  0  0
   -5.1604    1.3537    0.5662 C   0  0  0  0  0  0  0  0  0  0  0  0
   -6.1084    2.1424    1.1678 C   0  0  0  0  0  0  0  0  0  0  0  0
   -5.8087    2.8194    2.3237 C   0  0  0  0  0  0  0  0  0  0  0  0
   -4.5602    2.6951    2.8601 C   0  0  0  0  0  0  0  0  0  0  0  0
   -4.2219    3.3612    4.0230 O   0  0  0  0  0  0  0  0  0  0  0  0
   -3.6294    1.8986    2.2368 C   0  0  0  0  0  0  0  0  0  0  0  0
   -1.1104    0.5763   -1.0617 C   0  0  0  0  0  0  0  0  0  0  0  0
   -0.2240   -0.1491   -1.7753 C   0  0  0  0  0  0  0  0  0  0  0  0
    1.1037    0.2388   -1.8713 C   0  0  0  0  0  0  0  0  0  0  0  0
    1.5641    1.3698   -1.2465 C   0  0  0  0  0  0  0  0  0  0  0  0
    2.8278    1.8382   -1.2692 O   0  0  0  0  0  0  0  0  0  0  0  0
    4.0047    1.4265   -1.8324 C   0  0  0  0  0  0  0  0  0  0  0  0
    4.5219    0.1112   -1.3671 C   0  0  0  0  0  0  0  0  0  0  0  0
    4.7682    0.0697    0.0608 N   0  0  0  0  0  0  0  0  0  0  0  0
    5.8487    0.8926    0.4854 C   0  0  0  0  0  0  0  0  0  0  0  0
    7.0576    0.0326    0.7744 C   0  0  0  0  0  0  0  0  0  0  0  0
    6.7800   -0.8436    1.9880 C   0  0  0  0  0  0  0  0  0  0  0  0
    5.3654   -1.3499    1.9666 C   0  0  0  0  0  0  0  0  0  0  0  0
    4.8056   -1.2848    0.5633 C   0  0  0  0  0  0  0  0  0  0  0  0
    0.6421    2.1323   -0.4993 C   0  0  0  0  0  0  0  0  0  0  0  0
   -0.6471    1.7251   -0.4267 C   0  0  0  0  0  0  0  0  0  0  0  0
   -3.6030    2.1386   -1.4244 H   0  0  0  0  0  0  0  0  0  0  0  0
   -4.1382    0.6168   -2.3034 H   0  0  0  0  0  0  0  0  0  0  0  0
   -2.6332    1.4353   -2.7107 H   0  0  0  0  0  0  0  0  0  0  0  0
   -2.0253   -0.0350    2.3931 H   0  0  0  0  0  0  0  0  0  0  0  0
   -0.9872   -0.4679    0.9347 H   0  0  0  0  0  0  0  0  0  0  0  0
   -3.5263   -1.7697    1.8329 H   0  0  0  0  0  0  0  0  0  0  0  0
   -1.9031   -2.5421    1.7276 H   0  0  0  0  0  0  0  0  0  0  0  0
   -3.1334   -4.2054    0.3612 H   0  0  0  0  0  0  0  0  0  0  0  0
   -3.6930   -5.9290   -1.2774 H   0  0  0  0  0  0  0  0  0  0  0  0
   -3.6264   -3.3347   -3.7259 H   0  0  0  0  0  0  0  0  0  0  0  0
   -3.1368   -0.9440   -3.2742 H   0  0  0  0  0  0  0  0  0  0  0  0
   -5.4353    0.8393   -0.3236 H   0  0  0  0  0  0  0  0  0  0  0  0
   -7.1100    2.2362    0.7291 H   0  0  0  0  0  0  0  0  0  0  0  0
   -6.5839    3.4344    2.7729 H   0  0  0  0  0  0  0  0  0  0  0  0
   -3.8311    4.2884    3.9301 H   0  0  0  0  0  0  0  0  0  0  0  0
   -2.6378    1.8184    2.6752 H   0  0  0  0  0  0  0  0  0  0  0  0
   -0.5623   -1.0499   -2.2787 H   0  0  0  0  0  0  0  0  0  0  0  0
    1.7806   -0.3573   -2.4578 H   0  0  0  0  0  0  0  0  0  0  0  0
    3.8148    1.3079   -2.9477 H   0  0  0  0  0  0  0  0  0  0  0  0
    4.8196    2.1879   -1.7737 H   0  0  0  0  0  0  0  0  0  0  0  0
    5.5551   -0.0012   -1.8331 H   0  0  0  0  0  0  0  0  0  0  0  0
    3.9424   -0.7112   -1.7575 H   0  0  0  0  0  0  0  0  0  0  0  0
    6.1458    1.5851   -0.3478 H   0  0  0  0  0  0  0  0  0  0  0  0
    5.6183    1.5288    1.3626 H   0  0  0  0  0  0  0  0  0  0  0  0
    7.9637    0.6571    0.9322 H   0  0  0  0  0  0  0  0  0  0  0  0
    7.2044   -0.6357   -0.1057 H   0  0  0  0  0  0  0  0  0  0  0  0
    7.4609   -1.7433    1.9805 H   0  0  0  0  0  0  0  0  0  0  0  0
    7.0224   -0.2880    2.9161 H   0  0  0  0  0  0  0  0  0  0  0  0
    5.2811   -2.4131    2.2901 H   0  0  0  0  0  0  0  0  0  0  0  0
    4.7409   -0.7696    2.6772 H   0  0  0  0  0  0  0  0  0  0  0  0
    5.5381   -1.8445   -0.0821 H   0  0  0  0  0  0  0  0  0  0  0  0
    3.8495   -1.8025    0.4765 H   0  0  0  0  0  0  0  0  0  0  0  0
    0.9615    3.0404    0.0146 H   0  0  0  0  0  0  0  0  0  0  0  0
   -1.3374    2.3333    0.1544 H   0  0  0  0  0  0  0  0  0  0  0  0
  1  2  1  0
  2  3  1  0
  3  4  1  0
  4  5  1  0
  5  6  1  0
  6  7  2  0
  7  8  1  0
  8  9  1  0
  8 10  2  0
 10 11  1  0
 11 12  2  0
  3 13  1  0
 13 14  2  0
 14 15  1  0
 15 16  2  0
 16 17  1  0
 17 18  1  0
 17 19  2  0
  2 20  1  0
 20 21  2  0
 21 22  1  0
 22 23  2  0
 23 24  1  0
 24 25  1  0
 25 26  1  0
 26 27  1  0
 27 28  1  0
 28 29  1  0
 29 30  1  0
 30 31  1  0
 31 32  1  0
 23 33  1  0
 33 34  2  0
 12  2  1  0
 19 13  1  0
 34 20  1  0
 12  6  1  0
 32 27  1  0
  1 35  1  0
  1 36  1  0
  1 37  1  0
  4 38  1  0
  4 39  1  0
  5 40  1  0
  5 41  1  0
  7 42  1  0
  9 43  1  0
 10 44  1  0
 11 45  1  0
 14 46  1  0
 15 47  1  0
 16 48  1  0
 18 49  1  0
 19 50  1  0
 21 51  1  0
 22 52  1  0
 25 53  1  0
 25 54  1  0
 26 55  1  0
 26 56  1  0
 28 57  1  0
 28 58  1  0
 29 59  1  0
 29 60  1  0
 30 61  1  0
 30 62  1  0
 31 63  1  0
 31 64  1  0
 32 65  1  0
 32 66  1  0
 33 67  1  0
 34 68  1  0
M  END
$$$$
[H]c1c([H])c([C@]2([H])c3c(c4c([H])c([H])c([H])c([H])c4n3[H])C([H])([H])[C@@]([H])(C([H])([H])[H])N2C([H])([H])C2(F)C([H])([H])OC2([H])[H])c([H])c([H])c1OC([H])([H])[C@@]([H])(N([H])C([H])([H])C([H])([H])C([H])([H])F)C([H])([H])[H]
     RDKit          3D

 70 74  0  0  0  0  0  0  0  0999 V2000
    5.4691    1.5262   -0.5597 C   0  0  0  0  0  0  0  0  0  0  0  0
    5.6386    0.9203    0.7857 C   0  0  1  0  0  0  0  0  0  0  0  0
    4.6352    1.3335    1.8267 C   0  0  0  0  0  0  0  0  0  0  0  0
    3.4208    0.8302    1.8274 O   0  0  0  0  0  0  0  0  0  0  0  0
    2.2403    0.6384    1.2911 C   0  0  0  0  0  0  0  0  0  0  0  0
    1.2658   -0.1602    1.9373 C   0  0  0  0  0  0  0  0  0  0  0  0
    0.0177   -0.3889    1.4215 C   0  0  0  0  0  0  0  0  0  0  0  0
   -0.3811    0.1389    0.2416 C   0  0  0  0  0  0  0  0  0  0  0  0
    0.5542    0.9371   -0.4328 C   0  0  0  0  0  0  0  0  0  0  0  0
    1.8139    1.1681    0.0880 C   0  0  0  0  0  0  0  0  0  0  0  0
   -1.6784   -0.0008   -0.3784 C   0  0  1  0  0  0  0  0  0  0  0  0
   -2.4275   -1.2098   -0.2115 N   0  0  0  0  0  0  0  0  0  0  0  0
   -3.3693   -1.2396    0.8468 C   0  0  0  0  0  0  0  0  0  0  0  0
   -4.0036   -2.5279    1.2030 C   0  0  0  0  0  0  0  0  0  0  0  0
   -3.1286   -3.5569    1.5839 F   0  0  0  0  0  0  0  0  0  0  0  0
   -4.9833   -2.3949    2.4045 C   0  0  0  0  0  0  0  0  0  0  0  0
   -5.5903   -3.5444    1.8992 O   0  0  0  0  0  0  0  0  0  0  0  0
   -5.2341   -3.0382    0.6233 C   0  0  0  0  0  0  0  0  0  0  0  0
   -3.1963   -1.3292   -1.4740 C   0  0  2  0  0  0  0  0  0  0  0  0
   -2.2962   -2.0616   -2.4870 C   0  0  0  0  0  0  0  0  0  0  0  0
   -3.5589   -0.0260   -2.0916 C   0  0  0  0  0  0  0  0  0  0  0  0
   -3.6328    1.1322   -1.1900 C   0  0  0  0  0  0  0  0  0  0  0  0
   -2.5988    1.1526   -0.2339 C   0  0  0  0  0  0  0  0  0  0  0  0
   -2.7578    2.2217    0.5273 N   0  0  0  0  0  0  0  0  0  0  0  0
   -3.8515    2.8854    0.0955 C   0  0  0  0  0  0  0  0  0  0  0  0
   -4.4806    4.0444    0.5070 C   0  0  0  0  0  0  0  0  0  0  0  0
   -5.6088    4.4884   -0.1410 C   0  0  0  0  0  0  0  0  0  0  0  0
   -6.1680    3.8130   -1.2202 C   0  0  0  0  0  0  0  0  0  0  0  0
   -5.5448    2.6499   -1.6401 C   0  0  0  0  0  0  0  0  0  0  0  0
   -4.4272    2.2203   -0.9906 C   0  0  0  0  0  0  0  0  0  0  0  0
    5.8966   -0.5121    0.7793 N   0  0  0  0  0  0  0  0  0  0  0  0
    7.1692   -0.7694    0.0879 C   0  0  0  0  0  0  0  0  0  0  0  0
    7.3970   -2.2574    0.1248 C   0  0  0  0  0  0  0  0  0  0  0  0
    8.7166   -2.5406   -0.5945 C   0  0  0  0  0  0  0  0  0  0  0  0
    8.9099   -3.9091   -0.5443 F   0  0  0  0  0  0  0  0  0  0  0  0
    6.4369    1.8074   -1.0416 H   0  0  0  0  0  0  0  0  0  0  0  0
    4.9536    0.8670   -1.2940 H   0  0  0  0  0  0  0  0  0  0  0  0
    4.9087    2.4872   -0.4287 H   0  0  0  0  0  0  0  0  0  0  0  0
    6.6407    1.3544    1.1707 H   0  0  0  0  0  0  0  0  0  0  0  0
    4.6497    2.4838    1.8171 H   0  0  0  0  0  0  0  0  0  0  0  0
    5.1023    1.1590    2.8718 H   0  0  0  0  0  0  0  0  0  0  0  0
    1.5352   -0.6051    2.8852 H   0  0  0  0  0  0  0  0  0  0  0  0
   -0.7053   -1.0195    1.9400 H   0  0  0  0  0  0  0  0  0  0  0  0
    0.3022    1.3984   -1.3949 H   0  0  0  0  0  0  0  0  0  0  0  0
    2.5163    1.8088   -0.4456 H   0  0  0  0  0  0  0  0  0  0  0  0
   -1.4304   -0.0012   -1.5092 H   0  0  0  0  0  0  0  0  0  0  0  0
   -4.2625   -0.5503    0.6283 H   0  0  0  0  0  0  0  0  0  0  0  0
   -2.9430   -0.7879    1.7593 H   0  0  0  0  0  0  0  0  0  0  0  0
   -4.4382   -2.5275    3.3565 H   0  0  0  0  0  0  0  0  0  0  0  0
   -5.5794   -1.4676    2.3548 H   0  0  0  0  0  0  0  0  0  0  0  0
   -6.0263   -2.3443    0.3106 H   0  0  0  0  0  0  0  0  0  0  0  0
   -5.2006   -3.8831   -0.0936 H   0  0  0  0  0  0  0  0  0  0  0  0
   -4.1376   -1.8856   -1.3367 H   0  0  0  0  0  0  0  0  0  0  0  0
   -1.7643   -1.2862   -3.0526 H   0  0  0  0  0  0  0  0  0  0  0  0
   -1.6259   -2.6969   -1.8965 H   0  0  0  0  0  0  0  0  0  0  0  0
   -2.9561   -2.6841   -3.1309 H   0  0  0  0  0  0  0  0  0  0  0  0
   -2.8574    0.2504   -2.9312 H   0  0  0  0  0  0  0  0  0  0  0  0
   -4.5610   -0.0868   -2.5973 H   0  0  0  0  0  0  0  0  0  0  0  0
   -2.1239    2.4828    1.3223 H   0  0  0  0  0  0  0  0  0  0  0  0
   -4.0508    4.5892    1.3600 H   0  0  0  0  0  0  0  0  0  0  0  0
   -6.1061    5.3886    0.1737 H   0  0  0  0  0  0  0  0  0  0  0  0
   -7.0643    4.1961   -1.7053 H   0  0  0  0  0  0  0  0  0  0  0  0
   -5.9278    2.0766   -2.4711 H   0  0  0  0  0  0  0  0  0  0  0  0
    5.1393   -0.9453    0.2096 H   0  0  0  0  0  0  0  0  0  0  0  0
    7.0847   -0.4201   -0.9697 H   0  0  0  0  0  0  0  0  0  0  0  0
    7.9905   -0.1934    0.5586 H   0  0  0  0  0  0  0  0  0  0  0  0
    6.5613   -2.7535   -0.3707 H   0  0  0  0  0  0  0  0  0  0  0  0
    7.5047   -2.5576    1.1888 H   0  0  0  0  0  0  0  0  0  0  0  0
    9.5527   -2.0577   -0.0658 H   0  0  0  0  0  0  0  0  0  0  0  0
    8.6554   -2.2302   -1.6542 H   0  0  0  0  0  0  0  0  0  0  0  0
  1  2  1  0
  2  3  1  0
  3  4  1  0
  4  5  1  0
  5  6  2  0
  6  7  1  0
  7  8  2  0
  8  9  1  0
  9 10  2  0
  8 11  1  0
 11 12  1  0
 12 13  1  0
 13 14  1  0
 14 15  1  0
 14 16  1  0
 16 17  1  0
 17 18  1  0
 12 19  1  0
 19 20  1  0
 19 21  1  0
 21 22  1  0
 22 23  2  0
 23 24  1  0
 24 25  1  0
 25 26  2  0
 26 27  1  0
 27 28  2  0
 28 29  1  0
 29 30  2  0
  2 31  1  0
 31 32  1  0
 32 33  1  0
 33 34  1  0
 34 35  1  0
 10  5  1  0
 23 11  1  0
 30 25  1  0
 18 14  1  0
 30 22  1  0
  1 36  1  0
  1 37  1  0
  1 38  1  0
  2 39  1  1
  3 40  1  0
  3 41  1  0
  6 42  1  0
  7 43  1  0
  9 44  1  0
 10 45  1  0
 11 46  1  6
 13 47  1  0
 13 48  1  0
 16 49  1  0
 16 50  1  0
 18 51  1  0
 18 52  1  0
 19 53  1  1
 20 54  1  0
 20 55  1  0
 20 56  1  0
 21 57  1  0
 21 58  1  0
 24 59  1  0
 26 60  1  0
 27 61  1  0
 28 62  1  0
 29 63  1  0
 31 64  1  0
 32 65  1  0
 32 66  1  0
 33 67  1  0
 33 68  1  0
 34 69  1  0
 34 70  1  0
M  END
$$$$
[H]Oc1c([H])c([H])c(C([H])([H])C(c2c([H])c([H])c(O[H])c([H])c2[H])(C([H])([H])[H])C([H])([H])C([H])([H])C([H])([H])[H])c([H])c1[H]
     RDKit          3D

 42 43  0  0  0  0  0  0  0  0999 V2000
   -1.6663    4.0360    0.8367 C   0  0  0  0  0  0  0  0  0  0  0  0
   -0.6966    3.0387    0.1553 C   0  0  0  0  0  0  0  0  0  0  0  0
   -1.2398    1.7035    0.4578 C   0  0  0  0  0  0  0  0  0  0  0  0
   -0.4287    0.5218   -0.1738 C   0  0  0  0  0  0  0  0  0  0  0  0
   -0.5086    0.7852   -1.6839 C   0  0  0  0  0  0  0  0  0  0  0  0
    0.9072    0.6793    0.3434 C   0  0  0  0  0  0  0  0  0  0  0  0
    2.0620   -0.1296    0.1016 C   0  0  0  0  0  0  0  0  0  0  0  0
    2.5343   -1.0085    1.0385 C   0  0  0  0  0  0  0  0  0  0  0  0
    3.6183   -1.8048    0.9219 C   0  0  0  0  0  0  0  0  0  0  0  0
    4.3383   -1.7443   -0.2491 C   0  0  0  0  0  0  0  0  0  0  0  0
    5.4680   -2.5706   -0.3798 O   0  0  0  0  0  0  0  0  0  0  0  0
    3.9267   -0.8840   -1.2405 C   0  0  0  0  0  0  0  0  0  0  0  0
    2.8015   -0.0825   -1.0741 C   0  0  0  0  0  0  0  0  0  0  0  0
   -1.2943   -0.6179    0.0612 C   0  0  0  0  0  0  0  0  0  0  0  0
   -1.0824   -1.7327    0.7914 C   0  0  0  0  0  0  0  0  0  0  0  0
   -2.0295   -2.7634    0.9524 C   0  0  0  0  0  0  0  0  0  0  0  0
   -3.2514   -2.6467    0.3377 C   0  0  0  0  0  0  0  0  0  0  0  0
   -4.2330   -3.6479    0.4678 O   0  0  0  0  0  0  0  0  0  0  0  0
   -3.4997   -1.5251   -0.4104 C   0  0  0  0  0  0  0  0  0  0  0  0
   -2.5655   -0.5304   -0.5572 C   0  0  0  0  0  0  0  0  0  0  0  0
   -2.7064    3.7298    0.6747 H   0  0  0  0  0  0  0  0  0  0  0  0
   -1.4262    4.0480    1.9376 H   0  0  0  0  0  0  0  0  0  0  0  0
   -1.4587    5.0431    0.4736 H   0  0  0  0  0  0  0  0  0  0  0  0
   -0.6451    3.3254   -0.8926 H   0  0  0  0  0  0  0  0  0  0  0  0
    0.2700    3.2425    0.7138 H   0  0  0  0  0  0  0  0  0  0  0  0
   -1.2334    1.5762    1.5809 H   0  0  0  0  0  0  0  0  0  0  0  0
   -2.2850    1.6741    0.1759 H   0  0  0  0  0  0  0  0  0  0  0  0
   -0.6208   -0.1463   -2.2692 H   0  0  0  0  0  0  0  0  0  0  0  0
   -1.4163    1.3825   -1.8576 H   0  0  0  0  0  0  0  0  0  0  0  0
    0.3312    1.4376   -2.0189 H   0  0  0  0  0  0  0  0  0  0  0  0
    0.7929    0.9329    1.4614 H   0  0  0  0  0  0  0  0  0  0  0  0
    1.2322    1.7323   -0.0316 H   0  0  0  0  0  0  0  0  0  0  0  0
    1.9918   -1.0831    1.9983 H   0  0  0  0  0  0  0  0  0  0  0  0
    3.9325   -2.4785    1.7035 H   0  0  0  0  0  0  0  0  0  0  0  0
    6.3414   -2.1272   -0.0501 H   0  0  0  0  0  0  0  0  0  0  0  0
    4.5103   -0.8571   -2.1523 H   0  0  0  0  0  0  0  0  0  0  0  0
    2.5426    0.5560   -1.8992 H   0  0  0  0  0  0  0  0  0  0  0  0
   -0.1604   -1.8557    1.3001 H   0  0  0  0  0  0  0  0  0  0  0  0
   -1.8086   -3.6308    1.5451 H   0  0  0  0  0  0  0  0  0  0  0  0
   -4.0038   -4.4507    1.0255 H   0  0  0  0  0  0  0  0  0  0  0  0
   -4.4913   -1.4498   -0.8883 H   0  0  0  0  0  0  0  0  0  0  0  0
   -2.8494    0.3225   -1.1693 H   0  0  0  0  0  0  0  0  0  0  0  0
  1  2  1  0
  2  3  1  0
  3  4  1  0
  4  5  1  0
  4  6  1  0
  6  7  1  0
  7  8  2  0
  8  9  1  0
  9 10  2  0
 10 11  1  0
 10 12  1  0
 12 13  2  0
  4 14  1  0
 14 15  2  0
 15 16  1  0
 16 17  2  0
 17 18  1  0
 17 19  1  0
 19 20  2  0
 13  7  1  0
 20 14  1  0
  1 21  1  0
  1 22  1  0
  1 23  1  0
  2 24  1  0
  2 25  1  0
  3 26  1  0
  3 27  1  0
  5 28  1  0
  5 29  1  0
  5 30  1  0
  6 31  1  0
  6 32  1  0
  8 33  1  0
  9 34  1  0
 11 35  1  0
 12 36  1  0
 13 37  1  0
 15 38  1  0
 16 39  1  0
 18 40  1  0
 19 41  1  0
 20 42  1  0
M  END
$$$$
[H]Oc1c([H])c([H])c(-c2c([H])c([H])c3c(O[H])c([H])c([H])c([H])c3c2[H])c([H])c1[H]
     RDKit          3D

 30 32  0  0  0  0  0  0  0  0999 V2000
    5.8446   -0.5144   -0.5297 O   0  0  0  0  0  0  0  0  0  0  0  0
    4.4783   -0.3174   -0.3602 C   0  0  0  0  0  0  0  0  0  0  0  0
    3.9559    0.9568   -0.1268 C   0  0  0  0  0  0  0  0  0  0  0  0
    2.6230    1.1895    0.0441 C   0  0  0  0  0  0  0  0  0  0  0  0
    1.7743    0.1062   -0.0203 C   0  0  0  0  0  0  0  0  0  0  0  0
    2.2569   -1.1659   -0.2492 C   0  0  0  0  0  0  0  0  0  0  0  0
    3.6166   -1.3865   -0.4213 C   0  0  0  0  0  0  0  0  0  0  0  0
    0.3332    0.2517    0.1513 C   0  0  0  0  0  0  0  0  0  0  0  0
   -0.1245    1.2372    0.9882 C   0  0  0  0  0  0  0  0  0  0  0  0
   -1.5001    1.3622    1.1400 C   0  0  0  0  0  0  0  0  0  0  0  0
   -2.3571    0.5163    0.4648 C   0  0  0  0  0  0  0  0  0  0  0  0
   -3.7296    0.6187    0.5981 C   0  0  0  0  0  0  0  0  0  0  0  0
   -4.3107    1.5671    1.4086 O   0  0  0  0  0  0  0  0  0  0  0  0
   -4.5621   -0.2653   -0.1090 C   0  0  0  0  0  0  0  0  0  0  0  0
   -4.0676   -1.2425   -0.9401 C   0  0  0  0  0  0  0  0  0  0  0  0
   -2.7026   -1.3467   -1.0745 C   0  0  0  0  0  0  0  0  0  0  0  0
   -1.8691   -0.4790   -0.3810 C   0  0  0  0  0  0  0  0  0  0  0  0
   -0.5126   -0.5964   -0.5259 C   0  0  0  0  0  0  0  0  0  0  0  0
    6.4474   -0.7117    0.2778 H   0  0  0  0  0  0  0  0  0  0  0  0
    4.6362    1.7790   -0.0814 H   0  0  0  0  0  0  0  0  0  0  0  0
    2.1679    2.1510    0.2271 H   0  0  0  0  0  0  0  0  0  0  0  0
    1.5781   -2.0059   -0.2957 H   0  0  0  0  0  0  0  0  0  0  0  0
    3.9813   -2.4021   -0.6002 H   0  0  0  0  0  0  0  0  0  0  0  0
    0.5002    1.9154    1.5315 H   0  0  0  0  0  0  0  0  0  0  0  0
   -1.8685    2.1358    1.7986 H   0  0  0  0  0  0  0  0  0  0  0  0
   -3.7743    2.2124    1.9278 H   0  0  0  0  0  0  0  0  0  0  0  0
   -5.6339   -0.1609    0.0156 H   0  0  0  0  0  0  0  0  0  0  0  0
   -4.7332   -1.9223   -1.4833 H   0  0  0  0  0  0  0  0  0  0  0  0
   -2.3040   -2.1113   -1.7242 H   0  0  0  0  0  0  0  0  0  0  0  0
   -0.1440   -1.3709   -1.1850 H   0  0  0  0  0  0  0  0  0  0  0  0
  1  2  1  0
  2  3  2  0
  3  4  1  0
  4  5  2  0
  5  6  1  0
  6  7  2  0
  5  8  1  0
  8  9  2  0
  9 10  1  0
 10 11  2  0
 11 12  1  0
 12 13  1  0
 12 14  2  0
 14 15  1  0
 15 16  2  0
 16 17  1  0
 17 18  2  0
  7  2  1  0
 18  8  1  0
 17 11  1  0
  1 19  1  0
  3 20  1  0
  4 21  1  0
  6 22  1  0
  7 23  1  0
  9 24  1  0
 10 25  1  0
 13 26  1  0
 14 27  1  0
 15 28  1  0
 16 29  1  0
 18 30  1  0
M  END
$$$$
[H]Oc1c([H])c([H])c2c(=O)c(-c3c([H])c([H])c([H])c([H])c3C([H])([H])[H])c(C(F)(F)F)oc2c1[H]
     RDKit          3D

 34 36  0  0  0  0  0  0  0  0999 V2000
   -2.0655    0.2129    1.9221 C   0  0  0  0  0  0  0  0  0  0  0  0
   -2.5238    0.2187    0.5127 C   0  0  0  0  0  0  0  0  0  0  0  0
   -3.8766    0.4163    0.3277 C   0  0  0  0  0  0  0  0  0  0  0  0
   -4.4199    0.4801   -0.9402 C   0  0  0  0  0  0  0  0  0  0  0  0
   -3.6159    0.3469   -2.0385 C   0  0  0  0  0  0  0  0  0  0  0  0
   -2.2706    0.1499   -1.8420 C   0  0  0  0  0  0  0  0  0  0  0  0
   -1.6769    0.0778   -0.5763 C   0  0  0  0  0  0  0  0  0  0  0  0
   -0.2661   -0.1409   -0.3768 C   0  0  0  0  0  0  0  0  0  0  0  0
    0.2800   -1.3838   -0.3215 C   0  0  0  0  0  0  0  0  0  0  0  0
    1.5997   -1.4952   -0.0928 O   0  0  0  0  0  0  0  0  0  0  0  0
    2.3705   -0.4639    0.0754 C   0  0  0  0  0  0  0  0  0  0  0  0
    3.7216   -0.6751    0.3064 C   0  0  0  0  0  0  0  0  0  0  0  0
    4.5840    0.3846    0.4916 C   0  0  0  0  0  0  0  0  0  0  0  0
    5.9417    0.2183    0.7251 O   0  0  0  0  0  0  0  0  0  0  0  0
    4.0388    1.6508    0.4357 C   0  0  0  0  0  0  0  0  0  0  0  0
    2.7009    1.8923    0.2081 C   0  0  0  0  0  0  0  0  0  0  0  0
    1.8609    0.8120    0.0262 C   0  0  0  0  0  0  0  0  0  0  0  0
    0.5338    1.0075   -0.2004 C   0  0  0  0  0  0  0  0  0  0  0  0
    0.0076    2.1410   -0.2571 O   0  0  0  0  0  0  0  0  0  0  0  0
   -0.5153   -2.6044   -0.5060 C   0  0  0  0  0  0  0  0  0  0  0  0
   -1.1478   -2.6711   -1.7534 F   0  0  0  0  0  0  0  0  0  0  0  0
    0.4096   -3.6823   -0.5947 F   0  0  0  0  0  0  0  0  0  0  0  0
   -1.3406   -2.9566    0.5075 F   0  0  0  0  0  0  0  0  0  0  0  0
   -2.8349   -0.2825    2.5479 H   0  0  0  0  0  0  0  0  0  0  0  0
   -1.1329   -0.3677    2.0623 H   0  0  0  0  0  0  0  0  0  0  0  0
   -1.9871    1.2547    2.2562 H   0  0  0  0  0  0  0  0  0  0  0  0
   -4.5772    0.5306    1.1530 H   0  0  0  0  0  0  0  0  0  0  0  0
   -5.4797    0.6350   -1.0764 H   0  0  0  0  0  0  0  0  0  0  0  0
   -4.0712    0.4021   -3.0174 H   0  0  0  0  0  0  0  0  0  0  0  0
   -1.6558    0.0477   -2.7181 H   0  0  0  0  0  0  0  0  0  0  0  0
    4.1310   -1.6781    0.3467 H   0  0  0  0  0  0  0  0  0  0  0  0
    6.3071    0.1284    1.6641 H   0  0  0  0  0  0  0  0  0  0  0  0
    4.6937    2.5176    0.5783 H   0  0  0  0  0  0  0  0  0  0  0  0
    2.2769    2.8763    0.1646 H   0  0  0  0  0  0  0  0  0  0  0  0
  1  2  1  0
  2  3  2  0
  3  4  1  0
  4  5  2  0
  5  6  1  0
  6  7  2  0
  7  8  1  0
  8  9  2  0
  9 10  1  0
 10 11  1  0
 11 12  2  0
 12 13  1  0
 13 14  1  0
 13 15  2  0
 15 16  1  0
 16 17  2  0
 17 18  1  0
 18 19  2  0
  9 20  1  0
 20 21  1  0
 20 22  1  0
 20 23  1  0
  7  2  1  0
 18  8  1  0
 17 11  1  0
  1 24  1  0
  1 25  1  0
  1 26  1  0
  3 27  1  0
  4 28  1  0
  5 29  1  0
  6 30  1  0
 12 31  1  0
 14 32  1  0
 15 33  1  0
 16 34  1  0
M  END
$$$$
[H]c1c([H])c([C@]2([H])c3c(c4c([H])c([H])c([H])c([H])c4n3[H])C([H])([H])[C@@]([H])(C([H])([H])[H])N2C([H])([H])C([H])(F)F)c(OC([H])([H])[H])c([H])c1N([H])C([H])([H])C([H])([H])N([H])C([H])([H])C([H])([H])C([H])([H])F
     RDKit          3D

 67 70  0  0  0  0  0  0  0  0999 V2000
    1.0418    3.0694   -2.1562 C   0  0  0  0  0  0  0  0  0  0  0  0
    0.0228    2.2141   -1.6818 O   0  0  0  0  0  0  0  0  0  0  0  0
    0.2380    1.6022   -0.4359 C   0  0  0  0  0  0  0  0  0  0  0  0
    1.3953    1.8357    0.2796 C   0  0  0  0  0  0  0  0  0  0  0  0
    1.6075    1.2368    1.4996 C   0  0  0  0  0  0  0  0  0  0  0  0
    2.7866    1.4427    2.2621 N   0  0  0  0  0  0  0  0  0  0  0  0
    3.9100    2.1137    1.7132 C   0  0  0  0  0  0  0  0  0  0  0  0
    4.6313    1.4194    0.6116 C   0  0  0  0  0  0  0  0  0  0  0  0
    5.1660    0.1296    1.0137 N   0  0  0  0  0  0  0  0  0  0  0  0
    5.8462   -0.4598   -0.1261 C   0  0  0  0  0  0  0  0  0  0  0  0
    6.4336   -1.8073    0.2095 C   0  0  0  0  0  0  0  0  0  0  0  0
    7.4347   -1.6410    1.3381 C   0  0  0  0  0  0  0  0  0  0  0  0
    7.9771   -2.8602    1.6537 F   0  0  0  0  0  0  0  0  0  0  0  0
    0.5926    0.3901    1.9628 C   0  0  0  0  0  0  0  0  0  0  0  0
   -0.5622    0.1539    1.2549 C   0  0  0  0  0  0  0  0  0  0  0  0
   -0.7645    0.7599    0.0315 C   0  0  0  0  0  0  0  0  0  0  0  0
   -1.9929    0.5848   -0.7842 C   0  0  1  0  0  0  0  0  0  0  0  0
   -1.8278   -0.4414   -1.7270 N   0  0  0  0  0  0  0  0  0  0  0  0
   -2.6124   -0.4269   -2.9155 C   0  0  0  0  0  0  0  0  0  0  0  0
   -2.3824    0.6170   -3.9288 C   0  0  0  0  0  0  0  0  0  0  0  0
   -3.3004    0.3274   -4.9743 F   0  0  0  0  0  0  0  0  0  0  0  0
   -2.7820    1.9040   -3.5533 F   0  0  0  0  0  0  0  0  0  0  0  0
   -1.8287   -1.7513   -1.0948 C   0  0  2  0  0  0  0  0  0  0  0  0
   -1.5459   -2.8436   -2.1202 C   0  0  0  0  0  0  0  0  0  0  0  0
   -3.0989   -2.0788   -0.3848 C   0  0  0  0  0  0  0  0  0  0  0  0
   -3.6661   -0.9143    0.3381 C   0  0  0  0  0  0  0  0  0  0  0  0
   -3.1517    0.3605    0.1594 C   0  0  0  0  0  0  0  0  0  0  0  0
   -3.8738    1.1629    0.9402 N   0  0  0  0  0  0  0  0  0  0  0  0
   -4.8162    0.4707    1.6037 C   0  0  0  0  0  0  0  0  0  0  0  0
   -5.8050    0.7829    2.5117 C   0  0  0  0  0  0  0  0  0  0  0  0
   -6.6682   -0.1421    3.0595 C   0  0  0  0  0  0  0  0  0  0  0  0
   -6.5466   -1.4708    2.6839 C   0  0  0  0  0  0  0  0  0  0  0  0
   -5.5684   -1.8141    1.7786 C   0  0  0  0  0  0  0  0  0  0  0  0
   -4.7116   -0.8774    1.2387 C   0  0  0  0  0  0  0  0  0  0  0  0
    0.8217    3.4518   -3.1694 H   0  0  0  0  0  0  0  0  0  0  0  0
    1.1473    3.9656   -1.4774 H   0  0  0  0  0  0  0  0  0  0  0  0
    2.0264    2.5520   -2.1913 H   0  0  0  0  0  0  0  0  0  0  0  0
    2.1236    2.5131   -0.1509 H   0  0  0  0  0  0  0  0  0  0  0  0
    2.7886    1.0763    3.2487 H   0  0  0  0  0  0  0  0  0  0  0  0
    4.6649    2.3583    2.4999 H   0  0  0  0  0  0  0  0  0  0  0  0
    3.5442    3.0890    1.2985 H   0  0  0  0  0  0  0  0  0  0  0  0
    4.1039    1.2691   -0.3223 H   0  0  0  0  0  0  0  0  0  0  0  0
    5.5270    2.0617    0.3635 H   0  0  0  0  0  0  0  0  0  0  0  0
    4.4423   -0.4832    1.4108 H   0  0  0  0  0  0  0  0  0  0  0  0
    5.1677   -0.5808   -0.9831 H   0  0  0  0  0  0  0  0  0  0  0  0
    6.6481    0.2362   -0.4304 H   0  0  0  0  0  0  0  0  0  0  0  0
    5.6426   -2.5096    0.5151 H   0  0  0  0  0  0  0  0  0  0  0  0
    6.9375   -2.1884   -0.6954 H   0  0  0  0  0  0  0  0  0  0  0  0
    8.2260   -0.9310    1.0990 H   0  0  0  0  0  0  0  0  0  0  0  0
    6.8642   -1.2620    2.2304 H   0  0  0  0  0  0  0  0  0  0  0  0
    0.7640   -0.0808    2.9264 H   0  0  0  0  0  0  0  0  0  0  0  0
   -1.3173   -0.5029    1.6486 H   0  0  0  0  0  0  0  0  0  0  0  0
   -2.1631    1.5832   -1.2450 H   0  0  0  0  0  0  0  0  0  0  0  0
   -2.5041   -1.4124   -3.4203 H   0  0  0  0  0  0  0  0  0  0  0  0
   -3.7192   -0.3924   -2.6630 H   0  0  0  0  0  0  0  0  0  0  0  0
   -1.3985    0.6091   -4.4205 H   0  0  0  0  0  0  0  0  0  0  0  0
   -0.9863   -1.7918   -0.3849 H   0  0  0  0  0  0  0  0  0  0  0  0
   -0.8695   -2.5218   -2.9139 H   0  0  0  0  0  0  0  0  0  0  0  0
   -2.4796   -3.2488   -2.5350 H   0  0  0  0  0  0  0  0  0  0  0  0
   -1.0365   -3.7161   -1.6149 H   0  0  0  0  0  0  0  0  0  0  0  0
   -3.8300   -2.4509   -1.1327 H   0  0  0  0  0  0  0  0  0  0  0  0
   -2.9098   -2.9019    0.3293 H   0  0  0  0  0  0  0  0  0  0  0  0
   -3.7521    2.1983    1.0480 H   0  0  0  0  0  0  0  0  0  0  0  0
   -5.8925    1.8237    2.7988 H   0  0  0  0  0  0  0  0  0  0  0  0
   -7.4375    0.1606    3.7782 H   0  0  0  0  0  0  0  0  0  0  0  0
   -7.2366   -2.1722    3.1294 H   0  0  0  0  0  0  0  0  0  0  0  0
   -5.4852   -2.8498    1.4959 H   0  0  0  0  0  0  0  0  0  0  0  0
  1  2  1  0
  2  3  1  0
  3  4  2  0
  4  5  1  0
  5  6  1  0
  6  7  1  0
  7  8  1  0
  8  9  1  0
  9 10  1  0
 10 11  1  0
 11 12  1  0
 12 13  1  0
  5 14  2  0
 14 15  1  0
 15 16  2  0
 16 17  1  0
 17 18  1  0
 18 19  1  0
 19 20  1  0
 20 21  1  0
 20 22  1  0
 18 23  1  0
 23 24  1  0
 23 25  1  0
 25 26  1  0
 26 27  2  0
 27 28  1  0
 28 29  1  0
 29 30  2  0
 30 31  1  0
 31 32  2  0
 32 33  1  0
 33 34  2  0
 16  3  1  0
 27 17  1  0
 34 29  1  0
 34 26  1  0
  1 35  1  0
  1 36  1  0
  1 37  1  0
  4 38  1  0
  6 39  1  0
  7 40  1  0
  7 41  1  0
  8 42  1  0
  8 43  1  0
  9 44  1  0
 10 45  1  0
 10 46  1  0
 11 47  1  0
 11 48  1  0
 12 49  1  0
 12 50  1  0
 14 51  1  0
 15 52  1  0
 17 53  1  6
 19 54  1  0
 19 55  1  0
 20 56  1  0
 23 57  1  1
 24 58  1  0
 24 59  1  0
 24 60  1  0
 25 61  1  0
 25 62  1  0
 28 63  1  0
 30 64  1  0
 31 65  1  0
 32 66  1  0
 33 67  1  0
M  END
$$$$
[H]c1nc(OC([H])([H])C([H])([H])N([H])C([H])([H])C([H])([H])C([H])([H])F)c(F)c([C@]2([H])c3c(c4c([H])c(F)c([H])c([H])c4n3[H])C([H])([H])[C@@]([H])(C([H])([H])[H])N2C([H])([H])C2(F)C([H])([H])C2([H])[H])c1F
     RDKit          3D

 65 69  0  0  0  0  0  0  0  0999 V2000
   -4.4219   -1.6569   -1.4483 C   0  0  0  0  0  0  0  0  0  0  0  0
   -3.8358   -1.2495   -0.1080 C   0  0  2  0  0  0  0  0  0  0  0  0
   -4.2158    0.1766    0.2460 C   0  0  0  0  0  0  0  0  0  0  0  0
   -3.4314    1.1382   -0.5854 C   0  0  0  0  0  0  0  0  0  0  0  0
   -2.2452    0.7867   -1.1883 C   0  0  0  0  0  0  0  0  0  0  0  0
   -1.8103    1.8578   -1.8526 N   0  0  0  0  0  0  0  0  0  0  0  0
   -2.6461    2.8999   -1.7206 C   0  0  0  0  0  0  0  0  0  0  0  0
   -2.7236    4.2050   -2.1528 C   0  0  0  0  0  0  0  0  0  0  0  0
   -3.7584    5.0505   -1.8239 C   0  0  0  0  0  0  0  0  0  0  0  0
   -4.7877    4.5814   -1.0148 C   0  0  0  0  0  0  0  0  0  0  0  0
   -5.8083    5.4106   -0.6879 F   0  0  0  0  0  0  0  0  0  0  0  0
   -4.7311    3.2696   -0.5671 C   0  0  0  0  0  0  0  0  0  0  0  0
   -3.6826    2.4405   -0.9104 C   0  0  0  0  0  0  0  0  0  0  0  0
   -1.7278   -0.5701   -1.0032 C   0  0  2  0  0  0  0  0  0  0  0  0
   -2.4191   -1.3916   -0.0867 N   0  0  0  0  0  0  0  0  0  0  0  0
   -1.8815   -1.6005    1.2038 C   0  0  0  0  0  0  0  0  0  0  0  0
   -2.2868   -2.9575    1.8027 C   0  0  0  0  0  0  0  0  0  0  0  0
   -1.8802   -4.0228    1.0456 F   0  0  0  0  0  0  0  0  0  0  0  0
   -1.9501   -3.0421    3.2999 C   0  0  0  0  0  0  0  0  0  0  0  0
   -3.3531   -3.0440    2.8271 C   0  0  0  0  0  0  0  0  0  0  0  0
   -0.2730   -0.6307   -0.7831 C   0  0  0  0  0  0  0  0  0  0  0  0
    0.4270   -1.6556   -1.4231 C   0  0  0  0  0  0  0  0  0  0  0  0
   -0.1797   -2.5660   -2.1913 F   0  0  0  0  0  0  0  0  0  0  0  0
    1.8018   -1.7621   -1.2779 C   0  0  0  0  0  0  0  0  0  0  0  0
    2.4735   -0.8807   -0.5204 N   0  0  0  0  0  0  0  0  0  0  0  0
    1.8390    0.1134    0.1079 C   0  0  0  0  0  0  0  0  0  0  0  0
    2.4415    1.0525    0.8990 O   0  0  0  0  0  0  0  0  0  0  0  0
    3.7932    1.1945    1.2178 C   0  0  0  0  0  0  0  0  0  0  0  0
    4.6147    1.4509   -0.0088 C   0  0  0  0  0  0  0  0  0  0  0  0
    6.0279    1.6042    0.3004 N   0  0  0  0  0  0  0  0  0  0  0  0
    6.6301    0.3887    0.7522 C   0  0  0  0  0  0  0  0  0  0  0  0
    6.7436   -0.6822   -0.2865 C   0  0  0  0  0  0  0  0  0  0  0  0
    7.4005   -1.8951    0.3706 C   0  0  0  0  0  0  0  0  0  0  0  0
    6.6212   -2.3388    1.4297 F   0  0  0  0  0  0  0  0  0  0  0  0
    0.4524    0.2421   -0.0228 C   0  0  0  0  0  0  0  0  0  0  0  0
   -0.1973    1.2336    0.6109 F   0  0  0  0  0  0  0  0  0  0  0  0
   -3.6410   -2.1363   -2.0693 H   0  0  0  0  0  0  0  0  0  0  0  0
   -5.2265   -2.4375   -1.3325 H   0  0  0  0  0  0  0  0  0  0  0  0
   -4.9213   -0.8022   -1.9490 H   0  0  0  0  0  0  0  0  0  0  0  0
   -4.2941   -1.9026    0.6414 H   0  0  0  0  0  0  0  0  0  0  0  0
   -5.3088    0.2642    0.0768 H   0  0  0  0  0  0  0  0  0  0  0  0
   -4.0515    0.3379    1.3302 H   0  0  0  0  0  0  0  0  0  0  0  0
   -0.9345    1.9164   -2.4157 H   0  0  0  0  0  0  0  0  0  0  0  0
   -1.9267    4.5771   -2.7826 H   0  0  0  0  0  0  0  0  0  0  0  0
   -3.8014    6.0682   -2.1714 H   0  0  0  0  0  0  0  0  0  0  0  0
   -5.5484    2.9408    0.0597 H   0  0  0  0  0  0  0  0  0  0  0  0
   -1.8978   -1.0622   -2.0275 H   0  0  0  0  0  0  0  0  0  0  0  0
   -0.7565   -1.6681    1.2063 H   0  0  0  0  0  0  0  0  0  0  0  0
   -2.2194   -0.8344    1.9472 H   0  0  0  0  0  0  0  0  0  0  0  0
   -1.4654   -3.9646    3.6516 H   0  0  0  0  0  0  0  0  0  0  0  0
   -1.6242   -2.1274    3.8201 H   0  0  0  0  0  0  0  0  0  0  0  0
   -3.9969   -2.1534    3.0054 H   0  0  0  0  0  0  0  0  0  0  0  0
   -3.8968   -4.0010    2.9265 H   0  0  0  0  0  0  0  0  0  0  0  0
    2.3664   -2.5542   -1.7690 H   0  0  0  0  0  0  0  0  0  0  0  0
    4.1178    0.2624    1.7473 H   0  0  0  0  0  0  0  0  0  0  0  0
    3.9770    2.0535    1.9089 H   0  0  0  0  0  0  0  0  0  0  0  0
    4.3004    2.4699   -0.3858 H   0  0  0  0  0  0  0  0  0  0  0  0
    4.4331    0.6695   -0.7502 H   0  0  0  0  0  0  0  0  0  0  0  0
    6.4857    1.9846   -0.5704 H   0  0  0  0  0  0  0  0  0  0  0  0
    6.1410    0.0488    1.6685 H   0  0  0  0  0  0  0  0  0  0  0  0
    7.6829    0.6565    1.0669 H   0  0  0  0  0  0  0  0  0  0  0  0
    5.7120   -1.0126   -0.5539 H   0  0  0  0  0  0  0  0  0  0  0  0
    7.3427   -0.3694   -1.1394 H   0  0  0  0  0  0  0  0  0  0  0  0
    8.3905   -1.6638    0.7844 H   0  0  0  0  0  0  0  0  0  0  0  0
    7.5419   -2.7107   -0.3744 H   0  0  0  0  0  0  0  0  0  0  0  0
  1  2  1  0
  2  3  1  0
  3  4  1  0
  4  5  2  0
  5  6  1  0
  6  7  1  0
  7  8  2  0
  8  9  1  0
  9 10  2  0
 10 11  1  0
 10 12  1  0
 12 13  2  0
  5 14  1  0
 14 15  1  0
 15 16  1  0
 16 17  1  0
 17 18  1  0
 17 19  1  0
 19 20  1  0
 14 21  1  0
 21 22  2  0
 22 23  1  0
 22 24  1  0
 24 25  2  0
 25 26  1  0
 26 27  1  0
 27 28  1  0
 28 29  1  0
 29 30  1  0
 30 31  1  0
 31 32  1  0
 32 33  1  0
 33 34  1  0
 26 35  2  0
 35 36  1  0
 15  2  1  0
 20 17  1  0
 35 21  1  0
 13  4  1  0
 13  7  1  0
  1 37  1  0
  1 38  1  0
  1 39  1  0
  2 40  1  1
  3 41  1  0
  3 42  1  0
  6 43  1  0
  8 44  1  0
  9 45  1  0
 12 46  1  0
 14 47  1  6
 16 48  1  0
 16 49  1  0
 19 50  1  0
 19 51  1  0
 20 52  1  0
 20 53  1  0
 24 54  1  0
 28 55  1  0
 28 56  1  0
 29 57  1  0
 29 58  1  0
 30 59  1  0
 31 60  1  0
 31 61  1  0
 32 62  1  0
 32 63  1  0
 33 64  1  0
 33 65  1  0
M  END
$$$$
[H]c1c(OC([H])([H])C([H])([H])N([H])C([H])([H])C([H])([H])C([H])([H])F)nc([C@]2([H])c3c(c4c([H])c([H])c([H])c([H])c4n3[H])C([H])([H])[C@@]([H])(C([H])([H])[H])N2C([H])([H])C(F)(F)F)c([H])c1[H]
     RDKit          3D

 61 64  0  0  0  0  0  0  0  0999 V2000
   -3.7103    2.4157    0.7194 C   0  0  0  0  0  0  0  0  0  0  0  0
   -2.5739    1.9922   -0.1569 C   0  0  2  0  0  0  0  0  0  0  0  0
   -3.1176    1.0287   -1.2070 C   0  0  0  0  0  0  0  0  0  0  0  0
   -3.6774   -0.1089   -0.4412 C   0  0  0  0  0  0  0  0  0  0  0  0
   -2.8364   -0.6208    0.5382 C   0  0  0  0  0  0  0  0  0  0  0  0
   -3.5088   -1.6417    1.1332 N   0  0  0  0  0  0  0  0  0  0  0  0
   -4.7350   -1.7864    0.5665 C   0  0  0  0  0  0  0  0  0  0  0  0
   -5.7817   -2.6463    0.8017 C   0  0  0  0  0  0  0  0  0  0  0  0
   -6.9516   -2.5746    0.0677 C   0  0  0  0  0  0  0  0  0  0  0  0
   -7.0734   -1.6160   -0.9255 C   0  0  0  0  0  0  0  0  0  0  0  0
   -6.0206   -0.7632   -1.1511 C   0  0  0  0  0  0  0  0  0  0  0  0
   -4.8466   -0.8253   -0.4247 C   0  0  0  0  0  0  0  0  0  0  0  0
   -1.5234   -0.0074    0.7385 C   0  0  2  0  0  0  0  0  0  0  0  0
   -1.4534    1.4092    0.4920 N   0  0  0  0  0  0  0  0  0  0  0  0
   -0.9642    2.1304    1.6285 C   0  0  0  0  0  0  0  0  0  0  0  0
   -0.3455    3.4511    1.3634 C   0  0  0  0  0  0  0  0  0  0  0  0
    0.7524    3.4176    0.5196 F   0  0  0  0  0  0  0  0  0  0  0  0
   -1.2453    4.4120    0.9492 F   0  0  0  0  0  0  0  0  0  0  0  0
    0.1654    3.9370    2.5888 F   0  0  0  0  0  0  0  0  0  0  0  0
   -0.4578   -0.7403    0.0293 C   0  0  0  0  0  0  0  0  0  0  0  0
   -0.7618   -1.8671   -0.7159 C   0  0  0  0  0  0  0  0  0  0  0  0
    0.2631   -2.5301   -1.3373 C   0  0  0  0  0  0  0  0  0  0  0  0
    1.5821   -2.0921   -1.2300 C   0  0  0  0  0  0  0  0  0  0  0  0
    1.8348   -0.9684   -0.4784 C   0  0  0  0  0  0  0  0  0  0  0  0
    3.1614   -0.4833   -0.3315 O   0  0  0  0  0  0  0  0  0  0  0  0
    3.3587    0.6685    0.4423 C   0  0  0  0  0  0  0  0  0  0  0  0
    4.8049    1.0268    0.5755 C   0  0  0  0  0  0  0  0  0  0  0  0
    5.6316    0.0441    1.1840 N   0  0  0  0  0  0  0  0  0  0  0  0
    5.9578   -1.1086    0.4227 C   0  0  0  0  0  0  0  0  0  0  0  0
    6.9553   -0.6571   -0.6538 C   0  0  0  0  0  0  0  0  0  0  0  0
    8.1604   -0.1262    0.1335 C   0  0  0  0  0  0  0  0  0  0  0  0
    9.0960    0.2892   -0.7635 F   0  0  0  0  0  0  0  0  0  0  0  0
    0.8247   -0.3442    0.1125 N   0  0  0  0  0  0  0  0  0  0  0  0
   -3.4706    2.7530    1.7173 H   0  0  0  0  0  0  0  0  0  0  0  0
   -4.4700    1.5905    0.8459 H   0  0  0  0  0  0  0  0  0  0  0  0
   -4.2685    3.2146    0.1455 H   0  0  0  0  0  0  0  0  0  0  0  0
   -2.2238    2.8726   -0.7271 H   0  0  0  0  0  0  0  0  0  0  0  0
   -3.8937    1.4951   -1.8301 H   0  0  0  0  0  0  0  0  0  0  0  0
   -2.2545    0.6595   -1.7885 H   0  0  0  0  0  0  0  0  0  0  0  0
   -3.1593   -2.2412    1.9116 H   0  0  0  0  0  0  0  0  0  0  0  0
   -5.7252   -3.4065    1.5680 H   0  0  0  0  0  0  0  0  0  0  0  0
   -7.7917   -3.2434    0.2419 H   0  0  0  0  0  0  0  0  0  0  0  0
   -7.9970   -1.5757   -1.4865 H   0  0  0  0  0  0  0  0  0  0  0  0
   -6.0701   -0.0039   -1.9078 H   0  0  0  0  0  0  0  0  0  0  0  0
   -1.2974   -0.1268    1.8451 H   0  0  0  0  0  0  0  0  0  0  0  0
   -0.1363    1.4762    2.0513 H   0  0  0  0  0  0  0  0  0  0  0  0
   -1.6785    2.2207    2.4519 H   0  0  0  0  0  0  0  0  0  0  0  0
   -1.8024   -2.2079   -0.7965 H   0  0  0  0  0  0  0  0  0  0  0  0
    0.0312   -3.4155   -1.9240 H   0  0  0  0  0  0  0  0  0  0  0  0
    2.3973   -2.6090   -1.7143 H   0  0  0  0  0  0  0  0  0  0  0  0
    2.8299    1.5434   -0.0239 H   0  0  0  0  0  0  0  0  0  0  0  0
    2.8665    0.5540    1.4452 H   0  0  0  0  0  0  0  0  0  0  0  0
    4.8496    1.9428    1.2327 H   0  0  0  0  0  0  0  0  0  0  0  0
    5.2128    1.3173   -0.4315 H   0  0  0  0  0  0  0  0  0  0  0  0
    5.2624   -0.2582    2.1081 H   0  0  0  0  0  0  0  0  0  0  0  0
    6.5146   -1.8318    1.0818 H   0  0  0  0  0  0  0  0  0  0  0  0
    5.1358   -1.6781   -0.0163 H   0  0  0  0  0  0  0  0  0  0  0  0
    6.5439    0.0951   -1.3331 H   0  0  0  0  0  0  0  0  0  0  0  0
    7.2249   -1.5515   -1.2325 H   0  0  0  0  0  0  0  0  0  0  0  0
    8.5600   -0.9890    0.7355 H   0  0  0  0  0  0  0  0  0  0  0  0
    7.8465    0.6894    0.8114 H   0  0  0  0  0  0  0  0  0  0  0  0
  1  2  1  0
  2  3  1  0
  3  4  1  0
  4  5  2  0
  5  6  1  0
  6  7  1  0
  7  8  2  0
  8  9  1  0
  9 10  2  0
 10 11  1  0
 11 12  2  0
  5 13  1  0
 13 14  1  0
 14 15  1  0
 15 16  1  0
 16 17  1  0
 16 18  1  0
 16 19  1  0
 13 20  1  0
 20 21  2  0
 21 22  1  0
 22 23  2  0
 23 24  1  0
 24 25  1  0
 25 26  1  0
 26 27  1  0
 27 28  1  0
 28 29  1  0
 29 30  1  0
 30 31  1  0
 31 32  1  0
 24 33  2  0
 14  2  1  0
 33 20  1  0
 12  4  1  0
 12  7  1  0
  1 34  1  0
  1 35  1  0
  1 36  1  0
  2 37  1  6
  3 38  1  0
  3 39  1  0
  6 40  1  0
  8 41  1  0
  9 42  1  0
 10 43  1  0
 11 44  1  0
 13 45  1  1
 15 46  1  0
 15 47  1  0
 21 48  1  0
 22 49  1  0
 23 50  1  0
 26 51  1  0
 26 52  1  0
 27 53  1  0
 27 54  1  0
 28 55  1  0
 29 56  1  0
 29 57  1  0
 30 58  1  0
 30 59  1  0
 31 60  1  0
 31 61  1  0
M  END
$$$$
[H]Oc1c([H])c([H])c2c(c1[H])S[C@]([H])(C([H])([H])C1([H])C([H])([H])C([H])([H])C([H])([H])C([H])([H])C1([H])[H])[C@]([H])(c1c([H])c([H])c(OC([H])([H])C([H])([H])N3C([H])([H])C([H])([H])C([H])([H])C([H])([H])C3([H])[H])c([H])c1[H])O2
     RDKit          3D

 70 74  0  0  0  0  0  0  0  0999 V2000
   -7.4600   -0.3734   -5.1484 O   0  0  0  0  0  0  0  0  0  0  0  0
   -6.1986   -0.2910   -4.5600 C   0  0  0  0  0  0  0  0  0  0  0  0
   -5.1625    0.4007   -5.1658 C   0  0  0  0  0  0  0  0  0  0  0  0
   -3.9214    0.4856   -4.5936 C   0  0  0  0  0  0  0  0  0  0  0  0
   -3.7009   -0.1342   -3.3838 C   0  0  0  0  0  0  0  0  0  0  0  0
   -2.4420   -0.0383   -2.8206 O   0  0  0  0  0  0  0  0  0  0  0  0
   -1.9762   -1.0053   -1.9170 C   0  0  2  0  0  0  0  0  0  0  0  0
   -2.8045   -1.0350   -0.6581 C   0  0  1  0  0  0  0  0  0  0  0  0
   -3.0264    0.3334   -0.0808 C   0  0  0  0  0  0  0  0  0  0  0  0
   -3.8517    0.2202    1.1578 C   0  0  0  0  0  0  0  0  0  0  0  0
   -4.1094    1.5738    1.7870 C   0  0  0  0  0  0  0  0  0  0  0  0
   -5.3164    1.4243    2.6900 C   0  0  0  0  0  0  0  0  0  0  0  0
   -5.2823    0.1160    3.4481 C   0  0  0  0  0  0  0  0  0  0  0  0
   -3.8763   -0.4357    3.5489 C   0  0  0  0  0  0  0  0  0  0  0  0
   -3.2514   -0.6751    2.1962 C   0  0  0  0  0  0  0  0  0  0  0  0
   -4.4612   -1.6351   -1.1986 S   0  0  0  0  0  0  0  0  0  0  0  0
   -4.7293   -0.8309   -2.7645 C   0  0  0  0  0  0  0  0  0  0  0  0
   -5.9656   -0.9087   -3.3466 C   0  0  0  0  0  0  0  0  0  0  0  0
   -0.5295   -0.9274   -1.6854 C   0  0  0  0  0  0  0  0  0  0  0  0
    0.0587   -0.9835   -0.4489 C   0  0  0  0  0  0  0  0  0  0  0  0
    1.4455   -0.9053   -0.2916 C   0  0  0  0  0  0  0  0  0  0  0  0
    2.2582   -0.7678   -1.3981 C   0  0  0  0  0  0  0  0  0  0  0  0
    3.6328   -0.6917   -1.2232 O   0  0  0  0  0  0  0  0  0  0  0  0
    4.2610   -0.7460    0.0218 C   0  0  0  0  0  0  0  0  0  0  0  0
    5.7735   -0.6353   -0.1386 C   0  0  0  0  0  0  0  0  0  0  0  0
    6.4011   -0.6945    1.1743 N   0  0  0  0  0  0  0  0  0  0  0  0
    7.8264   -0.5923    1.0540 C   0  0  0  0  0  0  0  0  0  0  0  0
    8.3064    0.8439    1.0502 C   0  0  0  0  0  0  0  0  0  0  0  0
    7.9464    1.5604    2.3260 C   0  0  0  0  0  0  0  0  0  0  0  0
    6.7967    0.8630    3.0404 C   0  0  0  0  0  0  0  0  0  0  0  0
    5.8300    0.3530    1.9922 C   0  0  0  0  0  0  0  0  0  0  0  0
    1.6695   -0.7111   -2.6430 C   0  0  0  0  0  0  0  0  0  0  0  0
    0.2938   -0.7904   -2.7775 C   0  0  0  0  0  0  0  0  0  0  0  0
   -8.1920   -0.8829   -4.6841 H   0  0  0  0  0  0  0  0  0  0  0  0
   -5.4094    0.8653   -6.1199 H   0  0  0  0  0  0  0  0  0  0  0  0
   -3.1497    1.0315   -5.0983 H   0  0  0  0  0  0  0  0  0  0  0  0
   -2.1570   -2.0127   -2.4008 H   0  0  0  0  0  0  0  0  0  0  0  0
   -2.4125   -1.7725    0.0614 H   0  0  0  0  0  0  0  0  0  0  0  0
   -3.6292    0.9059   -0.8310 H   0  0  0  0  0  0  0  0  0  0  0  0
   -2.0926    0.9065    0.0566 H   0  0  0  0  0  0  0  0  0  0  0  0
   -4.8366   -0.2212    0.8696 H   0  0  0  0  0  0  0  0  0  0  0  0
   -3.2185    1.8386    2.3920 H   0  0  0  0  0  0  0  0  0  0  0  0
   -4.2497    2.3519    1.0345 H   0  0  0  0  0  0  0  0  0  0  0  0
   -5.4084    2.3038    3.3511 H   0  0  0  0  0  0  0  0  0  0  0  0
   -6.2124    1.4151    2.0332 H   0  0  0  0  0  0  0  0  0  0  0  0
   -5.6179    0.3212    4.4846 H   0  0  0  0  0  0  0  0  0  0  0  0
   -5.9417   -0.6498    3.0221 H   0  0  0  0  0  0  0  0  0  0  0  0
   -3.9738   -1.4335    4.0548 H   0  0  0  0  0  0  0  0  0  0  0  0
   -3.2342    0.1741    4.2210 H   0  0  0  0  0  0  0  0  0  0  0  0
   -2.1737   -0.4236    2.2768 H   0  0  0  0  0  0  0  0  0  0  0  0
   -3.3222   -1.7368    1.8834 H   0  0  0  0  0  0  0  0  0  0  0  0
   -6.8026   -1.4533   -2.8818 H   0  0  0  0  0  0  0  0  0  0  0  0
   -0.5443   -1.0879    0.4182 H   0  0  0  0  0  0  0  0  0  0  0  0
    1.9047   -0.9502    0.6882 H   0  0  0  0  0  0  0  0  0  0  0  0
    3.8930   -0.0031    0.7551 H   0  0  0  0  0  0  0  0  0  0  0  0
    4.0370   -1.7610    0.4550 H   0  0  0  0  0  0  0  0  0  0  0  0
    6.1731   -1.4522   -0.7498 H   0  0  0  0  0  0  0  0  0  0  0  0
    5.9976    0.3608   -0.5654 H   0  0  0  0  0  0  0  0  0  0  0  0
    8.1125   -1.0246    0.0717 H   0  0  0  0  0  0  0  0  0  0  0  0
    8.3673   -1.1415    1.8353 H   0  0  0  0  0  0  0  0  0  0  0  0
    7.8786    1.3771    0.1718 H   0  0  0  0  0  0  0  0  0  0  0  0
    9.3967    0.8358    0.9510 H   0  0  0  0  0  0  0  0  0  0  0  0
    8.7977    1.6068    3.0234 H   0  0  0  0  0  0  0  0  0  0  0  0
    7.6361    2.5947    2.0756 H   0  0  0  0  0  0  0  0  0  0  0  0
    6.2276    1.5998    3.6531 H   0  0  0  0  0  0  0  0  0  0  0  0
    7.1286    0.0095    3.6430 H   0  0  0  0  0  0  0  0  0  0  0  0
    4.9612   -0.0768    2.5321 H   0  0  0  0  0  0  0  0  0  0  0  0
    5.4609    1.1682    1.3571 H   0  0  0  0  0  0  0  0  0  0  0  0
    2.3176   -0.6033   -3.5017 H   0  0  0  0  0  0  0  0  0  0  0  0
   -0.1463   -0.7424   -3.7815 H   0  0  0  0  0  0  0  0  0  0  0  0
  1  2  1  0
  2  3  2  0
  3  4  1  0
  4  5  2  0
  5  6  1  0
  6  7  1  0
  7  8  1  0
  8  9  1  0
  9 10  1  0
 10 11  1  0
 11 12  1  0
 12 13  1  0
 13 14  1  0
 14 15  1  0
  8 16  1  0
 16 17  1  0
 17 18  2  0
  7 19  1  0
 19 20  2  0
 20 21  1  0
 21 22  2  0
 22 23  1  0
 23 24  1  0
 24 25  1  0
 25 26  1  0
 26 27  1  0
 27 28  1  0
 28 29  1  0
 29 30  1  0
 30 31  1  0
 22 32  1  0
 32 33  2  0
 18  2  1  0
 33 19  1  0
 17  5  1  0
 31 26  1  0
 15 10  1  0
  1 34  1  0
  3 35  1  0
  4 36  1  0
  7 37  1  6
  8 38  1  1
  9 39  1  0
  9 40  1  0
 10 41  1  0
 11 42  1  0
 11 43  1  0
 12 44  1  0
 12 45  1  0
 13 46  1  0
 13 47  1  0
 14 48  1  0
 14 49  1  0
 15 50  1  0
 15 51  1  0
 18 52  1  0
 20 53  1  0
 21 54  1  0
 24 55  1  0
 24 56  1  0
 25 57  1  0
 25 58  1  0
 27 59  1  0
 27 60  1  0
 28 61  1  0
 28 62  1  0
 29 63  1  0
 29 64  1  0
 30 65  1  0
 30 66  1  0
 31 67  1  0
 31 68  1  0
 32 69  1  0
 33 70  1  0
M  END
$$$$
[H]Oc1c([H])c([H])c2c(c1[H])C([H])([H])C([H])([H])C([H])([H])C(c1c([H])c([H])c(OC([H])([H])C([H])([H])F)c([H])c1[H])=C2c1c([H])c([H])c(O[C@]2([H])C([H])([H])N(C([H])([H])C([H])([H])C([H])([H])F)C([H])([H])C2([H])[H])c([H])c1[H]
     RDKit          3D

 73 77  0  0  0  0  0  0  0  0999 V2000
   -1.5464   -7.3257    0.8855 O   0  0  0  0  0  0  0  0  0  0  0  0
   -1.8174   -5.9655    0.6451 C   0  0  0  0  0  0  0  0  0  0  0  0
   -0.9311   -5.0585    1.1889 C   0  0  0  0  0  0  0  0  0  0  0  0
   -1.1399   -3.7033    0.9909 C   0  0  0  0  0  0  0  0  0  0  0  0
   -2.2520   -3.3271    0.2410 C   0  0  0  0  0  0  0  0  0  0  0  0
   -3.1311   -4.2370   -0.2991 C   0  0  0  0  0  0  0  0  0  0  0  0
   -4.3136   -3.9034   -1.1247 C   0  0  0  0  0  0  0  0  0  0  0  0
   -5.2174   -2.8611   -0.6527 C   0  0  0  0  0  0  0  0  0  0  0  0
   -4.8424   -1.8019    0.2561 C   0  0  0  0  0  0  0  0  0  0  0  0
   -3.4763   -1.1895    0.1388 C   0  0  0  0  0  0  0  0  0  0  0  0
   -3.4561    0.2508   -0.0553 C   0  0  0  0  0  0  0  0  0  0  0  0
   -4.1149    1.1116    0.8095 C   0  0  0  0  0  0  0  0  0  0  0  0
   -4.1485    2.4808    0.5720 C   0  0  0  0  0  0  0  0  0  0  0  0
   -3.5191    2.9954   -0.5390 C   0  0  0  0  0  0  0  0  0  0  0  0
   -3.4804    4.3052   -0.8861 O   0  0  0  0  0  0  0  0  0  0  0  0
   -3.9829    5.4653   -0.3801 C   0  0  0  0  0  0  0  0  0  0  0  0
   -5.4694    5.5542   -0.3486 C   0  0  0  0  0  0  0  0  0  0  0  0
   -5.9055    6.7621    0.1812 F   0  0  0  0  0  0  0  0  0  0  0  0
   -2.8552    2.1176   -1.4080 C   0  0  0  0  0  0  0  0  0  0  0  0
   -2.8423    0.7875   -1.1464 C   0  0  0  0  0  0  0  0  0  0  0  0
   -2.3258   -1.8303    0.1333 C   0  0  0  0  0  0  0  0  0  0  0  0
   -1.0258   -1.1807    0.1069 C   0  0  0  0  0  0  0  0  0  0  0  0
   -0.6574   -0.1742    0.9561 C   0  0  0  0  0  0  0  0  0  0  0  0
    0.5885    0.4150    0.8921 C   0  0  0  0  0  0  0  0  0  0  0  0
    1.5235   -0.0094   -0.0588 C   0  0  0  0  0  0  0  0  0  0  0  0
    2.7324    0.6466   -0.0349 O   0  0  0  0  0  0  0  0  0  0  0  0
    3.8013    0.3872   -0.8810 C   0  0  1  0  0  0  0  0  0  0  0  0
    4.1946    1.6574   -1.6637 C   0  0  0  0  0  0  0  0  0  0  0  0
    5.5967    1.2581   -2.1053 C   0  0  0  0  0  0  0  0  0  0  0  0
    6.1487    0.5508   -1.0114 N   0  0  0  0  0  0  0  0  0  0  0  0
    7.3734    0.9909   -0.4689 C   0  0  0  0  0  0  0  0  0  0  0  0
    7.3499    2.3197    0.2337 C   0  0  0  0  0  0  0  0  0  0  0  0
    8.7488    2.6025    0.7360 C   0  0  0  0  0  0  0  0  0  0  0  0
    9.5905    2.6263   -0.3735 F   0  0  0  0  0  0  0  0  0  0  0  0
    5.1127    0.1986   -0.0951 C   0  0  0  0  0  0  0  0  0  0  0  0
    1.1796   -1.0214   -0.9259 C   0  0  0  0  0  0  0  0  0  0  0  0
   -0.0635   -1.5864   -0.8384 C   0  0  0  0  0  0  0  0  0  0  0  0
   -2.9115   -5.5788   -0.0941 C   0  0  0  0  0  0  0  0  0  0  0  0
   -2.1711   -8.0000    0.5044 H   0  0  0  0  0  0  0  0  0  0  0  0
   -0.0701   -5.3524    1.7704 H   0  0  0  0  0  0  0  0  0  0  0  0
   -0.5116   -2.9233    1.3739 H   0  0  0  0  0  0  0  0  0  0  0  0
   -4.8840   -4.8421   -1.3247 H   0  0  0  0  0  0  0  0  0  0  0  0
   -3.9567   -3.6109   -2.1686 H   0  0  0  0  0  0  0  0  0  0  0  0
   -6.1218   -3.3981   -0.2005 H   0  0  0  0  0  0  0  0  0  0  0  0
   -5.7097   -2.4025   -1.5763 H   0  0  0  0  0  0  0  0  0  0  0  0
   -4.9431   -2.1606    1.3258 H   0  0  0  0  0  0  0  0  0  0  0  0
   -5.5608   -0.9646    0.1880 H   0  0  0  0  0  0  0  0  0  0  0  0
   -4.6082    0.7258    1.6749 H   0  0  0  0  0  0  0  0  0  0  0  0
   -4.6551    3.1477    1.2656 H   0  0  0  0  0  0  0  0  0  0  0  0
   -3.5394    5.6309    0.6369 H   0  0  0  0  0  0  0  0  0  0  0  0
   -3.5830    6.3166   -1.0164 H   0  0  0  0  0  0  0  0  0  0  0  0
   -5.9131    5.5353   -1.3857 H   0  0  0  0  0  0  0  0  0  0  0  0
   -5.9021    4.7364    0.2259 H   0  0  0  0  0  0  0  0  0  0  0  0
   -2.3480    2.5326   -2.3013 H   0  0  0  0  0  0  0  0  0  0  0  0
   -2.3168    0.1432   -1.8830 H   0  0  0  0  0  0  0  0  0  0  0  0
   -1.3787    0.1517    1.7155 H   0  0  0  0  0  0  0  0  0  0  0  0
    0.8428    1.2143    1.5861 H   0  0  0  0  0  0  0  0  0  0  0  0
    3.6887   -0.4365   -1.5869 H   0  0  0  0  0  0  0  0  0  0  0  0
    3.5874    1.7806   -2.5581 H   0  0  0  0  0  0  0  0  0  0  0  0
    4.1815    2.4779   -0.9462 H   0  0  0  0  0  0  0  0  0  0  0  0
    5.4448    0.5842   -2.9897 H   0  0  0  0  0  0  0  0  0  0  0  0
    6.1277    2.1434   -2.4387 H   0  0  0  0  0  0  0  0  0  0  0  0
    7.6860    0.2370    0.3109 H   0  0  0  0  0  0  0  0  0  0  0  0
    8.2085    1.0021   -1.1921 H   0  0  0  0  0  0  0  0  0  0  0  0
    7.1108    3.1538   -0.4789 H   0  0  0  0  0  0  0  0  0  0  0  0
    6.6862    2.2689    1.0965 H   0  0  0  0  0  0  0  0  0  0  0  0
    9.0830    1.9182    1.5216 H   0  0  0  0  0  0  0  0  0  0  0  0
    8.7473    3.6679    1.1112 H   0  0  0  0  0  0  0  0  0  0  0  0
    5.1025    0.8509    0.8010 H   0  0  0  0  0  0  0  0  0  0  0  0
    5.1645   -0.8545    0.2697 H   0  0  0  0  0  0  0  0  0  0  0  0
    1.9093   -1.3461   -1.6608 H   0  0  0  0  0  0  0  0  0  0  0  0
   -0.3097   -2.3777   -1.5279 H   0  0  0  0  0  0  0  0  0  0  0  0
   -3.6029   -6.2791   -0.5188 H   0  0  0  0  0  0  0  0  0  0  0  0
  1  2  1  0
  2  3  2  0
  3  4  1  0
  4  5  2  0
  5  6  1  0
  6  7  1  0
  7  8  1  0
  8  9  1  0
  9 10  1  0
 10 11  1  0
 11 12  2  0
 12 13  1  0
 13 14  2  0
 14 15  1  0
 15 16  1  0
 16 17  1  0
 17 18  1  0
 14 19  1  0
 19 20  2  0
 10 21  2  0
 21 22  1  0
 22 23  2  0
 23 24  1  0
 24 25  2  0
 25 26  1  0
 26 27  1  0
 27 28  1  0
 28 29  1  0
 29 30  1  0
 30 31  1  0
 31 32  1  0
 32 33  1  0
 33 34  1  0
 30 35  1  0
 25 36  1  0
 36 37  2  0
  6 38  2  0
 38  2  1  0
 21  5  1  0
 37 22  1  0
 20 11  1  0
 35 27  1  0
  1 39  1  0
  3 40  1  0
  4 41  1  0
  7 42  1  0
  7 43  1  0
  8 44  1  0
  8 45  1  0
  9 46  1  0
  9 47  1  0
 12 48  1  0
 13 49  1  0
 16 50  1  0
 16 51  1  0
 17 52  1  0
 17 53  1  0
 19 54  1  0
 20 55  1  0
 23 56  1  0
 24 57  1  0
 27 58  1  6
 28 59  1  0
 28 60  1  0
 29 61  1  0
 29 62  1  0
 31 63  1  0
 31 64  1  0
 32 65  1  0
 32 66  1  0
 33 67  1  0
 33 68  1  0
 35 69  1  0
 35 70  1  0
 36 71  1  0
 37 72  1  0
 38 73  1  0
M  END
$$$$
[H]C#C[C@]1(O[H])C([H])([H])C([H])([H])C2([H])C3([H])C([H])([H])C([H])=C4C([H])([H])[C@@]([H])(O[H])C([H])([H])C([H])([H])[C@]4(C([H])=C([H])[H])C3([H])C([H])([H])C([H])([H])[C@@]21C([H])([H])[H]
     RDKit          3D

 54 57  0  0  0  0  0  0  0  0999 V2000
   -1.6594   -2.4226    1.6789 C   0  0  0  0  0  0  0  0  0  0  0  0
   -1.9922   -1.2069    0.8013 C   0  0  2  0  0  0  0  0  0  0  0  0
   -1.3254   -1.4528   -0.5228 C   0  0  0  0  0  0  0  0  0  0  0  0
    0.1614   -1.2365   -0.4900 C   0  0  0  0  0  0  0  0  0  0  0  0
    0.6482   -0.3095    0.5577 C   0  0  0  0  0  0  0  0  0  0  0  0
   -0.3945    0.7404    0.8682 C   0  0  0  0  0  0  0  0  0  0  0  0
   -0.6786    1.6476   -0.2670 C   0  0  0  0  0  0  0  0  0  0  0  0
    0.4062    1.6886   -1.2708 C   0  0  0  0  0  0  0  0  0  0  0  0
    1.6080    1.1479   -1.1226 C   0  0  0  0  0  0  0  0  0  0  0  0
    2.5637    1.2938   -2.2443 C   0  0  0  0  0  0  0  0  0  0  0  0
    3.7141    0.3562   -2.2018 C   0  0  1  0  0  0  0  0  0  0  0  0
    4.8921    0.9992   -1.8208 O   0  0  0  0  0  0  0  0  0  0  0  0
    3.4732   -0.8520   -1.3259 C   0  0  0  0  0  0  0  0  0  0  0  0
    3.0973   -0.4702    0.0678 C   0  0  0  0  0  0  0  0  0  0  0  0
    1.9021    0.4455    0.1474 C   0  0  2  0  0  0  0  0  0  0  0  0
    2.2218    1.4703    1.1743 C   0  0  0  0  0  0  0  0  0  0  0  0
    2.4352    2.7396    0.9301 C   0  0  0  0  0  0  0  0  0  0  0  0
   -1.5744    0.0586    1.4668 C   0  0  0  0  0  0  0  0  0  0  0  0
   -2.8063    0.9398    1.5604 C   0  0  0  0  0  0  0  0  0  0  0  0
   -3.8713   -0.1399    1.8066 C   0  0  0  0  0  0  0  0  0  0  0  0
   -3.4772   -1.1240    0.7016 C   0  0  2  0  0  0  0  0  0  0  0  0
   -4.1188   -2.3249    0.9818 O   0  0  0  0  0  0  0  0  0  0  0  0
   -3.9755   -0.6373   -0.5612 C   0  0  0  0  0  0  0  0  0  0  0  0
   -4.3981   -0.2189   -1.6101 C   0  0  0  0  0  0  0  0  0  0  0  0
   -2.4016   -3.2122    1.5976 H   0  0  0  0  0  0  0  0  0  0  0  0
   -1.5391   -2.1073    2.7296 H   0  0  0  0  0  0  0  0  0  0  0  0
   -0.6858   -2.8444    1.3518 H   0  0  0  0  0  0  0  0  0  0  0  0
   -1.8247   -0.9022   -1.3457 H   0  0  0  0  0  0  0  0  0  0  0  0
   -1.4844   -2.5398   -0.7604 H   0  0  0  0  0  0  0  0  0  0  0  0
    0.7011   -2.2195   -0.3180 H   0  0  0  0  0  0  0  0  0  0  0  0
    0.4852   -0.9539   -1.5132 H   0  0  0  0  0  0  0  0  0  0  0  0
    0.8170   -0.8901    1.4911 H   0  0  0  0  0  0  0  0  0  0  0  0
    0.0539    1.3736    1.6965 H   0  0  0  0  0  0  0  0  0  0  0  0
   -1.6136    1.4243   -0.8149 H   0  0  0  0  0  0  0  0  0  0  0  0
   -0.8079    2.6929    0.1213 H   0  0  0  0  0  0  0  0  0  0  0  0
    0.1656    2.2204   -2.2103 H   0  0  0  0  0  0  0  0  0  0  0  0
    1.9571    1.1672   -3.1892 H   0  0  0  0  0  0  0  0  0  0  0  0
    2.9541    2.3341   -2.3133 H   0  0  0  0  0  0  0  0  0  0  0  0
    3.8808   -0.0312   -3.2401 H   0  0  0  0  0  0  0  0  0  0  0  0
    5.3889    0.3892   -1.2225 H   0  0  0  0  0  0  0  0  0  0  0  0
    4.4707   -1.3751   -1.2534 H   0  0  0  0  0  0  0  0  0  0  0  0
    2.7877   -1.5801   -1.7674 H   0  0  0  0  0  0  0  0  0  0  0  0
    2.8635   -1.4049    0.6232 H   0  0  0  0  0  0  0  0  0  0  0  0
    3.9957   -0.0412    0.5635 H   0  0  0  0  0  0  0  0  0  0  0  0
    2.2790    1.1174    2.2078 H   0  0  0  0  0  0  0  0  0  0  0  0
    2.3741    3.0766   -0.1121 H   0  0  0  0  0  0  0  0  0  0  0  0
    2.6656    3.4467    1.7195 H   0  0  0  0  0  0  0  0  0  0  0  0
   -1.3128   -0.1922    2.5327 H   0  0  0  0  0  0  0  0  0  0  0  0
   -3.0249    1.4975    0.6517 H   0  0  0  0  0  0  0  0  0  0  0  0
   -2.7612    1.5750    2.4743 H   0  0  0  0  0  0  0  0  0  0  0  0
   -3.6731   -0.5891    2.7799 H   0  0  0  0  0  0  0  0  0  0  0  0
   -4.8826    0.2487    1.6701 H   0  0  0  0  0  0  0  0  0  0  0  0
   -3.9146   -2.9502    0.2556 H   0  0  0  0  0  0  0  0  0  0  0  0
   -4.7652    0.1380   -2.5502 H   0  0  0  0  0  0  0  0  0  0  0  0
  2  1  1  1
  2  3  1  0
  3  4  1  0
  4  5  1  0
  5  6  1  0
  6  7  1  0
  7  8  1  0
  8  9  2  0
  9 10  1  0
 10 11  1  0
 11 12  1  0
 11 13  1  0
 13 14  1  0
 14 15  1  0
 15 16  1  1
 16 17  2  3
  6 18  1  0
 18 19  1  0
 19 20  1  0
 20 21  1  0
 21 22  1  0
 21 23  1  6
 23 24  3  0
 18  2  1  0
 21  2  1  0
 15  5  1  0
 15  9  1  0
  1 25  1  0
  1 26  1  0
  1 27  1  0
  3 28  1  0
  3 29  1  0
  4 30  1  0
  4 31  1  0
  5 32  1  0
  6 33  1  0
  7 34  1  0
  7 35  1  0
  8 36  1  0
 10 37  1  0
 10 38  1  0
 11 39  1  6
 12 40  1  0
 13 41  1  0
 13 42  1  0
 14 43  1  0
 14 44  1  0
 16 45  1  0
 17 46  1  0
 17 47  1  0
 18 48  1  0
 19 49  1  0
 19 50  1  0
 20 51  1  0
 20 52  1  0
 22 53  1  0
 24 54  1  0
M  END
$$$$
[H]Oc1c([H])c([H])c2c(c1[H])C([H])([H])C([H])([H])C([H])([H])C(c1c([H])c([H])c(OC([H])([H])C(F)(F)F)c([H])c1[H])=C2c1c([H])c([H])c(O[C@]2([H])C([H])([H])N(C([H])([H])C([H])([H])C([H])([H])F)C([H])([H])C2([H])[H])c([H])c1[H]
     RDKit          3D

 73 77  0  0  0  0  0  0  0  0999 V2000
   -2.1187   -7.6238   -0.7437 O   0  0  0  0  0  0  0  0  0  0  0  0
   -2.2144   -6.2428   -0.7521 C   0  0  0  0  0  0  0  0  0  0  0  0
   -1.1146   -5.4589   -1.0533 C   0  0  0  0  0  0  0  0  0  0  0  0
   -1.1929   -4.0597   -1.0659 C   0  0  0  0  0  0  0  0  0  0  0  0
   -2.4173   -3.4658   -0.7643 C   0  0  0  0  0  0  0  0  0  0  0  0
   -3.4912   -4.2738   -0.4708 C   0  0  0  0  0  0  0  0  0  0  0  0
   -4.8580   -3.7101   -0.1798 C   0  0  0  0  0  0  0  0  0  0  0  0
   -5.1868   -2.9157   -1.4298 C   0  0  0  0  0  0  0  0  0  0  0  0
   -4.7526   -1.5266   -1.4695 C   0  0  0  0  0  0  0  0  0  0  0  0
   -3.3338   -1.2148   -1.1096 C   0  0  0  0  0  0  0  0  0  0  0  0
   -3.1754    0.2411   -1.0510 C   0  0  0  0  0  0  0  0  0  0  0  0
   -3.5393    1.0358   -2.1274 C   0  0  0  0  0  0  0  0  0  0  0  0
   -3.4414    2.4013   -2.0111 C   0  0  0  0  0  0  0  0  0  0  0  0
   -2.9953    3.0099   -0.8654 C   0  0  0  0  0  0  0  0  0  0  0  0
   -2.9025    4.3843   -0.7622 O   0  0  0  0  0  0  0  0  0  0  0  0
   -2.4447    4.9939    0.4087 C   0  0  0  0  0  0  0  0  0  0  0  0
   -2.4677    6.5127    0.1914 C   0  0  0  0  0  0  0  0  0  0  0  0
   -3.7386    6.9467   -0.0829 F   0  0  0  0  0  0  0  0  0  0  0  0
   -1.9483    7.1362    1.3034 F   0  0  0  0  0  0  0  0  0  0  0  0
   -1.6908    6.7335   -0.9375 F   0  0  0  0  0  0  0  0  0  0  0  0
   -2.6333    2.2357    0.2044 C   0  0  0  0  0  0  0  0  0  0  0  0
   -2.7342    0.8460    0.0840 C   0  0  0  0  0  0  0  0  0  0  0  0
   -2.3125   -1.9821   -0.8074 C   0  0  0  0  0  0  0  0  0  0  0  0
   -0.9835   -1.4471   -0.5592 C   0  0  0  0  0  0  0  0  0  0  0  0
   -0.3054   -0.5915   -1.3932 C   0  0  0  0  0  0  0  0  0  0  0  0
    0.9423   -0.0946   -1.1299 C   0  0  0  0  0  0  0  0  0  0  0  0
    1.6180   -0.4451    0.0453 C   0  0  0  0  0  0  0  0  0  0  0  0
    2.8575    0.0423    0.3147 O   0  0  0  0  0  0  0  0  0  0  0  0
    3.6377   -0.2196    1.4365 C   0  0  1  0  0  0  0  0  0  0  0  0
    4.9498   -0.8376    0.9680 C   0  0  0  0  0  0  0  0  0  0  0  0
    5.8841    0.3285    0.8261 C   0  0  0  0  0  0  0  0  0  0  0  0
    5.1921    1.4500    1.3266 N   0  0  0  0  0  0  0  0  0  0  0  0
    6.0448    2.4824    1.8671 C   0  0  0  0  0  0  0  0  0  0  0  0
    6.8623    3.1764    0.8122 C   0  0  0  0  0  0  0  0  0  0  0  0
    5.8991    3.8129   -0.1732 C   0  0  0  0  0  0  0  0  0  0  0  0
    5.1325    4.7160    0.5763 F   0  0  0  0  0  0  0  0  0  0  0  0
    4.0961    1.0771    2.1329 C   0  0  0  0  0  0  0  0  0  0  0  0
    0.9627   -1.2991    0.8961 C   0  0  0  0  0  0  0  0  0  0  0  0
   -0.2893   -1.7870    0.6146 C   0  0  0  0  0  0  0  0  0  0  0  0
   -3.4205   -5.6403   -0.4566 C   0  0  0  0  0  0  0  0  0  0  0  0
   -2.9043   -8.2228   -0.5279 H   0  0  0  0  0  0  0  0  0  0  0  0
   -0.1491   -5.8810   -1.2912 H   0  0  0  0  0  0  0  0  0  0  0  0
   -0.3489   -3.4561   -1.3125 H   0  0  0  0  0  0  0  0  0  0  0  0
   -4.7913   -2.9947    0.6591 H   0  0  0  0  0  0  0  0  0  0  0  0
   -5.5895   -4.4847    0.0507 H   0  0  0  0  0  0  0  0  0  0  0  0
   -6.3160   -2.9284   -1.4771 H   0  0  0  0  0  0  0  0  0  0  0  0
   -4.8919   -3.5082   -2.3451 H   0  0  0  0  0  0  0  0  0  0  0  0
   -4.8448   -1.1651   -2.5364 H   0  0  0  0  0  0  0  0  0  0  0  0
   -5.4344   -0.8444   -0.9064 H   0  0  0  0  0  0  0  0  0  0  0  0
   -3.9024    0.6050   -3.0670 H   0  0  0  0  0  0  0  0  0  0  0  0
   -3.7230    3.0480   -2.8463 H   0  0  0  0  0  0  0  0  0  0  0  0
   -1.4062    4.6728    0.6470 H   0  0  0  0  0  0  0  0  0  0  0  0
   -3.0610    4.7959    1.3084 H   0  0  0  0  0  0  0  0  0  0  0  0
   -2.2724    2.6960    1.1382 H   0  0  0  0  0  0  0  0  0  0  0  0
   -2.4424    0.3113    0.9920 H   0  0  0  0  0  0  0  0  0  0  0  0
   -0.7778   -0.2951   -2.3313 H   0  0  0  0  0  0  0  0  0  0  0  0
    1.4615    0.5813   -1.8004 H   0  0  0  0  0  0  0  0  0  0  0  0
    3.1757   -0.8294    2.2083 H   0  0  0  0  0  0  0  0  0  0  0  0
    5.2823   -1.5158    1.8013 H   0  0  0  0  0  0  0  0  0  0  0  0
    4.8441   -1.4009    0.0354 H   0  0  0  0  0  0  0  0  0  0  0  0
    6.1368    0.4844   -0.2512 H   0  0  0  0  0  0  0  0  0  0  0  0
    6.8125    0.1235    1.4201 H   0  0  0  0  0  0  0  0  0  0  0  0
    5.4144    3.1845    2.4408 H   0  0  0  0  0  0  0  0  0  0  0  0
    6.7117    1.9725    2.6071 H   0  0  0  0  0  0  0  0  0  0  0  0
    7.5975    2.5325    0.3311 H   0  0  0  0  0  0  0  0  0  0  0  0
    7.4164    4.0027    1.3021 H   0  0  0  0  0  0  0  0  0  0  0  0
    5.2419    3.0941   -0.6716 H   0  0  0  0  0  0  0  0  0  0  0  0
    6.4459    4.4146   -0.9032 H   0  0  0  0  0  0  0  0  0  0  0  0
    3.2263    1.7492    2.1210 H   0  0  0  0  0  0  0  0  0  0  0  0
    4.3572    0.8784    3.1839 H   0  0  0  0  0  0  0  0  0  0  0  0
    1.4141   -1.6362    1.8475 H   0  0  0  0  0  0  0  0  0  0  0  0
   -0.7900   -2.4608    1.3022 H   0  0  0  0  0  0  0  0  0  0  0  0
   -4.2691   -6.2498   -0.2240 H   0  0  0  0  0  0  0  0  0  0  0  0
  1  2  1  0
  2  3  2  0
  3  4  1  0
  4  5  2  0
  5  6  1  0
  6  7  1  0
  7  8  1  0
  8  9  1  0
  9 10  1  0
 10 11  1  0
 11 12  2  0
 12 13  1  0
 13 14  2  0
 14 15  1  0
 15 16  1  0
 16 17  1  0
 17 18  1  0
 17 19  1  0
 17 20  1  0
 14 21  1  0
 21 22  2  0
 10 23  2  0
 23 24  1  0
 24 25  2  0
 25 26  1  0
 26 27  2  0
 27 28  1  0
 28 29  1  0
 29 30  1  0
 30 31  1  0
 31 32  1  0
 32 33  1  0
 33 34  1  0
 34 35  1  0
 35 36  1  0
 32 37  1  0
 27 38  1  0
 38 39  2  0
  6 40  2  0
 40  2  1  0
 23  5  1  0
 39 24  1  0
 22 11  1  0
 37 29  1  0
  1 41  1  0
  3 42  1  0
  4 43  1  0
  7 44  1  0
  7 45  1  0
  8 46  1  0
  8 47  1  0
  9 48  1  0
  9 49  1  0
 12 50  1  0
 13 51  1  0
 16 52  1  0
 16 53  1  0
 21 54  1  0
 22 55  1  0
 25 56  1  0
 26 57  1  0
 29 58  1  1
 30 59  1  0
 30 60  1  0
 31 61  1  0
 31 62  1  0
 33 63  1  0
 33 64  1  0
 34 65  1  0
 34 66  1  0
 35 67  1  0
 35 68  1  0
 37 69  1  0
 37 70  1  0
 38 71  1  0
 39 72  1  0
 40 73  1  0
M  END
$$$$
[H]Oc1c([H])c([H])c(C([H])([H])[C@@]2([H])Sc3c([H])c(O[H])c([H])c([H])c3O[C@@]2([H])c2c([H])c([H])c(OC([H])([H])C([H])([H])N3C([H])([H])C([H])([H])C([H])([H])C([H])([H])C3([H])[H])c([H])c2[H])c([H])c1[H]
     RDKit          3D

 65 69  0  0  0  0  0  0  0  0999 V2000
   -6.4505   -3.6647   -0.0100 O   0  0  0  0  0  0  0  0  0  0  0  0
   -5.3640   -2.9145   -0.4452 C   0  0  0  0  0  0  0  0  0  0  0  0
   -5.4010   -2.1647   -1.6010 C   0  0  0  0  0  0  0  0  0  0  0  0
   -4.3300   -1.4264   -2.0276 C   0  0  0  0  0  0  0  0  0  0  0  0
   -3.1283   -1.3910   -1.3090 C   0  0  0  0  0  0  0  0  0  0  0  0
   -1.9814   -0.6164   -1.8018 C   0  0  0  0  0  0  0  0  0  0  0  0
   -1.9273    0.8186   -1.4916 C   0  0  1  0  0  0  0  0  0  0  0  0
   -3.3903    1.7215   -2.1550 S   0  0  0  0  0  0  0  0  0  0  0  0
   -4.4945    1.8973   -0.7253 C   0  0  0  0  0  0  0  0  0  0  0  0
   -5.7490    2.4502   -0.9403 C   0  0  0  0  0  0  0  0  0  0  0  0
   -6.6050    2.5896    0.1230 C   0  0  0  0  0  0  0  0  0  0  0  0
   -7.8527    3.1467   -0.1278 O   0  0  0  0  0  0  0  0  0  0  0  0
   -6.2784    2.2046    1.4047 C   0  0  0  0  0  0  0  0  0  0  0  0
   -5.0270    1.6617    1.5760 C   0  0  0  0  0  0  0  0  0  0  0  0
   -4.1171    1.4960    0.5356 C   0  0  0  0  0  0  0  0  0  0  0  0
   -2.8674    0.9402    0.7713 O   0  0  0  0  0  0  0  0  0  0  0  0
   -1.8019    1.2488   -0.0650 C   0  0  1  0  0  0  0  0  0  0  0  0
   -0.4551    1.0421    0.5233 C   0  0  0  0  0  0  0  0  0  0  0  0
    0.5314    1.9469    0.1953 C   0  0  0  0  0  0  0  0  0  0  0  0
    1.8384    1.8512    0.7087 C   0  0  0  0  0  0  0  0  0  0  0  0
    2.1784    0.8460    1.5587 C   0  0  0  0  0  0  0  0  0  0  0  0
    3.4012    0.6575    2.1061 O   0  0  0  0  0  0  0  0  0  0  0  0
    4.5436    1.3796    1.9205 C   0  0  0  0  0  0  0  0  0  0  0  0
    5.1672    1.3354    0.5515 C   0  0  0  0  0  0  0  0  0  0  0  0
    5.5614    0.0217    0.2248 N   0  0  0  0  0  0  0  0  0  0  0  0
    4.6515   -0.9889   -0.0227 C   0  0  0  0  0  0  0  0  0  0  0  0
    5.1806   -2.1453   -0.8545 C   0  0  0  0  0  0  0  0  0  0  0  0
    6.5856   -2.5378   -0.4998 C   0  0  0  0  0  0  0  0  0  0  0  0
    7.4424   -1.2842   -0.6611 C   0  0  0  0  0  0  0  0  0  0  0  0
    6.9329   -0.3117    0.3773 C   0  0  0  0  0  0  0  0  0  0  0  0
    1.1677   -0.0613    1.8810 C   0  0  0  0  0  0  0  0  0  0  0  0
   -0.1078    0.0347    1.3789 C   0  0  0  0  0  0  0  0  0  0  0  0
   -3.0861   -2.1374   -0.1555 C   0  0  0  0  0  0  0  0  0  0  0  0
   -4.1762   -2.8725    0.2541 C   0  0  0  0  0  0  0  0  0  0  0  0
   -7.0996   -3.1590    0.6131 H   0  0  0  0  0  0  0  0  0  0  0  0
   -6.3237   -2.1706   -2.1846 H   0  0  0  0  0  0  0  0  0  0  0  0
   -4.3645   -0.8299   -2.9504 H   0  0  0  0  0  0  0  0  0  0  0  0
   -1.0634   -1.1291   -1.4386 H   0  0  0  0  0  0  0  0  0  0  0  0
   -1.9700   -0.7807   -2.9212 H   0  0  0  0  0  0  0  0  0  0  0  0
   -1.0034    1.2312   -2.0018 H   0  0  0  0  0  0  0  0  0  0  0  0
   -6.0091    2.7542   -1.9471 H   0  0  0  0  0  0  0  0  0  0  0  0
   -8.1502    3.4464   -1.0353 H   0  0  0  0  0  0  0  0  0  0  0  0
   -6.9879    2.3344    2.2111 H   0  0  0  0  0  0  0  0  0  0  0  0
   -4.7763    1.3602    2.5942 H   0  0  0  0  0  0  0  0  0  0  0  0
   -1.8562    2.4079   -0.1475 H   0  0  0  0  0  0  0  0  0  0  0  0
    0.3360    2.7772   -0.4792 H   0  0  0  0  0  0  0  0  0  0  0  0
    2.5529    2.6105    0.4249 H   0  0  0  0  0  0  0  0  0  0  0  0
    5.3073    0.9673    2.6728 H   0  0  0  0  0  0  0  0  0  0  0  0
    4.4421    2.4609    2.2621 H   0  0  0  0  0  0  0  0  0  0  0  0
    6.0830    2.0121    0.6453 H   0  0  0  0  0  0  0  0  0  0  0  0
    4.5387    1.8267   -0.1953 H   0  0  0  0  0  0  0  0  0  0  0  0
    3.7981   -0.5836   -0.6424 H   0  0  0  0  0  0  0  0  0  0  0  0
    4.1937   -1.4028    0.8955 H   0  0  0  0  0  0  0  0  0  0  0  0
    4.5262   -3.0377   -0.6293 H   0  0  0  0  0  0  0  0  0  0  0  0
    5.0983   -1.9676   -1.9358 H   0  0  0  0  0  0  0  0  0  0  0  0
    6.5973   -2.8521    0.5805 H   0  0  0  0  0  0  0  0  0  0  0  0
    6.8991   -3.3431   -1.1672 H   0  0  0  0  0  0  0  0  0  0  0  0
    7.2719   -0.8948   -1.6720 H   0  0  0  0  0  0  0  0  0  0  0  0
    8.5063   -1.4794   -0.4439 H   0  0  0  0  0  0  0  0  0  0  0  0
    7.5440    0.6102    0.2973 H   0  0  0  0  0  0  0  0  0  0  0  0
    7.0757   -0.7543    1.3805 H   0  0  0  0  0  0  0  0  0  0  0  0
    1.4322   -0.8672    2.5603 H   0  0  0  0  0  0  0  0  0  0  0  0
   -0.8573   -0.6835    1.6625 H   0  0  0  0  0  0  0  0  0  0  0  0
   -2.1853   -2.1664    0.4511 H   0  0  0  0  0  0  0  0  0  0  0  0
   -4.1472   -3.4714    1.1776 H   0  0  0  0  0  0  0  0  0  0  0  0
  1  2  1  0
  2  3  2  0
  3  4  1  0
  4  5  2  0
  5  6  1  0
  6  7  1  0
  7  8  1  0
  8  9  1  0
  9 10  2  0
 10 11  1  0
 11 12  1  0
 11 13  2  0
 13 14  1  0
 14 15  2  0
 15 16  1  0
 16 17  1  0
 17 18  1  0
 18 19  2  0
 19 20  1  0
 20 21  2  0
 21 22  1  0
 22 23  1  0
 23 24  1  0
 24 25  1  0
 25 26  1  0
 26 27  1  0
 27 28  1  0
 28 29  1  0
 29 30  1  0
 21 31  1  0
 31 32  2  0
  5 33  1  0
 33 34  2  0
 34  2  1  0
 17  7  1  0
 32 18  1  0
 15  9  1  0
 30 25  1  0
  1 35  1  0
  3 36  1  0
  4 37  1  0
  6 38  1  0
  6 39  1  0
  7 40  1  6
 10 41  1  0
 12 42  1  0
 13 43  1  0
 14 44  1  0
 17 45  1  6
 19 46  1  0
 20 47  1  0
 23 48  1  0
 23 49  1  0
 24 50  1  0
 24 51  1  0
 26 52  1  0
 26 53  1  0
 27 54  1  0
 27 55  1  0
 28 56  1  0
 28 57  1  0
 29 58  1  0
 29 59  1  0
 30 60  1  0
 30 61  1  0
 31 62  1  0
 32 63  1  0
 33 64  1  0
 34 65  1  0
M  END
$$$$
[H]Oc1c([H])c([H])c2c(c1[H])C([H])([H])[C@@]([H])(C([H])([H])C([H])([H])C([H])([H])C([H])([H])C([H])([H])C([H])([H])C([H])([H])C([H])([H])C([H])([H])[S+]([O-])C([H])([H])C([H])([H])C([H])([H])C(F)(F)C(F)(F)F)[C@]1([H])[C@]2([H])C([H])([H])C([H])([H])[C@]2(C([H])([H])[H])[C@@]([H])(O[H])C([H])([H])C([H])([H])[C@]21[H]
     RDKit          3D

 88 91  0  0  0  0  0  0  0  0999 V2000
   -5.4693    0.1558    2.4064 C   0  0  0  0  0  0  0  0  0  0  0  0
   -5.6725    1.0060    1.2044 C   0  0  2  0  0  0  0  0  0  0  0  0
   -6.7186    0.5286    0.2442 C   0  0  0  0  0  0  0  0  0  0  0  0
   -6.3339   -0.8848   -0.1280 C   0  0  0  0  0  0  0  0  0  0  0  0
   -4.9508   -1.0454   -0.5668 C   0  0  1  0  0  0  0  0  0  0  0  0
   -3.8795   -0.2122    0.1133 C   0  0  2  0  0  0  0  0  0  0  0  0
   -4.3946    1.1700    0.3656 C   0  0  2  0  0  0  0  0  0  0  0  0
   -3.5878    2.0305    1.2598 C   0  0  0  0  0  0  0  0  0  0  0  0
   -4.5479    2.7783    2.1914 C   0  0  0  0  0  0  0  0  0  0  0  0
   -5.9330    2.4176    1.6852 C   0  0  2  0  0  0  0  0  0  0  0  0
   -6.7896    2.3698    2.7680 O   0  0  0  0  0  0  0  0  0  0  0  0
   -2.5973   -0.3511   -0.6097 C   0  0  2  0  0  0  0  0  0  0  0  0
   -1.8322    0.8585   -0.9766 C   0  0  0  0  0  0  0  0  0  0  0  0
   -0.5573    0.5542   -1.7462 C   0  0  0  0  0  0  0  0  0  0  0  0
    0.2156    1.7897   -2.1238 C   0  0  0  0  0  0  0  0  0  0  0  0
    0.6415    2.5783   -0.9217 C   0  0  0  0  0  0  0  0  0  0  0  0
    1.5058    1.7695   -0.0174 C   0  0  0  0  0  0  0  0  0  0  0  0
    2.7850    1.2653   -0.6846 C   0  0  0  0  0  0  0  0  0  0  0  0
    3.6107    2.4165   -1.1491 C   0  0  0  0  0  0  0  0  0  0  0  0
    4.8438    2.0566   -1.8690 C   0  0  0  0  0  0  0  0  0  0  0  0
    5.8780    1.2228   -1.1858 C   0  0  0  0  0  0  0  0  0  0  0  0
    5.3435   -0.3607   -0.7798 S   0  0  0  0  0  0  0  0  0  0  0  0
    4.8873   -1.2335   -2.1003 O   0  0  0  0  0  0  0  0  0  0  0  0
    5.9362   -1.2093    0.5611 C   0  0  0  0  0  0  0  0  0  0  0  0
    7.3959   -1.5372    0.6288 C   0  0  0  0  0  0  0  0  0  0  0  0
    8.2855   -0.3637    0.6523 C   0  0  0  0  0  0  0  0  0  0  0  0
    9.7568   -0.6380    0.7155 C   0  0  0  0  0  0  0  0  0  0  0  0
   10.4377    0.6087    0.7093 F   0  0  0  0  0  0  0  0  0  0  0  0
   10.1893   -1.2967   -0.4425 F   0  0  0  0  0  0  0  0  0  0  0  0
   10.2110   -1.3464    1.9370 C   0  0  0  0  0  0  0  0  0  0  0  0
    9.6679   -2.5839    2.0850 F   0  0  0  0  0  0  0  0  0  0  0  0
    9.9538   -0.5332    3.0414 F   0  0  0  0  0  0  0  0  0  0  0  0
   11.5989   -1.4933    1.9270 F   0  0  0  0  0  0  0  0  0  0  0  0
   -2.6244   -1.3658   -1.7652 C   0  0  0  0  0  0  0  0  0  0  0  0
   -3.2555   -2.6263   -1.2322 C   0  0  0  0  0  0  0  0  0  0  0  0
   -2.6811   -3.8557   -1.3524 C   0  0  0  0  0  0  0  0  0  0  0  0
   -3.3383   -4.9531   -0.8185 C   0  0  0  0  0  0  0  0  0  0  0  0
   -2.7673   -6.2193   -0.9310 O   0  0  0  0  0  0  0  0  0  0  0  0
   -4.5554   -4.7626   -0.1816 C   0  0  0  0  0  0  0  0  0  0  0  0
   -5.1348   -3.5194   -0.0610 C   0  0  0  0  0  0  0  0  0  0  0  0
   -4.4686   -2.4407   -0.5971 C   0  0  0  0  0  0  0  0  0  0  0  0
   -6.2997    0.4100    3.1300 H   0  0  0  0  0  0  0  0  0  0  0  0
   -4.5457    0.5040    2.9144 H   0  0  0  0  0  0  0  0  0  0  0  0
   -5.5135   -0.9220    2.2656 H   0  0  0  0  0  0  0  0  0  0  0  0
   -7.7346    0.5271    0.6367 H   0  0  0  0  0  0  0  0  0  0  0  0
   -6.6139    1.1363   -0.6844 H   0  0  0  0  0  0  0  0  0  0  0  0
   -7.0089   -1.1619   -0.9864 H   0  0  0  0  0  0  0  0  0  0  0  0
   -6.6888   -1.5020    0.7208 H   0  0  0  0  0  0  0  0  0  0  0  0
   -4.9034   -0.6980   -1.6482 H   0  0  0  0  0  0  0  0  0  0  0  0
   -3.8282   -0.6709    1.1518 H   0  0  0  0  0  0  0  0  0  0  0  0
   -4.7503    1.6797   -0.5576 H   0  0  0  0  0  0  0  0  0  0  0  0
   -2.8798    1.4167    1.8409 H   0  0  0  0  0  0  0  0  0  0  0  0
   -3.0435    2.8467    0.7346 H   0  0  0  0  0  0  0  0  0  0  0  0
   -4.4605    3.8706    2.1160 H   0  0  0  0  0  0  0  0  0  0  0  0
   -4.3922    2.5094    3.2462 H   0  0  0  0  0  0  0  0  0  0  0  0
   -6.2927    3.0895    0.9099 H   0  0  0  0  0  0  0  0  0  0  0  0
   -7.6025    2.9260    2.6394 H   0  0  0  0  0  0  0  0  0  0  0  0
   -1.8955   -0.9111    0.1163 H   0  0  0  0  0  0  0  0  0  0  0  0
   -2.3503    1.6480   -1.5272 H   0  0  0  0  0  0  0  0  0  0  0  0
   -1.4269    1.3588   -0.0390 H   0  0  0  0  0  0  0  0  0  0  0  0
    0.1145   -0.1224   -1.2282 H   0  0  0  0  0  0  0  0  0  0  0  0
   -0.8068    0.0616   -2.7342 H   0  0  0  0  0  0  0  0  0  0  0  0
    1.1460    1.4114   -2.6336 H   0  0  0  0  0  0  0  0  0  0  0  0
   -0.3194    2.4103   -2.8741 H   0  0  0  0  0  0  0  0  0  0  0  0
    1.1776    3.5147   -1.2019 H   0  0  0  0  0  0  0  0  0  0  0  0
   -0.2308    2.9280   -0.3210 H   0  0  0  0  0  0  0  0  0  0  0  0
    1.8288    2.4159    0.8207 H   0  0  0  0  0  0  0  0  0  0  0  0
    0.9683    0.8684    0.3492 H   0  0  0  0  0  0  0  0  0  0  0  0
    2.6103    0.4743   -1.4137 H   0  0  0  0  0  0  0  0  0  0  0  0
    3.3510    0.8300    0.2072 H   0  0  0  0  0  0  0  0  0  0  0  0
    3.7948    3.0536   -0.2417 H   0  0  0  0  0  0  0  0  0  0  0  0
    2.9992    3.0475   -1.8794 H   0  0  0  0  0  0  0  0  0  0  0  0
    5.3017    3.0092   -2.2761 H   0  0  0  0  0  0  0  0  0  0  0  0
    4.5276    1.5244   -2.8268 H   0  0  0  0  0  0  0  0  0  0  0  0
    6.3259    1.7839   -0.3099 H   0  0  0  0  0  0  0  0  0  0  0  0
    6.7396    1.1409   -1.9304 H   0  0  0  0  0  0  0  0  0  0  0  0
    5.3733   -2.2115    0.6310 H   0  0  0  0  0  0  0  0  0  0  0  0
    5.6561   -0.6774    1.5300 H   0  0  0  0  0  0  0  0  0  0  0  0
    7.7074   -2.2024   -0.2186 H   0  0  0  0  0  0  0  0  0  0  0  0
    7.5270   -2.1829    1.5507 H   0  0  0  0  0  0  0  0  0  0  0  0
    8.0964    0.2652   -0.2799 H   0  0  0  0  0  0  0  0  0  0  0  0
    7.9648    0.2975    1.5159 H   0  0  0  0  0  0  0  0  0  0  0  0
   -3.1950   -1.0483   -2.6216 H   0  0  0  0  0  0  0  0  0  0  0  0
   -1.5724   -1.6713   -2.0064 H   0  0  0  0  0  0  0  0  0  0  0  0
   -1.7265   -3.9610   -1.8592 H   0  0  0  0  0  0  0  0  0  0  0  0
   -3.0120   -6.7562   -1.7537 H   0  0  0  0  0  0  0  0  0  0  0  0
   -5.0752   -5.6279    0.2404 H   0  0  0  0  0  0  0  0  0  0  0  0
   -6.0958   -3.3765    0.4416 H   0  0  0  0  0  0  0  0  0  0  0  0
  2  1  1  1
  2  3  1  0
  3  4  1  0
  4  5  1  0
  5  6  1  0
  6  7  1  0
  7  8  1  0
  8  9  1  0
  9 10  1  0
 10 11  1  0
  6 12  1  0
 12 13  1  0
 13 14  1  0
 14 15  1  0
 15 16  1  0
 16 17  1  0
 17 18  1  0
 18 19  1  0
 19 20  1  0
 20 21  1  0
 21 22  1  0
 22 23  1  0
 22 24  1  0
 24 25  1  0
 25 26  1  0
 26 27  1  0
 27 28  1  0
 27 29  1  0
 27 30  1  0
 30 31  1  0
 30 32  1  0
 30 33  1  0
 12 34  1  0
 34 35  1  0
 35 36  2  0
 36 37  1  0
 37 38  1  0
 37 39  2  0
 39 40  1  0
 40 41  2  0
  7  2  1  0
 41 35  1  0
 10  2  1  0
 41  5  1  0
  1 42  1  0
  1 43  1  0
  1 44  1  0
  3 45  1  0
  3 46  1  0
  4 47  1  0
  4 48  1  0
  5 49  1  6
  6 50  1  1
  7 51  1  6
  8 52  1  0
  8 53  1  0
  9 54  1  0
  9 55  1  0
 10 56  1  6
 11 57  1  0
 12 58  1  1
 13 59  1  0
 13 60  1  0
 14 61  1  0
 14 62  1  0
 15 63  1  0
 15 64  1  0
 16 65  1  0
 16 66  1  0
 17 67  1  0
 17 68  1  0
 18 69  1  0
 18 70  1  0
 19 71  1  0
 19 72  1  0
 20 73  1  0
 20 74  1  0
 21 75  1  0
 21 76  1  0
 24 77  1  0
 24 78  1  0
 25 79  1  0
 25 80  1  0
 26 81  1  0
 26 82  1  0
 34 83  1  0
 34 84  1  0
 36 85  1  0
 38 86  1  0
 39 87  1  0
 40 88  1  0
M  CHG  2  22   1  23  -1
M  END
$$$$
[H]Oc1c([H])c([H])c([C@]2([H])OC([H])([H])[C@]3(C([H])([H])O[H])C([H])([H])C([H])=C(C([H])([H])[H])[C@@]2([H])C3([H])[H])c([H])c1F
     RDKit          3D

 39 41  0  0  0  0  0  0  0  0999 V2000
    0.0572    2.5548   -0.5413 C   0  0  0  0  0  0  0  0  0  0  0  0
   -0.6674    1.2683   -0.2508 C   0  0  0  0  0  0  0  0  0  0  0  0
   -1.3462    0.7268   -1.2315 C   0  0  0  0  0  0  0  0  0  0  0  0
   -2.0923   -0.5323   -1.0568 C   0  0  0  0  0  0  0  0  0  0  0  0
   -2.0772   -1.1044    0.3250 C   0  0  1  0  0  0  0  0  0  0  0  0
   -3.4177   -1.8030    0.5720 C   0  0  0  0  0  0  0  0  0  0  0  0
   -4.4968   -0.9654    0.4723 O   0  0  0  0  0  0  0  0  0  0  0  0
   -0.9420   -2.0762    0.5241 C   0  0  0  0  0  0  0  0  0  0  0  0
    0.1132   -1.6541    1.2371 O   0  0  0  0  0  0  0  0  0  0  0  0
    0.4591   -0.3452    1.2835 C   0  0  2  0  0  0  0  0  0  0  0  0
   -0.6123    0.6607    1.0650 C   0  0  2  0  0  0  0  0  0  0  0  0
   -1.9601   -0.0097    1.3292 C   0  0  0  0  0  0  0  0  0  0  0  0
    1.7028   -0.0575    0.4859 C   0  0  0  0  0  0  0  0  0  0  0  0
    2.7245    0.7337    0.9718 C   0  0  0  0  0  0  0  0  0  0  0  0
    3.8700    1.0037    0.2465 C   0  0  0  0  0  0  0  0  0  0  0  0
    4.0276    0.4751   -1.0177 C   0  0  0  0  0  0  0  0  0  0  0  0
    5.1629    0.7241   -1.7749 O   0  0  0  0  0  0  0  0  0  0  0  0
    3.0379   -0.3076   -1.5218 C   0  0  0  0  0  0  0  0  0  0  0  0
    3.1991   -0.8273   -2.7718 F   0  0  0  0  0  0  0  0  0  0  0  0
    1.8988   -0.5666   -0.7810 C   0  0  0  0  0  0  0  0  0  0  0  0
    0.5342    2.9761    0.3475 H   0  0  0  0  0  0  0  0  0  0  0  0
    0.8341    2.3938   -1.3237 H   0  0  0  0  0  0  0  0  0  0  0  0
   -0.6744    3.2831   -0.9873 H   0  0  0  0  0  0  0  0  0  0  0  0
   -1.3795    1.1895   -2.2023 H   0  0  0  0  0  0  0  0  0  0  0  0
   -1.5658   -1.2908   -1.7089 H   0  0  0  0  0  0  0  0  0  0  0  0
   -3.1131   -0.4801   -1.4960 H   0  0  0  0  0  0  0  0  0  0  0  0
   -3.3852   -2.2726    1.5735 H   0  0  0  0  0  0  0  0  0  0  0  0
   -3.5005   -2.6355   -0.1841 H   0  0  0  0  0  0  0  0  0  0  0  0
   -4.2125   -0.0931    0.1592 H   0  0  0  0  0  0  0  0  0  0  0  0
   -0.7010   -2.4999   -0.4956 H   0  0  0  0  0  0  0  0  0  0  0  0
   -1.3816   -2.9681    1.0654 H   0  0  0  0  0  0  0  0  0  0  0  0
    0.7931   -0.1695    2.3572 H   0  0  0  0  0  0  0  0  0  0  0  0
   -0.5875    1.5122    1.8113 H   0  0  0  0  0  0  0  0  0  0  0  0
   -1.9509   -0.4794    2.3535 H   0  0  0  0  0  0  0  0  0  0  0  0
   -2.7422    0.7523    1.2640 H   0  0  0  0  0  0  0  0  0  0  0  0
    2.6191    1.1568    1.9602 H   0  0  0  0  0  0  0  0  0  0  0  0
    4.6742    1.6226    0.6208 H   0  0  0  0  0  0  0  0  0  0  0  0
    5.9366    1.2922   -1.4707 H   0  0  0  0  0  0  0  0  0  0  0  0
    1.1616   -1.1872   -1.2346 H   0  0  0  0  0  0  0  0  0  0  0  0
  1  2  1  0
  2  3  2  0
  3  4  1  0
  4  5  1  0
  5  6  1  1
  6  7  1  0
  5  8  1  0
  8  9  1  0
  9 10  1  0
 10 11  1  0
 11 12  1  0
 10 13  1  0
 13 14  2  0
 14 15  1  0
 15 16  2  0
 16 17  1  0
 16 18  1  0
 18 19  1  0
 18 20  2  0
 11  2  1  0
 20 13  1  0
 12  5  1  0
  1 21  1  0
  1 22  1  0
  1 23  1  0
  3 24  1  0
  4 25  1  0
  4 26  1  0
  6 27  1  0
  6 28  1  0
  7 29  1  0
  8 30  1  0
  8 31  1  0
 10 32  1  1
 11 33  1  1
 12 34  1  0
 12 35  1  0
 14 36  1  0
 15 37  1  0
 17 38  1  0
 20 39  1  0
M  END
$$$$
[H]Oc1c([H])c([H])c(-c2c([H])c([H])c(O[H])c(C([H])([H])N=O)c2[H])c([H])c1[H]
     RDKit          3D

 28 29  0  0  0  0  0  0  0  0999 V2000
    5.2647   -1.1160    0.7955 O   0  0  0  0  0  0  0  0  0  0  0  0
    3.9416   -0.7557    0.5445 C   0  0  0  0  0  0  0  0  0  0  0  0
    3.5669   -0.4893   -0.7773 C   0  0  0  0  0  0  0  0  0  0  0  0
    2.2787   -0.1312   -1.0760 C   0  0  0  0  0  0  0  0  0  0  0  0
    1.3288   -0.0295   -0.0640 C   0  0  0  0  0  0  0  0  0  0  0  0
    1.6798   -0.2871    1.2369 C   0  0  0  0  0  0  0  0  0  0  0  0
    2.9955   -0.6537    1.5487 C   0  0  0  0  0  0  0  0  0  0  0  0
   -0.0145    0.3553   -0.4069 C   0  0  0  0  0  0  0  0  0  0  0  0
   -0.2413    1.2519   -1.4639 C   0  0  0  0  0  0  0  0  0  0  0  0
   -1.5162    1.6166   -1.8296 C   0  0  0  0  0  0  0  0  0  0  0  0
   -2.6102    1.1004   -1.1555 C   0  0  0  0  0  0  0  0  0  0  0  0
   -3.8836    1.4691   -1.5256 O   0  0  0  0  0  0  0  0  0  0  0  0
   -2.4250    0.2166   -0.1130 C   0  0  0  0  0  0  0  0  0  0  0  0
   -3.5708   -0.3801    0.6299 C   0  0  0  0  0  0  0  0  0  0  0  0
   -3.0620   -1.2611    1.6463 N   0  0  0  0  0  0  0  0  0  0  0  0
   -3.6053   -1.4305    2.6893 O   0  0  0  0  0  0  0  0  0  0  0  0
   -1.1325   -0.1203    0.2207 C   0  0  0  0  0  0  0  0  0  0  0  0
    5.5279   -1.3073    1.7576 H   0  0  0  0  0  0  0  0  0  0  0  0
    4.3350   -0.5774   -1.5411 H   0  0  0  0  0  0  0  0  0  0  0  0
    1.9878    0.0742   -2.0866 H   0  0  0  0  0  0  0  0  0  0  0  0
    0.9710   -0.2103    2.0444 H   0  0  0  0  0  0  0  0  0  0  0  0
    3.2807   -0.8575    2.5798 H   0  0  0  0  0  0  0  0  0  0  0  0
    0.6293    1.6463   -1.9883 H   0  0  0  0  0  0  0  0  0  0  0  0
   -1.6578    2.3161   -2.6525 H   0  0  0  0  0  0  0  0  0  0  0  0
   -4.6727    1.0875   -1.0344 H   0  0  0  0  0  0  0  0  0  0  0  0
   -4.1145   -1.0723   -0.0888 H   0  0  0  0  0  0  0  0  0  0  0  0
   -4.2580    0.3694    1.0465 H   0  0  0  0  0  0  0  0  0  0  0  0
   -1.0233   -0.8240    1.0632 H   0  0  0  0  0  0  0  0  0  0  0  0
  1  2  1  0
  2  3  2  0
  3  4  1  0
  4  5  2  0
  5  6  1  0
  6  7  2  0
  5  8  1  0
  8  9  2  0
  9 10  1  0
 10 11  2  0
 11 12  1  0
 11 13  1  0
 13 14  1  0
 14 15  1  0
 15 16  2  0
 13 17  2  0
  7  2  1  0
 17  8  1  0
  1 18  1  0
  3 19  1  0
  4 20  1  0
  6 21  1  0
  7 22  1  0
  9 23  1  0
 10 24  1  0
 12 25  1  0
 14 26  1  0
 14 27  1  0
 17 28  1  0
M  END
$$$$
[H]Oc1c([H])c([H])c2c(sc3c4c([H])c(O[H])c([H])c([H])c4n(C([H])([H])c4c([H])c([H])c(OC([H])([H])C([H])([H])N(C([H])([H])C([H])([H])[H])C([H])([H])C([H])([H])[H])c([H])c4[H])c32)c1[H]
     RDKit          3D

 61 65  0  0  0  0  0  0  0  0999 V2000
    5.3696   -2.0887   -1.0584 C   0  0  0  0  0  0  0  0  0  0  0  0
    5.7199   -0.6599   -1.4008 C   0  0  0  0  0  0  0  0  0  0  0  0
    5.6499    0.2562   -0.3626 N   0  0  0  0  0  0  0  0  0  0  0  0
    5.9704    1.6146   -0.5906 C   0  0  0  0  0  0  0  0  0  0  0  0
    7.4225    1.8675   -0.8825 C   0  0  0  0  0  0  0  0  0  0  0  0
    5.3491   -0.0421    0.9505 C   0  0  0  0  0  0  0  0  0  0  0  0
    3.9625   -0.4891    1.2963 C   0  0  0  0  0  0  0  0  0  0  0  0
    3.0095    0.5106    0.9416 O   0  0  0  0  0  0  0  0  0  0  0  0
    1.6496    0.3317    1.1601 C   0  0  0  0  0  0  0  0  0  0  0  0
    0.7331    1.2977    0.8143 C   0  0  0  0  0  0  0  0  0  0  0  0
   -0.6409    1.1209    1.0340 C   0  0  0  0  0  0  0  0  0  0  0  0
   -1.1520   -0.0201    1.6043 C   0  0  0  0  0  0  0  0  0  0  0  0
   -2.5669   -0.2515    1.8883 C   0  0  0  0  0  0  0  0  0  0  0  0
   -3.4207   -0.5546    0.7631 N   0  0  0  0  0  0  0  0  0  0  0  0
   -3.5479   -1.8431    0.3288 C   0  0  0  0  0  0  0  0  0  0  0  0
   -3.0164   -3.0598    0.7399 C   0  0  0  0  0  0  0  0  0  0  0  0
   -3.3381   -4.2422    0.1003 C   0  0  0  0  0  0  0  0  0  0  0  0
   -4.2072   -4.2430   -0.9753 C   0  0  0  0  0  0  0  0  0  0  0  0
   -4.5578   -5.4139   -1.6496 O   0  0  0  0  0  0  0  0  0  0  0  0
   -4.7530   -3.0241   -1.4009 C   0  0  0  0  0  0  0  0  0  0  0  0
   -4.3917   -1.8891   -0.7226 C   0  0  0  0  0  0  0  0  0  0  0  0
   -4.7831   -0.5685   -0.9156 C   0  0  0  0  0  0  0  0  0  0  0  0
   -5.7581    0.4488   -1.8669 S   0  0  0  0  0  0  0  0  0  0  0  0
   -5.4202    1.9336   -1.1094 C   0  0  0  0  0  0  0  0  0  0  0  0
   -5.8782    3.2378   -1.3434 C   0  0  0  0  0  0  0  0  0  0  0  0
   -5.4397    4.2689   -0.5472 C   0  0  0  0  0  0  0  0  0  0  0  0
   -5.8713    5.5653   -0.7537 O   0  0  0  0  0  0  0  0  0  0  0  0
   -4.5704    3.9517    0.4395 C   0  0  0  0  0  0  0  0  0  0  0  0
   -4.1116    2.6852    0.6834 C   0  0  0  0  0  0  0  0  0  0  0  0
   -4.5422    1.6018   -0.1179 C   0  0  0  0  0  0  0  0  0  0  0  0
   -4.1976    0.2768   -0.0079 C   0  0  0  0  0  0  0  0  0  0  0  0
   -0.1939   -0.9843    1.9450 C   0  0  0  0  0  0  0  0  0  0  0  0
    1.1538   -0.8201    1.7335 C   0  0  0  0  0  0  0  0  0  0  0  0
    5.6713   -2.2967   -0.0177 H   0  0  0  0  0  0  0  0  0  0  0  0
    4.2844   -2.2878   -1.1373 H   0  0  0  0  0  0  0  0  0  0  0  0
    5.9523   -2.7710   -1.7282 H   0  0  0  0  0  0  0  0  0  0  0  0
    6.8094   -0.7126   -1.7310 H   0  0  0  0  0  0  0  0  0  0  0  0
    5.2139   -0.3432   -2.3535 H   0  0  0  0  0  0  0  0  0  0  0  0
    5.3768    2.1010   -1.3960 H   0  0  0  0  0  0  0  0  0  0  0  0
    5.6932    2.1774    0.3504 H   0  0  0  0  0  0  0  0  0  0  0  0
    7.6308    2.0950   -1.9356 H   0  0  0  0  0  0  0  0  0  0  0  0
    8.0286    0.9901   -0.5099 H   0  0  0  0  0  0  0  0  0  0  0  0
    7.7528    2.7433   -0.2861 H   0  0  0  0  0  0  0  0  0  0  0  0
    5.5739    0.8172    1.6582 H   0  0  0  0  0  0  0  0  0  0  0  0
    6.0495   -0.8439    1.3342 H   0  0  0  0  0  0  0  0  0  0  0  0
    3.9221   -0.4988    2.4297 H   0  0  0  0  0  0  0  0  0  0  0  0
    3.6804   -1.4927    1.0043 H   0  0  0  0  0  0  0  0  0  0  0  0
    1.1099    2.2034    0.3664 H   0  0  0  0  0  0  0  0  0  0  0  0
   -1.2442    1.9318    0.7251 H   0  0  0  0  0  0  0  0  0  0  0  0
   -3.0000    0.5738    2.4514 H   0  0  0  0  0  0  0  0  0  0  0  0
   -2.6036   -1.1189    2.6299 H   0  0  0  0  0  0  0  0  0  0  0  0
   -2.3559   -3.1185    1.5740 H   0  0  0  0  0  0  0  0  0  0  0  0
   -2.9307   -5.1981    0.4073 H   0  0  0  0  0  0  0  0  0  0  0  0
   -5.3866   -5.8820   -1.2635 H   0  0  0  0  0  0  0  0  0  0  0  0
   -5.4325   -2.9449   -2.2247 H   0  0  0  0  0  0  0  0  0  0  0  0
   -6.5700    3.3899   -2.1542 H   0  0  0  0  0  0  0  0  0  0  0  0
   -6.5101    5.8530   -1.4658 H   0  0  0  0  0  0  0  0  0  0  0  0
   -4.2307    4.7905    1.0658 H   0  0  0  0  0  0  0  0  0  0  0  0
   -3.4092    2.5527    1.5024 H   0  0  0  0  0  0  0  0  0  0  0  0
   -0.5701   -1.8929    2.4074 H   0  0  0  0  0  0  0  0  0  0  0  0
    1.8626   -1.5921    2.0115 H   0  0  0  0  0  0  0  0  0  0  0  0
  1  2  1  0
  2  3  1  0
  3  4  1  0
  4  5  1  0
  3  6  1  0
  6  7  1  0
  7  8  1  0
  8  9  1  0
  9 10  2  0
 10 11  1  0
 11 12  2  0
 12 13  1  0
 13 14  1  0
 14 15  1  0
 15 16  2  0
 16 17  1  0
 17 18  2  0
 18 19  1  0
 18 20  1  0
 20 21  2  0
 21 22  1  0
 22 23  1  0
 23 24  1  0
 24 25  2  0
 25 26  1  0
 26 27  1  0
 26 28  2  0
 28 29  1  0
 29 30  2  0
 30 31  1  0
 12 32  1  0
 32 33  2  0
 33  9  1  0
 31 14  1  0
 21 15  1  0
 31 22  2  0
 30 24  1  0
  1 34  1  0
  1 35  1  0
  1 36  1  0
  2 37  1  0
  2 38  1  0
  4 39  1  0
  4 40  1  0
  5 41  1  0
  5 42  1  0
  5 43  1  0
  6 44  1  0
  6 45  1  0
  7 46  1  0
  7 47  1  0
 10 48  1  0
 11 49  1  0
 13 50  1  0
 13 51  1  0
 16 52  1  0
 17 53  1  0
 19 54  1  0
 20 55  1  0
 25 56  1  0
 27 57  1  0
 28 58  1  0
 29 59  1  0
 32 60  1  0
 33 61  1  0
M  END
$$$$
[H]Oc1c([H])c([H])c(C2=C(c3c([H])c([H])c(/C([H])=C(\[H])C(=O)N4C([H])([H])C([H])([H])N(C([H])([H])c5c([H])c([H])c([H])c([H])c5[H])C([H])([H])C4([H])[H])c([H])c3[H])c3c([H])c([H])c(F)c([H])c3OC([H])([H])C2([H])[H])c([H])c1[H]
     RDKit          3D

 75 80  0  0  0  0  0  0  0  0999 V2000
   -4.0680    3.9395   -3.8056 O   0  0  0  0  0  0  0  0  0  0  0  0
   -4.3726    2.8826   -2.9500 C   0  0  0  0  0  0  0  0  0  0  0  0
   -4.9322    1.7221   -3.4556 C   0  0  0  0  0  0  0  0  0  0  0  0
   -5.2289    0.6833   -2.6014 C   0  0  0  0  0  0  0  0  0  0  0  0
   -4.9893    0.7412   -1.2233 C   0  0  0  0  0  0  0  0  0  0  0  0
   -4.4429    1.8797   -0.7403 C   0  0  0  0  0  0  0  0  0  0  0  0
   -4.1397    2.9350   -1.5981 C   0  0  0  0  0  0  0  0  0  0  0  0
   -5.4037   -0.3943   -0.4402 C   0  0  0  0  0  0  0  0  0  0  0  0
   -4.5383   -0.9729    0.3752 C   0  0  0  0  0  0  0  0  0  0  0  0
   -3.1774   -0.5212    0.5191 C   0  0  0  0  0  0  0  0  0  0  0  0
   -2.7070   -0.2107    1.8023 C   0  0  0  0  0  0  0  0  0  0  0  0
   -1.3767    0.1869    1.9755 C   0  0  0  0  0  0  0  0  0  0  0  0
   -0.4952    0.2929    0.9577 C   0  0  0  0  0  0  0  0  0  0  0  0
    0.8945    0.7160    1.0719 C   0  0  0  0  0  0  0  0  0  0  0  0
    1.4346    1.0814    2.2003 C   0  0  0  0  0  0  0  0  0  0  0  0
    2.7635    1.5211    2.4918 C   0  0  0  0  0  0  0  0  0  0  0  0
    2.9153    1.7801    3.7950 O   0  0  0  0  0  0  0  0  0  0  0  0
    3.8754    1.7208    1.7198 N   0  0  0  0  0  0  0  0  0  0  0  0
    5.1300    2.1334    2.4471 C   0  0  0  0  0  0  0  0  0  0  0  0
    6.0569    0.9645    2.2514 C   0  0  0  0  0  0  0  0  0  0  0  0
    6.1444    0.4349    0.9420 N   0  0  0  0  0  0  0  0  0  0  0  0
    7.3989    0.5751    0.2980 C   0  0  0  0  0  0  0  0  0  0  0  0
    7.3574   -0.0605   -1.0435 C   0  0  0  0  0  0  0  0  0  0  0  0
    7.1579   -1.4431   -1.1356 C   0  0  0  0  0  0  0  0  0  0  0  0
    7.1068   -2.1194   -2.3177 C   0  0  0  0  0  0  0  0  0  0  0  0
    7.2658   -1.3625   -3.4793 C   0  0  0  0  0  0  0  0  0  0  0  0
    7.4624   -0.0166   -3.4395 C   0  0  0  0  0  0  0  0  0  0  0  0
    7.5083    0.6370   -2.2120 C   0  0  0  0  0  0  0  0  0  0  0  0
    4.9803    0.3759    0.1484 C   0  0  0  0  0  0  0  0  0  0  0  0
    4.0908    1.6189    0.3319 C   0  0  0  0  0  0  0  0  0  0  0  0
   -0.9787   -0.0213   -0.3210 C   0  0  0  0  0  0  0  0  0  0  0  0
   -2.2747   -0.4133   -0.5226 C   0  0  0  0  0  0  0  0  0  0  0  0
   -4.9003   -2.1603    1.1971 C   0  0  0  0  0  0  0  0  0  0  0  0
   -3.7860   -2.9657    1.4637 C   0  0  0  0  0  0  0  0  0  0  0  0
   -3.9606   -4.1035    2.2133 C   0  0  0  0  0  0  0  0  0  0  0  0
   -5.2170   -4.4365    2.6892 C   0  0  0  0  0  0  0  0  0  0  0  0
   -5.4014   -5.5595    3.4319 F   0  0  0  0  0  0  0  0  0  0  0  0
   -6.3266   -3.6630    2.4408 C   0  0  0  0  0  0  0  0  0  0  0  0
   -6.1441   -2.5037    1.6761 C   0  0  0  0  0  0  0  0  0  0  0  0
   -7.3263   -1.8068    1.4891 O   0  0  0  0  0  0  0  0  0  0  0  0
   -7.6178   -0.7686    0.6206 C   0  0  0  0  0  0  0  0  0  0  0  0
   -6.8460   -0.7503   -0.6714 C   0  0  0  0  0  0  0  0  0  0  0  0
   -4.7002    4.6829   -4.0362 H   0  0  0  0  0  0  0  0  0  0  0  0
   -5.1201    1.6639   -4.5079 H   0  0  0  0  0  0  0  0  0  0  0  0
   -5.6645   -0.1996   -3.0570 H   0  0  0  0  0  0  0  0  0  0  0  0
   -4.2475    1.9844    0.3042 H   0  0  0  0  0  0  0  0  0  0  0  0
   -3.7075    3.8118   -1.1553 H   0  0  0  0  0  0  0  0  0  0  0  0
   -3.3454   -0.2695    2.6730 H   0  0  0  0  0  0  0  0  0  0  0  0
   -1.0698    0.4121    2.9829 H   0  0  0  0  0  0  0  0  0  0  0  0
    1.5114    0.7158    0.2009 H   0  0  0  0  0  0  0  0  0  0  0  0
    0.7253    1.0402    3.0784 H   0  0  0  0  0  0  0  0  0  0  0  0
    5.5135    3.0536    2.0041 H   0  0  0  0  0  0  0  0  0  0  0  0
    4.9339    2.2868    3.5052 H   0  0  0  0  0  0  0  0  0  0  0  0
    5.8111    0.1740    3.0240 H   0  0  0  0  0  0  0  0  0  0  0  0
    7.0834    1.3172    2.5710 H   0  0  0  0  0  0  0  0  0  0  0  0
    8.1685    0.0323    0.9076 H   0  0  0  0  0  0  0  0  0  0  0  0
    7.6848    1.6621    0.1890 H   0  0  0  0  0  0  0  0  0  0  0  0
    7.0407   -1.9750   -0.1876 H   0  0  0  0  0  0  0  0  0  0  0  0
    6.9502   -3.1816   -2.3269 H   0  0  0  0  0  0  0  0  0  0  0  0
    7.2308   -1.8625   -4.4308 H   0  0  0  0  0  0  0  0  0  0  0  0
    7.5844    0.5621   -4.3577 H   0  0  0  0  0  0  0  0  0  0  0  0
    7.6634    1.6960   -2.1754 H   0  0  0  0  0  0  0  0  0  0  0  0
    4.3345   -0.5027    0.3694 H   0  0  0  0  0  0  0  0  0  0  0  0
    5.2211    0.3706   -0.9249 H   0  0  0  0  0  0  0  0  0  0  0  0
    4.7967    2.4930    0.0075 H   0  0  0  0  0  0  0  0  0  0  0  0
    3.2767    1.5784   -0.3466 H   0  0  0  0  0  0  0  0  0  0  0  0
   -0.3200    0.0441   -1.1795 H   0  0  0  0  0  0  0  0  0  0  0  0
   -2.6311   -0.6559   -1.5115 H   0  0  0  0  0  0  0  0  0  0  0  0
   -2.8322   -2.6657    1.0588 H   0  0  0  0  0  0  0  0  0  0  0  0
   -3.0780   -4.7162    2.4095 H   0  0  0  0  0  0  0  0  0  0  0  0
   -7.3195   -3.8866    2.7916 H   0  0  0  0  0  0  0  0  0  0  0  0
   -8.6988   -0.8004    0.3532 H   0  0  0  0  0  0  0  0  0  0  0  0
   -7.4720    0.2355    1.1155 H   0  0  0  0  0  0  0  0  0  0  0  0
   -7.2869    0.0373   -1.2967 H   0  0  0  0  0  0  0  0  0  0  0  0
   -6.9290   -1.7071   -1.2198 H   0  0  0  0  0  0  0  0  0  0  0  0
  1  2  1  0
  2  3  2  0
  3  4  1  0
  4  5  2  0
  5  6  1  0
  6  7  2  0
  5  8  1  0
  8  9  2  0
  9 10  1  0
 10 11  2  0
 11 12  1  0
 12 13  2  0
 13 14  1  0
 14 15  2  0
 15 16  1  0
 16 17  2  0
 16 18  1  0
 18 19  1  0
 19 20  1  0
 20 21  1  0
 21 22  1  0
 22 23  1  0
 23 24  2  0
 24 25  1  0
 25 26  2  0
 26 27  1  0
 27 28  2  0
 21 29  1  0
 29 30  1  0
 13 31  1  0
 31 32  2  0
  9 33  1  0
 33 34  2  0
 34 35  1  0
 35 36  2  0
 36 37  1  0
 36 38  1  0
 38 39  2  0
 39 40  1  0
 40 41  1  0
 41 42  1  0
  7  2  1  0
 42  8  1  0
 32 10  1  0
 39 33  1  0
 30 18  1  0
 28 23  1  0
  1 43  1  0
  3 44  1  0
  4 45  1  0
  6 46  1  0
  7 47  1  0
 11 48  1  0
 12 49  1  0
 14 50  1  0
 15 51  1  0
 19 52  1  0
 19 53  1  0
 20 54  1  0
 20 55  1  0
 22 56  1  0
 22 57  1  0
 24 58  1  0
 25 59  1  0
 26 60  1  0
 27 61  1  0
 28 62  1  0
 29 63  1  0
 29 64  1  0
 30 65  1  0
 30 66  1  0
 31 67  1  0
 32 68  1  0
 34 69  1  0
 35 70  1  0
 38 71  1  0
 41 72  1  0
 41 73  1  0
 42 74  1  0
 42 75  1  0
M  END
$$$$
[H]Oc1c([H])c([H])c2c(c1[H])C([H])([H])C([H])([H])C([H])([H])C(c1c([H])c([H])c(OC([H])([H])C([H])([H])[H])c([H])c1F)=C2c1c([H])c([H])c(O[C@]2([H])C([H])([H])N(C([H])([H])C([H])([H])C([H])([H])F)C([H])([H])C2([H])[H])c([H])c1[H]
     RDKit          3D

 73 77  0  0  0  0  0  0  0  0999 V2000
   -4.9685    6.3787   -0.8617 C   0  0  0  0  0  0  0  0  0  0  0  0
   -4.8354    4.8823   -0.9609 C   0  0  0  0  0  0  0  0  0  0  0  0
   -4.0785    4.3264    0.0674 O   0  0  0  0  0  0  0  0  0  0  0  0
   -3.8368    2.9572    0.1703 C   0  0  0  0  0  0  0  0  0  0  0  0
   -4.3624    2.1018   -0.7739 C   0  0  0  0  0  0  0  0  0  0  0  0
   -4.1352    0.7578   -0.6888 C   0  0  0  0  0  0  0  0  0  0  0  0
   -3.3708    0.1665    0.3384 C   0  0  0  0  0  0  0  0  0  0  0  0
   -2.8663    1.0194    1.2549 C   0  0  0  0  0  0  0  0  0  0  0  0
   -2.1908    0.6063    2.3228 F   0  0  0  0  0  0  0  0  0  0  0  0
   -3.0989    2.4031    1.1668 C   0  0  0  0  0  0  0  0  0  0  0  0
   -3.3192   -1.2829    0.3037 C   0  0  0  0  0  0  0  0  0  0  0  0
   -2.1753   -1.8580    0.1459 C   0  0  0  0  0  0  0  0  0  0  0  0
   -0.9559   -1.0951    0.0030 C   0  0  0  0  0  0  0  0  0  0  0  0
    0.0905   -1.4395    0.8951 C   0  0  0  0  0  0  0  0  0  0  0  0
    1.3201   -0.8655    0.8540 C   0  0  0  0  0  0  0  0  0  0  0  0
    1.5724    0.1155   -0.1154 C   0  0  0  0  0  0  0  0  0  0  0  0
    2.8219    0.6572   -0.1128 O   0  0  0  0  0  0  0  0  0  0  0  0
    3.2813    1.6257   -0.9950 C   0  0  1  0  0  0  0  0  0  0  0  0
    3.9863    2.7002   -0.2143 C   0  0  0  0  0  0  0  0  0  0  0  0
    5.4599    2.4792   -0.5751 C   0  0  0  0  0  0  0  0  0  0  0  0
    5.4988    1.1126   -0.9166 N   0  0  0  0  0  0  0  0  0  0  0  0
    6.6902    0.5785   -1.4245 C   0  0  0  0  0  0  0  0  0  0  0  0
    7.7908    0.3351   -0.4835 C   0  0  0  0  0  0  0  0  0  0  0  0
    8.3527    1.4492    0.2973 C   0  0  0  0  0  0  0  0  0  0  0  0
    9.4457    0.8943    1.0268 F   0  0  0  0  0  0  0  0  0  0  0  0
    4.3916    1.0252   -1.8846 C   0  0  0  0  0  0  0  0  0  0  0  0
    0.5542    0.4497   -0.9827 C   0  0  0  0  0  0  0  0  0  0  0  0
   -0.6893   -0.1430   -0.9280 C   0  0  0  0  0  0  0  0  0  0  0  0
   -1.9056   -3.3298    0.0475 C   0  0  0  0  0  0  0  0  0  0  0  0
   -0.7835   -3.6065   -0.6783 C   0  0  0  0  0  0  0  0  0  0  0  0
   -0.4298   -4.9374   -0.8052 C   0  0  0  0  0  0  0  0  0  0  0  0
   -1.1705   -5.9280   -0.2320 C   0  0  0  0  0  0  0  0  0  0  0  0
   -0.7642   -7.2599   -0.3931 O   0  0  0  0  0  0  0  0  0  0  0  0
   -2.3254   -5.6379    0.5114 C   0  0  0  0  0  0  0  0  0  0  0  0
   -2.6685   -4.3298    0.6330 C   0  0  0  0  0  0  0  0  0  0  0  0
   -3.9598   -4.1457    1.3790 C   0  0  0  0  0  0  0  0  0  0  0  0
   -4.8246   -3.3326    0.4201 C   0  0  0  0  0  0  0  0  0  0  0  0
   -4.7135   -1.8890    0.5021 C   0  0  0  0  0  0  0  0  0  0  0  0
   -4.2196    6.9443   -1.4133 H   0  0  0  0  0  0  0  0  0  0  0  0
   -4.9356    6.7166    0.2087 H   0  0  0  0  0  0  0  0  0  0  0  0
   -5.9852    6.7073   -1.2324 H   0  0  0  0  0  0  0  0  0  0  0  0
   -5.8320    4.4118   -1.0724 H   0  0  0  0  0  0  0  0  0  0  0  0
   -4.3235    4.6741   -1.9497 H   0  0  0  0  0  0  0  0  0  0  0  0
   -4.9533    2.5314   -1.5730 H   0  0  0  0  0  0  0  0  0  0  0  0
   -4.5593    0.1138   -1.4424 H   0  0  0  0  0  0  0  0  0  0  0  0
   -2.6823    3.0675    1.9142 H   0  0  0  0  0  0  0  0  0  0  0  0
   -0.1038   -2.1959    1.6404 H   0  0  0  0  0  0  0  0  0  0  0  0
    2.1286   -1.1398    1.5527 H   0  0  0  0  0  0  0  0  0  0  0  0
    2.5331    2.0146   -1.6848 H   0  0  0  0  0  0  0  0  0  0  0  0
    3.6570    3.7135   -0.5431 H   0  0  0  0  0  0  0  0  0  0  0  0
    3.9089    2.5819    0.8847 H   0  0  0  0  0  0  0  0  0  0  0  0
    5.5839    3.0489   -1.5537 H   0  0  0  0  0  0  0  0  0  0  0  0
    6.1116    2.8685    0.1890 H   0  0  0  0  0  0  0  0  0  0  0  0
    6.4273   -0.4128   -1.9639 H   0  0  0  0  0  0  0  0  0  0  0  0
    7.0713    1.2313   -2.3051 H   0  0  0  0  0  0  0  0  0  0  0  0
    8.6222   -0.2416   -1.0276 H   0  0  0  0  0  0  0  0  0  0  0  0
    7.4822   -0.4581    0.2904 H   0  0  0  0  0  0  0  0  0  0  0  0
    8.6512    2.2895   -0.3032 H   0  0  0  0  0  0  0  0  0  0  0  0
    7.6946    1.7752    1.1480 H   0  0  0  0  0  0  0  0  0  0  0  0
    4.1681   -0.0032   -2.1665 H   0  0  0  0  0  0  0  0  0  0  0  0
    4.5398    1.7308   -2.7229 H   0  0  0  0  0  0  0  0  0  0  0  0
    0.7176    1.2003   -1.7389 H   0  0  0  0  0  0  0  0  0  0  0  0
   -1.4354    0.1343   -1.6452 H   0  0  0  0  0  0  0  0  0  0  0  0
   -0.2288   -2.8169   -1.1438 H   0  0  0  0  0  0  0  0  0  0  0  0
    0.4586   -5.1711   -1.3763 H   0  0  0  0  0  0  0  0  0  0  0  0
   -1.3238   -7.9686    0.0375 H   0  0  0  0  0  0  0  0  0  0  0  0
   -2.8751   -6.4576    0.9418 H   0  0  0  0  0  0  0  0  0  0  0  0
   -3.7428   -3.5570    2.2901 H   0  0  0  0  0  0  0  0  0  0  0  0
   -4.4142   -5.1240    1.5532 H   0  0  0  0  0  0  0  0  0  0  0  0
   -4.6134   -3.6827   -0.6141 H   0  0  0  0  0  0  0  0  0  0  0  0
   -5.8963   -3.6176    0.6335 H   0  0  0  0  0  0  0  0  0  0  0  0
   -5.3106   -1.4328   -0.3393 H   0  0  0  0  0  0  0  0  0  0  0  0
   -5.1488   -1.4174    1.4147 H   0  0  0  0  0  0  0  0  0  0  0  0
  1  2  1  0
  2  3  1  0
  3  4  1  0
  4  5  2  0
  5  6  1  0
  6  7  2  0
  7  8  1  0
  8  9  1  0
  8 10  2  0
  7 11  1  0
 11 12  2  0
 12 13  1  0
 13 14  2  0
 14 15  1  0
 15 16  2  0
 16 17  1  0
 17 18  1  0
 18 19  1  0
 19 20  1  0
 20 21  1  0
 21 22  1  0
 22 23  1  0
 23 24  1  0
 24 25  1  0
 21 26  1  0
 16 27  1  0
 27 28  2  0
 12 29  1  0
 29 30  2  0
 30 31  1  0
 31 32  2  0
 32 33  1  0
 32 34  1  0
 34 35  2  0
 35 36  1  0
 36 37  1  0
 37 38  1  0
 10  4  1  0
 38 11  1  0
 28 13  1  0
 35 29  1  0
 26 18  1  0
  1 39  1  0
  1 40  1  0
  1 41  1  0
  2 42  1  0
  2 43  1  0
  5 44  1  0
  6 45  1  0
 10 46  1  0
 14 47  1  0
 15 48  1  0
 18 49  1  6
 19 50  1  0
 19 51  1  0
 20 52  1  0
 20 53  1  0
 22 54  1  0
 22 55  1  0
 23 56  1  0
 23 57  1  0
 24 58  1  0
 24 59  1  0
 26 60  1  0
 26 61  1  0
 27 62  1  0
 28 63  1  0
 30 64  1  0
 31 65  1  0
 33 66  1  0
 34 67  1  0
 36 68  1  0
 36 69  1  0
 37 70  1  0
 37 71  1  0
 38 72  1  0
 38 73  1  0
M  END
$$$$
[H]c1c(F)c([C@]2([H])c3c([H])c([H])c4c(c([H])nn4[H])c3C([H])([H])[C@@]([H])(C([H])(F)F)N2C([H])([H])C(F)(C([H])([H])[H])C([H])([H])[H])c(F)c([H])c1OC([H])([H])C([H])([H])N1C([H])([H])C([H])(C([H])([H])F)C1([H])[H]
     RDKit          3D

 68 72  0  0  0  0  0  0  0  0999 V2000
   -2.3805    4.2400    0.1763 C   0  0  0  0  0  0  0  0  0  0  0  0
   -2.8785    2.9972   -0.5978 C   0  0  0  0  0  0  0  0  0  0  0  0
   -1.8928    2.8903   -1.7729 C   0  0  0  0  0  0  0  0  0  0  0  0
   -4.0648    3.3563   -1.1282 F   0  0  0  0  0  0  0  0  0  0  0  0
   -2.8184    1.8143    0.2894 C   0  0  0  0  0  0  0  0  0  0  0  0
   -3.2144    0.5531   -0.1676 N   0  0  0  0  0  0  0  0  0  0  0  0
   -4.5732    0.3094   -0.4307 C   0  0  1  0  0  0  0  0  0  0  0  0
   -4.7956   -0.9243   -1.2865 C   0  0  0  0  0  0  0  0  0  0  0  0
   -4.0742   -2.0537   -0.7234 C   0  0  0  0  0  0  0  0  0  0  0  0
   -3.0090   -1.8517    0.1151 C   0  0  0  0  0  0  0  0  0  0  0  0
   -2.3725   -2.9709    0.6035 C   0  0  0  0  0  0  0  0  0  0  0  0
   -2.7974   -4.2544    0.2571 C   0  0  0  0  0  0  0  0  0  0  0  0
   -3.8779   -4.4261   -0.5926 C   0  0  0  0  0  0  0  0  0  0  0  0
   -4.5059   -5.5284   -1.0957 N   0  0  0  0  0  0  0  0  0  0  0  0
   -5.5014   -5.1342   -1.8729 N   0  0  0  0  0  0  0  0  0  0  0  0
   -5.5272   -3.7900   -1.8805 C   0  0  0  0  0  0  0  0  0  0  0  0
   -4.5081   -3.3266   -1.0767 C   0  0  0  0  0  0  0  0  0  0  0  0
   -2.5201   -0.5072    0.5233 C   0  0  1  0  0  0  0  0  0  0  0  0
   -1.0562   -0.4843    0.4045 C   0  0  0  0  0  0  0  0  0  0  0  0
   -0.2285   -0.2293    1.4910 C   0  0  0  0  0  0  0  0  0  0  0  0
   -0.8176   -0.0191    2.6939 F   0  0  0  0  0  0  0  0  0  0  0  0
    1.1464   -0.2058    1.3332 C   0  0  0  0  0  0  0  0  0  0  0  0
    1.7544   -0.4287    0.1210 C   0  0  0  0  0  0  0  0  0  0  0  0
    3.1202   -0.3966   -0.0082 O   0  0  0  0  0  0  0  0  0  0  0  0
    4.0658   -0.1470    0.9835 C   0  0  0  0  0  0  0  0  0  0  0  0
    5.4328   -0.2222    0.3251 C   0  0  0  0  0  0  0  0  0  0  0  0
    6.5222    0.0235    1.2152 N   0  0  0  0  0  0  0  0  0  0  0  0
    7.7837   -0.0622    0.4782 C   0  0  0  0  0  0  0  0  0  0  0  0
    7.6460    1.4032    0.1632 C   0  0  0  0  0  0  0  0  0  0  0  0
    8.9873    2.1006    0.2322 C   0  0  0  0  0  0  0  0  0  0  0  0
    8.8644    3.4542   -0.0566 F   0  0  0  0  0  0  0  0  0  0  0  0
    6.8482    1.4254    1.4616 C   0  0  0  0  0  0  0  0  0  0  0  0
    0.9481   -0.6851   -0.9689 C   0  0  0  0  0  0  0  0  0  0  0  0
   -0.4227   -0.7074   -0.8073 C   0  0  0  0  0  0  0  0  0  0  0  0
   -1.1974   -0.9717   -1.8857 F   0  0  0  0  0  0  0  0  0  0  0  0
   -5.5300    0.3129    0.7209 C   0  0  0  0  0  0  0  0  0  0  0  0
   -5.3167   -0.5857    1.7051 F   0  0  0  0  0  0  0  0  0  0  0  0
   -5.7353    1.5704    1.2602 F   0  0  0  0  0  0  0  0  0  0  0  0
   -1.8390    3.8686    1.0688 H   0  0  0  0  0  0  0  0  0  0  0  0
   -3.2438    4.8700    0.4870 H   0  0  0  0  0  0  0  0  0  0  0  0
   -1.6932    4.8506   -0.4060 H   0  0  0  0  0  0  0  0  0  0  0  0
   -0.8802    3.2542   -1.4424 H   0  0  0  0  0  0  0  0  0  0  0  0
   -1.7788    1.8553   -2.0820 H   0  0  0  0  0  0  0  0  0  0  0  0
   -2.1936    3.5757   -2.6093 H   0  0  0  0  0  0  0  0  0  0  0  0
   -1.7270    1.7504    0.6085 H   0  0  0  0  0  0  0  0  0  0  0  0
   -3.3109    2.1181    1.2674 H   0  0  0  0  0  0  0  0  0  0  0  0
   -4.9583    1.1347   -1.1061 H   0  0  0  0  0  0  0  0  0  0  0  0
   -4.3695   -0.7014   -2.3009 H   0  0  0  0  0  0  0  0  0  0  0  0
   -5.8777   -1.0967   -1.4574 H   0  0  0  0  0  0  0  0  0  0  0  0
   -1.5193   -2.9437    1.2738 H   0  0  0  0  0  0  0  0  0  0  0  0
   -2.3145   -5.1485    0.6284 H   0  0  0  0  0  0  0  0  0  0  0  0
   -4.2436   -6.5172   -0.8995 H   0  0  0  0  0  0  0  0  0  0  0  0
   -6.2493   -3.2110   -2.4415 H   0  0  0  0  0  0  0  0  0  0  0  0
   -2.7715   -0.4017    1.6027 H   0  0  0  0  0  0  0  0  0  0  0  0
    1.7660   -0.0044    2.1877 H   0  0  0  0  0  0  0  0  0  0  0  0
    3.9918   -0.9304    1.7563 H   0  0  0  0  0  0  0  0  0  0  0  0
    3.8753    0.8680    1.3948 H   0  0  0  0  0  0  0  0  0  0  0  0
    5.5277   -1.3069    0.0107 H   0  0  0  0  0  0  0  0  0  0  0  0
    5.4658    0.3736   -0.5853 H   0  0  0  0  0  0  0  0  0  0  0  0
    8.6433   -0.2482    1.1358 H   0  0  0  0  0  0  0  0  0  0  0  0
    7.7314   -0.6705   -0.4503 H   0  0  0  0  0  0  0  0  0  0  0  0
    7.0053    1.6887   -0.6709 H   0  0  0  0  0  0  0  0  0  0  0  0
    9.4346    1.9759    1.2259 H   0  0  0  0  0  0  0  0  0  0  0  0
    9.6257    1.6833   -0.5782 H   0  0  0  0  0  0  0  0  0  0  0  0
    6.0031    2.1168    1.4865 H   0  0  0  0  0  0  0  0  0  0  0  0
    7.5197    1.4742    2.3501 H   0  0  0  0  0  0  0  0  0  0  0  0
    1.4129   -0.8621   -1.9252 H   0  0  0  0  0  0  0  0  0  0  0  0
   -6.5356    0.0463    0.2692 H   0  0  0  0  0  0  0  0  0  0  0  0
  1  2  1  0
  2  3  1  0
  2  4  1  0
  2  5  1  0
  5  6  1  0
  6  7  1  0
  7  8  1  0
  8  9  1  0
  9 10  2  0
 10 11  1  0
 11 12  2  0
 12 13  1  0
 13 14  1  0
 14 15  1  0
 15 16  2  0
 16 17  1  0
 10 18  1  0
 18 19  1  0
 19 20  2  0
 20 21  1  0
 20 22  1  0
 22 23  2  0
 23 24  1  0
 24 25  1  0
 25 26  1  0
 26 27  1  0
 27 28  1  0
 28 29  1  0
 29 30  1  0
 30 31  1  0
 29 32  1  0
 23 33  1  0
 33 34  2  0
 34 35  1  0
  7 36  1  0
 36 37  1  0
 36 38  1  0
 18  6  1  0
 34 19  1  0
 17  9  1  0
 32 27  1  0
 17 13  2  0
  1 39  1  0
  1 40  1  0
  1 41  1  0
  3 42  1  0
  3 43  1  0
  3 44  1  0
  5 45  1  0
  5 46  1  0
  7 47  1  6
  8 48  1  0
  8 49  1  0
 11 50  1  0
 12 51  1  0
 14 52  1  0
 16 53  1  0
 18 54  1  1
 22 55  1  0
 25 56  1  0
 25 57  1  0
 26 58  1  0
 26 59  1  0
 28 60  1  0
 28 61  1  0
 29 62  1  0
 30 63  1  0
 30 64  1  0
 32 65  1  0
 32 66  1  0
 33 67  1  0
 36 68  1  0
M  END
$$$$
[H]Oc1c([H])c(C([H])([H])C([H])([H])[H])c(-c2noc3c([H])c(O[H])c([H])c([H])c23)c([H])c1C([H])([H])C([H])([H])C([H])([H])[H]
     RDKit          3D

 41 43  0  0  0  0  0  0  0  0999 V2000
    5.1292   -2.2286    0.7787 C   0  0  0  0  0  0  0  0  0  0  0  0
    4.0504   -1.1701    0.7362 C   0  0  0  0  0  0  0  0  0  0  0  0
    3.0847   -1.5137   -0.4005 C   0  0  0  0  0  0  0  0  0  0  0  0
    2.0478   -0.4341   -0.4381 C   0  0  0  0  0  0  0  0  0  0  0  0
    0.7893   -0.6231    0.1197 C   0  0  0  0  0  0  0  0  0  0  0  0
   -0.1311    0.3933    0.1305 C   0  0  0  0  0  0  0  0  0  0  0  0
   -1.4404    0.2945    0.7462 C   0  0  0  0  0  0  0  0  0  0  0  0
   -1.8704    0.9827    1.8507 N   0  0  0  0  0  0  0  0  0  0  0  0
   -3.1055    0.7273    2.1015 O   0  0  0  0  0  0  0  0  0  0  0  0
   -3.6060   -0.1186    1.2314 C   0  0  0  0  0  0  0  0  0  0  0  0
   -4.8631   -0.6763    1.0904 C   0  0  0  0  0  0  0  0  0  0  0  0
   -5.0997   -1.5508    0.0519 C   0  0  0  0  0  0  0  0  0  0  0  0
   -6.3610   -2.1525   -0.1430 O   0  0  0  0  0  0  0  0  0  0  0  0
   -4.0701   -1.8424   -0.8168 C   0  0  0  0  0  0  0  0  0  0  0  0
   -2.8121   -1.2942   -0.6864 C   0  0  0  0  0  0  0  0  0  0  0  0
   -2.5508   -0.4101    0.3525 C   0  0  0  0  0  0  0  0  0  0  0  0
    0.2539    1.6162   -0.4423 C   0  0  0  0  0  0  0  0  0  0  0  0
   -0.7918    2.6754   -0.4098 C   0  0  0  0  0  0  0  0  0  0  0  0
   -0.3913    3.9001   -1.1890 C   0  0  0  0  0  0  0  0  0  0  0  0
    1.4848    1.8265   -0.9965 C   0  0  0  0  0  0  0  0  0  0  0  0
    2.4100    0.7774   -0.9983 C   0  0  0  0  0  0  0  0  0  0  0  0
    3.6562    0.9841   -1.5677 O   0  0  0  0  0  0  0  0  0  0  0  0
    6.1478   -1.7664    0.6656 H   0  0  0  0  0  0  0  0  0  0  0  0
    4.9769   -2.9473   -0.0226 H   0  0  0  0  0  0  0  0  0  0  0  0
    5.1399   -2.7965    1.7293 H   0  0  0  0  0  0  0  0  0  0  0  0
    3.4616   -1.2995    1.6866 H   0  0  0  0  0  0  0  0  0  0  0  0
    4.4590   -0.1639    0.6534 H   0  0  0  0  0  0  0  0  0  0  0  0
    2.5342   -2.4540   -0.1563 H   0  0  0  0  0  0  0  0  0  0  0  0
    3.5965   -1.6543   -1.3499 H   0  0  0  0  0  0  0  0  0  0  0  0
    0.5292   -1.5892    0.5484 H   0  0  0  0  0  0  0  0  0  0  0  0
   -5.6831   -0.4633    1.7518 H   0  0  0  0  0  0  0  0  0  0  0  0
   -7.1265   -1.9555    0.4757 H   0  0  0  0  0  0  0  0  0  0  0  0
   -4.2560   -2.5232   -1.6258 H   0  0  0  0  0  0  0  0  0  0  0  0
   -1.9894   -1.5095   -1.3591 H   0  0  0  0  0  0  0  0  0  0  0  0
   -1.8032    2.2900   -0.6633 H   0  0  0  0  0  0  0  0  0  0  0  0
   -0.8424    3.0055    0.6482 H   0  0  0  0  0  0  0  0  0  0  0  0
   -0.3766    3.7424   -2.2821 H   0  0  0  0  0  0  0  0  0  0  0  0
   -1.2105    4.6505   -0.9982 H   0  0  0  0  0  0  0  0  0  0  0  0
    0.5610    4.2645   -0.7837 H   0  0  0  0  0  0  0  0  0  0  0  0
    1.7586    2.7803   -1.4286 H   0  0  0  0  0  0  0  0  0  0  0  0
    4.3099    0.2265   -1.6089 H   0  0  0  0  0  0  0  0  0  0  0  0
  1  2  1  0
  2  3  1  0
  3  4  1  0
  4  5  2  0
  5  6  1  0
  6  7  1  0
  7  8  2  0
  8  9  1  0
  9 10  1  0
 10 11  2  0
 11 12  1  0
 12 13  1  0
 12 14  2  0
 14 15  1  0
 15 16  2  0
  6 17  2  0
 17 18  1  0
 18 19  1  0
 17 20  1  0
 20 21  2  0
 21 22  1  0
 21  4  1  0
 16  7  1  0
 16 10  1  0
  1 23  1  0
  1 24  1  0
  1 25  1  0
  2 26  1  0
  2 27  1  0
  3 28  1  0
  3 29  1  0
  5 30  1  0
 11 31  1  0
 13 32  1  0
 14 33  1  0
 15 34  1  0
 18 35  1  0
 18 36  1  0
 19 37  1  0
 19 38  1  0
 19 39  1  0
 20 40  1  0
 22 41  1  0
M  END
$$$$
[H]Oc1c([H])c([H])c([C@@]2([H])Sc3c([H])c(O[H])c([H])c([H])c3S[C@@]2([H])c2c([H])c([H])c(OC([H])([H])C([H])([H])N3C([H])([H])C([H])([H])C([H])([H])C([H])([H])C3([H])[H])c([H])c2[H])c([H])c1[H]
     RDKit          3D

 62 66  0  0  0  0  0  0  0  0999 V2000
   -5.3140   -3.7565    2.9189 O   0  0  0  0  0  0  0  0  0  0  0  0
   -4.8374   -2.8639    1.9423 C   0  0  0  0  0  0  0  0  0  0  0  0
   -3.8532   -3.2648    1.0760 C   0  0  0  0  0  0  0  0  0  0  0  0
   -3.4044   -2.3740    0.1308 C   0  0  0  0  0  0  0  0  0  0  0  0
   -3.9164   -1.0708    0.0205 C   0  0  0  0  0  0  0  0  0  0  0  0
   -4.8946   -0.6843    0.8876 C   0  0  0  0  0  0  0  0  0  0  0  0
   -5.3514   -1.5940    1.8513 C   0  0  0  0  0  0  0  0  0  0  0  0
   -3.3428   -0.2385   -1.0475 C   0  0  1  0  0  0  0  0  0  0  0  0
   -4.6613    0.3221   -2.1213 S   0  0  0  0  0  0  0  0  0  0  0  0
   -5.1162    1.9924   -1.7886 C   0  0  0  0  0  0  0  0  0  0  0  0
   -6.0894    2.5518   -2.6245 C   0  0  0  0  0  0  0  0  0  0  0  0
   -6.5472    3.8404   -2.4871 C   0  0  0  0  0  0  0  0  0  0  0  0
   -7.5226    4.3757   -3.3381 O   0  0  0  0  0  0  0  0  0  0  0  0
   -6.0225    4.6096   -1.4822 C   0  0  0  0  0  0  0  0  0  0  0  0
   -5.0616    4.0793   -0.6455 C   0  0  0  0  0  0  0  0  0  0  0  0
   -4.6263    2.7987   -0.8052 C   0  0  0  0  0  0  0  0  0  0  0  0
   -3.3586    2.1707    0.3263 S   0  0  0  0  0  0  0  0  0  0  0  0
   -2.4782    0.8947   -0.6346 C   0  0  1  0  0  0  0  0  0  0  0  0
   -1.1717    0.5474   -0.0804 C   0  0  0  0  0  0  0  0  0  0  0  0
   -1.0616    0.0285    1.1887 C   0  0  0  0  0  0  0  0  0  0  0  0
    0.1639   -0.3045    1.7167 C   0  0  0  0  0  0  0  0  0  0  0  0
    1.3543   -0.1262    0.9766 C   0  0  0  0  0  0  0  0  0  0  0  0
    2.4895   -0.4925    1.6150 O   0  0  0  0  0  0  0  0  0  0  0  0
    3.8172   -0.5185    1.2991 C   0  0  0  0  0  0  0  0  0  0  0  0
    4.1113   -1.4485    0.1751 C   0  0  0  0  0  0  0  0  0  0  0  0
    5.5079   -1.4969   -0.1840 N   0  0  0  0  0  0  0  0  0  0  0  0
    6.3751   -2.0719    0.7575 C   0  0  0  0  0  0  0  0  0  0  0  0
    7.4243   -1.1739    1.3340 C   0  0  0  0  0  0  0  0  0  0  0  0
    8.0303   -0.2271    0.3357 C   0  0  0  0  0  0  0  0  0  0  0  0
    7.4748   -0.4562   -1.0472 C   0  0  0  0  0  0  0  0  0  0  0  0
    5.9676   -0.3911   -0.9354 C   0  0  0  0  0  0  0  0  0  0  0  0
    1.2303    0.3871   -0.2729 C   0  0  0  0  0  0  0  0  0  0  0  0
   -0.0089    0.7142   -0.7840 C   0  0  0  0  0  0  0  0  0  0  0  0
   -4.9355   -4.6915    2.9856 H   0  0  0  0  0  0  0  0  0  0  0  0
   -3.4580   -4.2749    1.1625 H   0  0  0  0  0  0  0  0  0  0  0  0
   -2.6268   -2.7098   -0.5436 H   0  0  0  0  0  0  0  0  0  0  0  0
   -5.2937    0.2938    0.8198 H   0  0  0  0  0  0  0  0  0  0  0  0
   -6.1255   -1.2323    2.5100 H   0  0  0  0  0  0  0  0  0  0  0  0
   -2.6717   -0.8749   -1.7205 H   0  0  0  0  0  0  0  0  0  0  0  0
   -6.5328    1.9683   -3.4396 H   0  0  0  0  0  0  0  0  0  0  0  0
   -8.4842    4.2559   -3.0476 H   0  0  0  0  0  0  0  0  0  0  0  0
   -6.3620    5.6332   -1.3446 H   0  0  0  0  0  0  0  0  0  0  0  0
   -4.6881    4.7475    0.1319 H   0  0  0  0  0  0  0  0  0  0  0  0
   -2.2481    1.4380   -1.6163 H   0  0  0  0  0  0  0  0  0  0  0  0
   -1.9609   -0.1115    1.7693 H   0  0  0  0  0  0  0  0  0  0  0  0
    0.1831   -0.7076    2.7172 H   0  0  0  0  0  0  0  0  0  0  0  0
    4.2343    0.4835    1.0018 H   0  0  0  0  0  0  0  0  0  0  0  0
    4.3790   -0.8188    2.2295 H   0  0  0  0  0  0  0  0  0  0  0  0
    3.5569   -1.2297   -0.7424 H   0  0  0  0  0  0  0  0  0  0  0  0
    3.8221   -2.5059    0.4505 H   0  0  0  0  0  0  0  0  0  0  0  0
    5.7938   -2.5035    1.6167 H   0  0  0  0  0  0  0  0  0  0  0  0
    6.9008   -2.9533    0.2927 H   0  0  0  0  0  0  0  0  0  0  0  0
    7.0805   -0.6024    2.2227 H   0  0  0  0  0  0  0  0  0  0  0  0
    8.2567   -1.8246    1.7014 H   0  0  0  0  0  0  0  0  0  0  0  0
    7.8415    0.8417    0.6479 H   0  0  0  0  0  0  0  0  0  0  0  0
    9.1356   -0.3145    0.2576 H   0  0  0  0  0  0  0  0  0  0  0  0
    7.8732    0.3096   -1.7371 H   0  0  0  0  0  0  0  0  0  0  0  0
    7.7616   -1.4678   -1.3662 H   0  0  0  0  0  0  0  0  0  0  0  0
    5.6105    0.5875   -0.5907 H   0  0  0  0  0  0  0  0  0  0  0  0
    5.5713   -0.5010   -1.9880 H   0  0  0  0  0  0  0  0  0  0  0  0
    2.1347    0.5515   -0.8618 H   0  0  0  0  0  0  0  0  0  0  0  0
   -0.0546    1.1225   -1.7923 H   0  0  0  0  0  0  0  0  0  0  0  0
  1  2  1  0
  2  3  2  0
  3  4  1  0
  4  5  2  0
  5  6  1  0
  6  7  2  0
  5  8  1  0
  8  9  1  0
  9 10  1  0
 10 11  2  0
 11 12  1  0
 12 13  1  0
 12 14  2  0
 14 15  1  0
 15 16  2  0
 16 17  1  0
 17 18  1  0
 18 19  1  0
 19 20  2  0
 20 21  1  0
 21 22  2  0
 22 23  1  0
 23 24  1  0
 24 25  1  0
 25 26  1  0
 26 27  1  0
 27 28  1  0
 28 29  1  0
 29 30  1  0
 30 31  1  0
 22 32  1  0
 32 33  2  0
  7  2  1  0
 18  8  1  0
 33 19  1  0
 16 10  1  0
 31 26  1  0
  1 34  1  0
  3 35  1  0
  4 36  1  0
  6 37  1  0
  7 38  1  0
  8 39  1  6
 11 40  1  0
 13 41  1  0
 14 42  1  0
 15 43  1  0
 18 44  1  6
 20 45  1  0
 21 46  1  0
 24 47  1  0
 24 48  1  0
 25 49  1  0
 25 50  1  0
 27 51  1  0
 27 52  1  0
 28 53  1  0
 28 54  1  0
 29 55  1  0
 29 56  1  0
 30 57  1  0
 30 58  1  0
 31 59  1  0
 31 60  1  0
 32 61  1  0
 33 62  1  0
M  END
$$$$
[H]Oc1c([H])c([H])c([H])c(C2=C(C([H])([H])[H])c3c([H])c(O[H])c([H])c([H])c3O[C@@]2([H])c2c([H])c([H])c(OC([H])([H])C([H])([H])N3C([H])([H])C([H])(C([H])([H])F)C3([H])[H])c([H])c2[H])c1[H]
     RDKit          3D

 62 66  0  0  0  0  0  0  0  0999 V2000
   -4.9380   -0.9038    0.4638 C   0  0  0  0  0  0  0  0  0  0  0  0
   -3.6672   -0.2616    0.9406 C   0  0  0  0  0  0  0  0  0  0  0  0
   -2.9121    0.4009    0.0501 C   0  0  0  0  0  0  0  0  0  0  0  0
   -1.6634    1.0324    0.4657 C   0  0  1  0  0  0  0  0  0  0  0  0
   -1.4948    1.0181    1.8654 O   0  0  0  0  0  0  0  0  0  0  0  0
   -2.2424    0.3350    2.7866 C   0  0  0  0  0  0  0  0  0  0  0  0
   -1.8887    0.3039    4.1325 C   0  0  0  0  0  0  0  0  0  0  0  0
   -2.6514   -0.3863    5.0333 C   0  0  0  0  0  0  0  0  0  0  0  0
   -3.7815   -1.0628    4.6304 C   0  0  0  0  0  0  0  0  0  0  0  0
   -4.5639   -1.7716    5.5530 O   0  0  0  0  0  0  0  0  0  0  0  0
   -4.1089   -1.0155    3.2924 C   0  0  0  0  0  0  0  0  0  0  0  0
   -3.3772   -0.3393    2.3556 C   0  0  0  0  0  0  0  0  0  0  0  0
   -0.4286    0.4384   -0.1213 C   0  0  0  0  0  0  0  0  0  0  0  0
    0.3181    1.0740   -1.0545 C   0  0  0  0  0  0  0  0  0  0  0  0
    1.4824    0.4669   -1.5400 C   0  0  0  0  0  0  0  0  0  0  0  0
    1.9237   -0.7655   -1.1141 C   0  0  0  0  0  0  0  0  0  0  0  0
    3.0413   -1.4206   -1.5271 O   0  0  0  0  0  0  0  0  0  0  0  0
    4.0361   -1.1187   -2.4080 C   0  0  0  0  0  0  0  0  0  0  0  0
    4.9194    0.0412   -2.1418 C   0  0  0  0  0  0  0  0  0  0  0  0
    5.6989    0.0718   -0.9848 N   0  0  0  0  0  0  0  0  0  0  0  0
    5.1392    0.2172    0.3244 C   0  0  0  0  0  0  0  0  0  0  0  0
    6.5002   -0.3240    0.8354 C   0  0  0  0  0  0  0  0  0  0  0  0
    7.5273    0.7666    0.8332 C   0  0  0  0  0  0  0  0  0  0  0  0
    7.0808    1.7906    1.6733 F   0  0  0  0  0  0  0  0  0  0  0  0
    6.3908   -1.0826   -0.5075 C   0  0  0  0  0  0  0  0  0  0  0  0
    1.1147   -1.3906   -0.1438 C   0  0  0  0  0  0  0  0  0  0  0  0
   -0.0283   -0.7966    0.3331 C   0  0  0  0  0  0  0  0  0  0  0  0
   -3.4409    0.5351   -1.3225 C   0  0  0  0  0  0  0  0  0  0  0  0
   -2.8161    0.0672   -2.4414 C   0  0  0  0  0  0  0  0  0  0  0  0
   -3.3454    0.2711   -3.7152 C   0  0  0  0  0  0  0  0  0  0  0  0
   -4.5209    0.9541   -3.8716 C   0  0  0  0  0  0  0  0  0  0  0  0
   -5.1751    1.4367   -2.7675 C   0  0  0  0  0  0  0  0  0  0  0  0
   -6.3694    2.1264   -2.9667 O   0  0  0  0  0  0  0  0  0  0  0  0
   -4.6423    1.2290   -1.5196 C   0  0  0  0  0  0  0  0  0  0  0  0
   -4.8798   -1.2168   -0.6033 H   0  0  0  0  0  0  0  0  0  0  0  0
   -5.0006   -1.8840    1.0265 H   0  0  0  0  0  0  0  0  0  0  0  0
   -5.8229   -0.3287    0.7336 H   0  0  0  0  0  0  0  0  0  0  0  0
   -1.6213    2.1231    0.1792 H   0  0  0  0  0  0  0  0  0  0  0  0
   -0.9990    0.8391    4.4426 H   0  0  0  0  0  0  0  0  0  0  0  0
   -2.4136   -0.4383    6.0969 H   0  0  0  0  0  0  0  0  0  0  0  0
   -5.3454   -1.3444    6.0576 H   0  0  0  0  0  0  0  0  0  0  0  0
   -4.9945   -1.5391    2.9771 H   0  0  0  0  0  0  0  0  0  0  0  0
    0.0630    2.0450   -1.4594 H   0  0  0  0  0  0  0  0  0  0  0  0
    2.0535    0.9820   -2.2947 H   0  0  0  0  0  0  0  0  0  0  0  0
    3.5136   -0.8672   -3.4019 H   0  0  0  0  0  0  0  0  0  0  0  0
    4.6219   -2.0378   -2.7084 H   0  0  0  0  0  0  0  0  0  0  0  0
    4.3155    0.9868   -2.1846 H   0  0  0  0  0  0  0  0  0  0  0  0
    5.6374    0.1988   -3.0276 H   0  0  0  0  0  0  0  0  0  0  0  0
    4.9619    1.2629    0.6500 H   0  0  0  0  0  0  0  0  0  0  0  0
    4.3877   -0.5092    0.6680 H   0  0  0  0  0  0  0  0  0  0  0  0
    6.4387   -0.9430    1.7254 H   0  0  0  0  0  0  0  0  0  0  0  0
    8.4913    0.4416    1.2592 H   0  0  0  0  0  0  0  0  0  0  0  0
    7.6358    1.2282   -0.1734 H   0  0  0  0  0  0  0  0  0  0  0  0
    7.3545   -1.3050   -0.9691 H   0  0  0  0  0  0  0  0  0  0  0  0
    5.7387   -1.9784   -0.2790 H   0  0  0  0  0  0  0  0  0  0  0  0
    1.4231   -2.3501    0.2108 H   0  0  0  0  0  0  0  0  0  0  0  0
   -0.5861   -1.3561    1.0789 H   0  0  0  0  0  0  0  0  0  0  0  0
   -1.9009   -0.4954   -2.3494 H   0  0  0  0  0  0  0  0  0  0  0  0
   -2.8240   -0.1119   -4.5782 H   0  0  0  0  0  0  0  0  0  0  0  0
   -4.9658    1.1320   -4.8636 H   0  0  0  0  0  0  0  0  0  0  0  0
   -7.2194    1.5785   -2.9644 H   0  0  0  0  0  0  0  0  0  0  0  0
   -5.1793    1.6183   -0.6696 H   0  0  0  0  0  0  0  0  0  0  0  0
  1  2  1  0
  2  3  2  0
  3  4  1  0
  4  5  1  0
  5  6  1  0
  6  7  2  0
  7  8  1  0
  8  9  2  0
  9 10  1  0
  9 11  1  0
 11 12  2  0
  4 13  1  0
 13 14  2  0
 14 15  1  0
 15 16  2  0
 16 17  1  0
 17 18  1  0
 18 19  1  0
 19 20  1  0
 20 21  1  0
 21 22  1  0
 22 23  1  0
 23 24  1  0
 22 25  1  0
 16 26  1  0
 26 27  2  0
  3 28  1  0
 28 29  2  0
 29 30  1  0
 30 31  2  0
 31 32  1  0
 32 33  1  0
 32 34  2  0
 12  2  1  0
 27 13  1  0
 34 28  1  0
 12  6  1  0
 25 20  1  0
  1 35  1  0
  1 36  1  0
  1 37  1  0
  4 38  1  6
  7 39  1  0
  8 40  1  0
 10 41  1  0
 11 42  1  0
 14 43  1  0
 15 44  1  0
 18 45  1  0
 18 46  1  0
 19 47  1  0
 19 48  1  0
 21 49  1  0
 21 50  1  0
 22 51  1  0
 23 52  1  0
 23 53  1  0
 25 54  1  0
 25 55  1  0
 26 56  1  0
 27 57  1  0
 29 58  1  0
 30 59  1  0
 31 60  1  0
 33 61  1  0
 34 62  1  0
M  END
$$$$
[H]C#Cc1c([H])c([H])c(C(=O)c2sc3c([H])c(O[H])c([H])c([H])c3c2-c2c([H])c([H])c(F)c([H])c2[H])c([H])c1[H]
     RDKit          3D

 40 43  0  0  0  0  0  0  0  0999 V2000
   -4.1783    4.7782   -0.5417 O   0  0  0  0  0  0  0  0  0  0  0  0
   -3.5158    3.5812   -0.3672 C   0  0  0  0  0  0  0  0  0  0  0  0
   -4.0721    2.3550   -0.6453 C   0  0  0  0  0  0  0  0  0  0  0  0
   -3.4124    1.1684   -0.4711 C   0  0  0  0  0  0  0  0  0  0  0  0
   -2.0865    1.1512    0.0190 C   0  0  0  0  0  0  0  0  0  0  0  0
   -1.3172    0.0568    0.2415 C   0  0  0  0  0  0  0  0  0  0  0  0
   -0.0532    0.2696    0.7243 C   0  0  0  0  0  0  0  0  0  0  0  0
    0.0284    1.9662    0.8535 S   0  0  0  0  0  0  0  0  0  0  0  0
   -1.5342    2.3660    0.2953 C   0  0  0  0  0  0  0  0  0  0  0  0
   -2.2362    3.5731    0.1062 C   0  0  0  0  0  0  0  0  0  0  0  0
    0.9571   -0.7523    1.0670 C   0  0  0  0  0  0  0  0  0  0  0  0
    0.6515   -1.8840    1.5099 O   0  0  0  0  0  0  0  0  0  0  0  0
    2.3501   -0.4226    0.8788 C   0  0  0  0  0  0  0  0  0  0  0  0
    2.7361    0.5536   -0.0093 C   0  0  0  0  0  0  0  0  0  0  0  0
    4.0988    0.8311   -0.1479 C   0  0  0  0  0  0  0  0  0  0  0  0
    5.0486    0.1426    0.5888 C   0  0  0  0  0  0  0  0  0  0  0  0
    4.6012   -0.8205    1.4585 C   0  0  0  0  0  0  0  0  0  0  0  0
    3.2795   -1.1181    1.6206 C   0  0  0  0  0  0  0  0  0  0  0  0
    6.4596    0.4150    0.4536 C   0  0  0  0  0  0  0  0  0  0  0  0
    7.6393    0.6254    0.3227 C   0  0  0  0  0  0  0  0  0  0  0  0
   -1.7560   -1.3504   -0.0218 C   0  0  0  0  0  0  0  0  0  0  0  0
   -1.5441   -1.9010   -1.2716 C   0  0  0  0  0  0  0  0  0  0  0  0
   -1.9282   -3.1916   -1.5725 C   0  0  0  0  0  0  0  0  0  0  0  0
   -2.5408   -3.9679   -0.6116 C   0  0  0  0  0  0  0  0  0  0  0  0
   -2.9348   -5.2500   -0.8835 F   0  0  0  0  0  0  0  0  0  0  0  0
   -2.7505   -3.4097    0.6397 C   0  0  0  0  0  0  0  0  0  0  0  0
   -2.3633   -2.1203    0.9266 C   0  0  0  0  0  0  0  0  0  0  0  0
   -3.7756    5.6778   -0.3424 H   0  0  0  0  0  0  0  0  0  0  0  0
   -5.1054    2.3611   -1.0296 H   0  0  0  0  0  0  0  0  0  0  0  0
   -3.9534    0.2809   -0.7265 H   0  0  0  0  0  0  0  0  0  0  0  0
   -1.6733    4.4588    0.3607 H   0  0  0  0  0  0  0  0  0  0  0  0
    2.0712    1.1300   -0.6269 H   0  0  0  0  0  0  0  0  0  0  0  0
    4.4131    1.5869   -0.8372 H   0  0  0  0  0  0  0  0  0  0  0  0
    5.3633   -1.3525    2.0254 H   0  0  0  0  0  0  0  0  0  0  0  0
    2.9532   -1.8949    2.3272 H   0  0  0  0  0  0  0  0  0  0  0  0
    8.6885    0.7972    0.1944 H   0  0  0  0  0  0  0  0  0  0  0  0
   -1.0645   -1.2984   -2.0353 H   0  0  0  0  0  0  0  0  0  0  0  0
   -1.7638   -3.6384   -2.5538 H   0  0  0  0  0  0  0  0  0  0  0  0
   -3.2360   -4.0461    1.3834 H   0  0  0  0  0  0  0  0  0  0  0  0
   -2.5441   -1.7072    1.9205 H   0  0  0  0  0  0  0  0  0  0  0  0
  1  2  1  0
  2  3  2  0
  3  4  1  0
  4  5  2  0
  5  6  1  0
  6  7  2  0
  7  8  1  0
  8  9  1  0
  9 10  2  0
  7 11  1  0
 11 12  2  0
 11 13  1  0
 13 14  2  0
 14 15  1  0
 15 16  2  0
 16 17  1  0
 17 18  2  0
 16 19  1  0
 19 20  3  0
  6 21  1  0
 21 22  2  0
 22 23  1  0
 23 24  2  0
 24 25  1  0
 24 26  1  0
 26 27  2  0
 10  2  1  0
 18 13  1  0
 27 21  1  0
  9  5  1  0
  1 28  1  0
  3 29  1  0
  4 30  1  0
 10 31  1  0
 14 32  1  0
 15 33  1  0
 17 34  1  0
 18 35  1  0
 20 36  1  0
 22 37  1  0
 23 38  1  0
 26 39  1  0
 27 40  1  0
M  END
$$$$
[H]Oc1c([H])c([H])c(C2=C(c3c([H])c([H])c([H])c([H])c3[H])c3c([H])c(O[H])c([H])c(O[H])c3C2=O)c([H])c1[H]
     RDKit          3D

 39 42  0  0  0  0  0  0  0  0999 V2000
    5.7374   -2.1170    0.4495 O   0  0  0  0  0  0  0  0  0  0  0  0
    4.5194   -1.4596    0.2949 C   0  0  0  0  0  0  0  0  0  0  0  0
    3.7527   -1.6355   -0.8343 C   0  0  0  0  0  0  0  0  0  0  0  0
    2.5282   -0.9679   -0.9778 C   0  0  0  0  0  0  0  0  0  0  0  0
    2.0169   -0.1228   -0.0437 C   0  0  0  0  0  0  0  0  0  0  0  0
    2.8209    0.0436    1.1071 C   0  0  0  0  0  0  0  0  0  0  0  0
    4.0203   -0.6063    1.2534 C   0  0  0  0  0  0  0  0  0  0  0  0
    0.7522    0.5873   -0.0656 C   0  0  0  0  0  0  0  0  0  0  0  0
   -0.4591    0.1513   -0.1199 C   0  0  0  0  0  0  0  0  0  0  0  0
   -1.4163    1.2980   -0.1181 C   0  0  0  0  0  0  0  0  0  0  0  0
   -2.7820    1.3875   -0.1620 C   0  0  0  0  0  0  0  0  0  0  0  0
   -3.4255    2.6215   -0.1469 C   0  0  0  0  0  0  0  0  0  0  0  0
   -4.8189    2.7038   -0.1920 O   0  0  0  0  0  0  0  0  0  0  0  0
   -2.6641    3.7654   -0.0866 C   0  0  0  0  0  0  0  0  0  0  0  0
   -1.2881    3.7116   -0.0413 C   0  0  0  0  0  0  0  0  0  0  0  0
   -0.5020    4.8267    0.0190 O   0  0  0  0  0  0  0  0  0  0  0  0
   -0.6902    2.4666   -0.0583 C   0  0  0  0  0  0  0  0  0  0  0  0
    0.7095    2.0884   -0.0220 C   0  0  0  0  0  0  0  0  0  0  0  0
    1.7512    2.8017    0.0350 O   0  0  0  0  0  0  0  0  0  0  0  0
   -0.9905   -1.1953   -0.1797 C   0  0  0  0  0  0  0  0  0  0  0  0
   -1.8364   -1.6271    0.8671 C   0  0  0  0  0  0  0  0  0  0  0  0
   -2.4369   -2.8374    0.9084 C   0  0  0  0  0  0  0  0  0  0  0  0
   -2.2480   -3.7444   -0.1044 C   0  0  0  0  0  0  0  0  0  0  0  0
   -1.4333   -3.3714   -1.1470 C   0  0  0  0  0  0  0  0  0  0  0  0
   -0.8167   -2.1108   -1.1770 C   0  0  0  0  0  0  0  0  0  0  0  0
    6.6201   -1.7203    0.1355 H   0  0  0  0  0  0  0  0  0  0  0  0
    4.1084   -2.2975   -1.6115 H   0  0  0  0  0  0  0  0  0  0  0  0
    1.9689   -1.1063   -1.8907 H   0  0  0  0  0  0  0  0  0  0  0  0
    2.4337    0.7210    1.8772 H   0  0  0  0  0  0  0  0  0  0  0  0
    4.6302   -0.4702    2.1436 H   0  0  0  0  0  0  0  0  0  0  0  0
   -3.3633    0.4810   -0.2091 H   0  0  0  0  0  0  0  0  0  0  0  0
   -5.2885    2.7021    0.7141 H   0  0  0  0  0  0  0  0  0  0  0  0
   -3.1259    4.7498   -0.0729 H   0  0  0  0  0  0  0  0  0  0  0  0
    0.4775    4.8641    0.0535 H   0  0  0  0  0  0  0  0  0  0  0  0
   -1.9753   -0.8954    1.6625 H   0  0  0  0  0  0  0  0  0  0  0  0
   -3.0705   -3.0722    1.7612 H   0  0  0  0  0  0  0  0  0  0  0  0
   -2.7414   -4.6928   -0.0336 H   0  0  0  0  0  0  0  0  0  0  0  0
   -1.2640   -4.0684   -1.9647 H   0  0  0  0  0  0  0  0  0  0  0  0
   -0.2109   -1.8526   -2.0228 H   0  0  0  0  0  0  0  0  0  0  0  0
  1  2  1  0
  2  3  2  0
  3  4  1  0
  4  5  2  0
  5  6  1  0
  6  7  2  0
  5  8  1  0
  8  9  2  0
  9 10  1  0
 10 11  2  0
 11 12  1  0
 12 13  1  0
 12 14  2  0
 14 15  1  0
 15 16  1  0
 15 17  2  0
 17 18  1  0
 18 19  2  0
  9 20  1  0
 20 21  2  0
 21 22  1  0
 22 23  2  0
 23 24  1  0
 24 25  2  0
  7  2  1  0
 18  8  1  0
 25 20  1  0
 17 10  1  0
  1 26  1  0
  3 27  1  0
  4 28  1  0
  6 29  1  0
  7 30  1  0
 11 31  1  0
 13 32  1  0
 14 33  1  0
 16 34  1  0
 21 35  1  0
 22 36  1  0
 23 37  1  0
 24 38  1  0
 25 39  1  0
M  END
$$$$
[H]Oc1c([H])c([H])c(-c2nn(C([H])([H])C([H])([H])C([H])([H])[H])c3c(Cl)c([H])c([H])c([H])c23)c([H])c1[H]
     RDKit          3D

 35 37  0  0  0  0  0  0  0  0999 V2000
   -4.8652    0.9583   -1.3273 C   0  0  0  0  0  0  0  0  0  0  0  0
   -3.5053    0.3643   -1.0468 C   0  0  0  0  0  0  0  0  0  0  0  0
   -2.7639    1.1416    0.0199 C   0  0  0  0  0  0  0  0  0  0  0  0
   -1.4752    0.5499    0.2757 N   0  0  0  0  0  0  0  0  0  0  0  0
   -0.3714    0.8623   -0.3999 N   0  0  0  0  0  0  0  0  0  0  0  0
    0.6762    0.1674    0.0223 C   0  0  0  0  0  0  0  0  0  0  0  0
    2.0351    0.2884   -0.5212 C   0  0  0  0  0  0  0  0  0  0  0  0
    2.6035    1.5255   -0.7394 C   0  0  0  0  0  0  0  0  0  0  0  0
    3.8698    1.6496   -1.2514 C   0  0  0  0  0  0  0  0  0  0  0  0
    4.5870    0.5008   -1.5534 C   0  0  0  0  0  0  0  0  0  0  0  0
    5.8737    0.6295   -2.0735 O   0  0  0  0  0  0  0  0  0  0  0  0
    4.0355   -0.7397   -1.3423 C   0  0  0  0  0  0  0  0  0  0  0  0
    2.7620   -0.8284   -0.8271 C   0  0  0  0  0  0  0  0  0  0  0  0
    0.2606   -0.6474    1.0252 C   0  0  0  0  0  0  0  0  0  0  0  0
    0.9074   -1.5818    1.8330 C   0  0  0  0  0  0  0  0  0  0  0  0
    0.1595   -2.2391    2.7736 C   0  0  0  0  0  0  0  0  0  0  0  0
   -1.1817   -2.0088    2.9406 C   0  0  0  0  0  0  0  0  0  0  0  0
   -1.8157   -1.0698    2.1242 C   0  0  0  0  0  0  0  0  0  0  0  0
   -3.5218   -0.7475    2.3158 Cl  0  0  0  0  0  0  0  0  0  0  0  0
   -1.1084   -0.3905    1.1719 C   0  0  0  0  0  0  0  0  0  0  0  0
   -5.3188    0.3452   -2.1401 H   0  0  0  0  0  0  0  0  0  0  0  0
   -5.4548    0.8607   -0.3777 H   0  0  0  0  0  0  0  0  0  0  0  0
   -4.7427    2.0040   -1.6220 H   0  0  0  0  0  0  0  0  0  0  0  0
   -3.5083   -0.6947   -0.8054 H   0  0  0  0  0  0  0  0  0  0  0  0
   -2.9450    0.4912   -2.0257 H   0  0  0  0  0  0  0  0  0  0  0  0
   -3.3488    1.4385    0.8800 H   0  0  0  0  0  0  0  0  0  0  0  0
   -2.5498    2.1392   -0.4934 H   0  0  0  0  0  0  0  0  0  0  0  0
    2.0180    2.4224   -0.4932 H   0  0  0  0  0  0  0  0  0  0  0  0
    4.2865    2.6421   -1.4104 H   0  0  0  0  0  0  0  0  0  0  0  0
    6.6914    0.6710   -1.4750 H   0  0  0  0  0  0  0  0  0  0  0  0
    4.5847   -1.6489   -1.5738 H   0  0  0  0  0  0  0  0  0  0  0  0
    2.3129   -1.8239   -0.6591 H   0  0  0  0  0  0  0  0  0  0  0  0
    1.9699   -1.7553    1.6950 H   0  0  0  0  0  0  0  0  0  0  0  0
    0.6300   -2.9603    3.4057 H   0  0  0  0  0  0  0  0  0  0  0  0
   -1.7868   -2.5161    3.6752 H   0  0  0  0  0  0  0  0  0  0  0  0
  1  2  1  0
  2  3  1  0
  3  4  1  0
  4  5  1  0
  5  6  2  0
  6  7  1  0
  7  8  2  0
  8  9  1  0
  9 10  2  0
 10 11  1  0
 10 12  1  0
 12 13  2  0
  6 14  1  0
 14 15  2  0
 15 16  1  0
 16 17  2  0
 17 18  1  0
 18 19  1  0
 18 20  2  0
 20  4  1  0
 13  7  1  0
 20 14  1  0
  1 21  1  0
  1 22  1  0
  1 23  1  0
  2 24  1  0
  2 25  1  0
  3 26  1  0
  3 27  1  0
  8 28  1  0
  9 29  1  0
 11 30  1  0
 12 31  1  0
 13 32  1  0
 15 33  1  0
 16 34  1  0
 17 35  1  0
M  END
$$$$
[H]Oc1c([H])c([H])c(-c2sc3c([H])c(O[H])c([H])c([H])c3c2Oc2c([H])c([H])c(/C([H])=C(\[H])c3nnn(C([H])([H])[H])n3)c([H])c2[H])c([H])c1[H]
     RDKit          3D

 50 54  0  0  0  0  0  0  0  0999 V2000
    8.5053    1.3465   -1.6276 C   0  0  0  0  0  0  0  0  0  0  0  0
    7.6236    1.0327   -0.5001 N   0  0  0  0  0  0  0  0  0  0  0  0
    8.0150    0.9442    0.7593 N   0  0  0  0  0  0  0  0  0  0  0  0
    6.9526    0.6454    1.5049 N   0  0  0  0  0  0  0  0  0  0  0  0
    5.9020    0.5502    0.6943 C   0  0  0  0  0  0  0  0  0  0  0  0
    4.5079    0.2422    1.0223 C   0  0  0  0  0  0  0  0  0  0  0  0
    3.5721    0.1833    0.1001 C   0  0  0  0  0  0  0  0  0  0  0  0
    2.1879   -0.1222    0.4241 C   0  0  0  0  0  0  0  0  0  0  0  0
    1.2981   -0.1510   -0.6628 C   0  0  0  0  0  0  0  0  0  0  0  0
   -0.0172   -0.4385   -0.3771 C   0  0  0  0  0  0  0  0  0  0  0  0
   -0.4586   -0.6869    0.8928 C   0  0  0  0  0  0  0  0  0  0  0  0
   -1.7906   -0.9737    1.1485 O   0  0  0  0  0  0  0  0  0  0  0  0
   -2.7423   -1.0190    0.0978 C   0  0  0  0  0  0  0  0  0  0  0  0
   -3.5167    0.0621   -0.1339 C   0  0  0  0  0  0  0  0  0  0  0  0
   -4.4757   -0.4618   -1.4811 S   0  0  0  0  0  0  0  0  0  0  0  0
   -3.8419   -2.0265   -1.6733 C   0  0  0  0  0  0  0  0  0  0  0  0
   -4.1320   -3.0475   -2.5674 C   0  0  0  0  0  0  0  0  0  0  0  0
   -3.4367   -4.2506   -2.4873 C   0  0  0  0  0  0  0  0  0  0  0  0
   -3.6604   -5.3127   -3.3321 O   0  0  0  0  0  0  0  0  0  0  0  0
   -2.4978   -4.3325   -1.5074 C   0  0  0  0  0  0  0  0  0  0  0  0
   -2.2197   -3.3336   -0.6390 C   0  0  0  0  0  0  0  0  0  0  0  0
   -2.8963   -2.1032   -0.6831 C   0  0  0  0  0  0  0  0  0  0  0  0
   -3.6557    1.3910    0.4598 C   0  0  0  0  0  0  0  0  0  0  0  0
   -4.4487    2.3448   -0.1783 C   0  0  0  0  0  0  0  0  0  0  0  0
   -4.6554    3.5893    0.3215 C   0  0  0  0  0  0  0  0  0  0  0  0
   -4.0775    3.9587    1.4986 C   0  0  0  0  0  0  0  0  0  0  0  0
   -4.2829    5.2431    2.0263 O   0  0  0  0  0  0  0  0  0  0  0  0
   -3.2937    3.0552    2.1565 C   0  0  0  0  0  0  0  0  0  0  0  0
   -3.0792    1.7750    1.6463 C   0  0  0  0  0  0  0  0  0  0  0  0
    0.4232   -0.6521    1.9215 C   0  0  0  0  0  0  0  0  0  0  0  0
    1.7449   -0.3720    1.7017 C   0  0  0  0  0  0  0  0  0  0  0  0
    6.3391    0.7937   -0.5443 N   0  0  0  0  0  0  0  0  0  0  0  0
    8.8209    0.4240   -2.1314 H   0  0  0  0  0  0  0  0  0  0  0  0
    7.9592    1.9880   -2.3767 H   0  0  0  0  0  0  0  0  0  0  0  0
    9.3564    1.9381   -1.2310 H   0  0  0  0  0  0  0  0  0  0  0  0
    4.2988    0.0680    2.0603 H   0  0  0  0  0  0  0  0  0  0  0  0
    3.8656    0.3710   -0.9177 H   0  0  0  0  0  0  0  0  0  0  0  0
    1.6415    0.0456   -1.6763 H   0  0  0  0  0  0  0  0  0  0  0  0
   -0.7078   -0.4579   -1.2434 H   0  0  0  0  0  0  0  0  0  0  0  0
   -4.8742   -2.9463   -3.3214 H   0  0  0  0  0  0  0  0  0  0  0  0
   -4.3353   -6.0379   -3.1319 H   0  0  0  0  0  0  0  0  0  0  0  0
   -1.9449   -5.2756   -1.4361 H   0  0  0  0  0  0  0  0  0  0  0  0
   -1.4322   -3.5373    0.1068 H   0  0  0  0  0  0  0  0  0  0  0  0
   -4.9161    2.0560   -1.1266 H   0  0  0  0  0  0  0  0  0  0  0  0
   -5.2801    4.3175   -0.1968 H   0  0  0  0  0  0  0  0  0  0  0  0
   -3.5906    5.9389    1.7155 H   0  0  0  0  0  0  0  0  0  0  0  0
   -2.8225    3.3422    3.1068 H   0  0  0  0  0  0  0  0  0  0  0  0
   -2.4687    1.0849    2.2108 H   0  0  0  0  0  0  0  0  0  0  0  0
    0.1049   -0.8441    2.9359 H   0  0  0  0  0  0  0  0  0  0  0  0
    2.4325   -0.3490    2.5356 H   0  0  0  0  0  0  0  0  0  0  0  0
  1  2  1  0
  2  3  1  0
  3  4  2  0
  4  5  1  0
  5  6  1  0
  6  7  2  0
  7  8  1  0
  8  9  2  0
  9 10  1  0
 10 11  2  0
 11 12  1  0
 12 13  1  0
 13 14  2  0
 14 15  1  0
 15 16  1  0
 16 17  2  0
 17 18  1  0
 18 19  1  0
 18 20  2  0
 20 21  1  0
 21 22  2  0
 14 23  1  0
 23 24  2  0
 24 25  1  0
 25 26  2  0
 26 27  1  0
 26 28  1  0
 28 29  2  0
 11 30  1  0
 30 31  2  0
  5 32  2  0
 32  2  1  0
 31  8  1  0
 22 13  1  0
 29 23  1  0
 22 16  1  0
  1 33  1  0
  1 34  1  0
  1 35  1  0
  6 36  1  0
  7 37  1  0
  9 38  1  0
 10 39  1  0
 17 40  1  0
 19 41  1  0
 20 42  1  0
 21 43  1  0
 24 44  1  0
 25 45  1  0
 27 46  1  0
 28 47  1  0
 29 48  1  0
 30 49  1  0
 31 50  1  0
M  END
$$$$
[H]c1nc([C@]2([H])c3c([H])c([H])c4c(c([H])nn4[H])c3C([H])([H])C(C([H])([H])[H])(C([H])([H])[H])N2C([H])([H])C(F)(F)F)c([H])c([H])c1N([H])C1([H])C([H])([H])N(C([H])([H])C([H])([H])C([H])([H])F)C1([H])[H]
     RDKit          3D

 65 69  0  0  0  0  0  0  0  0999 V2000
   -3.8736    1.1055    2.5187 C   0  0  0  0  0  0  0  0  0  0  0  0
   -4.0817    0.6213    1.0727 C   0  0  0  0  0  0  0  0  0  0  0  0
   -5.5093    0.8857    0.7248 C   0  0  0  0  0  0  0  0  0  0  0  0
   -3.9994   -0.9150    1.2345 C   0  0  0  0  0  0  0  0  0  0  0  0
   -3.6646   -1.5394   -0.0444 C   0  0  0  0  0  0  0  0  0  0  0  0
   -2.5549   -0.9698   -0.7019 C   0  0  0  0  0  0  0  0  0  0  0  0
   -2.0643   -1.4205   -1.8835 C   0  0  0  0  0  0  0  0  0  0  0  0
   -2.7270   -2.5089   -2.4436 C   0  0  0  0  0  0  0  0  0  0  0  0
   -3.8258   -3.1015   -1.8319 C   0  0  0  0  0  0  0  0  0  0  0  0
   -4.6412   -4.1254   -2.1223 N   0  0  0  0  0  0  0  0  0  0  0  0
   -5.5651   -4.2675   -1.1576 N   0  0  0  0  0  0  0  0  0  0  0  0
   -5.3805   -3.3377   -0.2035 C   0  0  0  0  0  0  0  0  0  0  0  0
   -4.2937   -2.6113   -0.6269 C   0  0  0  0  0  0  0  0  0  0  0  0
   -2.0398    0.1978    0.0678 C   0  0  2  0  0  0  0  0  0  0  0  0
   -3.0911    1.1146    0.1734 N   0  0  0  0  0  0  0  0  0  0  0  0
   -3.3474    2.1038   -0.7448 C   0  0  0  0  0  0  0  0  0  0  0  0
   -3.5183    3.5285   -0.3547 C   0  0  0  0  0  0  0  0  0  0  0  0
   -3.7653    4.3298   -1.5014 F   0  0  0  0  0  0  0  0  0  0  0  0
   -2.3902    4.0706    0.2337 F   0  0  0  0  0  0  0  0  0  0  0  0
   -4.5771    3.8382    0.4472 F   0  0  0  0  0  0  0  0  0  0  0  0
   -0.7108    0.5301   -0.3632 C   0  0  0  0  0  0  0  0  0  0  0  0
    0.3175   -0.1690    0.2390 C   0  0  0  0  0  0  0  0  0  0  0  0
    1.6580    0.0544   -0.0684 C   0  0  0  0  0  0  0  0  0  0  0  0
    2.0182    0.9889   -0.9924 C   0  0  0  0  0  0  0  0  0  0  0  0
    3.3282    1.3196   -1.4005 N   0  0  0  0  0  0  0  0  0  0  0  0
    4.5861    0.8138   -0.9980 C   0  0  0  0  0  0  0  0  0  0  0  0
    4.8209   -0.6509   -1.1208 C   0  0  0  0  0  0  0  0  0  0  0  0
    5.5817   -0.6294    0.1231 N   0  0  0  0  0  0  0  0  0  0  0  0
    6.9665   -0.3646   -0.1844 C   0  0  0  0  0  0  0  0  0  0  0  0
    7.9305   -0.6510    0.8870 C   0  0  0  0  0  0  0  0  0  0  0  0
    7.7087    0.0308    2.1903 C   0  0  0  0  0  0  0  0  0  0  0  0
    6.5231   -0.3482    2.7866 F   0  0  0  0  0  0  0  0  0  0  0  0
    4.9414    0.6722    0.4214 C   0  0  0  0  0  0  0  0  0  0  0  0
    0.9177    1.6668   -1.5706 C   0  0  0  0  0  0  0  0  0  0  0  0
   -0.3341    1.4268   -1.2530 N   0  0  0  0  0  0  0  0  0  0  0  0
   -4.5854    0.4593    3.1199 H   0  0  0  0  0  0  0  0  0  0  0  0
   -2.8509    0.8244    2.8460 H   0  0  0  0  0  0  0  0  0  0  0  0
   -4.1814    2.1201    2.6974 H   0  0  0  0  0  0  0  0  0  0  0  0
   -6.0927   -0.0690    0.9766 H   0  0  0  0  0  0  0  0  0  0  0  0
   -5.7264    1.0015   -0.3560 H   0  0  0  0  0  0  0  0  0  0  0  0
   -6.0314    1.6237    1.3745 H   0  0  0  0  0  0  0  0  0  0  0  0
   -3.3553   -1.2038    2.0877 H   0  0  0  0  0  0  0  0  0  0  0  0
   -5.0255   -1.2493    1.5468 H   0  0  0  0  0  0  0  0  0  0  0  0
   -1.2055   -0.9388   -2.3378 H   0  0  0  0  0  0  0  0  0  0  0  0
   -2.3939   -2.9183   -3.3736 H   0  0  0  0  0  0  0  0  0  0  0  0
   -4.5389   -4.7016   -2.9794 H   0  0  0  0  0  0  0  0  0  0  0  0
   -5.9268   -3.1494    0.7158 H   0  0  0  0  0  0  0  0  0  0  0  0
   -1.9150   -0.2148    1.1403 H   0  0  0  0  0  0  0  0  0  0  0  0
   -4.2972    1.8885   -1.3836 H   0  0  0  0  0  0  0  0  0  0  0  0
   -2.5845    2.1082   -1.5784 H   0  0  0  0  0  0  0  0  0  0  0  0
    0.1233   -0.9439    0.9996 H   0  0  0  0  0  0  0  0  0  0  0  0
    2.4191   -0.5278    0.4260 H   0  0  0  0  0  0  0  0  0  0  0  0
    3.4042    2.1011   -2.1592 H   0  0  0  0  0  0  0  0  0  0  0  0
    5.4342    1.3370   -1.5994 H   0  0  0  0  0  0  0  0  0  0  0  0
    5.4780   -0.9458   -1.9936 H   0  0  0  0  0  0  0  0  0  0  0  0
    3.9549   -1.3156   -1.0294 H   0  0  0  0  0  0  0  0  0  0  0  0
    7.2894   -0.9300   -1.1053 H   0  0  0  0  0  0  0  0  0  0  0  0
    7.0791    0.7121   -0.5069 H   0  0  0  0  0  0  0  0  0  0  0  0
    8.9691   -0.4268    0.4864 H   0  0  0  0  0  0  0  0  0  0  0  0
    7.9631   -1.7701    1.0244 H   0  0  0  0  0  0  0  0  0  0  0  0
    7.7330    1.1421    2.0864 H   0  0  0  0  0  0  0  0  0  0  0  0
    8.5060   -0.2297    2.9440 H   0  0  0  0  0  0  0  0  0  0  0  0
    4.1005    0.6462    1.1160 H   0  0  0  0  0  0  0  0  0  0  0  0
    5.7212    1.4501    0.7226 H   0  0  0  0  0  0  0  0  0  0  0  0
    1.1924    2.4314   -2.3243 H   0  0  0  0  0  0  0  0  0  0  0  0
  1  2  1  0
  2  3  1  0
  2  4  1  0
  4  5  1  0
  5  6  2  0
  6  7  1  0
  7  8  2  0
  8  9  1  0
  9 10  1  0
 10 11  1  0
 11 12  2  0
 12 13  1  0
  6 14  1  0
 14 15  1  0
 15 16  1  0
 16 17  1  0
 17 18  1  0
 17 19  1  0
 17 20  1  0
 14 21  1  0
 21 22  2  0
 22 23  1  0
 23 24  2  0
 24 25  1  0
 25 26  1  0
 26 27  1  0
 27 28  1  0
 28 29  1  0
 29 30  1  0
 30 31  1  0
 31 32  1  0
 28 33  1  0
 24 34  1  0
 34 35  2  0
 15  2  1  0
 35 21  1  0
 13  5  1  0
 33 26  1  0
 13  9  2  0
  1 36  1  0
  1 37  1  0
  1 38  1  0
  3 39  1  0
  3 40  1  0
  3 41  1  0
  4 42  1  0
  4 43  1  0
  7 44  1  0
  8 45  1  0
 10 46  1  0
 12 47  1  0
 14 48  1  1
 16 49  1  0
 16 50  1  0
 22 51  1  0
 23 52  1  0
 25 53  1  0
 26 54  1  0
 27 55  1  0
 27 56  1  0
 29 57  1  0
 29 58  1  0
 30 59  1  0
 30 60  1  0
 31 61  1  0
 31 62  1  0
 33 63  1  0
 33 64  1  0
 34 65  1  0
M  END
$$$$
[H]Oc1c([H])c([H])c2c(c1F)C([H])([H])C([H])([H])C([H])([H])C(c1c([H])c([H])c([H])c(F)c1Cl)=C2c1c([H])c([H])c(O[C@]2([H])C([H])([H])N(C([H])([H])C([H])([H])C([H])([H])F)C([H])([H])C2([H])[H])c([H])c1[H]
     RDKit          3D

 66 70  0  0  0  0  0  0  0  0999 V2000
   -3.5230    5.6604   -1.8010 O   0  0  0  0  0  0  0  0  0  0  0  0
   -3.4080    4.3531   -1.3395 C   0  0  0  0  0  0  0  0  0  0  0  0
   -2.2679    3.9339   -0.6932 C   0  0  0  0  0  0  0  0  0  0  0  0
   -2.2300    2.5977   -0.2596 C   0  0  0  0  0  0  0  0  0  0  0  0
   -3.2853    1.7535   -0.4743 C   0  0  0  0  0  0  0  0  0  0  0  0
   -4.4205    2.2160   -1.1295 C   0  0  0  0  0  0  0  0  0  0  0  0
   -5.6547    1.3739   -1.3620 C   0  0  0  0  0  0  0  0  0  0  0  0
   -6.0531    0.9476    0.0406 C   0  0  0  0  0  0  0  0  0  0  0  0
   -5.4422   -0.2978    0.5376 C   0  0  0  0  0  0  0  0  0  0  0  0
   -3.9579   -0.4164    0.4509 C   0  0  0  0  0  0  0  0  0  0  0  0
   -3.4959   -1.7460    0.7965 C   0  0  0  0  0  0  0  0  0  0  0  0
   -2.9051   -2.5549   -0.1524 C   0  0  0  0  0  0  0  0  0  0  0  0
   -2.4438   -3.8201    0.1351 C   0  0  0  0  0  0  0  0  0  0  0  0
   -2.5597   -4.3314    1.4026 C   0  0  0  0  0  0  0  0  0  0  0  0
   -3.1456   -3.5403    2.3598 C   0  0  0  0  0  0  0  0  0  0  0  0
   -3.2677   -4.0310    3.6202 F   0  0  0  0  0  0  0  0  0  0  0  0
   -3.6143   -2.2466    2.0606 C   0  0  0  0  0  0  0  0  0  0  0  0
   -4.2854   -1.3449    3.4049 Cl  0  0  0  0  0  0  0  0  0  0  0  0
   -3.0158    0.4075    0.0391 C   0  0  0  0  0  0  0  0  0  0  0  0
   -1.6025    0.0965    0.0812 C   0  0  0  0  0  0  0  0  0  0  0  0
   -0.8677   -0.2955    1.1406 C   0  0  0  0  0  0  0  0  0  0  0  0
    0.4810   -0.5803    0.9965 C   0  0  0  0  0  0  0  0  0  0  0  0
    1.1480   -0.4853   -0.2001 C   0  0  0  0  0  0  0  0  0  0  0  0
    2.4823   -0.7524   -0.4087 O   0  0  0  0  0  0  0  0  0  0  0  0
    3.4235   -1.1961    0.5075 C   0  0  1  0  0  0  0  0  0  0  0  0
    4.2086   -2.3967    0.0239 C   0  0  0  0  0  0  0  0  0  0  0  0
    5.5742   -1.8424   -0.4244 C   0  0  0  0  0  0  0  0  0  0  0  0
    5.7074   -0.7237    0.3987 N   0  0  0  0  0  0  0  0  0  0  0  0
    6.9293   -0.1656    0.7247 C   0  0  0  0  0  0  0  0  0  0  0  0
    7.7081    0.5143   -0.3743 C   0  0  0  0  0  0  0  0  0  0  0  0
    6.9380    1.6674   -0.9743 C   0  0  0  0  0  0  0  0  0  0  0  0
    6.6486    2.6303    0.0034 F   0  0  0  0  0  0  0  0  0  0  0  0
    4.4894   -0.1167    0.7305 C   0  0  0  0  0  0  0  0  0  0  0  0
    0.3974   -0.0788   -1.3059 C   0  0  0  0  0  0  0  0  0  0  0  0
   -0.9321    0.1987   -1.1533 C   0  0  0  0  0  0  0  0  0  0  0  0
   -4.4976    3.4998   -1.5652 C   0  0  0  0  0  0  0  0  0  0  0  0
   -5.5996    3.9229   -2.1933 F   0  0  0  0  0  0  0  0  0  0  0  0
   -2.7703    6.3181   -1.6691 H   0  0  0  0  0  0  0  0  0  0  0  0
   -1.4167    4.5898   -0.5134 H   0  0  0  0  0  0  0  0  0  0  0  0
   -1.3685    2.2616    0.2579 H   0  0  0  0  0  0  0  0  0  0  0  0
   -6.4221    1.9481   -1.8752 H   0  0  0  0  0  0  0  0  0  0  0  0
   -5.3035    0.4647   -1.8896 H   0  0  0  0  0  0  0  0  0  0  0  0
   -5.9036    1.8068    0.7299 H   0  0  0  0  0  0  0  0  0  0  0  0
   -7.1544    0.7947   -0.0011 H   0  0  0  0  0  0  0  0  0  0  0  0
   -5.9301   -1.1661    0.0161 H   0  0  0  0  0  0  0  0  0  0  0  0
   -5.7324   -0.4147    1.5948 H   0  0  0  0  0  0  0  0  0  0  0  0
   -2.8286   -2.1628   -1.1793 H   0  0  0  0  0  0  0  0  0  0  0  0
   -1.9909   -4.4151   -0.6321 H   0  0  0  0  0  0  0  0  0  0  0  0
   -2.1939   -5.3443    1.6409 H   0  0  0  0  0  0  0  0  0  0  0  0
   -1.3137   -0.3641    2.1016 H   0  0  0  0  0  0  0  0  0  0  0  0
    1.0587   -0.8998    1.8799 H   0  0  0  0  0  0  0  0  0  0  0  0
    2.9329   -1.4629    1.4491 H   0  0  0  0  0  0  0  0  0  0  0  0
    3.7382   -2.9060   -0.8406 H   0  0  0  0  0  0  0  0  0  0  0  0
    4.4471   -3.1007    0.8574 H   0  0  0  0  0  0  0  0  0  0  0  0
    6.3777   -2.5857   -0.2628 H   0  0  0  0  0  0  0  0  0  0  0  0
    5.4753   -1.6440   -1.5111 H   0  0  0  0  0  0  0  0  0  0  0  0
    7.5656   -0.9317    1.2456 H   0  0  0  0  0  0  0  0  0  0  0  0
    6.7739    0.6206    1.5116 H   0  0  0  0  0  0  0  0  0  0  0  0
    8.0080   -0.1548   -1.1934 H   0  0  0  0  0  0  0  0  0  0  0  0
    8.6174    0.9474    0.0932 H   0  0  0  0  0  0  0  0  0  0  0  0
    5.9891    1.3345   -1.3972 H   0  0  0  0  0  0  0  0  0  0  0  0
    7.5890    2.2053   -1.7056 H   0  0  0  0  0  0  0  0  0  0  0  0
    4.2364    0.8006    0.1599 H   0  0  0  0  0  0  0  0  0  0  0  0
    4.4471    0.1263    1.8200 H   0  0  0  0  0  0  0  0  0  0  0  0
    0.8874    0.0111   -2.2802 H   0  0  0  0  0  0  0  0  0  0  0  0
   -1.4755    0.5125   -2.0512 H   0  0  0  0  0  0  0  0  0  0  0  0
  1  2  1  0
  2  3  2  0
  3  4  1  0
  4  5  2  0
  5  6  1  0
  6  7  1  0
  7  8  1  0
  8  9  1  0
  9 10  1  0
 10 11  1  0
 11 12  2  0
 12 13  1  0
 13 14  2  0
 14 15  1  0
 15 16  1  0
 15 17  2  0
 17 18  1  0
 10 19  2  0
 19 20  1  0
 20 21  2  0
 21 22  1  0
 22 23  2  0
 23 24  1  0
 24 25  1  0
 25 26  1  0
 26 27  1  0
 27 28  1  0
 28 29  1  0
 29 30  1  0
 30 31  1  0
 31 32  1  0
 28 33  1  0
 23 34  1  0
 34 35  2  0
  6 36  2  0
 36 37  1  0
 36  2  1  0
 19  5  1  0
 35 20  1  0
 17 11  1  0
 33 25  1  0
  1 38  1  0
  3 39  1  0
  4 40  1  0
  7 41  1  0
  7 42  1  0
  8 43  1  0
  8 44  1  0
  9 45  1  0
  9 46  1  0
 12 47  1  0
 13 48  1  0
 14 49  1  0
 21 50  1  0
 22 51  1  0
 25 52  1  1
 26 53  1  0
 26 54  1  0
 27 55  1  0
 27 56  1  0
 29 57  1  0
 29 58  1  0
 30 59  1  0
 30 60  1  0
 31 61  1  0
 31 62  1  0
 33 63  1  0
 33 64  1  0
 34 65  1  0
 35 66  1  0
M  END
$$$$
[H]OC(=O)c1c([H])c([H])c2c(c1[H])C([H])([H])C([H])([H])C([H])([H])C(c1c([H])c([H])c3c(c1[H])C([H])([H])C(C([H])([H])[H])(C([H])([H])[H])N3[H])=C2c1c([H])c([H])c(O[C@]2([H])C([H])([H])N(C([H])([H])C([H])([H])C([H])([H])F)C([H])([H])C2([H])[H])c([H])c1[H]
     RDKit          3D

 80 85  0  0  0  0  0  0  0  0999 V2000
    5.3532   -4.3330    1.2473 C   0  0  0  0  0  0  0  0  0  0  0  0
    3.9335   -4.4626    0.6976 C   0  0  0  0  0  0  0  0  0  0  0  0
    3.5906   -5.8881    0.3570 C   0  0  0  0  0  0  0  0  0  0  0  0
    3.8277   -3.6381   -0.5693 C   0  0  0  0  0  0  0  0  0  0  0  0
    3.3530   -2.3007   -0.0632 C   0  0  0  0  0  0  0  0  0  0  0  0
    3.3316   -1.0499   -0.5972 C   0  0  0  0  0  0  0  0  0  0  0  0
    2.8305    0.0821    0.0560 C   0  0  0  0  0  0  0  0  0  0  0  0
    2.3384   -0.1239    1.3159 C   0  0  0  0  0  0  0  0  0  0  0  0
    2.3339   -1.3883    1.9167 C   0  0  0  0  0  0  0  0  0  0  0  0
    2.8459   -2.4619    1.2096 C   0  0  0  0  0  0  0  0  0  0  0  0
    2.9725   -3.8391    1.5531 N   0  0  0  0  0  0  0  0  0  0  0  0
    2.8924    1.3965   -0.5305 C   0  0  0  0  0  0  0  0  0  0  0  0
    1.8162    2.1363   -0.6653 C   0  0  0  0  0  0  0  0  0  0  0  0
    0.5046    1.6502   -0.2301 C   0  0  0  0  0  0  0  0  0  0  0  0
   -0.0601    0.4640   -0.6304 C   0  0  0  0  0  0  0  0  0  0  0  0
   -1.3026    0.0723   -0.1569 C   0  0  0  0  0  0  0  0  0  0  0  0
   -2.0401    0.8225    0.7238 C   0  0  0  0  0  0  0  0  0  0  0  0
   -3.2788    0.4885    1.2299 O   0  0  0  0  0  0  0  0  0  0  0  0
   -4.0080   -0.6534    0.9399 C   0  0  1  0  0  0  0  0  0  0  0  0
   -4.3627   -1.3583    2.2271 C   0  0  0  0  0  0  0  0  0  0  0  0
   -5.8596   -1.4099    2.2148 C   0  0  0  0  0  0  0  0  0  0  0  0
   -6.2279   -1.3190    0.8423 N   0  0  0  0  0  0  0  0  0  0  0  0
   -6.0856   -2.5167    0.0773 C   0  0  0  0  0  0  0  0  0  0  0  0
   -7.0363   -3.6163    0.4377 C   0  0  0  0  0  0  0  0  0  0  0  0
   -8.4826   -3.2064    0.2606 C   0  0  0  0  0  0  0  0  0  0  0  0
   -9.2758   -4.2826    0.6165 F   0  0  0  0  0  0  0  0  0  0  0  0
   -5.3483   -0.3087    0.2905 C   0  0  0  0  0  0  0  0  0  0  0  0
   -1.4693    2.0256    1.1305 C   0  0  0  0  0  0  0  0  0  0  0  0
   -0.2425    2.4216    0.6687 C   0  0  0  0  0  0  0  0  0  0  0  0
    1.7359    3.4959   -1.2662 C   0  0  0  0  0  0  0  0  0  0  0  0
    0.5045    3.7203   -1.9037 C   0  0  0  0  0  0  0  0  0  0  0  0
    0.2975    4.9286   -2.5032 C   0  0  0  0  0  0  0  0  0  0  0  0
    1.2803    5.9112   -2.4833 C   0  0  0  0  0  0  0  0  0  0  0  0
    2.4746    5.6578   -1.8502 C   0  0  0  0  0  0  0  0  0  0  0  0
    2.7328    4.4307   -1.2200 C   0  0  0  0  0  0  0  0  0  0  0  0
    4.0511    4.3849   -0.6221 C   0  0  0  0  0  0  0  0  0  0  0  0
    4.6703    3.1145   -0.2750 C   0  0  0  0  0  0  0  0  0  0  0  0
    4.2703    1.8681   -0.9676 C   0  0  0  0  0  0  0  0  0  0  0  0
    1.0823    7.1987   -3.1145 C   0  0  0  0  0  0  0  0  0  0  0  0
    2.0707    8.1602   -3.0806 O   0  0  0  0  0  0  0  0  0  0  0  0
    0.0070    7.4436   -3.6957 O   0  0  0  0  0  0  0  0  0  0  0  0
    5.3380   -3.9438    2.2729 H   0  0  0  0  0  0  0  0  0  0  0  0
    5.8761   -5.3058    1.2274 H   0  0  0  0  0  0  0  0  0  0  0  0
    5.9294   -3.5966    0.6236 H   0  0  0  0  0  0  0  0  0  0  0  0
    4.0480   -6.6164    1.0391 H   0  0  0  0  0  0  0  0  0  0  0  0
    2.4624   -5.9448    0.3728 H   0  0  0  0  0  0  0  0  0  0  0  0
    3.9024   -6.0557   -0.6963 H   0  0  0  0  0  0  0  0  0  0  0  0
    3.1229   -4.0572   -1.3009 H   0  0  0  0  0  0  0  0  0  0  0  0
    4.8350   -3.4773   -0.9705 H   0  0  0  0  0  0  0  0  0  0  0  0
    3.7293   -0.9185   -1.5963 H   0  0  0  0  0  0  0  0  0  0  0  0
    1.9354    0.6680    1.9299 H   0  0  0  0  0  0  0  0  0  0  0  0
    1.9324   -1.4969    2.9158 H   0  0  0  0  0  0  0  0  0  0  0  0
    2.4391   -4.3068    2.3149 H   0  0  0  0  0  0  0  0  0  0  0  0
    0.4600   -0.1742   -1.3297 H   0  0  0  0  0  0  0  0  0  0  0  0
   -1.7322   -0.8831   -0.4933 H   0  0  0  0  0  0  0  0  0  0  0  0
   -3.5226   -1.3573    0.2195 H   0  0  0  0  0  0  0  0  0  0  0  0
   -3.9263   -2.3803    2.2784 H   0  0  0  0  0  0  0  0  0  0  0  0
   -3.9704   -0.7869    3.1190 H   0  0  0  0  0  0  0  0  0  0  0  0
   -6.2265   -0.4743    2.7182 H   0  0  0  0  0  0  0  0  0  0  0  0
   -6.2587   -2.3136    2.7247 H   0  0  0  0  0  0  0  0  0  0  0  0
   -5.0535   -2.9588    0.1537 H   0  0  0  0  0  0  0  0  0  0  0  0
   -6.2763   -2.2466   -0.9919 H   0  0  0  0  0  0  0  0  0  0  0  0
   -6.8579   -4.0811    1.4091 H   0  0  0  0  0  0  0  0  0  0  0  0
   -6.8678   -4.4295   -0.3260 H   0  0  0  0  0  0  0  0  0  0  0  0
   -8.6511   -2.8539   -0.7675 H   0  0  0  0  0  0  0  0  0  0  0  0
   -8.7615   -2.3627    0.9309 H   0  0  0  0  0  0  0  0  0  0  0  0
   -5.3249   -0.4956   -0.8170 H   0  0  0  0  0  0  0  0  0  0  0  0
   -5.6666    0.7150    0.4813 H   0  0  0  0  0  0  0  0  0  0  0  0
   -2.0418    2.6474    1.8380 H   0  0  0  0  0  0  0  0  0  0  0  0
    0.1456    3.3687    1.0241 H   0  0  0  0  0  0  0  0  0  0  0  0
   -0.2099    2.9129   -1.8888 H   0  0  0  0  0  0  0  0  0  0  0  0
   -0.6418    5.1287   -3.0010 H   0  0  0  0  0  0  0  0  0  0  0  0
    3.2640    6.4020   -1.8154 H   0  0  0  0  0  0  0  0  0  0  0  0
    4.0039    5.0196    0.3161 H   0  0  0  0  0  0  0  0  0  0  0  0
    4.7310    5.0029   -1.2861 H   0  0  0  0  0  0  0  0  0  0  0  0
    5.7894    3.2128   -0.4204 H   0  0  0  0  0  0  0  0  0  0  0  0
    4.5853    2.9089    0.8346 H   0  0  0  0  0  0  0  0  0  0  0  0
    4.3124    1.9915   -2.0576 H   0  0  0  0  0  0  0  0  0  0  0  0
    4.9655    1.0634   -0.6796 H   0  0  0  0  0  0  0  0  0  0  0  0
    2.1609    8.7584   -3.8933 H   0  0  0  0  0  0  0  0  0  0  0  0
  1  2  1  0
  2  3  1  0
  2  4  1  0
  4  5  1  0
  5  6  2  0
  6  7  1  0
  7  8  2  0
  8  9  1  0
  9 10  2  0
 10 11  1  0
  7 12  1  0
 12 13  2  0
 13 14  1  0
 14 15  2  0
 15 16  1  0
 16 17  2  0
 17 18  1  0
 18 19  1  0
 19 20  1  0
 20 21  1  0
 21 22  1  0
 22 23  1  0
 23 24  1  0
 24 25  1  0
 25 26  1  0
 22 27  1  0
 17 28  1  0
 28 29  2  0
 13 30  1  0
 30 31  2  0
 31 32  1  0
 32 33  2  0
 33 34  1  0
 34 35  2  0
 35 36  1  0
 36 37  1  0
 37 38  1  0
 33 39  1  0
 39 40  1  0
 39 41  2  0
 11  2  1  0
 38 12  1  0
 10  5  1  0
 29 14  1  0
 35 30  1  0
 27 19  1  0
  1 42  1  0
  1 43  1  0
  1 44  1  0
  3 45  1  0
  3 46  1  0
  3 47  1  0
  4 48  1  0
  4 49  1  0
  6 50  1  0
  8 51  1  0
  9 52  1  0
 11 53  1  0
 15 54  1  0
 16 55  1  0
 19 56  1  6
 20 57  1  0
 20 58  1  0
 21 59  1  0
 21 60  1  0
 23 61  1  0
 23 62  1  0
 24 63  1  0
 24 64  1  0
 25 65  1  0
 25 66  1  0
 27 67  1  0
 27 68  1  0
 28 69  1  0
 29 70  1  0
 31 71  1  0
 32 72  1  0
 34 73  1  0
 36 74  1  0
 36 75  1  0
 37 76  1  0
 37 77  1  0
 38 78  1  0
 38 79  1  0
 40 80  1  0
M  END
$$$$
[H]Oc1c([H])c([H])c([C@@]([H])(C([H])([H])C([H])([H])[H])[C@@]([H])(C#N)c2c([H])c([H])c(O[H])c([H])c2[H])c([H])c1[H]
     RDKit          3D

 37 38  0  0  0  0  0  0  0  0999 V2000
   -1.7711   -1.5152   -2.7442 C   0  0  0  0  0  0  0  0  0  0  0  0
   -1.1466   -2.0328   -1.5158 C   0  0  0  0  0  0  0  0  0  0  0  0
   -0.3592   -1.0552   -0.6719 C   0  0  1  0  0  0  0  0  0  0  0  0
    0.7856   -0.4158   -1.3693 C   0  0  1  0  0  0  0  0  0  0  0  0
    0.4920    0.3684   -2.5361 C   0  0  0  0  0  0  0  0  0  0  0  0
    0.2803    1.0062   -3.4752 N   0  0  0  0  0  0  0  0  0  0  0  0
    1.7810    0.1787   -0.4487 C   0  0  0  0  0  0  0  0  0  0  0  0
    1.7443    1.4568    0.0484 C   0  0  0  0  0  0  0  0  0  0  0  0
    2.6824    1.9729    0.9138 C   0  0  0  0  0  0  0  0  0  0  0  0
    3.7246    1.1981    1.3234 C   0  0  0  0  0  0  0  0  0  0  0  0
    4.6815    1.6875    2.1910 O   0  0  0  0  0  0  0  0  0  0  0  0
    3.8125   -0.0897    0.8576 C   0  0  0  0  0  0  0  0  0  0  0  0
    2.8497   -0.5844   -0.0161 C   0  0  0  0  0  0  0  0  0  0  0  0
   -1.2602   -0.2732    0.1406 C   0  0  0  0  0  0  0  0  0  0  0  0
   -1.9042    0.8841   -0.2607 C   0  0  0  0  0  0  0  0  0  0  0  0
   -2.7500    1.5075    0.6237 C   0  0  0  0  0  0  0  0  0  0  0  0
   -2.9903    1.0301    1.9064 C   0  0  0  0  0  0  0  0  0  0  0  0
   -3.8480    1.6897    2.7599 O   0  0  0  0  0  0  0  0  0  0  0  0
   -2.3562   -0.1226    2.3234 C   0  0  0  0  0  0  0  0  0  0  0  0
   -1.5100   -0.7503    1.4442 C   0  0  0  0  0  0  0  0  0  0  0  0
   -2.6582   -2.1985   -2.9574 H   0  0  0  0  0  0  0  0  0  0  0  0
   -1.1486   -1.6485   -3.6622 H   0  0  0  0  0  0  0  0  0  0  0  0
   -2.2355   -0.5205   -2.6815 H   0  0  0  0  0  0  0  0  0  0  0  0
   -1.9480   -2.4847   -0.8565 H   0  0  0  0  0  0  0  0  0  0  0  0
   -0.5234   -2.9195   -1.7948 H   0  0  0  0  0  0  0  0  0  0  0  0
    0.1706   -1.7966    0.0406 H   0  0  0  0  0  0  0  0  0  0  0  0
    1.3336   -1.3330   -1.8081 H   0  0  0  0  0  0  0  0  0  0  0  0
    0.9444    2.1027   -0.2539 H   0  0  0  0  0  0  0  0  0  0  0  0
    2.6053    3.0006    1.2807 H   0  0  0  0  0  0  0  0  0  0  0  0
    5.4529    1.1148    2.4944 H   0  0  0  0  0  0  0  0  0  0  0  0
    4.6351   -0.6991    1.1816 H   0  0  0  0  0  0  0  0  0  0  0  0
    2.9904   -1.6250   -0.3439 H   0  0  0  0  0  0  0  0  0  0  0  0
   -1.7038    1.2462   -1.2508 H   0  0  0  0  0  0  0  0  0  0  0  0
   -3.2408    2.4137    0.2790 H   0  0  0  0  0  0  0  0  0  0  0  0
   -4.0154    1.3337    3.6906 H   0  0  0  0  0  0  0  0  0  0  0  0
   -2.5575   -0.4739    3.3215 H   0  0  0  0  0  0  0  0  0  0  0  0
   -1.0395   -1.6533    1.8263 H   0  0  0  0  0  0  0  0  0  0  0  0
  1  2  1  0
  2  3  1  0
  3  4  1  0
  4  5  1  0
  5  6  3  0
  4  7  1  0
  7  8  2  0
  8  9  1  0
  9 10  2  0
 10 11  1  0
 10 12  1  0
 12 13  2  0
  3 14  1  0
 14 15  2  0
 15 16  1  0
 16 17  2  0
 17 18  1  0
 17 19  1  0
 19 20  2  0
 13  7  1  0
 20 14  1  0
  1 21  1  0
  1 22  1  0
  1 23  1  0
  2 24  1  0
  2 25  1  0
  3 26  1  1
  4 27  1  6
  8 28  1  0
  9 29  1  0
 11 30  1  0
 12 31  1  0
 13 32  1  0
 15 33  1  0
 16 34  1  0
 18 35  1  0
 19 36  1  0
 20 37  1  0
M  END
$$$$
[H]Oc1c([H])c([H])c2c(c1[H])C([H])([H])C([H])([H])N(C([H])([H])c1c([H])c([H])c3c(c1[H])OC([H])([H])O3)C2([H])c1c([H])c([H])c(OC([H])([H])C([H])([H])N2C([H])([H])C([H])([H])C([H])([H])C2([H])[H])c([H])c1[H]
     RDKit          3D

 67 72  0  0  0  0  0  0  0  0999 V2000
   -4.4891   -1.4779   -4.2318 O   0  0  0  0  0  0  0  0  0  0  0  0
   -3.7589   -1.6163   -3.0447 C   0  0  0  0  0  0  0  0  0  0  0  0
   -2.4446   -1.2001   -2.9867 C   0  0  0  0  0  0  0  0  0  0  0  0
   -1.7350   -1.3404   -1.8150 C   0  0  0  0  0  0  0  0  0  0  0  0
   -2.3471   -1.8902   -0.7298 C   0  0  0  0  0  0  0  0  0  0  0  0
   -1.6816   -2.1131    0.5832 C   0  0  0  0  0  0  0  0  0  0  0  0
   -2.5422   -1.7819    1.6242 N   0  0  0  0  0  0  0  0  0  0  0  0
   -2.8327   -0.5451    2.1451 C   0  0  0  0  0  0  0  0  0  0  0  0
   -3.5077    0.4929    1.3641 C   0  0  0  0  0  0  0  0  0  0  0  0
   -4.9012    0.5767    1.3847 C   0  0  0  0  0  0  0  0  0  0  0  0
   -5.6030    1.5288    0.6942 C   0  0  0  0  0  0  0  0  0  0  0  0
   -4.9340    2.4591   -0.0631 C   0  0  0  0  0  0  0  0  0  0  0  0
   -5.3181    3.5336   -0.8671 O   0  0  0  0  0  0  0  0  0  0  0  0
   -4.1629    4.3609   -1.0732 C   0  0  0  0  0  0  0  0  0  0  0  0
   -3.1209    3.4125   -0.9083 O   0  0  0  0  0  0  0  0  0  0  0  0
   -3.5489    2.3703   -0.0794 C   0  0  0  0  0  0  0  0  0  0  0  0
   -2.8437    1.4188    0.6104 C   0  0  0  0  0  0  0  0  0  0  0  0
   -3.6746   -2.7242    1.6869 C   0  0  0  0  0  0  0  0  0  0  0  0
   -4.3636   -2.9138    0.3875 C   0  0  0  0  0  0  0  0  0  0  0  0
   -3.6488   -2.3009   -0.7919 C   0  0  0  0  0  0  0  0  0  0  0  0
   -4.4019   -2.1747   -1.9650 C   0  0  0  0  0  0  0  0  0  0  0  0
   -0.2562   -1.8698    0.6349 C   0  0  0  0  0  0  0  0  0  0  0  0
    0.3967   -0.7659    1.0832 C   0  0  0  0  0  0  0  0  0  0  0  0
    1.7926   -0.6565    1.0634 C   0  0  0  0  0  0  0  0  0  0  0  0
    2.6001   -1.6561    0.5890 C   0  0  0  0  0  0  0  0  0  0  0  0
    3.9533   -1.6286    0.5326 O   0  0  0  0  0  0  0  0  0  0  0  0
    4.9062   -0.7110    0.8643 C   0  0  0  0  0  0  0  0  0  0  0  0
    4.8610    0.5700    0.0991 C   0  0  0  0  0  0  0  0  0  0  0  0
    5.9048    1.4934    0.5077 N   0  0  0  0  0  0  0  0  0  0  0  0
    7.2215    1.0661    0.1624 C   0  0  0  0  0  0  0  0  0  0  0  0
    8.0222    2.2452   -0.2748 C   0  0  0  0  0  0  0  0  0  0  0  0
    7.0264    3.3401   -0.4598 C   0  0  0  0  0  0  0  0  0  0  0  0
    5.7092    2.8156    0.0063 C   0  0  0  0  0  0  0  0  0  0  0  0
    1.9447   -2.7994    0.1239 C   0  0  0  0  0  0  0  0  0  0  0  0
    0.5925   -2.8803    0.1544 C   0  0  0  0  0  0  0  0  0  0  0  0
   -5.0273   -0.6429   -4.4358 H   0  0  0  0  0  0  0  0  0  0  0  0
   -1.9604   -0.7641   -3.8526 H   0  0  0  0  0  0  0  0  0  0  0  0
   -0.6781   -1.0106   -1.7535 H   0  0  0  0  0  0  0  0  0  0  0  0
   -1.7436   -3.3011    0.6097 H   0  0  0  0  0  0  0  0  0  0  0  0
   -3.5818   -0.7472    3.0186 H   0  0  0  0  0  0  0  0  0  0  0  0
   -1.9891   -0.1122    2.7287 H   0  0  0  0  0  0  0  0  0  0  0  0
   -5.4799   -0.1520    1.9819 H   0  0  0  0  0  0  0  0  0  0  0  0
   -6.6886    1.5748    0.7242 H   0  0  0  0  0  0  0  0  0  0  0  0
   -4.1251    5.1532   -0.2919 H   0  0  0  0  0  0  0  0  0  0  0  0
   -4.1706    4.8361   -2.0620 H   0  0  0  0  0  0  0  0  0  0  0  0
   -1.7661    1.4517    0.5193 H   0  0  0  0  0  0  0  0  0  0  0  0
   -4.3947   -2.4408    2.4576 H   0  0  0  0  0  0  0  0  0  0  0  0
   -3.2241   -3.6966    1.9934 H   0  0  0  0  0  0  0  0  0  0  0  0
   -5.4038   -2.4914    0.4117 H   0  0  0  0  0  0  0  0  0  0  0  0
   -4.5037   -3.9841    0.1035 H   0  0  0  0  0  0  0  0  0  0  0  0
   -5.4273   -2.5127   -1.9720 H   0  0  0  0  0  0  0  0  0  0  0  0
   -0.1506    0.0615    1.4623 H   0  0  0  0  0  0  0  0  0  0  0  0
    2.2568    0.2608    1.4564 H   0  0  0  0  0  0  0  0  0  0  0  0
    4.8310   -0.5163    1.9652 H   0  0  0  0  0  0  0  0  0  0  0  0
    5.9174   -1.1633    0.6449 H   0  0  0  0  0  0  0  0  0  0  0  0
    3.9241    1.1245    0.1397 H   0  0  0  0  0  0  0  0  0  0  0  0
    5.0903    0.3362   -0.9752 H   0  0  0  0  0  0  0  0  0  0  0  0
    7.1355    0.3786   -0.7280 H   0  0  0  0  0  0  0  0  0  0  0  0
    7.7211    0.4656    0.9485 H   0  0  0  0  0  0  0  0  0  0  0  0
    8.6267    2.0633   -1.1862 H   0  0  0  0  0  0  0  0  0  0  0  0
    8.7360    2.5126    0.5374 H   0  0  0  0  0  0  0  0  0  0  0  0
    7.3211    4.2778    0.0922 H   0  0  0  0  0  0  0  0  0  0  0  0
    7.0179    3.5983   -1.5561 H   0  0  0  0  0  0  0  0  0  0  0  0
    5.0307    2.7581   -0.8915 H   0  0  0  0  0  0  0  0  0  0  0  0
    5.1925    3.4899    0.7185 H   0  0  0  0  0  0  0  0  0  0  0  0
    2.5501   -3.6346   -0.2684 H   0  0  0  0  0  0  0  0  0  0  0  0
    0.1492   -3.8110   -0.2324 H   0  0  0  0  0  0  0  0  0  0  0  0
  1  2  1  0
  2  3  2  0
  3  4  1  0
  4  5  2  0
  5  6  1  0
  6  7  1  0
  7  8  1  0
  8  9  1  0
  9 10  2  0
 10 11  1  0
 11 12  2  0
 12 13  1  0
 13 14  1  0
 14 15  1  0
 15 16  1  0
 16 17  2  0
  7 18  1  0
 18 19  1  0
 19 20  1  0
 20 21  2  0
  6 22  1  0
 22 23  2  0
 23 24  1  0
 24 25  2  0
 25 26  1  0
 26 27  1  0
 27 28  1  0
 28 29  1  0
 29 30  1  0
 30 31  1  0
 31 32  1  0
 32 33  1  0
 25 34  1  0
 34 35  2  0
 21  2  1  0
 35 22  1  0
 20  5  1  0
 33 29  1  0
 17  9  1  0
 16 12  1  0
  1 36  1  0
  3 37  1  0
  4 38  1  0
  6 39  1  0
  8 40  1  0
  8 41  1  0
 10 42  1  0
 11 43  1  0
 14 44  1  0
 14 45  1  0
 17 46  1  0
 18 47  1  0
 18 48  1  0
 19 49  1  0
 19 50  1  0
 21 51  1  0
 23 52  1  0
 24 53  1  0
 27 54  1  0
 27 55  1  0
 28 56  1  0
 28 57  1  0
 30 58  1  0
 30 59  1  0
 31 60  1  0
 31 61  1  0
 32 62  1  0
 32 63  1  0
 33 64  1  0
 33 65  1  0
 34 66  1  0
 35 67  1  0
M  END
$$$$
[H]c1nc([C@]2([H])c3c([H])c([H])c4c(c([H])nn4[H])c3C([H])([H])[C@@]([H])(C([H])([H])[H])N2C([H])([H])C([H])(F)F)c([H])nc1N([H])C1([H])C([H])([H])N(C([H])([H])C([H])([H])C([H])([H])F)C1([H])[H]
     RDKit          3D

 61 65  0  0  0  0  0  0  0  0999 V2000
   -4.8753   -1.2169   -1.5573 C   0  0  0  0  0  0  0  0  0  0  0  0
   -4.5349   -1.3318   -0.0914 C   0  0  2  0  0  0  0  0  0  0  0  0
   -5.0710   -0.1503    0.6909 C   0  0  0  0  0  0  0  0  0  0  0  0
   -4.4355    1.0776    0.1562 C   0  0  0  0  0  0  0  0  0  0  0  0
   -3.1819    1.0001   -0.4470 C   0  0  0  0  0  0  0  0  0  0  0  0
   -2.6486    2.1600   -0.9458 C   0  0  0  0  0  0  0  0  0  0  0  0
   -3.3402    3.3777   -0.8498 C   0  0  0  0  0  0  0  0  0  0  0  0
   -4.5621    3.4181   -0.2537 C   0  0  0  0  0  0  0  0  0  0  0  0
   -5.4377    4.4056   -0.0202 N   0  0  0  0  0  0  0  0  0  0  0  0
   -6.4981    3.9085    0.6040 N   0  0  0  0  0  0  0  0  0  0  0  0
   -6.3629    2.5970    0.8016 C   0  0  0  0  0  0  0  0  0  0  0  0
   -5.1238    2.2636    0.2569 C   0  0  0  0  0  0  0  0  0  0  0  0
   -2.4413   -0.2699   -0.5604 C   0  0  2  0  0  0  0  0  0  0  0  0
   -3.1110   -1.3843    0.0345 N   0  0  0  0  0  0  0  0  0  0  0  0
   -2.6302   -1.9025    1.2511 C   0  0  0  0  0  0  0  0  0  0  0  0
   -2.9291   -3.3843    1.3231 C   0  0  0  0  0  0  0  0  0  0  0  0
   -2.4586   -3.9277    2.5170 F   0  0  0  0  0  0  0  0  0  0  0  0
   -2.3540   -4.0392    0.2257 F   0  0  0  0  0  0  0  0  0  0  0  0
   -1.0471   -0.0725   -0.2099 C   0  0  0  0  0  0  0  0  0  0  0  0
   -0.0975   -1.0077   -0.5521 C   0  0  0  0  0  0  0  0  0  0  0  0
    1.2093   -0.8636   -0.2221 N   0  0  0  0  0  0  0  0  0  0  0  0
    1.5910    0.2386    0.4673 C   0  0  0  0  0  0  0  0  0  0  0  0
    2.9630    0.3533    0.7913 N   0  0  0  0  0  0  0  0  0  0  0  0
    3.9252   -0.6312    0.4178 C   0  0  0  0  0  0  0  0  0  0  0  0
    5.3277   -0.2880    0.8869 C   0  0  0  0  0  0  0  0  0  0  0  0
    5.6955    0.0885   -0.4320 N   0  0  0  0  0  0  0  0  0  0  0  0
    6.8680   -0.5266   -0.9686 C   0  0  0  0  0  0  0  0  0  0  0  0
    8.1726   -0.1418   -0.3913 C   0  0  0  0  0  0  0  0  0  0  0  0
    8.3674   -0.4112    1.0646 C   0  0  0  0  0  0  0  0  0  0  0  0
    9.6651   -0.0300    1.4668 F   0  0  0  0  0  0  0  0  0  0  0  0
    4.4736   -0.5127   -0.9858 C   0  0  0  0  0  0  0  0  0  0  0  0
    0.6522    1.1697    0.8092 C   0  0  0  0  0  0  0  0  0  0  0  0
   -0.6356    1.0020    0.4698 N   0  0  0  0  0  0  0  0  0  0  0  0
   -5.8097   -1.7735   -1.8059 H   0  0  0  0  0  0  0  0  0  0  0  0
   -5.0066   -0.2019   -1.9264 H   0  0  0  0  0  0  0  0  0  0  0  0
   -4.0786   -1.7048   -2.1916 H   0  0  0  0  0  0  0  0  0  0  0  0
   -4.9919   -2.2591    0.2659 H   0  0  0  0  0  0  0  0  0  0  0  0
   -6.1767   -0.1303    0.5801 H   0  0  0  0  0  0  0  0  0  0  0  0
   -4.8014   -0.2637    1.7434 H   0  0  0  0  0  0  0  0  0  0  0  0
   -1.6888    2.2187   -1.4487 H   0  0  0  0  0  0  0  0  0  0  0  0
   -2.8908    4.2715   -1.2526 H   0  0  0  0  0  0  0  0  0  0  0  0
   -5.3388    5.4126   -0.2725 H   0  0  0  0  0  0  0  0  0  0  0  0
   -7.0762    1.9553    1.2836 H   0  0  0  0  0  0  0  0  0  0  0  0
   -2.5242   -0.5144   -1.6881 H   0  0  0  0  0  0  0  0  0  0  0  0
   -1.5725   -1.7650    1.4065 H   0  0  0  0  0  0  0  0  0  0  0  0
   -3.2077   -1.4460    2.1205 H   0  0  0  0  0  0  0  0  0  0  0  0
   -4.0106   -3.6203    1.3179 H   0  0  0  0  0  0  0  0  0  0  0  0
   -0.3516   -1.9087   -1.1043 H   0  0  0  0  0  0  0  0  0  0  0  0
    3.2548    1.1964    1.3214 H   0  0  0  0  0  0  0  0  0  0  0  0
    3.5796   -1.6441    0.7132 H   0  0  0  0  0  0  0  0  0  0  0  0
    5.8162   -1.1893    1.2694 H   0  0  0  0  0  0  0  0  0  0  0  0
    5.3364    0.5026    1.6706 H   0  0  0  0  0  0  0  0  0  0  0  0
    6.6954   -1.6380   -0.9458 H   0  0  0  0  0  0  0  0  0  0  0  0
    6.8791   -0.2859   -2.0691 H   0  0  0  0  0  0  0  0  0  0  0  0
    9.0198   -0.6097   -0.9694 H   0  0  0  0  0  0  0  0  0  0  0  0
    8.3069    0.9636   -0.6111 H   0  0  0  0  0  0  0  0  0  0  0  0
    8.1991   -1.4675    1.3347 H   0  0  0  0  0  0  0  0  0  0  0  0
    7.7124    0.2769    1.6700 H   0  0  0  0  0  0  0  0  0  0  0  0
    4.6791   -1.5188   -1.4176 H   0  0  0  0  0  0  0  0  0  0  0  0
    3.9055    0.1420   -1.6689 H   0  0  0  0  0  0  0  0  0  0  0  0
    1.0076    2.0333    1.3599 H   0  0  0  0  0  0  0  0  0  0  0  0
  1  2  1  0
  2  3  1  0
  3  4  1  0
  4  5  2  0
  5  6  1  0
  6  7  2  0
  7  8  1  0
  8  9  1  0
  9 10  1  0
 10 11  2  0
 11 12  1  0
  5 13  1  0
 13 14  1  0
 14 15  1  0
 15 16  1  0
 16 17  1  0
 16 18  1  0
 13 19  1  0
 19 20  2  0
 20 21  1  0
 21 22  2  0
 22 23  1  0
 23 24  1  0
 24 25  1  0
 25 26  1  0
 26 27  1  0
 27 28  1  0
 28 29  1  0
 29 30  1  0
 26 31  1  0
 22 32  1  0
 32 33  2  0
 14  2  1  0
 33 19  1  0
 12  4  1  0
 31 24  1  0
 12  8  2  0
  1 34  1  0
  1 35  1  0
  1 36  1  0
  2 37  1  1
  3 38  1  0
  3 39  1  0
  6 40  1  0
  7 41  1  0
  9 42  1  0
 11 43  1  0
 13 44  1  6
 15 45  1  0
 15 46  1  0
 16 47  1  0
 20 48  1  0
 23 49  1  0
 24 50  1  0
 25 51  1  0
 25 52  1  0
 27 53  1  0
 27 54  1  0
 28 55  1  0
 28 56  1  0
 29 57  1  0
 29 58  1  0
 31 59  1  0
 31 60  1  0
 32 61  1  0
M  END
$$$$
[H]Oc1c([H])c([H])c2c(c1[H])OC([H])([H])C([H])([H])C1=C2[C@@]([H])(c2c([H])c([H])c(OC([H])([H])C([H])([H])N3C([H])([H])C([H])([H])C([H])([H])C([H])([H])C([H])([H])C3([H])[H])c([H])c2[H])Oc2c([H])c(F)c([H])c([H])c21
     RDKit          3D

 69 74  0  0  0  0  0  0  0  0999 V2000
   -6.1176   -4.5018   -3.4574 O   0  0  0  0  0  0  0  0  0  0  0  0
   -5.6647   -3.4924   -2.5858 C   0  0  0  0  0  0  0  0  0  0  0  0
   -4.4235   -3.5886   -1.9954 C   0  0  0  0  0  0  0  0  0  0  0  0
   -3.9686   -2.5928   -1.1318 C   0  0  0  0  0  0  0  0  0  0  0  0
   -4.7883   -1.5302   -0.8957 C   0  0  0  0  0  0  0  0  0  0  0  0
   -4.1722   -0.5606    0.0433 C   0  0  0  0  0  0  0  0  0  0  0  0
   -4.5124    0.7480    0.1358 C   0  0  0  0  0  0  0  0  0  0  0  0
   -5.5201    1.4391   -0.6798 C   0  0  0  0  0  0  0  0  0  0  0  0
   -6.8576    0.7734   -0.4481 C   0  0  0  0  0  0  0  0  0  0  0  0
   -6.9569   -0.3829   -1.3054 O   0  0  0  0  0  0  0  0  0  0  0  0
   -6.0518   -1.4167   -1.4854 C   0  0  0  0  0  0  0  0  0  0  0  0
   -6.4663   -2.4022   -2.3213 C   0  0  0  0  0  0  0  0  0  0  0  0
   -4.0044    1.5414    1.2454 C   0  0  0  0  0  0  0  0  0  0  0  0
   -4.2566    2.8808    1.3528 C   0  0  0  0  0  0  0  0  0  0  0  0
   -3.6909    3.5886    2.4051 C   0  0  0  0  0  0  0  0  0  0  0  0
   -2.8727    2.9592    3.3514 C   0  0  0  0  0  0  0  0  0  0  0  0
   -2.3362    3.6843    4.3659 F   0  0  0  0  0  0  0  0  0  0  0  0
   -2.6280    1.5972    3.2279 C   0  0  0  0  0  0  0  0  0  0  0  0
   -3.2030    0.9157    2.1734 C   0  0  0  0  0  0  0  0  0  0  0  0
   -2.9835   -0.4149    2.0448 O   0  0  0  0  0  0  0  0  0  0  0  0
   -3.0364   -1.1043    0.7689 C   0  0  2  0  0  0  0  0  0  0  0  0
   -1.7160   -0.6332    0.2209 C   0  0  0  0  0  0  0  0  0  0  0  0
   -1.6047   -0.0257   -0.9985 C   0  0  0  0  0  0  0  0  0  0  0  0
   -0.3857    0.3928   -1.4724 C   0  0  0  0  0  0  0  0  0  0  0  0
    0.7730    0.2136   -0.7309 C   0  0  0  0  0  0  0  0  0  0  0  0
    1.9927    0.6515   -1.2449 O   0  0  0  0  0  0  0  0  0  0  0  0
    3.1620    0.4426   -0.4373 C   0  0  0  0  0  0  0  0  0  0  0  0
    4.3736    0.9685   -1.1385 C   0  0  0  0  0  0  0  0  0  0  0  0
    5.5799    0.8206   -0.4354 N   0  0  0  0  0  0  0  0  0  0  0  0
    6.7766    1.2723   -1.0182 C   0  0  0  0  0  0  0  0  0  0  0  0
    7.9648    1.2918   -0.1162 C   0  0  0  0  0  0  0  0  0  0  0  0
    8.4017   -0.0472    0.3786 C   0  0  0  0  0  0  0  0  0  0  0  0
    7.5743   -1.1961   -0.0948 C   0  0  0  0  0  0  0  0  0  0  0  0
    6.2665   -1.2617    0.6637 C   0  0  0  0  0  0  0  0  0  0  0  0
    5.6183    0.1042    0.7702 C   0  0  0  0  0  0  0  0  0  0  0  0
    0.6786   -0.3979    0.5021 C   0  0  0  0  0  0  0  0  0  0  0  0
   -0.5730   -0.8170    0.9669 C   0  0  0  0  0  0  0  0  0  0  0  0
   -6.6360   -5.2693   -3.0134 H   0  0  0  0  0  0  0  0  0  0  0  0
   -3.7559   -4.4137   -2.1632 H   0  0  0  0  0  0  0  0  0  0  0  0
   -3.0174   -2.6581   -0.6546 H   0  0  0  0  0  0  0  0  0  0  0  0
   -5.5239    2.4972   -0.7357 H   0  0  0  0  0  0  0  0  0  0  0  0
   -5.2656    1.1258   -1.7607 H   0  0  0  0  0  0  0  0  0  0  0  0
   -6.8589    0.3648    0.5837 H   0  0  0  0  0  0  0  0  0  0  0  0
   -7.7132    1.4212   -0.6317 H   0  0  0  0  0  0  0  0  0  0  0  0
   -7.4467   -2.3162   -2.7809 H   0  0  0  0  0  0  0  0  0  0  0  0
   -4.8736    3.4319    0.6719 H   0  0  0  0  0  0  0  0  0  0  0  0
   -3.8863    4.6499    2.4965 H   0  0  0  0  0  0  0  0  0  0  0  0
   -1.9918    1.1537    3.9798 H   0  0  0  0  0  0  0  0  0  0  0  0
   -3.0672   -2.0992    1.1667 H   0  0  0  0  0  0  0  0  0  0  0  0
   -2.4760    0.1343   -1.6065 H   0  0  0  0  0  0  0  0  0  0  0  0
   -0.2938    0.8826   -2.4547 H   0  0  0  0  0  0  0  0  0  0  0  0
    2.9936    1.0199    0.4931 H   0  0  0  0  0  0  0  0  0  0  0  0
    3.2632   -0.6630   -0.2473 H   0  0  0  0  0  0  0  0  0  0  0  0
    4.4775    0.4036   -2.1145 H   0  0  0  0  0  0  0  0  0  0  0  0
    4.2307    2.0314   -1.4381 H   0  0  0  0  0  0  0  0  0  0  0  0
    7.0725    0.7395   -1.9466 H   0  0  0  0  0  0  0  0  0  0  0  0
    6.6187    2.3409   -1.3519 H   0  0  0  0  0  0  0  0  0  0  0  0
    8.8227    1.7201   -0.7140 H   0  0  0  0  0  0  0  0  0  0  0  0
    7.8413    2.0268    0.7294 H   0  0  0  0  0  0  0  0  0  0  0  0
    9.4645   -0.2737    0.1493 H   0  0  0  0  0  0  0  0  0  0  0  0
    8.3395   -0.0332    1.4972 H   0  0  0  0  0  0  0  0  0  0  0  0
    7.4258   -1.2153   -1.1913 H   0  0  0  0  0  0  0  0  0  0  0  0
    8.1285   -2.1327    0.1572 H   0  0  0  0  0  0  0  0  0  0  0  0
    5.5836   -2.0039    0.2188 H   0  0  0  0  0  0  0  0  0  0  0  0
    6.4868   -1.5957    1.6987 H   0  0  0  0  0  0  0  0  0  0  0  0
    6.1223    0.7099    1.5611 H   0  0  0  0  0  0  0  0  0  0  0  0
    4.5915   -0.0545    1.1535 H   0  0  0  0  0  0  0  0  0  0  0  0
    1.5577   -0.5573    1.1132 H   0  0  0  0  0  0  0  0  0  0  0  0
   -0.5853   -1.2873    1.9342 H   0  0  0  0  0  0  0  0  0  0  0  0
  1  2  1  0
  2  3  2  0
  3  4  1  0
  4  5  2  0
  5  6  1  0
  6  7  2  0
  7  8  1  0
  8  9  1  0
  9 10  1  0
 10 11  1  0
 11 12  2  0
  7 13  1  0
 13 14  2  0
 14 15  1  0
 15 16  2  0
 16 17  1  0
 16 18  1  0
 18 19  2  0
 19 20  1  0
 20 21  1  0
 21 22  1  0
 22 23  2  0
 23 24  1  0
 24 25  2  0
 25 26  1  0
 26 27  1  0
 27 28  1  0
 28 29  1  0
 29 30  1  0
 30 31  1  0
 31 32  1  0
 32 33  1  0
 33 34  1  0
 34 35  1  0
 25 36  1  0
 36 37  2  0
 12  2  1  0
 19 13  1  0
 37 22  1  0
 11  5  1  0
 35 29  1  0
 21  6  1  0
  1 38  1  0
  3 39  1  0
  4 40  1  0
  8 41  1  0
  8 42  1  0
  9 43  1  0
  9 44  1  0
 12 45  1  0
 14 46  1  0
 15 47  1  0
 18 48  1  0
 21 49  1  1
 23 50  1  0
 24 51  1  0
 27 52  1  0
 27 53  1  0
 28 54  1  0
 28 55  1  0
 30 56  1  0
 30 57  1  0
 31 58  1  0
 31 59  1  0
 32 60  1  0
 32 61  1  0
 33 62  1  0
 33 63  1  0
 34 64  1  0
 34 65  1  0
 35 66  1  0
 35 67  1  0
 36 68  1  0
 37 69  1  0
M  END
$$$$
[H]Oc1c([H])c([H])c2c(c1[H])C([H])([H])C([H])([H])[C@@]([H])(c1c([H])c([H])c([H])c([H])c1[H])[C@@]2([H])c1c([H])c([H])c(OC([H])([H])C([H])([H])N2C([H])([H])C([H])(C([H])([H])F)C2([H])[H])c([H])c1F
     RDKit          3D

 62 66  0  0  0  0  0  0  0  0999 V2000
   -5.8439    4.4977   -0.4206 O   0  0  0  0  0  0  0  0  0  0  0  0
   -4.9172    3.5235   -0.1187 C   0  0  0  0  0  0  0  0  0  0  0  0
   -3.8583    3.2668   -0.9608 C   0  0  0  0  0  0  0  0  0  0  0  0
   -2.9197    2.2913   -0.6711 C   0  0  0  0  0  0  0  0  0  0  0  0
   -3.0526    1.5802    0.4649 C   0  0  0  0  0  0  0  0  0  0  0  0
   -2.1085    0.5103    0.8790 C   0  0  1  0  0  0  0  0  0  0  0  0
   -2.7627   -0.7489    1.2597 C   0  0  1  0  0  0  0  0  0  0  0  0
   -3.8926   -0.5165    2.2677 C   0  0  0  0  0  0  0  0  0  0  0  0
   -4.1351    0.9420    2.5617 C   0  0  0  0  0  0  0  0  0  0  0  0
   -4.0952    1.8002    1.3400 C   0  0  0  0  0  0  0  0  0  0  0  0
   -5.0153    2.7697    1.0375 C   0  0  0  0  0  0  0  0  0  0  0  0
   -3.2658   -1.6841    0.2707 C   0  0  0  0  0  0  0  0  0  0  0  0
   -2.8289   -3.0185    0.2419 C   0  0  0  0  0  0  0  0  0  0  0  0
   -3.3226   -3.9197   -0.6712 C   0  0  0  0  0  0  0  0  0  0  0  0
   -4.2676   -3.5442   -1.5944 C   0  0  0  0  0  0  0  0  0  0  0  0
   -4.7204   -2.2519   -1.6003 C   0  0  0  0  0  0  0  0  0  0  0  0
   -4.2022   -1.3675   -0.6663 C   0  0  0  0  0  0  0  0  0  0  0  0
   -0.8526    0.4400    0.1745 C   0  0  0  0  0  0  0  0  0  0  0  0
   -0.5398   -0.3034   -0.9428 C   0  0  0  0  0  0  0  0  0  0  0  0
    0.6797   -0.3076   -1.5681 C   0  0  0  0  0  0  0  0  0  0  0  0
    1.7234    0.4867   -1.0758 C   0  0  0  0  0  0  0  0  0  0  0  0
    2.9087    0.4399   -1.7408 O   0  0  0  0  0  0  0  0  0  0  0  0
    4.1299    1.0504   -1.5310 C   0  0  0  0  0  0  0  0  0  0  0  0
    4.8608    0.7090   -0.2812 C   0  0  0  0  0  0  0  0  0  0  0  0
    5.1753   -0.6631   -0.1258 N   0  0  0  0  0  0  0  0  0  0  0  0
    6.1056   -1.3193   -0.9392 C   0  0  0  0  0  0  0  0  0  0  0  0
    6.9525   -1.6440    0.2595 C   0  0  0  0  0  0  0  0  0  0  0  0
    8.1870   -0.7784    0.4488 C   0  0  0  0  0  0  0  0  0  0  0  0
    8.8052   -1.2577    1.6072 F   0  0  0  0  0  0  0  0  0  0  0  0
    5.7811   -1.1429    1.0540 C   0  0  0  0  0  0  0  0  0  0  0  0
    1.4613    1.2508    0.0392 C   0  0  0  0  0  0  0  0  0  0  0  0
    0.2224    1.2240    0.6352 C   0  0  0  0  0  0  0  0  0  0  0  0
    0.0438    1.9995    1.7177 F   0  0  0  0  0  0  0  0  0  0  0  0
   -6.6181    4.6775    0.2059 H   0  0  0  0  0  0  0  0  0  0  0  0
   -3.7377    3.8415   -1.8937 H   0  0  0  0  0  0  0  0  0  0  0  0
   -2.0839    2.1253   -1.3851 H   0  0  0  0  0  0  0  0  0  0  0  0
   -1.8021    0.9331    1.9469 H   0  0  0  0  0  0  0  0  0  0  0  0
   -1.9831   -1.3125    1.8810 H   0  0  0  0  0  0  0  0  0  0  0  0
   -4.8456   -0.9294    1.8848 H   0  0  0  0  0  0  0  0  0  0  0  0
   -3.6916   -1.0149    3.2337 H   0  0  0  0  0  0  0  0  0  0  0  0
   -3.3490    1.2927    3.2568 H   0  0  0  0  0  0  0  0  0  0  0  0
   -5.1025    1.0518    3.0406 H   0  0  0  0  0  0  0  0  0  0  0  0
   -5.8407    2.9352    1.7401 H   0  0  0  0  0  0  0  0  0  0  0  0
   -2.0942   -3.3390    0.9481 H   0  0  0  0  0  0  0  0  0  0  0  0
   -2.9921   -4.9621   -0.7050 H   0  0  0  0  0  0  0  0  0  0  0  0
   -4.6417   -4.2581   -2.2972 H   0  0  0  0  0  0  0  0  0  0  0  0
   -5.4775   -1.9168   -2.3273 H   0  0  0  0  0  0  0  0  0  0  0  0
   -4.5962   -0.3730   -0.7285 H   0  0  0  0  0  0  0  0  0  0  0  0
   -1.3089   -0.9207   -1.3716 H   0  0  0  0  0  0  0  0  0  0  0  0
    0.9027   -0.8983   -2.4427 H   0  0  0  0  0  0  0  0  0  0  0  0
    4.7825    1.0205   -2.4404 H   0  0  0  0  0  0  0  0  0  0  0  0
    3.8992    2.1653   -1.4468 H   0  0  0  0  0  0  0  0  0  0  0  0
    4.3273    1.0533    0.6021 H   0  0  0  0  0  0  0  0  0  0  0  0
    5.8306    1.3077   -0.3112 H   0  0  0  0  0  0  0  0  0  0  0  0
    5.7730   -2.2848   -1.4197 H   0  0  0  0  0  0  0  0  0  0  0  0
    6.6437   -0.6573   -1.6767 H   0  0  0  0  0  0  0  0  0  0  0  0
    7.1750   -2.7282    0.3917 H   0  0  0  0  0  0  0  0  0  0  0  0
    8.8757   -0.9020   -0.3964 H   0  0  0  0  0  0  0  0  0  0  0  0
    7.9045    0.2731    0.5513 H   0  0  0  0  0  0  0  0  0  0  0  0
    5.2679   -2.0200    1.5509 H   0  0  0  0  0  0  0  0  0  0  0  0
    6.1047   -0.3714    1.7934 H   0  0  0  0  0  0  0  0  0  0  0  0
    2.2424    1.8968    0.4427 H   0  0  0  0  0  0  0  0  0  0  0  0
  1  2  1  0
  2  3  2  0
  3  4  1  0
  4  5  2  0
  5  6  1  0
  6  7  1  0
  7  8  1  0
  8  9  1  0
  9 10  1  0
 10 11  2  0
  7 12  1  0
 12 13  2  0
 13 14  1  0
 14 15  2  0
 15 16  1  0
 16 17  2  0
  6 18  1  0
 18 19  2  0
 19 20  1  0
 20 21  2  0
 21 22  1  0
 22 23  1  0
 23 24  1  0
 24 25  1  0
 25 26  1  0
 26 27  1  0
 27 28  1  0
 28 29  1  0
 27 30  1  0
 21 31  1  0
 31 32  2  0
 32 33  1  0
 11  2  1  0
 17 12  1  0
 32 18  1  0
 10  5  1  0
 30 25  1  0
  1 34  1  0
  3 35  1  0
  4 36  1  0
  6 37  1  1
  7 38  1  1
  8 39  1  0
  8 40  1  0
  9 41  1  0
  9 42  1  0
 11 43  1  0
 13 44  1  0
 14 45  1  0
 15 46  1  0
 16 47  1  0
 17 48  1  0
 19 49  1  0
 20 50  1  0
 23 51  1  0
 23 52  1  0
 24 53  1  0
 24 54  1  0
 26 55  1  0
 26 56  1  0
 27 57  1  0
 28 58  1  0
 28 59  1  0
 30 60  1  0
 30 61  1  0
 31 62  1  0
M  END
$$$$
[H]c1c(N([H])C([H])([H])C([H])([H])N([H])C([H])([H])C([H])([H])C([H])([H])F)nc(OC([H])([H])[H])c([C@]2([H])c3c(c4c([H])c([H])c([H])c([H])c4n3[H])C([H])([H])[C@@]([H])(C([H])([H])[H])N2C([H])([H])C(F)(F)C([H])([H])[H])c1[H]
     RDKit          3D

 69 72  0  0  0  0  0  0  0  0999 V2000
    0.2037   -0.2479    2.4826 C   0  0  0  0  0  0  0  0  0  0  0  0
   -0.5668   -0.3718    1.3211 O   0  0  0  0  0  0  0  0  0  0  0  0
    0.0686   -0.6862    0.1142 C   0  0  0  0  0  0  0  0  0  0  0  0
    1.3897   -0.8641    0.0770 N   0  0  0  0  0  0  0  0  0  0  0  0
    2.0803   -1.1665   -1.0281 C   0  0  0  0  0  0  0  0  0  0  0  0
    3.4875   -1.3474   -1.0441 N   0  0  0  0  0  0  0  0  0  0  0  0
    4.3577   -1.2197    0.0905 C   0  0  0  0  0  0  0  0  0  0  0  0
    4.3887    0.1627    0.6935 C   0  0  0  0  0  0  0  0  0  0  0  0
    4.8325    1.1579   -0.2582 N   0  0  0  0  0  0  0  0  0  0  0  0
    6.2132    1.0292   -0.6258 C   0  0  0  0  0  0  0  0  0  0  0  0
    7.1815    1.3498    0.4723 C   0  0  0  0  0  0  0  0  0  0  0  0
    6.9964    2.7823    0.9247 C   0  0  0  0  0  0  0  0  0  0  0  0
    5.7291    2.9770    1.3895 F   0  0  0  0  0  0  0  0  0  0  0  0
    1.3593   -1.2995   -2.2004 C   0  0  0  0  0  0  0  0  0  0  0  0
   -0.0071   -1.1235   -2.2035 C   0  0  0  0  0  0  0  0  0  0  0  0
   -0.6641   -0.8136   -1.0373 C   0  0  0  0  0  0  0  0  0  0  0  0
   -2.1393   -0.6226   -1.0397 C   0  0  1  0  0  0  0  0  0  0  0  0
   -2.8160   -1.4748   -0.0567 N   0  0  0  0  0  0  0  0  0  0  0  0
   -2.4037   -2.8308   -0.2004 C   0  0  0  0  0  0  0  0  0  0  0  0
   -2.8879   -3.8372    0.7617 C   0  0  0  0  0  0  0  0  0  0  0  0
   -2.2374   -5.1820    0.3352 C   0  0  0  0  0  0  0  0  0  0  0  0
   -2.4618   -3.6298    2.0581 F   0  0  0  0  0  0  0  0  0  0  0  0
   -4.2210   -4.0944    0.7998 F   0  0  0  0  0  0  0  0  0  0  0  0
   -4.2114   -1.2032   -0.1923 C   0  0  2  0  0  0  0  0  0  0  0  0
   -4.6879   -1.1248   -1.6274 C   0  0  0  0  0  0  0  0  0  0  0  0
   -4.4997    0.1144    0.5528 C   0  0  0  0  0  0  0  0  0  0  0  0
   -3.5797    1.1382    0.0078 C   0  0  0  0  0  0  0  0  0  0  0  0
   -2.4762    0.7841   -0.7355 C   0  0  0  0  0  0  0  0  0  0  0  0
   -1.8631    1.9267   -1.0706 N   0  0  0  0  0  0  0  0  0  0  0  0
   -2.5299    2.9812   -0.5725 C   0  0  0  0  0  0  0  0  0  0  0  0
   -2.3159    4.3398   -0.6338 C   0  0  0  0  0  0  0  0  0  0  0  0
   -3.1791    5.2378   -0.0164 C   0  0  0  0  0  0  0  0  0  0  0  0
   -4.2843    4.7791    0.6809 C   0  0  0  0  0  0  0  0  0  0  0  0
   -4.4850    3.4189    0.7333 C   0  0  0  0  0  0  0  0  0  0  0  0
   -3.6333    2.5313    0.1240 C   0  0  0  0  0  0  0  0  0  0  0  0
   -0.0091    0.7348    2.9409 H   0  0  0  0  0  0  0  0  0  0  0  0
    1.3006   -0.2714    2.2972 H   0  0  0  0  0  0  0  0  0  0  0  0
    0.0159   -1.0948    3.1972 H   0  0  0  0  0  0  0  0  0  0  0  0
    3.9568   -1.5991   -1.9654 H   0  0  0  0  0  0  0  0  0  0  0  0
    5.3705   -1.5661   -0.1179 H   0  0  0  0  0  0  0  0  0  0  0  0
    3.9537   -1.8848    0.9017 H   0  0  0  0  0  0  0  0  0  0  0  0
    3.3869    0.4339    1.0348 H   0  0  0  0  0  0  0  0  0  0  0  0
    5.1345    0.1237    1.5112 H   0  0  0  0  0  0  0  0  0  0  0  0
    4.2249    1.2677   -1.0747 H   0  0  0  0  0  0  0  0  0  0  0  0
    6.4507    0.0220   -1.0448 H   0  0  0  0  0  0  0  0  0  0  0  0
    6.4004    1.7488   -1.4527 H   0  0  0  0  0  0  0  0  0  0  0  0
    7.0991    0.6819    1.3443 H   0  0  0  0  0  0  0  0  0  0  0  0
    8.2049    1.2264    0.0433 H   0  0  0  0  0  0  0  0  0  0  0  0
    7.7290    3.0378    1.7236 H   0  0  0  0  0  0  0  0  0  0  0  0
    7.2293    3.4425    0.0536 H   0  0  0  0  0  0  0  0  0  0  0  0
    1.9040   -1.5483   -3.1257 H   0  0  0  0  0  0  0  0  0  0  0  0
   -0.5596   -1.2352   -3.1521 H   0  0  0  0  0  0  0  0  0  0  0  0
   -2.5315   -0.9395   -2.0255 H   0  0  0  0  0  0  0  0  0  0  0  0
   -2.7515   -3.1731   -1.2258 H   0  0  0  0  0  0  0  0  0  0  0  0
   -1.2959   -2.9248   -0.2745 H   0  0  0  0  0  0  0  0  0  0  0  0
   -2.7882   -6.0241    0.8028 H   0  0  0  0  0  0  0  0  0  0  0  0
   -2.2644   -5.2333   -0.7613 H   0  0  0  0  0  0  0  0  0  0  0  0
   -1.1858   -5.2059    0.7087 H   0  0  0  0  0  0  0  0  0  0  0  0
   -4.8944   -1.9222    0.3051 H   0  0  0  0  0  0  0  0  0  0  0  0
   -4.2665   -2.0046   -2.1464 H   0  0  0  0  0  0  0  0  0  0  0  0
   -5.7944   -1.2792   -1.6161 H   0  0  0  0  0  0  0  0  0  0  0  0
   -4.5220   -0.1693   -2.1180 H   0  0  0  0  0  0  0  0  0  0  0  0
   -4.2976   -0.1137    1.6183 H   0  0  0  0  0  0  0  0  0  0  0  0
   -5.5700    0.3667    0.4016 H   0  0  0  0  0  0  0  0  0  0  0  0
   -0.9790    1.9668   -1.6476 H   0  0  0  0  0  0  0  0  0  0  0  0
   -1.4675    4.7544   -1.1646 H   0  0  0  0  0  0  0  0  0  0  0  0
   -3.0200    6.3082   -0.0584 H   0  0  0  0  0  0  0  0  0  0  0  0
   -4.9664    5.4863    1.1682 H   0  0  0  0  0  0  0  0  0  0  0  0
   -5.3349    3.0167    1.2662 H   0  0  0  0  0  0  0  0  0  0  0  0
  1  2  1  0
  2  3  1  0
  3  4  2  0
  4  5  1  0
  5  6  1  0
  6  7  1  0
  7  8  1  0
  8  9  1  0
  9 10  1  0
 10 11  1  0
 11 12  1  0
 12 13  1  0
  5 14  2  0
 14 15  1  0
 15 16  2  0
 16 17  1  0
 17 18  1  0
 18 19  1  0
 19 20  1  0
 20 21  1  0
 20 22  1  0
 20 23  1  0
 18 24  1  0
 24 25  1  0
 24 26  1  0
 26 27  1  0
 27 28  2  0
 28 29  1  0
 29 30  1  0
 30 31  2  0
 31 32  1  0
 32 33  2  0
 33 34  1  0
 34 35  2  0
 16  3  1  0
 28 17  1  0
 35 30  1  0
 35 27  1  0
  1 36  1  0
  1 37  1  0
  1 38  1  0
  6 39  1  0
  7 40  1  0
  7 41  1  0
  8 42  1  0
  8 43  1  0
  9 44  1  0
 10 45  1  0
 10 46  1  0
 11 47  1  0
 11 48  1  0
 12 49  1  0
 12 50  1  0
 14 51  1  0
 15 52  1  0
 17 53  1  6
 19 54  1  0
 19 55  1  0
 21 56  1  0
 21 57  1  0
 21 58  1  0
 24 59  1  1
 25 60  1  0
 25 61  1  0
 25 62  1  0
 26 63  1  0
 26 64  1  0
 29 65  1  0
 31 66  1  0
 32 67  1  0
 33 68  1  0
 34 69  1  0
M  END
$$$$
[H]C#C[C@]1(O[H])C([H])([H])C([H])([H])[C@@]2([H])[C@@]3([H])C(=C4C(=C([H])C(=O)C([H])([H])C4([H])[H])C([H])([H])C3([H])[H])[C@@]([H])(c3c([H])c([H])c(N(C([H])([H])[H])C([H])([H])C([H])([H])OC4([H])C([H])([H])C([H])([H])[C@]5(C([H])([H])[H])[C@@]6([H])C([H])([H])[C@]([H])(O[H])[C@@]7(C([H])([H])[H])[C@@]([H])(C([H])([H])C([H])([H])[C@]7([H])[C@]([H])(C([H])([H])[H])C([H])([H])C([H])([H])C(=O)O[H])[C@]6([H])[C@]([H])(O[H])C([H])([H])[C@]5([H])C4([H])[H])c([H])c3[H])C([H])([H])[C@]12C([H])([H])[H]
     RDKit          3D

134142  0  0  0  0  0  0  0  0999 V2000
   12.0121   -1.1473    0.2138 C   0  0  0  0  0  0  0  0  0  0  0  0
   10.9089   -0.0779   -0.0446 C   0  0  2  0  0  0  0  0  0  0  0  0
   11.3761    1.1109    0.7282 C   0  0  0  0  0  0  0  0  0  0  0  0
   12.7410    1.5543    0.1840 C   0  0  0  0  0  0  0  0  0  0  0  0
   12.6884    1.9675   -1.2199 C   0  0  0  0  0  0  0  0  0  0  0  0
   12.4268    3.3255   -1.4628 O   0  0  0  0  0  0  0  0  0  0  0  0
   12.8641    1.1669   -2.1495 O   0  0  0  0  0  0  0  0  0  0  0  0
    9.6482   -0.7146    0.4241 C   0  0  1  0  0  0  0  0  0  0  0  0
    9.5970   -1.0680    1.8723 C   0  0  0  0  0  0  0  0  0  0  0  0
    8.1754   -0.7710    2.3361 C   0  0  0  0  0  0  0  0  0  0  0  0
    7.4280   -0.8686    1.0507 C   0  0  1  0  0  0  0  0  0  0  0  0
    6.0830   -0.2518    1.0100 C   0  0  2  0  0  0  0  0  0  0  0  0
    5.1686   -1.0592    1.9569 C   0  0  2  0  0  0  0  0  0  0  0  0
    5.0211   -2.3387    1.4733 O   0  0  0  0  0  0  0  0  0  0  0  0
    3.8564   -0.2996    1.9643 C   0  0  0  0  0  0  0  0  0  0  0  0
    3.2180   -0.2991    0.5979 C   0  0  2  0  0  0  0  0  0  0  0  0
    2.6097   -1.6371    0.2893 C   0  0  0  0  0  0  0  0  0  0  0  0
    1.4444   -1.3431   -0.7163 C   0  0  0  0  0  0  0  0  0  0  0  0
    2.0683   -0.4492   -1.7350 C   0  0  0  0  0  0  0  0  0  0  0  0
    3.5614   -0.4892   -1.7953 C   0  0  0  0  0  0  0  0  0  0  0  0
    4.1573    0.1027   -0.5090 C   0  0  1  0  0  0  0  0  0  0  0  0
    4.1278    1.6104   -0.5926 C   0  0  0  0  0  0  0  0  0  0  0  0
    5.5213   -0.4753   -0.3693 C   0  0  1  0  0  0  0  0  0  0  0  0
    6.4293   -0.0147   -1.4612 C   0  0  0  0  0  0  0  0  0  0  0  0
    7.8501   -0.4844   -1.2949 C   0  0  2  0  0  0  0  0  0  0  0  0
    7.9117   -1.8491   -1.4692 O   0  0  0  0  0  0  0  0  0  0  0  0
    8.3516   -0.0979    0.0921 C   0  0  2  0  0  0  0  0  0  0  0  0
    8.2347    1.3688    0.2699 C   0  0  0  0  0  0  0  0  0  0  0  0
    0.4442   -0.7024   -0.0397 O   0  0  0  0  0  0  0  0  0  0  0  0
   -0.6856   -1.3483    0.2597 C   0  0  0  0  0  0  0  0  0  0  0  0
   -1.6505   -1.8653   -0.7192 C   0  0  0  0  0  0  0  0  0  0  0  0
   -2.3086   -0.9432   -1.5978 N   0  0  0  0  0  0  0  0  0  0  0  0
   -1.5831   -0.3291   -2.6977 C   0  0  0  0  0  0  0  0  0  0  0  0
   -3.6895   -0.5473   -1.4263 C   0  0  0  0  0  0  0  0  0  0  0  0
   -4.4211   -0.9743   -0.3534 C   0  0  0  0  0  0  0  0  0  0  0  0
   -5.7610   -0.6158   -0.1676 C   0  0  0  0  0  0  0  0  0  0  0  0
   -6.4187    0.1897   -1.0585 C   0  0  0  0  0  0  0  0  0  0  0  0
   -5.6492    0.6189   -2.1544 C   0  0  0  0  0  0  0  0  0  0  0  0
   -4.3351    0.2624   -2.3286 C   0  0  0  0  0  0  0  0  0  0  0  0
   -7.8439    0.5929   -0.9537 C   0  0  1  0  0  0  0  0  0  0  0  0
   -8.7510   -0.4111   -1.6252 C   0  0  0  0  0  0  0  0  0  0  0  0
   -9.7661   -1.0947   -0.8294 C   0  0  1  0  0  0  0  0  0  0  0  0
   -9.3316   -2.4467   -0.2941 C   0  0  0  0  0  0  0  0  0  0  0  0
  -10.2611   -0.1848    0.3033 C   0  0  1  0  0  0  0  0  0  0  0  0
  -11.3641   -0.9705    0.8807 C   0  0  0  0  0  0  0  0  0  0  0  0
  -12.0174   -1.6123   -0.3224 C   0  0  0  0  0  0  0  0  0  0  0  0
  -11.0905   -1.3373   -1.5170 C   0  0  2  0  0  0  0  0  0  0  0  0
  -11.0736   -2.4892   -2.2894 O   0  0  0  0  0  0  0  0  0  0  0  0
  -11.5502   -0.2207   -2.2965 C   0  0  0  0  0  0  0  0  0  0  0  0
  -11.9503    0.6950   -2.9378 C   0  0  0  0  0  0  0  0  0  0  0  0
   -9.0328   -0.0179    1.1785 C   0  0  2  0  0  0  0  0  0  0  0  0
   -9.2789    0.2502    2.5969 C   0  0  0  0  0  0  0  0  0  0  0  0
   -9.3297    1.6785    3.0053 C   0  0  0  0  0  0  0  0  0  0  0  0
   -8.2029    2.3954    2.3419 C   0  0  0  0  0  0  0  0  0  0  0  0
   -7.5499    3.3283    3.0462 C   0  0  0  0  0  0  0  0  0  0  0  0
   -6.4619    3.9975    2.3295 C   0  0  0  0  0  0  0  0  0  0  0  0
   -5.4155    4.2793    2.9118 O   0  0  0  0  0  0  0  0  0  0  0  0
   -6.7332    4.2943    0.8835 C   0  0  0  0  0  0  0  0  0  0  0  0
   -6.9502    2.9631    0.2253 C   0  0  0  0  0  0  0  0  0  0  0  0
   -7.8099    2.0769    0.9734 C   0  0  0  0  0  0  0  0  0  0  0  0
   -8.2060    0.9378    0.4063 C   0  0  0  0  0  0  0  0  0  0  0  0
   12.6967   -1.2351   -0.6322 H   0  0  0  0  0  0  0  0  0  0  0  0
   12.5879   -0.9028    1.1163 H   0  0  0  0  0  0  0  0  0  0  0  0
   11.5356   -2.1389    0.4214 H   0  0  0  0  0  0  0  0  0  0  0  0
   10.9267    0.0781   -1.1391 H   0  0  0  0  0  0  0  0  0  0  0  0
   11.6182    0.7595    1.7731 H   0  0  0  0  0  0  0  0  0  0  0  0
   10.7629    1.9986    0.7213 H   0  0  0  0  0  0  0  0  0  0  0  0
   13.4982    0.7579    0.3686 H   0  0  0  0  0  0  0  0  0  0  0  0
   13.0552    2.4101    0.8115 H   0  0  0  0  0  0  0  0  0  0  0  0
   12.8569    4.0277   -0.8550 H   0  0  0  0  0  0  0  0  0  0  0  0
    9.6040   -1.7544   -0.1161 H   0  0  0  0  0  0  0  0  0  0  0  0
   10.2964   -0.5517    2.5275 H   0  0  0  0  0  0  0  0  0  0  0  0
    9.7344   -2.1613    2.0515 H   0  0  0  0  0  0  0  0  0  0  0  0
    7.7922   -1.5582    3.0244 H   0  0  0  0  0  0  0  0  0  0  0  0
    8.0764    0.1910    2.8353 H   0  0  0  0  0  0  0  0  0  0  0  0
    7.3761   -1.9233    0.7061 H   0  0  0  0  0  0  0  0  0  0  0  0
    6.0307    0.7685    1.3805 H   0  0  0  0  0  0  0  0  0  0  0  0
    5.6055   -1.0008    2.9651 H   0  0  0  0  0  0  0  0  0  0  0  0
    5.6196   -2.9411    1.9779 H   0  0  0  0  0  0  0  0  0  0  0  0
    4.0154    0.7082    2.3479 H   0  0  0  0  0  0  0  0  0  0  0  0
    3.1737   -0.8446    2.6454 H   0  0  0  0  0  0  0  0  0  0  0  0
    2.3861    0.4575    0.6304 H   0  0  0  0  0  0  0  0  0  0  0  0
    3.2932   -2.2971   -0.2766 H   0  0  0  0  0  0  0  0  0  0  0  0
    2.2361   -2.1812    1.1533 H   0  0  0  0  0  0  0  0  0  0  0  0
    1.2217   -2.3295   -1.1162 H   0  0  0  0  0  0  0  0  0  0  0  0
    1.7557    0.6202   -1.6077 H   0  0  0  0  0  0  0  0  0  0  0  0
    1.6982   -0.7177   -2.7643 H   0  0  0  0  0  0  0  0  0  0  0  0
    3.9444   -1.4856   -2.0214 H   0  0  0  0  0  0  0  0  0  0  0  0
    3.8689    0.1747   -2.6310 H   0  0  0  0  0  0  0  0  0  0  0  0
    4.8232    2.0797    0.1313 H   0  0  0  0  0  0  0  0  0  0  0  0
    3.1228    2.0126   -0.3344 H   0  0  0  0  0  0  0  0  0  0  0  0
    4.3323    1.9124   -1.6403 H   0  0  0  0  0  0  0  0  0  0  0  0
    5.4251   -1.5816   -0.4817 H   0  0  0  0  0  0  0  0  0  0  0  0
    6.3425    1.0672   -1.6895 H   0  0  0  0  0  0  0  0  0  0  0  0
    6.0613   -0.5235   -2.4031 H   0  0  0  0  0  0  0  0  0  0  0  0
    8.4683    0.0008   -2.0625 H   0  0  0  0  0  0  0  0  0  0  0  0
    7.2586   -2.1799   -2.1483 H   0  0  0  0  0  0  0  0  0  0  0  0
    8.8257    1.8733   -0.5363 H   0  0  0  0  0  0  0  0  0  0  0  0
    8.4794    1.7666    1.2479 H   0  0  0  0  0  0  0  0  0  0  0  0
    7.1876    1.6889    0.0561 H   0  0  0  0  0  0  0  0  0  0  0  0
   -1.2842   -0.6147    0.9284 H   0  0  0  0  0  0  0  0  0  0  0  0
   -0.5125   -2.1829    1.0304 H   0  0  0  0  0  0  0  0  0  0  0  0
   -1.1589   -2.6944   -1.3516 H   0  0  0  0  0  0  0  0  0  0  0  0
   -2.4209   -2.4495   -0.1675 H   0  0  0  0  0  0  0  0  0  0  0  0
   -0.6901   -0.9393   -2.9736 H   0  0  0  0  0  0  0  0  0  0  0  0
   -1.3811    0.7378   -2.5472 H   0  0  0  0  0  0  0  0  0  0  0  0
   -2.2166   -0.4009   -3.6357 H   0  0  0  0  0  0  0  0  0  0  0  0
   -4.0073   -1.6062    0.4189 H   0  0  0  0  0  0  0  0  0  0  0  0
   -6.2596   -0.9919    0.7058 H   0  0  0  0  0  0  0  0  0  0  0  0
   -6.1193    1.2646   -2.8996 H   0  0  0  0  0  0  0  0  0  0  0  0
   -3.7924    0.6332   -3.1924 H   0  0  0  0  0  0  0  0  0  0  0  0
   -7.9206    1.4900   -1.6577 H   0  0  0  0  0  0  0  0  0  0  0  0
   -8.1069   -1.2036   -2.1110 H   0  0  0  0  0  0  0  0  0  0  0  0
   -9.2613    0.0619   -2.5072 H   0  0  0  0  0  0  0  0  0  0  0  0
   -9.6464   -2.6409    0.7275 H   0  0  0  0  0  0  0  0  0  0  0  0
   -8.2302   -2.5647   -0.3182 H   0  0  0  0  0  0  0  0  0  0  0  0
   -9.7379   -3.2486   -0.9429 H   0  0  0  0  0  0  0  0  0  0  0  0
  -10.6080    0.7446   -0.1425 H   0  0  0  0  0  0  0  0  0  0  0  0
  -12.1136   -0.2389    1.3048 H   0  0  0  0  0  0  0  0  0  0  0  0
  -11.1360   -1.6564    1.6911 H   0  0  0  0  0  0  0  0  0  0  0  0
  -12.9821   -1.1223   -0.5755 H   0  0  0  0  0  0  0  0  0  0  0  0
  -12.2132   -2.6853   -0.2022 H   0  0  0  0  0  0  0  0  0  0  0  0
  -11.9124   -2.5606   -2.7813 H   0  0  0  0  0  0  0  0  0  0  0  0
  -12.3237    1.5044   -3.5185 H   0  0  0  0  0  0  0  0  0  0  0  0
   -8.4954   -1.0105    1.1265 H   0  0  0  0  0  0  0  0  0  0  0  0
  -10.2727   -0.1952    2.8592 H   0  0  0  0  0  0  0  0  0  0  0  0
   -8.4791   -0.2463    3.2046 H   0  0  0  0  0  0  0  0  0  0  0  0
   -9.2468    1.7886    4.0897 H   0  0  0  0  0  0  0  0  0  0  0  0
  -10.2554    2.1814    2.6012 H   0  0  0  0  0  0  0  0  0  0  0  0
   -7.7893    3.5734    4.0566 H   0  0  0  0  0  0  0  0  0  0  0  0
   -7.6073    4.9818    0.7674 H   0  0  0  0  0  0  0  0  0  0  0  0
   -5.8235    4.7823    0.4555 H   0  0  0  0  0  0  0  0  0  0  0  0
   -7.1315    3.0616   -0.8606 H   0  0  0  0  0  0  0  0  0  0  0  0
   -5.9092    2.4816    0.2609 H   0  0  0  0  0  0  0  0  0  0  0  0
  1  2  1  0
  2  3  1  0
  3  4  1  0
  4  5  1  0
  5  6  1  0
  5  7  2  0
  2  8  1  0
  8  9  1  0
  9 10  1  0
 10 11  1  0
 11 12  1  0
 12 13  1  0
 13 14  1  0
 13 15  1  0
 15 16  1  0
 16 17  1  0
 17 18  1  0
 18 19  1  0
 19 20  1  0
 20 21  1  0
 21 22  1  6
 21 23  1  0
 23 24  1  0
 24 25  1  0
 25 26  1  0
 25 27  1  0
 27 28  1  1
 18 29  1  0
 29 30  1  0
 30 31  1  0
 31 32  1  0
 32 33  1  0
 32 34  1  0
 34 35  2  0
 35 36  1  0
 36 37  2  0
 37 38  1  0
 38 39  2  0
 37 40  1  0
 40 41  1  0
 41 42  1  0
 42 43  1  1
 42 44  1  0
 44 45  1  0
 45 46  1  0
 46 47  1  0
 47 48  1  0
 47 49  1  6
 49 50  3  0
 44 51  1  0
 51 52  1  0
 52 53  1  0
 53 54  1  0
 54 55  2  0
 55 56  1  0
 56 57  2  0
 56 58  1  0
 58 59  1  0
 59 60  1  0
 60 61  2  0
 27  8  1  0
 39 34  1  0
 61 40  1  0
 27 11  1  0
 47 42  1  0
 61 51  1  0
 23 12  1  0
 60 54  1  0
 21 16  1  0
  1 62  1  0
  1 63  1  0
  1 64  1  0
  2 65  1  6
  3 66  1  0
  3 67  1  0
  4 68  1  0
  4 69  1  0
  6 70  1  0
  8 71  1  6
  9 72  1  0
  9 73  1  0
 10 74  1  0
 10 75  1  0
 11 76  1  6
 12 77  1  1
 13 78  1  1
 14 79  1  0
 15 80  1  0
 15 81  1  0
 16 82  1  1
 17 83  1  0
 17 84  1  0
 18 85  1  0
 19 86  1  0
 19 87  1  0
 20 88  1  0
 20 89  1  0
 22 90  1  0
 22 91  1  0
 22 92  1  0
 23 93  1  6
 24 94  1  0
 24 95  1  0
 25 96  1  6
 26 97  1  0
 28 98  1  0
 28 99  1  0
 28100  1  0
 30101  1  0
 30102  1  0
 31103  1  0
 31104  1  0
 33105  1  0
 33106  1  0
 33107  1  0
 35108  1  0
 36109  1  0
 38110  1  0
 39111  1  0
 40112  1  6
 41113  1  0
 41114  1  0
 43115  1  0
 43116  1  0
 43117  1  0
 44118  1  6
 45119  1  0
 45120  1  0
 46121  1  0
 46122  1  0
 48123  1  0
 50124  1  0
 51125  1  1
 52126  1  0
 52127  1  0
 53128  1  0
 53129  1  0
 55130  1  0
 58131  1  0
 58132  1  0
 59133  1  0
 59134  1  0
M  END
$$$$
[H]Oc1c([H])c([H])c2c(c1[H])C([H])([H])C([H])([H])C([H])([H])C(c1c([H])nc(OC([H])([H])[H])c([H])c1[H])=C2c1c([H])c([H])c(O[C@]2([H])C([H])([H])N(C([H])([H])C([H])([H])C([H])([H])F)C([H])([H])C2([H])[H])c([H])c1[H]
     RDKit          3D

 69 73  0  0  0  0  0  0  0  0999 V2000
   -2.2088   -5.7585    2.2422 C   0  0  0  0  0  0  0  0  0  0  0  0
   -3.0658   -5.4708    1.1269 O   0  0  0  0  0  0  0  0  0  0  0  0
   -3.2737   -4.1093    0.8316 C   0  0  0  0  0  0  0  0  0  0  0  0
   -4.0819   -3.7775   -0.2156 C   0  0  0  0  0  0  0  0  0  0  0  0
   -4.3033   -2.4616   -0.5274 C   0  0  0  0  0  0  0  0  0  0  0  0
   -3.7319   -1.4158    0.1875 C   0  0  0  0  0  0  0  0  0  0  0  0
   -2.9305   -1.8265    1.2285 C   0  0  0  0  0  0  0  0  0  0  0  0
   -2.7063   -3.1319    1.5426 N   0  0  0  0  0  0  0  0  0  0  0  0
   -3.9622   -0.0228   -0.0076 C   0  0  0  0  0  0  0  0  0  0  0  0
   -2.9650    0.8126   -0.2556 C   0  0  0  0  0  0  0  0  0  0  0  0
   -1.6071    0.3294   -0.3406 C   0  0  0  0  0  0  0  0  0  0  0  0
   -0.6286    0.8536    0.4558 C   0  0  0  0  0  0  0  0  0  0  0  0
    0.6705    0.4397    0.3350 C   0  0  0  0  0  0  0  0  0  0  0  0
    1.0230   -0.5269   -0.6047 C   0  0  0  0  0  0  0  0  0  0  0  0
    2.3201   -0.9777   -0.7663 O   0  0  0  0  0  0  0  0  0  0  0  0
    3.4501   -0.5783   -0.0673 C   0  0  1  0  0  0  0  0  0  0  0  0
    4.1997   -1.7798    0.5253 C   0  0  0  0  0  0  0  0  0  0  0  0
    5.6487   -1.6113    0.0807 C   0  0  0  0  0  0  0  0  0  0  0  0
    5.7125   -0.2053   -0.2357 N   0  0  0  0  0  0  0  0  0  0  0  0
    6.9105    0.1972   -0.9062 C   0  0  0  0  0  0  0  0  0  0  0  0
    8.0601    0.0585    0.0827 C   0  0  0  0  0  0  0  0  0  0  0  0
    7.7155    0.9760    1.2518 C   0  0  0  0  0  0  0  0  0  0  0  0
    7.5923    2.2847    0.8055 F   0  0  0  0  0  0  0  0  0  0  0  0
    4.5078   -0.0200   -1.0050 C   0  0  0  0  0  0  0  0  0  0  0  0
    0.0360   -1.0607   -1.4137 C   0  0  0  0  0  0  0  0  0  0  0  0
   -1.2468   -0.6153   -1.2554 C   0  0  0  0  0  0  0  0  0  0  0  0
   -3.0373    2.2830   -0.4999 C   0  0  0  0  0  0  0  0  0  0  0  0
   -2.0066    2.7871   -1.2726 C   0  0  0  0  0  0  0  0  0  0  0  0
   -1.9341    4.1309   -1.5668 C   0  0  0  0  0  0  0  0  0  0  0  0
   -2.8903    4.9827   -1.0928 C   0  0  0  0  0  0  0  0  0  0  0  0
   -2.8061    6.3317   -1.3936 O   0  0  0  0  0  0  0  0  0  0  0  0
   -3.9331    4.4652   -0.3122 C   0  0  0  0  0  0  0  0  0  0  0  0
   -4.0189    3.1128   -0.0077 C   0  0  0  0  0  0  0  0  0  0  0  0
   -5.2368    2.8864    0.8055 C   0  0  0  0  0  0  0  0  0  0  0  0
   -5.4270    1.4632    1.2376 C   0  0  0  0  0  0  0  0  0  0  0  0
   -5.4045    0.4603    0.1171 C   0  0  0  0  0  0  0  0  0  0  0  0
   -1.7253   -6.7314    2.1742 H   0  0  0  0  0  0  0  0  0  0  0  0
   -1.4249   -4.9835    2.3662 H   0  0  0  0  0  0  0  0  0  0  0  0
   -2.8090   -5.7105    3.1987 H   0  0  0  0  0  0  0  0  0  0  0  0
   -4.5420   -4.5708   -0.7929 H   0  0  0  0  0  0  0  0  0  0  0  0
   -4.9426   -2.1966   -1.3578 H   0  0  0  0  0  0  0  0  0  0  0  0
   -2.4666   -1.0716    1.8499 H   0  0  0  0  0  0  0  0  0  0  0  0
   -0.8180    1.6301    1.2358 H   0  0  0  0  0  0  0  0  0  0  0  0
    1.4309    0.8749    0.9828 H   0  0  0  0  0  0  0  0  0  0  0  0
    3.3065    0.1600    0.7177 H   0  0  0  0  0  0  0  0  0  0  0  0
    3.7573   -2.6706    0.0622 H   0  0  0  0  0  0  0  0  0  0  0  0
    4.1457   -1.7764    1.6206 H   0  0  0  0  0  0  0  0  0  0  0  0
    5.8374   -2.2311   -0.8155 H   0  0  0  0  0  0  0  0  0  0  0  0
    6.3509   -1.8392    0.9007 H   0  0  0  0  0  0  0  0  0  0  0  0
    6.8177    1.2274   -1.2480 H   0  0  0  0  0  0  0  0  0  0  0  0
    7.1815   -0.4817   -1.7606 H   0  0  0  0  0  0  0  0  0  0  0  0
    9.0149    0.4208   -0.3625 H   0  0  0  0  0  0  0  0  0  0  0  0
    8.1358   -0.9626    0.4631 H   0  0  0  0  0  0  0  0  0  0  0  0
    8.5331    0.9888    1.9890 H   0  0  0  0  0  0  0  0  0  0  0  0
    6.7937    0.5983    1.7309 H   0  0  0  0  0  0  0  0  0  0  0  0
    4.3946    1.0647   -1.1884 H   0  0  0  0  0  0  0  0  0  0  0  0
    4.5304   -0.6224   -1.9192 H   0  0  0  0  0  0  0  0  0  0  0  0
    0.3139   -1.8006   -2.1367 H   0  0  0  0  0  0  0  0  0  0  0  0
   -1.9589   -1.0923   -1.9570 H   0  0  0  0  0  0  0  0  0  0  0  0
   -1.2839    2.0716   -1.6468 H   0  0  0  0  0  0  0  0  0  0  0  0
   -1.1280    4.4931   -2.1636 H   0  0  0  0  0  0  0  0  0  0  0  0
   -3.2670    6.6620   -2.2441 H   0  0  0  0  0  0  0  0  0  0  0  0
   -4.6619    5.1783    0.0356 H   0  0  0  0  0  0  0  0  0  0  0  0
   -6.1467    3.1692    0.1979 H   0  0  0  0  0  0  0  0  0  0  0  0
   -5.2609    3.5135    1.7122 H   0  0  0  0  0  0  0  0  0  0  0  0
   -6.3102    1.3711    1.8811 H   0  0  0  0  0  0  0  0  0  0  0  0
   -4.5565    1.2346    1.9176 H   0  0  0  0  0  0  0  0  0  0  0  0
   -6.0642   -0.4060    0.2596 H   0  0  0  0  0  0  0  0  0  0  0  0
   -5.6178    0.9839   -0.8318 H   0  0  0  0  0  0  0  0  0  0  0  0
  1  2  1  0
  2  3  1  0
  3  4  2  0
  4  5  1  0
  5  6  2  0
  6  7  1  0
  7  8  2  0
  6  9  1  0
  9 10  2  0
 10 11  1  0
 11 12  2  0
 12 13  1  0
 13 14  2  0
 14 15  1  0
 15 16  1  0
 16 17  1  0
 17 18  1  0
 18 19  1  0
 19 20  1  0
 20 21  1  0
 21 22  1  0
 22 23  1  0
 19 24  1  0
 14 25  1  0
 25 26  2  0
 10 27  1  0
 27 28  2  0
 28 29  1  0
 29 30  2  0
 30 31  1  0
 30 32  1  0
 32 33  2  0
 33 34  1  0
 34 35  1  0
 35 36  1  0
  8  3  1  0
 36  9  1  0
 26 11  1  0
 33 27  1  0
 24 16  1  0
  1 37  1  0
  1 38  1  0
  1 39  1  0
  4 40  1  0
  5 41  1  0
  7 42  1  0
 12 43  1  0
 13 44  1  0
 16 45  1  1
 17 46  1  0
 17 47  1  0
 18 48  1  0
 18 49  1  0
 20 50  1  0
 20 51  1  0
 21 52  1  0
 21 53  1  0
 22 54  1  0
 22 55  1  0
 24 56  1  0
 24 57  1  0
 25 58  1  0
 26 59  1  0
 28 60  1  0
 29 61  1  0
 31 62  1  0
 32 63  1  0
 34 64  1  0
 34 65  1  0
 35 66  1  0
 35 67  1  0
 36 68  1  0
 36 69  1  0
M  END
$$$$
[H]Oc1c([H])c([H])c2c(c1[H])C([H])([H])C([H])([H])C([H])([H])C(c1c([H])c(F)c(OC([H])([H])C([H])([H])[H])c(F)c1[H])=C2c1c([H])c([H])c(O[C@]2([H])C([H])([H])N(C([H])([H])C([H])([H])C([H])([H])F)C([H])([H])C2([H])[H])c([H])c1[H]
     RDKit          3D

 73 77  0  0  0  0  0  0  0  0999 V2000
   -2.1067   -6.0143   -0.4902 C   0  0  0  0  0  0  0  0  0  0  0  0
   -2.8819   -5.2468   -1.5578 C   0  0  0  0  0  0  0  0  0  0  0  0
   -3.5626   -4.1786   -1.1956 O   0  0  0  0  0  0  0  0  0  0  0  0
   -3.5179   -2.9565   -0.6567 C   0  0  0  0  0  0  0  0  0  0  0  0
   -3.7264   -2.7647    0.7147 C   0  0  0  0  0  0  0  0  0  0  0  0
   -3.9928   -3.8551    1.4774 F   0  0  0  0  0  0  0  0  0  0  0  0
   -3.6763   -1.5261    1.2841 C   0  0  0  0  0  0  0  0  0  0  0  0
   -3.4158   -0.3572    0.5555 C   0  0  0  0  0  0  0  0  0  0  0  0
   -3.2121   -0.5482   -0.8021 C   0  0  0  0  0  0  0  0  0  0  0  0
   -3.2621   -1.7951   -1.3771 C   0  0  0  0  0  0  0  0  0  0  0  0
   -3.0628   -1.9925   -2.7126 F   0  0  0  0  0  0  0  0  0  0  0  0
   -3.4301    0.9340    1.1766 C   0  0  0  0  0  0  0  0  0  0  0  0
   -2.4117    1.7215    1.0762 C   0  0  0  0  0  0  0  0  0  0  0  0
   -1.2426    1.3471    0.3548 C   0  0  0  0  0  0  0  0  0  0  0  0
   -0.7132    2.0944   -0.6844 C   0  0  0  0  0  0  0  0  0  0  0  0
    0.4394    1.6821   -1.2864 C   0  0  0  0  0  0  0  0  0  0  0  0
    1.1186    0.5370   -0.9068 C   0  0  0  0  0  0  0  0  0  0  0  0
    2.2532    0.1871   -1.5502 O   0  0  0  0  0  0  0  0  0  0  0  0
    3.1272   -0.8655   -1.3767 C   0  0  1  0  0  0  0  0  0  0  0  0
    3.0889   -1.8815   -2.4896 C   0  0  0  0  0  0  0  0  0  0  0  0
    4.4574   -1.8791   -3.0773 C   0  0  0  0  0  0  0  0  0  0  0  0
    5.2229   -0.8269   -2.4472 N   0  0  0  0  0  0  0  0  0  0  0  0
    6.5895   -1.2662   -2.2874 C   0  0  0  0  0  0  0  0  0  0  0  0
    7.4845   -0.2593   -1.6535 C   0  0  0  0  0  0  0  0  0  0  0  0
    8.8765   -0.8894   -1.5619 C   0  0  0  0  0  0  0  0  0  0  0  0
    8.7674   -2.0276   -0.7846 F   0  0  0  0  0  0  0  0  0  0  0  0
    4.5755   -0.5108   -1.2126 C   0  0  0  0  0  0  0  0  0  0  0  0
    0.6184   -0.2199    0.1180 C   0  0  0  0  0  0  0  0  0  0  0  0
   -0.5507    0.1977    0.7301 C   0  0  0  0  0  0  0  0  0  0  0  0
   -2.3590    3.0627    1.7220 C   0  0  0  0  0  0  0  0  0  0  0  0
   -1.0671    3.4430    1.9641 C   0  0  0  0  0  0  0  0  0  0  0  0
   -0.8291    4.6840    2.5655 C   0  0  0  0  0  0  0  0  0  0  0  0
   -1.8978    5.5022    2.9048 C   0  0  0  0  0  0  0  0  0  0  0  0
   -1.6473    6.7381    3.5037 O   0  0  0  0  0  0  0  0  0  0  0  0
   -3.1723    5.1266    2.6674 C   0  0  0  0  0  0  0  0  0  0  0  0
   -3.4106    3.8842    2.0651 C   0  0  0  0  0  0  0  0  0  0  0  0
   -4.8578    3.7114    1.9432 C   0  0  0  0  0  0  0  0  0  0  0  0
   -5.2873    2.4976    1.1796 C   0  0  0  0  0  0  0  0  0  0  0  0
   -4.7683    1.2609    1.8949 C   0  0  0  0  0  0  0  0  0  0  0  0
   -1.1569   -5.5002   -0.2899 H   0  0  0  0  0  0  0  0  0  0  0  0
   -2.7621   -6.2010    0.3479 H   0  0  0  0  0  0  0  0  0  0  0  0
   -1.8861   -7.0220   -0.9548 H   0  0  0  0  0  0  0  0  0  0  0  0
   -3.5886   -6.0130   -2.0092 H   0  0  0  0  0  0  0  0  0  0  0  0
   -2.1519   -5.1013   -2.4244 H   0  0  0  0  0  0  0  0  0  0  0  0
   -3.8361   -1.3496    2.3506 H   0  0  0  0  0  0  0  0  0  0  0  0
   -3.0239    0.3093   -1.4583 H   0  0  0  0  0  0  0  0  0  0  0  0
   -1.2259    2.9833   -0.9862 H   0  0  0  0  0  0  0  0  0  0  0  0
    0.8800    2.2637   -2.1143 H   0  0  0  0  0  0  0  0  0  0  0  0
    2.8321   -1.4194   -0.4406 H   0  0  0  0  0  0  0  0  0  0  0  0
    2.9088   -2.9166   -2.0785 H   0  0  0  0  0  0  0  0  0  0  0  0
    2.2656   -1.7059   -3.2137 H   0  0  0  0  0  0  0  0  0  0  0  0
    5.0031   -2.8465   -2.8767 H   0  0  0  0  0  0  0  0  0  0  0  0
    4.4515   -1.7648   -4.1866 H   0  0  0  0  0  0  0  0  0  0  0  0
    6.9771   -1.4454   -3.3293 H   0  0  0  0  0  0  0  0  0  0  0  0
    6.6301   -2.2070   -1.7221 H   0  0  0  0  0  0  0  0  0  0  0  0
    7.1869   -0.0558   -0.5901 H   0  0  0  0  0  0  0  0  0  0  0  0
    7.5888    0.6530   -2.2444 H   0  0  0  0  0  0  0  0  0  0  0  0
    9.2634   -1.1020   -2.5589 H   0  0  0  0  0  0  0  0  0  0  0  0
    9.5898   -0.2016   -1.0461 H   0  0  0  0  0  0  0  0  0  0  0  0
    5.0357   -1.0106   -0.3334 H   0  0  0  0  0  0  0  0  0  0  0  0
    4.7088    0.5869   -1.0341 H   0  0  0  0  0  0  0  0  0  0  0  0
    1.0983   -1.1473    0.4789 H   0  0  0  0  0  0  0  0  0  0  0  0
   -0.8877   -0.4261    1.5469 H   0  0  0  0  0  0  0  0  0  0  0  0
   -0.2569    2.8039    1.7152 H   0  0  0  0  0  0  0  0  0  0  0  0
    0.1505    5.0318    2.7779 H   0  0  0  0  0  0  0  0  0  0  0  0
   -2.3915    7.3486    3.7587 H   0  0  0  0  0  0  0  0  0  0  0  0
   -4.0294    5.7483    2.9231 H   0  0  0  0  0  0  0  0  0  0  0  0
   -5.2671    3.6046    2.9939 H   0  0  0  0  0  0  0  0  0  0  0  0
   -5.3377    4.6043    1.4780 H   0  0  0  0  0  0  0  0  0  0  0  0
   -6.3864    2.3948    1.1256 H   0  0  0  0  0  0  0  0  0  0  0  0
   -4.8910    2.5029    0.1257 H   0  0  0  0  0  0  0  0  0  0  0  0
   -4.5995    1.4231    2.9527 H   0  0  0  0  0  0  0  0  0  0  0  0
   -5.4491    0.4273    1.6899 H   0  0  0  0  0  0  0  0  0  0  0  0
  1  2  1  0
  2  3  1  0
  3  4  1  0
  4  5  2  0
  5  6  1  0
  5  7  1  0
  7  8  2  0
  8  9  1  0
  9 10  2  0
 10 11  1  0
  8 12  1  0
 12 13  2  0
 13 14  1  0
 14 15  2  0
 15 16  1  0
 16 17  2  0
 17 18  1  0
 18 19  1  0
 19 20  1  0
 20 21  1  0
 21 22  1  0
 22 23  1  0
 23 24  1  0
 24 25  1  0
 25 26  1  0
 22 27  1  0
 17 28  1  0
 28 29  2  0
 13 30  1  0
 30 31  2  0
 31 32  1  0
 32 33  2  0
 33 34  1  0
 33 35  1  0
 35 36  2  0
 36 37  1  0
 37 38  1  0
 38 39  1  0
 10  4  1  0
 39 12  1  0
 29 14  1  0
 36 30  1  0
 27 19  1  0
  1 40  1  0
  1 41  1  0
  1 42  1  0
  2 43  1  0
  2 44  1  0
  7 45  1  0
  9 46  1  0
 15 47  1  0
 16 48  1  0
 19 49  1  1
 20 50  1  0
 20 51  1  0
 21 52  1  0
 21 53  1  0
 23 54  1  0
 23 55  1  0
 24 56  1  0
 24 57  1  0
 25 58  1  0
 25 59  1  0
 27 60  1  0
 27 61  1  0
 28 62  1  0
 29 63  1  0
 31 64  1  0
 32 65  1  0
 34 66  1  0
 35 67  1  0
 37 68  1  0
 37 69  1  0
 38 70  1  0
 38 71  1  0
 39 72  1  0
 39 73  1  0
M  END
$$$$
[H]OC(=O)/C([H])=C(\[H])c1c([H])c([H])c(Oc2c(-c3c(C([H])([H])[H])noc3C([H])([H])[H])sc3c([H])c(O[H])c([H])c([H])c23)c([H])c1[H]
     RDKit          3D

 46 49  0  0  0  0  0  0  0  0999 V2000
   -1.9055   -2.5652   -2.4040 C   0  0  0  0  0  0  0  0  0  0  0  0
   -2.2607   -2.8642   -0.9773 C   0  0  0  0  0  0  0  0  0  0  0  0
   -2.4077   -4.1300   -0.4793 N   0  0  0  0  0  0  0  0  0  0  0  0
   -2.7759   -4.0524    0.7444 O   0  0  0  0  0  0  0  0  0  0  0  0
   -2.8961   -2.8238    1.1393 C   0  0  0  0  0  0  0  0  0  0  0  0
   -3.2964   -2.2974    2.4665 C   0  0  0  0  0  0  0  0  0  0  0  0
   -2.5643   -2.0157    0.0366 C   0  0  0  0  0  0  0  0  0  0  0  0
   -2.5103   -0.5417    0.1369 C   0  0  0  0  0  0  0  0  0  0  0  0
   -3.4837    0.3737    1.2722 S   0  0  0  0  0  0  0  0  0  0  0  0
   -2.9176    1.9275    0.9262 C   0  0  0  0  0  0  0  0  0  0  0  0
   -3.2406    3.1823    1.4436 C   0  0  0  0  0  0  0  0  0  0  0  0
   -2.6133    4.3156    0.9718 C   0  0  0  0  0  0  0  0  0  0  0  0
   -2.8952    5.5761    1.4481 O   0  0  0  0  0  0  0  0  0  0  0  0
   -1.6813    4.1078   -0.0117 C   0  0  0  0  0  0  0  0  0  0  0  0
   -1.3583    2.8903   -0.5235 C   0  0  0  0  0  0  0  0  0  0  0  0
   -1.9929    1.7196   -0.0497 C   0  0  0  0  0  0  0  0  0  0  0  0
   -1.7897    0.4322   -0.4492 C   0  0  0  0  0  0  0  0  0  0  0  0
   -0.8227    0.1196   -1.4622 O   0  0  0  0  0  0  0  0  0  0  0  0
    0.5125   -0.0083   -1.1037 C   0  0  0  0  0  0  0  0  0  0  0  0
    0.9660    0.1489    0.1801 C   0  0  0  0  0  0  0  0  0  0  0  0
    2.3333    0.0008    0.4476 C   0  0  0  0  0  0  0  0  0  0  0  0
    3.2251   -0.2975   -0.5461 C   0  0  0  0  0  0  0  0  0  0  0  0
    4.6443   -0.4517   -0.2703 C   0  0  0  0  0  0  0  0  0  0  0  0
    5.1970   -0.3258    0.9145 C   0  0  0  0  0  0  0  0  0  0  0  0
    6.6365   -0.4984    1.1003 C   0  0  0  0  0  0  0  0  0  0  0  0
    7.4853   -0.8014    0.0434 O   0  0  0  0  0  0  0  0  0  0  0  0
    7.1550   -0.3758    2.2378 O   0  0  0  0  0  0  0  0  0  0  0  0
    2.7700   -0.4551   -1.8333 C   0  0  0  0  0  0  0  0  0  0  0  0
    1.4150   -0.3081   -2.0973 C   0  0  0  0  0  0  0  0  0  0  0  0
   -2.2530   -3.4755   -2.9963 H   0  0  0  0  0  0  0  0  0  0  0  0
   -0.8351   -2.4656   -2.5784 H   0  0  0  0  0  0  0  0  0  0  0  0
   -2.5368   -1.7118   -2.7157 H   0  0  0  0  0  0  0  0  0  0  0  0
   -4.3348   -1.9203    2.4020 H   0  0  0  0  0  0  0  0  0  0  0  0
   -2.5566   -1.5975    2.8566 H   0  0  0  0  0  0  0  0  0  0  0  0
   -3.3384   -3.1793    3.1499 H   0  0  0  0  0  0  0  0  0  0  0  0
   -3.9804    3.2971    2.2167 H   0  0  0  0  0  0  0  0  0  0  0  0
   -2.4057    6.3630    1.0654 H   0  0  0  0  0  0  0  0  0  0  0  0
   -1.1821    4.9928   -0.3896 H   0  0  0  0  0  0  0  0  0  0  0  0
   -0.6096    2.8682   -1.2920 H   0  0  0  0  0  0  0  0  0  0  0  0
    0.2443    0.3839    0.9471 H   0  0  0  0  0  0  0  0  0  0  0  0
    2.6162    0.1366    1.4671 H   0  0  0  0  0  0  0  0  0  0  0  0
    5.3493   -0.6922   -1.0837 H   0  0  0  0  0  0  0  0  0  0  0  0
    4.5926   -0.0936    1.7627 H   0  0  0  0  0  0  0  0  0  0  0  0
    7.7436   -1.7541   -0.1771 H   0  0  0  0  0  0  0  0  0  0  0  0
    3.4556   -0.6938   -2.6515 H   0  0  0  0  0  0  0  0  0  0  0  0
    1.1031   -0.4396   -3.1160 H   0  0  0  0  0  0  0  0  0  0  0  0
  1  2  1  0
  2  3  2  0
  3  4  1  0
  4  5  1  0
  5  6  1  0
  5  7  2  0
  7  8  1  0
  8  9  1  0
  9 10  1  0
 10 11  2  0
 11 12  1  0
 12 13  1  0
 12 14  2  0
 14 15  1  0
 15 16  2  0
 16 17  1  0
 17 18  1  0
 18 19  1  0
 19 20  2  0
 20 21  1  0
 21 22  2  0
 22 23  1  0
 23 24  2  0
 24 25  1  0
 25 26  1  0
 25 27  2  0
 22 28  1  0
 28 29  2  0
  7  2  1  0
 17  8  2  0
 29 19  1  0
 16 10  1  0
  1 30  1  0
  1 31  1  0
  1 32  1  0
  6 33  1  0
  6 34  1  0
  6 35  1  0
 11 36  1  0
 13 37  1  0
 14 38  1  0
 15 39  1  0
 20 40  1  0
 21 41  1  0
 23 42  1  0
 24 43  1  0
 26 44  1  0
 28 45  1  0
 29 46  1  0
M  END
$$$$
[H]c1c([H])c([C@]2([H])c3c(c4c([H])c([H])c([H])c([H])c4n3[H])C([H])([H])[C@@]([H])(C([H])([H])[H])N2C([H])([H])C2(F)C([H])([H])C2([H])[H])c([H])c([H])c1OC([H])([H])C([H])([H])N([H])C([H])([H])C([H])([H])C([H])([H])F
     RDKit          3D

 66 70  0  0  0  0  0  0  0  0999 V2000
   -4.5392    2.4886   -1.1912 C   0  0  0  0  0  0  0  0  0  0  0  0
   -3.7170    1.2369   -0.9984 C   0  0  2  0  0  0  0  0  0  0  0  0
   -4.7085    0.0809   -0.9973 C   0  0  0  0  0  0  0  0  0  0  0  0
   -3.8733   -1.1399   -0.9368 C   0  0  0  0  0  0  0  0  0  0  0  0
   -2.7041   -1.1178   -0.2160 C   0  0  0  0  0  0  0  0  0  0  0  0
   -2.1252   -2.2984   -0.3019 N   0  0  0  0  0  0  0  0  0  0  0  0
   -2.8894   -3.0948   -1.0633 C   0  0  0  0  0  0  0  0  0  0  0  0
   -2.7288   -4.4300   -1.4607 C   0  0  0  0  0  0  0  0  0  0  0  0
   -3.6639   -5.0489   -2.2596 C   0  0  0  0  0  0  0  0  0  0  0  0
   -4.7855   -4.3309   -2.6763 C   0  0  0  0  0  0  0  0  0  0  0  0
   -4.9281   -3.0222   -2.2779 C   0  0  0  0  0  0  0  0  0  0  0  0
   -3.9994   -2.3918   -1.4785 C   0  0  0  0  0  0  0  0  0  0  0  0
   -2.2546    0.1066    0.5218 C   0  0  2  0  0  0  0  0  0  0  0  0
   -2.9160    1.2986    0.1728 N   0  0  0  0  0  0  0  0  0  0  0  0
   -3.5334    2.0556    1.2025 C   0  0  0  0  0  0  0  0  0  0  0  0
   -2.7660    2.2153    2.4613 C   0  0  0  0  0  0  0  0  0  0  0  0
   -1.5239    2.8267    2.4496 F   0  0  0  0  0  0  0  0  0  0  0  0
   -3.6268    2.7725    3.6125 C   0  0  0  0  0  0  0  0  0  0  0  0
   -3.0552    1.3784    3.6751 C   0  0  0  0  0  0  0  0  0  0  0  0
   -0.7828    0.2801    0.3988 C   0  0  0  0  0  0  0  0  0  0  0  0
   -0.1684    0.9630   -0.6202 C   0  0  0  0  0  0  0  0  0  0  0  0
    1.1979    1.0835   -0.7038 C   0  0  0  0  0  0  0  0  0  0  0  0
    2.0300    0.5182    0.2423 C   0  0  0  0  0  0  0  0  0  0  0  0
    3.4131    0.6130    0.2000 O   0  0  0  0  0  0  0  0  0  0  0  0
    4.0628    1.3077   -0.8264 C   0  0  0  0  0  0  0  0  0  0  0  0
    5.5859    1.2536   -0.6537 C   0  0  0  0  0  0  0  0  0  0  0  0
    5.9373   -0.1393   -0.6932 N   0  0  0  0  0  0  0  0  0  0  0  0
    7.3289   -0.4249   -0.5598 C   0  0  0  0  0  0  0  0  0  0  0  0
    7.9001   -0.1276    0.7874 C   0  0  0  0  0  0  0  0  0  0  0  0
    9.3869   -0.5016    0.7207 C   0  0  0  0  0  0  0  0  0  0  0  0
    9.4596   -1.8507    0.4139 F   0  0  0  0  0  0  0  0  0  0  0  0
    1.4140   -0.1693    1.2687 C   0  0  0  0  0  0  0  0  0  0  0  0
    0.0456   -0.2994    1.3674 C   0  0  0  0  0  0  0  0  0  0  0  0
   -5.3347    2.4622   -0.4006 H   0  0  0  0  0  0  0  0  0  0  0  0
   -3.9559    3.4072   -1.2060 H   0  0  0  0  0  0  0  0  0  0  0  0
   -5.0554    2.3930   -2.1709 H   0  0  0  0  0  0  0  0  0  0  0  0
   -3.0734    1.0816   -1.8841 H   0  0  0  0  0  0  0  0  0  0  0  0
   -5.2944    0.1333   -1.9379 H   0  0  0  0  0  0  0  0  0  0  0  0
   -5.4313    0.1611   -0.1598 H   0  0  0  0  0  0  0  0  0  0  0  0
   -1.2055   -2.6321    0.1341 H   0  0  0  0  0  0  0  0  0  0  0  0
   -1.8468   -4.9849   -1.1291 H   0  0  0  0  0  0  0  0  0  0  0  0
   -3.5646   -6.0813   -2.5817 H   0  0  0  0  0  0  0  0  0  0  0  0
   -5.5294   -4.8002   -3.3031 H   0  0  0  0  0  0  0  0  0  0  0  0
   -5.7958   -2.4771   -2.6048 H   0  0  0  0  0  0  0  0  0  0  0  0
   -2.4590   -0.1628    1.6061 H   0  0  0  0  0  0  0  0  0  0  0  0
   -3.6904    3.0953    0.7888 H   0  0  0  0  0  0  0  0  0  0  0  0
   -4.5576    1.7114    1.4666 H   0  0  0  0  0  0  0  0  0  0  0  0
   -3.2131    3.5165    4.2898 H   0  0  0  0  0  0  0  0  0  0  0  0
   -4.7167    2.8959    3.4432 H   0  0  0  0  0  0  0  0  0  0  0  0
   -3.7784    0.5600    3.5626 H   0  0  0  0  0  0  0  0  0  0  0  0
   -2.2101    1.1857    4.3887 H   0  0  0  0  0  0  0  0  0  0  0  0
   -0.7681    1.4206   -1.3810 H   0  0  0  0  0  0  0  0  0  0  0  0
    1.6762    1.6341   -1.5294 H   0  0  0  0  0  0  0  0  0  0  0  0
    3.7836    0.9430   -1.8183 H   0  0  0  0  0  0  0  0  0  0  0  0
    3.7865    2.3919   -0.7010 H   0  0  0  0  0  0  0  0  0  0  0  0
    6.0757    1.7734   -1.5007 H   0  0  0  0  0  0  0  0  0  0  0  0
    5.8951    1.7415    0.2820 H   0  0  0  0  0  0  0  0  0  0  0  0
    5.5770   -0.5498   -1.5916 H   0  0  0  0  0  0  0  0  0  0  0  0
    7.9656    0.0822   -1.3149 H   0  0  0  0  0  0  0  0  0  0  0  0
    7.4637   -1.5163   -0.7615 H   0  0  0  0  0  0  0  0  0  0  0  0
    7.4581   -0.7424    1.5989 H   0  0  0  0  0  0  0  0  0  0  0  0
    7.8637    0.9554    1.0292 H   0  0  0  0  0  0  0  0  0  0  0  0
    9.8547    0.0931   -0.0951 H   0  0  0  0  0  0  0  0  0  0  0  0
    9.8944   -0.3176    1.6902 H   0  0  0  0  0  0  0  0  0  0  0  0
    2.0841   -0.6194    2.0220 H   0  0  0  0  0  0  0  0  0  0  0  0
   -0.3704   -0.8462    2.1898 H   0  0  0  0  0  0  0  0  0  0  0  0
  1  2  1  0
  2  3  1  0
  3  4  1  0
  4  5  2  0
  5  6  1  0
  6  7  1  0
  7  8  2  0
  8  9  1  0
  9 10  2  0
 10 11  1  0
 11 12  2  0
  5 13  1  0
 13 14  1  0
 14 15  1  0
 15 16  1  0
 16 17  1  0
 16 18  1  0
 18 19  1  0
 13 20  1  0
 20 21  2  0
 21 22  1  0
 22 23  2  0
 23 24  1  0
 24 25  1  0
 25 26  1  0
 26 27  1  0
 27 28  1  0
 28 29  1  0
 29 30  1  0
 30 31  1  0
 23 32  1  0
 32 33  2  0
 14  2  1  0
 19 16  1  0
 33 20  1  0
 12  4  1  0
 12  7  1  0
  1 34  1  0
  1 35  1  0
  1 36  1  0
  2 37  1  6
  3 38  1  0
  3 39  1  0
  6 40  1  0
  8 41  1  0
  9 42  1  0
 10 43  1  0
 11 44  1  0
 13 45  1  1
 15 46  1  0
 15 47  1  0
 18 48  1  0
 18 49  1  0
 19 50  1  0
 19 51  1  0
 21 52  1  0
 22 53  1  0
 25 54  1  0
 25 55  1  0
 26 56  1  0
 26 57  1  0
 27 58  1  0
 28 59  1  0
 28 60  1  0
 29 61  1  0
 29 62  1  0
 30 63  1  0
 30 64  1  0
 32 65  1  0
 33 66  1  0
M  END
$$$$
[H]Oc1c([H])c([H])c2c(c1[H])C([H])([H])C([H])([H])C([H])([H])C(c1c([H])c([H])c([H])c([H])c1[H])=C2c1c([H])c([H])c(OC([H])([H])[H])c([H])c1[H]
     RDKit          3D

 48 51  0  0  0  0  0  0  0  0999 V2000
    5.5350    1.9104    0.1336 C   0  0  0  0  0  0  0  0  0  0  0  0
    4.4745    2.1833   -0.7615 O   0  0  0  0  0  0  0  0  0  0  0  0
    3.2309    1.5740   -0.5931 C   0  0  0  0  0  0  0  0  0  0  0  0
    2.9751    0.6863    0.4364 C   0  0  0  0  0  0  0  0  0  0  0  0
    1.7505    0.1035    0.5824 C   0  0  0  0  0  0  0  0  0  0  0  0
    0.6872    0.3621   -0.2883 C   0  0  0  0  0  0  0  0  0  0  0  0
    0.9305    1.2400   -1.3129 C   0  0  0  0  0  0  0  0  0  0  0  0
    2.1714    1.8146   -1.4398 C   0  0  0  0  0  0  0  0  0  0  0  0
   -0.5481   -0.3503   -0.0658 C   0  0  0  0  0  0  0  0  0  0  0  0
   -1.7161    0.2170    0.1049 C   0  0  0  0  0  0  0  0  0  0  0  0
   -3.0933   -0.3351    0.3411 C   0  0  0  0  0  0  0  0  0  0  0  0
   -3.2501   -1.7818    0.3863 C   0  0  0  0  0  0  0  0  0  0  0  0
   -2.3452   -2.5059    1.3719 C   0  0  0  0  0  0  0  0  0  0  0  0
   -1.1059   -2.7904    0.5642 C   0  0  0  0  0  0  0  0  0  0  0  0
   -0.7853   -4.1129    0.4621 C   0  0  0  0  0  0  0  0  0  0  0  0
    0.3168   -4.5121   -0.3023 C   0  0  0  0  0  0  0  0  0  0  0  0
    0.6136   -5.8642   -0.3837 O   0  0  0  0  0  0  0  0  0  0  0  0
    1.0476   -3.5302   -0.9344 C   0  0  0  0  0  0  0  0  0  0  0  0
    0.7223   -2.1730   -0.8317 C   0  0  0  0  0  0  0  0  0  0  0  0
   -0.3535   -1.8071   -0.0811 C   0  0  0  0  0  0  0  0  0  0  0  0
   -1.7076    1.6747    0.1364 C   0  0  0  0  0  0  0  0  0  0  0  0
   -0.9420    2.3759    1.0135 C   0  0  0  0  0  0  0  0  0  0  0  0
   -0.9489    3.7800    1.0096 C   0  0  0  0  0  0  0  0  0  0  0  0
   -1.7554    4.4114    0.0916 C   0  0  0  0  0  0  0  0  0  0  0  0
   -2.5329    3.7125   -0.7967 C   0  0  0  0  0  0  0  0  0  0  0  0
   -2.5090    2.3389   -0.7746 C   0  0  0  0  0  0  0  0  0  0  0  0
    6.4809    2.3842   -0.1875 H   0  0  0  0  0  0  0  0  0  0  0  0
    5.2400    2.3932    1.1108 H   0  0  0  0  0  0  0  0  0  0  0  0
    5.6538    0.8416    0.3592 H   0  0  0  0  0  0  0  0  0  0  0  0
    3.7862    0.4688    1.1277 H   0  0  0  0  0  0  0  0  0  0  0  0
    1.6223   -0.5864    1.4196 H   0  0  0  0  0  0  0  0  0  0  0  0
    0.1340    1.4502   -2.0114 H   0  0  0  0  0  0  0  0  0  0  0  0
    2.3638    2.5215   -2.2674 H   0  0  0  0  0  0  0  0  0  0  0  0
   -3.7197    0.1022   -0.4737 H   0  0  0  0  0  0  0  0  0  0  0  0
   -3.5196    0.1063    1.2856 H   0  0  0  0  0  0  0  0  0  0  0  0
   -3.1762   -2.2309   -0.6260 H   0  0  0  0  0  0  0  0  0  0  0  0
   -4.2976   -2.0125    0.7345 H   0  0  0  0  0  0  0  0  0  0  0  0
   -2.7696   -3.4377    1.7385 H   0  0  0  0  0  0  0  0  0  0  0  0
   -2.0241   -1.8239    2.1827 H   0  0  0  0  0  0  0  0  0  0  0  0
   -1.3684   -4.8736    0.9635 H   0  0  0  0  0  0  0  0  0  0  0  0
    0.1939   -6.4243   -1.1368 H   0  0  0  0  0  0  0  0  0  0  0  0
    1.9025   -3.8285   -1.5299 H   0  0  0  0  0  0  0  0  0  0  0  0
    1.3123   -1.4520   -1.3597 H   0  0  0  0  0  0  0  0  0  0  0  0
   -0.3101    1.9057    1.7745 H   0  0  0  0  0  0  0  0  0  0  0  0
   -0.3223    4.3288    1.7250 H   0  0  0  0  0  0  0  0  0  0  0  0
   -1.7564    5.5149    0.0945 H   0  0  0  0  0  0  0  0  0  0  0  0
   -3.1629    4.2652   -1.5121 H   0  0  0  0  0  0  0  0  0  0  0  0
   -3.1249    1.7655   -1.4799 H   0  0  0  0  0  0  0  0  0  0  0  0
  1  2  1  0
  2  3  1  0
  3  4  2  0
  4  5  1  0
  5  6  2  0
  6  7  1  0
  7  8  2  0
  6  9  1  0
  9 10  2  0
 10 11  1  0
 11 12  1  0
 12 13  1  0
 13 14  1  0
 14 15  2  0
 15 16  1  0
 16 17  1  0
 16 18  2  0
 18 19  1  0
 19 20  2  0
 10 21  1  0
 21 22  2  0
 22 23  1  0
 23 24  2  0
 24 25  1  0
 25 26  2  0
  8  3  1  0
 20  9  1  0
 26 21  1  0
 20 14  1  0
  1 27  1  0
  1 28  1  0
  1 29  1  0
  4 30  1  0
  5 31  1  0
  7 32  1  0
  8 33  1  0
 11 34  1  0
 11 35  1  0
 12 36  1  0
 12 37  1  0
 13 38  1  0
 13 39  1  0
 15 40  1  0
 17 41  1  0
 18 42  1  0
 19 43  1  0
 22 44  1  0
 23 45  1  0
 24 46  1  0
 25 47  1  0
 26 48  1  0
M  END
$$$$
[H]Oc1c([H])c([H])c(C2=C(SC([H])([H])[H])c3c(O[H])c([H])c(O[H])c([H])c3C2=O)c([H])c1[H]
     RDKit          3D

 33 35  0  0  0  0  0  0  0  0999 V2000
   -0.4645   -3.2511    1.4668 C   0  0  0  0  0  0  0  0  0  0  0  0
    0.3713   -1.7268    1.3499 S   0  0  0  0  0  0  0  0  0  0  0  0
   -0.3294   -0.4146    0.4239 C   0  0  0  0  0  0  0  0  0  0  0  0
    0.4771    0.4631   -0.2475 C   0  0  0  0  0  0  0  0  0  0  0  0
   -0.4099    1.3911   -0.8987 C   0  0  0  0  0  0  0  0  0  0  0  0
   -0.1251    2.3798   -1.6318 O   0  0  0  0  0  0  0  0  0  0  0  0
   -1.7888    1.0433   -0.6001 C   0  0  0  0  0  0  0  0  0  0  0  0
   -2.9928    1.5954   -0.9486 C   0  0  0  0  0  0  0  0  0  0  0  0
   -4.1983    1.0824   -0.5100 C   0  0  0  0  0  0  0  0  0  0  0  0
   -5.4176    1.6409   -0.8640 O   0  0  0  0  0  0  0  0  0  0  0  0
   -4.1352   -0.0080    0.2939 C   0  0  0  0  0  0  0  0  0  0  0  0
   -2.9486   -0.6025    0.6741 C   0  0  0  0  0  0  0  0  0  0  0  0
   -2.9583   -1.6984    1.4948 O   0  0  0  0  0  0  0  0  0  0  0  0
   -1.7225   -0.0884    0.2293 C   0  0  0  0  0  0  0  0  0  0  0  0
    1.9204    0.4824   -0.3282 C   0  0  0  0  0  0  0  0  0  0  0  0
    2.6502    1.6712   -0.2220 C   0  0  0  0  0  0  0  0  0  0  0  0
    4.0222    1.6781   -0.3160 C   0  0  0  0  0  0  0  0  0  0  0  0
    4.7403    0.5181   -0.5188 C   0  0  0  0  0  0  0  0  0  0  0  0
    6.1288    0.5401   -0.6117 O   0  0  0  0  0  0  0  0  0  0  0  0
    4.0454   -0.6575   -0.6260 C   0  0  0  0  0  0  0  0  0  0  0  0
    2.6459   -0.6678   -0.5306 C   0  0  0  0  0  0  0  0  0  0  0  0
    0.3548   -4.0747    1.5006 H   0  0  0  0  0  0  0  0  0  0  0  0
   -1.1107   -3.5491    0.6125 H   0  0  0  0  0  0  0  0  0  0  0  0
   -1.0164   -3.4361    2.4162 H   0  0  0  0  0  0  0  0  0  0  0  0
   -3.0521    2.4763   -1.5966 H   0  0  0  0  0  0  0  0  0  0  0  0
   -5.7868    2.3679   -0.2506 H   0  0  0  0  0  0  0  0  0  0  0  0
   -5.0517   -0.4544    0.6713 H   0  0  0  0  0  0  0  0  0  0  0  0
   -3.8407   -2.0656    1.8124 H   0  0  0  0  0  0  0  0  0  0  0  0
    2.0806    2.5674   -0.0641 H   0  0  0  0  0  0  0  0  0  0  0  0
    4.5899    2.5938   -0.2344 H   0  0  0  0  0  0  0  0  0  0  0  0
    6.6250    1.4269   -0.5285 H   0  0  0  0  0  0  0  0  0  0  0  0
    4.5647   -1.6047   -0.7872 H   0  0  0  0  0  0  0  0  0  0  0  0
    2.1329   -1.6186   -0.6304 H   0  0  0  0  0  0  0  0  0  0  0  0
  1  2  1  0
  2  3  1  0
  3  4  2  0
  4  5  1  0
  5  6  2  0
  5  7  1  0
  7  8  2  0
  8  9  1  0
  9 10  1  0
  9 11  2  0
 11 12  1  0
 12 13  1  0
 12 14  2  0
  4 15  1  0
 15 16  2  0
 16 17  1  0
 17 18  2  0
 18 19  1  0
 18 20  1  0
 20 21  2  0
 14  3  1  0
 21 15  1  0
 14  7  1  0
  1 22  1  0
  1 23  1  0
  1 24  1  0
  8 25  1  0
 10 26  1  0
 11 27  1  0
 13 28  1  0
 16 29  1  0
 17 30  1  0
 19 31  1  0
 20 32  1  0
 21 33  1  0
M  END
$$$$
[H]c1c([H])c(OC([H])([H])C([H])([H])N([H])C([H])([H])C([H])([H])C([H])([H])F)c(F)c([C@]2([H])c3c(c4c([H])c([H])c([H])c([H])c4n3[H])C([H])([H])[C@@]([H])(C([H])([H])[H])N2C([H])([H])C([H])(F)F)c1F
     RDKit          3D

 62 65  0  0  0  0  0  0  0  0999 V2000
   -4.0108    2.5587    2.0114 C   0  0  0  0  0  0  0  0  0  0  0  0
   -4.1358    1.5107    0.9249 C   0  0  2  0  0  0  0  0  0  0  0  0
   -3.9964    0.1322    1.4501 C   0  0  0  0  0  0  0  0  0  0  0  0
   -3.1989   -0.7845    0.5963 C   0  0  0  0  0  0  0  0  0  0  0  0
   -2.0655   -0.1923   -0.0040 C   0  0  0  0  0  0  0  0  0  0  0  0
   -1.5196   -1.1649   -0.7116 N   0  0  0  0  0  0  0  0  0  0  0  0
   -2.1933   -2.3103   -0.6179 C   0  0  0  0  0  0  0  0  0  0  0  0
   -1.9769   -3.5498   -1.1816 C   0  0  0  0  0  0  0  0  0  0  0  0
   -2.8795   -4.5495   -0.8784 C   0  0  0  0  0  0  0  0  0  0  0  0
   -3.9708   -4.3359   -0.0399 C   0  0  0  0  0  0  0  0  0  0  0  0
   -4.1680   -3.0878    0.5131 C   0  0  0  0  0  0  0  0  0  0  0  0
   -3.2573   -2.1011    0.2001 C   0  0  0  0  0  0  0  0  0  0  0  0
   -1.9512    1.2382    0.3716 C   0  0  2  0  0  0  0  0  0  0  0  0
   -3.0948    1.8330   -0.1257 N   0  0  0  0  0  0  0  0  0  0  0  0
   -3.7381    1.6712   -1.3090 C   0  0  0  0  0  0  0  0  0  0  0  0
   -3.3490    1.8536   -2.6846 C   0  0  0  0  0  0  0  0  0  0  0  0
   -2.2993    1.1705   -3.2183 F   0  0  0  0  0  0  0  0  0  0  0  0
   -3.2860    3.1573   -3.1447 F   0  0  0  0  0  0  0  0  0  0  0  0
   -0.6299    1.8147    0.3338 C   0  0  0  0  0  0  0  0  0  0  0  0
   -0.3790    3.0742   -0.1357 C   0  0  0  0  0  0  0  0  0  0  0  0
   -1.3432    3.9312   -0.5570 F   0  0  0  0  0  0  0  0  0  0  0  0
    0.9183    3.5433   -0.1465 C   0  0  0  0  0  0  0  0  0  0  0  0
    1.9647    2.7725    0.3065 C   0  0  0  0  0  0  0  0  0  0  0  0
    1.7411    1.5015    0.7870 C   0  0  0  0  0  0  0  0  0  0  0  0
    2.7895    0.7159    1.2462 O   0  0  0  0  0  0  0  0  0  0  0  0
    4.0904    1.2640    1.2061 C   0  0  0  0  0  0  0  0  0  0  0  0
    5.1237    0.2875    1.7334 C   0  0  0  0  0  0  0  0  0  0  0  0
    5.1831   -0.9352    0.9956 N   0  0  0  0  0  0  0  0  0  0  0  0
    5.7024   -0.7036   -0.3225 C   0  0  0  0  0  0  0  0  0  0  0  0
    5.7821   -1.9962   -1.1254 C   0  0  0  0  0  0  0  0  0  0  0  0
    6.6821   -2.9979   -0.4470 C   0  0  0  0  0  0  0  0  0  0  0  0
    7.9678   -2.5128   -0.3047 F   0  0  0  0  0  0  0  0  0  0  0  0
    0.4321    1.0604    0.7848 C   0  0  0  0  0  0  0  0  0  0  0  0
    0.2986   -0.2037    1.3292 F   0  0  0  0  0  0  0  0  0  0  0  0
   -5.0305    2.7780    2.3765 H   0  0  0  0  0  0  0  0  0  0  0  0
   -3.5151    3.4751    1.6479 H   0  0  0  0  0  0  0  0  0  0  0  0
   -3.4576    2.1046    2.8517 H   0  0  0  0  0  0  0  0  0  0  0  0
   -5.0977    1.6523    0.4288 H   0  0  0  0  0  0  0  0  0  0  0  0
   -5.0025   -0.3221    1.5703 H   0  0  0  0  0  0  0  0  0  0  0  0
   -3.5677    0.1270    2.4894 H   0  0  0  0  0  0  0  0  0  0  0  0
   -0.6378   -0.9982   -1.2844 H   0  0  0  0  0  0  0  0  0  0  0  0
   -1.1205   -3.7381   -1.8465 H   0  0  0  0  0  0  0  0  0  0  0  0
   -2.7299   -5.5245   -1.3075 H   0  0  0  0  0  0  0  0  0  0  0  0
   -4.6771   -5.1482    0.1873 H   0  0  0  0  0  0  0  0  0  0  0  0
   -4.9816   -2.8427    1.1668 H   0  0  0  0  0  0  0  0  0  0  0  0
   -2.1028    1.2143    1.5182 H   0  0  0  0  0  0  0  0  0  0  0  0
   -4.6980    2.3150   -1.1993 H   0  0  0  0  0  0  0  0  0  0  0  0
   -4.2563    0.6536   -1.2669 H   0  0  0  0  0  0  0  0  0  0  0  0
   -4.2125    1.4625   -3.3740 H   0  0  0  0  0  0  0  0  0  0  0  0
    1.1455    4.5549   -0.5218 H   0  0  0  0  0  0  0  0  0  0  0  0
    2.9969    3.1266    0.3051 H   0  0  0  0  0  0  0  0  0  0  0  0
    4.1814    2.1673    1.8542 H   0  0  0  0  0  0  0  0  0  0  0  0
    4.3710    1.6010    0.1898 H   0  0  0  0  0  0  0  0  0  0  0  0
    6.1152    0.7842    1.7232 H   0  0  0  0  0  0  0  0  0  0  0  0
    4.9300    0.0356    2.8037 H   0  0  0  0  0  0  0  0  0  0  0  0
    4.3061   -1.4697    0.9992 H   0  0  0  0  0  0  0  0  0  0  0  0
    5.0297    0.0025   -0.8659 H   0  0  0  0  0  0  0  0  0  0  0  0
    6.7198   -0.2917   -0.2654 H   0  0  0  0  0  0  0  0  0  0  0  0
    4.7890   -2.4299   -1.2946 H   0  0  0  0  0  0  0  0  0  0  0  0
    6.2575   -1.7239   -2.0969 H   0  0  0  0  0  0  0  0  0  0  0  0
    6.7730   -3.8739   -1.1443 H   0  0  0  0  0  0  0  0  0  0  0  0
    6.2399   -3.3565    0.4989 H   0  0  0  0  0  0  0  0  0  0  0  0
  1  2  1  0
  2  3  1  0
  3  4  1  0
  4  5  2  0
  5  6  1  0
  6  7  1  0
  7  8  2  0
  8  9  1  0
  9 10  2  0
 10 11  1  0
 11 12  2  0
  5 13  1  0
 13 14  1  0
 14 15  1  0
 15 16  1  0
 16 17  1  0
 16 18  1  0
 13 19  1  0
 19 20  2  0
 20 21  1  0
 20 22  1  0
 22 23  2  0
 23 24  1  0
 24 25  1  0
 25 26  1  0
 26 27  1  0
 27 28  1  0
 28 29  1  0
 29 30  1  0
 30 31  1  0
 31 32  1  0
 24 33  2  0
 33 34  1  0
 14  2  1  0
 33 19  1  0
 12  4  1  0
 12  7  1  0
  1 35  1  0
  1 36  1  0
  1 37  1  0
  2 38  1  6
  3 39  1  0
  3 40  1  0
  6 41  1  0
  8 42  1  0
  9 43  1  0
 10 44  1  0
 11 45  1  0
 13 46  1  1
 15 47  1  0
 15 48  1  0
 16 49  1  0
 22 50  1  0
 23 51  1  0
 26 52  1  0
 26 53  1  0
 27 54  1  0
 27 55  1  0
 28 56  1  0
 29 57  1  0
 29 58  1  0
 30 59  1  0
 30 60  1  0
 31 61  1  0
 31 62  1  0
M  END
$$$$
[H]Oc1c([H])c([H])c([C@]2([H])C(=O)c3c(c([H])c(O[H])c([H])c3C([H])([H])[H])O[C@]2([H])c2c([H])c([H])c(OC([H])([H])C([H])([H])N3C([H])([H])C([H])([H])C([H])([H])C([H])([H])C3([H])[H])c([H])c2[H])c([H])c1[H]
     RDKit          3D

 66 70  0  0  0  0  0  0  0  0999 V2000
   -5.2353   -1.6273    2.0655 C   0  0  0  0  0  0  0  0  0  0  0  0
   -4.6891   -2.2070    0.8234 C   0  0  0  0  0  0  0  0  0  0  0  0
   -4.8629   -3.5334    0.4774 C   0  0  0  0  0  0  0  0  0  0  0  0
   -4.3247   -4.0177   -0.7088 C   0  0  0  0  0  0  0  0  0  0  0  0
   -4.5257   -5.3532   -1.0106 O   0  0  0  0  0  0  0  0  0  0  0  0
   -3.6143   -3.1908   -1.5548 C   0  0  0  0  0  0  0  0  0  0  0  0
   -3.4389   -1.8759   -1.2178 C   0  0  0  0  0  0  0  0  0  0  0  0
   -2.7188   -1.0407   -2.0764 O   0  0  0  0  0  0  0  0  0  0  0  0
   -2.1189    0.1674   -1.4986 C   0  0  1  0  0  0  0  0  0  0  0  0
   -3.2475    0.8506   -0.8528 C   0  0  1  0  0  0  0  0  0  0  0  0
   -3.7559    0.0210    0.2732 C   0  0  0  0  0  0  0  0  0  0  0  0
   -3.9926    0.4486    1.4090 O   0  0  0  0  0  0  0  0  0  0  0  0
   -3.9770   -1.3859   -0.0279 C   0  0  0  0  0  0  0  0  0  0  0  0
   -3.1795    2.2756   -0.6195 C   0  0  0  0  0  0  0  0  0  0  0  0
   -2.1050    3.0044   -1.0591 C   0  0  0  0  0  0  0  0  0  0  0  0
   -2.0073    4.3765   -0.8547 C   0  0  0  0  0  0  0  0  0  0  0  0
   -2.9950    5.0372   -0.2018 C   0  0  0  0  0  0  0  0  0  0  0  0
   -2.8979    6.4076    0.0023 O   0  0  0  0  0  0  0  0  0  0  0  0
   -4.0940    4.3018    0.2501 C   0  0  0  0  0  0  0  0  0  0  0  0
   -4.1846    2.9304    0.0420 C   0  0  0  0  0  0  0  0  0  0  0  0
   -0.9428   -0.1890   -0.7360 C   0  0  0  0  0  0  0  0  0  0  0  0
   -0.6216    0.2775    0.5041 C   0  0  0  0  0  0  0  0  0  0  0  0
    0.5175   -0.1118    1.1732 C   0  0  0  0  0  0  0  0  0  0  0  0
    1.4190   -1.0260    0.5975 C   0  0  0  0  0  0  0  0  0  0  0  0
    2.5388   -1.3883    1.2991 O   0  0  0  0  0  0  0  0  0  0  0  0
    3.5858   -2.2203    1.0004 C   0  0  0  0  0  0  0  0  0  0  0  0
    4.5002   -1.8802   -0.1161 C   0  0  0  0  0  0  0  0  0  0  0  0
    5.2176   -0.6504   -0.0148 N   0  0  0  0  0  0  0  0  0  0  0  0
    4.4664    0.5492   -0.1192 C   0  0  0  0  0  0  0  0  0  0  0  0
    5.3642    1.6931   -0.5981 C   0  0  0  0  0  0  0  0  0  0  0  0
    6.8013    1.4615   -0.1917 C   0  0  0  0  0  0  0  0  0  0  0  0
    6.7976    0.7599    1.1403 C   0  0  0  0  0  0  0  0  0  0  0  0
    6.2077   -0.6372    1.0329 C   0  0  0  0  0  0  0  0  0  0  0  0
    1.0960   -1.4889   -0.6364 C   0  0  0  0  0  0  0  0  0  0  0  0
   -0.0555   -1.0879   -1.3006 C   0  0  0  0  0  0  0  0  0  0  0  0
   -5.9795   -0.8308    1.9201 H   0  0  0  0  0  0  0  0  0  0  0  0
   -4.4798   -1.4318    2.8534 H   0  0  0  0  0  0  0  0  0  0  0  0
   -5.8558   -2.4635    2.5298 H   0  0  0  0  0  0  0  0  0  0  0  0
   -5.4185   -4.2048    1.1259 H   0  0  0  0  0  0  0  0  0  0  0  0
   -5.0448   -5.9396   -0.3821 H   0  0  0  0  0  0  0  0  0  0  0  0
   -3.2138   -3.5990   -2.4597 H   0  0  0  0  0  0  0  0  0  0  0  0
   -1.7998    0.7365   -2.4206 H   0  0  0  0  0  0  0  0  0  0  0  0
   -4.1201    0.7472   -1.6103 H   0  0  0  0  0  0  0  0  0  0  0  0
   -1.2809    2.5461   -1.5866 H   0  0  0  0  0  0  0  0  0  0  0  0
   -1.1435    4.9085   -1.2183 H   0  0  0  0  0  0  0  0  0  0  0  0
   -3.6401    6.8802    0.4887 H   0  0  0  0  0  0  0  0  0  0  0  0
   -4.8793    4.8300    0.7710 H   0  0  0  0  0  0  0  0  0  0  0  0
   -5.0754    2.4504    0.4298 H   0  0  0  0  0  0  0  0  0  0  0  0
   -1.2416    0.9877    1.0569 H   0  0  0  0  0  0  0  0  0  0  0  0
    0.7729    0.2610    2.1622 H   0  0  0  0  0  0  0  0  0  0  0  0
    4.1508   -2.5486    1.9241 H   0  0  0  0  0  0  0  0  0  0  0  0
    3.1061   -3.2168    0.6879 H   0  0  0  0  0  0  0  0  0  0  0  0
    5.2264   -2.7489   -0.2003 H   0  0  0  0  0  0  0  0  0  0  0  0
    3.9675   -1.8812   -1.0742 H   0  0  0  0  0  0  0  0  0  0  0  0
    3.9191    0.8360    0.7905 H   0  0  0  0  0  0  0  0  0  0  0  0
    3.7194    0.4152   -0.9321 H   0  0  0  0  0  0  0  0  0  0  0  0
    4.9860    2.6105   -0.1470 H   0  0  0  0  0  0  0  0  0  0  0  0
    5.3494    1.7652   -1.6972 H   0  0  0  0  0  0  0  0  0  0  0  0
    7.3314    0.7743   -0.9056 H   0  0  0  0  0  0  0  0  0  0  0  0
    7.3274    2.4185   -0.0688 H   0  0  0  0  0  0  0  0  0  0  0  0
    7.8263    0.6573    1.5645 H   0  0  0  0  0  0  0  0  0  0  0  0
    6.1432    1.3244    1.8478 H   0  0  0  0  0  0  0  0  0  0  0  0
    5.8381   -0.9083    2.0206 H   0  0  0  0  0  0  0  0  0  0  0  0
    7.0530   -1.2952    0.6861 H   0  0  0  0  0  0  0  0  0  0  0  0
    1.7488   -2.2156   -1.1251 H   0  0  0  0  0  0  0  0  0  0  0  0
   -0.2202   -1.5155   -2.2797 H   0  0  0  0  0  0  0  0  0  0  0  0
  1  2  1  0
  2  3  2  0
  3  4  1  0
  4  5  1  0
  4  6  2  0
  6  7  1  0
  7  8  1  0
  8  9  1  0
  9 10  1  0
 10 11  1  0
 11 12  2  0
 11 13  1  0
 10 14  1  0
 14 15  2  0
 15 16  1  0
 16 17  2  0
 17 18  1  0
 17 19  1  0
 19 20  2  0
  9 21  1  0
 21 22  2  0
 22 23  1  0
 23 24  2  0
 24 25  1  0
 25 26  1  0
 26 27  1  0
 27 28  1  0
 28 29  1  0
 29 30  1  0
 30 31  1  0
 31 32  1  0
 32 33  1  0
 24 34  1  0
 34 35  2  0
 13  2  1  0
 20 14  1  0
 35 21  1  0
 13  7  2  0
 33 28  1  0
  1 36  1  0
  1 37  1  0
  1 38  1  0
  3 39  1  0
  5 40  1  0
  6 41  1  0
  9 42  1  6
 10 43  1  6
 15 44  1  0
 16 45  1  0
 18 46  1  0
 19 47  1  0
 20 48  1  0
 22 49  1  0
 23 50  1  0
 26 51  1  0
 26 52  1  0
 27 53  1  0
 27 54  1  0
 29 55  1  0
 29 56  1  0
 30 57  1  0
 30 58  1  0
 31 59  1  0
 31 60  1  0
 32 61  1  0
 32 62  1  0
 33 63  1  0
 33 64  1  0
 34 65  1  0
 35 66  1  0
M  END
$$$$
[H]OC([H])([H])C(F)(F)C([H])([H])N1[C@]([H])(c2c([H])c([H])c(OC([H])([H])C([H])([H])N([H])C([H])([H])C([H])([H])C([H])([H])F)c([H])c2OC([H])([H])[H])c2c(c3c([H])c([H])c([H])c([H])c3n2[H])C([H])([H])[C@@]1([H])C([H])([H])[H]
     RDKit          3D

 70 73  0  0  0  0  0  0  0  0999 V2000
    0.9608    3.2050    0.3821 C   0  0  0  0  0  0  0  0  0  0  0  0
    0.0984    2.1525    0.0016 O   0  0  0  0  0  0  0  0  0  0  0  0
    0.4976    0.8186   -0.0224 C   0  0  0  0  0  0  0  0  0  0  0  0
    1.7852    0.5603    0.3452 C   0  0  0  0  0  0  0  0  0  0  0  0
    2.3174   -0.7409    0.3647 C   0  0  0  0  0  0  0  0  0  0  0  0
    3.5571   -0.9670    0.7235 O   0  0  0  0  0  0  0  0  0  0  0  0
    4.7517   -1.2843    1.0566 C   0  0  0  0  0  0  0  0  0  0  0  0
    5.6186   -0.0790    1.4797 C   0  0  0  0  0  0  0  0  0  0  0  0
    6.9496   -0.4591    1.8449 N   0  0  0  0  0  0  0  0  0  0  0  0
    7.7656   -0.9143    0.7526 C   0  0  0  0  0  0  0  0  0  0  0  0
    8.0774    0.2028   -0.2200 C   0  0  0  0  0  0  0  0  0  0  0  0
    8.9262   -0.2897   -1.3456 C   0  0  0  0  0  0  0  0  0  0  0  0
    9.1816    0.7645   -2.2094 F   0  0  0  0  0  0  0  0  0  0  0  0
    1.4278   -1.7503   -0.0209 C   0  0  0  0  0  0  0  0  0  0  0  0
    0.1354   -1.4636   -0.3871 C   0  0  0  0  0  0  0  0  0  0  0  0
   -0.3562   -0.1857   -0.3960 C   0  0  0  0  0  0  0  0  0  0  0  0
   -1.6928    0.1027   -0.8256 C   0  0  1  0  0  0  0  0  0  0  0  0
   -2.5138   -1.1197   -1.0703 N   0  0  0  0  0  0  0  0  0  0  0  0
   -2.8434   -1.6344    0.2210 C   0  0  0  0  0  0  0  0  0  0  0  0
   -3.3670   -2.9958    0.3874 C   0  0  0  0  0  0  0  0  0  0  0  0
   -3.5127   -3.1246    1.8260 F   0  0  0  0  0  0  0  0  0  0  0  0
   -2.5662   -4.0399    0.0623 F   0  0  0  0  0  0  0  0  0  0  0  0
   -4.7589   -3.3055   -0.1090 C   0  0  0  0  0  0  0  0  0  0  0  0
   -5.7341   -2.5198    0.5388 O   0  0  0  0  0  0  0  0  0  0  0  0
   -3.6111   -0.7321   -1.8952 C   0  0  2  0  0  0  0  0  0  0  0  0
   -3.4889   -1.3216   -3.3058 C   0  0  0  0  0  0  0  0  0  0  0  0
   -3.8303    0.7884   -2.0087 C   0  0  0  0  0  0  0  0  0  0  0  0
   -3.7225    1.3274   -0.6229 C   0  0  0  0  0  0  0  0  0  0  0  0
   -2.5447    0.9289    0.0355 C   0  0  0  0  0  0  0  0  0  0  0  0
   -2.5803    1.4648    1.2586 N   0  0  0  0  0  0  0  0  0  0  0  0
   -3.7172    2.1705    1.3822 C   0  0  0  0  0  0  0  0  0  0  0  0
   -4.2568    2.9232    2.4253 C   0  0  0  0  0  0  0  0  0  0  0  0
   -5.4680    3.5588    2.2733 C   0  0  0  0  0  0  0  0  0  0  0  0
   -6.1727    3.4638    1.0867 C   0  0  0  0  0  0  0  0  0  0  0  0
   -5.6659    2.7259    0.0358 C   0  0  0  0  0  0  0  0  0  0  0  0
   -4.4493    2.1039    0.2261 C   0  0  0  0  0  0  0  0  0  0  0  0
    1.0902    3.0922    1.4861 H   0  0  0  0  0  0  0  0  0  0  0  0
    0.4072    4.1550    0.2377 H   0  0  0  0  0  0  0  0  0  0  0  0
    1.9243    3.1713   -0.1561 H   0  0  0  0  0  0  0  0  0  0  0  0
    2.4819    1.3493    0.6468 H   0  0  0  0  0  0  0  0  0  0  0  0
    5.4071   -1.8019    0.2660 H   0  0  0  0  0  0  0  0  0  0  0  0
    4.8070   -2.0414    1.8996 H   0  0  0  0  0  0  0  0  0  0  0  0
    5.5660    0.7329    0.7407 H   0  0  0  0  0  0  0  0  0  0  0  0
    5.1333    0.3188    2.4173 H   0  0  0  0  0  0  0  0  0  0  0  0
    6.8590   -1.2537    2.5312 H   0  0  0  0  0  0  0  0  0  0  0  0
    8.7491   -1.2141    1.2275 H   0  0  0  0  0  0  0  0  0  0  0  0
    7.3996   -1.8252    0.2525 H   0  0  0  0  0  0  0  0  0  0  0  0
    8.6100    1.0074    0.3501 H   0  0  0  0  0  0  0  0  0  0  0  0
    7.1329    0.6852   -0.5775 H   0  0  0  0  0  0  0  0  0  0  0  0
    9.8989   -0.6382   -0.9442 H   0  0  0  0  0  0  0  0  0  0  0  0
    8.4392   -1.1427   -1.8657 H   0  0  0  0  0  0  0  0  0  0  0  0
    1.8205   -2.7615   -0.0119 H   0  0  0  0  0  0  0  0  0  0  0  0
   -0.4566   -2.3212   -0.6815 H   0  0  0  0  0  0  0  0  0  0  0  0
   -1.6061    0.6319   -1.8246 H   0  0  0  0  0  0  0  0  0  0  0  0
   -3.6966   -0.9327    0.5770 H   0  0  0  0  0  0  0  0  0  0  0  0
   -2.0598   -1.3839    1.0024 H   0  0  0  0  0  0  0  0  0  0  0  0
   -4.8509   -3.3528   -1.1842 H   0  0  0  0  0  0  0  0  0  0  0  0
   -5.0416   -4.3653    0.2359 H   0  0  0  0  0  0  0  0  0  0  0  0
   -5.3783   -2.2729    1.4485 H   0  0  0  0  0  0  0  0  0  0  0  0
   -4.5607   -1.1014   -1.5048 H   0  0  0  0  0  0  0  0  0  0  0  0
   -4.3011   -2.0457   -3.5121 H   0  0  0  0  0  0  0  0  0  0  0  0
   -2.4948   -1.7903   -3.4567 H   0  0  0  0  0  0  0  0  0  0  0  0
   -3.6074   -0.5088   -4.0540 H   0  0  0  0  0  0  0  0  0  0  0  0
   -4.9179    0.9221   -2.2818 H   0  0  0  0  0  0  0  0  0  0  0  0
   -3.1949    1.2660   -2.7450 H   0  0  0  0  0  0  0  0  0  0  0  0
   -1.8264    1.3336    1.9792 H   0  0  0  0  0  0  0  0  0  0  0  0
   -3.7257    3.0154    3.3618 H   0  0  0  0  0  0  0  0  0  0  0  0
   -5.8975    4.1553    3.0938 H   0  0  0  0  0  0  0  0  0  0  0  0
   -7.1347    3.9673    0.9648 H   0  0  0  0  0  0  0  0  0  0  0  0
   -6.1730    2.6156   -0.9138 H   0  0  0  0  0  0  0  0  0  0  0  0
  1  2  1  0
  2  3  1  0
  3  4  2  0
  4  5  1  0
  5  6  1  0
  6  7  1  0
  7  8  1  0
  8  9  1  0
  9 10  1  0
 10 11  1  0
 11 12  1  0
 12 13  1  0
  5 14  2  0
 14 15  1  0
 15 16  2  0
 16 17  1  0
 17 18  1  0
 18 19  1  0
 19 20  1  0
 20 21  1  0
 20 22  1  0
 20 23  1  0
 23 24  1  0
 18 25  1  0
 25 26  1  0
 25 27  1  0
 27 28  1  0
 28 29  2  0
 29 30  1  0
 30 31  1  0
 31 32  2  0
 32 33  1  0
 33 34  2  0
 34 35  1  0
 35 36  2  0
 16  3  1  0
 29 17  1  0
 36 31  1  0
 36 28  1  0
  1 37  1  0
  1 38  1  0
  1 39  1  0
  4 40  1  0
  7 41  1  0
  7 42  1  0
  8 43  1  0
  8 44  1  0
  9 45  1  0
 10 46  1  0
 10 47  1  0
 11 48  1  0
 11 49  1  0
 12 50  1  0
 12 51  1  0
 14 52  1  0
 15 53  1  0
 17 54  1  6
 19 55  1  0
 19 56  1  0
 23 57  1  0
 23 58  1  0
 24 59  1  0
 25 60  1  1
 26 61  1  0
 26 62  1  0
 26 63  1  0
 27 64  1  0
 27 65  1  0
 30 66  1  0
 32 67  1  0
 33 68  1  0
 34 69  1  0
 35 70  1  0
M  END
$$$$
[H]Oc1c([H])c([H])c(/C(=C(/c2c([H])c([H])c([H])c([H])c2[H])c2c([H])c([H])c(OC([H])([H])C([H])([H])N(C([H])([H])[H])C([H])([H])[H])c([H])c2[H])C([H])([H])C([H])([H])[H])c([H])c1[H]
     RDKit          3D

 58 60  0  0  0  0  0  0  0  0999 V2000
   -4.5523   -1.9241   -1.6089 C   0  0  0  0  0  0  0  0  0  0  0  0
   -4.2335   -1.5077   -0.1488 C   0  0  0  0  0  0  0  0  0  0  0  0
   -2.8908   -0.8017   -0.2210 C   0  0  0  0  0  0  0  0  0  0  0  0
   -1.8999   -1.2093    0.5498 C   0  0  0  0  0  0  0  0  0  0  0  0
   -2.0837   -2.3426    1.4792 C   0  0  0  0  0  0  0  0  0  0  0  0
   -1.3473   -3.4804    1.3771 C   0  0  0  0  0  0  0  0  0  0  0  0
   -1.4833   -4.5268    2.3147 C   0  0  0  0  0  0  0  0  0  0  0  0
   -2.3782   -4.3960    3.3523 C   0  0  0  0  0  0  0  0  0  0  0  0
   -3.1294   -3.2721    3.4808 C   0  0  0  0  0  0  0  0  0  0  0  0
   -2.9754   -2.2747    2.5572 C   0  0  0  0  0  0  0  0  0  0  0  0
   -0.6759   -0.4296    0.5650 C   0  0  0  0  0  0  0  0  0  0  0  0
   -0.7590    0.9112    0.8663 C   0  0  0  0  0  0  0  0  0  0  0  0
    0.3547    1.7633    0.8832 C   0  0  0  0  0  0  0  0  0  0  0  0
    1.5763    1.2050    0.5812 C   0  0  0  0  0  0  0  0  0  0  0  0
    2.7492    1.9864    0.5709 O   0  0  0  0  0  0  0  0  0  0  0  0
    3.9955    1.3609    0.2489 C   0  0  0  0  0  0  0  0  0  0  0  0
    5.0842    2.3752    0.2864 C   0  0  0  0  0  0  0  0  0  0  0  0
    6.3731    1.8487   -0.0230 N   0  0  0  0  0  0  0  0  0  0  0  0
    6.8502    0.9516    1.0079 C   0  0  0  0  0  0  0  0  0  0  0  0
    6.4646    1.1859   -1.2821 C   0  0  0  0  0  0  0  0  0  0  0  0
    1.6523   -0.1300    0.2839 C   0  0  0  0  0  0  0  0  0  0  0  0
    0.5274   -0.9771    0.2691 C   0  0  0  0  0  0  0  0  0  0  0  0
   -2.7553    0.2586   -1.2020 C   0  0  0  0  0  0  0  0  0  0  0  0
   -1.7914    0.3602   -2.1612 C   0  0  0  0  0  0  0  0  0  0  0  0
   -1.7531    1.4381   -3.0464 C   0  0  0  0  0  0  0  0  0  0  0  0
   -2.6998    2.4343   -2.9717 C   0  0  0  0  0  0  0  0  0  0  0  0
   -2.6629    3.5089   -3.8524 O   0  0  0  0  0  0  0  0  0  0  0  0
   -3.6773    2.3224   -1.9948 C   0  0  0  0  0  0  0  0  0  0  0  0
   -3.7294    1.2696   -1.1156 C   0  0  0  0  0  0  0  0  0  0  0  0
   -5.3048   -2.7134   -1.5954 H   0  0  0  0  0  0  0  0  0  0  0  0
   -3.6104   -2.3599   -1.9878 H   0  0  0  0  0  0  0  0  0  0  0  0
   -4.8132   -1.0331   -2.2061 H   0  0  0  0  0  0  0  0  0  0  0  0
   -4.1863   -2.4484    0.3773 H   0  0  0  0  0  0  0  0  0  0  0  0
   -5.0103   -0.8492    0.2587 H   0  0  0  0  0  0  0  0  0  0  0  0
   -0.6445   -3.6933    0.6087 H   0  0  0  0  0  0  0  0  0  0  0  0
   -0.8890   -5.4251    2.2260 H   0  0  0  0  0  0  0  0  0  0  0  0
   -2.5075   -5.1773    4.0852 H   0  0  0  0  0  0  0  0  0  0  0  0
   -3.8416   -3.1643    4.3047 H   0  0  0  0  0  0  0  0  0  0  0  0
   -3.5621   -1.3694    2.6394 H   0  0  0  0  0  0  0  0  0  0  0  0
   -1.6863    1.3825    1.1265 H   0  0  0  0  0  0  0  0  0  0  0  0
    0.2462    2.8113    1.1251 H   0  0  0  0  0  0  0  0  0  0  0  0
    3.9556    0.9491   -0.7996 H   0  0  0  0  0  0  0  0  0  0  0  0
    4.1156    0.5289    0.9588 H   0  0  0  0  0  0  0  0  0  0  0  0
    4.8372    3.1642   -0.4562 H   0  0  0  0  0  0  0  0  0  0  0  0
    5.1054    2.8356    1.2946 H   0  0  0  0  0  0  0  0  0  0  0  0
    6.0555    0.4718    1.5815 H   0  0  0  0  0  0  0  0  0  0  0  0
    7.4419    0.1184    0.5312 H   0  0  0  0  0  0  0  0  0  0  0  0
    7.4997    1.5197    1.7281 H   0  0  0  0  0  0  0  0  0  0  0  0
    7.5657    1.1371   -1.5376 H   0  0  0  0  0  0  0  0  0  0  0  0
    6.1532    0.1164   -1.2024 H   0  0  0  0  0  0  0  0  0  0  0  0
    5.9841    1.7196   -2.1191 H   0  0  0  0  0  0  0  0  0  0  0  0
    2.6161   -0.6002    0.0401 H   0  0  0  0  0  0  0  0  0  0  0  0
    0.6910   -2.0238    0.0099 H   0  0  0  0  0  0  0  0  0  0  0  0
   -1.0636   -0.4383   -2.2274 H   0  0  0  0  0  0  0  0  0  0  0  0
   -0.9503    1.4361   -3.7779 H   0  0  0  0  0  0  0  0  0  0  0  0
   -3.3779    4.2178   -3.7598 H   0  0  0  0  0  0  0  0  0  0  0  0
   -4.4463    3.0945   -1.9011 H   0  0  0  0  0  0  0  0  0  0  0  0
   -4.5225    1.2432   -0.3714 H   0  0  0  0  0  0  0  0  0  0  0  0
  1  2  1  0
  2  3  1  0
  3  4  2  0
  4  5  1  0
  5  6  2  0
  6  7  1  0
  7  8  2  0
  8  9  1  0
  9 10  2  0
  4 11  1  0
 11 12  2  0
 12 13  1  0
 13 14  2  0
 14 15  1  0
 15 16  1  0
 16 17  1  0
 17 18  1  0
 18 19  1  0
 18 20  1  0
 14 21  1  0
 21 22  2  0
  3 23  1  0
 23 24  2  0
 24 25  1  0
 25 26  2  0
 26 27  1  0
 26 28  1  0
 28 29  2  0
 10  5  1  0
 22 11  1  0
 29 23  1  0
  1 30  1  0
  1 31  1  0
  1 32  1  0
  2 33  1  0
  2 34  1  0
  6 35  1  0
  7 36  1  0
  8 37  1  0
  9 38  1  0
 10 39  1  0
 12 40  1  0
 13 41  1  0
 16 42  1  0
 16 43  1  0
 17 44  1  0
 17 45  1  0
 19 46  1  0
 19 47  1  0
 19 48  1  0
 20 49  1  0
 20 50  1  0
 20 51  1  0
 21 52  1  0
 22 53  1  0
 24 54  1  0
 25 55  1  0
 27 56  1  0
 28 57  1  0
 29 58  1  0
M  END
$$$$
[H]Oc1c([H])c([H])c(/C(=C(\c2c([H])c([H])c([H])c([H])c2[H])C([H])([H])C([H])([H])[H])c2c([H])c([H])c(OC([H])([H])C([H])([H])C([H])([H])N([H])[H])c([H])c2[H])c([H])c1[H]
     RDKit          3D

 55 57  0  0  0  0  0  0  0  0999 V2000
   -1.8559   -3.5881   -1.1589 C   0  0  0  0  0  0  0  0  0  0  0  0
   -1.3719   -2.7844    0.0135 C   0  0  0  0  0  0  0  0  0  0  0  0
   -2.0661   -1.4447    0.1211 C   0  0  0  0  0  0  0  0  0  0  0  0
   -1.3791   -0.3417    0.0759 C   0  0  0  0  0  0  0  0  0  0  0  0
   -2.0003    0.9616    0.1886 C   0  0  0  0  0  0  0  0  0  0  0  0
   -2.8794    1.2467    1.1885 C   0  0  0  0  0  0  0  0  0  0  0  0
   -3.4706    2.5121    1.2902 C   0  0  0  0  0  0  0  0  0  0  0  0
   -3.1267    3.4630    0.3356 C   0  0  0  0  0  0  0  0  0  0  0  0
   -3.6833    4.7283    0.3932 O   0  0  0  0  0  0  0  0  0  0  0  0
   -2.2341    3.1927   -0.6897 C   0  0  0  0  0  0  0  0  0  0  0  0
   -1.6923    1.9272   -0.7276 C   0  0  0  0  0  0  0  0  0  0  0  0
    0.0871   -0.2635   -0.1459 C   0  0  0  0  0  0  0  0  0  0  0  0
    0.7519   -0.8669   -1.1630 C   0  0  0  0  0  0  0  0  0  0  0  0
    2.1103   -0.7438   -1.2731 C   0  0  0  0  0  0  0  0  0  0  0  0
    2.8879   -0.0081   -0.3716 C   0  0  0  0  0  0  0  0  0  0  0  0
    4.2632    0.0798   -0.5388 O   0  0  0  0  0  0  0  0  0  0  0  0
    5.1549    0.7689    0.2712 C   0  0  0  0  0  0  0  0  0  0  0  0
    6.5468    0.5635   -0.3394 C   0  0  0  0  0  0  0  0  0  0  0  0
    7.5620    1.3006    0.5026 C   0  0  0  0  0  0  0  0  0  0  0  0
    8.8553    1.0970   -0.0913 N   0  0  0  0  0  0  0  0  0  0  0  0
    2.1959    0.5989    0.6561 C   0  0  0  0  0  0  0  0  0  0  0  0
    0.8298    0.4777    0.7711 C   0  0  0  0  0  0  0  0  0  0  0  0
   -3.5250   -1.5092    0.1866 C   0  0  0  0  0  0  0  0  0  0  0  0
   -4.3628   -0.8063   -0.6489 C   0  0  0  0  0  0  0  0  0  0  0  0
   -5.7327   -0.9116   -0.5459 C   0  0  0  0  0  0  0  0  0  0  0  0
   -6.3316   -1.7257    0.3984 C   0  0  0  0  0  0  0  0  0  0  0  0
   -5.5032   -2.4347    1.2417 C   0  0  0  0  0  0  0  0  0  0  0  0
   -4.1353   -2.3258    1.1344 C   0  0  0  0  0  0  0  0  0  0  0  0
   -1.0499   -3.7003   -1.9394 H   0  0  0  0  0  0  0  0  0  0  0  0
   -2.7161   -3.0439   -1.6440 H   0  0  0  0  0  0  0  0  0  0  0  0
   -2.2094   -4.5919   -0.9189 H   0  0  0  0  0  0  0  0  0  0  0  0
   -1.7818   -3.3478    0.9244 H   0  0  0  0  0  0  0  0  0  0  0  0
   -0.3114   -2.7541    0.1817 H   0  0  0  0  0  0  0  0  0  0  0  0
   -3.1709    0.5331    1.9538 H   0  0  0  0  0  0  0  0  0  0  0  0
   -4.1606    2.7866    2.0475 H   0  0  0  0  0  0  0  0  0  0  0  0
   -3.2022    5.4591    0.9347 H   0  0  0  0  0  0  0  0  0  0  0  0
   -1.9700    3.9451   -1.4327 H   0  0  0  0  0  0  0  0  0  0  0  0
   -0.9956    1.7022   -1.5178 H   0  0  0  0  0  0  0  0  0  0  0  0
    0.2031   -1.4353   -1.8874 H   0  0  0  0  0  0  0  0  0  0  0  0
    2.6431   -1.2294   -2.0894 H   0  0  0  0  0  0  0  0  0  0  0  0
    4.9606    1.8335    0.4021 H   0  0  0  0  0  0  0  0  0  0  0  0
    5.1767    0.2635    1.2606 H   0  0  0  0  0  0  0  0  0  0  0  0
    6.8224   -0.5090   -0.3311 H   0  0  0  0  0  0  0  0  0  0  0  0
    6.5698    0.9105   -1.3952 H   0  0  0  0  0  0  0  0  0  0  0  0
    7.2902    2.3842    0.5251 H   0  0  0  0  0  0  0  0  0  0  0  0
    7.4925    0.8415    1.5258 H   0  0  0  0  0  0  0  0  0  0  0  0
    9.1311    2.0160   -0.5526 H   0  0  0  0  0  0  0  0  0  0  0  0
    9.5275    0.9015    0.6845 H   0  0  0  0  0  0  0  0  0  0  0  0
    2.7788    1.1776    1.3712 H   0  0  0  0  0  0  0  0  0  0  0  0
    0.3443    0.9894    1.6164 H   0  0  0  0  0  0  0  0  0  0  0  0
   -3.9563   -0.1464   -1.4170 H   0  0  0  0  0  0  0  0  0  0  0  0
   -6.4097   -0.3600   -1.2037 H   0  0  0  0  0  0  0  0  0  0  0  0
   -7.4226   -1.8009    0.4703 H   0  0  0  0  0  0  0  0  0  0  0  0
   -5.9358   -3.0794    1.9907 H   0  0  0  0  0  0  0  0  0  0  0  0
   -3.5426   -2.9087    1.8292 H   0  0  0  0  0  0  0  0  0  0  0  0
  1  2  1  0
  2  3  1  0
  3  4  2  0
  4  5  1  0
  5  6  2  0
  6  7  1  0
  7  8  2  0
  8  9  1  0
  8 10  1  0
 10 11  2  0
  4 12  1  0
 12 13  2  0
 13 14  1  0
 14 15  2  0
 15 16  1  0
 16 17  1  0
 17 18  1  0
 18 19  1  0
 19 20  1  0
 15 21  1  0
 21 22  2  0
  3 23  1  0
 23 24  2  0
 24 25  1  0
 25 26  2  0
 26 27  1  0
 27 28  2  0
 11  5  1  0
 22 12  1  0
 28 23  1  0
  1 29  1  0
  1 30  1  0
  1 31  1  0
  2 32  1  0
  2 33  1  0
  6 34  1  0
  7 35  1  0
  9 36  1  0
 10 37  1  0
 11 38  1  0
 13 39  1  0
 14 40  1  0
 17 41  1  0
 17 42  1  0
 18 43  1  0
 18 44  1  0
 19 45  1  0
 19 46  1  0
 20 47  1  0
 20 48  1  0
 21 49  1  0
 22 50  1  0
 24 51  1  0
 25 52  1  0
 26 53  1  0
 27 54  1  0
 28 55  1  0
M  END
$$$$
[H]Oc1c([H])c([H])c([C@@]2([H])Sc3c([H])c(O[H])c([H])c([H])c3S[C@@]2([H])c2c([H])c([H])c(OC([H])([H])C([H])([H])N3C([H])([H])C([H])([H])C([H])([H])C([H])([H])C3([H])[H])c(Br)c2[H])c([H])c1[H]
     RDKit          3D

 62 66  0  0  0  0  0  0  0  0999 V2000
   -3.2754   -1.8531   -5.4287 O   0  0  0  0  0  0  0  0  0  0  0  0
   -3.4462   -1.1700   -4.2351 C   0  0  0  0  0  0  0  0  0  0  0  0
   -2.8921   -1.6728   -3.0793 C   0  0  0  0  0  0  0  0  0  0  0  0
   -3.0320   -1.0253   -1.8465 C   0  0  0  0  0  0  0  0  0  0  0  0
   -3.7402    0.1521   -1.7575 C   0  0  0  0  0  0  0  0  0  0  0  0
   -4.2938    0.6585   -2.8988 C   0  0  0  0  0  0  0  0  0  0  0  0
   -4.1508    0.0110   -4.1166 C   0  0  0  0  0  0  0  0  0  0  0  0
   -3.8670    0.8211   -0.4595 C   0  0  1  0  0  0  0  0  0  0  0  0
   -4.4311   -0.2445    0.8611 S   0  0  0  0  0  0  0  0  0  0  0  0
   -5.1383    0.8207    2.0861 C   0  0  0  0  0  0  0  0  0  0  0  0
   -6.2368    0.4575    2.8054 C   0  0  0  0  0  0  0  0  0  0  0  0
   -6.7824    1.3301    3.7694 C   0  0  0  0  0  0  0  0  0  0  0  0
   -7.8986    0.9541    4.4963 O   0  0  0  0  0  0  0  0  0  0  0  0
   -6.1858    2.5520    3.9697 C   0  0  0  0  0  0  0  0  0  0  0  0
   -5.0747    2.9180    3.2415 C   0  0  0  0  0  0  0  0  0  0  0  0
   -4.5393    2.0419    2.2840 C   0  0  0  0  0  0  0  0  0  0  0  0
   -3.1063    2.5913    1.3970 S   0  0  0  0  0  0  0  0  0  0  0  0
   -2.6627    1.5865   -0.0244 C   0  0  1  0  0  0  0  0  0  0  0  0
   -1.4684    0.7804    0.3034 C   0  0  0  0  0  0  0  0  0  0  0  0
   -0.3926    0.7269   -0.5547 C   0  0  0  0  0  0  0  0  0  0  0  0
    0.7482   -0.0102   -0.2679 C   0  0  0  0  0  0  0  0  0  0  0  0
    0.8604   -0.7282    0.8988 C   0  0  0  0  0  0  0  0  0  0  0  0
    1.9559   -1.4802    1.2456 O   0  0  0  0  0  0  0  0  0  0  0  0
    3.1459   -1.6909    0.6123 C   0  0  0  0  0  0  0  0  0  0  0  0
    4.0404   -0.4923    0.4468 C   0  0  0  0  0  0  0  0  0  0  0  0
    5.2664   -0.8287   -0.2426 N   0  0  0  0  0  0  0  0  0  0  0  0
    6.1347   -1.6672    0.5142 C   0  0  0  0  0  0  0  0  0  0  0  0
    7.4653   -1.0292    0.8324 C   0  0  0  0  0  0  0  0  0  0  0  0
    8.1798   -0.4779   -0.3640 C   0  0  0  0  0  0  0  0  0  0  0  0
    7.2098   -0.2273   -1.4710 C   0  0  0  0  0  0  0  0  0  0  0  0
    5.9068    0.2762   -0.8825 C   0  0  0  0  0  0  0  0  0  0  0  0
   -0.2228   -0.6799    1.7723 C   0  0  0  0  0  0  0  0  0  0  0  0
   -0.1141   -1.6668    3.4131 Br  0  0  0  0  0  0  0  0  0  0  0  0
   -1.3243    0.0522    1.4585 C   0  0  0  0  0  0  0  0  0  0  0  0
   -3.9087   -2.5558   -5.7512 H   0  0  0  0  0  0  0  0  0  0  0  0
   -2.3260   -2.6080   -3.1351 H   0  0  0  0  0  0  0  0  0  0  0  0
   -2.5747   -1.4785   -0.9733 H   0  0  0  0  0  0  0  0  0  0  0  0
   -4.8516    1.5905   -2.8128 H   0  0  0  0  0  0  0  0  0  0  0  0
   -4.6017    0.4375   -5.0057 H   0  0  0  0  0  0  0  0  0  0  0  0
   -4.6729    1.6129   -0.6043 H   0  0  0  0  0  0  0  0  0  0  0  0
   -6.6939   -0.5136    2.6314 H   0  0  0  0  0  0  0  0  0  0  0  0
   -8.2631    1.5973    5.1756 H   0  0  0  0  0  0  0  0  0  0  0  0
   -6.6223    3.2241    4.7254 H   0  0  0  0  0  0  0  0  0  0  0  0
   -4.6481    3.8887    3.4405 H   0  0  0  0  0  0  0  0  0  0  0  0
   -2.3555    2.3153   -0.8520 H   0  0  0  0  0  0  0  0  0  0  0  0
   -0.4076    1.2636   -1.4855 H   0  0  0  0  0  0  0  0  0  0  0  0
    1.5688   -0.0502   -0.9781 H   0  0  0  0  0  0  0  0  0  0  0  0
    3.7388   -2.4526    1.2165 H   0  0  0  0  0  0  0  0  0  0  0  0
    2.9795   -2.1437   -0.4116 H   0  0  0  0  0  0  0  0  0  0  0  0
    3.5476    0.3520   -0.0280 H   0  0  0  0  0  0  0  0  0  0  0  0
    4.3741   -0.1353    1.4654 H   0  0  0  0  0  0  0  0  0  0  0  0
    6.3712   -2.6359   -0.0099 H   0  0  0  0  0  0  0  0  0  0  0  0
    5.6911   -1.9619    1.4829 H   0  0  0  0  0  0  0  0  0  0  0  0
    7.3001   -0.2243    1.5795 H   0  0  0  0  0  0  0  0  0  0  0  0
    8.0984   -1.8269    1.2763 H   0  0  0  0  0  0  0  0  0  0  0  0
    8.7223    0.4342   -0.0399 H   0  0  0  0  0  0  0  0  0  0  0  0
    8.9525   -1.1927   -0.7115 H   0  0  0  0  0  0  0  0  0  0  0  0
    7.0743   -1.1355   -2.0796 H   0  0  0  0  0  0  0  0  0  0  0  0
    7.6145    0.6145   -2.1010 H   0  0  0  0  0  0  0  0  0  0  0  0
    5.2503    0.6299   -1.7144 H   0  0  0  0  0  0  0  0  0  0  0  0
    6.1275    1.1207   -0.2263 H   0  0  0  0  0  0  0  0  0  0  0  0
   -2.1229    0.0476    2.1890 H   0  0  0  0  0  0  0  0  0  0  0  0
  1  2  1  0
  2  3  2  0
  3  4  1  0
  4  5  2  0
  5  6  1  0
  6  7  2  0
  5  8  1  0
  8  9  1  0
  9 10  1  0
 10 11  2  0
 11 12  1  0
 12 13  1  0
 12 14  2  0
 14 15  1  0
 15 16  2  0
 16 17  1  0
 17 18  1  0
 18 19  1  0
 19 20  2  0
 20 21  1  0
 21 22  2  0
 22 23  1  0
 23 24  1  0
 24 25  1  0
 25 26  1  0
 26 27  1  0
 27 28  1  0
 28 29  1  0
 29 30  1  0
 30 31  1  0
 22 32  1  0
 32 33  1  0
 32 34  2  0
  7  2  1  0
 18  8  1  0
 34 19  1  0
 16 10  1  0
 31 26  1  0
  1 35  1  0
  3 36  1  0
  4 37  1  0
  6 38  1  0
  7 39  1  0
  8 40  1  6
 11 41  1  0
 13 42  1  0
 14 43  1  0
 15 44  1  0
 18 45  1  6
 20 46  1  0
 21 47  1  0
 24 48  1  0
 24 49  1  0
 25 50  1  0
 25 51  1  0
 27 52  1  0
 27 53  1  0
 28 54  1  0
 28 55  1  0
 29 56  1  0
 29 57  1  0
 30 58  1  0
 30 59  1  0
 31 60  1  0
 31 61  1  0
 34 62  1  0
M  END
$$$$
[H]OC(=O)/C([H])=C(\[H])c1c([H])c([H])c(Oc2c(-c3c([H])c([H])c([H])c([H])c3C([H])([H])OC([H])([H])[H])sc3c([H])c(O[H])c([H])c([H])c23)c([H])c1[H]
     RDKit          3D

 51 54  0  0  0  0  0  0  0  0999 V2000
   -5.6041    1.2485    2.4201 C   0  0  0  0  0  0  0  0  0  0  0  0
   -4.8399    1.9267    1.4620 O   0  0  0  0  0  0  0  0  0  0  0  0
   -3.9283    1.0052    0.8746 C   0  0  0  0  0  0  0  0  0  0  0  0
   -3.1024    1.6703   -0.1415 C   0  0  0  0  0  0  0  0  0  0  0  0
   -3.4010    3.0216   -0.3658 C   0  0  0  0  0  0  0  0  0  0  0  0
   -2.7404    3.7661   -1.2830 C   0  0  0  0  0  0  0  0  0  0  0  0
   -1.7546    3.2023   -2.0185 C   0  0  0  0  0  0  0  0  0  0  0  0
   -1.4517    1.8526   -1.7993 C   0  0  0  0  0  0  0  0  0  0  0  0
   -2.1019    1.0829   -0.8804 C   0  0  0  0  0  0  0  0  0  0  0  0
   -1.8054   -0.3379   -0.6713 C   0  0  0  0  0  0  0  0  0  0  0  0
   -2.7818   -1.4820    0.1928 S   0  0  0  0  0  0  0  0  0  0  0  0
   -1.8203   -2.8594    0.0444 C   0  0  0  0  0  0  0  0  0  0  0  0
   -1.9647   -4.1758    0.4926 C   0  0  0  0  0  0  0  0  0  0  0  0
   -1.0025   -5.1204    0.2225 C   0  0  0  0  0  0  0  0  0  0  0  0
   -1.0933   -6.4328    0.6399 O   0  0  0  0  0  0  0  0  0  0  0  0
    0.0835   -4.6691   -0.5065 C   0  0  0  0  0  0  0  0  0  0  0  0
    0.2421   -3.3826   -0.9543 C   0  0  0  0  0  0  0  0  0  0  0  0
   -0.7493   -2.4206   -0.6729 C   0  0  0  0  0  0  0  0  0  0  0  0
   -0.7427   -1.1111   -1.0422 C   0  0  0  0  0  0  0  0  0  0  0  0
    0.3348   -0.5249   -1.7908 O   0  0  0  0  0  0  0  0  0  0  0  0
    1.4700   -0.1164   -1.1392 C   0  0  0  0  0  0  0  0  0  0  0  0
    2.5015    0.4355   -1.8517 C   0  0  0  0  0  0  0  0  0  0  0  0
    3.6715    0.8671   -1.2561 C   0  0  0  0  0  0  0  0  0  0  0  0
    3.8111    0.7392    0.1097 C   0  0  0  0  0  0  0  0  0  0  0  0
    5.0605    1.2007    0.7351 C   0  0  0  0  0  0  0  0  0  0  0  0
    5.3063    1.1323    2.0214 C   0  0  0  0  0  0  0  0  0  0  0  0
    6.5924    1.6217    2.5591 C   0  0  0  0  0  0  0  0  0  0  0  0
    7.5346    2.1531    1.6858 O   0  0  0  0  0  0  0  0  0  0  0  0
    6.8095    1.5488    3.7912 O   0  0  0  0  0  0  0  0  0  0  0  0
    2.8009    0.1943    0.8400 C   0  0  0  0  0  0  0  0  0  0  0  0
    1.6258   -0.2357    0.2160 C   0  0  0  0  0  0  0  0  0  0  0  0
   -4.8771    0.8553    3.1689 H   0  0  0  0  0  0  0  0  0  0  0  0
   -6.2806    1.9293    2.9584 H   0  0  0  0  0  0  0  0  0  0  0  0
   -6.1828    0.4329    1.9287 H   0  0  0  0  0  0  0  0  0  0  0  0
   -3.3621    0.5909    1.7130 H   0  0  0  0  0  0  0  0  0  0  0  0
   -4.6091    0.2689    0.3707 H   0  0  0  0  0  0  0  0  0  0  0  0
   -4.1946    3.5144    0.2109 H   0  0  0  0  0  0  0  0  0  0  0  0
   -3.0201    4.8165   -1.4112 H   0  0  0  0  0  0  0  0  0  0  0  0
   -1.2230    3.7882   -2.7519 H   0  0  0  0  0  0  0  0  0  0  0  0
   -0.6909    1.4782   -2.4331 H   0  0  0  0  0  0  0  0  0  0  0  0
   -2.8290   -4.4796    1.0574 H   0  0  0  0  0  0  0  0  0  0  0  0
   -0.4045   -7.1351    0.4538 H   0  0  0  0  0  0  0  0  0  0  0  0
    0.8468   -5.4384   -0.7150 H   0  0  0  0  0  0  0  0  0  0  0  0
    1.1341   -3.1704   -1.5091 H   0  0  0  0  0  0  0  0  0  0  0  0
    2.4383    0.5571   -2.9291 H   0  0  0  0  0  0  0  0  0  0  0  0
    4.4910    1.3034   -1.8078 H   0  0  0  0  0  0  0  0  0  0  0  0
    5.8546    1.6327    0.1188 H   0  0  0  0  0  0  0  0  0  0  0  0
    4.5786    0.7211    2.6984 H   0  0  0  0  0  0  0  0  0  0  0  0
    7.6367    3.1164    1.4687 H   0  0  0  0  0  0  0  0  0  0  0  0
    2.8616    0.0737    1.9030 H   0  0  0  0  0  0  0  0  0  0  0  0
    0.8714   -0.6558    0.8580 H   0  0  0  0  0  0  0  0  0  0  0  0
  1  2  1  0
  2  3  1  0
  3  4  1  0
  4  5  2  0
  5  6  1  0
  6  7  2  0
  7  8  1  0
  8  9  2  0
  9 10  1  0
 10 11  1  0
 11 12  1  0
 12 13  2  0
 13 14  1  0
 14 15  1  0
 14 16  2  0
 16 17  1  0
 17 18  2  0
 18 19  1  0
 19 20  1  0
 20 21  1  0
 21 22  2  0
 22 23  1  0
 23 24  2  0
 24 25  1  0
 25 26  2  0
 26 27  1  0
 27 28  1  0
 27 29  2  0
 24 30  1  0
 30 31  2  0
  9  4  1  0
 19 10  2  0
 31 21  1  0
 18 12  1  0
  1 32  1  0
  1 33  1  0
  1 34  1  0
  3 35  1  0
  3 36  1  0
  5 37  1  0
  6 38  1  0
  7 39  1  0
  8 40  1  0
 13 41  1  0
 15 42  1  0
 16 43  1  0
 17 44  1  0
 22 45  1  0
 23 46  1  0
 25 47  1  0
 26 48  1  0
 28 49  1  0
 30 50  1  0
 31 51  1  0
M  END
$$$$
[H]Oc1c([H])c([H])c([C@@]2([H])Sc3c([H])c(O[H])c([H])c([H])c3O[C@@]2([H])c2c([H])c([H])c(OC([H])([H])C([H])([H])N3C([H])([H])C4([H])C([H])([H])C([H])([H])C3([H])C([H])([H])C4([H])[H])c([H])c2[H])c([H])c1[H]
     RDKit          3D

 66 71  0  0  0  0  0  0  0  0999 V2000
   -6.0411    0.1940   -6.0973 O   0  0  0  0  0  0  0  0  0  0  0  0
   -5.6991    0.2164   -4.7273 C   0  0  0  0  0  0  0  0  0  0  0  0
   -4.8858    1.2007   -4.2206 C   0  0  0  0  0  0  0  0  0  0  0  0
   -4.5644    1.2030   -2.8788 C   0  0  0  0  0  0  0  0  0  0  0  0
   -5.0208    0.2558   -1.9981 C   0  0  0  0  0  0  0  0  0  0  0  0
   -5.8353   -0.7264   -2.5155 C   0  0  0  0  0  0  0  0  0  0  0  0
   -6.1723   -0.7475   -3.8669 C   0  0  0  0  0  0  0  0  0  0  0  0
   -4.6699    0.2742   -0.6089 C   0  0  1  0  0  0  0  0  0  0  0  0
   -4.0841   -1.3367    0.0664 S   0  0  0  0  0  0  0  0  0  0  0  0
   -3.8450   -0.9502    1.7749 C   0  0  0  0  0  0  0  0  0  0  0  0
   -3.6774   -1.9423    2.6896 C   0  0  0  0  0  0  0  0  0  0  0  0
   -3.4913   -1.6817    4.0419 C   0  0  0  0  0  0  0  0  0  0  0  0
   -3.3185   -2.6690    4.9952 O   0  0  0  0  0  0  0  0  0  0  0  0
   -3.4772   -0.3710    4.4634 C   0  0  0  0  0  0  0  0  0  0  0  0
   -3.6472    0.6408    3.5373 C   0  0  0  0  0  0  0  0  0  0  0  0
   -3.8323    0.3516    2.1840 C   0  0  0  0  0  0  0  0  0  0  0  0
   -3.9935    1.4326    1.3350 O   0  0  0  0  0  0  0  0  0  0  0  0
   -3.7709    1.3051   -0.0803 C   0  0  1  0  0  0  0  0  0  0  0  0
   -2.3284    1.1506   -0.2605 C   0  0  0  0  0  0  0  0  0  0  0  0
   -1.4377    1.9861    0.4266 C   0  0  0  0  0  0  0  0  0  0  0  0
   -0.0765    1.8830    0.2943 C   0  0  0  0  0  0  0  0  0  0  0  0
    0.4684    0.9280   -0.5414 C   0  0  0  0  0  0  0  0  0  0  0  0
    1.8584    0.8432   -0.6603 O   0  0  0  0  0  0  0  0  0  0  0  0
    2.7610    1.6634    0.0111 C   0  0  0  0  0  0  0  0  0  0  0  0
    4.1575    1.2404   -0.4014 C   0  0  0  0  0  0  0  0  0  0  0  0
    4.4218   -0.1380   -0.0630 N   0  0  0  0  0  0  0  0  0  0  0  0
    4.5028   -0.3512    1.3646 C   0  0  0  0  0  0  0  0  0  0  0  0
    5.8441   -0.9367    1.7107 C   0  0  0  0  0  0  0  0  0  0  0  0
    6.9063    0.0386    1.2214 C   0  0  0  0  0  0  0  0  0  0  0  0
    6.8608    0.0115   -0.2924 C   0  0  0  0  0  0  0  0  0  0  0  0
    5.5782   -0.6279   -0.7476 C   0  0  0  0  0  0  0  0  0  0  0  0
    5.6732   -2.1253   -0.4504 C   0  0  0  0  0  0  0  0  0  0  0  0
    6.0830   -2.2409    1.0105 C   0  0  0  0  0  0  0  0  0  0  0  0
   -0.3705    0.1011   -1.2225 C   0  0  0  0  0  0  0  0  0  0  0  0
   -1.7607    0.2200   -1.0760 C   0  0  0  0  0  0  0  0  0  0  0  0
   -6.6300   -0.5188   -6.4689 H   0  0  0  0  0  0  0  0  0  0  0  0
   -4.4826    1.9855   -4.8462 H   0  0  0  0  0  0  0  0  0  0  0  0
   -3.9188    1.9894   -2.4679 H   0  0  0  0  0  0  0  0  0  0  0  0
   -6.2065   -1.4845   -1.8337 H   0  0  0  0  0  0  0  0  0  0  0  0
   -6.8070   -1.5074   -4.2839 H   0  0  0  0  0  0  0  0  0  0  0  0
   -5.6577    0.4024   -0.0199 H   0  0  0  0  0  0  0  0  0  0  0  0
   -3.6814   -2.9916    2.4029 H   0  0  0  0  0  0  0  0  0  0  0  0
   -4.1736   -3.0295    5.4432 H   0  0  0  0  0  0  0  0  0  0  0  0
   -3.3320   -0.1319    5.5276 H   0  0  0  0  0  0  0  0  0  0  0  0
   -3.6355    1.6588    3.8680 H   0  0  0  0  0  0  0  0  0  0  0  0
   -4.1179    2.2874   -0.4703 H   0  0  0  0  0  0  0  0  0  0  0  0
   -1.8281    2.7431    1.0878 H   0  0  0  0  0  0  0  0  0  0  0  0
    0.6165    2.5247    0.8218 H   0  0  0  0  0  0  0  0  0  0  0  0
    2.6243    1.7028    1.0997 H   0  0  0  0  0  0  0  0  0  0  0  0
    2.6297    2.7073   -0.3800 H   0  0  0  0  0  0  0  0  0  0  0  0
    4.9211    1.9182   -0.0103 H   0  0  0  0  0  0  0  0  0  0  0  0
    4.1841    1.3068   -1.5152 H   0  0  0  0  0  0  0  0  0  0  0  0
    3.7273   -1.0901    1.6453 H   0  0  0  0  0  0  0  0  0  0  0  0
    4.3552    0.5718    1.9442 H   0  0  0  0  0  0  0  0  0  0  0  0
    5.9251   -1.1096    2.8015 H   0  0  0  0  0  0  0  0  0  0  0  0
    6.7476    1.0518    1.6254 H   0  0  0  0  0  0  0  0  0  0  0  0
    7.8995   -0.3013    1.5982 H   0  0  0  0  0  0  0  0  0  0  0  0
    7.7146   -0.6357   -0.6329 H   0  0  0  0  0  0  0  0  0  0  0  0
    6.9670    1.0254   -0.7310 H   0  0  0  0  0  0  0  0  0  0  0  0
    5.4671   -0.4263   -1.8271 H   0  0  0  0  0  0  0  0  0  0  0  0
    4.7073   -2.6025   -0.6469 H   0  0  0  0  0  0  0  0  0  0  0  0
    6.4248   -2.5331   -1.1403 H   0  0  0  0  0  0  0  0  0  0  0  0
    5.5410   -3.0402    1.5311 H   0  0  0  0  0  0  0  0  0  0  0  0
    7.1593   -2.5095    1.0119 H   0  0  0  0  0  0  0  0  0  0  0  0
    0.0554   -0.6489   -1.8781 H   0  0  0  0  0  0  0  0  0  0  0  0
   -2.3117   -0.4948   -1.6735 H   0  0  0  0  0  0  0  0  0  0  0  0
  1  2  1  0
  2  3  2  0
  3  4  1  0
  4  5  2  0
  5  6  1  0
  6  7  2  0
  5  8  1  0
  8  9  1  0
  9 10  1  0
 10 11  2  0
 11 12  1  0
 12 13  1  0
 12 14  2  0
 14 15  1  0
 15 16  2  0
 16 17  1  0
 17 18  1  0
 18 19  1  0
 19 20  2  0
 20 21  1  0
 21 22  2  0
 22 23  1  0
 23 24  1  0
 24 25  1  0
 25 26  1  0
 26 27  1  0
 27 28  1  0
 28 29  1  0
 29 30  1  0
 30 31  1  0
 31 32  1  0
 32 33  1  0
 22 34  1  0
 34 35  2  0
  7  2  1  0
 18  8  1  0
 35 19  1  0
 16 10  1  0
 31 26  1  0
 33 28  1  0
  1 36  1  0
  3 37  1  0
  4 38  1  0
  6 39  1  0
  7 40  1  0
  8 41  1  1
 11 42  1  0
 13 43  1  0
 14 44  1  0
 15 45  1  0
 18 46  1  6
 20 47  1  0
 21 48  1  0
 24 49  1  0
 24 50  1  0
 25 51  1  0
 25 52  1  0
 27 53  1  0
 27 54  1  0
 28 55  1  0
 29 56  1  0
 29 57  1  0
 30 58  1  0
 30 59  1  0
 31 60  1  0
 32 61  1  0
 32 62  1  0
 33 63  1  0
 33 64  1  0
 34 65  1  0
 35 66  1  0
M  END
$$$$
[H]c1c([H])c([H])c(/C(=C(\c2c([H])c([H])c(OC(=O)C([H])([H])C([H])([H])C([H])([H])C([H])([H])C([H])([H])C([H])([H])C([H])([H])C([H])([H])C([H])([H])[H])c([H])c2[H])c2c([H])c([H])c(OC([H])([H])C([H])([H])N3C([H])([H])C([H])([H])C([H])([H])C([H])([H])C3([H])[H])c([H])c2[H])C([H])([H])[H])c([H])c1[H]
     RDKit          3D

 91 94  0  0  0  0  0  0  0  0999 V2000
    9.7929    1.6717    4.0060 C   0  0  0  0  0  0  0  0  0  0  0  0
    8.2851    1.8009    3.8816 C   0  0  0  0  0  0  0  0  0  0  0  0
    7.6079    0.4619    4.1455 C   0  0  0  0  0  0  0  0  0  0  0  0
    6.1148    0.6239    4.0260 C   0  0  0  0  0  0  0  0  0  0  0  0
    5.6739    1.0959    2.6820 C   0  0  0  0  0  0  0  0  0  0  0  0
    6.0961    0.1312    1.6172 C   0  0  0  0  0  0  0  0  0  0  0  0
    5.5198   -1.2616    1.8147 C   0  0  0  0  0  0  0  0  0  0  0  0
    6.0152   -2.1111    0.6779 C   0  0  0  0  0  0  0  0  0  0  0  0
    5.6262   -1.6154   -0.6753 C   0  0  0  0  0  0  0  0  0  0  0  0
    4.1656   -1.5586   -0.8873 C   0  0  0  0  0  0  0  0  0  0  0  0
    3.2894   -2.0051   -0.1338 O   0  0  0  0  0  0  0  0  0  0  0  0
    3.7403   -0.9330   -2.0599 O   0  0  0  0  0  0  0  0  0  0  0  0
    2.4274   -0.7956   -2.4171 C   0  0  0  0  0  0  0  0  0  0  0  0
    1.6321    0.0799   -1.6927 C   0  0  0  0  0  0  0  0  0  0  0  0
    0.3243    0.2311   -2.0359 C   0  0  0  0  0  0  0  0  0  0  0  0
   -0.2165   -0.4761   -3.0954 C   0  0  0  0  0  0  0  0  0  0  0  0
    0.6128   -1.3540   -3.8090 C   0  0  0  0  0  0  0  0  0  0  0  0
    1.9311   -1.5150   -3.4724 C   0  0  0  0  0  0  0  0  0  0  0  0
   -1.6280   -0.3603   -3.4396 C   0  0  0  0  0  0  0  0  0  0  0  0
   -1.9791   -0.0777   -4.6721 C   0  0  0  0  0  0  0  0  0  0  0  0
   -3.4668    0.0216   -4.9776 C   0  0  0  0  0  0  0  0  0  0  0  0
   -1.0560    0.2093   -5.7638 C   0  0  0  0  0  0  0  0  0  0  0  0
   -1.2428   -0.4381   -6.9735 C   0  0  0  0  0  0  0  0  0  0  0  0
   -0.4127   -0.1612   -8.0495 C   0  0  0  0  0  0  0  0  0  0  0  0
    0.6137    0.7511   -7.9660 C   0  0  0  0  0  0  0  0  0  0  0  0
    0.8057    1.3957   -6.7750 C   0  0  0  0  0  0  0  0  0  0  0  0
   -0.0354    1.1095   -5.7002 C   0  0  0  0  0  0  0  0  0  0  0  0
   -2.5577   -0.5681   -2.3315 C   0  0  0  0  0  0  0  0  0  0  0  0
   -3.5996    0.2607   -2.0370 C   0  0  0  0  0  0  0  0  0  0  0  0
   -4.4736   -0.0399   -0.9822 C   0  0  0  0  0  0  0  0  0  0  0  0
   -4.3450   -1.1545   -0.1955 C   0  0  0  0  0  0  0  0  0  0  0  0
   -5.1433   -1.5255    0.8464 O   0  0  0  0  0  0  0  0  0  0  0  0
   -6.2459   -0.9160    1.4162 C   0  0  0  0  0  0  0  0  0  0  0  0
   -5.9922    0.3860    2.0895 C   0  0  0  0  0  0  0  0  0  0  0  0
   -7.1181    1.0500    2.6363 N   0  0  0  0  0  0  0  0  0  0  0  0
   -6.7446    2.2116    3.3730 C   0  0  0  0  0  0  0  0  0  0  0  0
   -6.5124    1.8448    4.8295 C   0  0  0  0  0  0  0  0  0  0  0  0
   -7.6971    1.1201    5.3984 C   0  0  0  0  0  0  0  0  0  0  0  0
   -8.1692   -0.0435    4.5544 C   0  0  0  0  0  0  0  0  0  0  0  0
   -8.2315    0.3315    3.0865 C   0  0  0  0  0  0  0  0  0  0  0  0
   -3.2667   -2.0006   -0.5072 C   0  0  0  0  0  0  0  0  0  0  0  0
   -2.4097   -1.7133   -1.5361 C   0  0  0  0  0  0  0  0  0  0  0  0
   10.2532    1.2976    3.0807 H   0  0  0  0  0  0  0  0  0  0  0  0
   10.0058    1.0317    4.8834 H   0  0  0  0  0  0  0  0  0  0  0  0
   10.1778    2.6821    4.2202 H   0  0  0  0  0  0  0  0  0  0  0  0
    7.9579    2.5503    4.6284 H   0  0  0  0  0  0  0  0  0  0  0  0
    8.0313    2.1891    2.8767 H   0  0  0  0  0  0  0  0  0  0  0  0
    7.9399   -0.3027    3.4203 H   0  0  0  0  0  0  0  0  0  0  0  0
    7.8701    0.1230    5.1842 H   0  0  0  0  0  0  0  0  0  0  0  0
    5.6432   -0.3661    4.2564 H   0  0  0  0  0  0  0  0  0  0  0  0
    5.7381    1.3825    4.7774 H   0  0  0  0  0  0  0  0  0  0  0  0
    6.0794    2.0904    2.4120 H   0  0  0  0  0  0  0  0  0  0  0  0
    4.5612    1.2338    2.6399 H   0  0  0  0  0  0  0  0  0  0  0  0
    7.1981    0.0715    1.5610 H   0  0  0  0  0  0  0  0  0  0  0  0
    5.6852    0.4753    0.6204 H   0  0  0  0  0  0  0  0  0  0  0  0
    4.4351   -1.2779    1.8824 H   0  0  0  0  0  0  0  0  0  0  0  0
    5.9028   -1.7229    2.7551 H   0  0  0  0  0  0  0  0  0  0  0  0
    7.1377   -2.1495    0.6999 H   0  0  0  0  0  0  0  0  0  0  0  0
    5.6556   -3.1624    0.7568 H   0  0  0  0  0  0  0  0  0  0  0  0
    6.1138   -0.6662   -0.9870 H   0  0  0  0  0  0  0  0  0  0  0  0
    6.0314   -2.3724   -1.4200 H   0  0  0  0  0  0  0  0  0  0  0  0
    2.0154    0.6467   -0.8645 H   0  0  0  0  0  0  0  0  0  0  0  0
   -0.3089    0.9106   -1.4795 H   0  0  0  0  0  0  0  0  0  0  0  0
    0.2352   -1.9362   -4.6502 H   0  0  0  0  0  0  0  0  0  0  0  0
    2.5740   -2.1806   -4.0079 H   0  0  0  0  0  0  0  0  0  0  0  0
   -4.0477   -0.7275   -4.4232 H   0  0  0  0  0  0  0  0  0  0  0  0
   -3.5738   -0.2883   -6.0644 H   0  0  0  0  0  0  0  0  0  0  0  0
   -3.8290    1.0490   -4.9511 H   0  0  0  0  0  0  0  0  0  0  0  0
   -2.0386   -1.1559   -7.0549 H   0  0  0  0  0  0  0  0  0  0  0  0
   -0.6240   -0.7082   -8.9589 H   0  0  0  0  0  0  0  0  0  0  0  0
    1.2445    0.9404   -8.8386 H   0  0  0  0  0  0  0  0  0  0  0  0
    1.6023    2.1221   -6.6647 H   0  0  0  0  0  0  0  0  0  0  0  0
    0.1738    1.6576   -4.7993 H   0  0  0  0  0  0  0  0  0  0  0  0
   -3.7597    1.1628   -2.6017 H   0  0  0  0  0  0  0  0  0  0  0  0
   -5.3110    0.6366   -0.7893 H   0  0  0  0  0  0  0  0  0  0  0  0
   -6.9947   -0.7408    0.5864 H   0  0  0  0  0  0  0  0  0  0  0  0
   -6.7977   -1.6404    2.0848 H   0  0  0  0  0  0  0  0  0  0  0  0
   -5.2058    0.1708    2.8786 H   0  0  0  0  0  0  0  0  0  0  0  0
   -5.4788    1.1014    1.4164 H   0  0  0  0  0  0  0  0  0  0  0  0
   -5.7336    2.5254    2.9857 H   0  0  0  0  0  0  0  0  0  0  0  0
   -7.3910    3.0875    3.2708 H   0  0  0  0  0  0  0  0  0  0  0  0
   -6.3904    2.7858    5.3984 H   0  0  0  0  0  0  0  0  0  0  0  0
   -5.5852    1.2691    4.9377 H   0  0  0  0  0  0  0  0  0  0  0  0
   -8.5078    1.8286    5.6625 H   0  0  0  0  0  0  0  0  0  0  0  0
   -7.3717    0.6589    6.3762 H   0  0  0  0  0  0  0  0  0  0  0  0
   -7.5735   -0.9546    4.7545 H   0  0  0  0  0  0  0  0  0  0  0  0
   -9.2092   -0.2552    4.8704 H   0  0  0  0  0  0  0  0  0  0  0  0
   -9.1566    0.9625    2.9493 H   0  0  0  0  0  0  0  0  0  0  0  0
   -8.3926   -0.5855    2.5060 H   0  0  0  0  0  0  0  0  0  0  0  0
   -3.1374   -2.9008    0.1075 H   0  0  0  0  0  0  0  0  0  0  0  0
   -1.5747   -2.3635   -1.7812 H   0  0  0  0  0  0  0  0  0  0  0  0
  1  2  1  0
  2  3  1  0
  3  4  1  0
  4  5  1  0
  5  6  1  0
  6  7  1  0
  7  8  1  0
  8  9  1  0
  9 10  1  0
 10 11  2  0
 10 12  1  0
 12 13  1  0
 13 14  2  0
 14 15  1  0
 15 16  2  0
 16 17  1  0
 17 18  2  0
 16 19  1  0
 19 20  2  0
 20 21  1  0
 20 22  1  0
 22 23  2  0
 23 24  1  0
 24 25  2  0
 25 26  1  0
 26 27  2  0
 19 28  1  0
 28 29  2  0
 29 30  1  0
 30 31  2  0
 31 32  1  0
 32 33  1  0
 33 34  1  0
 34 35  1  0
 35 36  1  0
 36 37  1  0
 37 38  1  0
 38 39  1  0
 39 40  1  0
 31 41  1  0
 41 42  2  0
 18 13  1  0
 27 22  1  0
 42 28  1  0
 40 35  1  0
  1 43  1  0
  1 44  1  0
  1 45  1  0
  2 46  1  0
  2 47  1  0
  3 48  1  0
  3 49  1  0
  4 50  1  0
  4 51  1  0
  5 52  1  0
  5 53  1  0
  6 54  1  0
  6 55  1  0
  7 56  1  0
  7 57  1  0
  8 58  1  0
  8 59  1  0
  9 60  1  0
  9 61  1  0
 14 62  1  0
 15 63  1  0
 17 64  1  0
 18 65  1  0
 21 66  1  0
 21 67  1  0
 21 68  1  0
 23 69  1  0
 24 70  1  0
 25 71  1  0
 26 72  1  0
 27 73  1  0
 29 74  1  0
 30 75  1  0
 33 76  1  0
 33 77  1  0
 34 78  1  0
 34 79  1  0
 36 80  1  0
 36 81  1  0
 37 82  1  0
 37 83  1  0
 38 84  1  0
 38 85  1  0
 39 86  1  0
 39 87  1  0
 40 88  1  0
 40 89  1  0
 41 90  1  0
 42 91  1  0
M  END
$$$$
[H]Oc1c([H])c([H])c2c(c1[H])OC([H])([H])C([H])([H])C1=C2[C@@]([H])(c2c([H])c([H])c(OC([H])([H])C([H])([H])N(C([H])([H])C([H])([H])[H])C([H])([H])C([H])([H])[H])c([H])c2[H])Oc2c([H])c(F)c([H])c([H])c21
     RDKit          3D

 65 69  0  0  0  0  0  0  0  0999 V2000
    7.6583   -0.2963   -0.6251 C   0  0  0  0  0  0  0  0  0  0  0  0
    6.2551   -0.7121   -0.9740 C   0  0  0  0  0  0  0  0  0  0  0  0
    5.2934   -0.0504   -0.2233 N   0  0  0  0  0  0  0  0  0  0  0  0
    5.0035    1.3033   -0.3705 C   0  0  0  0  0  0  0  0  0  0  0  0
    6.1101    2.1970    0.1179 C   0  0  0  0  0  0  0  0  0  0  0  0
    4.7505   -0.7281    0.9206 C   0  0  0  0  0  0  0  0  0  0  0  0
    3.9043   -1.9029    0.6001 C   0  0  0  0  0  0  0  0  0  0  0  0
    2.7839   -1.7248   -0.1577 O   0  0  0  0  0  0  0  0  0  0  0  0
    1.6182   -1.0236    0.0589 C   0  0  0  0  0  0  0  0  0  0  0  0
    1.3503   -0.3329    1.2195 C   0  0  0  0  0  0  0  0  0  0  0  0
    0.1613    0.3510    1.3626 C   0  0  0  0  0  0  0  0  0  0  0  0
   -0.7721    0.3629    0.3732 C   0  0  0  0  0  0  0  0  0  0  0  0
   -0.5294   -0.3144   -0.7841 C   0  0  0  0  0  0  0  0  0  0  0  0
    0.6396   -0.9948   -0.9424 C   0  0  0  0  0  0  0  0  0  0  0  0
   -2.0567    1.1431    0.6187 C   0  0  1  0  0  0  0  0  0  0  0  0
   -1.9738    1.9789   -0.5086 O   0  0  0  0  0  0  0  0  0  0  0  0
   -2.8120    2.0926   -1.5485 C   0  0  0  0  0  0  0  0  0  0  0  0
   -2.5687    2.9739   -2.5892 C   0  0  0  0  0  0  0  0  0  0  0  0
   -3.4125    3.0881   -3.6376 C   0  0  0  0  0  0  0  0  0  0  0  0
   -3.1677    3.9706   -4.6775 F   0  0  0  0  0  0  0  0  0  0  0  0
   -4.5318    2.3062   -3.6575 C   0  0  0  0  0  0  0  0  0  0  0  0
   -4.8293    1.4069   -2.6462 C   0  0  0  0  0  0  0  0  0  0  0  0
   -3.9468    1.3039   -1.5726 C   0  0  0  0  0  0  0  0  0  0  0  0
   -4.1638    0.3994   -0.4721 C   0  0  0  0  0  0  0  0  0  0  0  0
   -3.2455    0.3647    0.5317 C   0  0  0  0  0  0  0  0  0  0  0  0
   -3.4757   -0.5678    1.6626 C   0  0  0  0  0  0  0  0  0  0  0  0
   -2.9156   -0.0898    2.7941 C   0  0  0  0  0  0  0  0  0  0  0  0
   -2.9868   -0.7835    3.9884 C   0  0  0  0  0  0  0  0  0  0  0  0
   -3.6562   -1.9983    4.0018 C   0  0  0  0  0  0  0  0  0  0  0  0
   -3.7505   -2.7351    5.1980 O   0  0  0  0  0  0  0  0  0  0  0  0
   -4.2376   -2.5100    2.8664 C   0  0  0  0  0  0  0  0  0  0  0  0
   -4.1437   -1.7794    1.6792 C   0  0  0  0  0  0  0  0  0  0  0  0
   -4.7653   -2.3905    0.6099 O   0  0  0  0  0  0  0  0  0  0  0  0
   -5.0938   -1.8915   -0.6622 C   0  0  0  0  0  0  0  0  0  0  0  0
   -5.3894   -0.4031   -0.6022 C   0  0  0  0  0  0  0  0  0  0  0  0
    7.7595   -0.4036    0.4914 H   0  0  0  0  0  0  0  0  0  0  0  0
    7.9761    0.6643   -1.0198 H   0  0  0  0  0  0  0  0  0  0  0  0
    8.3444   -1.0751   -1.0917 H   0  0  0  0  0  0  0  0  0  0  0  0
    6.0591   -0.4907   -2.0730 H   0  0  0  0  0  0  0  0  0  0  0  0
    6.2417   -1.8244   -0.9000 H   0  0  0  0  0  0  0  0  0  0  0  0
    4.7036    1.6138   -1.4062 H   0  0  0  0  0  0  0  0  0  0  0  0
    4.1063    1.5612    0.2693 H   0  0  0  0  0  0  0  0  0  0  0  0
    6.7367    2.6189   -0.7048 H   0  0  0  0  0  0  0  0  0  0  0  0
    5.6816    3.1013    0.6624 H   0  0  0  0  0  0  0  0  0  0  0  0
    6.6965    1.6682    0.8763 H   0  0  0  0  0  0  0  0  0  0  0  0
    4.2651   -0.0133    1.5635 H   0  0  0  0  0  0  0  0  0  0  0  0
    5.6545   -1.1398    1.4733 H   0  0  0  0  0  0  0  0  0  0  0  0
    3.5505   -2.3028    1.6099 H   0  0  0  0  0  0  0  0  0  0  0  0
    4.5464   -2.7704    0.2422 H   0  0  0  0  0  0  0  0  0  0  0  0
    2.0845   -0.3558    2.0190 H   0  0  0  0  0  0  0  0  0  0  0  0
    0.0216    0.8795    2.3132 H   0  0  0  0  0  0  0  0  0  0  0  0
   -1.2912   -0.2886   -1.5552 H   0  0  0  0  0  0  0  0  0  0  0  0
    0.8353   -1.5336   -1.8587 H   0  0  0  0  0  0  0  0  0  0  0  0
   -1.9238    1.9174    1.3866 H   0  0  0  0  0  0  0  0  0  0  0  0
   -1.6613    3.5664   -2.5121 H   0  0  0  0  0  0  0  0  0  0  0  0
   -5.2369    2.3665   -4.4809 H   0  0  0  0  0  0  0  0  0  0  0  0
   -5.7204    0.8090   -2.7105 H   0  0  0  0  0  0  0  0  0  0  0  0
   -2.4306    0.8302    2.7919 H   0  0  0  0  0  0  0  0  0  0  0  0
   -2.5483   -0.4225    4.8980 H   0  0  0  0  0  0  0  0  0  0  0  0
   -4.5116   -2.6124    5.8422 H   0  0  0  0  0  0  0  0  0  0  0  0
   -4.7504   -3.4486    2.8936 H   0  0  0  0  0  0  0  0  0  0  0  0
   -6.0402   -2.3850   -0.9806 H   0  0  0  0  0  0  0  0  0  0  0  0
   -4.2556   -2.1043   -1.3701 H   0  0  0  0  0  0  0  0  0  0  0  0
   -5.9942   -0.3086    0.3757 H   0  0  0  0  0  0  0  0  0  0  0  0
   -6.0030   -0.1306   -1.4173 H   0  0  0  0  0  0  0  0  0  0  0  0
  1  2  1  0
  2  3  1  0
  3  4  1  0
  4  5  1  0
  3  6  1  0
  6  7  1  0
  7  8  1  0
  8  9  1  0
  9 10  2  0
 10 11  1  0
 11 12  2  0
 12 13  1  0
 13 14  2  0
 12 15  1  0
 15 16  1  0
 16 17  1  0
 17 18  2  0
 18 19  1  0
 19 20  1  0
 19 21  2  0
 21 22  1  0
 22 23  2  0
 23 24  1  0
 24 25  2  0
 25 26  1  0
 26 27  2  0
 27 28  1  0
 28 29  2  0
 29 30  1  0
 29 31  1  0
 31 32  2  0
 32 33  1  0
 33 34  1  0
 34 35  1  0
 14  9  1  0
 25 15  1  0
 32 26  1  0
 23 17  1  0
 35 24  1  0
  1 36  1  0
  1 37  1  0
  1 38  1  0
  2 39  1  0
  2 40  1  0
  4 41  1  0
  4 42  1  0
  5 43  1  0
  5 44  1  0
  5 45  1  0
  6 46  1  0
  6 47  1  0
  7 48  1  0
  7 49  1  0
 10 50  1  0
 11 51  1  0
 13 52  1  0
 14 53  1  0
 15 54  1  1
 18 55  1  0
 21 56  1  0
 22 57  1  0
 27 58  1  0
 28 59  1  0
 30 60  1  0
 31 61  1  0
 34 62  1  0
 34 63  1  0
 35 64  1  0
 35 65  1  0
M  END
$$$$
[H]OC(=O)/C([H])=C(\[H])c1c([H])c([H])c(Oc2c(-c3c([H])c([H])c([H])c([H])c3[C@]([H])(O[H])C([H])([H])[H])sc3c([H])c(O[H])c([H])c([H])c23)c([H])c1[H]
     RDKit          3D

 51 54  0  0  0  0  0  0  0  0999 V2000
   -4.3979    1.9160    2.2301 C   0  0  0  0  0  0  0  0  0  0  0  0
   -3.7879    0.9136    1.2367 C   0  0  1  0  0  0  0  0  0  0  0  0
   -4.9405    0.2530    0.7402 O   0  0  0  0  0  0  0  0  0  0  0  0
   -3.0813    1.6058    0.1555 C   0  0  0  0  0  0  0  0  0  0  0  0
   -3.3732    2.9689    0.0231 C   0  0  0  0  0  0  0  0  0  0  0  0
   -2.7821    3.7047   -0.9682 C   0  0  0  0  0  0  0  0  0  0  0  0
   -1.8988    3.1337   -1.8491 C   0  0  0  0  0  0  0  0  0  0  0  0
   -1.6429    1.7808   -1.6769 C   0  0  0  0  0  0  0  0  0  0  0  0
   -2.2029    0.9913   -0.7015 C   0  0  0  0  0  0  0  0  0  0  0  0
   -1.8977   -0.4596   -0.6124 C   0  0  0  0  0  0  0  0  0  0  0  0
   -2.7961   -1.6782    0.2003 S   0  0  0  0  0  0  0  0  0  0  0  0
   -1.8156   -3.0207   -0.0830 C   0  0  0  0  0  0  0  0  0  0  0  0
   -1.9216   -4.3620    0.2834 C   0  0  0  0  0  0  0  0  0  0  0  0
   -0.9455   -5.2602   -0.0959 C   0  0  0  0  0  0  0  0  0  0  0  0
   -1.0280   -6.5838    0.2525 O   0  0  0  0  0  0  0  0  0  0  0  0
    0.0959   -4.7275   -0.8378 C   0  0  0  0  0  0  0  0  0  0  0  0
    0.2030   -3.4225   -1.1967 C   0  0  0  0  0  0  0  0  0  0  0  0
   -0.7942   -2.4991   -0.8105 C   0  0  0  0  0  0  0  0  0  0  0  0
   -0.8290   -1.1701   -1.0884 C   0  0  0  0  0  0  0  0  0  0  0  0
    0.2059   -0.5074   -1.8431 O   0  0  0  0  0  0  0  0  0  0  0  0
    1.3483   -0.0948   -1.1241 C   0  0  0  0  0  0  0  0  0  0  0  0
    2.3621    0.5384   -1.7948 C   0  0  0  0  0  0  0  0  0  0  0  0
    3.4927    0.9596   -1.1462 C   0  0  0  0  0  0  0  0  0  0  0  0
    3.6557    0.7599    0.2232 C   0  0  0  0  0  0  0  0  0  0  0  0
    4.8903    1.2326    0.8697 C   0  0  0  0  0  0  0  0  0  0  0  0
    5.1330    1.0895    2.1547 C   0  0  0  0  0  0  0  0  0  0  0  0
    6.3835    1.5922    2.6919 C   0  0  0  0  0  0  0  0  0  0  0  0
    7.2957    2.2053    1.8756 O   0  0  0  0  0  0  0  0  0  0  0  0
    6.6153    1.4567    3.9138 O   0  0  0  0  0  0  0  0  0  0  0  0
    2.6401    0.1248    0.8990 C   0  0  0  0  0  0  0  0  0  0  0  0
    1.4979   -0.2971    0.2257 C   0  0  0  0  0  0  0  0  0  0  0  0
   -3.7151    2.7043    2.5265 H   0  0  0  0  0  0  0  0  0  0  0  0
   -4.7321    1.3156    3.1263 H   0  0  0  0  0  0  0  0  0  0  0  0
   -5.3159    2.3529    1.8095 H   0  0  0  0  0  0  0  0  0  0  0  0
   -3.1266    0.3017    1.8300 H   0  0  0  0  0  0  0  0  0  0  0  0
   -5.0947    0.5402   -0.1748 H   0  0  0  0  0  0  0  0  0  0  0  0
   -4.0553    3.4696    0.6801 H   0  0  0  0  0  0  0  0  0  0  0  0
   -2.9908    4.7756   -1.0964 H   0  0  0  0  0  0  0  0  0  0  0  0
   -1.4120    3.6682   -2.6402 H   0  0  0  0  0  0  0  0  0  0  0  0
   -0.9790    1.3541   -2.3988 H   0  0  0  0  0  0  0  0  0  0  0  0
   -2.7565   -4.7170    0.8619 H   0  0  0  0  0  0  0  0  0  0  0  0
   -0.5975   -6.8600    1.1394 H   0  0  0  0  0  0  0  0  0  0  0  0
    0.8670   -5.4291   -1.1392 H   0  0  0  0  0  0  0  0  0  0  0  0
    1.0591   -3.1250   -1.7748 H   0  0  0  0  0  0  0  0  0  0  0  0
    2.2676    0.7100   -2.8625 H   0  0  0  0  0  0  0  0  0  0  0  0
    4.2937    1.4630   -1.6915 H   0  0  0  0  0  0  0  0  0  0  0  0
    5.6440    1.7245    0.2664 H   0  0  0  0  0  0  0  0  0  0  0  0
    4.3959    0.5960    2.8057 H   0  0  0  0  0  0  0  0  0  0  0  0
    7.1093    2.8471    1.1358 H   0  0  0  0  0  0  0  0  0  0  0  0
    2.7229   -0.0508    1.9579 H   0  0  0  0  0  0  0  0  0  0  0  0
    0.7320   -0.7846    0.7768 H   0  0  0  0  0  0  0  0  0  0  0  0
  1  2  1  0
  2  3  1  0
  2  4  1  0
  4  5  2  0
  5  6  1  0
  6  7  2  0
  7  8  1  0
  8  9  2  0
  9 10  1  0
 10 11  1  0
 11 12  1  0
 12 13  2  0
 13 14  1  0
 14 15  1  0
 14 16  2  0
 16 17  1  0
 17 18  2  0
 18 19  1  0
 19 20  1  0
 20 21  1  0
 21 22  2  0
 22 23  1  0
 23 24  2  0
 24 25  1  0
 25 26  2  0
 26 27  1  0
 27 28  1  0
 27 29  2  0
 24 30  1  0
 30 31  2  0
  9  4  1  0
 19 10  2  0
 31 21  1  0
 18 12  1  0
  1 32  1  0
  1 33  1  0
  1 34  1  0
  2 35  1  1
  3 36  1  0
  5 37  1  0
  6 38  1  0
  7 39  1  0
  8 40  1  0
 13 41  1  0
 15 42  1  0
 16 43  1  0
 17 44  1  0
 22 45  1  0
 23 46  1  0
 25 47  1  0
 26 48  1  0
 28 49  1  0
 30 50  1  0
 31 51  1  0
M  END
$$$$
[H]Oc1c([H])c([H])c([C@@]2([H])Sc3c([H])c(O[H])c([H])c([H])c3O[C@@]2([H])c2c([H])c([H])c(O[C@@]([H])(C([H])([H])N3C([H])([H])C([H])([H])C([H])([H])C3([H])[H])C([H])([H])C([H])([H])[H])c([H])c2[H])c([H])c1[H]
     RDKit          3D

 65 69  0  0  0  0  0  0  0  0999 V2000
   -2.7905    1.7211    4.4672 C   0  0  0  0  0  0  0  0  0  0  0  0
   -2.4601    2.2616    3.1152 C   0  0  0  0  0  0  0  0  0  0  0  0
   -2.8171    1.3095    1.9801 C   0  0  2  0  0  0  0  0  0  0  0  0
   -4.2717    0.9881    1.9516 C   0  0  0  0  0  0  0  0  0  0  0  0
   -5.1353    2.0848    1.8465 N   0  0  0  0  0  0  0  0  0  0  0  0
   -6.5244    1.8272    1.8839 C   0  0  0  0  0  0  0  0  0  0  0  0
   -7.0308    2.3644    0.5915 C   0  0  0  0  0  0  0  0  0  0  0  0
   -6.0302    3.4013    0.1712 C   0  0  0  0  0  0  0  0  0  0  0  0
   -4.8244    3.1930    1.0563 C   0  0  0  0  0  0  0  0  0  0  0  0
   -2.0490    0.1311    2.0765 O   0  0  0  0  0  0  0  0  0  0  0  0
   -1.1005   -0.3487    1.2382 C   0  0  0  0  0  0  0  0  0  0  0  0
   -0.7450    0.3073    0.0928 C   0  0  0  0  0  0  0  0  0  0  0  0
    0.2479   -0.2391   -0.7372 C   0  0  0  0  0  0  0  0  0  0  0  0
    0.8689   -1.4197   -0.4203 C   0  0  0  0  0  0  0  0  0  0  0  0
    0.4781   -2.0402    0.7380 C   0  0  0  0  0  0  0  0  0  0  0  0
   -0.4893   -1.5439    1.5822 C   0  0  0  0  0  0  0  0  0  0  0  0
    1.9227   -2.0354   -1.2449 C   0  0  2  0  0  0  0  0  0  0  0  0
    3.0246   -2.4479   -0.4718 O   0  0  0  0  0  0  0  0  0  0  0  0
    3.9891   -3.3657   -0.8434 C   0  0  0  0  0  0  0  0  0  0  0  0
    4.6960   -4.1049    0.0824 C   0  0  0  0  0  0  0  0  0  0  0  0
    5.6421   -5.0032   -0.3300 C   0  0  0  0  0  0  0  0  0  0  0  0
    5.8696   -5.1522   -1.6722 C   0  0  0  0  0  0  0  0  0  0  0  0
    6.8476   -6.0846   -2.0806 O   0  0  0  0  0  0  0  0  0  0  0  0
    5.1764   -4.4268   -2.5931 C   0  0  0  0  0  0  0  0  0  0  0  0
    4.2109   -3.5067   -2.2075 C   0  0  0  0  0  0  0  0  0  0  0  0
    3.3204   -2.5557   -3.4249 S   0  0  0  0  0  0  0  0  0  0  0  0
    2.2752   -1.3411   -2.4949 C   0  0  2  0  0  0  0  0  0  0  0  0
    3.0152   -0.0877   -2.4277 C   0  0  0  0  0  0  0  0  0  0  0  0
    3.7903    0.3246   -1.3698 C   0  0  0  0  0  0  0  0  0  0  0  0
    4.4719    1.5488   -1.4129 C   0  0  0  0  0  0  0  0  0  0  0  0
    4.3977    2.3717   -2.4888 C   0  0  0  0  0  0  0  0  0  0  0  0
    5.0813    3.6068   -2.5375 O   0  0  0  0  0  0  0  0  0  0  0  0
    3.6214    1.9796   -3.5736 C   0  0  0  0  0  0  0  0  0  0  0  0
    2.9704    0.7821   -3.5001 C   0  0  0  0  0  0  0  0  0  0  0  0
   -2.0485    0.9846    4.8419 H   0  0  0  0  0  0  0  0  0  0  0  0
   -3.8022    1.2820    4.4970 H   0  0  0  0  0  0  0  0  0  0  0  0
   -2.8023    2.5658    5.1902 H   0  0  0  0  0  0  0  0  0  0  0  0
   -1.3585    2.4262    3.0946 H   0  0  0  0  0  0  0  0  0  0  0  0
   -2.9449    3.2369    2.9739 H   0  0  0  0  0  0  0  0  0  0  0  0
   -2.5210    1.8325    1.0580 H   0  0  0  0  0  0  0  0  0  0  0  0
   -4.5793    0.3869    2.8474 H   0  0  0  0  0  0  0  0  0  0  0  0
   -4.4461    0.2878    1.0872 H   0  0  0  0  0  0  0  0  0  0  0  0
   -6.9661    2.3009    2.7842 H   0  0  0  0  0  0  0  0  0  0  0  0
   -6.6983    0.7285    1.9608 H   0  0  0  0  0  0  0  0  0  0  0  0
   -7.0762    1.5685   -0.1927 H   0  0  0  0  0  0  0  0  0  0  0  0
   -8.0620    2.7659    0.7100 H   0  0  0  0  0  0  0  0  0  0  0  0
   -5.7757    3.2604   -0.9073 H   0  0  0  0  0  0  0  0  0  0  0  0
   -6.4618    4.4212    0.2815 H   0  0  0  0  0  0  0  0  0  0  0  0
   -4.7199    4.1201    1.6620 H   0  0  0  0  0  0  0  0  0  0  0  0
   -3.9593    3.0632    0.3889 H   0  0  0  0  0  0  0  0  0  0  0  0
   -1.1755    1.2369   -0.2363 H   0  0  0  0  0  0  0  0  0  0  0  0
    0.5067    0.2914   -1.6259 H   0  0  0  0  0  0  0  0  0  0  0  0
    0.9798   -2.9894    0.9841 H   0  0  0  0  0  0  0  0  0  0  0  0
   -0.7612   -2.0741    2.4839 H   0  0  0  0  0  0  0  0  0  0  0  0
    1.4484   -3.0190   -1.5869 H   0  0  0  0  0  0  0  0  0  0  0  0
    4.5203   -3.9907    1.1359 H   0  0  0  0  0  0  0  0  0  0  0  0
    6.2268   -5.6057    0.3736 H   0  0  0  0  0  0  0  0  0  0  0  0
    6.5448   -7.0463   -2.2442 H   0  0  0  0  0  0  0  0  0  0  0  0
    5.3658   -4.5575   -3.6288 H   0  0  0  0  0  0  0  0  0  0  0  0
    1.3628   -1.2093   -3.1365 H   0  0  0  0  0  0  0  0  0  0  0  0
    3.9139   -0.2363   -0.4831 H   0  0  0  0  0  0  0  0  0  0  0  0
    5.0866    1.8625   -0.5671 H   0  0  0  0  0  0  0  0  0  0  0  0
    4.5859    4.4408   -2.1888 H   0  0  0  0  0  0  0  0  0  0  0  0
    3.5947    2.6654   -4.4065 H   0  0  0  0  0  0  0  0  0  0  0  0
    2.3730    0.5005   -4.3585 H   0  0  0  0  0  0  0  0  0  0  0  0
  1  2  1  0
  2  3  1  0
  3  4  1  0
  4  5  1  0
  5  6  1  0
  6  7  1  0
  7  8  1  0
  8  9  1  0
  3 10  1  0
 10 11  1  0
 11 12  2  0
 12 13  1  0
 13 14  2  0
 14 15  1  0
 15 16  2  0
 14 17  1  0
 17 18  1  0
 18 19  1  0
 19 20  2  0
 20 21  1  0
 21 22  2  0
 22 23  1  0
 22 24  1  0
 24 25  2  0
 25 26  1  0
 26 27  1  0
 27 28  1  0
 28 29  2  0
 29 30  1  0
 30 31  2  0
 31 32  1  0
 31 33  1  0
 33 34  2  0
  9  5  1  0
 16 11  1  0
 27 17  1  0
 34 28  1  0
 25 19  1  0
  1 35  1  0
  1 36  1  0
  1 37  1  0
  2 38  1  0
  2 39  1  0
  3 40  1  6
  4 41  1  0
  4 42  1  0
  6 43  1  0
  6 44  1  0
  7 45  1  0
  7 46  1  0
  8 47  1  0
  8 48  1  0
  9 49  1  0
  9 50  1  0
 12 51  1  0
 13 52  1  0
 15 53  1  0
 16 54  1  0
 17 55  1  6
 20 56  1  0
 21 57  1  0
 23 58  1  0
 24 59  1  0
 27 60  1  6
 29 61  1  0
 30 62  1  0
 32 63  1  0
 33 64  1  0
 34 65  1  0
M  END
$$$$
[H]Oc1c([H])c([H])c(-c2nn(-c3c([H])c([H])c([H])c(F)c3[H])c3c([H])c(O[H])c([H])c([H])c23)c(O[H])c1[H]
     RDKit          3D

 38 41  0  0  0  0  0  0  0  0999 V2000
    6.1226   -2.1776    1.0554 O   0  0  0  0  0  0  0  0  0  0  0  0
    4.8338   -1.6769    0.8180 C   0  0  0  0  0  0  0  0  0  0  0  0
    4.5749   -0.3356    0.9920 C   0  0  0  0  0  0  0  0  0  0  0  0
    3.3093    0.1805    0.7678 C   0  0  0  0  0  0  0  0  0  0  0  0
    2.2666   -0.6702    0.3559 C   0  0  0  0  0  0  0  0  0  0  0  0
    0.9150   -0.2010    0.1192 C   0  0  0  0  0  0  0  0  0  0  0  0
    0.1619   -0.2724   -1.0146 N   0  0  0  0  0  0  0  0  0  0  0  0
   -1.0361    0.2428   -0.8189 N   0  0  0  0  0  0  0  0  0  0  0  0
   -2.1160    0.3639   -1.7426 C   0  0  0  0  0  0  0  0  0  0  0  0
   -3.3501   -0.1661   -1.4952 C   0  0  0  0  0  0  0  0  0  0  0  0
   -4.3322    0.0041   -2.4654 C   0  0  0  0  0  0  0  0  0  0  0  0
   -4.0887    0.6718   -3.6264 C   0  0  0  0  0  0  0  0  0  0  0  0
   -2.8660    1.2022   -3.8816 C   0  0  0  0  0  0  0  0  0  0  0  0
   -2.6016    1.8604   -5.0143 F   0  0  0  0  0  0  0  0  0  0  0  0
   -1.8801    1.0445   -2.9319 C   0  0  0  0  0  0  0  0  0  0  0  0
   -1.1116    0.6769    0.4697 C   0  0  0  0  0  0  0  0  0  0  0  0
   -2.1420    1.2912    1.1877 C   0  0  0  0  0  0  0  0  0  0  0  0
   -1.9676    1.6329    2.4905 C   0  0  0  0  0  0  0  0  0  0  0  0
   -2.9105    2.2463    3.3126 O   0  0  0  0  0  0  0  0  0  0  0  0
   -0.7191    1.3380    3.0588 C   0  0  0  0  0  0  0  0  0  0  0  0
    0.2985    0.7390    2.3749 C   0  0  0  0  0  0  0  0  0  0  0  0
    0.0991    0.3980    1.0418 C   0  0  0  0  0  0  0  0  0  0  0  0
    2.5709   -1.9886    0.1947 C   0  0  0  0  0  0  0  0  0  0  0  0
    1.5504   -2.8437   -0.2181 O   0  0  0  0  0  0  0  0  0  0  0  0
    3.8297   -2.5240    0.4142 C   0  0  0  0  0  0  0  0  0  0  0  0
    6.8793   -1.5958    1.3503 H   0  0  0  0  0  0  0  0  0  0  0  0
    5.4040    0.2949    1.3102 H   0  0  0  0  0  0  0  0  0  0  0  0
    3.0854    1.2023    0.8935 H   0  0  0  0  0  0  0  0  0  0  0  0
   -3.5672   -0.6921   -0.5974 H   0  0  0  0  0  0  0  0  0  0  0  0
   -5.3226   -0.3968   -2.3133 H   0  0  0  0  0  0  0  0  0  0  0  0
   -4.8600    0.8068   -4.3862 H   0  0  0  0  0  0  0  0  0  0  0  0
   -0.9189    1.4656   -3.1361 H   0  0  0  0  0  0  0  0  0  0  0  0
   -3.1070    1.5048    0.6974 H   0  0  0  0  0  0  0  0  0  0  0  0
   -3.5455    1.6406    3.8520 H   0  0  0  0  0  0  0  0  0  0  0  0
   -0.5773    1.6144    4.1137 H   0  0  0  0  0  0  0  0  0  0  0  0
    1.2534    0.5109    2.7965 H   0  0  0  0  0  0  0  0  0  0  0  0
    1.7714   -3.8361   -0.3187 H   0  0  0  0  0  0  0  0  0  0  0  0
    4.0941   -3.5560    0.2941 H   0  0  0  0  0  0  0  0  0  0  0  0
  1  2  1  0
  2  3  2  0
  3  4  1  0
  4  5  2  0
  5  6  1  0
  6  7  2  0
  7  8  1  0
  8  9  1  0
  9 10  2  0
 10 11  1  0
 11 12  2  0
 12 13  1  0
 13 14  1  0
 13 15  2  0
  8 16  1  0
 16 17  2  0
 17 18  1  0
 18 19  1  0
 18 20  2  0
 20 21  1  0
 21 22  2  0
  5 23  1  0
 23 24  1  0
 23 25  2  0
 25  2  1  0
 22  6  1  0
 15  9  1  0
 22 16  1  0
  1 26  1  0
  3 27  1  0
  4 28  1  0
 10 29  1  0
 11 30  1  0
 12 31  1  0
 15 32  1  0
 17 33  1  0
 19 34  1  0
 20 35  1  0
 21 36  1  0
 24 37  1  0
 25 38  1  0
M  END
$$$$
[H]OC(=O)/C([H])=C(\[H])c1c([H])c([H])c(Oc2c(-c3c([H])c([H])c([H])c([H])c3C([H])(C([H])([H])[H])C([H])([H])[H])sc3c(F)c(O[H])c([H])c([H])c23)c([H])c1[H]
     RDKit          3D

 53 56  0  0  0  0  0  0  0  0999 V2000
   -4.6886    1.5670   -1.2550 C   0  0  0  0  0  0  0  0  0  0  0  0
   -3.6004    0.6413   -0.6581 C   0  0  0  0  0  0  0  0  0  0  0  0
   -2.5740    0.5222   -1.7769 C   0  0  0  0  0  0  0  0  0  0  0  0
   -3.0106    1.2375    0.5568 C   0  0  0  0  0  0  0  0  0  0  0  0
   -3.4120    2.5360    0.8911 C   0  0  0  0  0  0  0  0  0  0  0  0
   -2.9133    3.2230    1.9764 C   0  0  0  0  0  0  0  0  0  0  0  0
   -1.9846    2.5918    2.7520 C   0  0  0  0  0  0  0  0  0  0  0  0
   -1.5863    1.3043    2.4230 C   0  0  0  0  0  0  0  0  0  0  0  0
   -2.0794    0.6152    1.3423 C   0  0  0  0  0  0  0  0  0  0  0  0
   -1.6814   -0.7906    1.0864 C   0  0  0  0  0  0  0  0  0  0  0  0
   -2.5041   -2.0236    0.2479 S   0  0  0  0  0  0  0  0  0  0  0  0
   -1.3551   -3.2698    0.3472 C   0  0  0  0  0  0  0  0  0  0  0  0
   -1.2981   -4.6012   -0.1078 C   0  0  0  0  0  0  0  0  0  0  0  0
   -2.3798   -5.0478   -0.7846 F   0  0  0  0  0  0  0  0  0  0  0  0
   -0.1910   -5.3810    0.1372 C   0  0  0  0  0  0  0  0  0  0  0  0
   -0.1385   -6.6905   -0.3120 O   0  0  0  0  0  0  0  0  0  0  0  0
    0.8446   -4.8088    0.8376 C   0  0  0  0  0  0  0  0  0  0  0  0
    0.7822   -3.5168    1.2759 C   0  0  0  0  0  0  0  0  0  0  0  0
   -0.3379   -2.6928    1.0407 C   0  0  0  0  0  0  0  0  0  0  0  0
   -0.4997   -1.3973    1.4300 C   0  0  0  0  0  0  0  0  0  0  0  0
    0.5111   -0.6889    2.1574 O   0  0  0  0  0  0  0  0  0  0  0  0
    1.5008   -0.0677    1.3741 C   0  0  0  0  0  0  0  0  0  0  0  0
    1.4800   -0.1476    0.0062 C   0  0  0  0  0  0  0  0  0  0  0  0
    2.4330    0.4483   -0.7960 C   0  0  0  0  0  0  0  0  0  0  0  0
    3.4532    1.1539   -0.2515 C   0  0  0  0  0  0  0  0  0  0  0  0
    4.4907    1.8081   -1.0105 C   0  0  0  0  0  0  0  0  0  0  0  0
    4.5559    1.7884   -2.3176 C   0  0  0  0  0  0  0  0  0  0  0  0
    5.6367    2.4733   -3.0385 C   0  0  0  0  0  0  0  0  0  0  0  0
    6.6128    3.1579   -2.3216 O   0  0  0  0  0  0  0  0  0  0  0  0
    5.6681    2.4341   -4.2834 O   0  0  0  0  0  0  0  0  0  0  0  0
    3.5045    1.2557    1.1473 C   0  0  0  0  0  0  0  0  0  0  0  0
    2.5352    0.6481    1.9317 C   0  0  0  0  0  0  0  0  0  0  0  0
   -5.0634    0.9833   -2.1304 H   0  0  0  0  0  0  0  0  0  0  0  0
   -4.1669    2.4588   -1.6376 H   0  0  0  0  0  0  0  0  0  0  0  0
   -5.4399    1.7186   -0.4887 H   0  0  0  0  0  0  0  0  0  0  0  0
   -4.1501   -0.2924   -0.4689 H   0  0  0  0  0  0  0  0  0  0  0  0
   -2.8456   -0.3299   -2.4294 H   0  0  0  0  0  0  0  0  0  0  0  0
   -1.5328    0.5096   -1.4128 H   0  0  0  0  0  0  0  0  0  0  0  0
   -2.6184    1.4170   -2.4684 H   0  0  0  0  0  0  0  0  0  0  0  0
   -4.1466    3.0067    0.2579 H   0  0  0  0  0  0  0  0  0  0  0  0
   -3.2274    4.2219    2.2260 H   0  0  0  0  0  0  0  0  0  0  0  0
   -1.5380    3.0634    3.6293 H   0  0  0  0  0  0  0  0  0  0  0  0
   -0.8671    0.8435    3.0999 H   0  0  0  0  0  0  0  0  0  0  0  0
   -0.8987   -7.1086   -0.8255 H   0  0  0  0  0  0  0  0  0  0  0  0
    1.7447   -5.4223    1.0437 H   0  0  0  0  0  0  0  0  0  0  0  0
    1.6537   -3.1678    1.8176 H   0  0  0  0  0  0  0  0  0  0  0  0
    0.6848   -0.7001   -0.4687 H   0  0  0  0  0  0  0  0  0  0  0  0
    2.3530    0.3433   -1.8678 H   0  0  0  0  0  0  0  0  0  0  0  0
    5.2920    2.3658   -0.5117 H   0  0  0  0  0  0  0  0  0  0  0  0
    3.8220    1.2725   -2.8827 H   0  0  0  0  0  0  0  0  0  0  0  0
    6.3205    4.0154   -1.8577 H   0  0  0  0  0  0  0  0  0  0  0  0
    4.2978    1.8075    1.6354 H   0  0  0  0  0  0  0  0  0  0  0  0
    2.5526    0.7121    3.0188 H   0  0  0  0  0  0  0  0  0  0  0  0
  1  2  1  0
  2  3  1  0
  2  4  1  0
  4  5  2  0
  5  6  1  0
  6  7  2  0
  7  8  1  0
  8  9  2  0
  9 10  1  0
 10 11  1  0
 11 12  1  0
 12 13  2  0
 13 14  1  0
 13 15  1  0
 15 16  1  0
 15 17  2  0
 17 18  1  0
 18 19  2  0
 19 20  1  0
 20 21  1  0
 21 22  1  0
 22 23  2  0
 23 24  1  0
 24 25  2  0
 25 26  1  0
 26 27  2  0
 27 28  1  0
 28 29  1  0
 28 30  2  0
 25 31  1  0
 31 32  2  0
  9  4  1  0
 20 10  2  0
 32 22  1  0
 19 12  1  0
  1 33  1  0
  1 34  1  0
  1 35  1  0
  2 36  1  0
  3 37  1  0
  3 38  1  0
  3 39  1  0
  5 40  1  0
  6 41  1  0
  7 42  1  0
  8 43  1  0
 16 44  1  0
 17 45  1  0
 18 46  1  0
 23 47  1  0
 24 48  1  0
 26 49  1  0
 27 50  1  0
 29 51  1  0
 31 52  1  0
 32 53  1  0
M  END
$$$$
[H]Oc1c([H])c([H])c(-c2c([H])c([H])c3c(Cl)c(O[H])c([H])c([H])c3c2[H])c(Cl)c1[H]
     RDKit          3D

 30 32  0  0  0  0  0  0  0  0999 V2000
    6.0175   -0.5068   -0.3781 O   0  0  0  0  0  0  0  0  0  0  0  0
    4.6195   -0.4738   -0.2316 C   0  0  0  0  0  0  0  0  0  0  0  0
    3.8076   -0.2818   -1.3289 C   0  0  0  0  0  0  0  0  0  0  0  0
    2.4233   -0.2529   -1.1592 C   0  0  0  0  0  0  0  0  0  0  0  0
    1.8515   -0.4130    0.0862 C   0  0  0  0  0  0  0  0  0  0  0  0
    2.6542   -0.6050    1.1880 C   0  0  0  0  0  0  0  0  0  0  0  0
    1.9988   -0.8015    2.7986 Cl  0  0  0  0  0  0  0  0  0  0  0  0
    4.0335   -0.6314    1.0016 C   0  0  0  0  0  0  0  0  0  0  0  0
    0.3806   -0.3836    0.1960 C   0  0  0  0  0  0  0  0  0  0  0  0
   -0.2596   -1.3905    0.8825 C   0  0  0  0  0  0  0  0  0  0  0  0
   -1.6456   -1.3573    0.9932 C   0  0  0  0  0  0  0  0  0  0  0  0
   -2.3487   -0.3218    0.4158 C   0  0  0  0  0  0  0  0  0  0  0  0
   -3.7199   -0.3029    0.5338 C   0  0  0  0  0  0  0  0  0  0  0  0
   -4.5030   -1.5809    1.4028 Cl  0  0  0  0  0  0  0  0  0  0  0  0
   -4.4187    0.7433   -0.0507 C   0  0  0  0  0  0  0  0  0  0  0  0
   -5.8084    0.7535    0.0745 O   0  0  0  0  0  0  0  0  0  0  0  0
   -3.7539    1.7420   -0.7348 C   0  0  0  0  0  0  0  0  0  0  0  0
   -2.3934    1.7185   -0.8490 C   0  0  0  0  0  0  0  0  0  0  0  0
   -1.6809    0.6863   -0.2745 C   0  0  0  0  0  0  0  0  0  0  0  0
   -0.3305    0.6702   -0.3922 C   0  0  0  0  0  0  0  0  0  0  0  0
    6.4670    0.4173   -0.2849 H   0  0  0  0  0  0  0  0  0  0  0  0
    4.2639   -0.1578   -2.2967 H   0  0  0  0  0  0  0  0  0  0  0  0
    1.7857   -0.1022   -2.0196 H   0  0  0  0  0  0  0  0  0  0  0  0
    4.7160   -0.7820    1.8496 H   0  0  0  0  0  0  0  0  0  0  0  0
    0.2971   -2.2157    1.3350 H   0  0  0  0  0  0  0  0  0  0  0  0
   -2.1297   -2.1575    1.5367 H   0  0  0  0  0  0  0  0  0  0  0  0
   -6.3102    1.5074   -0.3469 H   0  0  0  0  0  0  0  0  0  0  0  0
   -4.3627    2.5323   -1.1688 H   0  0  0  0  0  0  0  0  0  0  0  0
   -1.8838    2.5060   -1.3871 H   0  0  0  0  0  0  0  0  0  0  0  0
    0.2332    1.4418   -0.9255 H   0  0  0  0  0  0  0  0  0  0  0  0
  1  2  1  0
  2  3  2  0
  3  4  1  0
  4  5  2  0
  5  6  1  0
  6  7  1  0
  6  8  2  0
  5  9  1  0
  9 10  2  0
 10 11  1  0
 11 12  2  0
 12 13  1  0
 13 14  1  0
 13 15  2  0
 15 16  1  0
 15 17  1  0
 17 18  2  0
 18 19  1  0
 19 20  2  0
  8  2  1  0
 20  9  1  0
 19 12  1  0
  1 21  1  0
  3 22  1  0
  4 23  1  0
  8 24  1  0
 10 25  1  0
 11 26  1  0
 16 27  1  0
 17 28  1  0
 18 29  1  0
 20 30  1  0
M  END
$$$$
[H]Oc1c([H])c([H])c(-c2nn(C([H])(C([H])([H])[H])C([H])([H])[H])c3c(C(F)(F)F)c([H])c([H])c([H])c23)c([H])c1[H]
     RDKit          3D

 38 40  0  0  0  0  0  0  0  0999 V2000
   -3.4059   -1.4652    1.3915 C   0  0  0  0  0  0  0  0  0  0  0  0
   -2.5251   -1.3654    0.2076 C   0  0  0  0  0  0  0  0  0  0  0  0
   -2.9720   -2.1083   -1.0486 C   0  0  0  0  0  0  0  0  0  0  0  0
   -1.3385   -0.6134    0.1358 N   0  0  0  0  0  0  0  0  0  0  0  0
   -0.0978   -1.1790    0.0805 N   0  0  0  0  0  0  0  0  0  0  0  0
    0.8822   -0.2970    0.1248 C   0  0  0  0  0  0  0  0  0  0  0  0
    2.3231   -0.5247    0.0981 C   0  0  0  0  0  0  0  0  0  0  0  0
    3.1050    0.2059   -0.7441 C   0  0  0  0  0  0  0  0  0  0  0  0
    4.4850   -0.0403   -0.7302 C   0  0  0  0  0  0  0  0  0  0  0  0
    5.0045   -0.9862    0.1081 C   0  0  0  0  0  0  0  0  0  0  0  0
    6.3751   -1.2022    0.0941 O   0  0  0  0  0  0  0  0  0  0  0  0
    4.2250   -1.7211    0.9537 C   0  0  0  0  0  0  0  0  0  0  0  0
    2.8572   -1.4780    0.9410 C   0  0  0  0  0  0  0  0  0  0  0  0
    0.2773    0.9249    0.2144 C   0  0  0  0  0  0  0  0  0  0  0  0
    0.7934    2.1964    0.3534 C   0  0  0  0  0  0  0  0  0  0  0  0
   -0.0441    3.2577    0.4893 C   0  0  0  0  0  0  0  0  0  0  0  0
   -1.3756    3.0367    0.4796 C   0  0  0  0  0  0  0  0  0  0  0  0
   -1.9895    1.7417    0.3360 C   0  0  0  0  0  0  0  0  0  0  0  0
   -1.1111    0.7039    0.2133 C   0  0  0  0  0  0  0  0  0  0  0  0
   -3.4054    1.7134    0.1549 C   0  0  0  0  0  0  0  0  0  0  0  0
   -4.0332    2.8904    0.6905 F   0  0  0  0  0  0  0  0  0  0  0  0
   -3.2815    2.5402   -1.1685 F   0  0  0  0  0  0  0  0  0  0  0  0
   -4.2369    0.9703   -0.5028 F   0  0  0  0  0  0  0  0  0  0  0  0
   -3.1519   -0.6996    2.1103 H   0  0  0  0  0  0  0  0  0  0  0  0
   -3.4332   -2.4053    1.9782 H   0  0  0  0  0  0  0  0  0  0  0  0
   -4.4818   -1.4401    1.0314 H   0  0  0  0  0  0  0  0  0  0  0  0
   -1.9695   -2.3759    0.5636 H   0  0  0  0  0  0  0  0  0  0  0  0
   -3.5450   -3.0188   -0.8158 H   0  0  0  0  0  0  0  0  0  0  0  0
   -3.5878   -1.5287   -1.7330 H   0  0  0  0  0  0  0  0  0  0  0  0
   -2.0565   -2.4509   -1.6184 H   0  0  0  0  0  0  0  0  0  0  0  0
    2.6973    0.9509   -1.4133 H   0  0  0  0  0  0  0  0  0  0  0  0
    5.0862    0.5412   -1.3966 H   0  0  0  0  0  0  0  0  0  0  0  0
    6.9994   -0.6803   -0.5180 H   0  0  0  0  0  0  0  0  0  0  0  0
    4.6219   -2.4638    1.6136 H   0  0  0  0  0  0  0  0  0  0  0  0
    2.1857   -2.0246    1.5849 H   0  0  0  0  0  0  0  0  0  0  0  0
    1.8761    2.2906    0.3527 H   0  0  0  0  0  0  0  0  0  0  0  0
    0.3510    4.2426    0.6009 H   0  0  0  0  0  0  0  0  0  0  0  0
   -2.1029    3.8619    0.5857 H   0  0  0  0  0  0  0  0  0  0  0  0
  1  2  1  0
  2  3  1  0
  2  4  1  0
  4  5  1  0
  5  6  2  0
  6  7  1  0
  7  8  2  0
  8  9  1  0
  9 10  2  0
 10 11  1  0
 10 12  1  0
 12 13  2  0
  6 14  1  0
 14 15  2  0
 15 16  1  0
 16 17  2  0
 17 18  1  0
 18 19  2  0
 18 20  1  0
 20 21  1  0
 20 22  1  0
 20 23  1  0
 19  4  1  0
 13  7  1  0
 19 14  1  0
  1 24  1  0
  1 25  1  0
  1 26  1  0
  2 27  1  0
  3 28  1  0
  3 29  1  0
  3 30  1  0
  8 31  1  0
  9 32  1  0
 11 33  1  0
 12 34  1  0
 13 35  1  0
 15 36  1  0
 16 37  1  0
 17 38  1  0
M  END
$$$$
[H]Oc1c([H])c([H])c([H])c(N2C([H])(c3c([H])c([H])c(N4C([H])([H])C([H])([H])N(C([H])([H])C([H])(C([H])([H])[H])C([H])([H])[H])C([H])([H])C4([H])[H])c([H])c3[H])c3c([H])c([H])c(O[H])c([H])c3C([H])([H])C2([H])[H])c1[H]
     RDKit          3D

 69 73  0  0  0  0  0  0  0  0999 V2000
    7.2251    0.3876   -1.4926 C   0  0  0  0  0  0  0  0  0  0  0  0
    7.3247   -0.4974   -0.2604 C   0  0  0  0  0  0  0  0  0  0  0  0
    8.7974   -0.5958    0.0839 C   0  0  0  0  0  0  0  0  0  0  0  0
    6.5313    0.1092    0.8749 C   0  0  0  0  0  0  0  0  0  0  0  0
    5.1537    0.2123    0.4510 N   0  0  0  0  0  0  0  0  0  0  0  0
    4.3169    0.7985    1.4849 C   0  0  0  0  0  0  0  0  0  0  0  0
    3.0223    1.2104    0.7668 C   0  0  0  0  0  0  0  0  0  0  0  0
    2.4330   -0.0280    0.2954 N   0  0  0  0  0  0  0  0  0  0  0  0
    3.1764   -1.2400    0.1074 C   0  0  0  0  0  0  0  0  0  0  0  0
    4.6676   -1.0618    0.0433 C   0  0  0  0  0  0  0  0  0  0  0  0
    1.0341   -0.0425   -0.0045 C   0  0  0  0  0  0  0  0  0  0  0  0
    0.3065    1.1384    0.0060 C   0  0  0  0  0  0  0  0  0  0  0  0
   -1.0454    1.1287   -0.2770 C   0  0  0  0  0  0  0  0  0  0  0  0
   -1.6882   -0.0300   -0.5699 C   0  0  0  0  0  0  0  0  0  0  0  0
   -0.9948   -1.2036   -0.5865 C   0  0  0  0  0  0  0  0  0  0  0  0
    0.3721   -1.2185   -0.3037 C   0  0  0  0  0  0  0  0  0  0  0  0
   -3.1422   -0.0164   -0.8770 C   0  0  0  0  0  0  0  0  0  0  0  0
   -3.8574    0.8450    0.0557 N   0  0  0  0  0  0  0  0  0  0  0  0
   -3.5974    0.5969    1.4636 C   0  0  0  0  0  0  0  0  0  0  0  0
   -3.5261   -0.8714    1.8059 C   0  0  0  0  0  0  0  0  0  0  0  0
   -3.8447   -1.7575    0.6670 C   0  0  0  0  0  0  0  0  0  0  0  0
   -4.3388   -3.0243    0.9567 C   0  0  0  0  0  0  0  0  0  0  0  0
   -4.6544   -3.8934   -0.0632 C   0  0  0  0  0  0  0  0  0  0  0  0
   -5.1458   -5.1512    0.2703 O   0  0  0  0  0  0  0  0  0  0  0  0
   -4.4831   -3.5149   -1.3853 C   0  0  0  0  0  0  0  0  0  0  0  0
   -3.9927   -2.2575   -1.6742 C   0  0  0  0  0  0  0  0  0  0  0  0
   -3.6808   -1.3977   -0.6447 C   0  0  0  0  0  0  0  0  0  0  0  0
   -4.7583    1.8530   -0.3723 C   0  0  0  0  0  0  0  0  0  0  0  0
   -5.2663    1.8720   -1.6504 C   0  0  0  0  0  0  0  0  0  0  0  0
   -6.1447    2.8772   -2.0683 C   0  0  0  0  0  0  0  0  0  0  0  0
   -6.5289    3.8780   -1.2163 C   0  0  0  0  0  0  0  0  0  0  0  0
   -6.0323    3.8695    0.0521 C   0  0  0  0  0  0  0  0  0  0  0  0
   -6.3817    4.8536    0.9636 O   0  0  0  0  0  0  0  0  0  0  0  0
   -5.1573    2.8718    0.4742 C   0  0  0  0  0  0  0  0  0  0  0  0
    7.9447    1.2228   -1.3291 H   0  0  0  0  0  0  0  0  0  0  0  0
    6.2124    0.7437   -1.7015 H   0  0  0  0  0  0  0  0  0  0  0  0
    7.5701   -0.2123   -2.3664 H   0  0  0  0  0  0  0  0  0  0  0  0
    6.8904   -1.4953   -0.4697 H   0  0  0  0  0  0  0  0  0  0  0  0
    9.3534    0.3133   -0.2390 H   0  0  0  0  0  0  0  0  0  0  0  0
    8.8967   -0.6690    1.1825 H   0  0  0  0  0  0  0  0  0  0  0  0
    9.1862   -1.5190   -0.3831 H   0  0  0  0  0  0  0  0  0  0  0  0
    6.6103   -0.5507    1.7620 H   0  0  0  0  0  0  0  0  0  0  0  0
    6.9845    1.0862    1.1190 H   0  0  0  0  0  0  0  0  0  0  0  0
    4.0236   -0.0172    2.1801 H   0  0  0  0  0  0  0  0  0  0  0  0
    4.8047    1.6476    1.9675 H   0  0  0  0  0  0  0  0  0  0  0  0
    2.3706    1.7257    1.5045 H   0  0  0  0  0  0  0  0  0  0  0  0
    3.3386    1.8769   -0.0615 H   0  0  0  0  0  0  0  0  0  0  0  0
    2.8002   -1.7372   -0.8209 H   0  0  0  0  0  0  0  0  0  0  0  0
    2.9512   -1.9177    0.9552 H   0  0  0  0  0  0  0  0  0  0  0  0
    5.1966   -1.8845    0.5918 H   0  0  0  0  0  0  0  0  0  0  0  0
    4.9645   -1.1902   -1.0394 H   0  0  0  0  0  0  0  0  0  0  0  0
    0.8350    2.0687    0.2413 H   0  0  0  0  0  0  0  0  0  0  0  0
   -1.5354    2.1057   -0.2450 H   0  0  0  0  0  0  0  0  0  0  0  0
   -1.4547   -2.1515   -0.8123 H   0  0  0  0  0  0  0  0  0  0  0  0
    0.8930   -2.1611   -0.3224 H   0  0  0  0  0  0  0  0  0  0  0  0
   -3.2431    0.2905   -1.9219 H   0  0  0  0  0  0  0  0  0  0  0  0
   -4.4977    0.9855    2.0228 H   0  0  0  0  0  0  0  0  0  0  0  0
   -2.7287    1.1219    1.8591 H   0  0  0  0  0  0  0  0  0  0  0  0
   -4.1953   -1.1337    2.6572 H   0  0  0  0  0  0  0  0  0  0  0  0
   -2.4999   -1.1251    2.1599 H   0  0  0  0  0  0  0  0  0  0  0  0
   -4.4753   -3.3266    1.9993 H   0  0  0  0  0  0  0  0  0  0  0  0
   -5.3967   -5.8358   -0.4194 H   0  0  0  0  0  0  0  0  0  0  0  0
   -4.7410   -4.2209   -2.1414 H   0  0  0  0  0  0  0  0  0  0  0  0
   -3.8512   -1.9400   -2.6976 H   0  0  0  0  0  0  0  0  0  0  0  0
   -4.9998    1.1092   -2.3536 H   0  0  0  0  0  0  0  0  0  0  0  0
   -6.5068    2.8391   -3.0760 H   0  0  0  0  0  0  0  0  0  0  0  0
   -7.1996    4.6582   -1.5114 H   0  0  0  0  0  0  0  0  0  0  0  0
   -5.8303    5.7117    1.0430 H   0  0  0  0  0  0  0  0  0  0  0  0
   -4.7716    2.8808    1.4722 H   0  0  0  0  0  0  0  0  0  0  0  0
  1  2  1  0
  2  3  1  0
  2  4  1  0
  4  5  1  0
  5  6  1  0
  6  7  1  0
  7  8  1  0
  8  9  1  0
  9 10  1  0
  8 11  1  0
 11 12  2  0
 12 13  1  0
 13 14  2  0
 14 15  1  0
 15 16  2  0
 14 17  1  0
 17 18  1  0
 18 19  1  0
 19 20  1  0
 20 21  1  0
 21 22  2  0
 22 23  1  0
 23 24  1  0
 23 25  2  0
 25 26  1  0
 26 27  2  0
 18 28  1  0
 28 29  2  0
 29 30  1  0
 30 31  2  0
 31 32  1  0
 32 33  1  0
 32 34  2  0
 10  5  1  0
 16 11  1  0
 27 17  1  0
 34 28  1  0
 27 21  1  0
  1 35  1  0
  1 36  1  0
  1 37  1  0
  2 38  1  0
  3 39  1  0
  3 40  1  0
  3 41  1  0
  4 42  1  0
  4 43  1  0
  6 44  1  0
  6 45  1  0
  7 46  1  0
  7 47  1  0
  9 48  1  0
  9 49  1  0
 10 50  1  0
 10 51  1  0
 12 52  1  0
 13 53  1  0
 15 54  1  0
 16 55  1  0
 17 56  1  0
 19 57  1  0
 19 58  1  0
 20 59  1  0
 20 60  1  0
 22 61  1  0
 24 62  1  0
 25 63  1  0
 26 64  1  0
 29 65  1  0
 30 66  1  0
 31 67  1  0
 33 68  1  0
 34 69  1  0
M  END
$$$$
[H]Oc1c([H])c([H])c2c(-c3c([H])c([H])c(F)c([H])c3[H])c(C(=O)c3c([H])c([H])c(C#N)c([H])c3[H])sc2c1[H]
     RDKit          3D

 39 42  0  0  0  0  0  0  0  0999 V2000
   -4.4961    4.5749    0.0011 O   0  0  0  0  0  0  0  0  0  0  0  0
   -3.6869    3.4734    0.0542 C   0  0  0  0  0  0  0  0  0  0  0  0
   -4.1460    2.1841   -0.1654 C   0  0  0  0  0  0  0  0  0  0  0  0
   -3.3654    1.0606   -0.1199 C   0  0  0  0  0  0  0  0  0  0  0  0
   -1.9887    1.1765    0.1676 C   0  0  0  0  0  0  0  0  0  0  0  0
   -1.1040    0.1622    0.2487 C   0  0  0  0  0  0  0  0  0  0  0  0
    0.2045    0.4935    0.5481 C   0  0  0  0  0  0  0  0  0  0  0  0
    0.1174    2.1932    0.6960 S   0  0  0  0  0  0  0  0  0  0  0  0
   -1.5315    2.4407    0.3842 C   0  0  0  0  0  0  0  0  0  0  0  0
   -2.3392    3.5712    0.3340 C   0  0  0  0  0  0  0  0  0  0  0  0
    1.3298   -0.4261    0.6995 C   0  0  0  0  0  0  0  0  0  0  0  0
    1.0178   -1.5805    1.1681 O   0  0  0  0  0  0  0  0  0  0  0  0
    2.6957   -0.1651    0.3796 C   0  0  0  0  0  0  0  0  0  0  0  0
    3.4777   -1.2849    0.0057 C   0  0  0  0  0  0  0  0  0  0  0  0
    4.7985   -1.1415   -0.3082 C   0  0  0  0  0  0  0  0  0  0  0  0
    5.3716    0.1211   -0.2567 C   0  0  0  0  0  0  0  0  0  0  0  0
    4.6295    1.2196    0.1043 C   0  0  0  0  0  0  0  0  0  0  0  0
    3.2754    1.0688    0.4254 C   0  0  0  0  0  0  0  0  0  0  0  0
    6.7518    0.2923   -0.5813 C   0  0  0  0  0  0  0  0  0  0  0  0
    7.8864    0.4188   -0.8334 N   0  0  0  0  0  0  0  0  0  0  0  0
   -1.4058   -1.2894    0.0149 C   0  0  0  0  0  0  0  0  0  0  0  0
   -1.0799   -1.8903   -1.1787 C   0  0  0  0  0  0  0  0  0  0  0  0
   -1.3866   -3.2219   -1.3454 C   0  0  0  0  0  0  0  0  0  0  0  0
   -2.0096   -3.9738   -0.3553 C   0  0  0  0  0  0  0  0  0  0  0  0
   -2.3045   -5.2902   -0.5336 F   0  0  0  0  0  0  0  0  0  0  0  0
   -2.3264   -3.3576    0.8246 C   0  0  0  0  0  0  0  0  0  0  0  0
   -2.0223   -2.0249    0.9982 C   0  0  0  0  0  0  0  0  0  0  0  0
   -4.6849    5.1371   -0.8258 H   0  0  0  0  0  0  0  0  0  0  0  0
   -5.2137    2.0874   -0.3893 H   0  0  0  0  0  0  0  0  0  0  0  0
   -3.8410    0.1103   -0.3063 H   0  0  0  0  0  0  0  0  0  0  0  0
   -1.9342    4.5535    0.5117 H   0  0  0  0  0  0  0  0  0  0  0  0
    3.0178   -2.2682   -0.0299 H   0  0  0  0  0  0  0  0  0  0  0  0
    5.4198   -1.9669   -0.5936 H   0  0  0  0  0  0  0  0  0  0  0  0
    5.0531    2.2049    0.1464 H   0  0  0  0  0  0  0  0  0  0  0  0
    2.6945    1.9264    0.7116 H   0  0  0  0  0  0  0  0  0  0  0  0
   -0.6054   -1.3253   -1.9430 H   0  0  0  0  0  0  0  0  0  0  0  0
   -1.1616   -3.7628   -2.2539 H   0  0  0  0  0  0  0  0  0  0  0  0
   -2.8091   -3.9242    1.6038 H   0  0  0  0  0  0  0  0  0  0  0  0
   -2.2988   -1.5770    1.9666 H   0  0  0  0  0  0  0  0  0  0  0  0
  1  2  1  0
  2  3  2  0
  3  4  1  0
  4  5  2  0
  5  6  1  0
  6  7  2  0
  7  8  1  0
  8  9  1  0
  9 10  2  0
  7 11  1  0
 11 12  2  0
 11 13  1  0
 13 14  2  0
 14 15  1  0
 15 16  2  0
 16 17  1  0
 17 18  2  0
 16 19  1  0
 19 20  3  0
  6 21  1  0
 21 22  2  0
 22 23  1  0
 23 24  2  0
 24 25  1  0
 24 26  1  0
 26 27  2  0
 10  2  1  0
 18 13  1  0
 27 21  1  0
  9  5  1  0
  1 28  1  0
  3 29  1  0
  4 30  1  0
 10 31  1  0
 14 32  1  0
 15 33  1  0
 17 34  1  0
 18 35  1  0
 22 36  1  0
 23 37  1  0
 26 38  1  0
 27 39  1  0
M  END
$$$$
[H]Oc1c([H])c([H])c([C@@]2([H])[C@]([H])(C([H])([H])[H])c3c(F)c(O[H])c([H])c([H])c3O[C@@]2([H])c2c([H])c([H])c(OC([H])([H])C([H])([H])N3C([H])([H])C([H])([H])C([H])([H])C3([H])[H])c([H])c2[H])c([H])c1[H]
     RDKit          3D

 64 68  0  0  0  0  0  0  0  0999 V2000
   -4.0700   -2.3462   -1.0859 C   0  0  0  0  0  0  0  0  0  0  0  0
   -4.1258   -0.9605   -0.4742 C   0  0  1  0  0  0  0  0  0  0  0  0
   -2.8743   -0.8237    0.4114 C   0  0  1  0  0  0  0  0  0  0  0  0
   -1.7656   -0.3724   -0.4272 C   0  0  1  0  0  0  0  0  0  0  0  0
   -2.0400    0.8498   -1.0667 O   0  0  0  0  0  0  0  0  0  0  0  0
   -3.2031    0.9428   -1.8117 C   0  0  0  0  0  0  0  0  0  0  0  0
   -3.3640    1.8800   -2.8189 C   0  0  0  0  0  0  0  0  0  0  0  0
   -4.5207    1.9709   -3.5566 C   0  0  0  0  0  0  0  0  0  0  0  0
   -5.5345    1.0730   -3.2468 C   0  0  0  0  0  0  0  0  0  0  0  0
   -6.7014    1.1439   -3.9704 O   0  0  0  0  0  0  0  0  0  0  0  0
   -5.3895    0.1339   -2.2468 C   0  0  0  0  0  0  0  0  0  0  0  0
   -6.4120   -0.7155   -1.9894 F   0  0  0  0  0  0  0  0  0  0  0  0
   -4.2156    0.0666   -1.5228 C   0  0  0  0  0  0  0  0  0  0  0  0
   -0.4083   -0.4110    0.1574 C   0  0  0  0  0  0  0  0  0  0  0  0
    0.6102    0.1030   -0.6049 C   0  0  0  0  0  0  0  0  0  0  0  0
    1.9060    0.0945   -0.1241 C   0  0  0  0  0  0  0  0  0  0  0  0
    2.1818   -0.4265    1.1125 C   0  0  0  0  0  0  0  0  0  0  0  0
    3.4371   -0.4591    1.6172 O   0  0  0  0  0  0  0  0  0  0  0  0
    4.6343   -0.0633    1.0588 C   0  0  0  0  0  0  0  0  0  0  0  0
    5.0042   -0.9094   -0.1081 C   0  0  0  0  0  0  0  0  0  0  0  0
    6.2343   -0.5377   -0.7615 N   0  0  0  0  0  0  0  0  0  0  0  0
    6.2181    0.7077   -1.4460 C   0  0  0  0  0  0  0  0  0  0  0  0
    7.5651    1.3594   -1.2411 C   0  0  0  0  0  0  0  0  0  0  0  0
    8.4274    0.2966   -0.6395 C   0  0  0  0  0  0  0  0  0  0  0  0
    7.4023   -0.6038    0.0522 C   0  0  0  0  0  0  0  0  0  0  0  0
    1.1077   -0.9435    1.8631 C   0  0  0  0  0  0  0  0  0  0  0  0
   -0.1778   -0.9306    1.3775 C   0  0  0  0  0  0  0  0  0  0  0  0
   -3.2798   -0.0883    1.5805 C   0  0  0  0  0  0  0  0  0  0  0  0
   -3.9761   -0.7888    2.5836 C   0  0  0  0  0  0  0  0  0  0  0  0
   -4.3972   -0.1876    3.7344 C   0  0  0  0  0  0  0  0  0  0  0  0
   -4.1437    1.1483    3.9425 C   0  0  0  0  0  0  0  0  0  0  0  0
   -4.5653    1.7870    5.1138 O   0  0  0  0  0  0  0  0  0  0  0  0
   -3.4622    1.8735    2.9820 C   0  0  0  0  0  0  0  0  0  0  0  0
   -3.0405    1.2288    1.8078 C   0  0  0  0  0  0  0  0  0  0  0  0
   -3.6733   -2.2794   -2.1368 H   0  0  0  0  0  0  0  0  0  0  0  0
   -5.0576   -2.8269   -1.0343 H   0  0  0  0  0  0  0  0  0  0  0  0
   -3.3553   -2.9950   -0.5365 H   0  0  0  0  0  0  0  0  0  0  0  0
   -5.0577   -0.8551    0.1568 H   0  0  0  0  0  0  0  0  0  0  0  0
   -2.6385   -1.8921    0.7819 H   0  0  0  0  0  0  0  0  0  0  0  0
   -1.6971   -1.1217   -1.2897 H   0  0  0  0  0  0  0  0  0  0  0  0
   -2.5615    2.5661   -3.0399 H   0  0  0  0  0  0  0  0  0  0  0  0
   -4.6515    2.6904   -4.3341 H   0  0  0  0  0  0  0  0  0  0  0  0
   -7.4512    0.5069   -3.7674 H   0  0  0  0  0  0  0  0  0  0  0  0
    0.4133    0.5199   -1.5880 H   0  0  0  0  0  0  0  0  0  0  0  0
    2.6835    0.5388   -0.7532 H   0  0  0  0  0  0  0  0  0  0  0  0
    4.4967    1.0226    0.7497 H   0  0  0  0  0  0  0  0  0  0  0  0
    5.4136   -0.0752    1.8596 H   0  0  0  0  0  0  0  0  0  0  0  0
    5.2486   -1.9455    0.3395 H   0  0  0  0  0  0  0  0  0  0  0  0
    4.1830   -1.1097   -0.7706 H   0  0  0  0  0  0  0  0  0  0  0  0
    5.4462    1.4159   -1.0866 H   0  0  0  0  0  0  0  0  0  0  0  0
    6.1061    0.5091   -2.5353 H   0  0  0  0  0  0  0  0  0  0  0  0
    7.4748    2.2520   -0.5673 H   0  0  0  0  0  0  0  0  0  0  0  0
    7.9846    1.7764   -2.1962 H   0  0  0  0  0  0  0  0  0  0  0  0
    9.1803    0.6773    0.0546 H   0  0  0  0  0  0  0  0  0  0  0  0
    8.9457   -0.2622   -1.4465 H   0  0  0  0  0  0  0  0  0  0  0  0
    7.8161   -1.6421   -0.0173 H   0  0  0  0  0  0  0  0  0  0  0  0
    7.2767   -0.3277    1.1029 H   0  0  0  0  0  0  0  0  0  0  0  0
    1.3256   -1.3520    2.8361 H   0  0  0  0  0  0  0  0  0  0  0  0
   -0.9742   -1.3522    2.0062 H   0  0  0  0  0  0  0  0  0  0  0  0
   -4.1981   -1.8397    2.4652 H   0  0  0  0  0  0  0  0  0  0  0  0
   -4.9313   -0.7453    4.4925 H   0  0  0  0  0  0  0  0  0  0  0  0
   -5.0604    1.2786    5.8215 H   0  0  0  0  0  0  0  0  0  0  0  0
   -3.2398    2.9249    3.1005 H   0  0  0  0  0  0  0  0  0  0  0  0
   -2.5088    1.8040    1.0805 H   0  0  0  0  0  0  0  0  0  0  0  0
  1  2  1  0
  2  3  1  0
  3  4  1  0
  4  5  1  0
  5  6  1  0
  6  7  2  0
  7  8  1  0
  8  9  2  0
  9 10  1  0
  9 11  1  0
 11 12  1  0
 11 13  2  0
  4 14  1  0
 14 15  2  0
 15 16  1  0
 16 17  2  0
 17 18  1  0
 18 19  1  0
 19 20  1  0
 20 21  1  0
 21 22  1  0
 22 23  1  0
 23 24  1  0
 24 25  1  0
 17 26  1  0
 26 27  2  0
  3 28  1  0
 28 29  2  0
 29 30  1  0
 30 31  2  0
 31 32  1  0
 31 33  1  0
 33 34  2  0
 13  2  1  0
 27 14  1  0
 34 28  1  0
 13  6  1  0
 25 21  1  0
  1 35  1  0
  1 36  1  0
  1 37  1  0
  2 38  1  1
  3 39  1  1
  4 40  1  6
  7 41  1  0
  8 42  1  0
 10 43  1  0
 15 44  1  0
 16 45  1  0
 19 46  1  0
 19 47  1  0
 20 48  1  0
 20 49  1  0
 22 50  1  0
 22 51  1  0
 23 52  1  0
 23 53  1  0
 24 54  1  0
 24 55  1  0
 25 56  1  0
 25 57  1  0
 26 58  1  0
 27 59  1  0
 29 60  1  0
 30 61  1  0
 32 62  1  0
 33 63  1  0
 34 64  1  0
M  END
$$$$
