[H]c1nc(-c2c([H])c(N3C([H])([H])C([H])([H])OC([H])([H])C3([H])[H])c([H])c(N([H])C(=O)c3c([H])c([H])nc(C4([H])C([H])([H])C4([H])[H])c3[H])c2C([H])([H])[H])nc([H])c1[H]
     RDKit          3D

 56 60  0  0  0  0  0  0  0  0999 V2000
   -0.4045    3.1650   -0.5649 C   0  0  0  0  0  0  0  0  0  0  0  0
   -1.0693    1.8631   -0.4147 C   0  0  0  0  0  0  0  0  0  0  0  0
   -0.3113    0.7064   -0.1165 C   0  0  0  0  0  0  0  0  0  0  0  0
    1.1027    0.7461   -0.0864 N   0  0  0  0  0  0  0  0  0  0  0  0
    2.0046   -0.2116    0.3683 C   0  0  0  0  0  0  0  0  0  0  0  0
    1.6358   -1.3265    0.8537 O   0  0  0  0  0  0  0  0  0  0  0  0
    3.4600   -0.0329    0.3326 C   0  0  0  0  0  0  0  0  0  0  0  0
    4.0120    1.2067    0.2060 C   0  0  0  0  0  0  0  0  0  0  0  0
    5.4086    1.3815    0.1606 C   0  0  0  0  0  0  0  0  0  0  0  0
    6.1993    0.2828    0.2464 N   0  0  0  0  0  0  0  0  0  0  0  0
    5.6903   -0.9642    0.3732 C   0  0  0  0  0  0  0  0  0  0  0  0
    4.3184   -1.1042    0.4147 C   0  0  0  0  0  0  0  0  0  0  0  0
    6.6224   -2.1041    0.4604 C   0  0  0  0  0  0  0  0  0  0  0  0
    7.6381   -2.1417   -0.6890 C   0  0  0  0  0  0  0  0  0  0  0  0
    8.0390   -1.9377    0.7844 C   0  0  0  0  0  0  0  0  0  0  0  0
   -1.0133   -0.4568    0.0691 C   0  0  0  0  0  0  0  0  0  0  0  0
   -2.3991   -0.5772   -0.0156 C   0  0  0  0  0  0  0  0  0  0  0  0
   -3.0755    0.5812   -0.3106 C   0  0  0  0  0  0  0  0  0  0  0  0
   -2.4327    1.8019   -0.5129 C   0  0  0  0  0  0  0  0  0  0  0  0
   -3.2896    2.9342   -0.8411 C   0  0  0  0  0  0  0  0  0  0  0  0
   -2.8892    4.1537   -1.1556 N   0  0  0  0  0  0  0  0  0  0  0  0
   -3.7186    5.1509   -1.4433 C   0  0  0  0  0  0  0  0  0  0  0  0
   -5.0973    4.9763   -1.4331 C   0  0  0  0  0  0  0  0  0  0  0  0
   -5.5252    3.7143   -1.1080 C   0  0  0  0  0  0  0  0  0  0  0  0
   -4.6495    2.7546   -0.8291 N   0  0  0  0  0  0  0  0  0  0  0  0
   -3.0536   -1.8200    0.1858 N   0  0  0  0  0  0  0  0  0  0  0  0
   -2.3399   -3.0563    0.3754 C   0  0  0  0  0  0  0  0  0  0  0  0
   -3.2362   -4.1812   -0.1242 C   0  0  0  0  0  0  0  0  0  0  0  0
   -4.4226   -4.2664    0.5593 O   0  0  0  0  0  0  0  0  0  0  0  0
   -4.9003   -3.0792    1.0553 C   0  0  0  0  0  0  0  0  0  0  0  0
   -4.4967   -1.8705    0.2100 C   0  0  0  0  0  0  0  0  0  0  0  0
    0.6460    3.1043   -0.1994 H   0  0  0  0  0  0  0  0  0  0  0  0
   -0.8811    3.9505    0.1137 H   0  0  0  0  0  0  0  0  0  0  0  0
   -0.4792    3.5200   -1.5872 H   0  0  0  0  0  0  0  0  0  0  0  0
    1.5783    1.6215   -0.5006 H   0  0  0  0  0  0  0  0  0  0  0  0
    3.3795    2.0759    0.1439 H   0  0  0  0  0  0  0  0  0  0  0  0
    5.8129    2.3825    0.0589 H   0  0  0  0  0  0  0  0  0  0  0  0
    3.9010   -2.0945    0.5157 H   0  0  0  0  0  0  0  0  0  0  0  0
    6.1104   -3.0828    0.5805 H   0  0  0  0  0  0  0  0  0  0  0  0
    7.8983   -3.1039   -1.1440 H   0  0  0  0  0  0  0  0  0  0  0  0
    7.7328   -1.2522   -1.3270 H   0  0  0  0  0  0  0  0  0  0  0  0
    8.4186   -0.9339    1.0623 H   0  0  0  0  0  0  0  0  0  0  0  0
    8.5971   -2.7658    1.2320 H   0  0  0  0  0  0  0  0  0  0  0  0
   -0.5124   -1.4026    0.2971 H   0  0  0  0  0  0  0  0  0  0  0  0
   -4.1723    0.5050   -0.3844 H   0  0  0  0  0  0  0  0  0  0  0  0
   -3.3621    6.1402   -1.6977 H   0  0  0  0  0  0  0  0  0  0  0  0
   -5.7533    5.7957   -1.6690 H   0  0  0  0  0  0  0  0  0  0  0  0
   -6.6073    3.5304   -1.0876 H   0  0  0  0  0  0  0  0  0  0  0  0
   -2.1612   -3.1766    1.4755 H   0  0  0  0  0  0  0  0  0  0  0  0
   -1.4011   -3.1370   -0.2101 H   0  0  0  0  0  0  0  0  0  0  0  0
   -3.4430   -3.9531   -1.1909 H   0  0  0  0  0  0  0  0  0  0  0  0
   -2.6370   -5.1220   -0.0693 H   0  0  0  0  0  0  0  0  0  0  0  0
   -6.0258   -3.1190    0.9784 H   0  0  0  0  0  0  0  0  0  0  0  0
   -4.6590   -2.8957    2.1057 H   0  0  0  0  0  0  0  0  0  0  0  0
   -4.9560   -1.8942   -0.7833 H   0  0  0  0  0  0  0  0  0  0  0  0
   -4.8306   -0.9808    0.8233 H   0  0  0  0  0  0  0  0  0  0  0  0
  1  2  1  0
  2  3  2  0
  3  4  1  0
  4  5  1  0
  5  6  2  0
  5  7  1  0
  7  8  2  0
  8  9  1  0
  9 10  2  0
 10 11  1  0
 11 12  2  0
 11 13  1  0
 13 14  1  0
 14 15  1  0
  3 16  1  0
 16 17  2  0
 17 18  1  0
 18 19  2  0
 19 20  1  0
 20 21  2  0
 21 22  1  0
 22 23  2  0
 23 24  1  0
 24 25  2  0
 17 26  1  0
 26 27  1  0
 27 28  1  0
 28 29  1  0
 29 30  1  0
 30 31  1  0
 19  2  1  0
 25 20  1  0
 31 26  1  0
 12  7  1  0
 15 13  1  0
  1 32  1  0
  1 33  1  0
  1 34  1  0
  4 35  1  0
  8 36  1  0
  9 37  1  0
 12 38  1  0
 13 39  1  0
 14 40  1  0
 14 41  1  0
 15 42  1  0
 15 43  1  0
 16 44  1  0
 18 45  1  0
 22 46  1  0
 23 47  1  0
 24 48  1  0
 27 49  1  0
 27 50  1  0
 28 51  1  0
 28 52  1  0
 30 53  1  0
 30 54  1  0
 31 55  1  0
 31 56  1  0
M  END
$$$$
[H]C1=C(c2nc(N(C([H])([H])[H])C([H])([H])[H])nc(-c3nc(C4(c5c([H])c([H])nn5C5([H])OC([H])([H])C([H])([H])C([H])([H])C5([H])[H])C([H])([H])C4([H])[H])c(N([H])[H])nc3[H])c2[H])C([H])([H])C([H])([H])OC1([H])[H]
     RDKit          3D

 68 73  0  0  0  0  0  0  0  0999 V2000
   -6.2254   -1.9169    1.7865 C   0  0  0  0  0  0  0  0  0  0  0  0
   -4.9951   -2.4973    1.3169 N   0  0  0  0  0  0  0  0  0  0  0  0
   -4.7967   -3.9146    1.3917 C   0  0  0  0  0  0  0  0  0  0  0  0
   -3.9895   -1.6480    0.7824 C   0  0  0  0  0  0  0  0  0  0  0  0
   -4.1236   -0.3261    0.6897 N   0  0  0  0  0  0  0  0  0  0  0  0
   -3.2186    0.5358    0.1974 C   0  0  0  0  0  0  0  0  0  0  0  0
   -2.0364    0.0020   -0.2563 C   0  0  0  0  0  0  0  0  0  0  0  0
   -1.8647   -1.3869   -0.1723 C   0  0  0  0  0  0  0  0  0  0  0  0
   -2.8159   -2.1821    0.3326 N   0  0  0  0  0  0  0  0  0  0  0  0
   -0.6029   -1.9439   -0.6573 C   0  0  0  0  0  0  0  0  0  0  0  0
   -0.4078   -3.3047   -0.5848 C   0  0  0  0  0  0  0  0  0  0  0  0
    0.7316   -3.8362   -1.0186 N   0  0  0  0  0  0  0  0  0  0  0  0
    1.6893   -3.0200   -1.5293 C   0  0  0  0  0  0  0  0  0  0  0  0
    2.8667   -3.6641   -1.9708 N   0  0  0  0  0  0  0  0  0  0  0  0
    1.5287   -1.6663   -1.6158 C   0  0  0  0  0  0  0  0  0  0  0  0
    0.3678   -1.1514   -1.1707 N   0  0  0  0  0  0  0  0  0  0  0  0
    2.5846   -0.7876   -2.1724 C   0  0  0  0  0  0  0  0  0  0  0  0
    2.1935    0.3901   -3.0087 C   0  0  0  0  0  0  0  0  0  0  0  0
    2.6169   -0.8064   -3.7375 C   0  0  0  0  0  0  0  0  0  0  0  0
    3.9087   -0.7498   -1.5286 C   0  0  0  0  0  0  0  0  0  0  0  0
    5.0687   -1.3383   -1.9804 C   0  0  0  0  0  0  0  0  0  0  0  0
    6.0538   -1.0504   -1.0784 C   0  0  0  0  0  0  0  0  0  0  0  0
    5.4977   -0.3167   -0.1250 N   0  0  0  0  0  0  0  0  0  0  0  0
    4.2156   -0.1358   -0.3920 N   0  0  0  0  0  0  0  0  0  0  0  0
    3.3552    0.6437    0.5014 C   0  0  0  0  0  0  0  0  0  0  0  0
    4.0206    1.9894    0.6548 C   0  0  0  0  0  0  0  0  0  0  0  0
    3.5155    2.7488    1.8573 C   0  0  0  0  0  0  0  0  0  0  0  0
    3.5718    1.8089    3.0456 C   0  0  0  0  0  0  0  0  0  0  0  0
    2.6594    0.6440    2.7066 C   0  0  0  0  0  0  0  0  0  0  0  0
    3.2808   -0.0622    1.6833 O   0  0  0  0  0  0  0  0  0  0  0  0
   -3.4884    1.9739    0.1453 C   0  0  0  0  0  0  0  0  0  0  0  0
   -4.6229    2.4926    0.5531 C   0  0  0  0  0  0  0  0  0  0  0  0
   -4.9352    3.9593    0.5144 C   0  0  0  0  0  0  0  0  0  0  0  0
   -3.9701    4.6393   -0.2325 O   0  0  0  0  0  0  0  0  0  0  0  0
   -2.6945    4.2649    0.1077 C   0  0  0  0  0  0  0  0  0  0  0  0
   -2.4365    2.8653   -0.3819 C   0  0  0  0  0  0  0  0  0  0  0  0
   -5.9417   -1.2183    2.6273 H   0  0  0  0  0  0  0  0  0  0  0  0
   -6.6917   -1.2599    1.0169 H   0  0  0  0  0  0  0  0  0  0  0  0
   -6.9284   -2.6464    2.1941 H   0  0  0  0  0  0  0  0  0  0  0  0
   -5.1370   -4.3546    0.4185 H   0  0  0  0  0  0  0  0  0  0  0  0
   -5.4191   -4.4068    2.1668 H   0  0  0  0  0  0  0  0  0  0  0  0
   -3.7408   -4.2048    1.6120 H   0  0  0  0  0  0  0  0  0  0  0  0
   -1.2516    0.6047   -0.6701 H   0  0  0  0  0  0  0  0  0  0  0  0
   -1.1965   -3.9440   -0.1680 H   0  0  0  0  0  0  0  0  0  0  0  0
    3.0266   -3.7073   -3.0122 H   0  0  0  0  0  0  0  0  0  0  0  0
    3.5674   -4.0875   -1.3460 H   0  0  0  0  0  0  0  0  0  0  0  0
    1.1243    0.6751   -3.1003 H   0  0  0  0  0  0  0  0  0  0  0  0
    2.8789    1.2613   -2.9998 H   0  0  0  0  0  0  0  0  0  0  0  0
    3.6482   -0.8135   -4.1860 H   0  0  0  0  0  0  0  0  0  0  0  0
    1.9381   -1.4886   -4.2460 H   0  0  0  0  0  0  0  0  0  0  0  0
    5.2211   -1.9374   -2.8913 H   0  0  0  0  0  0  0  0  0  0  0  0
    7.0981   -1.3406   -1.0939 H   0  0  0  0  0  0  0  0  0  0  0  0
    2.3804    0.8064    0.0159 H   0  0  0  0  0  0  0  0  0  0  0  0
    3.7600    2.6009   -0.2458 H   0  0  0  0  0  0  0  0  0  0  0  0
    5.1076    1.9170    0.7010 H   0  0  0  0  0  0  0  0  0  0  0  0
    2.4569    3.0618    1.7443 H   0  0  0  0  0  0  0  0  0  0  0  0
    4.2053    3.6185    1.9932 H   0  0  0  0  0  0  0  0  0  0  0  0
    4.6058    1.4418    3.1293 H   0  0  0  0  0  0  0  0  0  0  0  0
    3.2657    2.3150    3.9818 H   0  0  0  0  0  0  0  0  0  0  0  0
    2.6421   -0.0232    3.5914 H   0  0  0  0  0  0  0  0  0  0  0  0
    1.6471    0.9776    2.4408 H   0  0  0  0  0  0  0  0  0  0  0  0
   -5.3826    1.8450    0.9395 H   0  0  0  0  0  0  0  0  0  0  0  0
   -5.0734    4.3858    1.5145 H   0  0  0  0  0  0  0  0  0  0  0  0
   -5.8950    4.0574   -0.0310 H   0  0  0  0  0  0  0  0  0  0  0  0
   -1.9910    4.9496   -0.4021 H   0  0  0  0  0  0  0  0  0  0  0  0
   -2.4840    4.3161    1.1961 H   0  0  0  0  0  0  0  0  0  0  0  0
   -1.4428    2.4903   -0.0517 H   0  0  0  0  0  0  0  0  0  0  0  0
   -2.5005    2.8564   -1.4928 H   0  0  0  0  0  0  0  0  0  0  0  0
  1  2  1  0
  2  3  1  0
  2  4  1  0
  4  5  2  0
  5  6  1  0
  6  7  2  0
  7  8  1  0
  8  9  2  0
  8 10  1  0
 10 11  2  0
 11 12  1  0
 12 13  2  0
 13 14  1  0
 13 15  1  0
 15 16  2  0
 15 17  1  0
 17 18  1  0
 18 19  1  0
 17 20  1  0
 20 21  2  0
 21 22  1  0
 22 23  2  0
 23 24  1  0
 24 25  1  0
 25 26  1  0
 26 27  1  0
 27 28  1  0
 28 29  1  0
 29 30  1  0
  6 31  1  0
 31 32  2  0
 32 33  1  0
 33 34  1  0
 34 35  1  0
 35 36  1  0
  9  4  1  0
 16 10  1  0
 19 17  1  0
 24 20  1  0
 30 25  1  0
 36 31  1  0
  1 37  1  0
  1 38  1  0
  1 39  1  0
  3 40  1  0
  3 41  1  0
  3 42  1  0
  7 43  1  0
 11 44  1  0
 14 45  1  0
 14 46  1  0
 18 47  1  0
 18 48  1  0
 19 49  1  0
 19 50  1  0
 21 51  1  0
 22 52  1  0
 25 53  1  0
 26 54  1  0
 26 55  1  0
 27 56  1  0
 27 57  1  0
 28 58  1  0
 28 59  1  0
 29 60  1  0
 29 61  1  0
 32 62  1  0
 33 63  1  0
 33 64  1  0
 35 65  1  0
 35 66  1  0
 36 67  1  0
 36 68  1  0
M  END
$$$$
[H]OC(=O)c1c([H])c(C([H])([H])[H])c2c(c(C(=O)OC([H])([H])c3c([H])c([H])c([H])c([H])c3N([H])[H])nn2[H])c1[H]
     RDKit          3D

 39 41  0  0  0  0  0  0  0  0999 V2000
   -5.2135   -2.3713    0.6138 C   0  0  0  0  0  0  0  0  0  0  0  0
   -4.1197   -1.4005    0.3335 C   0  0  0  0  0  0  0  0  0  0  0  0
   -4.3983   -0.3382   -0.4673 C   0  0  0  0  0  0  0  0  0  0  0  0
   -3.3882    0.5577   -0.7257 C   0  0  0  0  0  0  0  0  0  0  0  0
   -2.1280    0.3998   -0.1984 C   0  0  0  0  0  0  0  0  0  0  0  0
   -1.8336   -0.6741    0.6155 C   0  0  0  0  0  0  0  0  0  0  0  0
   -0.7056   -1.0966    1.2748 C   0  0  0  0  0  0  0  0  0  0  0  0
   -1.0546   -2.2282    1.9114 N   0  0  0  0  0  0  0  0  0  0  0  0
   -2.3218   -2.5101    1.6747 N   0  0  0  0  0  0  0  0  0  0  0  0
   -2.8731   -1.5788    0.8697 C   0  0  0  0  0  0  0  0  0  0  0  0
    0.5932   -0.4609    1.2868 C   0  0  0  0  0  0  0  0  0  0  0  0
    1.5726   -0.9518    1.9415 O   0  0  0  0  0  0  0  0  0  0  0  0
    0.8527    0.7035    0.5991 O   0  0  0  0  0  0  0  0  0  0  0  0
    2.0612    1.3603    0.5485 C   0  0  0  0  0  0  0  0  0  0  0  0
    3.1962    0.7055   -0.0707 C   0  0  0  0  0  0  0  0  0  0  0  0
    3.1311   -0.4933   -0.6901 C   0  0  0  0  0  0  0  0  0  0  0  0
    4.2321   -1.0869   -1.3071 C   0  0  0  0  0  0  0  0  0  0  0  0
    5.4415   -0.4473   -1.2993 C   0  0  0  0  0  0  0  0  0  0  0  0
    5.5344    0.7768   -0.6751 C   0  0  0  0  0  0  0  0  0  0  0  0
    4.4256    1.3541   -0.0642 C   0  0  0  0  0  0  0  0  0  0  0  0
    4.5396    2.6181    0.5756 N   0  0  0  0  0  0  0  0  0  0  0  0
   -3.6744    1.7090   -1.5884 C   0  0  0  0  0  0  0  0  0  0  0  0
   -2.6664    2.6223   -1.8593 O   0  0  0  0  0  0  0  0  0  0  0  0
   -4.8155    1.8790   -2.0835 O   0  0  0  0  0  0  0  0  0  0  0  0
   -5.6707   -2.6717   -0.3332 H   0  0  0  0  0  0  0  0  0  0  0  0
   -4.8780   -3.2153    1.2496 H   0  0  0  0  0  0  0  0  0  0  0  0
   -5.9949   -1.8262    1.2040 H   0  0  0  0  0  0  0  0  0  0  0  0
   -5.3724   -0.1520   -0.9177 H   0  0  0  0  0  0  0  0  0  0  0  0
   -1.3267    1.1185   -0.4086 H   0  0  0  0  0  0  0  0  0  0  0  0
   -2.8593   -3.3250    2.0374 H   0  0  0  0  0  0  0  0  0  0  0  0
    2.2858    1.6721    1.6234 H   0  0  0  0  0  0  0  0  0  0  0  0
    1.8450    2.3744    0.0722 H   0  0  0  0  0  0  0  0  0  0  0  0
    2.2175   -1.0428   -0.7554 H   0  0  0  0  0  0  0  0  0  0  0  0
    4.1660   -2.0459   -1.7978 H   0  0  0  0  0  0  0  0  0  0  0  0
    6.3359   -0.8795   -1.7739 H   0  0  0  0  0  0  0  0  0  0  0  0
    6.4942    1.2703   -0.6769 H   0  0  0  0  0  0  0  0  0  0  0  0
    4.1874    2.7881    1.5461 H   0  0  0  0  0  0  0  0  0  0  0  0
    5.0046    3.3878    0.0135 H   0  0  0  0  0  0  0  0  0  0  0  0
   -2.8218    3.4993   -2.3243 H   0  0  0  0  0  0  0  0  0  0  0  0
  1  2  1  0
  2  3  2  0
  3  4  1  0
  4  5  2  0
  5  6  1  0
  6  7  1  0
  7  8  2  0
  8  9  1  0
  9 10  1  0
  7 11  1  0
 11 12  2  0
 11 13  1  0
 13 14  1  0
 14 15  1  0
 15 16  2  0
 16 17  1  0
 17 18  2  0
 18 19  1  0
 19 20  2  0
 20 21  1  0
  4 22  1  0
 22 23  1  0
 22 24  2  0
 10  2  1  0
 20 15  1  0
 10  6  2  0
  1 25  1  0
  1 26  1  0
  1 27  1  0
  3 28  1  0
  5 29  1  0
  9 30  1  0
 14 31  1  0
 14 32  1  0
 16 33  1  0
 17 34  1  0
 18 35  1  0
 19 36  1  0
 21 37  1  0
 21 38  1  0
 23 39  1  0
M  END
$$$$
[H]O[C@@]([H])(C(F)(F)F)C([H])([H])OC(=O)N([H])c1c([H])c([H])c(F)c(C(=O)N([H])[C@]([H])(c2c([H])c([H])c([H])c([H])c2[H])C([H])([H])[H])c1[H]
     RDKit          3D

 47 48  0  0  0  0  0  0  0  0999 V2000
   -5.0162   -2.1199   -0.0268 C   0  0  0  0  0  0  0  0  0  0  0  0
   -4.2674   -0.8199    0.1182 C   0  0  2  0  0  0  0  0  0  0  0  0
   -2.9530   -0.9938    0.7237 N   0  0  0  0  0  0  0  0  0  0  0  0
   -1.7614   -0.6893    0.0581 C   0  0  0  0  0  0  0  0  0  0  0  0
   -1.8757   -0.2292   -1.1446 O   0  0  0  0  0  0  0  0  0  0  0  0
   -0.4040   -0.8254    0.5564 C   0  0  0  0  0  0  0  0  0  0  0  0
    0.5729   -0.1102   -0.1054 C   0  0  0  0  0  0  0  0  0  0  0  0
    1.9049   -0.1159    0.2688 C   0  0  0  0  0  0  0  0  0  0  0  0
    2.8166    0.6722   -0.4793 N   0  0  0  0  0  0  0  0  0  0  0  0
    4.2160    0.6365   -0.4610 C   0  0  0  0  0  0  0  0  0  0  0  0
    4.8800   -0.1648    0.2758 O   0  0  0  0  0  0  0  0  0  0  0  0
    4.9470    1.4804   -1.2525 O   0  0  0  0  0  0  0  0  0  0  0  0
    6.2968    1.6213   -1.4148 C   0  0  0  0  0  0  0  0  0  0  0  0
    7.0749    0.4927   -1.9986 C   0  0  1  0  0  0  0  0  0  0  0  0
    7.0568   -0.6841   -1.2959 O   0  0  0  0  0  0  0  0  0  0  0  0
    6.5816    0.2083   -3.4185 C   0  0  0  0  0  0  0  0  0  0  0  0
    6.7656    1.3597   -4.1800 F   0  0  0  0  0  0  0  0  0  0  0  0
    5.2581   -0.1520   -3.3590 F   0  0  0  0  0  0  0  0  0  0  0  0
    7.3748   -0.7843   -3.9268 F   0  0  0  0  0  0  0  0  0  0  0  0
    2.2707   -0.8631    1.3428 C   0  0  0  0  0  0  0  0  0  0  0  0
    1.2869   -1.5900    2.0169 C   0  0  0  0  0  0  0  0  0  0  0  0
   -0.0281   -1.5789    1.6394 C   0  0  0  0  0  0  0  0  0  0  0  0
   -0.9659   -2.3037    2.2928 F   0  0  0  0  0  0  0  0  0  0  0  0
   -5.0683    0.1940    0.8385 C   0  0  0  0  0  0  0  0  0  0  0  0
   -5.0983    0.1773    2.2191 C   0  0  0  0  0  0  0  0  0  0  0  0
   -5.8353    1.1068    2.9411 C   0  0  0  0  0  0  0  0  0  0  0  0
   -6.5328    2.0435    2.2055 C   0  0  0  0  0  0  0  0  0  0  0  0
   -6.5164    2.0772    0.8401 C   0  0  0  0  0  0  0  0  0  0  0  0
   -5.7931    1.1649    0.1369 C   0  0  0  0  0  0  0  0  0  0  0  0
   -5.8401   -1.9183   -0.7731 H   0  0  0  0  0  0  0  0  0  0  0  0
   -4.3885   -2.9050   -0.4932 H   0  0  0  0  0  0  0  0  0  0  0  0
   -5.5075   -2.4661    0.8791 H   0  0  0  0  0  0  0  0  0  0  0  0
   -4.0937   -0.4251   -0.9039 H   0  0  0  0  0  0  0  0  0  0  0  0
   -2.9694   -1.3486    1.6866 H   0  0  0  0  0  0  0  0  0  0  0  0
    0.3102    0.4942   -0.9630 H   0  0  0  0  0  0  0  0  0  0  0  0
    2.3965    1.4024   -1.1515 H   0  0  0  0  0  0  0  0  0  0  0  0
    6.4699    2.5264   -2.0804 H   0  0  0  0  0  0  0  0  0  0  0  0
    6.7579    1.9510   -0.4408 H   0  0  0  0  0  0  0  0  0  0  0  0
    8.1231    0.8557   -2.1401 H   0  0  0  0  0  0  0  0  0  0  0  0
    6.9512   -1.4626   -1.8912 H   0  0  0  0  0  0  0  0  0  0  0  0
    3.2824   -0.9152    1.7056 H   0  0  0  0  0  0  0  0  0  0  0  0
    1.5905   -2.1906    2.8825 H   0  0  0  0  0  0  0  0  0  0  0  0
   -4.5298   -0.5831    2.7537 H   0  0  0  0  0  0  0  0  0  0  0  0
   -5.8349    1.0635    4.0039 H   0  0  0  0  0  0  0  0  0  0  0  0
   -7.1157    2.7793    2.7624 H   0  0  0  0  0  0  0  0  0  0  0  0
   -7.0734    2.8238    0.2811 H   0  0  0  0  0  0  0  0  0  0  0  0
   -5.7165    1.1083   -0.9374 H   0  0  0  0  0  0  0  0  0  0  0  0
  1  2  1  0
  2  3  1  0
  3  4  1  0
  4  5  2  0
  4  6  1  0
  6  7  2  0
  7  8  1  0
  8  9  1  0
  9 10  1  0
 10 11  2  0
 10 12  1  0
 12 13  1  0
 13 14  1  0
 14 15  1  0
 14 16  1  0
 16 17  1  0
 16 18  1  0
 16 19  1  0
  8 20  2  0
 20 21  1  0
 21 22  2  0
 22 23  1  0
  2 24  1  0
 24 25  2  0
 25 26  1  0
 26 27  2  0
 27 28  1  0
 28 29  2  0
 22  6  1  0
 29 24  1  0
  1 30  1  0
  1 31  1  0
  1 32  1  0
  2 33  1  6
  3 34  1  0
  7 35  1  0
  9 36  1  0
 13 37  1  0
 13 38  1  0
 14 39  1  6
 15 40  1  0
 20 41  1  0
 21 42  1  0
 25 43  1  0
 26 44  1  0
 27 45  1  0
 28 46  1  0
 29 47  1  0
M  END
$$$$
[H]c1nc2c(-c3c([H])c([H])c(OC([H])([H])C([H])([H])Oc4c([H])c([H])c([H])c(C(F)(F)F)c4[H])c([H])c3[H])c([H])nn2c(N([H])[H])c1-c1c([H])c([H])c([H])c(N([H])C(=O)c2c([H])c([H])c(C([H])([H])N(C([H])([H])[H])C([H])([H])[H])c([H])c2[H])c1C([H])([H])[H]
     RDKit          3D

 85 90  0  0  0  0  0  0  0  0999 V2000
  -12.6209   -0.5407   -0.1446 C   0  0  0  0  0  0  0  0  0  0  0  0
  -12.3227   -0.5074   -1.5595 N   0  0  0  0  0  0  0  0  0  0  0  0
  -11.3934   -1.6085   -1.8223 C   0  0  0  0  0  0  0  0  0  0  0  0
  -11.7513    0.7560   -1.9988 C   0  0  0  0  0  0  0  0  0  0  0  0
  -10.4314    0.9564   -1.3579 C   0  0  0  0  0  0  0  0  0  0  0  0
   -9.2640    0.5623   -1.9671 C   0  0  0  0  0  0  0  0  0  0  0  0
   -8.0817    0.6576   -1.2737 C   0  0  0  0  0  0  0  0  0  0  0  0
   -8.0613    1.1439    0.0053 C   0  0  0  0  0  0  0  0  0  0  0  0
   -9.2379    1.5581    0.6245 C   0  0  0  0  0  0  0  0  0  0  0  0
  -10.4324    1.4520   -0.0871 C   0  0  0  0  0  0  0  0  0  0  0  0
   -6.8235    1.0216    0.8428 C   0  0  0  0  0  0  0  0  0  0  0  0
   -6.9240    1.7146    1.9191 O   0  0  0  0  0  0  0  0  0  0  0  0
   -5.8362    0.2483    0.4227 N   0  0  0  0  0  0  0  0  0  0  0  0
   -4.8010   -0.5581   -0.0072 C   0  0  0  0  0  0  0  0  0  0  0  0
   -5.1405   -1.8972   -0.2595 C   0  0  0  0  0  0  0  0  0  0  0  0
   -4.2197   -2.7792   -0.7368 C   0  0  0  0  0  0  0  0  0  0  0  0
   -2.9095   -2.3591   -0.9812 C   0  0  0  0  0  0  0  0  0  0  0  0
   -2.5647   -1.0619   -0.7335 C   0  0  0  0  0  0  0  0  0  0  0  0
   -3.5125   -0.1796   -0.2596 C   0  0  0  0  0  0  0  0  0  0  0  0
   -3.1267    1.2097   -0.0328 C   0  0  0  0  0  0  0  0  0  0  0  0
   -1.1580   -0.7335   -0.5581 C   0  0  0  0  0  0  0  0  0  0  0  0
   -0.1875   -0.2401   -1.2957 C   0  0  0  0  0  0  0  0  0  0  0  0
    1.0843   -0.0384   -0.8134 N   0  0  0  0  0  0  0  0  0  0  0  0
    1.3904   -0.3430    0.4684 C   0  0  0  0  0  0  0  0  0  0  0  0
    2.5329   -0.2522    1.2182 C   0  0  0  0  0  0  0  0  0  0  0  0
    2.1791   -0.7289    2.4847 C   0  0  0  0  0  0  0  0  0  0  0  0
    0.9024   -1.0882    2.5006 N   0  0  0  0  0  0  0  0  0  0  0  0
    0.4265   -0.8488    1.2628 N   0  0  0  0  0  0  0  0  0  0  0  0
   -0.7977   -1.0458    0.7936 C   0  0  0  0  0  0  0  0  0  0  0  0
   -1.7956   -1.5923    1.6652 N   0  0  0  0  0  0  0  0  0  0  0  0
    3.8708    0.1901    0.8898 C   0  0  0  0  0  0  0  0  0  0  0  0
    4.8624    0.0115    1.8593 C   0  0  0  0  0  0  0  0  0  0  0  0
    6.1619    0.3573    1.6927 C   0  0  0  0  0  0  0  0  0  0  0  0
    6.5898    0.9205    0.5170 C   0  0  0  0  0  0  0  0  0  0  0  0
    7.9441    1.2761    0.3652 O   0  0  0  0  0  0  0  0  0  0  0  0
    8.8267    0.9557    1.4493 C   0  0  0  0  0  0  0  0  0  0  0  0
    9.1235   -0.5124    1.5782 C   0  0  0  0  0  0  0  0  0  0  0  0
    9.8439   -0.9994    0.4285 O   0  0  0  0  0  0  0  0  0  0  0  0
   11.1966   -0.6830    0.2362 C   0  0  0  0  0  0  0  0  0  0  0  0
   11.8895    0.0273    1.1907 C   0  0  0  0  0  0  0  0  0  0  0  0
   13.2204    0.3250    0.9643 C   0  0  0  0  0  0  0  0  0  0  0  0
   13.8277   -0.1084   -0.2283 C   0  0  0  0  0  0  0  0  0  0  0  0
   13.1042   -0.8192   -1.1669 C   0  0  0  0  0  0  0  0  0  0  0  0
   11.7973   -1.0881   -0.9077 C   0  0  0  0  0  0  0  0  0  0  0  0
   13.7734   -1.2569   -2.3919 C   0  0  0  0  0  0  0  0  0  0  0  0
   12.9996   -1.1652   -3.5109 F   0  0  0  0  0  0  0  0  0  0  0  0
   14.8831   -0.4685   -2.5883 F   0  0  0  0  0  0  0  0  0  0  0  0
   14.1715   -2.5999   -2.2987 F   0  0  0  0  0  0  0  0  0  0  0  0
    5.6399    1.1108   -0.4662 C   0  0  0  0  0  0  0  0  0  0  0  0
    4.3098    0.7505   -0.2758 C   0  0  0  0  0  0  0  0  0  0  0  0
  -13.1902    0.3407    0.2226 H   0  0  0  0  0  0  0  0  0  0  0  0
  -13.3222   -1.4087    0.0161 H   0  0  0  0  0  0  0  0  0  0  0  0
  -11.7676   -0.7514    0.4890 H   0  0  0  0  0  0  0  0  0  0  0  0
  -10.9353   -1.4912   -2.8009 H   0  0  0  0  0  0  0  0  0  0  0  0
  -10.5545   -1.5950   -1.0564 H   0  0  0  0  0  0  0  0  0  0  0  0
  -11.9443   -2.5670   -1.6636 H   0  0  0  0  0  0  0  0  0  0  0  0
  -11.6609    0.7235   -3.0828 H   0  0  0  0  0  0  0  0  0  0  0  0
  -12.4211    1.5599   -1.6242 H   0  0  0  0  0  0  0  0  0  0  0  0
   -9.2276    0.1834   -2.9775 H   0  0  0  0  0  0  0  0  0  0  0  0
   -7.1642    0.3497   -1.7732 H   0  0  0  0  0  0  0  0  0  0  0  0
   -9.1962    1.9282    1.6203 H   0  0  0  0  0  0  0  0  0  0  0  0
  -11.3029    1.7827    0.4429 H   0  0  0  0  0  0  0  0  0  0  0  0
   -5.2399    0.3067    1.6481 H   0  0  0  0  0  0  0  0  0  0  0  0
   -6.1451   -2.2421   -0.0721 H   0  0  0  0  0  0  0  0  0  0  0  0
   -4.4895   -3.8140   -0.9422 H   0  0  0  0  0  0  0  0  0  0  0  0
   -2.2047   -3.0927   -1.3695 H   0  0  0  0  0  0  0  0  0  0  0  0
   -3.1000    1.4858    1.0262 H   0  0  0  0  0  0  0  0  0  0  0  0
   -2.1200    1.4455   -0.4695 H   0  0  0  0  0  0  0  0  0  0  0  0
   -3.8588    1.8559   -0.5552 H   0  0  0  0  0  0  0  0  0  0  0  0
   -0.3944    0.0198   -2.3591 H   0  0  0  0  0  0  0  0  0  0  0  0
    2.8108   -0.8222    3.3582 H   0  0  0  0  0  0  0  0  0  0  0  0
   -2.3679   -0.9105    2.1783 H   0  0  0  0  0  0  0  0  0  0  0  0
   -1.9260   -2.6120    1.7677 H   0  0  0  0  0  0  0  0  0  0  0  0
    4.5752   -0.4268    2.8108 H   0  0  0  0  0  0  0  0  0  0  0  0
    6.8386    0.2027    2.5684 H   0  0  0  0  0  0  0  0  0  0  0  0
    9.7810    1.4998    1.2154 H   0  0  0  0  0  0  0  0  0  0  0  0
    8.4405    1.3920    2.3921 H   0  0  0  0  0  0  0  0  0  0  0  0
    9.7729   -0.6876    2.4588 H   0  0  0  0  0  0  0  0  0  0  0  0
    8.2518   -1.1886    1.6198 H   0  0  0  0  0  0  0  0  0  0  0  0
   11.4678    0.3472    2.1068 H   0  0  0  0  0  0  0  0  0  0  0  0
   13.8085    0.8844    1.6924 H   0  0  0  0  0  0  0  0  0  0  0  0
   14.8531    0.1013   -0.4256 H   0  0  0  0  0  0  0  0  0  0  0  0
   11.2220   -1.6615   -1.6520 H   0  0  0  0  0  0  0  0  0  0  0  0
    5.9628    1.5548   -1.4009 H   0  0  0  0  0  0  0  0  0  0  0  0
    3.5907    0.9227   -1.0645 H   0  0  0  0  0  0  0  0  0  0  0  0
  1  2  1  0
  2  3  1  0
  2  4  1  0
  4  5  1  0
  5  6  2  0
  6  7  1  0
  7  8  2  0
  8  9  1  0
  9 10  2  0
  8 11  1  0
 11 12  2  0
 11 13  1  0
 13 14  1  0
 14 15  2  0
 15 16  1  0
 16 17  2  0
 17 18  1  0
 18 19  2  0
 19 20  1  0
 18 21  1  0
 21 22  1  0
 22 23  2  0
 23 24  1  0
 24 25  2  0
 25 26  1  0
 26 27  2  0
 27 28  1  0
 28 29  1  0
 29 30  1  0
 25 31  1  0
 31 32  2  0
 32 33  1  0
 33 34  2  0
 34 35  1  0
 35 36  1  0
 36 37  1  0
 37 38  1  0
 38 39  1  0
 39 40  2  0
 40 41  1  0
 41 42  2  0
 42 43  1  0
 43 44  2  0
 43 45  1  0
 45 46  1  0
 45 47  1  0
 45 48  1  0
 34 49  1  0
 49 50  2  0
 10  5  1  0
 19 14  1  0
 29 21  2  0
 50 31  1  0
 28 24  1  0
 44 39  1  0
  1 51  1  0
  1 52  1  0
  1 53  1  0
  3 54  1  0
  3 55  1  0
  3 56  1  0
  4 57  1  0
  4 58  1  0
  6 59  1  0
  7 60  1  0
  9 61  1  0
 10 62  1  0
 13 63  1  0
 15 64  1  0
 16 65  1  0
 17 66  1  0
 20 67  1  0
 20 68  1  0
 20 69  1  0
 22 70  1  0
 26 71  1  0
 30 72  1  0
 30 73  1  0
 32 74  1  0
 33 75  1  0
 36 76  1  0
 36 77  1  0
 37 78  1  0
 37 79  1  0
 40 80  1  0
 41 81  1  0
 42 82  1  0
 44 83  1  0
 49 84  1  0
 50 85  1  0
M  END
$$$$
[H]OC([H])([H])[C@@]1(O[H])C([H])([H])[C@@]2([H])O[C@]1(N([H])C([H])([H])[H])n1c3c([H])c([H])c([H])c([H])c3c3c4c(c5c6c([H])c([H])c([H])c([H])c6n2c5c31)C(=O)N([H])C4([H])[H]
     RDKit          3D

 56 63  0  0  0  0  0  0  0  0999 V2000
   -2.7877   -3.5401   -0.2673 C   0  0  0  0  0  0  0  0  0  0  0  0
   -1.8661   -2.7053    0.2809 N   0  0  0  0  0  0  0  0  0  0  0  0
   -1.6609   -1.3143    0.0658 C   0  0  2  0  0  0  0  0  0  0  0  0
   -1.1052   -1.1290    1.4411 O   0  0  0  0  0  0  0  0  0  0  0  0
   -1.2830    0.1221    1.8498 C   0  0  2  0  0  0  0  0  0  0  0  0
   -2.1631    0.8323    0.8162 C   0  0  0  0  0  0  0  0  0  0  0  0
   -2.7933   -0.4159    0.2371 C   0  0  1  0  0  0  0  0  0  0  0  0
   -3.4448   -0.0011   -0.9118 O   0  0  0  0  0  0  0  0  0  0  0  0
   -3.8194   -0.8606    1.2101 C   0  0  0  0  0  0  0  0  0  0  0  0
   -3.3572   -1.3231    2.4248 O   0  0  0  0  0  0  0  0  0  0  0  0
    0.0276    0.7832    1.7090 N   0  0  0  0  0  0  0  0  0  0  0  0
    0.6177    1.6293    2.5528 C   0  0  0  0  0  0  0  0  0  0  0  0
    0.2270    2.0997    3.7941 C   0  0  0  0  0  0  0  0  0  0  0  0
    0.9885    2.9827    4.5163 C   0  0  0  0  0  0  0  0  0  0  0  0
    2.1906    3.3882    3.9310 C   0  0  0  0  0  0  0  0  0  0  0  0
    2.6020    2.9289    2.6870 C   0  0  0  0  0  0  0  0  0  0  0  0
    1.8239    2.0507    1.9909 C   0  0  0  0  0  0  0  0  0  0  0  0
    1.9229    1.4170    0.7765 C   0  0  0  0  0  0  0  0  0  0  0  0
    2.8282    1.4376   -0.2606 C   0  0  0  0  0  0  0  0  0  0  0  0
    4.0833    2.1282   -0.4177 C   0  0  0  0  0  0  0  0  0  0  0  0
    4.7237    2.9038    0.3072 O   0  0  0  0  0  0  0  0  0  0  0  0
    4.5857    1.7531   -1.7191 N   0  0  0  0  0  0  0  0  0  0  0  0
    3.6679    0.8655   -2.3727 C   0  0  0  0  0  0  0  0  0  0  0  0
    2.5724    0.6777   -1.4061 C   0  0  0  0  0  0  0  0  0  0  0  0
    1.4311   -0.0953   -1.5161 C   0  0  0  0  0  0  0  0  0  0  0  0
    0.9107   -0.8986   -2.4942 C   0  0  0  0  0  0  0  0  0  0  0  0
    1.4460   -1.1546   -3.7388 C   0  0  0  0  0  0  0  0  0  0  0  0
    0.7204   -1.9699   -4.5903 C   0  0  0  0  0  0  0  0  0  0  0  0
   -0.4796   -2.4721   -4.1538 C   0  0  0  0  0  0  0  0  0  0  0  0
   -0.9835   -2.1915   -2.8968 C   0  0  0  0  0  0  0  0  0  0  0  0
   -0.2923   -1.3892   -2.0208 C   0  0  0  0  0  0  0  0  0  0  0  0
   -0.5561   -0.9296   -0.7580 N   0  0  0  0  0  0  0  0  0  0  0  0
    0.5450   -0.1231   -0.5047 C   0  0  0  0  0  0  0  0  0  0  0  0
    0.7896    0.6266    0.6214 C   0  0  0  0  0  0  0  0  0  0  0  0
   -3.5198   -2.9602   -0.9106 H   0  0  0  0  0  0  0  0  0  0  0  0
   -3.3568   -4.2154    0.4211 H   0  0  0  0  0  0  0  0  0  0  0  0
   -2.3194   -4.2574   -0.9775 H   0  0  0  0  0  0  0  0  0  0  0  0
   -0.9193   -3.1297    0.5125 H   0  0  0  0  0  0  0  0  0  0  0  0
   -1.6007    0.3097    2.8646 H   0  0  0  0  0  0  0  0  0  0  0  0
   -1.5829    1.3920    0.0843 H   0  0  0  0  0  0  0  0  0  0  0  0
   -2.9124    1.4392    1.3601 H   0  0  0  0  0  0  0  0  0  0  0  0
   -2.8492    0.4864   -1.5360 H   0  0  0  0  0  0  0  0  0  0  0  0
   -4.4526    0.0471    1.4549 H   0  0  0  0  0  0  0  0  0  0  0  0
   -4.5766   -1.5718    0.7633 H   0  0  0  0  0  0  0  0  0  0  0  0
   -3.7816   -0.8877    3.2093 H   0  0  0  0  0  0  0  0  0  0  0  0
   -0.6993    1.7522    4.1842 H   0  0  0  0  0  0  0  0  0  0  0  0
    0.6912    3.3595    5.4937 H   0  0  0  0  0  0  0  0  0  0  0  0
    2.7843    4.0847    4.5081 H   0  0  0  0  0  0  0  0  0  0  0  0
    3.5306    3.3093    2.3519 H   0  0  0  0  0  0  0  0  0  0  0  0
    5.5028    2.0928   -2.1204 H   0  0  0  0  0  0  0  0  0  0  0  0
    3.3165    1.3475   -3.3113 H   0  0  0  0  0  0  0  0  0  0  0  0
    4.1609   -0.1068   -2.5347 H   0  0  0  0  0  0  0  0  0  0  0  0
    2.3985   -0.7344   -4.0379 H   0  0  0  0  0  0  0  0  0  0  0  0
    1.0934   -2.2056   -5.5802 H   0  0  0  0  0  0  0  0  0  0  0  0
   -1.0883   -3.1186   -4.7883 H   0  0  0  0  0  0  0  0  0  0  0  0
   -1.9314   -2.5462   -2.5945 H   0  0  0  0  0  0  0  0  0  0  0  0
  1  2  1  0
  3  2  1  6
  3  4  1  0
  4  5  1  0
  5  6  1  0
  6  7  1  0
  7  8  1  6
  7  9  1  0
  9 10  1  0
  5 11  1  0
 11 12  1  0
 12 13  2  0
 13 14  1  0
 14 15  2  0
 15 16  1  0
 16 17  2  0
 17 18  1  0
 18 19  2  0
 19 20  1  0
 20 21  2  0
 20 22  1  0
 22 23  1  0
 23 24  1  0
 24 25  2  0
 25 26  1  0
 26 27  2  0
 27 28  1  0
 28 29  2  0
 29 30  1  0
 30 31  2  0
 31 32  1  0
 32 33  1  0
 33 34  2  0
  7  3  1  0
 34 11  1  0
 32  3  1  0
 17 12  1  0
 34 18  1  0
 24 19  1  0
 33 25  1  0
 31 26  1  0
  1 35  1  0
  1 36  1  0
  1 37  1  0
  2 38  1  0
  5 39  1  1
  6 40  1  0
  6 41  1  0
  8 42  1  0
  9 43  1  0
  9 44  1  0
 10 45  1  0
 13 46  1  0
 14 47  1  0
 15 48  1  0
 16 49  1  0
 22 50  1  0
 23 51  1  0
 23 52  1  0
 27 53  1  0
 28 54  1  0
 29 55  1  0
 30 56  1  0
M  END
$$$$
[H]c1nc(C(=O)OC([H])([H])[H])c([H])c([H])c1-c1c([H])c([H])c2c([H])nc(N([H])C(=O)C3([H])C([H])([H])C([H])([H])N([H])C([H])([H])C3([H])[H])c([H])c2c1[H]
     RDKit          3D

 51 54  0  0  0  0  0  0  0  0999 V2000
   10.4622    0.0073   -1.4915 C   0  0  0  0  0  0  0  0  0  0  0  0
    9.1876   -0.0817   -0.8846 O   0  0  0  0  0  0  0  0  0  0  0  0
    8.0362    0.4062   -1.4639 C   0  0  0  0  0  0  0  0  0  0  0  0
    8.1339    0.9556   -2.5876 O   0  0  0  0  0  0  0  0  0  0  0  0
    6.7162    0.3229   -0.8525 C   0  0  0  0  0  0  0  0  0  0  0  0
    6.5136   -0.2650    0.3818 C   0  0  0  0  0  0  0  0  0  0  0  0
    5.2729   -0.3555    0.9819 C   0  0  0  0  0  0  0  0  0  0  0  0
    4.1689    0.1595    0.3346 C   0  0  0  0  0  0  0  0  0  0  0  0
    4.3987    0.7409   -0.8960 C   0  0  0  0  0  0  0  0  0  0  0  0
    5.6244    0.8173   -1.4627 N   0  0  0  0  0  0  0  0  0  0  0  0
    2.8142    0.1191    0.8777 C   0  0  0  0  0  0  0  0  0  0  0  0
    2.6392    0.1874    2.2635 C   0  0  0  0  0  0  0  0  0  0  0  0
    1.4033    0.1533    2.8506 C   0  0  0  0  0  0  0  0  0  0  0  0
    0.2992    0.0479    2.0387 C   0  0  0  0  0  0  0  0  0  0  0  0
   -0.9500    0.0101    2.5857 C   0  0  0  0  0  0  0  0  0  0  0  0
   -2.0362   -0.0935    1.8002 N   0  0  0  0  0  0  0  0  0  0  0  0
   -1.9535   -0.1645    0.4547 C   0  0  0  0  0  0  0  0  0  0  0  0
   -3.1185   -0.2739   -0.3551 N   0  0  0  0  0  0  0  0  0  0  0  0
   -4.4169   -0.3088    0.2236 C   0  0  0  0  0  0  0  0  0  0  0  0
   -4.4952   -0.2375    1.4768 O   0  0  0  0  0  0  0  0  0  0  0  0
   -5.6412   -0.4248   -0.6038 C   0  0  0  0  0  0  0  0  0  0  0  0
   -6.8515   -0.4211    0.3057 C   0  0  0  0  0  0  0  0  0  0  0  0
   -8.1080   -0.5116   -0.4973 C   0  0  0  0  0  0  0  0  0  0  0  0
   -7.8614   -0.6386   -1.9199 N   0  0  0  0  0  0  0  0  0  0  0  0
   -7.0210    0.4153   -2.4319 C   0  0  0  0  0  0  0  0  0  0  0  0
   -5.8011    0.6745   -1.6019 C   0  0  0  0  0  0  0  0  0  0  0  0
   -0.6944   -0.1264   -0.0958 C   0  0  0  0  0  0  0  0  0  0  0  0
    0.4476   -0.0208    0.6699 C   0  0  0  0  0  0  0  0  0  0  0  0
    1.6974    0.0147    0.0938 C   0  0  0  0  0  0  0  0  0  0  0  0
   10.8059    1.0553   -1.5213 H   0  0  0  0  0  0  0  0  0  0  0  0
   10.3675   -0.4242   -2.5221 H   0  0  0  0  0  0  0  0  0  0  0  0
   11.1807   -0.6373   -0.9614 H   0  0  0  0  0  0  0  0  0  0  0  0
    7.4061   -0.6658    0.8749 H   0  0  0  0  0  0  0  0  0  0  0  0
    5.1415   -0.8208    1.9499 H   0  0  0  0  0  0  0  0  0  0  0  0
    3.5172    1.1528   -1.4133 H   0  0  0  0  0  0  0  0  0  0  0  0
    3.5194    0.2689    2.8685 H   0  0  0  0  0  0  0  0  0  0  0  0
    1.3313    0.2088    3.9097 H   0  0  0  0  0  0  0  0  0  0  0  0
   -1.0401    0.0656    3.6601 H   0  0  0  0  0  0  0  0  0  0  0  0
   -3.0487   -0.3322   -1.3921 H   0  0  0  0  0  0  0  0  0  0  0  0
   -5.5556   -1.3901   -1.1508 H   0  0  0  0  0  0  0  0  0  0  0  0
   -6.8230    0.5598    0.8490 H   0  0  0  0  0  0  0  0  0  0  0  0
   -6.7229   -1.1937    1.0654 H   0  0  0  0  0  0  0  0  0  0  0  0
   -8.6537   -1.4336   -0.1906 H   0  0  0  0  0  0  0  0  0  0  0  0
   -8.7604    0.3359   -0.2870 H   0  0  0  0  0  0  0  0  0  0  0  0
   -7.5445   -1.5959   -2.1834 H   0  0  0  0  0  0  0  0  0  0  0  0
   -7.6767    1.3281   -2.5277 H   0  0  0  0  0  0  0  0  0  0  0  0
   -6.7398    0.1507   -3.4661 H   0  0  0  0  0  0  0  0  0  0  0  0
   -5.9574    1.6309   -1.0281 H   0  0  0  0  0  0  0  0  0  0  0  0
   -4.8790    0.8459   -2.2082 H   0  0  0  0  0  0  0  0  0  0  0  0
   -0.5729   -0.1796   -1.1684 H   0  0  0  0  0  0  0  0  0  0  0  0
    1.8381   -0.0376   -0.9745 H   0  0  0  0  0  0  0  0  0  0  0  0
  1  2  1  0
  2  3  1  0
  3  4  2  0
  3  5  1  0
  5  6  2  0
  6  7  1  0
  7  8  2  0
  8  9  1  0
  9 10  2  0
  8 11  1  0
 11 12  2  0
 12 13  1  0
 13 14  2  0
 14 15  1  0
 15 16  2  0
 16 17  1  0
 17 18  1  0
 18 19  1  0
 19 20  2  0
 19 21  1  0
 21 22  1  0
 22 23  1  0
 23 24  1  0
 24 25  1  0
 25 26  1  0
 17 27  2  0
 27 28  1  0
 28 29  2  0
 10  5  1  0
 29 11  1  0
 28 14  1  0
 26 21  1  0
  1 30  1  0
  1 31  1  0
  1 32  1  0
  6 33  1  0
  7 34  1  0
  9 35  1  0
 12 36  1  0
 13 37  1  0
 15 38  1  0
 18 39  1  0
 21 40  1  0
 22 41  1  0
 22 42  1  0
 23 43  1  0
 23 44  1  0
 24 45  1  0
 25 46  1  0
 25 47  1  0
 26 48  1  0
 26 49  1  0
 27 50  1  0
 29 51  1  0
M  END
$$$$
[H]c1c([H])c(C(=O)N([H])c2nc3c([H])c([H])c([H])c([H])c3s2)c2c(c1[H])C([H])([H])C([H])([H])N(c1nc3c(s1)C([H])([H])N(C([H])([H])C1=C(c4c([H])c([H])c(Cl)c([H])c4[H])C([H])([H])C([H])([H])C(C([H])([H])[H])(C([H])([H])[H])C1([H])[H])C([H])([H])C3([H])[H])C2([H])[H]
     RDKit          3D

 85 92  0  0  0  0  0  0  0  0999 V2000
   -6.8309    3.2981    1.1088 C   0  0  0  0  0  0  0  0  0  0  0  0
   -6.6294    3.2615   -0.3719 C   0  0  0  0  0  0  0  0  0  0  0  0
   -6.9121    4.6145   -0.9778 C   0  0  0  0  0  0  0  0  0  0  0  0
   -7.6279    2.2783   -0.9561 C   0  0  0  0  0  0  0  0  0  0  0  0
   -6.9605    1.0642   -1.5109 C   0  0  0  0  0  0  0  0  0  0  0  0
   -5.8307    0.5923   -0.5720 C   0  0  0  0  0  0  0  0  0  0  0  0
   -4.9576    1.4624   -0.2008 C   0  0  0  0  0  0  0  0  0  0  0  0
   -3.8071    1.2738    0.6646 C   0  0  0  0  0  0  0  0  0  0  0  0
   -2.6045    1.7076   -0.0735 N   0  0  0  0  0  0  0  0  0  0  0  0
   -1.5467    1.9619    0.9023 C   0  0  0  0  0  0  0  0  0  0  0  0
   -0.2341    2.1057    0.1616 C   0  0  0  0  0  0  0  0  0  0  0  0
    0.1059    0.6375   -0.1438 C   0  0  0  0  0  0  0  0  0  0  0  0
    1.1709   -0.0445    0.1107 N   0  0  0  0  0  0  0  0  0  0  0  0
    1.2404   -1.3241   -0.2256 C   0  0  0  0  0  0  0  0  0  0  0  0
   -0.2860   -1.5847   -0.9450 S   0  0  0  0  0  0  0  0  0  0  0  0
   -0.9421    0.0086   -0.7653 C   0  0  0  0  0  0  0  0  0  0  0  0
   -2.1896    0.7529   -1.0707 C   0  0  0  0  0  0  0  0  0  0  0  0
    2.3050   -2.2412    0.0030 N   0  0  0  0  0  0  0  0  0  0  0  0
    2.0834   -3.2803    0.9855 C   0  0  0  0  0  0  0  0  0  0  0  0
    3.1236   -2.9616    2.0861 C   0  0  0  0  0  0  0  0  0  0  0  0
    4.4252   -3.2364    1.4334 C   0  0  0  0  0  0  0  0  0  0  0  0
    5.4000   -3.9075    2.1425 C   0  0  0  0  0  0  0  0  0  0  0  0
    6.6312   -4.2158    1.5476 C   0  0  0  0  0  0  0  0  0  0  0  0
    6.8578   -3.8376    0.2418 C   0  0  0  0  0  0  0  0  0  0  0  0
    5.8745   -3.1559   -0.4794 C   0  0  0  0  0  0  0  0  0  0  0  0
    6.2094   -2.7418   -1.8239 C   0  0  0  0  0  0  0  0  0  0  0  0
    5.8532   -3.5511   -2.7369 O   0  0  0  0  0  0  0  0  0  0  0  0
    6.8687   -1.5868   -2.2364 N   0  0  0  0  0  0  0  0  0  0  0  0
    7.4189   -0.6121   -1.3373 C   0  0  0  0  0  0  0  0  0  0  0  0
    8.0802    0.4939   -1.6360 N   0  0  0  0  0  0  0  0  0  0  0  0
    8.5427    1.2468   -0.6869 C   0  0  0  0  0  0  0  0  0  0  0  0
    9.2735    2.4365   -0.8442 C   0  0  0  0  0  0  0  0  0  0  0  0
    9.7283    3.1472    0.2061 C   0  0  0  0  0  0  0  0  0  0  0  0
    9.5119    2.7614    1.5179 C   0  0  0  0  0  0  0  0  0  0  0  0
    8.7972    1.6000    1.6968 C   0  0  0  0  0  0  0  0  0  0  0  0
    8.3236    0.8609    0.6058 C   0  0  0  0  0  0  0  0  0  0  0  0
    7.4477   -0.5875    0.3735 S   0  0  0  0  0  0  0  0  0  0  0  0
    4.6504   -2.8595    0.1330 C   0  0  0  0  0  0  0  0  0  0  0  0
    3.5644   -2.1619   -0.6367 C   0  0  0  0  0  0  0  0  0  0  0  0
   -5.2127    2.8720   -0.7476 C   0  0  0  0  0  0  0  0  0  0  0  0
   -5.8545   -0.7818   -0.1347 C   0  0  0  0  0  0  0  0  0  0  0  0
   -6.0944   -1.8032   -1.0791 C   0  0  0  0  0  0  0  0  0  0  0  0
   -6.1905   -3.1096   -0.7152 C   0  0  0  0  0  0  0  0  0  0  0  0
   -6.0568   -3.5183    0.6133 C   0  0  0  0  0  0  0  0  0  0  0  0
   -6.1941   -5.1923    1.0390 Cl  0  0  0  0  0  0  0  0  0  0  0  0
   -5.8239   -2.5372    1.5402 C   0  0  0  0  0  0  0  0  0  0  0  0
   -5.7280   -1.1887    1.1503 C   0  0  0  0  0  0  0  0  0  0  0  0
   -5.8881    3.3597    1.6900 H   0  0  0  0  0  0  0  0  0  0  0  0
   -7.3594    2.3865    1.5135 H   0  0  0  0  0  0  0  0  0  0  0  0
   -7.4333    4.1630    1.4181 H   0  0  0  0  0  0  0  0  0  0  0  0
   -7.9660    4.9152   -0.7698 H   0  0  0  0  0  0  0  0  0  0  0  0
   -6.7560    4.5163   -2.0849 H   0  0  0  0  0  0  0  0  0  0  0  0
   -6.1996    5.3735   -0.6081 H   0  0  0  0  0  0  0  0  0  0  0  0
   -8.3490    1.9408   -0.1814 H   0  0  0  0  0  0  0  0  0  0  0  0
   -8.2270    2.7383   -1.7739 H   0  0  0  0  0  0  0  0  0  0  0  0
   -7.6298    0.2268   -1.6678 H   0  0  0  0  0  0  0  0  0  0  0  0
   -6.4865    1.3312   -2.4794 H   0  0  0  0  0  0  0  0  0  0  0  0
   -3.6185    0.2665    1.0111 H   0  0  0  0  0  0  0  0  0  0  0  0
   -3.9441    1.9131    1.5612 H   0  0  0  0  0  0  0  0  0  0  0  0
   -1.4750    1.0657    1.5469 H   0  0  0  0  0  0  0  0  0  0  0  0
   -1.7965    2.8428    1.5005 H   0  0  0  0  0  0  0  0  0  0  0  0
   -0.4368    2.5764   -0.8182 H   0  0  0  0  0  0  0  0  0  0  0  0
    0.5618    2.5656    0.7351 H   0  0  0  0  0  0  0  0  0  0  0  0
   -2.0973    1.2704   -2.0754 H   0  0  0  0  0  0  0  0  0  0  0  0
   -3.0067   -0.0096   -1.1658 H   0  0  0  0  0  0  0  0  0  0  0  0
    1.0610   -3.3240    1.3829 H   0  0  0  0  0  0  0  0  0  0  0  0
    2.3712   -4.2509    0.4826 H   0  0  0  0  0  0  0  0  0  0  0  0
    2.9275   -3.6260    2.9533 H   0  0  0  0  0  0  0  0  0  0  0  0
    3.0227   -1.8901    2.2856 H   0  0  0  0  0  0  0  0  0  0  0  0
    5.2034   -4.1898    3.1570 H   0  0  0  0  0  0  0  0  0  0  0  0
    7.3913   -4.7402    2.1085 H   0  0  0  0  0  0  0  0  0  0  0  0
    7.8180   -4.0892   -0.1812 H   0  0  0  0  0  0  0  0  0  0  0  0
    7.0496   -1.3998   -3.2664 H   0  0  0  0  0  0  0  0  0  0  0  0
    9.5041    2.8247   -1.8491 H   0  0  0  0  0  0  0  0  0  0  0  0
   10.2995    4.0836    0.0202 H   0  0  0  0  0  0  0  0  0  0  0  0
    9.8729    3.3259    2.3488 H   0  0  0  0  0  0  0  0  0  0  0  0
    8.5579    1.1853    2.6627 H   0  0  0  0  0  0  0  0  0  0  0  0
    3.9262   -1.0921   -0.6953 H   0  0  0  0  0  0  0  0  0  0  0  0
    3.5423   -2.5665   -1.6918 H   0  0  0  0  0  0  0  0  0  0  0  0
   -4.5469    3.5349   -0.1741 H   0  0  0  0  0  0  0  0  0  0  0  0
   -5.0221    2.9321   -1.8140 H   0  0  0  0  0  0  0  0  0  0  0  0
   -6.1975   -1.4474   -2.1019 H   0  0  0  0  0  0  0  0  0  0  0  0
   -6.3799   -3.8557   -1.4512 H   0  0  0  0  0  0  0  0  0  0  0  0
   -5.7088   -2.8026    2.5943 H   0  0  0  0  0  0  0  0  0  0  0  0
   -5.5583   -0.4712    1.9641 H   0  0  0  0  0  0  0  0  0  0  0  0
  1  2  1  0
  2  3  1  0
  2  4  1  0
  4  5  1  0
  5  6  1  0
  6  7  2  0
  7  8  1  0
  8  9  1  0
  9 10  1  0
 10 11  1  0
 11 12  1  0
 12 13  1  0
 13 14  2  0
 14 15  1  0
 15 16  1  0
 16 17  1  0
 14 18  1  0
 18 19  1  0
 19 20  1  0
 20 21  1  0
 21 22  2  0
 22 23  1  0
 23 24  2  0
 24 25  1  0
 25 26  1  0
 26 27  2  0
 26 28  1  0
 28 29  1  0
 29 30  2  0
 30 31  1  0
 31 32  2  0
 32 33  1  0
 33 34  2  0
 34 35  1  0
 35 36  2  0
 36 37  1  0
 25 38  2  0
 38 39  1  0
  7 40  1  0
  6 41  1  0
 41 42  2  0
 42 43  1  0
 43 44  2  0
 44 45  1  0
 44 46  1  0
 46 47  2  0
 40  2  1  0
 47 41  1  0
 17  9  1  0
 39 18  1  0
 16 12  2  0
 38 21  1  0
 37 29  1  0
 36 31  1  0
  1 48  1  0
  1 49  1  0
  1 50  1  0
  3 51  1  0
  3 52  1  0
  3 53  1  0
  4 54  1  0
  4 55  1  0
  5 56  1  0
  5 57  1  0
  8 58  1  0
  8 59  1  0
 10 60  1  0
 10 61  1  0
 11 62  1  0
 11 63  1  0
 17 64  1  0
 17 65  1  0
 19 66  1  0
 19 67  1  0
 20 68  1  0
 20 69  1  0
 22 70  1  0
 23 71  1  0
 24 72  1  0
 28 73  1  0
 32 74  1  0
 33 75  1  0
 34 76  1  0
 35 77  1  0
 39 78  1  0
 39 79  1  0
 40 80  1  0
 40 81  1  0
 42 82  1  0
 43 83  1  0
 46 84  1  0
 47 85  1  0
M  END
$$$$
[H]c1nc(N([H])c2c([H])c(F)c([H])c(F)c2[H])nc(N([H])C([H])([H])[C@]2([H])C([H])([H])C([H])([H])[C@]([H])(N([H])[H])C([H])([H])C2([H])[H])c1F
     RDKit          3D

 45 47  0  0  0  0  0  0  0  0999 V2000
    6.2015   -0.0742   -1.2265 N   0  0  0  0  0  0  0  0  0  0  0  0
    5.6223    0.1884    0.0873 C   0  0  1  0  0  0  0  0  0  0  0  0
    4.5191    1.2062   -0.0348 C   0  0  0  0  0  0  0  0  0  0  0  0
    3.5063    1.1126    1.0825 C   0  0  0  0  0  0  0  0  0  0  0  0
    2.8370   -0.2262    1.1481 C   0  0  1  0  0  0  0  0  0  0  0  0
    1.3694   -0.1792    0.8712 C   0  0  0  0  0  0  0  0  0  0  0  0
    1.0349    0.3342   -0.4334 N   0  0  0  0  0  0  0  0  0  0  0  0
   -0.3477    0.4069   -0.7645 C   0  0  0  0  0  0  0  0  0  0  0  0
   -1.3174    0.0322    0.0546 N   0  0  0  0  0  0  0  0  0  0  0  0
   -2.6438    0.1130   -0.2904 C   0  0  0  0  0  0  0  0  0  0  0  0
   -3.6449   -0.3096    0.5921 N   0  0  0  0  0  0  0  0  0  0  0  0
   -5.0302   -0.3123    0.4704 C   0  0  0  0  0  0  0  0  0  0  0  0
   -5.7164    0.4304   -0.4411 C   0  0  0  0  0  0  0  0  0  0  0  0
   -7.1039    0.4082   -0.5777 C   0  0  0  0  0  0  0  0  0  0  0  0
   -7.7394    1.1677   -1.5032 F   0  0  0  0  0  0  0  0  0  0  0  0
   -7.8255   -0.4108    0.2567 C   0  0  0  0  0  0  0  0  0  0  0  0
   -7.1678   -1.1813    1.1973 C   0  0  0  0  0  0  0  0  0  0  0  0
   -7.9402   -1.9728    1.9952 F   0  0  0  0  0  0  0  0  0  0  0  0
   -5.8015   -1.1424    1.3121 C   0  0  0  0  0  0  0  0  0  0  0  0
   -2.9219    0.5894   -1.4977 N   0  0  0  0  0  0  0  0  0  0  0  0
   -2.0125    0.9942   -2.3978 C   0  0  0  0  0  0  0  0  0  0  0  0
   -0.6941    0.8993   -2.0188 C   0  0  0  0  0  0  0  0  0  0  0  0
    0.2654    1.2912   -2.8815 F   0  0  0  0  0  0  0  0  0  0  0  0
    3.5937   -1.1662    0.2409 C   0  0  0  0  0  0  0  0  0  0  0  0
    5.0567   -1.0612    0.6907 C   0  0  0  0  0  0  0  0  0  0  0  0
    5.4727   -0.4467   -1.8935 H   0  0  0  0  0  0  0  0  0  0  0  0
    6.9329   -0.7968   -1.1352 H   0  0  0  0  0  0  0  0  0  0  0  0
    6.4593    0.5488    0.7209 H   0  0  0  0  0  0  0  0  0  0  0  0
    5.0080    2.2120    0.0784 H   0  0  0  0  0  0  0  0  0  0  0  0
    4.0753    1.1129   -1.0378 H   0  0  0  0  0  0  0  0  0  0  0  0
    2.7888    1.9356    0.9427 H   0  0  0  0  0  0  0  0  0  0  0  0
    4.0777    1.3449    2.0289 H   0  0  0  0  0  0  0  0  0  0  0  0
    2.9665   -0.6108    2.1820 H   0  0  0  0  0  0  0  0  0  0  0  0
    0.9034    0.4766    1.6317 H   0  0  0  0  0  0  0  0  0  0  0  0
    0.9226   -1.1875    0.9722 H   0  0  0  0  0  0  0  0  0  0  0  0
    1.7230    0.6485   -1.1341 H   0  0  0  0  0  0  0  0  0  0  0  0
   -3.2824   -0.7009    1.5380 H   0  0  0  0  0  0  0  0  0  0  0  0
   -5.2210    1.1133   -1.1258 H   0  0  0  0  0  0  0  0  0  0  0  0
   -8.9132   -0.4582    0.1832 H   0  0  0  0  0  0  0  0  0  0  0  0
   -5.3090   -1.7524    2.0532 H   0  0  0  0  0  0  0  0  0  0  0  0
   -2.2555    1.3792   -3.3755 H   0  0  0  0  0  0  0  0  0  0  0  0
    3.5754   -0.8519   -0.8118 H   0  0  0  0  0  0  0  0  0  0  0  0
    3.2662   -2.2089    0.3743 H   0  0  0  0  0  0  0  0  0  0  0  0
    5.0887   -0.9240    1.8073 H   0  0  0  0  0  0  0  0  0  0  0  0
    5.6217   -1.9716    0.4762 H   0  0  0  0  0  0  0  0  0  0  0  0
  1  2  1  0
  2  3  1  0
  3  4  1  0
  4  5  1  0
  5  6  1  0
  6  7  1  0
  7  8  1  0
  8  9  2  0
  9 10  1  0
 10 11  1  0
 11 12  1  0
 12 13  2  0
 13 14  1  0
 14 15  1  0
 14 16  2  0
 16 17  1  0
 17 18  1  0
 17 19  2  0
 10 20  2  0
 20 21  1  0
 21 22  2  0
 22 23  1  0
  5 24  1  0
 24 25  1  0
 25  2  1  0
 22  8  1  0
 19 12  1  0
  1 26  1  0
  1 27  1  0
  2 28  1  1
  3 29  1  0
  3 30  1  0
  4 31  1  0
  4 32  1  0
  5 33  1  1
  6 34  1  0
  6 35  1  0
  7 36  1  0
 11 37  1  0
 13 38  1  0
 16 39  1  0
 19 40  1  0
 21 41  1  0
 24 42  1  0
 24 43  1  0
 25 44  1  0
 25 45  1  0
M  END
$$$$
[H]C([H])=C([H])C(=O)N([H])c1c([H])c(-n2nc([H])c(C(=O)N([H])c3nn([H])c4c([H])c(N(c5c([H])c([H])c([H])c(C#N)c5[H])C([H])([H])[H])c([H])c([H])c34)c2N([H])[H])c([H])c([H])c1F
     RDKit          3D

 62 66  0  0  0  0  0  0  0  0999 V2000
   -7.4839   -0.1367   -2.4888 C   0  0  0  0  0  0  0  0  0  0  0  0
   -6.6616    0.2724   -1.4115 N   0  0  0  0  0  0  0  0  0  0  0  0
   -7.1776    0.6797   -0.1529 C   0  0  0  0  0  0  0  0  0  0  0  0
   -6.3439    1.1814    0.7939 C   0  0  0  0  0  0  0  0  0  0  0  0
   -6.8492    1.5287    2.0160 C   0  0  0  0  0  0  0  0  0  0  0  0
   -8.1452    1.4111    2.3684 C   0  0  0  0  0  0  0  0  0  0  0  0
   -9.0812    0.8659    1.3630 C   0  0  0  0  0  0  0  0  0  0  0  0
   -8.4993    0.5475    0.1801 C   0  0  0  0  0  0  0  0  0  0  0  0
  -10.4339    0.7481    1.7435 C   0  0  0  0  0  0  0  0  0  0  0  0
  -11.5415    0.6651    2.0716 N   0  0  0  0  0  0  0  0  0  0  0  0
   -5.2411    0.2334   -1.5923 C   0  0  0  0  0  0  0  0  0  0  0  0
   -4.4939    1.2882   -2.0463 C   0  0  0  0  0  0  0  0  0  0  0  0
   -3.1120    1.1807   -2.1125 C   0  0  0  0  0  0  0  0  0  0  0  0
   -2.4443    0.0501   -1.7314 C   0  0  0  0  0  0  0  0  0  0  0  0
   -1.1215   -0.3634   -1.6028 C   0  0  0  0  0  0  0  0  0  0  0  0
    0.0148    0.4825   -1.9690 N   0  0  0  0  0  0  0  0  0  0  0  0
    1.2838    0.0729   -1.7356 C   0  0  0  0  0  0  0  0  0  0  0  0
    2.0489    1.1640   -2.3149 O   0  0  0  0  0  0  0  0  0  0  0  0
    2.1780   -0.8459   -1.1948 C   0  0  0  0  0  0  0  0  0  0  0  0
    2.0585   -2.1450   -0.8221 C   0  0  0  0  0  0  0  0  0  0  0  0
    3.2361   -2.5843   -0.3373 N   0  0  0  0  0  0  0  0  0  0  0  0
    4.1502   -1.6090   -0.3739 N   0  0  0  0  0  0  0  0  0  0  0  0
    3.5515   -0.5279   -0.8956 C   0  0  0  0  0  0  0  0  0  0  0  0
    4.1058    0.7302   -1.1399 N   0  0  0  0  0  0  0  0  0  0  0  0
    5.4137   -1.7365    0.2236 C   0  0  0  0  0  0  0  0  0  0  0  0
    5.8329   -2.9926    0.7432 C   0  0  0  0  0  0  0  0  0  0  0  0
    6.9041   -3.2039    1.4719 C   0  0  0  0  0  0  0  0  0  0  0  0
    7.7456   -2.1522    1.8034 C   0  0  0  0  0  0  0  0  0  0  0  0
    8.8534   -2.3751    2.5404 F   0  0  0  0  0  0  0  0  0  0  0  0
    7.4178   -0.9044    1.3443 C   0  0  0  0  0  0  0  0  0  0  0  0
    8.1087    0.2782    1.8320 N   0  0  0  0  0  0  0  0  0  0  0  0
    8.2955    1.4341    1.0254 C   0  0  0  0  0  0  0  0  0  0  0  0
    7.9084    1.3283   -0.1843 O   0  0  0  0  0  0  0  0  0  0  0  0
    8.8374    2.6189    1.4776 C   0  0  0  0  0  0  0  0  0  0  0  0
    9.2487    3.0699    2.6323 C   0  0  0  0  0  0  0  0  0  0  0  0
    6.2847   -0.7184    0.5732 C   0  0  0  0  0  0  0  0  0  0  0  0
   -1.1270   -1.5795   -1.1099 N   0  0  0  0  0  0  0  0  0  0  0  0
   -2.3508   -1.9948   -0.9082 N   0  0  0  0  0  0  0  0  0  0  0  0
   -3.1961   -1.0069   -1.2780 C   0  0  0  0  0  0  0  0  0  0  0  0
   -4.5663   -0.9071   -1.2178 C   0  0  0  0  0  0  0  0  0  0  0  0
   -7.2705   -1.2361   -2.6434 H   0  0  0  0  0  0  0  0  0  0  0  0
   -7.1596    0.3803   -3.4190 H   0  0  0  0  0  0  0  0  0  0  0  0
   -8.5510    0.0154   -2.4164 H   0  0  0  0  0  0  0  0  0  0  0  0
   -5.2610    1.3559    0.5983 H   0  0  0  0  0  0  0  0  0  0  0  0
   -6.1147    1.9237    2.7552 H   0  0  0  0  0  0  0  0  0  0  0  0
   -8.5891    1.6502    3.3118 H   0  0  0  0  0  0  0  0  0  0  0  0
   -9.2119    0.1281   -0.5866 H   0  0  0  0  0  0  0  0  0  0  0  0
   -5.0015    2.1780   -2.3236 H   0  0  0  0  0  0  0  0  0  0  0  0
   -2.5122    2.0091   -2.4658 H   0  0  0  0  0  0  0  0  0  0  0  0
   -0.2004    1.3873   -2.4510 H   0  0  0  0  0  0  0  0  0  0  0  0
    1.2043   -2.7946   -0.9163 H   0  0  0  0  0  0  0  0  0  0  0  0
    4.5305    0.9998   -2.0671 H   0  0  0  0  0  0  0  0  0  0  0  0
    4.1037    1.4480   -0.3775 H   0  0  0  0  0  0  0  0  0  0  0  0
    5.1654   -3.8260    0.4675 H   0  0  0  0  0  0  0  0  0  0  0  0
    7.2086   -4.1857    1.8720 H   0  0  0  0  0  0  0  0  0  0  0  0
    8.4434    0.2144    2.8116 H   0  0  0  0  0  0  0  0  0  0  0  0
    8.9763    3.4378    0.6685 H   0  0  0  0  0  0  0  0  0  0  0  0
    9.5305    3.3723    3.4346 H   0  0  0  0  0  0  0  0  0  0  0  0
    8.8725    1.9110    3.2860 H   0  0  0  0  0  0  0  0  0  0  0  0
    6.0340    0.2675    0.2320 H   0  0  0  0  0  0  0  0  0  0  0  0
   -2.6459   -2.9365   -0.5275 H   0  0  0  0  0  0  0  0  0  0  0  0
   -5.1595   -1.7473   -0.8799 H   0  0  0  0  0  0  0  0  0  0  0  0
  1  2  1  0
  2  3  1  0
  3  4  2  0
  4  5  1  0
  5  6  2  0
  6  7  1  0
  7  8  2  0
  7  9  1  0
  9 10  3  0
  2 11  1  0
 11 12  2  0
 12 13  1  0
 13 14  2  0
 14 15  1  0
 15 16  1  0
 16 17  1  0
 17 18  2  0
 17 19  1  0
 19 20  1  0
 20 21  2  0
 21 22  1  0
 22 23  1  0
 23 24  1  0
 22 25  1  0
 25 26  2  0
 26 27  1  0
 27 28  2  0
 28 29  1  0
 28 30  1  0
 30 31  1  0
 31 32  1  0
 32 33  2  0
 32 34  1  0
 34 35  2  3
 30 36  2  0
 15 37  2  0
 37 38  1  0
 38 39  1  0
 39 40  2  0
  8  3  1  0
 40 11  1  0
 39 14  1  0
 23 19  2  0
 36 25  1  0
  1 41  1  0
  1 42  1  0
  1 43  1  0
  4 44  1  0
  5 45  1  0
  6 46  1  0
  8 47  1  0
 12 48  1  0
 13 49  1  0
 16 50  1  0
 20 51  1  0
 24 52  1  0
 24 53  1  0
 26 54  1  0
 27 55  1  0
 31 56  1  0
 34 57  1  0
 35 58  1  0
 35 59  1  0
 36 60  1  0
 38 61  1  0
 40 62  1  0
M  END
$$$$
[H]c1nc(C([H])(N([H])C(=O)C([H])([H])C([H])([H])c2oc3c([H])c([H])c([H])c([H])c3c2[H])C([H])([H])C([H])([H])C([H])([H])C([H])([H])N2C([H])([H])C([H])([H])N(c3c([H])c([H])c(Cl)c(Cl)c3[H])C([H])([H])C2([H])[H])c([H])c([H])c1[H]
     RDKit          3D

 73 77  0  0  0  0  0  0  0  0999 V2000
   -7.4098    6.6135   -1.1415 Cl  0  0  0  0  0  0  0  0  0  0  0  0
   -6.6381    5.0621   -0.8894 C   0  0  0  0  0  0  0  0  0  0  0  0
   -5.4283    4.9686   -0.2396 C   0  0  0  0  0  0  0  0  0  0  0  0
   -4.8541    3.7310   -0.0599 C   0  0  0  0  0  0  0  0  0  0  0  0
   -5.4387    2.5477   -0.5065 C   0  0  0  0  0  0  0  0  0  0  0  0
   -6.6513    2.6902   -1.1523 C   0  0  0  0  0  0  0  0  0  0  0  0
   -7.2606    3.9231   -1.3516 C   0  0  0  0  0  0  0  0  0  0  0  0
   -8.8070    3.9840   -2.1887 Cl  0  0  0  0  0  0  0  0  0  0  0  0
   -4.8162    1.2830   -0.3055 N   0  0  0  0  0  0  0  0  0  0  0  0
   -3.5509    1.2624    0.3623 C   0  0  0  0  0  0  0  0  0  0  0  0
   -2.9350   -0.0888    0.5142 C   0  0  0  0  0  0  0  0  0  0  0  0
   -3.3948   -0.9608   -0.5251 N   0  0  0  0  0  0  0  0  0  0  0  0
   -2.7527   -2.2307   -0.6037 C   0  0  0  0  0  0  0  0  0  0  0  0
   -1.3061   -2.0852   -1.0525 C   0  0  0  0  0  0  0  0  0  0  0  0
   -0.6146   -3.3990   -1.1372 C   0  0  0  0  0  0  0  0  0  0  0  0
    0.7979   -3.2333   -1.5763 C   0  0  0  0  0  0  0  0  0  0  0  0
    1.6121   -2.3972   -0.6133 C   0  0  0  0  0  0  0  0  0  0  0  0
    2.9548   -2.2800   -1.1238 N   0  0  0  0  0  0  0  0  0  0  0  0
    3.4768   -1.0104   -1.4743 C   0  0  0  0  0  0  0  0  0  0  0  0
    2.6785   -0.0275   -1.3060 O   0  0  0  0  0  0  0  0  0  0  0  0
    4.8380   -0.8454   -1.9924 C   0  0  0  0  0  0  0  0  0  0  0  0
    5.2714    0.5441   -2.2806 C   0  0  0  0  0  0  0  0  0  0  0  0
    5.2676    1.3732   -1.0703 C   0  0  0  0  0  0  0  0  0  0  0  0
    6.3221    1.5254   -0.1524 C   0  0  0  0  0  0  0  0  0  0  0  0
    5.9178    2.3869    0.8351 C   0  0  0  0  0  0  0  0  0  0  0  0
    6.5079    2.9093    1.9839 C   0  0  0  0  0  0  0  0  0  0  0  0
    5.8267    3.7844    2.8072 C   0  0  0  0  0  0  0  0  0  0  0  0
    4.5389    4.1251    2.4537 C   0  0  0  0  0  0  0  0  0  0  0  0
    3.9381    3.6176    1.3198 C   0  0  0  0  0  0  0  0  0  0  0  0
    4.6249    2.7404    0.4962 C   0  0  0  0  0  0  0  0  0  0  0  0
    4.3178    2.1187   -0.6118 O   0  0  0  0  0  0  0  0  0  0  0  0
    1.6883   -3.1990    0.6537 C   0  0  0  0  0  0  0  0  0  0  0  0
    1.0444   -2.7865    1.7697 C   0  0  0  0  0  0  0  0  0  0  0  0
    1.1505   -3.5738    2.9113 C   0  0  0  0  0  0  0  0  0  0  0  0
    1.9079   -4.7315    2.8368 C   0  0  0  0  0  0  0  0  0  0  0  0
    2.5344   -5.0885    1.6682 C   0  0  0  0  0  0  0  0  0  0  0  0
    2.4289   -4.3260    0.5717 N   0  0  0  0  0  0  0  0  0  0  0  0
   -4.8252   -1.1677   -0.3214 C   0  0  0  0  0  0  0  0  0  0  0  0
   -5.5010    0.1047   -0.7864 C   0  0  0  0  0  0  0  0  0  0  0  0
   -4.9335    5.8538    0.1261 H   0  0  0  0  0  0  0  0  0  0  0  0
   -3.8879    3.6493    0.4596 H   0  0  0  0  0  0  0  0  0  0  0  0
   -7.1327    1.7686   -1.5138 H   0  0  0  0  0  0  0  0  0  0  0  0
   -3.6092    1.8067    1.3478 H   0  0  0  0  0  0  0  0  0  0  0  0
   -2.8531    1.8917   -0.2637 H   0  0  0  0  0  0  0  0  0  0  0  0
   -3.2014   -0.5377    1.5179 H   0  0  0  0  0  0  0  0  0  0  0  0
   -1.8343    0.0605    0.5426 H   0  0  0  0  0  0  0  0  0  0  0  0
   -3.3397   -2.8593   -1.3069 H   0  0  0  0  0  0  0  0  0  0  0  0
   -2.7817   -2.7702    0.3739 H   0  0  0  0  0  0  0  0  0  0  0  0
   -1.3524   -1.6298   -2.0655 H   0  0  0  0  0  0  0  0  0  0  0  0
   -0.8098   -1.4450   -0.3157 H   0  0  0  0  0  0  0  0  0  0  0  0
   -1.1411   -4.0905   -1.8570 H   0  0  0  0  0  0  0  0  0  0  0  0
   -0.7136   -3.9081   -0.1525 H   0  0  0  0  0  0  0  0  0  0  0  0
    0.7900   -2.6847   -2.5461 H   0  0  0  0  0  0  0  0  0  0  0  0
    1.2778   -4.2207   -1.6926 H   0  0  0  0  0  0  0  0  0  0  0  0
    1.1964   -1.4018   -0.4830 H   0  0  0  0  0  0  0  0  0  0  0  0
    3.5458   -3.1165   -1.2378 H   0  0  0  0  0  0  0  0  0  0  0  0
    5.5313   -1.2407   -1.1966 H   0  0  0  0  0  0  0  0  0  0  0  0
    5.0324   -1.5314   -2.8590 H   0  0  0  0  0  0  0  0  0  0  0  0
    6.2510    0.5974   -2.8012 H   0  0  0  0  0  0  0  0  0  0  0  0
    4.5493    1.0251   -3.0013 H   0  0  0  0  0  0  0  0  0  0  0  0
    7.2784    1.0369   -0.2333 H   0  0  0  0  0  0  0  0  0  0  0  0
    7.5168    2.6206    2.2298 H   0  0  0  0  0  0  0  0  0  0  0  0
    6.2465    4.2125    3.7066 H   0  0  0  0  0  0  0  0  0  0  0  0
    3.9566    4.8067    3.0609 H   0  0  0  0  0  0  0  0  0  0  0  0
    2.9304    3.8825    1.0360 H   0  0  0  0  0  0  0  0  0  0  0  0
    0.4680   -1.8764    1.7732 H   0  0  0  0  0  0  0  0  0  0  0  0
    0.6426   -3.2586    3.8112 H   0  0  0  0  0  0  0  0  0  0  0  0
    2.0095   -5.3567    3.6938 H   0  0  0  0  0  0  0  0  0  0  0  0
    3.1313   -5.9890    1.5856 H   0  0  0  0  0  0  0  0  0  0  0  0
   -5.2120   -1.9952   -0.9365 H   0  0  0  0  0  0  0  0  0  0  0  0
   -5.0611   -1.3581    0.7454 H   0  0  0  0  0  0  0  0  0  0  0  0
   -6.5713    0.0795   -0.5208 H   0  0  0  0  0  0  0  0  0  0  0  0
   -5.3806    0.1140   -1.9027 H   0  0  0  0  0  0  0  0  0  0  0  0
  1  2  1  0
  2  3  2  0
  3  4  1  0
  4  5  2  0
  5  6  1  0
  6  7  2  0
  7  8  1  0
  5  9  1  0
  9 10  1  0
 10 11  1  0
 11 12  1  0
 12 13  1  0
 13 14  1  0
 14 15  1  0
 15 16  1  0
 16 17  1  0
 17 18  1  0
 18 19  1  0
 19 20  2  0
 19 21  1  0
 21 22  1  0
 22 23  1  0
 23 24  2  0
 24 25  1  0
 25 26  2  0
 26 27  1  0
 27 28  2  0
 28 29  1  0
 29 30  2  0
 30 31  1  0
 17 32  1  0
 32 33  2  0
 33 34  1  0
 34 35  2  0
 35 36  1  0
 36 37  2  0
 12 38  1  0
 38 39  1  0
  7  2  1  0
 39  9  1  0
 31 23  1  0
 37 32  1  0
 30 25  1  0
  3 40  1  0
  4 41  1  0
  6 42  1  0
 10 43  1  0
 10 44  1  0
 11 45  1  0
 11 46  1  0
 13 47  1  0
 13 48  1  0
 14 49  1  0
 14 50  1  0
 15 51  1  0
 15 52  1  0
 16 53  1  0
 16 54  1  0
 17 55  1  0
 18 56  1  0
 21 57  1  0
 21 58  1  0
 22 59  1  0
 22 60  1  0
 24 61  1  0
 26 62  1  0
 27 63  1  0
 28 64  1  0
 29 65  1  0
 33 66  1  0
 34 67  1  0
 35 68  1  0
 36 69  1  0
 38 70  1  0
 38 71  1  0
 39 72  1  0
 39 73  1  0
M  END
$$$$
[H]c1nc(N([H])c2c([H])c(C([H])([H])N3C([H])([H])C([H])([H])OC([H])([H])C3([H])[H])c([H])c([H])c2SC([H])([H])[H])nc(N([H])c2c([H])c([H])c([H])c([H])c2S(=O)(=O)C([H])(C([H])([H])[H])C([H])([H])[H])c1Cl
     RDKit          3D

 66 69  0  0  0  0  0  0  0  0999 V2000
   -2.0678   -2.8182    3.5635 C   0  0  0  0  0  0  0  0  0  0  0  0
   -1.9143   -1.0349    3.8740 S   0  0  0  0  0  0  0  0  0  0  0  0
   -2.8212   -0.1826    2.6097 C   0  0  0  0  0  0  0  0  0  0  0  0
   -4.1437    0.1148    2.7920 C   0  0  0  0  0  0  0  0  0  0  0  0
   -4.8845    0.7761    1.8323 C   0  0  0  0  0  0  0  0  0  0  0  0
   -4.2952    1.1550    0.6532 C   0  0  0  0  0  0  0  0  0  0  0  0
   -5.0591    1.8700   -0.4067 C   0  0  0  0  0  0  0  0  0  0  0  0
   -5.6815    0.9322   -1.3499 N   0  0  0  0  0  0  0  0  0  0  0  0
   -6.3840    1.7875   -2.3193 C   0  0  0  0  0  0  0  0  0  0  0  0
   -7.0722    0.8649   -3.2861 C   0  0  0  0  0  0  0  0  0  0  0  0
   -8.1355    0.2670   -2.5771 O   0  0  0  0  0  0  0  0  0  0  0  0
   -7.6679   -0.5112   -1.5482 C   0  0  0  0  0  0  0  0  0  0  0  0
   -6.6946    0.1776   -0.6372 C   0  0  0  0  0  0  0  0  0  0  0  0
   -2.9512    0.8572    0.4586 C   0  0  0  0  0  0  0  0  0  0  0  0
   -2.1855    0.1917    1.4118 C   0  0  0  0  0  0  0  0  0  0  0  0
   -0.8364   -0.1402    1.2901 N   0  0  0  0  0  0  0  0  0  0  0  0
    0.0331    0.1127    0.2015 C   0  0  0  0  0  0  0  0  0  0  0  0
   -0.3058    0.7321   -0.9300 N   0  0  0  0  0  0  0  0  0  0  0  0
    0.5543    0.9484   -1.9305 C   0  0  0  0  0  0  0  0  0  0  0  0
    1.8546    0.5202   -1.8077 C   0  0  0  0  0  0  0  0  0  0  0  0
    2.9587    0.8024   -3.1019 Cl  0  0  0  0  0  0  0  0  0  0  0  0
    2.2861   -0.1482   -0.6274 C   0  0  0  0  0  0  0  0  0  0  0  0
    3.6273   -0.5584   -0.5317 N   0  0  0  0  0  0  0  0  0  0  0  0
    4.2582   -1.2373    0.5177 C   0  0  0  0  0  0  0  0  0  0  0  0
    3.5763   -1.7801    1.5793 C   0  0  0  0  0  0  0  0  0  0  0  0
    4.2631   -2.4740    2.5569 C   0  0  0  0  0  0  0  0  0  0  0  0
    5.6256   -2.6274    2.4775 C   0  0  0  0  0  0  0  0  0  0  0  0
    6.3090   -2.0795    1.4073 C   0  0  0  0  0  0  0  0  0  0  0  0
    5.6649   -1.3874    0.4238 C   0  0  0  0  0  0  0  0  0  0  0  0
    6.6046   -0.7041   -0.8594 S   0  0  0  0  0  0  0  0  0  0  0  0
    6.2436   -1.2123   -2.2242 O   0  0  0  0  0  0  0  0  0  0  0  0
    8.0744   -1.0391   -0.5752 O   0  0  0  0  0  0  0  0  0  0  0  0
    6.5550    1.0670   -0.9174 C   0  0  0  0  0  0  0  0  0  0  0  0
    7.1843    1.6641    0.3357 C   0  0  0  0  0  0  0  0  0  0  0  0
    7.4467    1.4811   -2.0931 C   0  0  0  0  0  0  0  0  0  0  0  0
    1.3284   -0.2889    0.2698 N   0  0  0  0  0  0  0  0  0  0  0  0
   -1.3834   -3.1624    2.7541 H   0  0  0  0  0  0  0  0  0  0  0  0
   -3.1006   -3.0852    3.2129 H   0  0  0  0  0  0  0  0  0  0  0  0
   -1.9194   -3.3664    4.5114 H   0  0  0  0  0  0  0  0  0  0  0  0
   -4.6097   -0.1925    3.7412 H   0  0  0  0  0  0  0  0  0  0  0  0
   -5.9262    0.9810    2.0396 H   0  0  0  0  0  0  0  0  0  0  0  0
   -5.8105    2.5051    0.0793 H   0  0  0  0  0  0  0  0  0  0  0  0
   -4.3448    2.5334   -0.9206 H   0  0  0  0  0  0  0  0  0  0  0  0
   -7.1563    2.3233   -1.7254 H   0  0  0  0  0  0  0  0  0  0  0  0
   -5.6480    2.4621   -2.7892 H   0  0  0  0  0  0  0  0  0  0  0  0
   -7.4862    1.4741   -4.1044 H   0  0  0  0  0  0  0  0  0  0  0  0
   -6.3871    0.0709   -3.6730 H   0  0  0  0  0  0  0  0  0  0  0  0
   -8.5631   -0.7737   -0.9114 H   0  0  0  0  0  0  0  0  0  0  0  0
   -7.3037   -1.4641   -1.9513 H   0  0  0  0  0  0  0  0  0  0  0  0
   -7.2709    0.8010    0.0611 H   0  0  0  0  0  0  0  0  0  0  0  0
   -6.1830   -0.6117   -0.0512 H   0  0  0  0  0  0  0  0  0  0  0  0
   -2.5329    1.1673   -0.4656 H   0  0  0  0  0  0  0  0  0  0  0  0
   -0.3869   -0.6528    2.1198 H   0  0  0  0  0  0  0  0  0  0  0  0
    0.2140    1.4638   -2.8358 H   0  0  0  0  0  0  0  0  0  0  0  0
    4.2183   -0.3254   -1.3872 H   0  0  0  0  0  0  0  0  0  0  0  0
    2.4831   -1.6872    1.6751 H   0  0  0  0  0  0  0  0  0  0  0  0
    3.6732   -2.8864    3.3815 H   0  0  0  0  0  0  0  0  0  0  0  0
    6.1255   -3.1796    3.2659 H   0  0  0  0  0  0  0  0  0  0  0  0
    7.3907   -2.2285    1.3886 H   0  0  0  0  0  0  0  0  0  0  0  0
    5.5595    1.5008   -1.0516 H   0  0  0  0  0  0  0  0  0  0  0  0
    6.4138    1.7720    1.1093 H   0  0  0  0  0  0  0  0  0  0  0  0
    8.0149    1.0065    0.6227 H   0  0  0  0  0  0  0  0  0  0  0  0
    7.6008    2.6450    0.0483 H   0  0  0  0  0  0  0  0  0  0  0  0
    6.8641    2.1465   -2.7801 H   0  0  0  0  0  0  0  0  0  0  0  0
    8.3340    2.0403   -1.7613 H   0  0  0  0  0  0  0  0  0  0  0  0
    7.7727    0.6247   -2.6878 H   0  0  0  0  0  0  0  0  0  0  0  0
  1  2  1  0
  2  3  1  0
  3  4  2  0
  4  5  1  0
  5  6  2  0
  6  7  1  0
  7  8  1  0
  8  9  1  0
  9 10  1  0
 10 11  1  0
 11 12  1  0
 12 13  1  0
  6 14  1  0
 14 15  2  0
 15 16  1  0
 16 17  1  0
 17 18  2  0
 18 19  1  0
 19 20  2  0
 20 21  1  0
 20 22  1  0
 22 23  1  0
 23 24  1  0
 24 25  2  0
 25 26  1  0
 26 27  2  0
 27 28  1  0
 28 29  2  0
 29 30  1  0
 30 31  2  0
 30 32  2  0
 30 33  1  0
 33 34  1  0
 33 35  1  0
 22 36  2  0
 15  3  1  0
 36 17  1  0
 13  8  1  0
 29 24  1  0
  1 37  1  0
  1 38  1  0
  1 39  1  0
  4 40  1  0
  5 41  1  0
  7 42  1  0
  7 43  1  0
  9 44  1  0
  9 45  1  0
 10 46  1  0
 10 47  1  0
 12 48  1  0
 12 49  1  0
 13 50  1  0
 13 51  1  0
 14 52  1  0
 16 53  1  0
 19 54  1  0
 23 55  1  0
 25 56  1  0
 26 57  1  0
 27 58  1  0
 28 59  1  0
 33 60  1  0
 34 61  1  0
 34 62  1  0
 34 63  1  0
 35 64  1  0
 35 65  1  0
 35 66  1  0
M  END
$$$$
[H]c1c([H])c(N2C([H])([H])C([H])([H])N(S(=O)(=O)C([H])([H])[H])C([H])([H])C2([H])[H])c([H])c([H])c1C(=O)N([H])[C@@]1([H])C([H])([H])N2C([H])([H])C([H])([H])C1([H])C([H])([H])C2([H])[H]
     RDKit          3D

 55 58  0  0  0  0  0  0  0  0999 V2000
    8.7690    0.4217    0.0478 C   0  0  0  0  0  0  0  0  0  0  0  0
    7.4268   -0.5397    0.7185 S   0  0  0  0  0  0  0  0  0  0  0  0
    7.9337   -1.9217    1.0158 O   0  0  0  0  0  0  0  0  0  0  0  0
    6.8966    0.1319    1.9777 O   0  0  0  0  0  0  0  0  0  0  0  0
    6.1928   -0.6082   -0.4836 N   0  0  0  0  0  0  0  0  0  0  0  0
    5.6741    0.6699   -0.8264 C   0  0  0  0  0  0  0  0  0  0  0  0
    4.3562    1.0026   -0.1648 C   0  0  0  0  0  0  0  0  0  0  0  0
    3.3886   -0.0370   -0.4137 N   0  0  0  0  0  0  0  0  0  0  0  0
    3.8657   -1.3273   -0.8030 C   0  0  0  0  0  0  0  0  0  0  0  0
    5.2187   -1.6014   -0.1817 C   0  0  0  0  0  0  0  0  0  0  0  0
    2.0097    0.2189   -0.2708 C   0  0  0  0  0  0  0  0  0  0  0  0
    1.0473   -0.6827   -0.5839 C   0  0  0  0  0  0  0  0  0  0  0  0
   -0.3046   -0.3730   -0.4167 C   0  0  0  0  0  0  0  0  0  0  0  0
   -0.7436    0.8381    0.0653 C   0  0  0  0  0  0  0  0  0  0  0  0
    0.2673    1.7480    0.3799 C   0  0  0  0  0  0  0  0  0  0  0  0
    1.5924    1.4518    0.2188 C   0  0  0  0  0  0  0  0  0  0  0  0
   -2.1402    1.1785    0.2450 C   0  0  0  0  0  0  0  0  0  0  0  0
   -2.4315    2.2965    0.7309 O   0  0  0  0  0  0  0  0  0  0  0  0
   -3.1837    0.3029   -0.1048 N   0  0  0  0  0  0  0  0  0  0  0  0
   -4.5871    0.6288    0.0695 C   0  0  1  0  0  0  0  0  0  0  0  0
   -5.3284    0.7087   -1.2434 C   0  0  0  0  0  0  0  0  0  0  0  0
   -6.5634   -0.0757   -1.1319 N   0  0  0  0  0  0  0  0  0  0  0  0
   -7.3729    0.4027   -0.0439 C   0  0  0  0  0  0  0  0  0  0  0  0
   -6.6613    0.3574    1.2906 C   0  0  0  0  0  0  0  0  0  0  0  0
   -5.2950   -0.2906    1.0137 C   0  0  0  0  0  0  0  0  0  0  0  0
   -5.6077   -1.6387    0.4036 C   0  0  0  0  0  0  0  0  0  0  0  0
   -6.1846   -1.4533   -0.9805 C   0  0  0  0  0  0  0  0  0  0  0  0
    8.4877    0.9162   -0.9055 H   0  0  0  0  0  0  0  0  0  0  0  0
    9.6245   -0.2480   -0.2046 H   0  0  0  0  0  0  0  0  0  0  0  0
    9.0752    1.2361    0.7382 H   0  0  0  0  0  0  0  0  0  0  0  0
    6.3633    1.5087   -0.6343 H   0  0  0  0  0  0  0  0  0  0  0  0
    5.4746    0.6779   -1.9379 H   0  0  0  0  0  0  0  0  0  0  0  0
    3.9843    1.9115   -0.7258 H   0  0  0  0  0  0  0  0  0  0  0  0
    4.5058    1.2002    0.9028 H   0  0  0  0  0  0  0  0  0  0  0  0
    3.1996   -2.1481   -0.4046 H   0  0  0  0  0  0  0  0  0  0  0  0
    3.9323   -1.4797   -1.8880 H   0  0  0  0  0  0  0  0  0  0  0  0
    5.5669   -2.5753   -0.5837 H   0  0  0  0  0  0  0  0  0  0  0  0
    5.0714   -1.7547    0.9169 H   0  0  0  0  0  0  0  0  0  0  0  0
    1.3200   -1.6541   -0.9692 H   0  0  0  0  0  0  0  0  0  0  0  0
   -1.0067   -1.1463   -0.6891 H   0  0  0  0  0  0  0  0  0  0  0  0
   -0.0458    2.7161    0.7638 H   0  0  0  0  0  0  0  0  0  0  0  0
    2.3713    2.1770    0.4720 H   0  0  0  0  0  0  0  0  0  0  0  0
   -2.9254   -0.6264   -0.5101 H   0  0  0  0  0  0  0  0  0  0  0  0
   -4.6201    1.6504    0.5119 H   0  0  0  0  0  0  0  0  0  0  0  0
   -5.6549    1.7410   -1.4922 H   0  0  0  0  0  0  0  0  0  0  0  0
   -4.7467    0.3481   -2.1011 H   0  0  0  0  0  0  0  0  0  0  0  0
   -7.6864    1.4481   -0.2982 H   0  0  0  0  0  0  0  0  0  0  0  0
   -8.2896   -0.2243   -0.0151 H   0  0  0  0  0  0  0  0  0  0  0  0
   -6.4905    1.4110    1.6373 H   0  0  0  0  0  0  0  0  0  0  0  0
   -7.2255   -0.2460    2.0209 H   0  0  0  0  0  0  0  0  0  0  0  0
   -4.7705   -0.3958    1.9652 H   0  0  0  0  0  0  0  0  0  0  0  0
   -6.4398   -2.0686    1.0312 H   0  0  0  0  0  0  0  0  0  0  0  0
   -4.7826   -2.3452    0.4543 H   0  0  0  0  0  0  0  0  0  0  0  0
   -7.0913   -2.1033   -1.1306 H   0  0  0  0  0  0  0  0  0  0  0  0
   -5.4359   -1.7354   -1.7199 H   0  0  0  0  0  0  0  0  0  0  0  0
  1  2  1  0
  2  3  2  0
  2  4  2  0
  2  5  1  0
  5  6  1  0
  6  7  1  0
  7  8  1  0
  8  9  1  0
  9 10  1  0
  8 11  1  0
 11 12  2  0
 12 13  1  0
 13 14  2  0
 14 15  1  0
 15 16  2  0
 14 17  1  0
 17 18  2  0
 17 19  1  0
 19 20  1  0
 20 21  1  0
 21 22  1  0
 22 23  1  0
 23 24  1  0
 24 25  1  0
 25 26  1  0
 26 27  1  0
 10  5  1  0
 16 11  1  0
 25 20  1  0
 27 22  1  0
  1 28  1  0
  1 29  1  0
  1 30  1  0
  6 31  1  0
  6 32  1  0
  7 33  1  0
  7 34  1  0
  9 35  1  0
  9 36  1  0
 10 37  1  0
 10 38  1  0
 12 39  1  0
 13 40  1  0
 15 41  1  0
 16 42  1  0
 19 43  1  0
 20 44  1  1
 21 45  1  0
 21 46  1  0
 23 47  1  0
 23 48  1  0
 24 49  1  0
 24 50  1  0
 25 51  1  0
 26 52  1  0
 26 53  1  0
 27 54  1  0
 27 55  1  0
M  END
$$$$
[H]OB(O[H])[C@@]([H])(N([H])C(=O)[C@@]([H])(N([H])C(=O)[C@@]([H])(N([H])C(=O)C([H])([H])N=[N+]=[N-])C([H])([H])C([H])([H])c1c([H])c([H])c([H])c([H])c1[H])C([H])([H])OC([H])([H])[H])C([H])([H])C([H])(C([H])([H])[H])C([H])([H])[H]
     RDKit          3D

 67 67  0  0  0  0  0  0  0  0999 V2000
    2.1377    4.3384   -1.6755 C   0  0  0  0  0  0  0  0  0  0  0  0
    1.7976    3.1164   -1.0995 O   0  0  0  0  0  0  0  0  0  0  0  0
    1.1709    2.3573   -2.0984 C   0  0  0  0  0  0  0  0  0  0  0  0
    0.8139    1.0039   -1.4060 C   0  0  2  0  0  0  0  0  0  0  0  0
   -0.0508    1.4098   -0.3136 N   0  0  0  0  0  0  0  0  0  0  0  0
   -1.4454    1.3884   -0.4942 C   0  0  0  0  0  0  0  0  0  0  0  0
   -1.9151    1.0345   -1.6054 O   0  0  0  0  0  0  0  0  0  0  0  0
   -2.4117    1.7790    0.6067 C   0  0  2  0  0  0  0  0  0  0  0  0
   -2.7565    0.4417    1.2556 C   0  0  0  0  0  0  0  0  0  0  0  0
   -3.5861    0.4849    2.4775 C   0  0  0  0  0  0  0  0  0  0  0  0
   -3.8334   -0.9556    2.8615 C   0  0  0  0  0  0  0  0  0  0  0  0
   -4.9381   -1.6234    2.4015 C   0  0  0  0  0  0  0  0  0  0  0  0
   -5.1424   -2.9388    2.7423 C   0  0  0  0  0  0  0  0  0  0  0  0
   -4.2519   -3.6427    3.5550 C   0  0  0  0  0  0  0  0  0  0  0  0
   -3.1518   -2.9373    3.9993 C   0  0  0  0  0  0  0  0  0  0  0  0
   -2.9418   -1.6151    3.6620 C   0  0  0  0  0  0  0  0  0  0  0  0
   -3.4808    2.4136   -0.0973 N   0  0  0  0  0  0  0  0  0  0  0  0
   -4.8384    2.2411   -0.2168 C   0  0  0  0  0  0  0  0  0  0  0  0
   -5.6145    1.4038    0.2735 O   0  0  0  0  0  0  0  0  0  0  0  0
   -5.5889    3.2448   -1.1096 C   0  0  0  0  0  0  0  0  0  0  0  0
   -4.6947    4.2153   -1.6677 N   0  0  0  0  0  0  0  0  0  0  0  0
   -4.9843    5.4008   -1.6364 N   0  0  0  0  0  0  0  0  0  0  0  0
   -5.1714    6.6220   -1.4233 N   0  0  0  0  0  0  0  0  0  0  0  0
    2.0513    0.3693   -0.9327 C   0  0  0  0  0  0  0  0  0  0  0  0
    2.4817    0.5250    0.2456 O   0  0  0  0  0  0  0  0  0  0  0  0
    2.8257   -0.4633   -1.7911 N   0  0  0  0  0  0  0  0  0  0  0  0
    4.0512   -1.0854   -1.3539 C   0  0  1  0  0  0  0  0  0  0  0  0
    3.8107   -2.5122   -0.8829 C   0  0  0  0  0  0  0  0  0  0  0  0
    5.0932   -3.1606   -0.4353 C   0  0  0  0  0  0  0  0  0  0  0  0
    4.7369   -4.5866    0.0065 C   0  0  0  0  0  0  0  0  0  0  0  0
    5.6505   -2.4475    0.8072 C   0  0  0  0  0  0  0  0  0  0  0  0
    5.1469   -0.9865   -2.4612 B   0  0  0  0  0  0  0  0  0  0  0  0
    5.2593    0.3012   -3.1946 O   0  0  0  0  0  0  0  0  0  0  0  0
    5.3553   -2.1606   -3.3428 O   0  0  0  0  0  0  0  0  0  0  0  0
    2.6308    4.9519   -0.8852 H   0  0  0  0  0  0  0  0  0  0  0  0
    1.2181    4.8103   -2.0458 H   0  0  0  0  0  0  0  0  0  0  0  0
    2.8652    4.1335   -2.4962 H   0  0  0  0  0  0  0  0  0  0  0  0
    1.8227    2.1930   -2.9564 H   0  0  0  0  0  0  0  0  0  0  0  0
    0.1967    2.8302   -2.3109 H   0  0  0  0  0  0  0  0  0  0  0  0
    0.2880    0.4569   -2.2045 H   0  0  0  0  0  0  0  0  0  0  0  0
    0.3558    1.7040    0.5837 H   0  0  0  0  0  0  0  0  0  0  0  0
   -2.0427    2.3830    1.4011 H   0  0  0  0  0  0  0  0  0  0  0  0
   -3.1516   -0.2304    0.4480 H   0  0  0  0  0  0  0  0  0  0  0  0
   -1.7594   -0.0103    1.5483 H   0  0  0  0  0  0  0  0  0  0  0  0
   -4.4368    1.1202    2.5675 H   0  0  0  0  0  0  0  0  0  0  0  0
   -2.9178    0.8422    3.3620 H   0  0  0  0  0  0  0  0  0  0  0  0
   -5.6252   -1.0739    1.7703 H   0  0  0  0  0  0  0  0  0  0  0  0
   -6.0034   -3.4896    2.3937 H   0  0  0  0  0  0  0  0  0  0  0  0
   -4.4414   -4.6930    3.8044 H   0  0  0  0  0  0  0  0  0  0  0  0
   -2.4113   -3.4277    4.6396 H   0  0  0  0  0  0  0  0  0  0  0  0
   -2.0328   -1.1373    4.0641 H   0  0  0  0  0  0  0  0  0  0  0  0
   -3.0880    3.2622   -0.6867 H   0  0  0  0  0  0  0  0  0  0  0  0
   -6.4136    3.7002   -0.5520 H   0  0  0  0  0  0  0  0  0  0  0  0
   -5.9805    2.6361   -1.9692 H   0  0  0  0  0  0  0  0  0  0  0  0
    2.4923   -0.6217   -2.7537 H   0  0  0  0  0  0  0  0  0  0  0  0
    4.3406   -0.5463   -0.3914 H   0  0  0  0  0  0  0  0  0  0  0  0
    3.1251   -2.5409   -0.0058 H   0  0  0  0  0  0  0  0  0  0  0  0
    3.3588   -3.0997   -1.6860 H   0  0  0  0  0  0  0  0  0  0  0  0
    5.8674   -3.2511   -1.1943 H   0  0  0  0  0  0  0  0  0  0  0  0
    4.3298   -4.5792    1.0176 H   0  0  0  0  0  0  0  0  0  0  0  0
    5.6179   -5.2533   -0.1129 H   0  0  0  0  0  0  0  0  0  0  0  0
    3.9266   -4.9202   -0.6839 H   0  0  0  0  0  0  0  0  0  0  0  0
    4.8354   -1.9552    1.3813 H   0  0  0  0  0  0  0  0  0  0  0  0
    6.3698   -1.6926    0.4454 H   0  0  0  0  0  0  0  0  0  0  0  0
    6.1340   -3.1575    1.5041 H   0  0  0  0  0  0  0  0  0  0  0  0
    4.3701    0.4533   -3.6054 H   0  0  0  0  0  0  0  0  0  0  0  0
    4.5745   -2.7726   -3.3350 H   0  0  0  0  0  0  0  0  0  0  0  0
  1  2  1  0
  2  3  1  0
  3  4  1  0
  4  5  1  0
  5  6  1  0
  6  7  2  0
  6  8  1  0
  8  9  1  0
  9 10  1  0
 10 11  1  0
 11 12  2  0
 12 13  1  0
 13 14  2  0
 14 15  1  0
 15 16  2  0
  8 17  1  0
 17 18  1  0
 18 19  2  0
 18 20  1  0
 20 21  1  0
 21 22  2  3
 22 23  2  0
  4 24  1  0
 24 25  2  0
 24 26  1  0
 26 27  1  0
 27 28  1  0
 28 29  1  0
 29 30  1  0
 29 31  1  0
 27 32  1  0
 32 33  1  0
 32 34  1  0
 16 11  1  0
  1 35  1  0
  1 36  1  0
  1 37  1  0
  3 38  1  0
  3 39  1  0
  4 40  1  6
  5 41  1  0
  8 42  1  1
  9 43  1  0
  9 44  1  0
 10 45  1  0
 10 46  1  0
 12 47  1  0
 13 48  1  0
 14 49  1  0
 15 50  1  0
 16 51  1  0
 17 52  1  0
 20 53  1  0
 20 54  1  0
 26 55  1  0
 27 56  1  1
 28 57  1  0
 28 58  1  0
 29 59  1  0
 30 60  1  0
 30 61  1  0
 30 62  1  0
 31 63  1  0
 31 64  1  0
 31 65  1  0
 33 66  1  0
 34 67  1  0
M  CHG  2  22   1  23  -1
M  END
$$$$
[H]OC(=O)C([H])([H])C([H])([H])C([H])([H])c1c([H])c(C([H])([H])[H])c2c(c1[H])c1nn([H])c(C([H])([H])[H])c1c(=O)n2C([H])([H])C(F)(F)F
     RDKit          3D

 45 47  0  0  0  0  0  0  0  0999 V2000
   -4.2812    3.2660    1.4041 C   0  0  0  0  0  0  0  0  0  0  0  0
   -2.9316    2.9521    0.9622 C   0  0  0  0  0  0  0  0  0  0  0  0
   -1.9104    3.8018    0.8257 N   0  0  0  0  0  0  0  0  0  0  0  0
   -0.8270    3.1591    0.3999 N   0  0  0  0  0  0  0  0  0  0  0  0
   -1.1684    1.8413    0.2576 C   0  0  0  0  0  0  0  0  0  0  0  0
   -2.4624    1.7216    0.6045 C   0  0  0  0  0  0  0  0  0  0  0  0
   -3.0428    0.4944    0.5420 C   0  0  0  0  0  0  0  0  0  0  0  0
   -4.2867    0.3887    0.8787 O   0  0  0  0  0  0  0  0  0  0  0  0
   -2.4067   -0.6701    0.1454 N   0  0  0  0  0  0  0  0  0  0  0  0
   -3.1267   -1.8750    0.0227 C   0  0  0  0  0  0  0  0  0  0  0  0
   -4.0115   -2.0199   -1.1917 C   0  0  0  0  0  0  0  0  0  0  0  0
   -3.4706   -1.9128   -2.4240 F   0  0  0  0  0  0  0  0  0  0  0  0
   -4.6351   -3.2991   -1.1640 F   0  0  0  0  0  0  0  0  0  0  0  0
   -5.1318   -1.2121   -1.2358 F   0  0  0  0  0  0  0  0  0  0  0  0
   -1.1116   -0.5432   -0.1875 C   0  0  0  0  0  0  0  0  0  0  0  0
   -0.3712   -1.6477   -0.5402 C   0  0  0  0  0  0  0  0  0  0  0  0
   -0.8891   -2.9942   -0.4526 C   0  0  0  0  0  0  0  0  0  0  0  0
    0.9995   -1.4351   -0.8529 C   0  0  0  0  0  0  0  0  0  0  0  0
    1.6090   -0.2161   -0.8156 C   0  0  0  0  0  0  0  0  0  0  0  0
    3.0288   -0.0684   -1.1546 C   0  0  0  0  0  0  0  0  0  0  0  0
    3.9380   -0.2201    0.0426 C   0  0  0  0  0  0  0  0  0  0  0  0
    5.3733   -0.0429   -0.4623 C   0  0  0  0  0  0  0  0  0  0  0  0
    6.3344   -0.1784    0.6607 C   0  0  0  0  0  0  0  0  0  0  0  0
    7.6796   -0.0426    0.3619 O   0  0  0  0  0  0  0  0  0  0  0  0
    5.9745   -0.4043    1.8307 O   0  0  0  0  0  0  0  0  0  0  0  0
    0.8567    0.8619   -0.4528 C   0  0  0  0  0  0  0  0  0  0  0  0
   -0.4833    0.7209   -0.1365 C   0  0  0  0  0  0  0  0  0  0  0  0
   -4.7590    2.5187    2.0357 H   0  0  0  0  0  0  0  0  0  0  0  0
   -4.9307    3.3765    0.4873 H   0  0  0  0  0  0  0  0  0  0  0  0
   -4.3296    4.2788    1.8985 H   0  0  0  0  0  0  0  0  0  0  0  0
   -1.9105    4.8237    1.0117 H   0  0  0  0  0  0  0  0  0  0  0  0
   -3.0200   -2.7471    0.6435 H   0  0  0  0  0  0  0  0  0  0  0  0
   -4.0171   -1.5838    0.7488 H   0  0  0  0  0  0  0  0  0  0  0  0
   -1.0325   -3.4107    0.5732 H   0  0  0  0  0  0  0  0  0  0  0  0
   -1.4364   -3.4433   -1.2689 H   0  0  0  0  0  0  0  0  0  0  0  0
    0.0606   -3.6512   -0.6288 H   0  0  0  0  0  0  0  0  0  0  0  0
    1.5663   -2.3153   -1.1384 H   0  0  0  0  0  0  0  0  0  0  0  0
    3.3552   -0.6968   -1.9957 H   0  0  0  0  0  0  0  0  0  0  0  0
    3.1730    0.9949   -1.5085 H   0  0  0  0  0  0  0  0  0  0  0  0
    3.7607    0.5316    0.8058 H   0  0  0  0  0  0  0  0  0  0  0  0
    3.8512   -1.2676    0.3947 H   0  0  0  0  0  0  0  0  0  0  0  0
    5.6091   -0.8450   -1.2154 H   0  0  0  0  0  0  0  0  0  0  0  0
    5.5092    0.9315   -0.9684 H   0  0  0  0  0  0  0  0  0  0  0  0
    8.0292    0.2091   -0.5430 H   0  0  0  0  0  0  0  0  0  0  0  0
    1.2756    1.8704   -0.3977 H   0  0  0  0  0  0  0  0  0  0  0  0
  1  2  1  0
  2  3  1  0
  3  4  1  0
  4  5  2  0
  5  6  1  0
  6  7  1  0
  7  8  2  0
  7  9  1  0
  9 10  1  0
 10 11  1  0
 11 12  1  0
 11 13  1  0
 11 14  1  0
  9 15  1  0
 15 16  2  0
 16 17  1  0
 16 18  1  0
 18 19  2  0
 19 20  1  0
 20 21  1  0
 21 22  1  0
 22 23  1  0
 23 24  1  0
 23 25  2  0
 19 26  1  0
 26 27  2  0
  6  2  2  0
 27 15  1  0
 27  5  1  0
  1 28  1  0
  1 29  1  0
  1 30  1  0
  3 31  1  0
 10 32  1  0
 10 33  1  0
 17 34  1  0
 17 35  1  0
 17 36  1  0
 18 37  1  0
 20 38  1  0
 20 39  1  0
 21 40  1  0
 21 41  1  0
 22 42  1  0
 22 43  1  0
 24 44  1  0
 26 45  1  0
M  END
$$$$
[H]c1c([H])c(C([H])([H])[H])c(C([H])([H])[H])c([H])c1C(=O)N([H])c1c([H])c([H])c(C([H])([H])N([H])C([H])([H])C([H])([H])[H])c([H])c1[H]
     RDKit          3D

 43 44  0  0  0  0  0  0  0  0999 V2000
    7.5147   -0.3157    1.2529 C   0  0  0  0  0  0  0  0  0  0  0  0
    6.9375    0.0908   -0.0783 C   0  0  0  0  0  0  0  0  0  0  0  0
    5.4893    0.0791    0.0065 N   0  0  0  0  0  0  0  0  0  0  0  0
    4.8618    0.4550   -1.2214 C   0  0  0  0  0  0  0  0  0  0  0  0
    3.3910    0.4111   -1.0290 C   0  0  0  0  0  0  0  0  0  0  0  0
    2.7220   -0.7591   -1.2835 C   0  0  0  0  0  0  0  0  0  0  0  0
    1.3325   -0.8605   -1.1194 C   0  0  0  0  0  0  0  0  0  0  0  0
    0.5739    0.2021   -0.6968 C   0  0  0  0  0  0  0  0  0  0  0  0
   -0.8291    0.1845   -0.4814 N   0  0  0  0  0  0  0  0  0  0  0  0
   -1.6507   -0.9348   -0.3402 C   0  0  0  0  0  0  0  0  0  0  0  0
   -1.1866   -2.0936   -0.3914 O   0  0  0  0  0  0  0  0  0  0  0  0
   -3.0835   -0.7993   -0.1281 C   0  0  0  0  0  0  0  0  0  0  0  0
   -3.9224   -1.9120   -0.2692 C   0  0  0  0  0  0  0  0  0  0  0  0
   -5.2663   -1.8518   -0.0793 C   0  0  0  0  0  0  0  0  0  0  0  0
   -5.8435   -0.6467    0.2685 C   0  0  0  0  0  0  0  0  0  0  0  0
   -7.3156   -0.5437    0.4848 C   0  0  0  0  0  0  0  0  0  0  0  0
   -5.0655    0.4613    0.4167 C   0  0  0  0  0  0  0  0  0  0  0  0
   -5.6452    1.7650    0.7871 C   0  0  0  0  0  0  0  0  0  0  0  0
   -3.6990    0.3732    0.2176 C   0  0  0  0  0  0  0  0  0  0  0  0
    1.2940    1.3863   -0.4457 C   0  0  0  0  0  0  0  0  0  0  0  0
    2.6503    1.4716   -0.6102 C   0  0  0  0  0  0  0  0  0  0  0  0
    6.7263   -0.8040    1.8518 H   0  0  0  0  0  0  0  0  0  0  0  0
    7.8377    0.6197    1.7819 H   0  0  0  0  0  0  0  0  0  0  0  0
    8.4094   -0.9565    1.1533 H   0  0  0  0  0  0  0  0  0  0  0  0
    7.3242    1.0856   -0.3925 H   0  0  0  0  0  0  0  0  0  0  0  0
    7.2110   -0.6914   -0.8385 H   0  0  0  0  0  0  0  0  0  0  0  0
    5.1170    0.5426    0.8411 H   0  0  0  0  0  0  0  0  0  0  0  0
    5.1127   -0.2741   -2.0165 H   0  0  0  0  0  0  0  0  0  0  0  0
    5.1994    1.4533   -1.5743 H   0  0  0  0  0  0  0  0  0  0  0  0
    3.2677   -1.6513   -1.6251 H   0  0  0  0  0  0  0  0  0  0  0  0
    0.8515   -1.8080   -1.3480 H   0  0  0  0  0  0  0  0  0  0  0  0
   -1.2736    1.1669   -0.4366 H   0  0  0  0  0  0  0  0  0  0  0  0
   -3.4506   -2.8474   -0.5423 H   0  0  0  0  0  0  0  0  0  0  0  0
   -5.9405   -2.6927   -0.1807 H   0  0  0  0  0  0  0  0  0  0  0  0
   -7.5117   -0.4137    1.5616 H   0  0  0  0  0  0  0  0  0  0  0  0
   -7.7164    0.3323   -0.0859 H   0  0  0  0  0  0  0  0  0  0  0  0
   -7.7800   -1.4507    0.0756 H   0  0  0  0  0  0  0  0  0  0  0  0
   -6.6238    1.5677    1.2686 H   0  0  0  0  0  0  0  0  0  0  0  0
   -5.0218    2.3022    1.5365 H   0  0  0  0  0  0  0  0  0  0  0  0
   -5.8430    2.4228   -0.0904 H   0  0  0  0  0  0  0  0  0  0  0  0
   -3.0739    1.2738    0.3434 H   0  0  0  0  0  0  0  0  0  0  0  0
    0.7273    2.2585   -0.1060 H   0  0  0  0  0  0  0  0  0  0  0  0
    3.1913    2.4019   -0.4095 H   0  0  0  0  0  0  0  0  0  0  0  0
  1  2  1  0
  2  3  1  0
  3  4  1  0
  4  5  1  0
  5  6  2  0
  6  7  1  0
  7  8  2  0
  8  9  1  0
  9 10  1  0
 10 11  2  0
 10 12  1  0
 12 13  2  0
 13 14  1  0
 14 15  2  0
 15 16  1  0
 15 17  1  0
 17 18  1  0
 17 19  2  0
  8 20  1  0
 20 21  2  0
 21  5  1  0
 19 12  1  0
  1 22  1  0
  1 23  1  0
  1 24  1  0
  2 25  1  0
  2 26  1  0
  3 27  1  0
  4 28  1  0
  4 29  1  0
  6 30  1  0
  7 31  1  0
  9 32  1  0
 13 33  1  0
 14 34  1  0
 16 35  1  0
 16 36  1  0
 16 37  1  0
 18 38  1  0
 18 39  1  0
 18 40  1  0
 19 41  1  0
 20 42  1  0
 21 43  1  0
M  END
$$$$
[H]c1nc([H])c(-c2c(OC([H])([H])C([H])([H])OC([H])([H])[H])nc3sc(N([H])C(=O)N([H])C([H])([H])C([H])([H])[H])nc3c2[H])o1
     RDKit          3D

 42 44  0  0  0  0  0  0  0  0999 V2000
    8.2579    0.7547   -0.3700 C   0  0  0  0  0  0  0  0  0  0  0  0
    6.8975    0.3381    0.1058 C   0  0  0  0  0  0  0  0  0  0  0  0
    5.8660    0.7360   -0.8191 N   0  0  0  0  0  0  0  0  0  0  0  0
    4.5183    0.4323   -0.5441 C   0  0  0  0  0  0  0  0  0  0  0  0
    4.2794   -0.2004    0.5471 O   0  0  0  0  0  0  0  0  0  0  0  0
    3.4633    0.7946   -1.4098 N   0  0  0  0  0  0  0  0  0  0  0  0
    2.1163    0.4511   -1.0630 C   0  0  0  0  0  0  0  0  0  0  0  0
    1.6479   -0.1811   -0.0191 N   0  0  0  0  0  0  0  0  0  0  0  0
    0.3708   -0.3964    0.1109 C   0  0  0  0  0  0  0  0  0  0  0  0
   -0.2933   -1.0566    1.1657 C   0  0  0  0  0  0  0  0  0  0  0  0
   -1.6445   -1.2285    1.2026 C   0  0  0  0  0  0  0  0  0  0  0  0
   -2.2871   -1.9293    2.3350 C   0  0  0  0  0  0  0  0  0  0  0  0
   -1.6605   -2.4647    3.4257 C   0  0  0  0  0  0  0  0  0  0  0  0
   -2.6185   -3.0058    4.2068 N   0  0  0  0  0  0  0  0  0  0  0  0
   -3.7945   -2.7919    3.5842 C   0  0  0  0  0  0  0  0  0  0  0  0
   -3.5642   -2.1352    2.4479 O   0  0  0  0  0  0  0  0  0  0  0  0
   -2.4143   -0.7393    0.1660 C   0  0  0  0  0  0  0  0  0  0  0  0
   -3.7595   -0.8991    0.1812 O   0  0  0  0  0  0  0  0  0  0  0  0
   -4.7222   -0.5010   -0.7270 C   0  0  0  0  0  0  0  0  0  0  0  0
   -4.8076    0.9742   -0.9580 C   0  0  0  0  0  0  0  0  0  0  0  0
   -5.8007    1.3021   -1.8839 O   0  0  0  0  0  0  0  0  0  0  0  0
   -5.7973    2.6863   -2.0255 C   0  0  0  0  0  0  0  0  0  0  0  0
   -1.8101   -0.1083   -0.8483 N   0  0  0  0  0  0  0  0  0  0  0  0
   -0.4522    0.0632   -0.8830 C   0  0  0  0  0  0  0  0  0  0  0  0
    0.6716    0.7830   -1.9525 S   0  0  0  0  0  0  0  0  0  0  0  0
    8.6976    0.0106   -1.0563 H   0  0  0  0  0  0  0  0  0  0  0  0
    8.1997    1.7318   -0.8646 H   0  0  0  0  0  0  0  0  0  0  0  0
    8.9249    0.8093    0.5385 H   0  0  0  0  0  0  0  0  0  0  0  0
    6.6478    0.8275    1.0860 H   0  0  0  0  0  0  0  0  0  0  0  0
    6.8895   -0.7749    0.2066 H   0  0  0  0  0  0  0  0  0  0  0  0
    6.1490    1.2485   -1.6849 H   0  0  0  0  0  0  0  0  0  0  0  0
    3.6558    1.2991   -2.2794 H   0  0  0  0  0  0  0  0  0  0  0  0
    0.2778   -1.4600    2.0075 H   0  0  0  0  0  0  0  0  0  0  0  0
   -0.6112   -2.4749    3.6557 H   0  0  0  0  0  0  0  0  0  0  0  0
   -4.7848   -3.0817    3.9064 H   0  0  0  0  0  0  0  0  0  0  0  0
   -4.6699   -1.0681   -1.6967 H   0  0  0  0  0  0  0  0  0  0  0  0
   -5.7231   -0.8105   -0.3027 H   0  0  0  0  0  0  0  0  0  0  0  0
   -5.0506    1.5096   -0.0332 H   0  0  0  0  0  0  0  0  0  0  0  0
   -3.8615    1.3288   -1.3802 H   0  0  0  0  0  0  0  0  0  0  0  0
   -4.8183    3.0078   -2.3824 H   0  0  0  0  0  0  0  0  0  0  0  0
   -6.6487    3.0596   -2.6289 H   0  0  0  0  0  0  0  0  0  0  0  0
   -5.9363    3.1593   -1.0090 H   0  0  0  0  0  0  0  0  0  0  0  0
  1  2  1  0
  2  3  1  0
  3  4  1  0
  4  5  2  0
  4  6  1  0
  6  7  1  0
  7  8  2  0
  8  9  1  0
  9 10  2  0
 10 11  1  0
 11 12  1  0
 12 13  2  0
 13 14  1  0
 14 15  2  0
 15 16  1  0
 11 17  2  0
 17 18  1  0
 18 19  1  0
 19 20  1  0
 20 21  1  0
 21 22  1  0
 17 23  1  0
 23 24  2  0
 24 25  1  0
 25  7  1  0
 24  9  1  0
 16 12  1  0
  1 26  1  0
  1 27  1  0
  1 28  1  0
  2 29  1  0
  2 30  1  0
  3 31  1  0
  6 32  1  0
 10 33  1  0
 13 34  1  0
 15 35  1  0
 19 36  1  0
 19 37  1  0
 20 38  1  0
 20 39  1  0
 22 40  1  0
 22 41  1  0
 22 42  1  0
M  END
$$$$
[H]c1c([H])c(N2C([H])([H])C([H])([H])C([H])([H])C2([H])[H])c([H])c2c1OC([H])(C([H])([H])[H])[C@@]1(O2)C([H])([H])N2C([H])([H])C([H])([H])C1([H])C([H])([H])C2([H])[H]
     RDKit          3D

 49 53  0  0  0  0  0  0  0  0999 V2000
   -1.4298    2.0723   -1.9491 C   0  0  0  0  0  0  0  0  0  0  0  0
   -2.0774    0.7042   -1.7589 C   0  0  0  0  0  0  0  0  0  0  0  0
   -1.1904   -0.3133   -2.2537 O   0  0  0  0  0  0  0  0  0  0  0  0
    0.0566   -0.3576   -1.6217 C   0  0  0  0  0  0  0  0  0  0  0  0
    1.1749   -0.8616   -2.2528 C   0  0  0  0  0  0  0  0  0  0  0  0
    2.4132   -0.9149   -1.6495 C   0  0  0  0  0  0  0  0  0  0  0  0
    2.5982   -0.4565   -0.3559 C   0  0  0  0  0  0  0  0  0  0  0  0
    1.4659    0.0493    0.2716 C   0  0  0  0  0  0  0  0  0  0  0  0
    0.2268    0.1028   -0.3319 C   0  0  0  0  0  0  0  0  0  0  0  0
   -0.8998    0.6098    0.3024 O   0  0  0  0  0  0  0  0  0  0  0  0
   -2.2055    0.4585   -0.2753 C   0  0  1  0  0  0  0  0  0  0  0  0
   -3.1662    1.4513    0.2968 C   0  0  0  0  0  0  0  0  0  0  0  0
   -4.3573    0.7577    0.7510 N   0  0  0  0  0  0  0  0  0  0  0  0
   -4.9413   -0.0701   -0.2649 C   0  0  0  0  0  0  0  0  0  0  0  0
   -4.0006   -1.1804   -0.6994 C   0  0  0  0  0  0  0  0  0  0  0  0
   -2.6871   -0.9528   -0.0023 C   0  0  0  0  0  0  0  0  0  0  0  0
   -2.9577   -1.0357    1.4962 C   0  0  0  0  0  0  0  0  0  0  0  0
   -3.9772   -0.0167    1.9230 C   0  0  0  0  0  0  0  0  0  0  0  0
    3.8592   -0.5007    0.2858 N   0  0  0  0  0  0  0  0  0  0  0  0
    4.1842   -0.0535    1.6113 C   0  0  0  0  0  0  0  0  0  0  0  0
    5.5304    0.6147    1.4314 C   0  0  0  0  0  0  0  0  0  0  0  0
    6.1786   -0.2310    0.3646 C   0  0  0  0  0  0  0  0  0  0  0  0
    5.0706   -1.0159   -0.2910 C   0  0  0  0  0  0  0  0  0  0  0  0
   -0.9377    2.4236   -1.0182 H   0  0  0  0  0  0  0  0  0  0  0  0
   -2.1942    2.8393   -2.2127 H   0  0  0  0  0  0  0  0  0  0  0  0
   -0.6563    2.0560   -2.7446 H   0  0  0  0  0  0  0  0  0  0  0  0
   -3.0240    0.7122   -2.2877 H   0  0  0  0  0  0  0  0  0  0  0  0
    1.0236   -1.2247   -3.2802 H   0  0  0  0  0  0  0  0  0  0  0  0
    3.2639   -1.3177   -2.1796 H   0  0  0  0  0  0  0  0  0  0  0  0
    1.5961    0.4166    1.2982 H   0  0  0  0  0  0  0  0  0  0  0  0
   -2.7265    1.9472    1.1953 H   0  0  0  0  0  0  0  0  0  0  0  0
   -3.4633    2.2283   -0.4333 H   0  0  0  0  0  0  0  0  0  0  0  0
   -5.2052    0.5536   -1.1205 H   0  0  0  0  0  0  0  0  0  0  0  0
   -5.8412   -0.5371    0.1399 H   0  0  0  0  0  0  0  0  0  0  0  0
   -3.8641   -1.1779   -1.8174 H   0  0  0  0  0  0  0  0  0  0  0  0
   -4.4037   -2.1789   -0.4489 H   0  0  0  0  0  0  0  0  0  0  0  0
   -1.9226   -1.6919   -0.2524 H   0  0  0  0  0  0  0  0  0  0  0  0
   -1.9783   -0.8000    1.9881 H   0  0  0  0  0  0  0  0  0  0  0  0
   -3.3187   -2.0364    1.7726 H   0  0  0  0  0  0  0  0  0  0  0  0
   -3.5528    0.7236    2.6473 H   0  0  0  0  0  0  0  0  0  0  0  0
   -4.8720   -0.4534    2.3941 H   0  0  0  0  0  0  0  0  0  0  0  0
    4.2958   -0.8913    2.3272 H   0  0  0  0  0  0  0  0  0  0  0  0
    3.4852    0.7249    1.9871 H   0  0  0  0  0  0  0  0  0  0  0  0
    6.0886    0.5841    2.3796 H   0  0  0  0  0  0  0  0  0  0  0  0
    5.4315    1.6761    1.1265 H   0  0  0  0  0  0  0  0  0  0  0  0
    6.9366   -0.8679    0.8543 H   0  0  0  0  0  0  0  0  0  0  0  0
    6.6806    0.4538   -0.3605 H   0  0  0  0  0  0  0  0  0  0  0  0
    5.1815   -2.0736    0.0670 H   0  0  0  0  0  0  0  0  0  0  0  0
    5.1089   -0.9487   -1.3910 H   0  0  0  0  0  0  0  0  0  0  0  0
  1  2  1  0
  2  3  1  0
  3  4  1  0
  4  5  2  0
  5  6  1  0
  6  7  2  0
  7  8  1  0
  8  9  2  0
  9 10  1  0
 11 10  1  1
 11 12  1  0
 12 13  1  0
 13 14  1  0
 14 15  1  0
 15 16  1  0
 16 17  1  0
 17 18  1  0
  7 19  1  0
 19 20  1  0
 20 21  1  0
 21 22  1  0
 22 23  1  0
 11  2  1  0
 16 11  1  0
 23 19  1  0
  9  4  1  0
 18 13  1  0
  1 24  1  0
  1 25  1  0
  1 26  1  0
  2 27  1  0
  5 28  1  0
  6 29  1  0
  8 30  1  0
 12 31  1  0
 12 32  1  0
 14 33  1  0
 14 34  1  0
 15 35  1  0
 15 36  1  0
 16 37  1  0
 17 38  1  0
 17 39  1  0
 18 40  1  0
 18 41  1  0
 20 42  1  0
 20 43  1  0
 21 44  1  0
 21 45  1  0
 22 46  1  0
 22 47  1  0
 23 48  1  0
 23 49  1  0
M  END
$$$$
[H]OC(=O)C([H])([H])Oc1c([H])c([H])c([H])c2c1c(C(=O)C(=O)N([H])[H])c(C([H])([H])C([H])([H])[H])n2C([H])([H])c1c([H])c([H])c([H])c([H])c1[H]
     RDKit          3D

 48 50  0  0  0  0  0  0  0  0999 V2000
    1.5527    2.5939    1.3463 C   0  0  0  0  0  0  0  0  0  0  0  0
    1.2316    2.3902   -0.1145 C   0  0  0  0  0  0  0  0  0  0  0  0
    0.5790    1.0839   -0.3959 C   0  0  0  0  0  0  0  0  0  0  0  0
   -0.7546    0.8284   -0.0584 C   0  0  0  0  0  0  0  0  0  0  0  0
   -1.6609    1.7647    0.6190 C   0  0  0  0  0  0  0  0  0  0  0  0
   -1.7477    1.7945    1.8709 O   0  0  0  0  0  0  0  0  0  0  0  0
   -2.4924    2.6941   -0.1508 C   0  0  0  0  0  0  0  0  0  0  0  0
   -3.3733    3.6062    0.4909 N   0  0  0  0  0  0  0  0  0  0  0  0
   -2.4103    2.6684   -1.3997 O   0  0  0  0  0  0  0  0  0  0  0  0
   -1.0611   -0.4479   -0.4719 C   0  0  0  0  0  0  0  0  0  0  0  0
   -2.2096   -1.2165   -0.4104 C   0  0  0  0  0  0  0  0  0  0  0  0
   -3.3678   -0.6936    0.1843 O   0  0  0  0  0  0  0  0  0  0  0  0
   -4.5399   -1.4881    0.2430 C   0  0  0  0  0  0  0  0  0  0  0  0
   -5.6270   -0.7484    0.9036 C   0  0  0  0  0  0  0  0  0  0  0  0
   -5.4040    0.5373    1.3587 O   0  0  0  0  0  0  0  0  0  0  0  0
   -6.7580   -1.2805    1.0561 O   0  0  0  0  0  0  0  0  0  0  0  0
   -2.1970   -2.4876   -0.9360 C   0  0  0  0  0  0  0  0  0  0  0  0
   -1.0545   -2.9859   -1.5155 C   0  0  0  0  0  0  0  0  0  0  0  0
    0.0810   -2.2211   -1.5740 C   0  0  0  0  0  0  0  0  0  0  0  0
    0.1000   -0.9407   -1.0541 C   0  0  0  0  0  0  0  0  0  0  0  0
    1.0888   -0.0010   -1.0010 N   0  0  0  0  0  0  0  0  0  0  0  0
    2.4035   -0.1840   -1.5265 C   0  0  0  0  0  0  0  0  0  0  0  0
    3.4196   -0.7157   -0.6031 C   0  0  0  0  0  0  0  0  0  0  0  0
    3.6545   -2.0636   -0.4306 C   0  0  0  0  0  0  0  0  0  0  0  0
    4.6407   -2.5315    0.4547 C   0  0  0  0  0  0  0  0  0  0  0  0
    5.4189   -1.6693    1.1906 C   0  0  0  0  0  0  0  0  0  0  0  0
    5.1956   -0.3267    1.0277 C   0  0  0  0  0  0  0  0  0  0  0  0
    4.2369    0.1140    0.1669 C   0  0  0  0  0  0  0  0  0  0  0  0
    2.6524    2.8010    1.4141 H   0  0  0  0  0  0  0  0  0  0  0  0
    1.0249    3.4672    1.7772 H   0  0  0  0  0  0  0  0  0  0  0  0
    1.3002    1.6632    1.8777 H   0  0  0  0  0  0  0  0  0  0  0  0
    0.5874    3.2322   -0.4352 H   0  0  0  0  0  0  0  0  0  0  0  0
    2.1536    2.4698   -0.7557 H   0  0  0  0  0  0  0  0  0  0  0  0
   -4.3639    3.4363    0.6858 H   0  0  0  0  0  0  0  0  0  0  0  0
   -2.9639    4.5228    0.7831 H   0  0  0  0  0  0  0  0  0  0  0  0
   -4.8680   -1.7258   -0.8094 H   0  0  0  0  0  0  0  0  0  0  0  0
   -4.3288   -2.4634    0.7272 H   0  0  0  0  0  0  0  0  0  0  0  0
   -5.9664    1.3337    1.0917 H   0  0  0  0  0  0  0  0  0  0  0  0
   -3.1234   -3.0668   -0.8696 H   0  0  0  0  0  0  0  0  0  0  0  0
   -1.0424   -3.9898   -1.9318 H   0  0  0  0  0  0  0  0  0  0  0  0
    0.9680   -2.6586   -2.0525 H   0  0  0  0  0  0  0  0  0  0  0  0
    2.7802    0.7494   -2.0479 H   0  0  0  0  0  0  0  0  0  0  0  0
    2.3334   -0.9181   -2.3874 H   0  0  0  0  0  0  0  0  0  0  0  0
    3.0689   -2.7836   -0.9982 H   0  0  0  0  0  0  0  0  0  0  0  0
    4.7716   -3.6025    0.5411 H   0  0  0  0  0  0  0  0  0  0  0  0
    6.1641   -2.0742    1.8582 H   0  0  0  0  0  0  0  0  0  0  0  0
    5.8213    0.3567    1.6193 H   0  0  0  0  0  0  0  0  0  0  0  0
    4.0860    1.1769    0.0546 H   0  0  0  0  0  0  0  0  0  0  0  0
  1  2  1  0
  2  3  1  0
  3  4  2  0
  4  5  1  0
  5  6  2  0
  5  7  1  0
  7  8  1  0
  7  9  2  0
  4 10  1  0
 10 11  2  0
 11 12  1  0
 12 13  1  0
 13 14  1  0
 14 15  1  0
 14 16  2  0
 11 17  1  0
 17 18  2  0
 18 19  1  0
 19 20  2  0
 20 21  1  0
 21 22  1  0
 22 23  1  0
 23 24  2  0
 24 25  1  0
 25 26  2  0
 26 27  1  0
 27 28  2  0
 21  3  1  0
 28 23  1  0
 20 10  1  0
  1 29  1  0
  1 30  1  0
  1 31  1  0
  2 32  1  0
  2 33  1  0
  8 34  1  0
  8 35  1  0
 13 36  1  0
 13 37  1  0
 15 38  1  0
 17 39  1  0
 18 40  1  0
 19 41  1  0
 22 42  1  0
 22 43  1  0
 24 44  1  0
 25 45  1  0
 26 46  1  0
 27 47  1  0
 28 48  1  0
M  END
$$$$
[H]OC(=O)C1([H])C([H])([H])C([H])([H])N(C(=O)C([H])([H])n2c(C([H])([H])C([H])([H])[H])nc3c([H])c([H])c([H])c([H])c32)C([H])([H])C1([H])[H]
     RDKit          3D

 44 46  0  0  0  0  0  0  0  0999 V2000
   -3.5519   -2.7866    0.8235 C   0  0  0  0  0  0  0  0  0  0  0  0
   -2.9716   -1.6609    1.6507 C   0  0  0  0  0  0  0  0  0  0  0  0
   -3.0883   -0.3537    0.9126 C   0  0  0  0  0  0  0  0  0  0  0  0
   -4.1064    0.5232    0.9551 N   0  0  0  0  0  0  0  0  0  0  0  0
   -3.8149    1.5620    0.1487 C   0  0  0  0  0  0  0  0  0  0  0  0
   -4.5083    2.7212   -0.1684 C   0  0  0  0  0  0  0  0  0  0  0  0
   -3.9305    3.6082   -1.0453 C   0  0  0  0  0  0  0  0  0  0  0  0
   -2.6951    3.3989   -1.6233 C   0  0  0  0  0  0  0  0  0  0  0  0
   -2.0022    2.2514   -1.3132 C   0  0  0  0  0  0  0  0  0  0  0  0
   -2.5766    1.3462   -0.4271 C   0  0  0  0  0  0  0  0  0  0  0  0
   -2.1701    0.1578    0.0721 N   0  0  0  0  0  0  0  0  0  0  0  0
   -0.9104   -0.4632   -0.2663 C   0  0  0  0  0  0  0  0  0  0  0  0
    0.1726   -0.0402    0.6722 C   0  0  0  0  0  0  0  0  0  0  0  0
   -0.0524    0.7597    1.6179 O   0  0  0  0  0  0  0  0  0  0  0  0
    1.5001   -0.5278    0.5299 N   0  0  0  0  0  0  0  0  0  0  0  0
    1.8497   -1.4462   -0.5226 C   0  0  0  0  0  0  0  0  0  0  0  0
    3.2937   -1.5257   -0.8244 C   0  0  0  0  0  0  0  0  0  0  0  0
    4.1155   -0.3402   -0.5319 C   0  0  0  0  0  0  0  0  0  0  0  0
    3.6026    0.5502    0.5646 C   0  0  0  0  0  0  0  0  0  0  0  0
    2.5616   -0.1272    1.4317 C   0  0  0  0  0  0  0  0  0  0  0  0
    5.5102   -0.7115   -0.1784 C   0  0  0  0  0  0  0  0  0  0  0  0
    6.4795    0.2260    0.1390 O   0  0  0  0  0  0  0  0  0  0  0  0
    5.8084   -1.9355   -0.1717 O   0  0  0  0  0  0  0  0  0  0  0  0
   -2.9328   -3.6839    0.8132 H   0  0  0  0  0  0  0  0  0  0  0  0
   -3.6345   -2.4087   -0.2373 H   0  0  0  0  0  0  0  0  0  0  0  0
   -4.6042   -3.0091    1.1261 H   0  0  0  0  0  0  0  0  0  0  0  0
   -1.9196   -1.8612    1.9119 H   0  0  0  0  0  0  0  0  0  0  0  0
   -3.5499   -1.5885    2.5736 H   0  0  0  0  0  0  0  0  0  0  0  0
   -5.4876    2.8884    0.2891 H   0  0  0  0  0  0  0  0  0  0  0  0
   -4.4619    4.5208   -1.3031 H   0  0  0  0  0  0  0  0  0  0  0  0
   -2.2683    4.1108   -2.3060 H   0  0  0  0  0  0  0  0  0  0  0  0
   -1.0297    2.0145   -1.7238 H   0  0  0  0  0  0  0  0  0  0  0  0
   -0.9922   -1.5678   -0.1878 H   0  0  0  0  0  0  0  0  0  0  0  0
   -0.6496   -0.2447   -1.3209 H   0  0  0  0  0  0  0  0  0  0  0  0
    1.2089   -1.1848   -1.4080 H   0  0  0  0  0  0  0  0  0  0  0  0
    1.4927   -2.4572   -0.2070 H   0  0  0  0  0  0  0  0  0  0  0  0
    3.3973   -1.7599   -1.9258 H   0  0  0  0  0  0  0  0  0  0  0  0
    3.7720   -2.4168   -0.3223 H   0  0  0  0  0  0  0  0  0  0  0  0
    4.2040    0.3124   -1.4491 H   0  0  0  0  0  0  0  0  0  0  0  0
    4.4014    0.9321    1.2338 H   0  0  0  0  0  0  0  0  0  0  0  0
    3.1047    1.4687    0.1438 H   0  0  0  0  0  0  0  0  0  0  0  0
    2.2051    0.6223    2.1602 H   0  0  0  0  0  0  0  0  0  0  0  0
    2.9649   -1.0434    1.8945 H   0  0  0  0  0  0  0  0  0  0  0  0
    6.2641    1.1699    0.4365 H   0  0  0  0  0  0  0  0  0  0  0  0
  1  2  1  0
  2  3  1  0
  3  4  2  0
  4  5  1  0
  5  6  2  0
  6  7  1  0
  7  8  2  0
  8  9  1  0
  9 10  2  0
 10 11  1  0
 11 12  1  0
 12 13  1  0
 13 14  2  0
 13 15  1  0
 15 16  1  0
 16 17  1  0
 17 18  1  0
 18 19  1  0
 19 20  1  0
 18 21  1  0
 21 22  1  0
 21 23  2  0
 11  3  1  0
 20 15  1  0
 10  5  1  0
  1 24  1  0
  1 25  1  0
  1 26  1  0
  2 27  1  0
  2 28  1  0
  6 29  1  0
  7 30  1  0
  8 31  1  0
  9 32  1  0
 12 33  1  0
 12 34  1  0
 16 35  1  0
 16 36  1  0
 17 37  1  0
 17 38  1  0
 18 39  1  0
 19 40  1  0
 19 41  1  0
 20 42  1  0
 20 43  1  0
 22 44  1  0
M  END
$$$$
[H]c1c([H])c(N([H])C(=O)c2c(C([H])([H])[H])c(C(=O)C(=O)N([H])C3(C#N)C([H])([H])C(F)(F)C3([H])[H])c3n2C([H])([H])C([H])([H])C3([H])[H])c([H])c(C([H])(F)F)c1F
     RDKit          3D

 54 57  0  0  0  0  0  0  0  0999 V2000
   -0.3457    0.1957   -2.3241 C   0  0  0  0  0  0  0  0  0  0  0  0
   -0.2228   -0.4263   -0.9623 C   0  0  0  0  0  0  0  0  0  0  0  0
   -1.2372   -1.0827   -0.3155 C   0  0  0  0  0  0  0  0  0  0  0  0
   -2.5912   -1.2947   -0.8149 C   0  0  0  0  0  0  0  0  0  0  0  0
   -2.8275   -2.3298   -1.4818 O   0  0  0  0  0  0  0  0  0  0  0  0
   -3.6889   -0.3648   -0.5798 C   0  0  0  0  0  0  0  0  0  0  0  0
   -3.4273    0.6527    0.0837 O   0  0  0  0  0  0  0  0  0  0  0  0
   -4.9750   -0.6023   -1.0751 N   0  0  0  0  0  0  0  0  0  0  0  0
   -6.0767    0.2755   -0.8812 C   0  0  0  0  0  0  0  0  0  0  0  0
   -6.4264    0.6182    0.5532 C   0  0  0  0  0  0  0  0  0  0  0  0
   -6.5445    2.0755    0.1051 C   0  0  0  0  0  0  0  0  0  0  0  0
   -5.8234    2.9392    0.8810 F   0  0  0  0  0  0  0  0  0  0  0  0
   -7.8590    2.4353   -0.1313 F   0  0  0  0  0  0  0  0  0  0  0  0
   -5.8108    1.6960   -1.1889 C   0  0  0  0  0  0  0  0  0  0  0  0
   -7.3080   -0.1604   -1.6118 C   0  0  0  0  0  0  0  0  0  0  0  0
   -8.2528   -0.4834   -2.1898 N   0  0  0  0  0  0  0  0  0  0  0  0
   -0.6993   -1.4949    0.9013 C   0  0  0  0  0  0  0  0  0  0  0  0
   -1.1572   -2.2394    2.1051 C   0  0  0  0  0  0  0  0  0  0  0  0
   -0.0291   -2.1012    3.0551 C   0  0  0  0  0  0  0  0  0  0  0  0
    1.1368   -1.5559    2.3043 C   0  0  0  0  0  0  0  0  0  0  0  0
    0.5751   -1.1192    1.0104 N   0  0  0  0  0  0  0  0  0  0  0  0
    0.8846   -0.4612   -0.1265 C   0  0  0  0  0  0  0  0  0  0  0  0
    2.1665    0.1513   -0.4945 C   0  0  0  0  0  0  0  0  0  0  0  0
    2.2221    0.7496   -1.5942 O   0  0  0  0  0  0  0  0  0  0  0  0
    3.2900    0.0881    0.3191 N   0  0  0  0  0  0  0  0  0  0  0  0
    4.5314    0.6504    0.0446 C   0  0  0  0  0  0  0  0  0  0  0  0
    4.7576    1.6542   -0.8319 C   0  0  0  0  0  0  0  0  0  0  0  0
    6.0546    2.1532   -1.0729 C   0  0  0  0  0  0  0  0  0  0  0  0
    7.1209    1.6103   -0.4022 C   0  0  0  0  0  0  0  0  0  0  0  0
    8.3910    2.0620   -0.6045 F   0  0  0  0  0  0  0  0  0  0  0  0
    6.9289    0.5912    0.4950 C   0  0  0  0  0  0  0  0  0  0  0  0
    5.6543    0.1273    0.7070 C   0  0  0  0  0  0  0  0  0  0  0  0
    8.0785    0.0026    1.2215 C   0  0  0  0  0  0  0  0  0  0  0  0
    8.1540   -1.3594    1.0162 F   0  0  0  0  0  0  0  0  0  0  0  0
    7.9253    0.1880    2.5917 F   0  0  0  0  0  0  0  0  0  0  0  0
   -0.2064    1.2769   -2.3079 H   0  0  0  0  0  0  0  0  0  0  0  0
   -1.2934   -0.0700   -2.7979 H   0  0  0  0  0  0  0  0  0  0  0  0
    0.4539   -0.2998   -2.9506 H   0  0  0  0  0  0  0  0  0  0  0  0
   -5.1654   -1.4806   -1.6300 H   0  0  0  0  0  0  0  0  0  0  0  0
   -7.4112    0.2181    0.8605 H   0  0  0  0  0  0  0  0  0  0  0  0
   -5.6252    0.4399    1.2799 H   0  0  0  0  0  0  0  0  0  0  0  0
   -4.7785    2.0744   -1.2284 H   0  0  0  0  0  0  0  0  0  0  0  0
   -6.3534    2.1185   -2.0735 H   0  0  0  0  0  0  0  0  0  0  0  0
   -1.2933   -3.3311    1.8821 H   0  0  0  0  0  0  0  0  0  0  0  0
   -2.1310   -1.8715    2.4675 H   0  0  0  0  0  0  0  0  0  0  0  0
    0.2911   -3.0520    3.5374 H   0  0  0  0  0  0  0  0  0  0  0  0
   -0.3690   -1.4235    3.8912 H   0  0  0  0  0  0  0  0  0  0  0  0
    1.9205   -2.2793    2.0891 H   0  0  0  0  0  0  0  0  0  0  0  0
    1.4998   -0.6582    2.8873 H   0  0  0  0  0  0  0  0  0  0  0  0
    3.1870   -0.4381    1.2316 H   0  0  0  0  0  0  0  0  0  0  0  0
    3.9677    2.1525   -1.3918 H   0  0  0  0  0  0  0  0  0  0  0  0
    6.2049    2.9648   -1.7878 H   0  0  0  0  0  0  0  0  0  0  0  0
    5.5340   -0.6879    1.4302 H   0  0  0  0  0  0  0  0  0  0  0  0
    8.9992    0.5061    0.9148 H   0  0  0  0  0  0  0  0  0  0  0  0
  1  2  1  0
  2  3  1  0
  3  4  1  0
  4  5  2  0
  4  6  1  0
  6  7  2  0
  6  8  1  0
  8  9  1  0
  9 10  1  0
 10 11  1  0
 11 12  1  0
 11 13  1  0
 11 14  1  0
  9 15  1  0
 15 16  3  0
  3 17  2  0
 17 18  1  0
 18 19  1  0
 19 20  1  0
 20 21  1  0
 21 22  1  0
 22 23  1  0
 23 24  2  0
 23 25  1  0
 25 26  1  0
 26 27  2  0
 27 28  1  0
 28 29  2  0
 29 30  1  0
 29 31  1  0
 31 32  2  0
 31 33  1  0
 33 34  1  0
 33 35  1  0
 22  2  2  0
 32 26  1  0
 14  9  1  0
 21 17  1  0
  1 36  1  0
  1 37  1  0
  1 38  1  0
  8 39  1  0
 10 40  1  0
 10 41  1  0
 14 42  1  0
 14 43  1  0
 18 44  1  0
 18 45  1  0
 19 46  1  0
 19 47  1  0
 20 48  1  0
 20 49  1  0
 25 50  1  0
 27 51  1  0
 28 52  1  0
 32 53  1  0
 33 54  1  0
M  END
$$$$
[H]c1nc2c(-c3c([H])c([H])c([H])c4c([H])c([H])c([H])c([H])c34)c([H])nn2c([H])c1-c1c([H])c([H])c2nc(C([H])([H])[H])n(C3([H])C([H])([H])C([H])([H])N([H])C([H])([H])C3([H])[H])c2c1[H]
     RDKit          3D

 61 67  0  0  0  0  0  0  0  0999 V2000
   -6.4620   -2.3669    0.2743 C   0  0  0  0  0  0  0  0  0  0  0  0
   -4.9898   -2.2106    0.3598 C   0  0  0  0  0  0  0  0  0  0  0  0
   -4.1295   -3.2214    0.6130 N   0  0  0  0  0  0  0  0  0  0  0  0
   -2.8738   -2.7598    0.6160 C   0  0  0  0  0  0  0  0  0  0  0  0
   -1.6685   -3.3855    0.8141 C   0  0  0  0  0  0  0  0  0  0  0  0
   -0.5264   -2.6452    0.7491 C   0  0  0  0  0  0  0  0  0  0  0  0
   -0.5732   -1.2796    0.4879 C   0  0  0  0  0  0  0  0  0  0  0  0
   -1.8037   -0.7084    0.2992 C   0  0  0  0  0  0  0  0  0  0  0  0
   -2.9887   -1.4054    0.3527 C   0  0  0  0  0  0  0  0  0  0  0  0
   -4.2899   -1.0663    0.1945 N   0  0  0  0  0  0  0  0  0  0  0  0
   -4.8024    0.2483   -0.0996 C   0  0  0  0  0  0  0  0  0  0  0  0
   -5.6702    0.8565    0.9416 C   0  0  0  0  0  0  0  0  0  0  0  0
   -6.9413    1.3572    0.2682 C   0  0  0  0  0  0  0  0  0  0  0  0
   -6.6383    2.3034   -0.7607 N   0  0  0  0  0  0  0  0  0  0  0  0
   -5.6994    1.8186   -1.7370 C   0  0  0  0  0  0  0  0  0  0  0  0
   -5.4462    0.3432   -1.4687 C   0  0  0  0  0  0  0  0  0  0  0  0
    0.6692   -0.5189    0.3878 C   0  0  0  0  0  0  0  0  0  0  0  0
    1.7816   -1.1507   -0.1311 C   0  0  0  0  0  0  0  0  0  0  0  0
    2.9486   -0.4638   -0.2457 N   0  0  0  0  0  0  0  0  0  0  0  0
    3.0568    0.8301    0.1356 C   0  0  0  0  0  0  0  0  0  0  0  0
    4.1539    1.6890    0.0910 C   0  0  0  0  0  0  0  0  0  0  0  0
    3.6754    2.8756    0.6063 C   0  0  0  0  0  0  0  0  0  0  0  0
    2.3777    2.6902    0.9215 N   0  0  0  0  0  0  0  0  0  0  0  0
    1.9873    1.4600    0.6428 N   0  0  0  0  0  0  0  0  0  0  0  0
    0.8069    0.7966    0.7684 C   0  0  0  0  0  0  0  0  0  0  0  0
    5.4821    1.4006   -0.4068 C   0  0  0  0  0  0  0  0  0  0  0  0
    5.9562    1.9422   -1.5972 C   0  0  0  0  0  0  0  0  0  0  0  0
    7.2028    1.6751   -2.1081 C   0  0  0  0  0  0  0  0  0  0  0  0
    8.0389    0.8185   -1.4007 C   0  0  0  0  0  0  0  0  0  0  0  0
    7.6020    0.2725   -0.2299 C   0  0  0  0  0  0  0  0  0  0  0  0
    8.4596   -0.5824    0.4598 C   0  0  0  0  0  0  0  0  0  0  0  0
    8.0812   -1.1639    1.6449 C   0  0  0  0  0  0  0  0  0  0  0  0
    6.8293   -0.8781    2.1341 C   0  0  0  0  0  0  0  0  0  0  0  0
    5.9562   -0.0288    1.4639 C   0  0  0  0  0  0  0  0  0  0  0  0
    6.3221    0.5578    0.2789 C   0  0  0  0  0  0  0  0  0  0  0  0
   -6.8481   -2.3693   -0.7701 H   0  0  0  0  0  0  0  0  0  0  0  0
   -7.0240   -1.6986    0.9550 H   0  0  0  0  0  0  0  0  0  0  0  0
   -6.7105   -3.3936    0.6568 H   0  0  0  0  0  0  0  0  0  0  0  0
   -1.6322   -4.4495    1.0201 H   0  0  0  0  0  0  0  0  0  0  0  0
    0.4314   -3.1122    0.9026 H   0  0  0  0  0  0  0  0  0  0  0  0
   -1.8453    0.3496    0.0985 H   0  0  0  0  0  0  0  0  0  0  0  0
   -3.8968    0.9297   -0.1961 H   0  0  0  0  0  0  0  0  0  0  0  0
   -5.8912    0.2152    1.8154 H   0  0  0  0  0  0  0  0  0  0  0  0
   -5.1821    1.7675    1.4044 H   0  0  0  0  0  0  0  0  0  0  0  0
   -7.6047    0.5357   -0.0671 H   0  0  0  0  0  0  0  0  0  0  0  0
   -7.5113    1.8725    1.0726 H   0  0  0  0  0  0  0  0  0  0  0  0
   -7.5432    2.6359   -1.1949 H   0  0  0  0  0  0  0  0  0  0  0  0
   -6.1917    1.9528   -2.7446 H   0  0  0  0  0  0  0  0  0  0  0  0
   -4.7633    2.4140   -1.6883 H   0  0  0  0  0  0  0  0  0  0  0  0
   -6.4146   -0.1579   -1.5524 H   0  0  0  0  0  0  0  0  0  0  0  0
   -4.7737   -0.0723   -2.2505 H   0  0  0  0  0  0  0  0  0  0  0  0
    1.7436   -2.1640   -0.4419 H   0  0  0  0  0  0  0  0  0  0  0  0
    4.2664    3.7958    0.7282 H   0  0  0  0  0  0  0  0  0  0  0  0
   -0.0537    1.2948    1.1725 H   0  0  0  0  0  0  0  0  0  0  0  0
    5.2696    2.6019   -2.1128 H   0  0  0  0  0  0  0  0  0  0  0  0
    7.5482    2.1064   -3.0316 H   0  0  0  0  0  0  0  0  0  0  0  0
    9.0266    0.5953   -1.7901 H   0  0  0  0  0  0  0  0  0  0  0  0
    9.4475   -0.7753    0.0237 H   0  0  0  0  0  0  0  0  0  0  0  0
    8.7740   -1.8358    2.1684 H   0  0  0  0  0  0  0  0  0  0  0  0
    6.5120   -1.3283    3.0689 H   0  0  0  0  0  0  0  0  0  0  0  0
    4.9825    0.1898    1.8661 H   0  0  0  0  0  0  0  0  0  0  0  0
  1  2  1  0
  2  3  2  0
  3  4  1  0
  4  5  2  0
  5  6  1  0
  6  7  2  0
  7  8  1  0
  8  9  2  0
  9 10  1  0
 10 11  1  0
 11 12  1  0
 12 13  1  0
 13 14  1  0
 14 15  1  0
 15 16  1  0
  7 17  1  0
 17 18  1  0
 18 19  2  0
 19 20  1  0
 20 21  2  0
 21 22  1  0
 22 23  2  0
 23 24  1  0
 24 25  1  0
 21 26  1  0
 26 27  2  0
 27 28  1  0
 28 29  2  0
 29 30  1  0
 30 31  2  0
 31 32  1  0
 32 33  2  0
 33 34  1  0
 34 35  2  0
 10  2  1  0
 16 11  1  0
 25 17  2  0
 35 26  1  0
  9  4  1  0
 24 20  1  0
 35 30  1  0
  1 36  1  0
  1 37  1  0
  1 38  1  0
  5 39  1  0
  6 40  1  0
  8 41  1  0
 11 42  1  0
 12 43  1  0
 12 44  1  0
 13 45  1  0
 13 46  1  0
 14 47  1  0
 15 48  1  0
 15 49  1  0
 16 50  1  0
 16 51  1  0
 18 52  1  0
 22 53  1  0
 25 54  1  0
 27 55  1  0
 28 56  1  0
 29 57  1  0
 31 58  1  0
 32 59  1  0
 33 60  1  0
 34 61  1  0
M  END
$$$$
[H]c1c([H])c([H])c(C([H])([H])OC(=O)N([H])[C@]([H])(C(=O)N2[C@@]([H])(C([H])([H])[H])C(=O)O[C@]([H])(C([H])([H])[H])[C@@]2([H])OC(=O)C([H])([H])C([H])([H])C([H])([H])C([H])([H])[H])C([H])([H])C([H])(C([H])([H])[H])C([H])([H])[H])c([H])c1[H]
     RDKit          3D

 70 71  0  0  0  0  0  0  0  0999 V2000
   -5.9500    3.7542    0.5153 C   0  0  0  0  0  0  0  0  0  0  0  0
   -4.9992    3.9202   -0.6495 C   0  0  0  0  0  0  0  0  0  0  0  0
   -3.5696    3.9502   -0.2337 C   0  0  0  0  0  0  0  0  0  0  0  0
   -3.0665    2.7437    0.4741 C   0  0  0  0  0  0  0  0  0  0  0  0
   -3.1331    1.4875   -0.2855 C   0  0  0  0  0  0  0  0  0  0  0  0
   -3.5598    1.4972   -1.4663 O   0  0  0  0  0  0  0  0  0  0  0  0
   -2.7420    0.2611    0.2455 O   0  0  0  0  0  0  0  0  0  0  0  0
   -2.8371   -0.8811   -0.5352 C   0  0  2  0  0  0  0  0  0  0  0  0
   -3.8822   -1.8406    0.0296 C   0  0  1  0  0  0  0  0  0  0  0  0
   -4.9897   -2.1364   -0.9382 C   0  0  0  0  0  0  0  0  0  0  0  0
   -3.2931   -3.0384    0.5519 O   0  0  0  0  0  0  0  0  0  0  0  0
   -2.3922   -3.7441   -0.2529 C   0  0  0  0  0  0  0  0  0  0  0  0
   -2.1060   -4.9371   -0.1123 O   0  0  0  0  0  0  0  0  0  0  0  0
   -1.7917   -2.8952   -1.3297 C   0  0  2  0  0  0  0  0  0  0  0  0
   -0.7195   -3.5624   -2.0481 C   0  0  0  0  0  0  0  0  0  0  0  0
   -1.5596   -1.6217   -0.6838 N   0  0  0  0  0  0  0  0  0  0  0  0
   -0.3456   -1.0820   -0.2562 C   0  0  0  0  0  0  0  0  0  0  0  0
   -0.4272    0.1563    0.1403 O   0  0  0  0  0  0  0  0  0  0  0  0
    0.9862   -1.6487   -0.1725 C   0  0  2  0  0  0  0  0  0  0  0  0
    1.2441   -2.6327    0.9337 C   0  0  0  0  0  0  0  0  0  0  0  0
    1.0956   -2.1701    2.3253 C   0  0  0  0  0  0  0  0  0  0  0  0
    1.4330   -3.3249    3.3083 C   0  0  0  0  0  0  0  0  0  0  0  0
   -0.2768   -1.7214    2.7558 C   0  0  0  0  0  0  0  0  0  0  0  0
    1.9854   -0.5713    0.1182 N   0  0  0  0  0  0  0  0  0  0  0  0
    3.0719   -0.3750   -0.7521 C   0  0  0  0  0  0  0  0  0  0  0  0
    3.2013   -1.1099   -1.7819 O   0  0  0  0  0  0  0  0  0  0  0  0
    4.0455    0.5883   -0.5687 O   0  0  0  0  0  0  0  0  0  0  0  0
    5.1203    0.7435   -1.4788 C   0  0  0  0  0  0  0  0  0  0  0  0
    6.0155    1.8611   -1.0139 C   0  0  0  0  0  0  0  0  0  0  0  0
    7.1245    2.2292   -1.7501 C   0  0  0  0  0  0  0  0  0  0  0  0
    7.9473    3.2521   -1.3248 C   0  0  0  0  0  0  0  0  0  0  0  0
    7.6906    3.9430   -0.1490 C   0  0  0  0  0  0  0  0  0  0  0  0
    6.5848    3.5749    0.5834 C   0  0  0  0  0  0  0  0  0  0  0  0
    5.7739    2.5539    0.1476 C   0  0  0  0  0  0  0  0  0  0  0  0
   -6.0729    2.6605    0.7320 H   0  0  0  0  0  0  0  0  0  0  0  0
   -6.9638    4.1470    0.2994 H   0  0  0  0  0  0  0  0  0  0  0  0
   -5.5895    4.2458    1.4317 H   0  0  0  0  0  0  0  0  0  0  0  0
   -5.2752    3.2199   -1.4322 H   0  0  0  0  0  0  0  0  0  0  0  0
   -5.2428    4.9423   -1.0685 H   0  0  0  0  0  0  0  0  0  0  0  0
   -3.4253    4.8462    0.4057 H   0  0  0  0  0  0  0  0  0  0  0  0
   -2.9738    4.1676   -1.1695 H   0  0  0  0  0  0  0  0  0  0  0  0
   -1.9898    2.9532    0.7423 H   0  0  0  0  0  0  0  0  0  0  0  0
   -3.6339    2.6563    1.4298 H   0  0  0  0  0  0  0  0  0  0  0  0
   -3.2033   -0.6205   -1.5439 H   0  0  0  0  0  0  0  0  0  0  0  0
   -4.3424   -1.3305    0.9003 H   0  0  0  0  0  0  0  0  0  0  0  0
   -4.8297   -1.6724   -1.9354 H   0  0  0  0  0  0  0  0  0  0  0  0
   -5.9848   -1.7844   -0.5865 H   0  0  0  0  0  0  0  0  0  0  0  0
   -5.0868   -3.2500   -1.0589 H   0  0  0  0  0  0  0  0  0  0  0  0
   -2.6625   -2.7483   -2.0912 H   0  0  0  0  0  0  0  0  0  0  0  0
   -1.2115   -4.3250   -2.7427 H   0  0  0  0  0  0  0  0  0  0  0  0
   -0.0076   -4.0699   -1.3914 H   0  0  0  0  0  0  0  0  0  0  0  0
   -0.1373   -2.8520   -2.6971 H   0  0  0  0  0  0  0  0  0  0  0  0
    1.3261   -2.1000   -1.1005 H   0  0  0  0  0  0  0  0  0  0  0  0
    2.3299   -2.9314    0.8058 H   0  0  0  0  0  0  0  0  0  0  0  0
    0.6985   -3.5940    0.8230 H   0  0  0  0  0  0  0  0  0  0  0  0
    1.8386   -1.3712    2.5992 H   0  0  0  0  0  0  0  0  0  0  0  0
    0.5909   -4.0413    3.3458 H   0  0  0  0  0  0  0  0  0  0  0  0
    1.6628   -2.9192    4.3040 H   0  0  0  0  0  0  0  0  0  0  0  0
    2.3314   -3.8117    2.9158 H   0  0  0  0  0  0  0  0  0  0  0  0
   -0.4650   -2.0393    3.8403 H   0  0  0  0  0  0  0  0  0  0  0  0
   -0.3500   -0.5962    2.8547 H   0  0  0  0  0  0  0  0  0  0  0  0
   -1.1027   -2.1741    2.2094 H   0  0  0  0  0  0  0  0  0  0  0  0
    1.8230   -0.0082    0.9683 H   0  0  0  0  0  0  0  0  0  0  0  0
    5.7481   -0.1668   -1.5241 H   0  0  0  0  0  0  0  0  0  0  0  0
    4.7522    0.9546   -2.4925 H   0  0  0  0  0  0  0  0  0  0  0  0
    7.3608    1.7153   -2.6739 H   0  0  0  0  0  0  0  0  0  0  0  0
    8.8309    3.5656   -1.8839 H   0  0  0  0  0  0  0  0  0  0  0  0
    8.3317    4.7456    0.1887 H   0  0  0  0  0  0  0  0  0  0  0  0
    6.3529    4.0930    1.5084 H   0  0  0  0  0  0  0  0  0  0  0  0
    4.8942    2.2702    0.7419 H   0  0  0  0  0  0  0  0  0  0  0  0
  1  2  1  0
  2  3  1  0
  3  4  1  0
  4  5  1  0
  5  6  2  0
  5  7  1  0
  7  8  1  0
  8  9  1  0
  9 10  1  0
  9 11  1  0
 11 12  1  0
 12 13  2  0
 12 14  1  0
 14 15  1  0
 14 16  1  0
 16 17  1  0
 17 18  2  0
 17 19  1  0
 19 20  1  0
 20 21  1  0
 21 22  1  0
 21 23  1  0
 19 24  1  0
 24 25  1  0
 25 26  2  0
 25 27  1  0
 27 28  1  0
 28 29  1  0
 29 30  2  0
 30 31  1  0
 31 32  2  0
 32 33  1  0
 33 34  2  0
 16  8  1  0
 34 29  1  0
  1 35  1  0
  1 36  1  0
  1 37  1  0
  2 38  1  0
  2 39  1  0
  3 40  1  0
  3 41  1  0
  4 42  1  0
  4 43  1  0
  8 44  1  6
  9 45  1  1
 10 46  1  0
 10 47  1  0
 10 48  1  0
 14 49  1  6
 15 50  1  0
 15 51  1  0
 15 52  1  0
 19 53  1  6
 20 54  1  0
 20 55  1  0
 21 56  1  0
 22 57  1  0
 22 58  1  0
 22 59  1  0
 23 60  1  0
 23 61  1  0
 23 62  1  0
 24 63  1  0
 28 64  1  0
 28 65  1  0
 30 66  1  0
 31 67  1  0
 32 68  1  0
 33 69  1  0
 34 70  1  0
M  END
$$$$
[H]c1nc(-c2c([H])c([H])c(OC([H])([H])[H])c([H])c2[H])c([H])c(-c2nc(-c3c([H])c([H])c(F)c([H])c3[H])c(C(C([H])([H])[H])(C([H])([H])[H])C([H])([H])[H])o2)c1[H]
     RDKit          3D

 53 56  0  0  0  0  0  0  0  0999 V2000
   -8.5920   -1.8304    1.8187 C   0  0  0  0  0  0  0  0  0  0  0  0
   -7.3138   -2.3318    1.5157 O   0  0  0  0  0  0  0  0  0  0  0  0
   -6.2481   -1.4669    1.3032 C   0  0  0  0  0  0  0  0  0  0  0  0
   -4.9999   -1.9690    1.0070 C   0  0  0  0  0  0  0  0  0  0  0  0
   -3.8917   -1.1520    0.7833 C   0  0  0  0  0  0  0  0  0  0  0  0
   -4.0832    0.2080    0.8687 C   0  0  0  0  0  0  0  0  0  0  0  0
   -5.3427    0.7083    1.1674 C   0  0  0  0  0  0  0  0  0  0  0  0
   -6.4309   -0.1048    1.3867 C   0  0  0  0  0  0  0  0  0  0  0  0
   -3.0120    1.1614    0.6576 C   0  0  0  0  0  0  0  0  0  0  0  0
   -1.7177    0.7337    0.3535 C   0  0  0  0  0  0  0  0  0  0  0  0
   -0.6978    1.6355    0.1520 C   0  0  0  0  0  0  0  0  0  0  0  0
   -0.9914    2.9773    0.2594 C   0  0  0  0  0  0  0  0  0  0  0  0
   -2.2862    3.3961    0.5635 C   0  0  0  0  0  0  0  0  0  0  0  0
   -3.2498    2.4901    0.7521 N   0  0  0  0  0  0  0  0  0  0  0  0
    0.6383    1.1345   -0.1634 C   0  0  0  0  0  0  0  0  0  0  0  0
    0.9755   -0.1589   -0.2769 N   0  0  0  0  0  0  0  0  0  0  0  0
    2.3082   -0.2517   -0.5798 C   0  0  0  0  0  0  0  0  0  0  0  0
    2.7435    1.0309   -0.6403 C   0  0  0  0  0  0  0  0  0  0  0  0
    1.7018    1.8404   -0.3823 O   0  0  0  0  0  0  0  0  0  0  0  0
    4.1008    1.5400   -0.9306 C   0  0  0  0  0  0  0  0  0  0  0  0
    5.1409    1.0130    0.0376 C   0  0  0  0  0  0  0  0  0  0  0  0
    4.5120    1.4932   -2.3644 C   0  0  0  0  0  0  0  0  0  0  0  0
    4.0718    3.0742   -0.6083 C   0  0  0  0  0  0  0  0  0  0  0  0
    3.0278   -1.5000   -0.6992 C   0  0  0  0  0  0  0  0  0  0  0  0
    3.7459   -1.9261   -1.7806 C   0  0  0  0  0  0  0  0  0  0  0  0
    4.4113   -3.1330   -1.7168 C   0  0  0  0  0  0  0  0  0  0  0  0
    4.3951   -3.9509   -0.6104 C   0  0  0  0  0  0  0  0  0  0  0  0
    5.0702   -5.1297   -0.6054 F   0  0  0  0  0  0  0  0  0  0  0  0
    3.6701   -3.5252    0.4830 C   0  0  0  0  0  0  0  0  0  0  0  0
    3.0135   -2.3411    0.4310 C   0  0  0  0  0  0  0  0  0  0  0  0
   -8.9071   -1.0464    1.1136 H   0  0  0  0  0  0  0  0  0  0  0  0
   -8.6826   -1.4224    2.8393 H   0  0  0  0  0  0  0  0  0  0  0  0
   -9.3270   -2.6640    1.7353 H   0  0  0  0  0  0  0  0  0  0  0  0
   -4.8512   -3.0389    0.9402 H   0  0  0  0  0  0  0  0  0  0  0  0
   -2.9266   -1.5910    0.5527 H   0  0  0  0  0  0  0  0  0  0  0  0
   -5.4735    1.7921    1.2306 H   0  0  0  0  0  0  0  0  0  0  0  0
   -7.4152    0.2881    1.6202 H   0  0  0  0  0  0  0  0  0  0  0  0
   -1.4692   -0.3135    0.2653 H   0  0  0  0  0  0  0  0  0  0  0  0
   -0.1788    3.6719    0.0982 H   0  0  0  0  0  0  0  0  0  0  0  0
   -2.4894    4.4494    0.6416 H   0  0  0  0  0  0  0  0  0  0  0  0
    5.7048    0.2110   -0.5225 H   0  0  0  0  0  0  0  0  0  0  0  0
    4.7070    0.6365    0.9645 H   0  0  0  0  0  0  0  0  0  0  0  0
    5.8997    1.7785    0.3002 H   0  0  0  0  0  0  0  0  0  0  0  0
    5.2821    0.7081   -2.5678 H   0  0  0  0  0  0  0  0  0  0  0  0
    4.9314    2.4293   -2.7662 H   0  0  0  0  0  0  0  0  0  0  0  0
    3.6150    1.2224   -2.9615 H   0  0  0  0  0  0  0  0  0  0  0  0
    5.0166    3.4889   -0.9685 H   0  0  0  0  0  0  0  0  0  0  0  0
    3.8434    3.2341    0.4437 H   0  0  0  0  0  0  0  0  0  0  0  0
    3.2253    3.4547   -1.2155 H   0  0  0  0  0  0  0  0  0  0  0  0
    3.7706   -1.3300   -2.7013 H   0  0  0  0  0  0  0  0  0  0  0  0
    4.9803   -3.4505   -2.5970 H   0  0  0  0  0  0  0  0  0  0  0  0
    3.6337   -4.1484    1.3790 H   0  0  0  0  0  0  0  0  0  0  0  0
    2.4416   -2.0253    1.3198 H   0  0  0  0  0  0  0  0  0  0  0  0
  1  2  1  0
  2  3  1  0
  3  4  2  0
  4  5  1  0
  5  6  2  0
  6  7  1  0
  7  8  2  0
  6  9  1  0
  9 10  2  0
 10 11  1  0
 11 12  2  0
 12 13  1  0
 13 14  2  0
 11 15  1  0
 15 16  2  0
 16 17  1  0
 17 18  2  0
 18 19  1  0
 18 20  1  0
 20 21  1  0
 20 22  1  0
 20 23  1  0
 17 24  1  0
 24 25  2  0
 25 26  1  0
 26 27  2  0
 27 28  1  0
 27 29  1  0
 29 30  2  0
  8  3  1  0
 14  9  1  0
 19 15  1  0
 30 24  1  0
  1 31  1  0
  1 32  1  0
  1 33  1  0
  4 34  1  0
  5 35  1  0
  7 36  1  0
  8 37  1  0
 10 38  1  0
 12 39  1  0
 13 40  1  0
 21 41  1  0
 21 42  1  0
 21 43  1  0
 22 44  1  0
 22 45  1  0
 22 46  1  0
 23 47  1  0
 23 48  1  0
 23 49  1  0
 25 50  1  0
 26 51  1  0
 29 52  1  0
 30 53  1  0
M  END
$$$$
[H]OC([H])([H])[C@@]([H])(O[H])[C@]1([H])n2c3c([H])c([H])c([H])c([H])c3c3c4c(c5c6c([H])c([H])c([H])c([H])c6n(c5c32)[C@]2(C(=O)OC([H])([H])[H])C([H])([H])[C@]21[H])C(=O)N([H])C4([H])[H]
     RDKit          3D

 59 66  0  0  0  0  0  0  0  0999 V2000
   -1.6374   -4.2855   -2.5225 C   0  0  0  0  0  0  0  0  0  0  0  0
   -1.6980   -3.6548   -1.2567 O   0  0  0  0  0  0  0  0  0  0  0  0
   -1.4165   -2.2828   -1.0910 C   0  0  0  0  0  0  0  0  0  0  0  0
   -1.1106   -1.7016   -2.1900 O   0  0  0  0  0  0  0  0  0  0  0  0
   -1.4764   -1.6035    0.2068 C   0  0  1  0  0  0  0  0  0  0  0  0
   -1.4534   -2.5156    1.3235 C   0  0  0  0  0  0  0  0  0  0  0  0
   -0.3539   -1.6441    1.2646 C   0  0  1  0  0  0  0  0  0  0  0  0
    0.9523   -1.5923    0.5663 C   0  0  2  0  0  0  0  0  0  0  0  0
    1.7582   -2.7720    0.5587 C   0  0  2  0  0  0  0  0  0  0  0  0
    2.2099   -3.3752    1.7232 O   0  0  0  0  0  0  0  0  0  0  0  0
    2.5971   -3.0212   -0.6587 C   0  0  0  0  0  0  0  0  0  0  0  0
    2.1079   -2.3429   -1.7417 O   0  0  0  0  0  0  0  0  0  0  0  0
    1.3879   -0.2296    0.6342 N   0  0  0  0  0  0  0  0  0  0  0  0
    2.6166    0.2595    0.8606 C   0  0  0  0  0  0  0  0  0  0  0  0
    3.8484   -0.3042    1.1728 C   0  0  0  0  0  0  0  0  0  0  0  0
    4.9265    0.5217    1.3623 C   0  0  0  0  0  0  0  0  0  0  0  0
    4.8367    1.8836    1.2570 C   0  0  0  0  0  0  0  0  0  0  0  0
    3.6115    2.4323    0.9491 C   0  0  0  0  0  0  0  0  0  0  0  0
    2.4843    1.6312    0.7469 C   0  0  0  0  0  0  0  0  0  0  0  0
    1.1835    1.9667    0.4606 C   0  0  0  0  0  0  0  0  0  0  0  0
    0.5159    3.1516    0.2694 C   0  0  0  0  0  0  0  0  0  0  0  0
    1.0420    4.5319    0.2888 C   0  0  0  0  0  0  0  0  0  0  0  0
   -0.0738    5.3648    0.0282 N   0  0  0  0  0  0  0  0  0  0  0  0
   -1.2623    4.5699   -0.1474 C   0  0  0  0  0  0  0  0  0  0  0  0
   -2.3669    5.1125   -0.3865 O   0  0  0  0  0  0  0  0  0  0  0  0
   -0.8533    3.1990    0.0103 C   0  0  0  0  0  0  0  0  0  0  0  0
   -1.5655    2.0023   -0.0549 C   0  0  0  0  0  0  0  0  0  0  0  0
   -2.8883    1.6670   -0.2539 C   0  0  0  0  0  0  0  0  0  0  0  0
   -4.0032    2.4081   -0.4901 C   0  0  0  0  0  0  0  0  0  0  0  0
   -5.2557    1.8009   -0.6580 C   0  0  0  0  0  0  0  0  0  0  0  0
   -5.3504    0.4133   -0.5800 C   0  0  0  0  0  0  0  0  0  0  0  0
   -4.2082   -0.3126   -0.3403 C   0  0  0  0  0  0  0  0  0  0  0  0
   -2.9471    0.2803   -0.1700 C   0  0  0  0  0  0  0  0  0  0  0  0
   -1.7423   -0.2316    0.0652 N   0  0  0  0  0  0  0  0  0  0  0  0
   -0.8836    0.7894    0.1385 C   0  0  0  0  0  0  0  0  0  0  0  0
    0.4921    0.7931    0.3924 C   0  0  0  0  0  0  0  0  0  0  0  0
   -2.5079   -5.0042   -2.5429 H   0  0  0  0  0  0  0  0  0  0  0  0
   -0.7268   -4.8866   -2.6540 H   0  0  0  0  0  0  0  0  0  0  0  0
   -1.7812   -3.5541   -3.3338 H   0  0  0  0  0  0  0  0  0  0  0  0
   -1.3064   -3.5882    1.1493 H   0  0  0  0  0  0  0  0  0  0  0  0
   -2.2773   -2.3773    2.0754 H   0  0  0  0  0  0  0  0  0  0  0  0
   -0.4085   -0.8417    2.0739 H   0  0  0  0  0  0  0  0  0  0  0  0
    0.6729   -1.6036   -0.5798 H   0  0  0  0  0  0  0  0  0  0  0  0
    0.9308   -3.6369    0.3496 H   0  0  0  0  0  0  0  0  0  0  0  0
    3.0607   -3.8211    1.5815 H   0  0  0  0  0  0  0  0  0  0  0  0
    3.6913   -2.8794   -0.5141 H   0  0  0  0  0  0  0  0  0  0  0  0
    2.5575   -4.1264   -0.9743 H   0  0  0  0  0  0  0  0  0  0  0  0
    2.6251   -1.5423   -2.0025 H   0  0  0  0  0  0  0  0  0  0  0  0
    3.9238   -1.3679    1.2844 H   0  0  0  0  0  0  0  0  0  0  0  0
    5.8709    0.0402    1.6037 H   0  0  0  0  0  0  0  0  0  0  0  0
    5.6924    2.5279    1.4076 H   0  0  0  0  0  0  0  0  0  0  0  0
    3.5186    3.4950    0.8625 H   0  0  0  0  0  0  0  0  0  0  0  0
    1.3934    4.7650    1.3380 H   0  0  0  0  0  0  0  0  0  0  0  0
    1.8791    4.6740   -0.4282 H   0  0  0  0  0  0  0  0  0  0  0  0
   -0.0595    6.4018   -0.0322 H   0  0  0  0  0  0  0  0  0  0  0  0
   -4.0301    3.4601   -0.5657 H   0  0  0  0  0  0  0  0  0  0  0  0
   -6.1124    2.4000   -0.8414 H   0  0  0  0  0  0  0  0  0  0  0  0
   -6.3157   -0.0577   -0.7092 H   0  0  0  0  0  0  0  0  0  0  0  0
   -4.3148   -1.3862   -0.2855 H   0  0  0  0  0  0  0  0  0  0  0  0
  1  2  1  0
  2  3  1  0
  3  4  2  0
  5  3  1  6
  5  6  1  0
  6  7  1  0
  7  8  1  0
  8  9  1  0
  9 10  1  0
  9 11  1  0
 11 12  1  0
  8 13  1  0
 13 14  1  0
 14 15  2  0
 15 16  1  0
 16 17  2  0
 17 18  1  0
 18 19  2  0
 19 20  1  0
 20 21  2  0
 21 22  1  0
 22 23  1  0
 23 24  1  0
 24 25  2  0
 24 26  1  0
 26 27  2  0
 27 28  1  0
 28 29  2  0
 29 30  1  0
 30 31  2  0
 31 32  1  0
 32 33  2  0
 33 34  1  0
 34 35  1  0
 35 36  2  0
  7  5  1  0
 36 13  1  0
 34  5  1  0
 19 14  1  0
 36 20  1  0
 26 21  1  0
 35 27  1  0
 33 28  1  0
  1 37  1  0
  1 38  1  0
  1 39  1  0
  6 40  1  0
  6 41  1  0
  7 42  1  1
  8 43  1  6
  9 44  1  6
 10 45  1  0
 11 46  1  0
 11 47  1  0
 12 48  1  0
 15 49  1  0
 16 50  1  0
 17 51  1  0
 18 52  1  0
 22 53  1  0
 22 54  1  0
 23 55  1  0
 29 56  1  0
 30 57  1  0
 31 58  1  0
 32 59  1  0
M  END
$$$$
[H]/C(C(=O)N1C([H])([H])C([H])([H])C([H])(C([H])([H])C([H])([H])Oc2c([H])c([H])c([H])c([H])c2[H])C([H])([H])C1([H])[H])=C(/[H])c1c([H])c([H])c(Cl)c([H])c1[H]
     RDKit          3D

 50 52  0  0  0  0  0  0  0  0999 V2000
    7.7341    3.7239    1.0059 Cl  0  0  0  0  0  0  0  0  0  0  0  0
    6.3595    2.7080    0.5719 C   0  0  0  0  0  0  0  0  0  0  0  0
    5.9107    2.6843   -0.7252 C   0  0  0  0  0  0  0  0  0  0  0  0
    4.8301    1.8823   -1.0534 C   0  0  0  0  0  0  0  0  0  0  0  0
    4.1869    1.1085   -0.1360 C   0  0  0  0  0  0  0  0  0  0  0  0
    3.0293    0.2314   -0.4206 C   0  0  0  0  0  0  0  0  0  0  0  0
    2.4888    0.1028   -1.6077 C   0  0  0  0  0  0  0  0  0  0  0  0
    1.3850   -0.6900   -2.0443 C   0  0  0  0  0  0  0  0  0  0  0  0
    1.1372   -0.5424   -3.3358 O   0  0  0  0  0  0  0  0  0  0  0  0
    0.5669   -1.5569   -1.3422 N   0  0  0  0  0  0  0  0  0  0  0  0
    0.5851   -1.9321    0.0327 C   0  0  0  0  0  0  0  0  0  0  0  0
   -0.4645   -2.9771    0.4043 C   0  0  0  0  0  0  0  0  0  0  0  0
   -1.8357   -2.6405   -0.1321 C   0  0  0  0  0  0  0  0  0  0  0  0
   -2.7125   -2.2462    0.9928 C   0  0  0  0  0  0  0  0  0  0  0  0
   -2.3308   -1.0890    1.8235 C   0  0  0  0  0  0  0  0  0  0  0  0
   -2.2548    0.1680    1.3134 O   0  0  0  0  0  0  0  0  0  0  0  0
   -3.1714    1.0267    0.7884 C   0  0  0  0  0  0  0  0  0  0  0  0
   -4.5190    0.7846    0.6626 C   0  0  0  0  0  0  0  0  0  0  0  0
   -5.3891    1.7032    0.1173 C   0  0  0  0  0  0  0  0  0  0  0  0
   -4.9587    2.9273   -0.3370 C   0  0  0  0  0  0  0  0  0  0  0  0
   -3.6089    3.1755   -0.2128 C   0  0  0  0  0  0  0  0  0  0  0  0
   -2.7273    2.2780    0.3250 C   0  0  0  0  0  0  0  0  0  0  0  0
   -1.7919   -1.7826   -1.3357 C   0  0  0  0  0  0  0  0  0  0  0  0
   -0.5251   -2.2169   -2.1207 C   0  0  0  0  0  0  0  0  0  0  0  0
    4.6692    1.1574    1.1698 C   0  0  0  0  0  0  0  0  0  0  0  0
    5.7421    1.9444    1.5307 C   0  0  0  0  0  0  0  0  0  0  0  0
    6.4199    3.2975   -1.4534 H   0  0  0  0  0  0  0  0  0  0  0  0
    4.5092    1.8906   -2.0754 H   0  0  0  0  0  0  0  0  0  0  0  0
    2.5970   -0.3340    0.3801 H   0  0  0  0  0  0  0  0  0  0  0  0
    3.0069    0.7355   -2.3811 H   0  0  0  0  0  0  0  0  0  0  0  0
    0.4452   -1.0597    0.6683 H   0  0  0  0  0  0  0  0  0  0  0  0
    1.6048   -2.3736    0.2351 H   0  0  0  0  0  0  0  0  0  0  0  0
   -0.4303   -3.1237    1.4856 H   0  0  0  0  0  0  0  0  0  0  0  0
   -0.1231   -3.9069   -0.0884 H   0  0  0  0  0  0  0  0  0  0  0  0
   -2.2437   -3.6514   -0.5011 H   0  0  0  0  0  0  0  0  0  0  0  0
   -3.7837   -2.1376    0.6340 H   0  0  0  0  0  0  0  0  0  0  0  0
   -2.8306   -3.1187    1.7297 H   0  0  0  0  0  0  0  0  0  0  0  0
   -3.1242   -1.0449    2.6569 H   0  0  0  0  0  0  0  0  0  0  0  0
   -1.4107   -1.3428    2.4282 H   0  0  0  0  0  0  0  0  0  0  0  0
   -4.9157   -0.1750    1.0224 H   0  0  0  0  0  0  0  0  0  0  0  0
   -6.4644    1.4855    0.0270 H   0  0  0  0  0  0  0  0  0  0  0  0
   -5.6405    3.6492   -0.7649 H   0  0  0  0  0  0  0  0  0  0  0  0
   -3.2499    4.1528   -0.5726 H   0  0  0  0  0  0  0  0  0  0  0  0
   -1.6629    2.4950    0.4138 H   0  0  0  0  0  0  0  0  0  0  0  0
   -2.6329   -2.0587   -2.0148 H   0  0  0  0  0  0  0  0  0  0  0  0
   -1.7322   -0.7050   -1.1923 H   0  0  0  0  0  0  0  0  0  0  0  0
   -0.5571   -1.8456   -3.1560 H   0  0  0  0  0  0  0  0  0  0  0  0
   -0.3908   -3.2825   -2.0092 H   0  0  0  0  0  0  0  0  0  0  0  0
    4.1632    0.5429    1.9130 H   0  0  0  0  0  0  0  0  0  0  0  0
    6.1114    1.9784    2.5438 H   0  0  0  0  0  0  0  0  0  0  0  0
  1  2  1  0
  2  3  2  0
  3  4  1  0
  4  5  2  0
  5  6  1  0
  6  7  2  0
  7  8  1  0
  8  9  2  0
  8 10  1  0
 10 11  1  0
 11 12  1  0
 12 13  1  0
 13 14  1  0
 14 15  1  0
 15 16  1  0
 16 17  1  0
 17 18  2  0
 18 19  1  0
 19 20  2  0
 20 21  1  0
 21 22  2  0
 13 23  1  0
 23 24  1  0
  5 25  1  0
 25 26  2  0
 26  2  1  0
 24 10  1  0
 22 17  1  0
  3 27  1  0
  4 28  1  0
  6 29  1  0
  7 30  1  0
 11 31  1  0
 11 32  1  0
 12 33  1  0
 12 34  1  0
 13 35  1  0
 14 36  1  0
 14 37  1  0
 15 38  1  0
 15 39  1  0
 18 40  1  0
 19 41  1  0
 20 42  1  0
 21 43  1  0
 22 44  1  0
 23 45  1  0
 23 46  1  0
 24 47  1  0
 24 48  1  0
 25 49  1  0
 26 50  1  0
M  END
$$$$
[H]c1nc(-c2c([H])c([H])c(N([H])C(=O)N([H])c3noc(C(F)(F)F)c3[H])c([H])c2[H])c(C(F)(F)F)c([H])c1[H]
     RDKit          3D

 39 41  0  0  0  0  0  0  0  0999 V2000
    8.3954    1.9000    0.2495 F   0  0  0  0  0  0  0  0  0  0  0  0
    8.0312    0.8005   -0.4835 C   0  0  0  0  0  0  0  0  0  0  0  0
    8.8564   -0.2561   -0.2330 F   0  0  0  0  0  0  0  0  0  0  0  0
    8.1166    1.1088   -1.8575 F   0  0  0  0  0  0  0  0  0  0  0  0
    6.5974    0.5222   -0.1669 C   0  0  0  0  0  0  0  0  0  0  0  0
    6.0572   -0.4604    0.5892 C   0  0  0  0  0  0  0  0  0  0  0  0
    4.6536   -0.3136    0.5941 C   0  0  0  0  0  0  0  0  0  0  0  0
    3.7132   -1.1217    1.2644 N   0  0  0  0  0  0  0  0  0  0  0  0
    2.3319   -1.0697    1.2684 C   0  0  0  0  0  0  0  0  0  0  0  0
    1.6728   -1.8898    1.9843 O   0  0  0  0  0  0  0  0  0  0  0  0
    1.5482   -0.1633    0.5303 N   0  0  0  0  0  0  0  0  0  0  0  0
    0.1545   -0.0387    0.4707 C   0  0  0  0  0  0  0  0  0  0  0  0
   -0.7257   -0.4193    1.4354 C   0  0  0  0  0  0  0  0  0  0  0  0
   -2.1126   -0.2708    1.2372 C   0  0  0  0  0  0  0  0  0  0  0  0
   -2.6394    0.2522    0.0864 C   0  0  0  0  0  0  0  0  0  0  0  0
   -1.6928    0.6250   -0.8683 C   0  0  0  0  0  0  0  0  0  0  0  0
   -0.3605    0.5038   -0.7252 C   0  0  0  0  0  0  0  0  0  0  0  0
   -4.0587    0.4802   -0.0543 C   0  0  0  0  0  0  0  0  0  0  0  0
   -4.6354    1.5416    0.6159 N   0  0  0  0  0  0  0  0  0  0  0  0
   -5.9526    1.8059    0.4866 C   0  0  0  0  0  0  0  0  0  0  0  0
   -6.7623    1.0284   -0.3150 C   0  0  0  0  0  0  0  0  0  0  0  0
   -6.2242   -0.0261   -0.9879 C   0  0  0  0  0  0  0  0  0  0  0  0
   -4.8423   -0.2955   -0.8436 C   0  0  0  0  0  0  0  0  0  0  0  0
   -4.3574   -1.4898   -1.5340 C   0  0  0  0  0  0  0  0  0  0  0  0
   -3.3497   -1.3694   -2.4306 F   0  0  0  0  0  0  0  0  0  0  0  0
   -5.4482   -2.2284   -2.0968 F   0  0  0  0  0  0  0  0  0  0  0  0
   -3.9057   -2.3892   -0.5269 F   0  0  0  0  0  0  0  0  0  0  0  0
    4.4722    0.7665   -0.1784 N   0  0  0  0  0  0  0  0  0  0  0  0
    5.5679    1.2537   -0.6170 O   0  0  0  0  0  0  0  0  0  0  0  0
    6.5782   -1.2402    1.1127 H   0  0  0  0  0  0  0  0  0  0  0  0
    4.1732   -1.8891    1.8868 H   0  0  0  0  0  0  0  0  0  0  0  0
    2.1130    0.5354   -0.0606 H   0  0  0  0  0  0  0  0  0  0  0  0
   -0.3823   -0.8140    2.3669 H   0  0  0  0  0  0  0  0  0  0  0  0
   -2.7671   -0.5835    2.0504 H   0  0  0  0  0  0  0  0  0  0  0  0
   -2.1181    1.0661   -1.7919 H   0  0  0  0  0  0  0  0  0  0  0  0
    0.3381    0.8166   -1.5179 H   0  0  0  0  0  0  0  0  0  0  0  0
   -6.3615    2.6543    1.0287 H   0  0  0  0  0  0  0  0  0  0  0  0
   -7.8239    1.3017   -0.3785 H   0  0  0  0  0  0  0  0  0  0  0  0
   -6.8506   -0.6343   -1.6157 H   0  0  0  0  0  0  0  0  0  0  0  0
  1  2  1  0
  2  3  1  0
  2  4  1  0
  2  5  1  0
  5  6  2  0
  6  7  1  0
  7  8  1  0
  8  9  1  0
  9 10  2  0
  9 11  1  0
 11 12  1  0
 12 13  2  0
 13 14  1  0
 14 15  2  0
 15 16  1  0
 16 17  2  0
 15 18  1  0
 18 19  2  0
 19 20  1  0
 20 21  2  0
 21 22  1  0
 22 23  2  0
 23 24  1  0
 24 25  1  0
 24 26  1  0
 24 27  1  0
  7 28  2  0
 28 29  1  0
 29  5  1  0
 17 12  1  0
 23 18  1  0
  6 30  1  0
  8 31  1  0
 11 32  1  0
 13 33  1  0
 14 34  1  0
 16 35  1  0
 17 36  1  0
 20 37  1  0
 21 38  1  0
 22 39  1  0
M  END
$$$$
[H]/C(C(=O)N1c2c([H])c(N([H])[H])c([H])c([H])c2C([H])([H])C1([H])[H])=C(/[H])c1c([H])c([H])c([H])c2c([H])c([H])c([H])c([H])c12
     RDKit          3D

 42 45  0  0  0  0  0  0  0  0999 V2000
   -5.6341    0.4343    3.1058 N   0  0  0  0  0  0  0  0  0  0  0  0
   -5.2133    0.1605    1.7733 C   0  0  0  0  0  0  0  0  0  0  0  0
   -6.1046   -0.2311    0.7887 C   0  0  0  0  0  0  0  0  0  0  0  0
   -5.6819   -0.4907   -0.4895 C   0  0  0  0  0  0  0  0  0  0  0  0
   -4.3530   -0.3715   -0.8427 C   0  0  0  0  0  0  0  0  0  0  0  0
   -3.6204   -0.5799   -2.1106 C   0  0  0  0  0  0  0  0  0  0  0  0
   -2.3472    0.2239   -1.8709 C   0  0  0  0  0  0  0  0  0  0  0  0
   -2.1692    0.0758   -0.4395 N   0  0  0  0  0  0  0  0  0  0  0  0
   -0.9427    0.0037    0.2314 C   0  0  0  0  0  0  0  0  0  0  0  0
   -0.9301   -0.1276    1.4814 O   0  0  0  0  0  0  0  0  0  0  0  0
    0.3263    0.0802   -0.5111 C   0  0  0  0  0  0  0  0  0  0  0  0
    1.4873    0.0095    0.1456 C   0  0  0  0  0  0  0  0  0  0  0  0
    2.7604    0.0810   -0.5502 C   0  0  0  0  0  0  0  0  0  0  0  0
    2.8163    0.2247   -1.9164 C   0  0  0  0  0  0  0  0  0  0  0  0
    4.0624    0.2876   -2.5301 C   0  0  0  0  0  0  0  0  0  0  0  0
    5.2166    0.2075   -1.7832 C   0  0  0  0  0  0  0  0  0  0  0  0
    5.1903    0.0632   -0.4115 C   0  0  0  0  0  0  0  0  0  0  0  0
    6.3598   -0.0149    0.3161 C   0  0  0  0  0  0  0  0  0  0  0  0
    6.3534   -0.1592    1.6876 C   0  0  0  0  0  0  0  0  0  0  0  0
    5.1267   -0.2225    2.3044 C   0  0  0  0  0  0  0  0  0  0  0  0
    3.9534   -0.1429    1.5622 C   0  0  0  0  0  0  0  0  0  0  0  0
    3.9443    0.0014    0.1908 C   0  0  0  0  0  0  0  0  0  0  0  0
   -3.4697    0.0189    0.1416 C   0  0  0  0  0  0  0  0  0  0  0  0
   -3.8870    0.2833    1.4355 C   0  0  0  0  0  0  0  0  0  0  0  0
   -5.8319   -0.3498    3.7661 H   0  0  0  0  0  0  0  0  0  0  0  0
   -5.7268    1.4489    3.3633 H   0  0  0  0  0  0  0  0  0  0  0  0
   -7.1488   -0.3161    1.1005 H   0  0  0  0  0  0  0  0  0  0  0  0
   -6.4352   -0.7946   -1.2152 H   0  0  0  0  0  0  0  0  0  0  0  0
   -3.3022   -1.6410   -2.1617 H   0  0  0  0  0  0  0  0  0  0  0  0
   -4.1635   -0.2534   -3.0009 H   0  0  0  0  0  0  0  0  0  0  0  0
   -2.5401    1.3120   -2.0438 H   0  0  0  0  0  0  0  0  0  0  0  0
   -1.5122   -0.1400   -2.4699 H   0  0  0  0  0  0  0  0  0  0  0  0
    0.2843    0.1930   -1.5795 H   0  0  0  0  0  0  0  0  0  0  0  0
    1.3826   -0.1037    1.2222 H   0  0  0  0  0  0  0  0  0  0  0  0
    1.9396    0.2920   -2.5452 H   0  0  0  0  0  0  0  0  0  0  0  0
    4.0724    0.4007   -3.6050 H   0  0  0  0  0  0  0  0  0  0  0  0
    6.1855    0.2594   -2.2881 H   0  0  0  0  0  0  0  0  0  0  0  0
    7.3041    0.0388   -0.2058 H   0  0  0  0  0  0  0  0  0  0  0  0
    7.2899   -0.2173    2.2276 H   0  0  0  0  0  0  0  0  0  0  0  0
    5.0937   -0.3361    3.3838 H   0  0  0  0  0  0  0  0  0  0  0  0
    3.0540   -0.2008    2.1241 H   0  0  0  0  0  0  0  0  0  0  0  0
   -3.1894    0.5930    2.2185 H   0  0  0  0  0  0  0  0  0  0  0  0
  1  2  1  0
  2  3  2  0
  3  4  1  0
  4  5  2  0
  5  6  1  0
  6  7  1  0
  7  8  1  0
  8  9  1  0
  9 10  2  0
  9 11  1  0
 11 12  2  0
 12 13  1  0
 13 14  2  0
 14 15  1  0
 15 16  2  0
 16 17  1  0
 17 18  2  0
 18 19  1  0
 19 20  2  0
 20 21  1  0
 21 22  2  0
  8 23  1  0
 23 24  2  0
 24  2  1  0
 23  5  1  0
 22 13  1  0
 22 17  1  0
  1 25  1  0
  1 26  1  0
  3 27  1  0
  4 28  1  0
  6 29  1  0
  6 30  1  0
  7 31  1  0
  7 32  1  0
 11 33  1  0
 12 34  1  0
 14 35  1  0
 15 36  1  0
 16 37  1  0
 18 38  1  0
 19 39  1  0
 20 40  1  0
 21 41  1  0
 24 42  1  0
M  END
$$$$
[H]N=C(c1c([H])c([H])c(OC(=O)c2c([H])c([H])c(C3([H])C([H])([H])C([H])([H])C3([H])[H])n2C([H])([H])[C@]([H])(C(=O)O[H])N([H])S(=O)(=O)c2c([H])c([H])c(Cl)c([H])c2[H])c([H])c1[H])N([H])[H]
     RDKit          3D

 62 65  0  0  0  0  0  0  0  0999 V2000
    8.1790   -3.7089   -0.9965 N   0  0  0  0  0  0  0  0  0  0  0  0
    7.7639   -2.8818    0.0597 C   0  0  0  0  0  0  0  0  0  0  0  0
    8.3872   -2.9476    1.1847 N   0  0  0  0  0  0  0  0  0  0  0  0
    6.6473   -1.9706   -0.1209 C   0  0  0  0  0  0  0  0  0  0  0  0
    6.2637   -1.1730    0.9436 C   0  0  0  0  0  0  0  0  0  0  0  0
    5.2092   -0.3227    0.7604 C   0  0  0  0  0  0  0  0  0  0  0  0
    4.5293   -0.2388   -0.4333 C   0  0  0  0  0  0  0  0  0  0  0  0
    3.4673    0.6798   -0.4719 O   0  0  0  0  0  0  0  0  0  0  0  0
    2.1691    0.3025   -0.1416 C   0  0  0  0  0  0  0  0  0  0  0  0
    2.0245   -0.8773    0.1808 O   0  0  0  0  0  0  0  0  0  0  0  0
    1.0330    1.2279   -0.1676 C   0  0  0  0  0  0  0  0  0  0  0  0
    1.2677    2.5925   -0.4337 C   0  0  0  0  0  0  0  0  0  0  0  0
    0.0744    3.2190   -0.3193 C   0  0  0  0  0  0  0  0  0  0  0  0
   -0.8654    2.2470    0.0095 C   0  0  0  0  0  0  0  0  0  0  0  0
   -2.2916    2.6544    0.2845 C   0  0  0  0  0  0  0  0  0  0  0  0
   -2.3377    3.8747    1.2211 C   0  0  0  0  0  0  0  0  0  0  0  0
   -3.5050    4.3600    0.3670 C   0  0  0  0  0  0  0  0  0  0  0  0
   -2.8865    3.5260   -0.7611 C   0  0  0  0  0  0  0  0  0  0  0  0
   -0.2720    1.0345    0.0936 N   0  0  0  0  0  0  0  0  0  0  0  0
   -0.9362   -0.1960    0.3393 C   0  0  0  0  0  0  0  0  0  0  0  0
   -1.5993   -0.9269   -0.7572 C   0  0  1  0  0  0  0  0  0  0  0  0
   -2.6489   -0.1055   -1.3851 N   0  0  0  0  0  0  0  0  0  0  0  0
   -4.2049   -0.7471   -1.2468 S   0  0  0  0  0  0  0  0  0  0  0  0
   -5.1514    0.2236   -1.9403 O   0  0  0  0  0  0  0  0  0  0  0  0
   -4.3249   -2.0359   -2.0058 O   0  0  0  0  0  0  0  0  0  0  0  0
   -4.7851   -0.9340    0.3823 C   0  0  0  0  0  0  0  0  0  0  0  0
   -4.5862   -2.1116    1.0678 C   0  0  0  0  0  0  0  0  0  0  0  0
   -5.0427   -2.2919    2.3755 C   0  0  0  0  0  0  0  0  0  0  0  0
   -5.7188   -1.2784    3.0319 C   0  0  0  0  0  0  0  0  0  0  0  0
   -6.2924   -1.5089    4.6748 Cl  0  0  0  0  0  0  0  0  0  0  0  0
   -5.9180   -0.1031    2.3492 C   0  0  0  0  0  0  0  0  0  0  0  0
   -5.4637    0.0628    1.0618 C   0  0  0  0  0  0  0  0  0  0  0  0
   -0.8306   -1.5551   -1.8179 C   0  0  0  0  0  0  0  0  0  0  0  0
    0.0814   -2.5581   -1.6371 O   0  0  0  0  0  0  0  0  0  0  0  0
   -0.9783   -1.1896   -3.0493 O   0  0  0  0  0  0  0  0  0  0  0  0
    4.9035   -1.0183   -1.4752 C   0  0  0  0  0  0  0  0  0  0  0  0
    5.9656   -1.8869   -1.3191 C   0  0  0  0  0  0  0  0  0  0  0  0
    8.2049   -3.3436   -1.9610 H   0  0  0  0  0  0  0  0  0  0  0  0
    8.4590   -4.6854   -0.8107 H   0  0  0  0  0  0  0  0  0  0  0  0
    9.1825   -3.5904    1.3327 H   0  0  0  0  0  0  0  0  0  0  0  0
    6.8116   -1.2466    1.8905 H   0  0  0  0  0  0  0  0  0  0  0  0
    4.9282    0.2951    1.6188 H   0  0  0  0  0  0  0  0  0  0  0  0
    2.2425    3.0363   -0.6836 H   0  0  0  0  0  0  0  0  0  0  0  0
   -0.1345    4.2976   -0.4571 H   0  0  0  0  0  0  0  0  0  0  0  0
   -2.9710    1.8990    0.6411 H   0  0  0  0  0  0  0  0  0  0  0  0
   -1.4870    4.5578    1.0987 H   0  0  0  0  0  0  0  0  0  0  0  0
   -2.6933    3.6598    2.2349 H   0  0  0  0  0  0  0  0  0  0  0  0
   -3.4958    5.4388    0.1848 H   0  0  0  0  0  0  0  0  0  0  0  0
   -4.4919    3.9976    0.6588 H   0  0  0  0  0  0  0  0  0  0  0  0
   -3.6469    3.0605   -1.4360 H   0  0  0  0  0  0  0  0  0  0  0  0
   -2.2048    4.1688   -1.3424 H   0  0  0  0  0  0  0  0  0  0  0  0
   -1.7506   -0.0076    1.1238 H   0  0  0  0  0  0  0  0  0  0  0  0
   -0.2853   -0.9416    0.8976 H   0  0  0  0  0  0  0  0  0  0  0  0
   -2.2170   -1.7818   -0.3069 H   0  0  0  0  0  0  0  0  0  0  0  0
   -2.4085    0.1463   -2.3439 H   0  0  0  0  0  0  0  0  0  0  0  0
   -4.0752   -2.9425    0.6294 H   0  0  0  0  0  0  0  0  0  0  0  0
   -4.8693   -3.2401    2.8937 H   0  0  0  0  0  0  0  0  0  0  0  0
   -6.4395    0.7003    2.8355 H   0  0  0  0  0  0  0  0  0  0  0  0
   -5.6433    1.0087    0.5611 H   0  0  0  0  0  0  0  0  0  0  0  0
    1.0012   -2.4457   -2.0343 H   0  0  0  0  0  0  0  0  0  0  0  0
    4.3666   -0.9486   -2.4098 H   0  0  0  0  0  0  0  0  0  0  0  0
    6.2911   -2.5295   -2.1445 H   0  0  0  0  0  0  0  0  0  0  0  0
  1  2  1  0
  2  3  2  3
  2  4  1  0
  4  5  2  0
  5  6  1  0
  6  7  2  0
  7  8  1  0
  8  9  1  0
  9 10  2  0
  9 11  1  0
 11 12  2  0
 12 13  1  0
 13 14  2  0
 14 15  1  0
 15 16  1  0
 16 17  1  0
 17 18  1  0
 14 19  1  0
 19 20  1  0
 20 21  1  0
 21 22  1  0
 22 23  1  0
 23 24  2  0
 23 25  2  0
 23 26  1  0
 26 27  2  0
 27 28  1  0
 28 29  2  0
 29 30  1  0
 29 31  1  0
 31 32  2  0
 21 33  1  0
 33 34  1  0
 33 35  2  0
  7 36  1  0
 36 37  2  0
 37  4  1  0
 19 11  1  0
 32 26  1  0
 18 15  1  0
  1 38  1  0
  1 39  1  0
  3 40  1  0
  5 41  1  0
  6 42  1  0
 12 43  1  0
 13 44  1  0
 15 45  1  0
 16 46  1  0
 16 47  1  0
 17 48  1  0
 17 49  1  0
 18 50  1  0
 18 51  1  0
 20 52  1  0
 20 53  1  0
 21 54  1  1
 22 55  1  0
 27 56  1  0
 28 57  1  0
 31 58  1  0
 32 59  1  0
 34 60  1  0
 36 61  1  0
 37 62  1  0
M  END
$$$$
[H]c1nc(N([H])C(=O)C2([H])C([H])([H])C([H])([H])OC([H])([H])C2([H])[H])c([H])c([H])c1-c1nc(N(C([H])([H])C([H])([H])OC([H])([H])[H])C([H])([H])C([H])([H])OC([H])([H])[H])nc(N2C([H])([H])C([H])([H])OC([H])([H])[C@@]2([H])C([H])([H])[H])c1[H]
     RDKit          3D

 75 78  0  0  0  0  0  0  0  0999 V2000
   -4.1006    0.6708    4.8544 C   0  0  0  0  0  0  0  0  0  0  0  0
   -4.3397    1.9230    4.3514 O   0  0  0  0  0  0  0  0  0  0  0  0
   -4.1750    2.0699    2.9905 C   0  0  0  0  0  0  0  0  0  0  0  0
   -2.7684    1.7570    2.6173 C   0  0  0  0  0  0  0  0  0  0  0  0
   -2.4927    1.8859    1.2190 N   0  0  0  0  0  0  0  0  0  0  0  0
   -2.4971    3.1590    0.5584 C   0  0  0  0  0  0  0  0  0  0  0  0
   -2.1756    3.0558   -0.9061 C   0  0  0  0  0  0  0  0  0  0  0  0
   -2.1850    4.2984   -1.4876 O   0  0  0  0  0  0  0  0  0  0  0  0
   -3.3487    4.9995   -1.4586 C   0  0  0  0  0  0  0  0  0  0  0  0
   -2.2062    0.7232    0.4701 C   0  0  0  0  0  0  0  0  0  0  0  0
   -3.1348   -0.0198   -0.1283 N   0  0  0  0  0  0  0  0  0  0  0  0
   -2.8020   -1.1289   -0.8335 C   0  0  0  0  0  0  0  0  0  0  0  0
   -1.4426   -1.4557   -0.9040 C   0  0  0  0  0  0  0  0  0  0  0  0
   -0.4882   -0.6782   -0.2795 C   0  0  0  0  0  0  0  0  0  0  0  0
   -0.9079    0.3861    0.3864 N   0  0  0  0  0  0  0  0  0  0  0  0
    0.9487   -0.9722   -0.3143 C   0  0  0  0  0  0  0  0  0  0  0  0
    1.5126   -2.0269   -0.9705 C   0  0  0  0  0  0  0  0  0  0  0  0
    2.8141   -2.2448   -0.9618 N   0  0  0  0  0  0  0  0  0  0  0  0
    3.7269   -1.4387   -0.2970 C   0  0  0  0  0  0  0  0  0  0  0  0
    5.0798   -1.8002   -0.3453 N   0  0  0  0  0  0  0  0  0  0  0  0
    6.2241   -1.2172    0.1093 C   0  0  0  0  0  0  0  0  0  0  0  0
    7.3062   -1.9751   -0.1023 O   0  0  0  0  0  0  0  0  0  0  0  0
    6.4482    0.0576    0.7605 C   0  0  0  0  0  0  0  0  0  0  0  0
    6.3301    1.2766   -0.1075 C   0  0  0  0  0  0  0  0  0  0  0  0
    7.6571    1.7182   -0.6941 C   0  0  0  0  0  0  0  0  0  0  0  0
    8.4183    0.5449   -0.9241 O   0  0  0  0  0  0  0  0  0  0  0  0
    8.8850    0.1265    0.3114 C   0  0  0  0  0  0  0  0  0  0  0  0
    7.8539    0.0423    1.3824 C   0  0  0  0  0  0  0  0  0  0  0  0
    3.1561   -0.3874    0.3564 C   0  0  0  0  0  0  0  0  0  0  0  0
    1.7889   -0.1302    0.3666 C   0  0  0  0  0  0  0  0  0  0  0  0
   -3.7767   -1.9094   -1.4880 N   0  0  0  0  0  0  0  0  0  0  0  0
   -4.5614   -1.2872   -2.5509 C   0  0  0  0  0  0  0  0  0  0  0  0
   -5.0347   -2.3404   -3.5388 C   0  0  0  0  0  0  0  0  0  0  0  0
   -5.5080   -3.4846   -2.9093 O   0  0  0  0  0  0  0  0  0  0  0  0
   -4.4079   -4.1233   -2.3180 C   0  0  0  0  0  0  0  0  0  0  0  0
   -4.0288   -3.2663   -1.1183 C   0  0  1  0  0  0  0  0  0  0  0  0
   -2.9319   -3.9674   -0.3868 C   0  0  0  0  0  0  0  0  0  0  0  0
   -4.3053    0.7484    5.9675 H   0  0  0  0  0  0  0  0  0  0  0  0
   -4.7964   -0.1091    4.4897 H   0  0  0  0  0  0  0  0  0  0  0  0
   -3.0325    0.3437    4.8210 H   0  0  0  0  0  0  0  0  0  0  0  0
   -4.9273    1.4607    2.4436 H   0  0  0  0  0  0  0  0  0  0  0  0
   -4.3372    3.1688    2.7866 H   0  0  0  0  0  0  0  0  0  0  0  0
   -2.1252    2.5150    3.1579 H   0  0  0  0  0  0  0  0  0  0  0  0
   -2.3911    0.7813    2.9944 H   0  0  0  0  0  0  0  0  0  0  0  0
   -3.4665    3.6880    0.6747 H   0  0  0  0  0  0  0  0  0  0  0  0
   -1.6590    3.7531    1.0198 H   0  0  0  0  0  0  0  0  0  0  0  0
   -1.1409    2.6479   -1.0696 H   0  0  0  0  0  0  0  0  0  0  0  0
   -2.9386    2.3708   -1.3421 H   0  0  0  0  0  0  0  0  0  0  0  0
   -3.1328    5.9719   -2.0161 H   0  0  0  0  0  0  0  0  0  0  0  0
   -4.1653    4.4531   -1.9693 H   0  0  0  0  0  0  0  0  0  0  0  0
   -3.7332    5.2650   -0.4370 H   0  0  0  0  0  0  0  0  0  0  0  0
   -1.1312   -2.3122   -1.4516 H   0  0  0  0  0  0  0  0  0  0  0  0
    0.8108   -2.6794   -1.5067 H   0  0  0  0  0  0  0  0  0  0  0  0
    5.1987   -2.8003   -0.8284 H   0  0  0  0  0  0  0  0  0  0  0  0
    5.7825    0.2176    1.6589 H   0  0  0  0  0  0  0  0  0  0  0  0
    5.9567    2.1105    0.4983 H   0  0  0  0  0  0  0  0  0  0  0  0
    5.5767    1.1155   -0.9215 H   0  0  0  0  0  0  0  0  0  0  0  0
    8.2191    2.3366    0.0086 H   0  0  0  0  0  0  0  0  0  0  0  0
    7.4788    2.2423   -1.6362 H   0  0  0  0  0  0  0  0  0  0  0  0
    9.4287   -0.8454    0.2291 H   0  0  0  0  0  0  0  0  0  0  0  0
    9.6428    0.9057    0.6523 H   0  0  0  0  0  0  0  0  0  0  0  0
    7.9324    0.8779    2.1058 H   0  0  0  0  0  0  0  0  0  0  0  0
    7.9778   -0.9428    1.9209 H   0  0  0  0  0  0  0  0  0  0  0  0
    3.7559    0.2898    0.9124 H   0  0  0  0  0  0  0  0  0  0  0  0
    1.3885    0.7285    0.9072 H   0  0  0  0  0  0  0  0  0  0  0  0
   -3.9756   -0.5430   -3.1305 H   0  0  0  0  0  0  0  0  0  0  0  0
   -5.4503   -0.7684   -2.1343 H   0  0  0  0  0  0  0  0  0  0  0  0
   -5.7598   -1.8906   -4.2446 H   0  0  0  0  0  0  0  0  0  0  0  0
   -4.1671   -2.6823   -4.1776 H   0  0  0  0  0  0  0  0  0  0  0  0
   -4.7257   -5.1236   -1.9805 H   0  0  0  0  0  0  0  0  0  0  0  0
   -3.5743   -4.1558   -3.0508 H   0  0  0  0  0  0  0  0  0  0  0  0
   -4.9551   -3.2513   -0.4836 H   0  0  0  0  0  0  0  0  0  0  0  0
   -3.3997   -4.9054    0.0607 H   0  0  0  0  0  0  0  0  0  0  0  0
   -2.5073   -3.4310    0.4616 H   0  0  0  0  0  0  0  0  0  0  0  0
   -2.1881   -4.3918   -1.1002 H   0  0  0  0  0  0  0  0  0  0  0  0
  1  2  1  0
  2  3  1  0
  3  4  1  0
  4  5  1  0
  5  6  1  0
  6  7  1  0
  7  8  1  0
  8  9  1  0
  5 10  1  0
 10 11  2  0
 11 12  1  0
 12 13  2  0
 13 14  1  0
 14 15  2  0
 14 16  1  0
 16 17  2  0
 17 18  1  0
 18 19  2  0
 19 20  1  0
 20 21  1  0
 21 22  2  0
 21 23  1  0
 23 24  1  0
 24 25  1  0
 25 26  1  0
 26 27  1  0
 27 28  1  0
 19 29  1  0
 29 30  2  0
 12 31  1  0
 31 32  1  0
 32 33  1  0
 33 34  1  0
 34 35  1  0
 35 36  1  0
 36 37  1  0
 15 10  1  0
 30 16  1  0
 36 31  1  0
 28 23  1  0
  1 38  1  0
  1 39  1  0
  1 40  1  0
  3 41  1  0
  3 42  1  0
  4 43  1  0
  4 44  1  0
  6 45  1  0
  6 46  1  0
  7 47  1  0
  7 48  1  0
  9 49  1  0
  9 50  1  0
  9 51  1  0
 13 52  1  0
 17 53  1  0
 20 54  1  0
 23 55  1  0
 24 56  1  0
 24 57  1  0
 25 58  1  0
 25 59  1  0
 27 60  1  0
 27 61  1  0
 28 62  1  0
 28 63  1  0
 29 64  1  0
 30 65  1  0
 32 66  1  0
 32 67  1  0
 33 68  1  0
 33 69  1  0
 35 70  1  0
 35 71  1  0
 36 72  1  1
 37 73  1  0
 37 74  1  0
 37 75  1  0
M  END
$$$$
[H]OC([H])([H])C([H])([H])N([H])C(=O)C([H])([H])c1c([H])c([H])c(N([H])c2nc([H])c([H])c(-c3c([H])c([H])c(N([H])S(=O)(=O)c4c([H])c([H])c(N([H])C(=O)C([H])([H])[H])c([H])c4[H])c([H])c3[H])n2)c([H])c1[H]
     RDKit          3D

 68 71  0  0  0  0  0  0  0  0999 V2000
  -10.5767    4.2371    0.7489 C   0  0  0  0  0  0  0  0  0  0  0  0
   -9.7033    3.2981   -0.0489 C   0  0  0  0  0  0  0  0  0  0  0  0
   -9.2524    3.7568   -1.0987 O   0  0  0  0  0  0  0  0  0  0  0  0
   -9.4689    2.0181    0.4298 N   0  0  0  0  0  0  0  0  0  0  0  0
   -8.6799    1.0115   -0.1785 C   0  0  0  0  0  0  0  0  0  0  0  0
   -8.7877   -0.2838    0.3143 C   0  0  0  0  0  0  0  0  0  0  0  0
   -8.0608   -1.3037   -0.2140 C   0  0  0  0  0  0  0  0  0  0  0  0
   -7.1897   -1.0917   -1.2577 C   0  0  0  0  0  0  0  0  0  0  0  0
   -7.0906    0.1855   -1.7343 C   0  0  0  0  0  0  0  0  0  0  0  0
   -7.8243    1.2514   -1.2112 C   0  0  0  0  0  0  0  0  0  0  0  0
   -6.3608   -2.4534   -1.9183 S   0  0  0  0  0  0  0  0  0  0  0  0
   -7.3269   -3.6087   -2.1358 O   0  0  0  0  0  0  0  0  0  0  0  0
   -5.7806   -2.1221   -3.2826 O   0  0  0  0  0  0  0  0  0  0  0  0
   -5.0917   -2.9732   -0.9079 N   0  0  0  0  0  0  0  0  0  0  0  0
   -3.9401   -2.2579   -0.5228 C   0  0  0  0  0  0  0  0  0  0  0  0
   -2.7110   -2.9162   -0.6665 C   0  0  0  0  0  0  0  0  0  0  0  0
   -1.5342   -2.3017   -0.3240 C   0  0  0  0  0  0  0  0  0  0  0  0
   -1.5360   -1.0010    0.1772 C   0  0  0  0  0  0  0  0  0  0  0  0
   -2.7043   -0.3336    0.3295 C   0  0  0  0  0  0  0  0  0  0  0  0
   -3.8960   -0.9880   -0.0289 C   0  0  0  0  0  0  0  0  0  0  0  0
   -0.2287   -0.4609    0.5290 C   0  0  0  0  0  0  0  0  0  0  0  0
   -0.1525    0.8131    1.0244 C   0  0  0  0  0  0  0  0  0  0  0  0
    1.0975    1.2886    1.3622 C   0  0  0  0  0  0  0  0  0  0  0  0
    2.1686    0.5125    1.2002 N   0  0  0  0  0  0  0  0  0  0  0  0
    2.1437   -0.7275    0.7229 C   0  0  0  0  0  0  0  0  0  0  0  0
    3.2580   -1.5699    0.5565 N   0  0  0  0  0  0  0  0  0  0  0  0
    4.5771   -1.2388    0.8936 C   0  0  0  0  0  0  0  0  0  0  0  0
    5.6053   -1.9729    0.2661 C   0  0  0  0  0  0  0  0  0  0  0  0
    6.9363   -1.7663    0.5389 C   0  0  0  0  0  0  0  0  0  0  0  0
    7.3035   -0.8057    1.4611 C   0  0  0  0  0  0  0  0  0  0  0  0
    8.7633   -0.5782    1.7349 C   0  0  0  0  0  0  0  0  0  0  0  0
    9.2610    0.5664    0.9389 C   0  0  0  0  0  0  0  0  0  0  0  0
    8.8191    1.7099    1.1593 O   0  0  0  0  0  0  0  0  0  0  0  0
   10.2287    0.3484   -0.0627 N   0  0  0  0  0  0  0  0  0  0  0  0
   10.7853    1.3886   -0.9071 C   0  0  0  0  0  0  0  0  0  0  0  0
    9.7028    2.0595   -1.7119 C   0  0  0  0  0  0  0  0  0  0  0  0
    9.0886    1.0649   -2.5092 O   0  0  0  0  0  0  0  0  0  0  0  0
    6.3440   -0.0641    2.1002 C   0  0  0  0  0  0  0  0  0  0  0  0
    5.0040   -0.3043    1.7959 C   0  0  0  0  0  0  0  0  0  0  0  0
    0.8900   -1.1794    0.3936 N   0  0  0  0  0  0  0  0  0  0  0  0
  -10.5220    3.9530    1.8130 H   0  0  0  0  0  0  0  0  0  0  0  0
  -11.6082    4.1310    0.3309 H   0  0  0  0  0  0  0  0  0  0  0  0
  -10.2633    5.2886    0.5796 H   0  0  0  0  0  0  0  0  0  0  0  0
   -9.9268    1.7671    1.3550 H   0  0  0  0  0  0  0  0  0  0  0  0
   -9.4548   -0.4723    1.1213 H   0  0  0  0  0  0  0  0  0  0  0  0
   -8.1820   -2.3082    0.2101 H   0  0  0  0  0  0  0  0  0  0  0  0
   -6.4039    0.3679   -2.5621 H   0  0  0  0  0  0  0  0  0  0  0  0
   -7.6571    2.2116   -1.6608 H   0  0  0  0  0  0  0  0  0  0  0  0
   -5.1539   -3.9715   -0.4971 H   0  0  0  0  0  0  0  0  0  0  0  0
   -2.7476   -3.9350   -1.0614 H   0  0  0  0  0  0  0  0  0  0  0  0
   -0.6099   -2.8659   -0.4602 H   0  0  0  0  0  0  0  0  0  0  0  0
   -2.7368    0.6702    0.7114 H   0  0  0  0  0  0  0  0  0  0  0  0
   -4.7997   -0.4406    0.1167 H   0  0  0  0  0  0  0  0  0  0  0  0
   -0.9819    1.4854    1.1778 H   0  0  0  0  0  0  0  0  0  0  0  0
    1.2031    2.2875    1.7549 H   0  0  0  0  0  0  0  0  0  0  0  0
    3.0291   -2.5298    0.1377 H   0  0  0  0  0  0  0  0  0  0  0  0
    5.2808   -2.7154   -0.4509 H   0  0  0  0  0  0  0  0  0  0  0  0
    7.6825   -2.3577    0.0294 H   0  0  0  0  0  0  0  0  0  0  0  0
    8.8917   -0.3248    2.8063 H   0  0  0  0  0  0  0  0  0  0  0  0
    9.3633   -1.4870    1.5620 H   0  0  0  0  0  0  0  0  0  0  0  0
   10.5630   -0.6593   -0.1968 H   0  0  0  0  0  0  0  0  0  0  0  0
   11.3282    2.1562   -0.3017 H   0  0  0  0  0  0  0  0  0  0  0  0
   11.4696    0.9135   -1.6534 H   0  0  0  0  0  0  0  0  0  0  0  0
   10.1612    2.7936   -2.4116 H   0  0  0  0  0  0  0  0  0  0  0  0
    8.8979    2.5177   -1.1152 H   0  0  0  0  0  0  0  0  0  0  0  0
    8.1839    1.3373   -2.8077 H   0  0  0  0  0  0  0  0  0  0  0  0
    6.6204    0.6949    2.8306 H   0  0  0  0  0  0  0  0  0  0  0  0
    4.2934    0.2847    2.3258 H   0  0  0  0  0  0  0  0  0  0  0  0
  1  2  1  0
  2  3  2  0
  2  4  1  0
  4  5  1  0
  5  6  2  0
  6  7  1  0
  7  8  2  0
  8  9  1  0
  9 10  2  0
  8 11  1  0
 11 12  2  0
 11 13  2  0
 11 14  1  0
 14 15  1  0
 15 16  2  0
 16 17  1  0
 17 18  2  0
 18 19  1  0
 19 20  2  0
 18 21  1  0
 21 22  2  0
 22 23  1  0
 23 24  2  0
 24 25  1  0
 25 26  1  0
 26 27  1  0
 27 28  2  0
 28 29  1  0
 29 30  2  0
 30 31  1  0
 31 32  1  0
 32 33  2  0
 32 34  1  0
 34 35  1  0
 35 36  1  0
 36 37  1  0
 30 38  1  0
 38 39  2  0
 25 40  2  0
 10  5  1  0
 20 15  1  0
 40 21  1  0
 39 27  1  0
  1 41  1  0
  1 42  1  0
  1 43  1  0
  4 44  1  0
  6 45  1  0
  7 46  1  0
  9 47  1  0
 10 48  1  0
 14 49  1  0
 16 50  1  0
 17 51  1  0
 19 52  1  0
 20 53  1  0
 22 54  1  0
 23 55  1  0
 26 56  1  0
 28 57  1  0
 29 58  1  0
 31 59  1  0
 31 60  1  0
 34 61  1  0
 35 62  1  0
 35 63  1  0
 36 64  1  0
 36 65  1  0
 37 66  1  0
 38 67  1  0
 39 68  1  0
M  END
$$$$
[H]C([H])=C([H])C(=O)N1C([H])([H])c2c(n([H])c3c(C(=O)N([H])[H])c([H])c(-c4c([H])c([H])c5c(nc(C([H])([H])[H])n5C([H])([H])[C@]5([H])N(C(=O)C([H])=C([H])[H])C([H])([H])C([H])([H])C5([H])[H])c4[H])c([H])c23)C([H])([H])C1([H])[H]
     RDKit          3D

 72 77  0  0  0  0  0  0  0  0999 V2000
   -5.4729    3.3443   -0.8071 C   0  0  0  0  0  0  0  0  0  0  0  0
   -4.1562    2.5951   -0.8602 C   0  0  0  0  0  0  0  0  0  0  0  0
   -2.9508    3.1481   -1.0842 N   0  0  0  0  0  0  0  0  0  0  0  0
   -1.9689    2.2374   -1.1099 C   0  0  0  0  0  0  0  0  0  0  0  0
   -0.5952    2.2696   -1.2943 C   0  0  0  0  0  0  0  0  0  0  0  0
    0.1772    1.1289   -1.2625 C   0  0  0  0  0  0  0  0  0  0  0  0
   -0.4754   -0.0697   -1.0368 C   0  0  0  0  0  0  0  0  0  0  0  0
   -1.8433   -0.1084   -0.8527 C   0  0  0  0  0  0  0  0  0  0  0  0
   -2.6055    1.0408   -0.8867 C   0  0  0  0  0  0  0  0  0  0  0  0
   -3.9519    1.2719   -0.7336 N   0  0  0  0  0  0  0  0  0  0  0  0
   -4.8994    0.2453   -0.4509 C   0  0  0  0  0  0  0  0  0  0  0  0
   -5.0244   -0.2230    0.9429 C   0  0  1  0  0  0  0  0  0  0  0  0
   -5.4062    0.7886    1.9896 C   0  0  0  0  0  0  0  0  0  0  0  0
   -6.8924    0.7056    2.1247 C   0  0  0  0  0  0  0  0  0  0  0  0
   -7.3181   -0.4770    1.3116 C   0  0  0  0  0  0  0  0  0  0  0  0
   -6.1173   -1.2174    1.0619 N   0  0  0  0  0  0  0  0  0  0  0  0
   -5.9632   -2.5985    0.9418 C   0  0  0  0  0  0  0  0  0  0  0  0
   -6.9567   -3.3544    1.0673 O   0  0  0  0  0  0  0  0  0  0  0  0
   -4.6656   -3.1815    0.6718 C   0  0  0  0  0  0  0  0  0  0  0  0
   -4.5069   -4.4880    0.5573 C   0  0  0  0  0  0  0  0  0  0  0  0
    1.6253    1.1244   -1.4530 C   0  0  0  0  0  0  0  0  0  0  0  0
    2.1756    2.0654   -2.2906 C   0  0  0  0  0  0  0  0  0  0  0  0
    3.5539    2.1485   -2.5358 C   0  0  0  0  0  0  0  0  0  0  0  0
    4.0886    3.1509   -3.4221 C   0  0  0  0  0  0  0  0  0  0  0  0
    5.4432    3.3216   -3.7077 N   0  0  0  0  0  0  0  0  0  0  0  0
    3.2811    3.9398   -3.9882 O   0  0  0  0  0  0  0  0  0  0  0  0
    4.3419    1.2238   -1.8838 C   0  0  0  0  0  0  0  0  0  0  0  0
    5.6644    0.9838   -1.8587 N   0  0  0  0  0  0  0  0  0  0  0  0
    5.9381   -0.0717   -1.0334 C   0  0  0  0  0  0  0  0  0  0  0  0
    7.1868   -0.7656   -0.6284 C   0  0  0  0  0  0  0  0  0  0  0  0
    7.1433   -0.8316    0.8991 C   0  0  0  0  0  0  0  0  0  0  0  0
    5.9354   -1.5276    1.3416 N   0  0  0  0  0  0  0  0  0  0  0  0
    4.8154   -1.6997    0.4434 C   0  0  0  0  0  0  0  0  0  0  0  0
    4.7638   -0.5374   -0.5022 C   0  0  0  0  0  0  0  0  0  0  0  0
    3.7787    0.2665   -1.0309 C   0  0  0  0  0  0  0  0  0  0  0  0
    2.4267    0.2194   -0.8186 C   0  0  0  0  0  0  0  0  0  0  0  0
    5.9141   -2.0143    2.6704 C   0  0  0  0  0  0  0  0  0  0  0  0
    6.9115   -1.8425    3.4451 O   0  0  0  0  0  0  0  0  0  0  0  0
    4.7764   -2.7257    3.2228 C   0  0  0  0  0  0  0  0  0  0  0  0
    4.7699   -3.1773    4.4782 C   0  0  0  0  0  0  0  0  0  0  0  0
   -6.2776    2.7403   -1.2668 H   0  0  0  0  0  0  0  0  0  0  0  0
   -5.3906    4.2699   -1.4157 H   0  0  0  0  0  0  0  0  0  0  0  0
   -5.6822    3.6584    0.2230 H   0  0  0  0  0  0  0  0  0  0  0  0
   -0.1026    3.2098   -1.4690 H   0  0  0  0  0  0  0  0  0  0  0  0
    0.1142   -0.9747   -1.0086 H   0  0  0  0  0  0  0  0  0  0  0  0
   -2.3630   -1.0489   -0.6748 H   0  0  0  0  0  0  0  0  0  0  0  0
   -5.9356    0.5112   -0.8245 H   0  0  0  0  0  0  0  0  0  0  0  0
   -4.6355   -0.6644   -1.0737 H   0  0  0  0  0  0  0  0  0  0  0  0
   -4.0555   -0.6763    1.3038 H   0  0  0  0  0  0  0  0  0  0  0  0
   -5.1060    1.8139    1.7522 H   0  0  0  0  0  0  0  0  0  0  0  0
   -4.9804    0.4855    2.9953 H   0  0  0  0  0  0  0  0  0  0  0  0
   -7.1585    0.5932    3.2047 H   0  0  0  0  0  0  0  0  0  0  0  0
   -7.4069    1.6067    1.7037 H   0  0  0  0  0  0  0  0  0  0  0  0
   -7.7544   -0.1181    0.3489 H   0  0  0  0  0  0  0  0  0  0  0  0
   -8.0844   -1.0767    1.8569 H   0  0  0  0  0  0  0  0  0  0  0  0
   -3.8040   -2.5464    0.5591 H   0  0  0  0  0  0  0  0  0  0  0  0
   -3.5586   -4.9572    0.3570 H   0  0  0  0  0  0  0  0  0  0  0  0
   -5.3741   -5.1143    0.6714 H   0  0  0  0  0  0  0  0  0  0  0  0
    1.5727    2.8020   -2.8129 H   0  0  0  0  0  0  0  0  0  0  0  0
    5.8501    2.8602   -4.5513 H   0  0  0  0  0  0  0  0  0  0  0  0
    6.1095    3.8904   -3.1312 H   0  0  0  0  0  0  0  0  0  0  0  0
    6.3993    1.5159   -2.3884 H   0  0  0  0  0  0  0  0  0  0  0  0
    7.1208   -1.8228   -0.9662 H   0  0  0  0  0  0  0  0  0  0  0  0
    8.1025   -0.2546   -0.9187 H   0  0  0  0  0  0  0  0  0  0  0  0
    8.0676   -1.3030    1.3018 H   0  0  0  0  0  0  0  0  0  0  0  0
    7.0747    0.2389    1.2252 H   0  0  0  0  0  0  0  0  0  0  0  0
    3.8597   -1.7550    1.0073 H   0  0  0  0  0  0  0  0  0  0  0  0
    5.0083   -2.5885   -0.1682 H   0  0  0  0  0  0  0  0  0  0  0  0
    2.0041   -0.5323   -0.1520 H   0  0  0  0  0  0  0  0  0  0  0  0
    3.8840   -2.9251    2.6479 H   0  0  0  0  0  0  0  0  0  0  0  0
    5.6303   -3.0206    5.1277 H   0  0  0  0  0  0  0  0  0  0  0  0
    3.9312   -3.7070    4.8994 H   0  0  0  0  0  0  0  0  0  0  0  0
  1  2  1  0
  2  3  2  0
  3  4  1  0
  4  5  2  0
  5  6  1  0
  6  7  2  0
  7  8  1  0
  8  9  2  0
  9 10  1  0
 10 11  1  0
 11 12  1  0
 12 13  1  0
 13 14  1  0
 14 15  1  0
 15 16  1  0
 16 17  1  0
 17 18  2  0
 17 19  1  0
 19 20  2  3
  6 21  1  0
 21 22  2  0
 22 23  1  0
 23 24  1  0
 24 25  1  0
 24 26  2  0
 23 27  2  0
 27 28  1  0
 28 29  1  0
 29 30  1  0
 30 31  1  0
 31 32  1  0
 32 33  1  0
 33 34  1  0
 34 35  1  0
 35 36  2  0
 32 37  1  0
 37 38  2  0
 37 39  1  0
 39 40  2  3
 10  2  1  0
 16 12  1  0
 36 21  1  0
  9  4  1  0
 35 27  1  0
 34 29  2  0
  1 41  1  0
  1 42  1  0
  1 43  1  0
  5 44  1  0
  7 45  1  0
  8 46  1  0
 11 47  1  0
 11 48  1  0
 12 49  1  1
 13 50  1  0
 13 51  1  0
 14 52  1  0
 14 53  1  0
 15 54  1  0
 15 55  1  0
 19 56  1  0
 20 57  1  0
 20 58  1  0
 22 59  1  0
 25 60  1  0
 25 61  1  0
 28 62  1  0
 30 63  1  0
 30 64  1  0
 31 65  1  0
 31 66  1  0
 33 67  1  0
 33 68  1  0
 36 69  1  0
 39 70  1  0
 40 71  1  0
 40 72  1  0
M  END
$$$$
[H]Oc1c(C(=O)OC([H])([H])C([H])([H])C([H])([H])C([H])([H])C([H])([H])[H])c(=O)n(C([H])([H])[H])c(=O)c2c([H])c([H])c([H])c([H])c12
     RDKit          3D

 42 43  0  0  0  0  0  0  0  0999 V2000
    5.2065    0.2969    1.3087 C   0  0  0  0  0  0  0  0  0  0  0  0
    5.3542   -0.6517    0.1355 C   0  0  0  0  0  0  0  0  0  0  0  0
    4.9137    0.0660   -1.1192 C   0  0  0  0  0  0  0  0  0  0  0  0
    3.4800    0.5295   -1.0436 C   0  0  0  0  0  0  0  0  0  0  0  0
    2.5864   -0.6560   -0.8544 C   0  0  0  0  0  0  0  0  0  0  0  0
    1.2250   -0.1963   -0.7959 O   0  0  0  0  0  0  0  0  0  0  0  0
    0.1783   -1.0890   -0.6246 C   0  0  0  0  0  0  0  0  0  0  0  0
    0.5455   -2.3053   -0.5296 O   0  0  0  0  0  0  0  0  0  0  0  0
   -1.2204   -0.7522   -0.5479 C   0  0  0  0  0  0  0  0  0  0  0  0
   -1.5723    0.5678   -0.6580 C   0  0  0  0  0  0  0  0  0  0  0  0
   -0.8909    1.3346   -1.5557 O   0  0  0  0  0  0  0  0  0  0  0  0
   -2.5857    1.2339    0.0687 C   0  0  0  0  0  0  0  0  0  0  0  0
   -2.3640    2.5781    0.0919 C   0  0  0  0  0  0  0  0  0  0  0  0
   -3.2660    3.3767    0.7606 C   0  0  0  0  0  0  0  0  0  0  0  0
   -4.3540    2.7848    1.3779 C   0  0  0  0  0  0  0  0  0  0  0  0
   -4.5816    1.4341    1.3575 C   0  0  0  0  0  0  0  0  0  0  0  0
   -3.6691    0.6418    0.6829 C   0  0  0  0  0  0  0  0  0  0  0  0
   -3.9807   -0.7121    0.7143 C   0  0  0  0  0  0  0  0  0  0  0  0
   -5.0500   -0.9713    1.3606 O   0  0  0  0  0  0  0  0  0  0  0  0
   -3.3498   -1.7867    0.1822 N   0  0  0  0  0  0  0  0  0  0  0  0
   -4.0997   -3.0236    0.1805 C   0  0  0  0  0  0  0  0  0  0  0  0
   -2.0858   -1.8000   -0.3435 C   0  0  0  0  0  0  0  0  0  0  0  0
   -1.7253   -2.9550   -0.6621 O   0  0  0  0  0  0  0  0  0  0  0  0
    5.8442   -0.1035    2.1235 H   0  0  0  0  0  0  0  0  0  0  0  0
    4.1486    0.3900    1.5763 H   0  0  0  0  0  0  0  0  0  0  0  0
    5.6258    1.2883    0.9873 H   0  0  0  0  0  0  0  0  0  0  0  0
    4.7931   -1.5781    0.3415 H   0  0  0  0  0  0  0  0  0  0  0  0
    6.4275   -0.9615    0.0346 H   0  0  0  0  0  0  0  0  0  0  0  0
    5.0671   -0.6559   -1.9580 H   0  0  0  0  0  0  0  0  0  0  0  0
    5.5827    0.9204   -1.3516 H   0  0  0  0  0  0  0  0  0  0  0  0
    3.3977    1.2305   -0.1611 H   0  0  0  0  0  0  0  0  0  0  0  0
    3.1879    1.1187   -1.9268 H   0  0  0  0  0  0  0  0  0  0  0  0
    2.6890   -1.3430   -1.6932 H   0  0  0  0  0  0  0  0  0  0  0  0
    2.8545   -1.1192    0.1396 H   0  0  0  0  0  0  0  0  0  0  0  0
   -0.1808    1.0523   -2.1709 H   0  0  0  0  0  0  0  0  0  0  0  0
   -1.4887    2.9964   -0.4122 H   0  0  0  0  0  0  0  0  0  0  0  0
   -3.1352    4.4491    0.8084 H   0  0  0  0  0  0  0  0  0  0  0  0
   -5.0587    3.4172    1.9014 H   0  0  0  0  0  0  0  0  0  0  0  0
   -5.4130    0.9416    1.8243 H   0  0  0  0  0  0  0  0  0  0  0  0
   -4.0160   -3.5836    1.1174 H   0  0  0  0  0  0  0  0  0  0  0  0
   -5.1904   -2.7726    0.0396 H   0  0  0  0  0  0  0  0  0  0  0  0
   -3.8298   -3.6319   -0.7068 H   0  0  0  0  0  0  0  0  0  0  0  0
  1  2  1  0
  2  3  1  0
  3  4  1  0
  4  5  1  0
  5  6  1  0
  6  7  1  0
  7  8  2  0
  7  9  1  0
  9 10  2  0
 10 11  1  0
 10 12  1  0
 12 13  2  0
 13 14  1  0
 14 15  2  0
 15 16  1  0
 16 17  2  0
 17 18  1  0
 18 19  2  0
 18 20  1  0
 20 21  1  0
 20 22  1  0
 22 23  2  0
 22  9  1  0
 17 12  1  0
  1 24  1  0
  1 25  1  0
  1 26  1  0
  2 27  1  0
  2 28  1  0
  3 29  1  0
  3 30  1  0
  4 31  1  0
  4 32  1  0
  5 33  1  0
  5 34  1  0
 11 35  1  0
 13 36  1  0
 14 37  1  0
 15 38  1  0
 16 39  1  0
 21 40  1  0
 21 41  1  0
 21 42  1  0
M  END
$$$$
[H]N=C(c1c([H])c([H])c([H])c(-c2c([H])c([H])c([H])c(C([H])([H])[C@@]([H])(C(=O)N3C([H])([H])C([H])([H])N([H])C([H])([H])C3([H])[H])N([H])S(=O)(=O)c3c([H])c([H])c4c([H])c([H])c([H])c([H])c4c3[H])c2[H])c1[H])N([H])[H]
     RDKit          3D

 70 74  0  0  0  0  0  0  0  0999 V2000
    6.2819   -1.8896    3.7477 N   0  0  0  0  0  0  0  0  0  0  0  0
    6.1776   -0.5206    4.0914 C   0  0  0  0  0  0  0  0  0  0  0  0
    6.6923   -0.1053    5.1827 N   0  0  0  0  0  0  0  0  0  0  0  0
    5.4687    0.3461    3.1596 C   0  0  0  0  0  0  0  0  0  0  0  0
    5.3426    1.6772    3.4765 C   0  0  0  0  0  0  0  0  0  0  0  0
    4.6694    2.5568    2.6256 C   0  0  0  0  0  0  0  0  0  0  0  0
    4.1337    2.0472    1.4548 C   0  0  0  0  0  0  0  0  0  0  0  0
    4.2436    0.7173    1.1088 C   0  0  0  0  0  0  0  0  0  0  0  0
    4.9159   -0.1097    1.9791 C   0  0  0  0  0  0  0  0  0  0  0  0
    3.6799    0.1565   -0.1144 C   0  0  0  0  0  0  0  0  0  0  0  0
    4.2725   -0.9103   -0.7797 C   0  0  0  0  0  0  0  0  0  0  0  0
    3.7535   -1.4575   -1.9295 C   0  0  0  0  0  0  0  0  0  0  0  0
    2.5947   -0.9148   -2.4333 C   0  0  0  0  0  0  0  0  0  0  0  0
    1.9547    0.1451   -1.8227 C   0  0  0  0  0  0  0  0  0  0  0  0
    0.7230    0.6715   -2.4097 C   0  0  0  0  0  0  0  0  0  0  0  0
   -0.5010    0.0097   -1.8132 C   0  0  2  0  0  0  0  0  0  0  0  0
   -0.4436   -1.4071   -2.0517 N   0  0  0  0  0  0  0  0  0  0  0  0
   -0.5382   -2.4440   -0.7407 S   0  0  0  0  0  0  0  0  0  0  0  0
   -0.4886   -3.8655   -1.3039 O   0  0  0  0  0  0  0  0  0  0  0  0
    0.6747   -2.4058    0.1783 O   0  0  0  0  0  0  0  0  0  0  0  0
   -2.0105   -2.3517    0.1717 C   0  0  0  0  0  0  0  0  0  0  0  0
   -2.0872   -1.5134    1.2597 C   0  0  0  0  0  0  0  0  0  0  0  0
   -3.1965   -1.3727    2.0365 C   0  0  0  0  0  0  0  0  0  0  0  0
   -4.3239   -2.0986    1.7414 C   0  0  0  0  0  0  0  0  0  0  0  0
   -5.4696   -1.9688    2.5263 C   0  0  0  0  0  0  0  0  0  0  0  0
   -6.5797   -2.6990    2.2181 C   0  0  0  0  0  0  0  0  0  0  0  0
   -6.5682   -3.5537    1.1442 C   0  0  0  0  0  0  0  0  0  0  0  0
   -5.4078   -3.6779    0.3579 C   0  0  0  0  0  0  0  0  0  0  0  0
   -4.2905   -2.9484    0.6621 C   0  0  0  0  0  0  0  0  0  0  0  0
   -3.1543   -3.0707   -0.1060 C   0  0  0  0  0  0  0  0  0  0  0  0
   -1.7457    0.6049   -2.3639 C   0  0  0  0  0  0  0  0  0  0  0  0
   -2.3876   -0.0891   -3.1942 O   0  0  0  0  0  0  0  0  0  0  0  0
   -2.2394    1.8702   -2.0174 N   0  0  0  0  0  0  0  0  0  0  0  0
   -1.6866    2.7739   -1.0344 C   0  0  0  0  0  0  0  0  0  0  0  0
   -2.0182    4.1832   -1.4703 C   0  0  0  0  0  0  0  0  0  0  0  0
   -1.9859    4.3288   -2.9016 N   0  0  0  0  0  0  0  0  0  0  0  0
   -2.9371    3.5057   -3.5991 C   0  0  0  0  0  0  0  0  0  0  0  0
   -3.4447    2.4208   -2.6900 C   0  0  0  0  0  0  0  0  0  0  0  0
    2.5128    0.6581   -0.6749 C   0  0  0  0  0  0  0  0  0  0  0  0
    6.6824   -2.1929    2.8454 H   0  0  0  0  0  0  0  0  0  0  0  0
    5.9473   -2.6009    4.4205 H   0  0  0  0  0  0  0  0  0  0  0  0
    7.1850   -0.7630    5.8168 H   0  0  0  0  0  0  0  0  0  0  0  0
    5.7456    2.1131    4.3795 H   0  0  0  0  0  0  0  0  0  0  0  0
    4.5761    3.6026    2.8836 H   0  0  0  0  0  0  0  0  0  0  0  0
    3.6173    2.6960    0.7906 H   0  0  0  0  0  0  0  0  0  0  0  0
    5.0402   -1.1600    1.7717 H   0  0  0  0  0  0  0  0  0  0  0  0
    5.1852   -1.2876   -0.3234 H   0  0  0  0  0  0  0  0  0  0  0  0
    4.2455   -2.3028   -2.4363 H   0  0  0  0  0  0  0  0  0  0  0  0
    2.1957   -1.3641   -3.3517 H   0  0  0  0  0  0  0  0  0  0  0  0
    0.7359    1.7630   -2.3261 H   0  0  0  0  0  0  0  0  0  0  0  0
    0.6984    0.3932   -3.5002 H   0  0  0  0  0  0  0  0  0  0  0  0
   -0.5193    0.1911   -0.7435 H   0  0  0  0  0  0  0  0  0  0  0  0
   -0.9590   -1.6449   -2.8922 H   0  0  0  0  0  0  0  0  0  0  0  0
   -1.1988   -0.9167    1.5219 H   0  0  0  0  0  0  0  0  0  0  0  0
   -3.2119   -0.7030    2.8800 H   0  0  0  0  0  0  0  0  0  0  0  0
   -5.4585   -1.2911    3.3679 H   0  0  0  0  0  0  0  0  0  0  0  0
   -7.4631   -2.5821    2.8453 H   0  0  0  0  0  0  0  0  0  0  0  0
   -7.4684   -4.1120    0.9349 H   0  0  0  0  0  0  0  0  0  0  0  0
   -5.4759   -4.3649   -0.4658 H   0  0  0  0  0  0  0  0  0  0  0  0
   -3.1291   -3.7448   -0.9623 H   0  0  0  0  0  0  0  0  0  0  0  0
   -2.3216    2.5845   -0.1034 H   0  0  0  0  0  0  0  0  0  0  0  0
   -0.6586    2.6135   -0.7463 H   0  0  0  0  0  0  0  0  0  0  0  0
   -3.0023    4.4499   -1.0375 H   0  0  0  0  0  0  0  0  0  0  0  0
   -1.2765    4.8562   -1.0334 H   0  0  0  0  0  0  0  0  0  0  0  0
   -2.1715    5.3238   -3.1360 H   0  0  0  0  0  0  0  0  0  0  0  0
   -2.3773    2.9973   -4.4184 H   0  0  0  0  0  0  0  0  0  0  0  0
   -3.7659    4.1451   -3.9915 H   0  0  0  0  0  0  0  0  0  0  0  0
   -3.9567    1.6175   -3.2486 H   0  0  0  0  0  0  0  0  0  0  0  0
   -4.0643    2.8809   -1.9067 H   0  0  0  0  0  0  0  0  0  0  0  0
    2.0377    1.5042   -0.1533 H   0  0  0  0  0  0  0  0  0  0  0  0
  1  2  1  0
  2  3  2  3
  2  4  1  0
  4  5  2  0
  5  6  1  0
  6  7  2  0
  7  8  1  0
  8  9  2  0
  8 10  1  0
 10 11  2  0
 11 12  1  0
 12 13  2  0
 13 14  1  0
 14 15  1  0
 15 16  1  0
 16 17  1  0
 17 18  1  0
 18 19  2  0
 18 20  2  0
 18 21  1  0
 21 22  2  0
 22 23  1  0
 23 24  2  0
 24 25  1  0
 25 26  2  0
 26 27  1  0
 27 28  2  0
 28 29  1  0
 29 30  2  0
 16 31  1  0
 31 32  2  0
 31 33  1  0
 33 34  1  0
 34 35  1  0
 35 36  1  0
 36 37  1  0
 37 38  1  0
 14 39  2  0
  9  4  1  0
 39 10  1  0
 30 21  1  0
 38 33  1  0
 29 24  1  0
  1 40  1  0
  1 41  1  0
  3 42  1  0
  5 43  1  0
  6 44  1  0
  7 45  1  0
  9 46  1  0
 11 47  1  0
 12 48  1  0
 13 49  1  0
 15 50  1  0
 15 51  1  0
 16 52  1  1
 17 53  1  0
 22 54  1  0
 23 55  1  0
 25 56  1  0
 26 57  1  0
 27 58  1  0
 28 59  1  0
 30 60  1  0
 34 61  1  0
 34 62  1  0
 35 63  1  0
 35 64  1  0
 36 65  1  0
 37 66  1  0
 37 67  1  0
 38 68  1  0
 38 69  1  0
 39 70  1  0
M  END
$$$$
[H]Oc1c([H])c([H])c([C@@](O[H])(c2c([H])c([H])c(OC([H])([H])C([H])([H])N3C([H])([H])[C@@]([H])(C([H])([H])C([H])([H])[H])[C@]([H])(c4c([H])c([H])c(O[H])c([H])c4[H])C3([H])[H])c([H])c2[H])C([H])([H])[H])c([H])c1[H]
     RDKit          3D

 66 69  0  0  0  0  0  0  0  0999 V2000
   -3.5342    2.5662    1.3851 C   0  0  0  0  0  0  0  0  0  0  0  0
   -2.4467    2.2280    0.4134 C   0  0  0  0  0  0  0  0  0  0  0  0
   -2.6168    0.7969   -0.0594 C   0  0  2  0  0  0  0  0  0  0  0  0
   -1.4603    0.4810   -1.0510 C   0  0  0  0  0  0  0  0  0  0  0  0
   -1.9746   -0.4429   -1.9444 N   0  0  0  0  0  0  0  0  0  0  0  0
   -1.2602   -1.5257   -2.4520 C   0  0  0  0  0  0  0  0  0  0  0  0
   -0.8812   -2.6590   -1.5894 C   0  0  0  0  0  0  0  0  0  0  0  0
   -0.0614   -2.4976   -0.5140 O   0  0  0  0  0  0  0  0  0  0  0  0
    1.2574   -2.1273   -0.3850 C   0  0  0  0  0  0  0  0  0  0  0  0
    1.8003   -2.0375    0.9139 C   0  0  0  0  0  0  0  0  0  0  0  0
    3.1052   -1.6762    1.1065 C   0  0  0  0  0  0  0  0  0  0  0  0
    3.9361   -1.3874    0.0447 C   0  0  0  0  0  0  0  0  0  0  0  0
    3.4175   -1.4722   -1.2226 C   0  0  0  0  0  0  0  0  0  0  0  0
    2.1006   -1.8363   -1.4327 C   0  0  0  0  0  0  0  0  0  0  0  0
    5.3612   -0.9870    0.2134 C   0  0  2  0  0  0  0  0  0  0  0  0
    6.0898   -1.2862   -1.0715 C   0  0  0  0  0  0  0  0  0  0  0  0
    5.8776   -1.9162    1.1639 O   0  0  0  0  0  0  0  0  0  0  0  0
    5.5418    0.3768    0.7085 C   0  0  0  0  0  0  0  0  0  0  0  0
    5.4445    0.6699    2.0709 C   0  0  0  0  0  0  0  0  0  0  0  0
    5.6073    1.9499    2.5569 C   0  0  0  0  0  0  0  0  0  0  0  0
    5.8749    2.9981    1.7066 C   0  0  0  0  0  0  0  0  0  0  0  0
    6.0354    4.2866    2.2282 O   0  0  0  0  0  0  0  0  0  0  0  0
    5.9758    2.7378    0.3626 C   0  0  0  0  0  0  0  0  0  0  0  0
    5.8091    1.4397   -0.1169 C   0  0  0  0  0  0  0  0  0  0  0  0
   -3.3712   -0.5720   -1.8234 C   0  0  0  0  0  0  0  0  0  0  0  0
   -3.8012    0.5868   -0.9533 C   0  0  1  0  0  0  0  0  0  0  0  0
   -5.0612    0.2607   -0.2382 C   0  0  0  0  0  0  0  0  0  0  0  0
   -6.1478    1.0868   -0.3845 C   0  0  0  0  0  0  0  0  0  0  0  0
   -7.3217    0.7468    0.2848 C   0  0  0  0  0  0  0  0  0  0  0  0
   -7.4422   -0.3653    1.0766 C   0  0  0  0  0  0  0  0  0  0  0  0
   -8.6033   -0.7115    1.7455 O   0  0  0  0  0  0  0  0  0  0  0  0
   -6.3398   -1.1938    1.2188 C   0  0  0  0  0  0  0  0  0  0  0  0
   -5.1718   -0.8719    0.5638 C   0  0  0  0  0  0  0  0  0  0  0  0
   -4.3210    3.2170    0.9409 H   0  0  0  0  0  0  0  0  0  0  0  0
   -4.0265    1.6948    1.8517 H   0  0  0  0  0  0  0  0  0  0  0  0
   -3.0535    3.1024    2.2534 H   0  0  0  0  0  0  0  0  0  0  0  0
   -2.4531    2.9346   -0.4648 H   0  0  0  0  0  0  0  0  0  0  0  0
   -1.4712    2.3906    0.8892 H   0  0  0  0  0  0  0  0  0  0  0  0
   -2.5091    0.0767    0.7533 H   0  0  0  0  0  0  0  0  0  0  0  0
   -0.5396    0.3055   -0.5153 H   0  0  0  0  0  0  0  0  0  0  0  0
   -1.3657    1.4776   -1.6017 H   0  0  0  0  0  0  0  0  0  0  0  0
   -1.9099   -1.9806   -3.2822 H   0  0  0  0  0  0  0  0  0  0  0  0
   -0.3763   -1.1512   -3.0049 H   0  0  0  0  0  0  0  0  0  0  0  0
   -1.7889   -3.3144   -1.3375 H   0  0  0  0  0  0  0  0  0  0  0  0
   -0.3291   -3.3879   -2.2911 H   0  0  0  0  0  0  0  0  0  0  0  0
    1.1263   -2.2708    1.7484 H   0  0  0  0  0  0  0  0  0  0  0  0
    3.4842   -1.6193    2.0971 H   0  0  0  0  0  0  0  0  0  0  0  0
    3.9978   -1.2641   -2.1068 H   0  0  0  0  0  0  0  0  0  0  0  0
    1.7126   -1.9097   -2.4612 H   0  0  0  0  0  0  0  0  0  0  0  0
    5.7748   -2.2819   -1.4702 H   0  0  0  0  0  0  0  0  0  0  0  0
    7.1983   -1.2731   -0.9364 H   0  0  0  0  0  0  0  0  0  0  0  0
    5.8721   -0.5676   -1.8740 H   0  0  0  0  0  0  0  0  0  0  0  0
    5.3518   -2.7436    1.1636 H   0  0  0  0  0  0  0  0  0  0  0  0
    5.2376   -0.1513    2.7450 H   0  0  0  0  0  0  0  0  0  0  0  0
    5.5239    2.1442    3.6315 H   0  0  0  0  0  0  0  0  0  0  0  0
    6.9698    4.5822    2.5022 H   0  0  0  0  0  0  0  0  0  0  0  0
    6.1855    3.5556   -0.3085 H   0  0  0  0  0  0  0  0  0  0  0  0
    5.8991    1.3015   -1.1753 H   0  0  0  0  0  0  0  0  0  0  0  0
   -3.6026   -1.4949   -1.2543 H   0  0  0  0  0  0  0  0  0  0  0  0
   -3.9271   -0.5375   -2.7948 H   0  0  0  0  0  0  0  0  0  0  0  0
   -3.9449    1.5009   -1.5601 H   0  0  0  0  0  0  0  0  0  0  0  0
   -6.1625    1.9787   -0.9774 H   0  0  0  0  0  0  0  0  0  0  0  0
   -8.2054    1.3742    0.1952 H   0  0  0  0  0  0  0  0  0  0  0  0
   -9.4074   -0.0910    1.6312 H   0  0  0  0  0  0  0  0  0  0  0  0
   -6.3760   -2.0775    1.8253 H   0  0  0  0  0  0  0  0  0  0  0  0
   -4.3024   -1.5047    0.6624 H   0  0  0  0  0  0  0  0  0  0  0  0
  1  2  1  0
  2  3  1  0
  3  4  1  0
  4  5  1  0
  5  6  1  0
  6  7  1  0
  7  8  1  0
  8  9  1  0
  9 10  2  0
 10 11  1  0
 11 12  2  0
 12 13  1  0
 13 14  2  0
 12 15  1  0
 15 16  1  0
 15 17  1  1
 15 18  1  0
 18 19  2  0
 19 20  1  0
 20 21  2  0
 21 22  1  0
 21 23  1  0
 23 24  2  0
  5 25  1  0
 25 26  1  0
 26 27  1  0
 27 28  2  0
 28 29  1  0
 29 30  2  0
 30 31  1  0
 30 32  1  0
 32 33  2  0
 26  3  1  0
 33 27  1  0
 14  9  1  0
 24 18  1  0
  1 34  1  0
  1 35  1  0
  1 36  1  0
  2 37  1  0
  2 38  1  0
  3 39  1  1
  4 40  1  0
  4 41  1  0
  6 42  1  0
  6 43  1  0
  7 44  1  0
  7 45  1  0
 10 46  1  0
 11 47  1  0
 13 48  1  0
 14 49  1  0
 16 50  1  0
 16 51  1  0
 16 52  1  0
 17 53  1  0
 19 54  1  0
 20 55  1  0
 22 56  1  0
 23 57  1  0
 24 58  1  0
 25 59  1  0
 25 60  1  0
 26 61  1  6
 28 62  1  0
 29 63  1  0
 31 64  1  0
 32 65  1  0
 33 66  1  0
M  END
$$$$
[H]OC(=O)[C@@]1([H])N(C(=O)C([H])(N([H])C(=O)N([H])C([H])([H])c2c([H])c([H])c([H])c([H])c2[H])C([H])([H])c2c([H])c([H])c([H])c(OC([H])([H])C([H])([H])Oc3c([H])c([H])c([H])c([H])c3[H])c2[H])C([H])([H])[C@@]([H])(C([H])([H])O[H])C1([H])[H]
     RDKit          3D

 76 79  0  0  0  0  0  0  0  0999 V2000
   -4.7191    5.0570    2.6486 O   0  0  0  0  0  0  0  0  0  0  0  0
   -3.5659    5.2518    1.8621 C   0  0  0  0  0  0  0  0  0  0  0  0
   -3.9126    4.6513    0.5017 C   0  0  1  0  0  0  0  0  0  0  0  0
   -2.8195    4.7577   -0.4741 C   0  0  0  0  0  0  0  0  0  0  0  0
   -2.8176    3.3675   -1.1777 C   0  0  2  0  0  0  0  0  0  0  0  0
   -3.1444    2.4713   -0.1332 N   0  0  0  0  0  0  0  0  0  0  0  0
   -4.2167    3.1984    0.6544 C   0  0  0  0  0  0  0  0  0  0  0  0
   -2.7227    1.1986    0.2300 C   0  0  0  0  0  0  0  0  0  0  0  0
   -3.3268    0.6946    1.2559 O   0  0  0  0  0  0  0  0  0  0  0  0
   -1.7056    0.3229   -0.3592 C   0  0  0  0  0  0  0  0  0  0  0  0
   -0.4815    0.4126    0.5319 C   0  0  0  0  0  0  0  0  0  0  0  0
    0.6783   -0.3664    0.1261 C   0  0  0  0  0  0  0  0  0  0  0  0
    1.0057   -1.5992    0.6294 C   0  0  0  0  0  0  0  0  0  0  0  0
    2.1245   -2.2530    0.1631 C   0  0  0  0  0  0  0  0  0  0  0  0
    2.9639   -1.7205   -0.8146 C   0  0  0  0  0  0  0  0  0  0  0  0
    2.6474   -0.4724   -1.3342 C   0  0  0  0  0  0  0  0  0  0  0  0
    3.3834    0.1588   -2.2866 O   0  0  0  0  0  0  0  0  0  0  0  0
    4.5192   -0.0763   -2.9800 C   0  0  0  0  0  0  0  0  0  0  0  0
    5.7207   -0.1417   -2.0732 C   0  0  0  0  0  0  0  0  0  0  0  0
    6.9357   -0.3871   -2.7691 O   0  0  0  0  0  0  0  0  0  0  0  0
    8.0758   -0.4722   -1.9891 C   0  0  0  0  0  0  0  0  0  0  0  0
    9.2892   -0.7035   -2.5735 C   0  0  0  0  0  0  0  0  0  0  0  0
   10.4718   -0.7984   -1.8210 C   0  0  0  0  0  0  0  0  0  0  0  0
   10.3950   -0.6512   -0.4376 C   0  0  0  0  0  0  0  0  0  0  0  0
    9.1931   -0.4220    0.1398 C   0  0  0  0  0  0  0  0  0  0  0  0
    8.0388   -0.3315   -0.6195 C   0  0  0  0  0  0  0  0  0  0  0  0
    1.5054    0.1617   -0.8393 C   0  0  0  0  0  0  0  0  0  0  0  0
   -2.1774   -1.0260   -0.4834 N   0  0  0  0  0  0  0  0  0  0  0  0
   -2.4762   -1.9527    0.5089 C   0  0  0  0  0  0  0  0  0  0  0  0
   -2.3820   -1.7732    1.7587 O   0  0  0  0  0  0  0  0  0  0  0  0
   -2.9511   -3.2855    0.1728 N   0  0  0  0  0  0  0  0  0  0  0  0
   -3.2718   -4.2634    1.1581 C   0  0  0  0  0  0  0  0  0  0  0  0
   -4.5882   -4.0202    1.8184 C   0  0  0  0  0  0  0  0  0  0  0  0
   -5.4152   -2.9920    1.4502 C   0  0  0  0  0  0  0  0  0  0  0  0
   -6.6341   -2.7693    2.0651 C   0  0  0  0  0  0  0  0  0  0  0  0
   -6.9989   -3.6269    3.0772 C   0  0  0  0  0  0  0  0  0  0  0  0
   -6.2025   -4.6770    3.4850 C   0  0  0  0  0  0  0  0  0  0  0  0
   -4.9932   -4.8570    2.8381 C   0  0  0  0  0  0  0  0  0  0  0  0
   -1.6072    3.2233   -1.9504 C   0  0  0  0  0  0  0  0  0  0  0  0
   -0.3389    3.3966   -1.4438 O   0  0  0  0  0  0  0  0  0  0  0  0
   -1.6960    2.9200   -3.1902 O   0  0  0  0  0  0  0  0  0  0  0  0
   -5.4306    5.7186    2.4382 H   0  0  0  0  0  0  0  0  0  0  0  0
   -3.4113    6.3255    1.7457 H   0  0  0  0  0  0  0  0  0  0  0  0
   -2.7513    4.6956    2.3338 H   0  0  0  0  0  0  0  0  0  0  0  0
   -4.7865    5.2311    0.1053 H   0  0  0  0  0  0  0  0  0  0  0  0
   -1.8298    4.8514    0.0477 H   0  0  0  0  0  0  0  0  0  0  0  0
   -2.9440    5.5581   -1.2334 H   0  0  0  0  0  0  0  0  0  0  0  0
   -3.7380    3.4443   -1.8600 H   0  0  0  0  0  0  0  0  0  0  0  0
   -5.1974    2.9567    0.1834 H   0  0  0  0  0  0  0  0  0  0  0  0
   -4.1333    2.9093    1.7009 H   0  0  0  0  0  0  0  0  0  0  0  0
   -1.4604    0.6852   -1.3856 H   0  0  0  0  0  0  0  0  0  0  0  0
   -0.1832    1.4625    0.6425 H   0  0  0  0  0  0  0  0  0  0  0  0
   -0.7850    0.0609    1.5509 H   0  0  0  0  0  0  0  0  0  0  0  0
    0.4483   -2.1071    1.3948 H   0  0  0  0  0  0  0  0  0  0  0  0
    2.4013   -3.2363    0.5499 H   0  0  0  0  0  0  0  0  0  0  0  0
    3.8056   -2.2922   -1.1443 H   0  0  0  0  0  0  0  0  0  0  0  0
    4.4847   -0.9545   -3.6783 H   0  0  0  0  0  0  0  0  0  0  0  0
    4.6727    0.7943   -3.7057 H   0  0  0  0  0  0  0  0  0  0  0  0
    5.7675    0.8330   -1.5257 H   0  0  0  0  0  0  0  0  0  0  0  0
    5.5855   -0.9107   -1.3175 H   0  0  0  0  0  0  0  0  0  0  0  0
    9.3644   -0.8196   -3.6446 H   0  0  0  0  0  0  0  0  0  0  0  0
   11.4305   -0.9772   -2.2598 H   0  0  0  0  0  0  0  0  0  0  0  0
   11.3380   -0.7305    0.1219 H   0  0  0  0  0  0  0  0  0  0  0  0
    9.1241   -0.3064    1.2115 H   0  0  0  0  0  0  0  0  0  0  0  0
    7.0694   -0.1439   -0.1517 H   0  0  0  0  0  0  0  0  0  0  0  0
    1.2954    1.1261   -1.2677 H   0  0  0  0  0  0  0  0  0  0  0  0
   -2.3221   -1.3633   -1.4930 H   0  0  0  0  0  0  0  0  0  0  0  0
   -3.0474   -3.4865   -0.8402 H   0  0  0  0  0  0  0  0  0  0  0  0
   -2.5147   -4.2148    1.9733 H   0  0  0  0  0  0  0  0  0  0  0  0
   -3.2424   -5.2975    0.7619 H   0  0  0  0  0  0  0  0  0  0  0  0
   -5.1127   -2.3347    0.6576 H   0  0  0  0  0  0  0  0  0  0  0  0
   -7.2835   -1.9356    1.7526 H   0  0  0  0  0  0  0  0  0  0  0  0
   -7.9575   -3.4724    3.5802 H   0  0  0  0  0  0  0  0  0  0  0  0
   -6.5694   -5.2958    4.2854 H   0  0  0  0  0  0  0  0  0  0  0  0
   -4.3598   -5.6761    3.1472 H   0  0  0  0  0  0  0  0  0  0  0  0
    0.4899    3.2972   -2.0027 H   0  0  0  0  0  0  0  0  0  0  0  0
  1  2  1  0
  2  3  1  0
  3  4  1  0
  4  5  1  0
  5  6  1  0
  6  7  1  0
  6  8  1  0
  8  9  2  0
  8 10  1  0
 10 11  1  0
 11 12  1  0
 12 13  2  0
 13 14  1  0
 14 15  2  0
 15 16  1  0
 16 17  1  0
 17 18  1  0
 18 19  1  0
 19 20  1  0
 20 21  1  0
 21 22  2  0
 22 23  1  0
 23 24  2  0
 24 25  1  0
 25 26  2  0
 16 27  2  0
 10 28  1  0
 28 29  1  0
 29 30  2  0
 29 31  1  0
 31 32  1  0
 32 33  1  0
 33 34  2  0
 34 35  1  0
 35 36  2  0
 36 37  1  0
 37 38  2  0
  5 39  1  0
 39 40  1  0
 39 41  2  0
  7  3  1  0
 27 12  1  0
 38 33  1  0
 26 21  1  0
  1 42  1  0
  2 43  1  0
  2 44  1  0
  3 45  1  6
  4 46  1  0
  4 47  1  0
  5 48  1  6
  7 49  1  0
  7 50  1  0
 10 51  1  0
 11 52  1  0
 11 53  1  0
 13 54  1  0
 14 55  1  0
 15 56  1  0
 18 57  1  0
 18 58  1  0
 19 59  1  0
 19 60  1  0
 22 61  1  0
 23 62  1  0
 24 63  1  0
 25 64  1  0
 26 65  1  0
 27 66  1  0
 28 67  1  0
 31 68  1  0
 32 69  1  0
 32 70  1  0
 34 71  1  0
 35 72  1  0
 36 73  1  0
 37 74  1  0
 38 75  1  0
 40 76  1  0
M  END
$$$$
[H]O[C@@]1([H])C([H])(C([H])([H])C([H])([H])C([H])([H])C([H])([H])[H])OC(=O)N(C([H])([H])[H])[C@]([H])(SSC([H])(C([H])([H])[H])C([H])([H])[H])C1([H])[H]
     RDKit          3D

 44 44  0  0  0  0  0  0  0  0999 V2000
   -6.1719   -0.9103    0.6806 C   0  0  0  0  0  0  0  0  0  0  0  0
   -4.9414   -1.4575   -0.0108 C   0  0  0  0  0  0  0  0  0  0  0  0
   -3.7478   -0.6536    0.4966 C   0  0  0  0  0  0  0  0  0  0  0  0
   -2.5046   -1.1587   -0.1616 C   0  0  0  0  0  0  0  0  0  0  0  0
   -1.2726   -0.4301    0.2752 C   0  0  0  0  0  0  0  0  0  0  0  0
   -0.1388   -0.9569   -0.3865 O   0  0  0  0  0  0  0  0  0  0  0  0
    0.8419   -0.3780   -1.1706 C   0  0  0  0  0  0  0  0  0  0  0  0
    1.5085   -1.1195   -1.9468 O   0  0  0  0  0  0  0  0  0  0  0  0
    1.2058    0.9994   -1.2126 N   0  0  0  0  0  0  0  0  0  0  0  0
    1.8609    1.4613   -2.4376 C   0  0  0  0  0  0  0  0  0  0  0  0
    1.0072    1.9854   -0.1985 C   0  0  2  0  0  0  0  0  0  0  0  0
    2.5331    2.3278    0.7200 S   0  0  0  0  0  0  0  0  0  0  0  0
    3.1594    0.6448    1.8435 S   0  0  0  0  0  0  0  0  0  0  0  0
    4.2589   -0.4312    0.9044 C   0  0  0  0  0  0  0  0  0  0  0  0
    5.5723    0.2190    0.5817 C   0  0  0  0  0  0  0  0  0  0  0  0
    4.5518   -1.6467    1.7625 C   0  0  0  0  0  0  0  0  0  0  0  0
   -0.1461    1.6997    0.7267 C   0  0  0  0  0  0  0  0  0  0  0  0
   -1.3119    1.0499    0.0361 C   0  0  1  0  0  0  0  0  0  0  0  0
   -1.3846    1.3175   -1.3047 O   0  0  0  0  0  0  0  0  0  0  0  0
   -6.9000   -1.7420    0.8968 H   0  0  0  0  0  0  0  0  0  0  0  0
   -5.8792   -0.3896    1.6012 H   0  0  0  0  0  0  0  0  0  0  0  0
   -6.6701   -0.1831   -0.0226 H   0  0  0  0  0  0  0  0  0  0  0  0
   -4.8433   -2.5226    0.2801 H   0  0  0  0  0  0  0  0  0  0  0  0
   -5.0380   -1.3576   -1.1230 H   0  0  0  0  0  0  0  0  0  0  0  0
   -3.9622    0.3959    0.2079 H   0  0  0  0  0  0  0  0  0  0  0  0
   -3.7478   -0.7500    1.5871 H   0  0  0  0  0  0  0  0  0  0  0  0
   -2.6049   -1.0950   -1.2518 H   0  0  0  0  0  0  0  0  0  0  0  0
   -2.3762   -2.2432    0.1106 H   0  0  0  0  0  0  0  0  0  0  0  0
   -1.1239   -0.5703    1.3834 H   0  0  0  0  0  0  0  0  0  0  0  0
    2.4934    0.6848   -2.8788 H   0  0  0  0  0  0  0  0  0  0  0  0
    2.5385    2.2892   -2.1100 H   0  0  0  0  0  0  0  0  0  0  0  0
    1.1696    1.8855   -3.1614 H   0  0  0  0  0  0  0  0  0  0  0  0
    0.7496    2.9495   -0.7273 H   0  0  0  0  0  0  0  0  0  0  0  0
    3.8135   -0.8023   -0.0264 H   0  0  0  0  0  0  0  0  0  0  0  0
    5.9918   -0.3121   -0.3123 H   0  0  0  0  0  0  0  0  0  0  0  0
    6.3159    0.1017    1.3873 H   0  0  0  0  0  0  0  0  0  0  0  0
    5.4438    1.2948    0.2806 H   0  0  0  0  0  0  0  0  0  0  0  0
    3.8622   -2.4878    1.4784 H   0  0  0  0  0  0  0  0  0  0  0  0
    5.6065   -1.9631    1.6247 H   0  0  0  0  0  0  0  0  0  0  0  0
    4.3764   -1.3986    2.8295 H   0  0  0  0  0  0  0  0  0  0  0  0
   -0.4775    2.6268    1.2326 H   0  0  0  0  0  0  0  0  0  0  0  0
    0.2092    1.0140    1.5208 H   0  0  0  0  0  0  0  0  0  0  0  0
   -2.2563    1.4689    0.4950 H   0  0  0  0  0  0  0  0  0  0  0  0
   -1.5713    0.5436   -1.8628 H   0  0  0  0  0  0  0  0  0  0  0  0
  1  2  1  0
  2  3  1  0
  3  4  1  0
  4  5  1  0
  5  6  1  0
  6  7  1  0
  7  8  2  0
  7  9  1  0
  9 10  1  0
  9 11  1  0
 11 12  1  0
 12 13  1  0
 13 14  1  0
 14 15  1  0
 14 16  1  0
 11 17  1  0
 17 18  1  0
 18 19  1  0
 18  5  1  0
  1 20  1  0
  1 21  1  0
  1 22  1  0
  2 23  1  0
  2 24  1  0
  3 25  1  0
  3 26  1  0
  4 27  1  0
  4 28  1  0
  5 29  1  0
 10 30  1  0
 10 31  1  0
 10 32  1  0
 11 33  1  6
 14 34  1  0
 15 35  1  0
 15 36  1  0
 15 37  1  0
 16 38  1  0
 16 39  1  0
 16 40  1  0
 17 41  1  0
 17 42  1  0
 18 43  1  1
 19 44  1  0
M  END
$$$$
[H]/C(C(=O)N1C([H])([H])C([H])([H])C([H])([H])[C@@]1([H])C(=O)N([H])C([H])([H])C1(c2c([H])c([H])c(OC([H])([H])[H])c([H])c2[H])C(=O)O[C@]1([H])C([H])([H])C1([H])C([H])([H])C([H])([H])C1([H])[H])=C(/[H])c1c([H])c([H])c([H])c(Cl)c1[H]
     RDKit          3D

 71 75  0  0  0  0  0  0  0  0999 V2000
   -3.9375   -5.4922    1.0150 C   0  0  0  0  0  0  0  0  0  0  0  0
   -3.7005   -4.3667    1.8239 O   0  0  0  0  0  0  0  0  0  0  0  0
   -3.4470   -3.1271    1.2289 C   0  0  0  0  0  0  0  0  0  0  0  0
   -3.2144   -2.0220    2.0017 C   0  0  0  0  0  0  0  0  0  0  0  0
   -2.9631   -0.7914    1.4004 C   0  0  0  0  0  0  0  0  0  0  0  0
   -2.9438   -0.6650    0.0279 C   0  0  0  0  0  0  0  0  0  0  0  0
   -3.1833   -1.8055   -0.7099 C   0  0  0  0  0  0  0  0  0  0  0  0
   -3.4296   -3.0090   -0.1405 C   0  0  0  0  0  0  0  0  0  0  0  0
   -2.6435    0.5701   -0.6934 C   0  0  0  0  0  0  0  0  0  0  0  0
   -1.1988    0.6402   -1.1139 C   0  0  0  0  0  0  0  0  0  0  0  0
   -0.3434    0.5967    0.0453 N   0  0  0  0  0  0  0  0  0  0  0  0
    1.0836    0.6406   -0.0782 C   0  0  0  0  0  0  0  0  0  0  0  0
    1.6544    0.7187   -1.1930 O   0  0  0  0  0  0  0  0  0  0  0  0
    1.9208    0.5931    1.1413 C   0  0  2  0  0  0  0  0  0  0  0  0
    1.7277    1.8623    1.9403 C   0  0  0  0  0  0  0  0  0  0  0  0
    2.4510    2.8212    0.9760 C   0  0  0  0  0  0  0  0  0  0  0  0
    3.6662    2.0261    0.5588 C   0  0  0  0  0  0  0  0  0  0  0  0
    3.3244    0.6530    0.7788 N   0  0  0  0  0  0  0  0  0  0  0  0
    4.1057   -0.5328    0.7043 C   0  0  0  0  0  0  0  0  0  0  0  0
    3.4923   -1.6267    1.0317 O   0  0  0  0  0  0  0  0  0  0  0  0
    5.4717   -0.7077    0.3208 C   0  0  0  0  0  0  0  0  0  0  0  0
    6.3513    0.1766   -0.0787 C   0  0  0  0  0  0  0  0  0  0  0  0
    7.7432   -0.1245   -0.4489 C   0  0  0  0  0  0  0  0  0  0  0  0
    8.5383    0.9508   -0.8513 C   0  0  0  0  0  0  0  0  0  0  0  0
    9.8514    0.8090   -1.2225 C   0  0  0  0  0  0  0  0  0  0  0  0
   10.4059   -0.4411   -1.1971 C   0  0  0  0  0  0  0  0  0  0  0  0
    9.6350   -1.5083   -0.8032 C   0  0  0  0  0  0  0  0  0  0  0  0
   10.3730   -3.0947   -0.7814 Cl  0  0  0  0  0  0  0  0  0  0  0  0
    8.3033   -1.3581   -0.4278 C   0  0  0  0  0  0  0  0  0  0  0  0
   -3.6056    0.8681   -1.8365 C   0  0  1  0  0  0  0  0  0  0  0  0
   -5.0045    0.4314   -1.7618 C   0  0  0  0  0  0  0  0  0  0  0  0
   -5.8215    0.9709   -0.6084 C   0  0  0  0  0  0  0  0  0  0  0  0
   -7.2674    0.4685   -0.6243 C   0  0  0  0  0  0  0  0  0  0  0  0
   -7.7819    1.8988   -0.5294 C   0  0  0  0  0  0  0  0  0  0  0  0
   -6.3645    2.3696   -0.7940 C   0  0  0  0  0  0  0  0  0  0  0  0
   -3.4655    2.2324   -1.3823 O   0  0  0  0  0  0  0  0  0  0  0  0
   -3.0736    1.8517   -0.0843 C   0  0  0  0  0  0  0  0  0  0  0  0
   -3.1417    2.4729    0.9954 O   0  0  0  0  0  0  0  0  0  0  0  0
   -4.1132   -6.3861    1.6122 H   0  0  0  0  0  0  0  0  0  0  0  0
   -3.1136   -5.6213    0.2709 H   0  0  0  0  0  0  0  0  0  0  0  0
   -4.8599   -5.3186    0.3988 H   0  0  0  0  0  0  0  0  0  0  0  0
   -3.2150   -2.0530    3.0750 H   0  0  0  0  0  0  0  0  0  0  0  0
   -2.7856    0.0979    2.0232 H   0  0  0  0  0  0  0  0  0  0  0  0
   -3.1690   -1.7718   -1.8122 H   0  0  0  0  0  0  0  0  0  0  0  0
   -3.6141   -3.8850   -0.7465 H   0  0  0  0  0  0  0  0  0  0  0  0
   -0.9303   -0.1650   -1.8329 H   0  0  0  0  0  0  0  0  0  0  0  0
   -0.9933    1.6315   -1.6094 H   0  0  0  0  0  0  0  0  0  0  0  0
   -0.7200    0.5377    1.0030 H   0  0  0  0  0  0  0  0  0  0  0  0
    1.6977   -0.3114    1.7564 H   0  0  0  0  0  0  0  0  0  0  0  0
    0.6870    2.1443    2.0850 H   0  0  0  0  0  0  0  0  0  0  0  0
    2.2997    1.7658    2.8767 H   0  0  0  0  0  0  0  0  0  0  0  0
    1.7961    3.1125    0.1505 H   0  0  0  0  0  0  0  0  0  0  0  0
    2.7980    3.6674    1.6003 H   0  0  0  0  0  0  0  0  0  0  0  0
    3.8458    2.1718   -0.5255 H   0  0  0  0  0  0  0  0  0  0  0  0
    4.5571    2.3435    1.1636 H   0  0  0  0  0  0  0  0  0  0  0  0
    5.8924   -1.7433    0.3533 H   0  0  0  0  0  0  0  0  0  0  0  0
    6.0188    1.1923   -0.1491 H   0  0  0  0  0  0  0  0  0  0  0  0
    8.1010    1.9631   -0.8752 H   0  0  0  0  0  0  0  0  0  0  0  0
   10.4110    1.7011   -1.5264 H   0  0  0  0  0  0  0  0  0  0  0  0
   11.4596   -0.5571   -1.4946 H   0  0  0  0  0  0  0  0  0  0  0  0
    7.7222   -2.2167   -0.1226 H   0  0  0  0  0  0  0  0  0  0  0  0
   -3.1610    0.7125   -2.8408 H   0  0  0  0  0  0  0  0  0  0  0  0
   -5.2174   -0.6434   -1.8960 H   0  0  0  0  0  0  0  0  0  0  0  0
   -5.5166    0.8950   -2.6813 H   0  0  0  0  0  0  0  0  0  0  0  0
   -5.4378    0.8322    0.3995 H   0  0  0  0  0  0  0  0  0  0  0  0
   -7.5534   -0.0667   -1.5301 H   0  0  0  0  0  0  0  0  0  0  0  0
   -7.5752   -0.0921    0.2808 H   0  0  0  0  0  0  0  0  0  0  0  0
   -8.4817    2.1073   -1.3679 H   0  0  0  0  0  0  0  0  0  0  0  0
   -8.1751    2.1962    0.4477 H   0  0  0  0  0  0  0  0  0  0  0  0
   -5.9848    3.1228   -0.0769 H   0  0  0  0  0  0  0  0  0  0  0  0
   -6.2375    2.6864   -1.8398 H   0  0  0  0  0  0  0  0  0  0  0  0
  1  2  1  0
  2  3  1  0
  3  4  2  0
  4  5  1  0
  5  6  2  0
  6  7  1  0
  7  8  2  0
  6  9  1  0
  9 10  1  0
 10 11  1  0
 11 12  1  0
 12 13  2  0
 12 14  1  0
 14 15  1  0
 15 16  1  0
 16 17  1  0
 17 18  1  0
 18 19  1  0
 19 20  2  0
 19 21  1  0
 21 22  2  0
 22 23  1  0
 23 24  2  0
 24 25  1  0
 25 26  2  0
 26 27  1  0
 27 28  1  0
 27 29  2  0
  9 30  1  0
 30 31  1  0
 31 32  1  0
 32 33  1  0
 33 34  1  0
 34 35  1  0
 30 36  1  0
 36 37  1  0
 37 38  2  0
  8  3  1  0
 37  9  1  0
 18 14  1  0
 29 23  1  0
 35 32  1  0
  1 39  1  0
  1 40  1  0
  1 41  1  0
  4 42  1  0
  5 43  1  0
  7 44  1  0
  8 45  1  0
 10 46  1  0
 10 47  1  0
 11 48  1  0
 14 49  1  1
 15 50  1  0
 15 51  1  0
 16 52  1  0
 16 53  1  0
 17 54  1  0
 17 55  1  0
 21 56  1  0
 22 57  1  0
 24 58  1  0
 25 59  1  0
 26 60  1  0
 29 61  1  0
 30 62  1  6
 31 63  1  0
 31 64  1  0
 32 65  1  0
 33 66  1  0
 33 67  1  0
 34 68  1  0
 34 69  1  0
 35 70  1  0
 35 71  1  0
M  END
$$$$
[H]C1=C(c2oc(C(=O)N([H])c3c([H])c([H])c(C([H])([H])[H])c(N4C([H])([H])C([H])([H])N(c5nc([H])c([H])s5)C([H])([H])C4([H])[H])c3[H])c([H])c2[H])C([H])([H])C([H])([H])C([H])([H])C1([H])[H]
     RDKit          3D

 60 64  0  0  0  0  0  0  0  0999 V2000
    3.7981   -4.0659   -0.6083 C   0  0  0  0  0  0  0  0  0  0  0  0
    2.5973   -3.1754   -0.5745 C   0  0  0  0  0  0  0  0  0  0  0  0
    1.3299   -3.6545   -0.8149 C   0  0  0  0  0  0  0  0  0  0  0  0
    0.1863   -2.8573   -0.7893 C   0  0  0  0  0  0  0  0  0  0  0  0
    0.3136   -1.5188   -0.5101 C   0  0  0  0  0  0  0  0  0  0  0  0
   -0.7709   -0.6292   -0.4342 N   0  0  0  0  0  0  0  0  0  0  0  0
   -2.1281   -0.9604   -0.3426 C   0  0  0  0  0  0  0  0  0  0  0  0
   -2.5760   -2.1248   -0.3124 O   0  0  0  0  0  0  0  0  0  0  0  0
   -3.1521    0.1026   -0.2715 C   0  0  0  0  0  0  0  0  0  0  0  0
   -2.9772    1.4535   -0.2978 C   0  0  0  0  0  0  0  0  0  0  0  0
   -4.2280    2.0185   -0.2029 C   0  0  0  0  0  0  0  0  0  0  0  0
   -5.1313    0.9694   -0.1205 C   0  0  0  0  0  0  0  0  0  0  0  0
   -4.4268   -0.1164   -0.1673 O   0  0  0  0  0  0  0  0  0  0  0  0
   -6.6008    1.0543   -0.0032 C   0  0  0  0  0  0  0  0  0  0  0  0
   -7.3047   -0.0574    0.0875 C   0  0  0  0  0  0  0  0  0  0  0  0
   -8.7649   -0.0330    0.2049 C   0  0  0  0  0  0  0  0  0  0  0  0
   -9.1747    1.2117    0.9582 C   0  0  0  0  0  0  0  0  0  0  0  0
   -8.6443    2.4346    0.2768 C   0  0  0  0  0  0  0  0  0  0  0  0
   -7.1837    2.4193   -0.0052 C   0  0  0  0  0  0  0  0  0  0  0  0
    1.6193   -1.0517   -0.2681 C   0  0  0  0  0  0  0  0  0  0  0  0
    2.7363   -1.8310   -0.2933 C   0  0  0  0  0  0  0  0  0  0  0  0
    4.0471   -1.2848   -0.0285 N   0  0  0  0  0  0  0  0  0  0  0  0
    5.1268   -1.3398   -0.9583 C   0  0  0  0  0  0  0  0  0  0  0  0
    6.0552   -0.1636   -0.9035 C   0  0  0  0  0  0  0  0  0  0  0  0
    5.8352    0.7166    0.1871 N   0  0  0  0  0  0  0  0  0  0  0  0
    6.9096    1.6222    0.5229 C   0  0  0  0  0  0  0  0  0  0  0  0
    7.8079    1.5179    1.4864 N   0  0  0  0  0  0  0  0  0  0  0  0
    8.7152    2.4219    1.6338 C   0  0  0  0  0  0  0  0  0  0  0  0
    8.7099    3.4851    0.7597 C   0  0  0  0  0  0  0  0  0  0  0  0
    7.3695    3.0973   -0.2323 S   0  0  0  0  0  0  0  0  0  0  0  0
    4.6450    0.7823    0.9989 C   0  0  0  0  0  0  0  0  0  0  0  0
    4.2324   -0.6578    1.2544 C   0  0  0  0  0  0  0  0  0  0  0  0
    4.4229   -3.9831    0.2914 H   0  0  0  0  0  0  0  0  0  0  0  0
    3.3880   -5.1200   -0.5953 H   0  0  0  0  0  0  0  0  0  0  0  0
    4.3531   -3.9886   -1.5569 H   0  0  0  0  0  0  0  0  0  0  0  0
    1.2048   -4.7133   -1.0383 H   0  0  0  0  0  0  0  0  0  0  0  0
   -0.7796   -3.3288   -1.0056 H   0  0  0  0  0  0  0  0  0  0  0  0
   -0.5395    0.4086   -0.4503 H   0  0  0  0  0  0  0  0  0  0  0  0
   -2.0328    1.9594   -0.3772 H   0  0  0  0  0  0  0  0  0  0  0  0
   -4.4684    3.0670   -0.1923 H   0  0  0  0  0  0  0  0  0  0  0  0
   -6.7271   -0.9909    0.0693 H   0  0  0  0  0  0  0  0  0  0  0  0
   -9.1960   -0.0978   -0.8132 H   0  0  0  0  0  0  0  0  0  0  0  0
   -9.0764   -0.9278    0.8128 H   0  0  0  0  0  0  0  0  0  0  0  0
   -8.7923    1.1292    1.9809 H   0  0  0  0  0  0  0  0  0  0  0  0
  -10.2866    1.2722    0.9064 H   0  0  0  0  0  0  0  0  0  0  0  0
   -9.2476    2.6493   -0.6348 H   0  0  0  0  0  0  0  0  0  0  0  0
   -8.8490    3.2985    0.9620 H   0  0  0  0  0  0  0  0  0  0  0  0
   -7.0364    2.8225   -1.0457 H   0  0  0  0  0  0  0  0  0  0  0  0
   -6.6211    3.1136    0.6642 H   0  0  0  0  0  0  0  0  0  0  0  0
    1.7009    0.0045   -0.0522 H   0  0  0  0  0  0  0  0  0  0  0  0
    5.7448   -2.2453   -0.6912 H   0  0  0  0  0  0  0  0  0  0  0  0
    4.7427   -1.5205   -1.9770 H   0  0  0  0  0  0  0  0  0  0  0  0
    5.9273    0.4270   -1.8479 H   0  0  0  0  0  0  0  0  0  0  0  0
    7.1300   -0.4898   -0.9094 H   0  0  0  0  0  0  0  0  0  0  0  0
    9.4866    2.3688    2.4323 H   0  0  0  0  0  0  0  0  0  0  0  0
    9.4087    4.3395    0.7423 H   0  0  0  0  0  0  0  0  0  0  0  0
    3.8838    1.3522    0.4491 H   0  0  0  0  0  0  0  0  0  0  0  0
    4.8377    1.2652    1.9809 H   0  0  0  0  0  0  0  0  0  0  0  0
    5.1058   -1.1267    1.7985 H   0  0  0  0  0  0  0  0  0  0  0  0
    3.3445   -0.7305    1.9066 H   0  0  0  0  0  0  0  0  0  0  0  0
  1  2  1  0
  2  3  2  0
  3  4  1  0
  4  5  2  0
  5  6  1  0
  6  7  1  0
  7  8  2  0
  7  9  1  0
  9 10  2  0
 10 11  1  0
 11 12  2  0
 12 13  1  0
 12 14  1  0
 14 15  2  0
 15 16  1  0
 16 17  1  0
 17 18  1  0
 18 19  1  0
  5 20  1  0
 20 21  2  0
 21 22  1  0
 22 23  1  0
 23 24  1  0
 24 25  1  0
 25 26  1  0
 26 27  2  0
 27 28  1  0
 28 29  2  0
 29 30  1  0
 25 31  1  0
 31 32  1  0
 21  2  1  0
 32 22  1  0
 13  9  1  0
 19 14  1  0
 30 26  1  0
  1 33  1  0
  1 34  1  0
  1 35  1  0
  3 36  1  0
  4 37  1  0
  6 38  1  0
 10 39  1  0
 11 40  1  0
 15 41  1  0
 16 42  1  0
 16 43  1  0
 17 44  1  0
 17 45  1  0
 18 46  1  0
 18 47  1  0
 19 48  1  0
 19 49  1  0
 20 50  1  0
 23 51  1  0
 23 52  1  0
 24 53  1  0
 24 54  1  0
 28 55  1  0
 29 56  1  0
 31 57  1  0
 31 58  1  0
 32 59  1  0
 32 60  1  0
M  END
$$$$
[H]c1c([H])c([H])c(N(C([H])([H])[C@@]([H])(C(=O)N([H])[H])N([H])S(=O)(=O)c2c([H])c([H])c(OC([H])([H])[H])c([H])c2[H])S(=O)(=O)c2c([H])c([H])c([H])c([H])c2[H])c([H])c1[H]
     RDKit          3D

 56 58  0  0  0  0  0  0  0  0999 V2000
    8.5659    0.5360   -1.2800 C   0  0  0  0  0  0  0  0  0  0  0  0
    7.5938   -0.4176   -1.6468 O   0  0  0  0  0  0  0  0  0  0  0  0
    6.3619   -0.4539   -0.9950 C   0  0  0  0  0  0  0  0  0  0  0  0
    6.0373    0.4249    0.0228 C   0  0  0  0  0  0  0  0  0  0  0  0
    4.8129    0.3708    0.6535 C   0  0  0  0  0  0  0  0  0  0  0  0
    3.8486   -0.5698    0.2951 C   0  0  0  0  0  0  0  0  0  0  0  0
    4.1733   -1.4434   -0.7174 C   0  0  0  0  0  0  0  0  0  0  0  0
    5.4071   -1.3862   -1.3505 C   0  0  0  0  0  0  0  0  0  0  0  0
    2.2936   -0.6035    1.1241 S   0  0  0  0  0  0  0  0  0  0  0  0
    1.8078   -2.0189    1.2357 O   0  0  0  0  0  0  0  0  0  0  0  0
    2.5195   -0.0433    2.5068 O   0  0  0  0  0  0  0  0  0  0  0  0
    1.2177    0.4114    0.2961 N   0  0  0  0  0  0  0  0  0  0  0  0
    0.1014   -0.3405   -0.3517 C   0  0  1  0  0  0  0  0  0  0  0  0
   -1.1133    0.2042    0.3053 C   0  0  0  0  0  0  0  0  0  0  0  0
   -2.4029   -0.2497   -0.0229 N   0  0  0  0  0  0  0  0  0  0  0  0
   -2.7852   -1.5574    0.4716 C   0  0  0  0  0  0  0  0  0  0  0  0
   -3.3550   -1.6490    1.7490 C   0  0  0  0  0  0  0  0  0  0  0  0
   -3.7337   -2.8620    2.2743 C   0  0  0  0  0  0  0  0  0  0  0  0
   -3.5660   -4.0279    1.5627 C   0  0  0  0  0  0  0  0  0  0  0  0
   -2.9999   -3.9094    0.3011 C   0  0  0  0  0  0  0  0  0  0  0  0
   -2.6136   -2.7092   -0.2452 C   0  0  0  0  0  0  0  0  0  0  0  0
   -3.5982    0.5944   -0.8945 S   0  0  0  0  0  0  0  0  0  0  0  0
   -4.8867   -0.2144   -1.0161 O   0  0  0  0  0  0  0  0  0  0  0  0
   -3.2294    0.9479   -2.2961 O   0  0  0  0  0  0  0  0  0  0  0  0
   -4.0798    2.0687   -0.0626 C   0  0  0  0  0  0  0  0  0  0  0  0
   -3.3922    3.2284   -0.3004 C   0  0  0  0  0  0  0  0  0  0  0  0
   -3.7415    4.4248    0.3362 C   0  0  0  0  0  0  0  0  0  0  0  0
   -4.8087    4.4306    1.2261 C   0  0  0  0  0  0  0  0  0  0  0  0
   -5.5080    3.2584    1.4696 C   0  0  0  0  0  0  0  0  0  0  0  0
   -5.1236    2.0901    0.8125 C   0  0  0  0  0  0  0  0  0  0  0  0
    0.2956   -0.1204   -1.7778 C   0  0  0  0  0  0  0  0  0  0  0  0
   -0.4249   -0.8338   -2.7600 N   0  0  0  0  0  0  0  0  0  0  0  0
    1.1247    0.7164   -2.2066 O   0  0  0  0  0  0  0  0  0  0  0  0
    9.5541    0.2937   -1.7226 H   0  0  0  0  0  0  0  0  0  0  0  0
    8.1885    1.5334   -1.5994 H   0  0  0  0  0  0  0  0  0  0  0  0
    8.6979    0.5833   -0.1782 H   0  0  0  0  0  0  0  0  0  0  0  0
    6.8012    1.1522    0.2898 H   0  0  0  0  0  0  0  0  0  0  0  0
    4.5636    1.0667    1.4535 H   0  0  0  0  0  0  0  0  0  0  0  0
    3.4290   -2.1811   -1.0045 H   0  0  0  0  0  0  0  0  0  0  0  0
    5.6206   -2.1013   -2.1517 H   0  0  0  0  0  0  0  0  0  0  0  0
    0.8973    1.2472    0.7820 H   0  0  0  0  0  0  0  0  0  0  0  0
    0.2921   -1.4230   -0.0767 H   0  0  0  0  0  0  0  0  0  0  0  0
   -1.0314    1.3374    0.2042 H   0  0  0  0  0  0  0  0  0  0  0  0
   -0.9133    0.0812    1.4318 H   0  0  0  0  0  0  0  0  0  0  0  0
   -3.4843   -0.7172    2.3049 H   0  0  0  0  0  0  0  0  0  0  0  0
   -4.1660   -2.8951    3.2543 H   0  0  0  0  0  0  0  0  0  0  0  0
   -3.8586   -5.0003    1.9588 H   0  0  0  0  0  0  0  0  0  0  0  0
   -2.8716   -4.8416   -0.2531 H   0  0  0  0  0  0  0  0  0  0  0  0
   -2.1877   -2.7187   -1.2295 H   0  0  0  0  0  0  0  0  0  0  0  0
   -2.5568    3.2893   -0.9765 H   0  0  0  0  0  0  0  0  0  0  0  0
   -3.2295    5.3565    0.1797 H   0  0  0  0  0  0  0  0  0  0  0  0
   -5.0895    5.3550    1.7258 H   0  0  0  0  0  0  0  0  0  0  0  0
   -6.3230    3.3121    2.1638 H   0  0  0  0  0  0  0  0  0  0  0  0
   -5.7016    1.2050    1.0386 H   0  0  0  0  0  0  0  0  0  0  0  0
   -0.8903   -0.3556   -3.5650 H   0  0  0  0  0  0  0  0  0  0  0  0
   -0.5394   -1.8761   -2.7487 H   0  0  0  0  0  0  0  0  0  0  0  0
  1  2  1  0
  2  3  1  0
  3  4  2  0
  4  5  1  0
  5  6  2  0
  6  7  1  0
  7  8  2  0
  6  9  1  0
  9 10  2  0
  9 11  2  0
  9 12  1  0
 12 13  1  0
 13 14  1  0
 14 15  1  0
 15 16  1  0
 16 17  2  0
 17 18  1  0
 18 19  2  0
 19 20  1  0
 20 21  2  0
 15 22  1  0
 22 23  2  0
 22 24  2  0
 22 25  1  0
 25 26  2  0
 26 27  1  0
 27 28  2  0
 28 29  1  0
 29 30  2  0
 13 31  1  0
 31 32  1  0
 31 33  2  0
  8  3  1  0
 21 16  1  0
 30 25  1  0
  1 34  1  0
  1 35  1  0
  1 36  1  0
  4 37  1  0
  5 38  1  0
  7 39  1  0
  8 40  1  0
 12 41  1  0
 13 42  1  6
 14 43  1  0
 14 44  1  0
 17 45  1  0
 18 46  1  0
 19 47  1  0
 20 48  1  0
 21 49  1  0
 26 50  1  0
 27 51  1  0
 28 52  1  0
 29 53  1  0
 30 54  1  0
 32 55  1  0
 32 56  1  0
M  END
$$$$
[H]N=C(N([H])[H])N([H])C([H])([H])C([H])([H])C([H])([H])c1c([H])n(C([H])([H])c2c([H])c([H])c([H])c([H])c2OC(F)(F)F)c2c([H])c([H])c([H])c([H])c12
     RDKit          3D

 49 51  0  0  0  0  0  0  0  0999 V2000
    4.5935    3.6145   -0.1865 N   0  0  0  0  0  0  0  0  0  0  0  0
    4.5964    2.1941   -0.0212 C   0  0  0  0  0  0  0  0  0  0  0  0
    5.6377    1.5668   -0.4163 N   0  0  0  0  0  0  0  0  0  0  0  0
    3.4814    1.5542    0.5574 N   0  0  0  0  0  0  0  0  0  0  0  0
    3.4989    0.1561    0.8280 C   0  0  0  0  0  0  0  0  0  0  0  0
    3.5006   -0.6901   -0.4202 C   0  0  0  0  0  0  0  0  0  0  0  0
    2.2711   -0.4303   -1.2788 C   0  0  0  0  0  0  0  0  0  0  0  0
    1.0425   -0.7441   -0.5099 C   0  0  0  0  0  0  0  0  0  0  0  0
    0.1267    0.1045    0.0833 C   0  0  0  0  0  0  0  0  0  0  0  0
   -0.8513   -0.5842    0.6826 N   0  0  0  0  0  0  0  0  0  0  0  0
   -1.9650   -0.0304    1.4011 C   0  0  0  0  0  0  0  0  0  0  0  0
   -3.1769    0.2115    0.5915 C   0  0  0  0  0  0  0  0  0  0  0  0
   -4.1958   -0.7314    0.7190 C   0  0  0  0  0  0  0  0  0  0  0  0
   -5.3553   -0.6160    0.0145 C   0  0  0  0  0  0  0  0  0  0  0  0
   -5.5275    0.4405   -0.8331 C   0  0  0  0  0  0  0  0  0  0  0  0
   -4.5181    1.3803   -0.9632 C   0  0  0  0  0  0  0  0  0  0  0  0
   -3.3338    1.2813   -0.2569 C   0  0  0  0  0  0  0  0  0  0  0  0
   -2.3253    2.2247   -0.3879 O   0  0  0  0  0  0  0  0  0  0  0  0
   -2.3667    3.3458   -1.2090 C   0  0  0  0  0  0  0  0  0  0  0  0
   -3.3851    4.2246   -0.9352 F   0  0  0  0  0  0  0  0  0  0  0  0
   -1.1757    4.0508   -1.0147 F   0  0  0  0  0  0  0  0  0  0  0  0
   -2.3723    2.9888   -2.5557 F   0  0  0  0  0  0  0  0  0  0  0  0
   -0.5884   -1.9159    0.4902 C   0  0  0  0  0  0  0  0  0  0  0  0
   -1.2469   -3.0609    0.8843 C   0  0  0  0  0  0  0  0  0  0  0  0
   -0.7193   -4.2876    0.5306 C   0  0  0  0  0  0  0  0  0  0  0  0
    0.4273   -4.3966   -0.1924 C   0  0  0  0  0  0  0  0  0  0  0  0
    1.0751   -3.2565   -0.5794 C   0  0  0  0  0  0  0  0  0  0  0  0
    0.5723   -2.0279   -0.2412 C   0  0  0  0  0  0  0  0  0  0  0  0
    5.0663    4.0384   -1.0025 H   0  0  0  0  0  0  0  0  0  0  0  0
    4.1043    4.1843    0.5363 H   0  0  0  0  0  0  0  0  0  0  0  0
    6.4685    2.0182   -0.8427 H   0  0  0  0  0  0  0  0  0  0  0  0
    2.6071    2.0872    0.8044 H   0  0  0  0  0  0  0  0  0  0  0  0
    4.4280   -0.1251    1.3966 H   0  0  0  0  0  0  0  0  0  0  0  0
    2.6538   -0.1849    1.4566 H   0  0  0  0  0  0  0  0  0  0  0  0
    3.4948   -1.7542   -0.0474 H   0  0  0  0  0  0  0  0  0  0  0  0
    4.4275   -0.6102   -1.0137 H   0  0  0  0  0  0  0  0  0  0  0  0
    2.3268   -1.1706   -2.1166 H   0  0  0  0  0  0  0  0  0  0  0  0
    2.2901    0.5914   -1.6513 H   0  0  0  0  0  0  0  0  0  0  0  0
    0.2669    1.1872    0.0277 H   0  0  0  0  0  0  0  0  0  0  0  0
   -2.2092   -0.6971    2.2496 H   0  0  0  0  0  0  0  0  0  0  0  0
   -1.7092    0.9540    1.8758 H   0  0  0  0  0  0  0  0  0  0  0  0
   -4.0987   -1.5916    1.3881 H   0  0  0  0  0  0  0  0  0  0  0  0
   -6.1411   -1.3629    0.1271 H   0  0  0  0  0  0  0  0  0  0  0  0
   -6.4554    0.5022   -1.3754 H   0  0  0  0  0  0  0  0  0  0  0  0
   -4.6558    2.2025   -1.6253 H   0  0  0  0  0  0  0  0  0  0  0  0
   -2.1623   -2.9890    1.4654 H   0  0  0  0  0  0  0  0  0  0  0  0
   -1.2570   -5.1840    0.8526 H   0  0  0  0  0  0  0  0  0  0  0  0
    0.8281   -5.3655   -0.4616 H   0  0  0  0  0  0  0  0  0  0  0  0
    2.0068   -3.2972   -1.1661 H   0  0  0  0  0  0  0  0  0  0  0  0
  1  2  1  0
  2  3  2  3
  2  4  1  0
  4  5  1  0
  5  6  1  0
  6  7  1  0
  7  8  1  0
  8  9  2  0
  9 10  1  0
 10 11  1  0
 11 12  1  0
 12 13  2  0
 13 14  1  0
 14 15  2  0
 15 16  1  0
 16 17  2  0
 17 18  1  0
 18 19  1  0
 19 20  1  0
 19 21  1  0
 19 22  1  0
 10 23  1  0
 23 24  2  0
 24 25  1  0
 25 26  2  0
 26 27  1  0
 27 28  2  0
 28  8  1  0
 17 12  1  0
 28 23  1  0
  1 29  1  0
  1 30  1  0
  3 31  1  0
  4 32  1  0
  5 33  1  0
  5 34  1  0
  6 35  1  0
  6 36  1  0
  7 37  1  0
  7 38  1  0
  9 39  1  0
 11 40  1  0
 11 41  1  0
 13 42  1  0
 14 43  1  0
 15 44  1  0
 16 45  1  0
 24 46  1  0
 25 47  1  0
 26 48  1  0
 27 49  1  0
M  END
$$$$
[H]OC([H])([H])[C@@]([H])(O[H])[C@@]([H])(O[H])[C@]([H])(O[H])[C@]([H])(O[H])[C@]([H])(N([H])C(=O)C1=C(N([H])C([H])([H])C(=O)N2Sc3c([H])c([H])c([H])c([H])c3C([H])([H])C2([H])[H])S[C@]([H])(OC([H])([H])c2c([H])c([H])c([H])c([H])c2[H])[C@@]([H])(O[H])[C@]([H])(O[H])[C@@]1([H])O[H])C([H])([H])C1([H])C([H])([H])C([H])([H])C([H])([H])C([H])([H])C1([H])[H]
     RDKit          3D

104108  0  0  0  0  0  0  0  0999 V2000
    7.9262   -4.2961   -0.7258 O   0  0  0  0  0  0  0  0  0  0  0  0
    7.5221   -4.3802    0.5855 C   0  0  0  0  0  0  0  0  0  0  0  0
    6.0577   -4.1268    0.6939 C   0  0  1  0  0  0  0  0  0  0  0  0
    5.5781   -4.2008    1.9934 O   0  0  0  0  0  0  0  0  0  0  0  0
    5.6329   -2.7936    0.0533 C   0  0  1  0  0  0  0  0  0  0  0  0
    6.1565   -2.7951   -1.2250 O   0  0  0  0  0  0  0  0  0  0  0  0
    4.1312   -2.7984    0.0786 C   0  0  2  0  0  0  0  0  0  0  0  0
    3.7713   -4.0052   -0.6030 O   0  0  0  0  0  0  0  0  0  0  0  0
    3.4502   -1.6297   -0.5414 C   0  0  2  0  0  0  0  0  0  0  0  0
    3.7793   -1.3605   -1.8531 O   0  0  0  0  0  0  0  0  0  0  0  0
    3.2093   -0.4848    0.3588 C   0  0  1  0  0  0  0  0  0  0  0  0
    4.3231    0.2613    0.9404 C   0  0  0  0  0  0  0  0  0  0  0  0
    5.3480    0.9489    0.1589 C   0  0  0  0  0  0  0  0  0  0  0  0
    4.9488    2.0209   -0.7840 C   0  0  0  0  0  0  0  0  0  0  0  0
    6.2052    2.4695   -1.5558 C   0  0  0  0  0  0  0  0  0  0  0  0
    7.4342    2.4344   -0.6915 C   0  0  0  0  0  0  0  0  0  0  0  0
    6.9873    2.8023    0.7005 C   0  0  0  0  0  0  0  0  0  0  0  0
    6.1978    1.6686    1.2457 C   0  0  0  0  0  0  0  0  0  0  0  0
    2.0918    0.3836   -0.0482 N   0  0  0  0  0  0  0  0  0  0  0  0
    0.8490    0.4332    0.6510 C   0  0  0  0  0  0  0  0  0  0  0  0
    0.7759   -0.3244    1.6216 O   0  0  0  0  0  0  0  0  0  0  0  0
   -0.2617    1.3081    0.2657 C   0  0  0  0  0  0  0  0  0  0  0  0
   -1.3354    1.2506    1.0069 C   0  0  0  0  0  0  0  0  0  0  0  0
   -2.9187    2.1390    0.8998 S   0  0  0  0  0  0  0  0  0  0  0  0
   -3.2127    2.8724   -0.6643 C   0  0  2  0  0  0  0  0  0  0  0  0
   -4.5394    2.9697   -1.0760 O   0  0  0  0  0  0  0  0  0  0  0  0
   -4.8292    4.3153   -1.2556 C   0  0  0  0  0  0  0  0  0  0  0  0
   -6.1908    4.6032   -1.7244 C   0  0  0  0  0  0  0  0  0  0  0  0
   -7.0434    3.5864   -2.0528 C   0  0  0  0  0  0  0  0  0  0  0  0
   -8.3331    3.8831   -2.5051 C   0  0  0  0  0  0  0  0  0  0  0  0
   -8.7268    5.1949   -2.6125 C   0  0  0  0  0  0  0  0  0  0  0  0
   -7.8563    6.2220   -2.2763 C   0  0  0  0  0  0  0  0  0  0  0  0
   -6.5906    5.9136   -1.8336 C   0  0  0  0  0  0  0  0  0  0  0  0
   -2.3570    2.1802   -1.7175 C   0  0  1  0  0  0  0  0  0  0  0  0
   -2.9683    2.3924   -2.9750 O   0  0  0  0  0  0  0  0  0  0  0  0
   -1.0194    2.8285   -1.6406 C   0  0  2  0  0  0  0  0  0  0  0  0
   -0.6417    3.0700   -2.9984 O   0  0  0  0  0  0  0  0  0  0  0  0
    0.0407    2.1385   -0.9078 C   0  0  1  0  0  0  0  0  0  0  0  0
    1.0583    3.0869   -0.6043 O   0  0  0  0  0  0  0  0  0  0  0  0
   -1.3854    0.3904    2.1669 N   0  0  0  0  0  0  0  0  0  0  0  0
   -2.4618   -0.5177    2.3745 C   0  0  0  0  0  0  0  0  0  0  0  0
   -2.6423   -1.6409    1.4724 C   0  0  0  0  0  0  0  0  0  0  0  0
   -1.9119   -1.8587    0.4864 O   0  0  0  0  0  0  0  0  0  0  0  0
   -3.7130   -2.5734    1.7003 N   0  0  0  0  0  0  0  0  0  0  0  0
   -3.9080   -3.6809    0.8166 C   0  0  0  0  0  0  0  0  0  0  0  0
   -5.3708   -3.8054    0.4941 C   0  0  0  0  0  0  0  0  0  0  0  0
   -6.1544   -4.2987    1.6270 C   0  0  0  0  0  0  0  0  0  0  0  0
   -7.0648   -5.3369    1.4305 C   0  0  0  0  0  0  0  0  0  0  0  0
   -7.8205   -5.8257    2.4718 C   0  0  0  0  0  0  0  0  0  0  0  0
   -7.6610   -5.2671    3.7212 C   0  0  0  0  0  0  0  0  0  0  0  0
   -6.7558   -4.2330    3.9220 C   0  0  0  0  0  0  0  0  0  0  0  0
   -6.0124   -3.7561    2.8838 C   0  0  0  0  0  0  0  0  0  0  0  0
   -4.8249   -2.4137    3.0641 S   0  0  0  0  0  0  0  0  0  0  0  0
    8.5556   -5.0157   -0.9462 H   0  0  0  0  0  0  0  0  0  0  0  0
    7.6938   -5.4384    0.9096 H   0  0  0  0  0  0  0  0  0  0  0  0
    8.0812   -3.7164    1.2769 H   0  0  0  0  0  0  0  0  0  0  0  0
    5.5262   -4.9179    0.0937 H   0  0  0  0  0  0  0  0  0  0  0  0
    5.8118   -3.3303    2.4241 H   0  0  0  0  0  0  0  0  0  0  0  0
    6.0599   -2.0283    0.7146 H   0  0  0  0  0  0  0  0  0  0  0  0
    6.4754   -1.8618   -1.3977 H   0  0  0  0  0  0  0  0  0  0  0  0
    3.7971   -2.9358    1.1178 H   0  0  0  0  0  0  0  0  0  0  0  0
    4.0177   -3.9658   -1.5567 H   0  0  0  0  0  0  0  0  0  0  0  0
    2.3599   -2.0487   -0.6882 H   0  0  0  0  0  0  0  0  0  0  0  0
    3.0666   -1.0472   -2.4285 H   0  0  0  0  0  0  0  0  0  0  0  0
    2.7478   -1.0093    1.2854 H   0  0  0  0  0  0  0  0  0  0  0  0
    3.8248    1.0830    1.5727 H   0  0  0  0  0  0  0  0  0  0  0  0
    4.8338   -0.3358    1.7543 H   0  0  0  0  0  0  0  0  0  0  0  0
    6.1055    0.2895   -0.3273 H   0  0  0  0  0  0  0  0  0  0  0  0
    4.2712    1.6966   -1.6010 H   0  0  0  0  0  0  0  0  0  0  0  0
    4.5104    2.9109   -0.3179 H   0  0  0  0  0  0  0  0  0  0  0  0
    6.3750    1.7124   -2.3756 H   0  0  0  0  0  0  0  0  0  0  0  0
    6.0589    3.4673   -2.0083 H   0  0  0  0  0  0  0  0  0  0  0  0
    7.9053    1.4285   -0.6625 H   0  0  0  0  0  0  0  0  0  0  0  0
    8.1242    3.2147   -1.0517 H   0  0  0  0  0  0  0  0  0  0  0  0
    6.3958    3.7596    0.6340 H   0  0  0  0  0  0  0  0  0  0  0  0
    7.8054    3.0195    1.3991 H   0  0  0  0  0  0  0  0  0  0  0  0
    5.4271    2.1208    1.9366 H   0  0  0  0  0  0  0  0  0  0  0  0
    6.7429    0.9407    1.8450 H   0  0  0  0  0  0  0  0  0  0  0  0
    2.2044    0.9787   -0.8689 H   0  0  0  0  0  0  0  0  0  0  0  0
   -2.8277    3.9427   -0.6220 H   0  0  0  0  0  0  0  0  0  0  0  0
   -4.7005    4.8928   -0.3002 H   0  0  0  0  0  0  0  0  0  0  0  0
   -4.1265    4.7361   -2.0203 H   0  0  0  0  0  0  0  0  0  0  0  0
   -6.7568    2.5328   -1.9770 H   0  0  0  0  0  0  0  0  0  0  0  0
   -8.9679    3.0354   -2.7545 H   0  0  0  0  0  0  0  0  0  0  0  0
   -9.7260    5.4092   -2.9647 H   0  0  0  0  0  0  0  0  0  0  0  0
   -8.2126    7.2473   -2.3773 H   0  0  0  0  0  0  0  0  0  0  0  0
   -5.9358    6.7523   -1.5811 H   0  0  0  0  0  0  0  0  0  0  0  0
   -2.3371    1.1007   -1.4830 H   0  0  0  0  0  0  0  0  0  0  0  0
   -3.1325    1.5111   -3.3671 H   0  0  0  0  0  0  0  0  0  0  0  0
   -1.1477    3.8918   -1.2568 H   0  0  0  0  0  0  0  0  0  0  0  0
    0.3466    3.1966   -2.9594 H   0  0  0  0  0  0  0  0  0  0  0  0
    0.5211    1.4360   -1.6612 H   0  0  0  0  0  0  0  0  0  0  0  0
    0.6096    3.7465   -0.0440 H   0  0  0  0  0  0  0  0  0  0  0  0
   -0.6570    0.4912    2.8789 H   0  0  0  0  0  0  0  0  0  0  0  0
   -2.4795   -0.9243    3.4219 H   0  0  0  0  0  0  0  0  0  0  0  0
   -3.4437    0.0729    2.3350 H   0  0  0  0  0  0  0  0  0  0  0  0
   -3.6315   -4.6062    1.3938 H   0  0  0  0  0  0  0  0  0  0  0  0
   -3.2810   -3.6167   -0.1033 H   0  0  0  0  0  0  0  0  0  0  0  0
   -5.4619   -4.5155   -0.3641 H   0  0  0  0  0  0  0  0  0  0  0  0
   -5.8086   -2.8315    0.1782 H   0  0  0  0  0  0  0  0  0  0  0  0
   -7.1919   -5.7753    0.4549 H   0  0  0  0  0  0  0  0  0  0  0  0
   -8.5336   -6.6405    2.3039 H   0  0  0  0  0  0  0  0  0  0  0  0
   -8.2420   -5.6372    4.5401 H   0  0  0  0  0  0  0  0  0  0  0  0
   -6.6165   -3.7832    4.8965 H   0  0  0  0  0  0  0  0  0  0  0  0
  1  2  1  0
  2  3  1  0
  3  4  1  0
  3  5  1  0
  5  6  1  0
  5  7  1  0
  7  8  1  0
  7  9  1  0
  9 10  1  0
  9 11  1  0
 11 12  1  0
 12 13  1  0
 13 14  1  0
 14 15  1  0
 15 16  1  0
 16 17  1  0
 17 18  1  0
 11 19  1  0
 19 20  1  0
 20 21  2  0
 20 22  1  0
 22 23  2  0
 23 24  1  0
 24 25  1  0
 25 26  1  0
 26 27  1  0
 27 28  1  0
 28 29  2  0
 29 30  1  0
 30 31  2  0
 31 32  1  0
 32 33  2  0
 25 34  1  0
 34 35  1  0
 34 36  1  0
 36 37  1  0
 36 38  1  0
 38 39  1  0
 23 40  1  0
 40 41  1  0
 41 42  1  0
 42 43  2  0
 42 44  1  0
 44 45  1  0
 45 46  1  0
 46 47  1  0
 47 48  2  0
 48 49  1  0
 49 50  2  0
 50 51  1  0
 51 52  2  0
 52 53  1  0
 18 13  1  0
 38 22  1  0
 53 44  1  0
 33 28  1  0
 52 47  1  0
  1 54  1  0
  2 55  1  0
  2 56  1  0
  3 57  1  6
  4 58  1  0
  5 59  1  1
  6 60  1  0
  7 61  1  1
  8 62  1  0
  9 63  1  6
 10 64  1  0
 11 65  1  1
 12 66  1  0
 12 67  1  0
 13 68  1  0
 14 69  1  0
 14 70  1  0
 15 71  1  0
 15 72  1  0
 16 73  1  0
 16 74  1  0
 17 75  1  0
 17 76  1  0
 18 77  1  0
 18 78  1  0
 19 79  1  0
 25 80  1  1
 27 81  1  0
 27 82  1  0
 29 83  1  0
 30 84  1  0
 31 85  1  0
 32 86  1  0
 33 87  1  0
 34 88  1  1
 35 89  1  0
 36 90  1  1
 37 91  1  0
 38 92  1  6
 39 93  1  0
 40 94  1  0
 41 95  1  0
 41 96  1  0
 45 97  1  0
 45 98  1  0
 46 99  1  0
 46100  1  0
 48101  1  0
 49102  1  0
 50103  1  0
 51104  1  0
M  END
$$$$
[H]c1nc(N([H])[H])c(C2=C(c3nn(C([H])([H])C([H])([H])N(C([H])([H])C([H])([H])[H])C([H])([H])C([H])([H])[H])c4c([H])c([H])c([H])c(N([H])[H])c34)C(=O)N([H])C2=O)c(N([H])[H])n1
     RDKit          3D

 57 60  0  0  0  0  0  0  0  0999 V2000
   -4.7918    2.3084   -0.4422 C   0  0  0  0  0  0  0  0  0  0  0  0
   -4.6757    1.4197    0.7640 C   0  0  0  0  0  0  0  0  0  0  0  0
   -3.4166    1.4756    1.4170 N   0  0  0  0  0  0  0  0  0  0  0  0
   -3.5632    0.8726    2.7751 C   0  0  0  0  0  0  0  0  0  0  0  0
   -3.7777   -0.5895    2.6031 C   0  0  0  0  0  0  0  0  0  0  0  0
   -2.3078    0.8087    0.7831 C   0  0  0  0  0  0  0  0  0  0  0  0
   -1.8154    1.3881   -0.4753 C   0  0  0  0  0  0  0  0  0  0  0  0
   -0.6410    0.6687   -0.9916 N   0  0  0  0  0  0  0  0  0  0  0  0
    0.5981    1.0003   -0.6920 N   0  0  0  0  0  0  0  0  0  0  0  0
    1.4600    0.1634   -1.3214 C   0  0  0  0  0  0  0  0  0  0  0  0
    2.9146    0.2585   -1.2090 C   0  0  0  0  0  0  0  0  0  0  0  0
    3.6052    0.1130   -0.1015 C   0  0  0  0  0  0  0  0  0  0  0  0
    5.0261    0.3062   -0.4689 C   0  0  0  0  0  0  0  0  0  0  0  0
    5.9731    0.2311    0.3505 O   0  0  0  0  0  0  0  0  0  0  0  0
    5.1153    0.5775   -1.8443 N   0  0  0  0  0  0  0  0  0  0  0  0
    3.7867    0.5572   -2.3442 C   0  0  0  0  0  0  0  0  0  0  0  0
    3.4963    0.7754   -3.5655 O   0  0  0  0  0  0  0  0  0  0  0  0
    3.1492   -0.2052    1.2595 C   0  0  0  0  0  0  0  0  0  0  0  0
    3.4090    0.7524    2.2483 C   0  0  0  0  0  0  0  0  0  0  0  0
    4.0530    1.9789    1.8969 N   0  0  0  0  0  0  0  0  0  0  0  0
    3.0666    0.5414    3.5085 N   0  0  0  0  0  0  0  0  0  0  0  0
    2.4554   -0.5938    3.9079 C   0  0  0  0  0  0  0  0  0  0  0  0
    2.2076   -1.5087    2.9671 N   0  0  0  0  0  0  0  0  0  0  0  0
    2.5361   -1.3524    1.6518 C   0  0  0  0  0  0  0  0  0  0  0  0
    2.2716   -2.3988    0.7459 N   0  0  0  0  0  0  0  0  0  0  0  0
    0.6752   -0.7119   -2.0277 C   0  0  0  0  0  0  0  0  0  0  0  0
    0.9327   -1.7928   -2.8285 C   0  0  0  0  0  0  0  0  0  0  0  0
    2.2580   -2.2259   -3.0367 N   0  0  0  0  0  0  0  0  0  0  0  0
   -0.1094   -2.5194   -3.4046 C   0  0  0  0  0  0  0  0  0  0  0  0
   -1.4096   -2.1659   -3.1776 C   0  0  0  0  0  0  0  0  0  0  0  0
   -1.6910   -1.0922   -2.3780 C   0  0  0  0  0  0  0  0  0  0  0  0
   -0.6613   -0.3870   -1.8178 C   0  0  0  0  0  0  0  0  0  0  0  0
   -4.9118    1.7593   -1.3880 H   0  0  0  0  0  0  0  0  0  0  0  0
   -3.9705    3.0796   -0.4661 H   0  0  0  0  0  0  0  0  0  0  0  0
   -5.7191    2.9646   -0.3401 H   0  0  0  0  0  0  0  0  0  0  0  0
   -4.9512    0.3931    0.4119 H   0  0  0  0  0  0  0  0  0  0  0  0
   -5.5076    1.7121    1.4710 H   0  0  0  0  0  0  0  0  0  0  0  0
   -2.6608    1.1096    3.3418 H   0  0  0  0  0  0  0  0  0  0  0  0
   -4.4558    1.3625    3.2069 H   0  0  0  0  0  0  0  0  0  0  0  0
   -2.7767   -1.0805    2.4051 H   0  0  0  0  0  0  0  0  0  0  0  0
   -4.4546   -0.9001    1.7966 H   0  0  0  0  0  0  0  0  0  0  0  0
   -4.1936   -1.0584    3.5410 H   0  0  0  0  0  0  0  0  0  0  0  0
   -2.7135   -0.2255    0.5256 H   0  0  0  0  0  0  0  0  0  0  0  0
   -1.5211    0.7044    1.5689 H   0  0  0  0  0  0  0  0  0  0  0  0
   -1.5142    2.4366   -0.3300 H   0  0  0  0  0  0  0  0  0  0  0  0
   -2.5890    1.3914   -1.3020 H   0  0  0  0  0  0  0  0  0  0  0  0
    5.9835    0.7598   -2.3993 H   0  0  0  0  0  0  0  0  0  0  0  0
    3.7453    2.5329    1.0536 H   0  0  0  0  0  0  0  0  0  0  0  0
    4.8361    2.3098    2.5012 H   0  0  0  0  0  0  0  0  0  0  0  0
    2.2085   -0.6937    4.9420 H   0  0  0  0  0  0  0  0  0  0  0  0
    3.0171   -2.7623    0.1191 H   0  0  0  0  0  0  0  0  0  0  0  0
    1.3288   -2.8309    0.6820 H   0  0  0  0  0  0  0  0  0  0  0  0
    2.8846   -2.4625   -2.2581 H   0  0  0  0  0  0  0  0  0  0  0  0
    2.6008   -2.3046   -4.0216 H   0  0  0  0  0  0  0  0  0  0  0  0
    0.1562   -3.3553   -4.0248 H   0  0  0  0  0  0  0  0  0  0  0  0
   -2.2447   -2.7297   -3.6275 H   0  0  0  0  0  0  0  0  0  0  0  0
   -2.7061   -0.7659   -2.1611 H   0  0  0  0  0  0  0  0  0  0  0  0
  1  2  1  0
  2  3  1  0
  3  4  1  0
  4  5  1  0
  3  6  1  0
  6  7  1  0
  7  8  1  0
  8  9  1  0
  9 10  2  0
 10 11  1  0
 11 12  2  0
 12 13  1  0
 13 14  2  0
 13 15  1  0
 15 16  1  0
 16 17  2  0
 12 18  1  0
 18 19  2  0
 19 20  1  0
 19 21  1  0
 21 22  2  0
 22 23  1  0
 23 24  2  0
 24 25  1  0
 10 26  1  0
 26 27  2  0
 27 28  1  0
 27 29  1  0
 29 30  2  0
 30 31  1  0
 31 32  2  0
 32  8  1  0
 16 11  1  0
 24 18  1  0
 32 26  1  0
  1 33  1  0
  1 34  1  0
  1 35  1  0
  2 36  1  0
  2 37  1  0
  4 38  1  0
  4 39  1  0
  5 40  1  0
  5 41  1  0
  5 42  1  0
  6 43  1  0
  6 44  1  0
  7 45  1  0
  7 46  1  0
 15 47  1  0
 20 48  1  0
 20 49  1  0
 22 50  1  0
 25 51  1  0
 25 52  1  0
 28 53  1  0
 28 54  1  0
 29 55  1  0
 30 56  1  0
 31 57  1  0
M  END
$$$$
[H]c1c([H])c([H])c(C(F)(F)F)c(O[C@@]2([H])C([H])([H])N(C(=O)[C@@]3([H])N(C([H])([H])[H])C([H])([H])C([H])([H])C3([H])[H])C([H])([H])C2([H])[H])c1[H]
     RDKit          3D

 45 47  0  0  0  0  0  0  0  0999 V2000
   -4.6470   -1.2494    1.3145 C   0  0  0  0  0  0  0  0  0  0  0  0
   -3.6748   -0.2994    0.7659 N   0  0  0  0  0  0  0  0  0  0  0  0
   -4.2141    1.0336    0.9551 C   0  0  0  0  0  0  0  0  0  0  0  0
   -4.1229    1.7095   -0.3960 C   0  0  0  0  0  0  0  0  0  0  0  0
   -4.1776    0.5772   -1.3982 C   0  0  0  0  0  0  0  0  0  0  0  0
   -3.5379   -0.5527   -0.6185 C   0  0  1  0  0  0  0  0  0  0  0  0
   -2.1642   -0.7033   -1.1333 C   0  0  0  0  0  0  0  0  0  0  0  0
   -1.9844   -0.8513   -2.4033 O   0  0  0  0  0  0  0  0  0  0  0  0
   -0.9952   -0.6997   -0.3420 N   0  0  0  0  0  0  0  0  0  0  0  0
   -0.9119   -0.5756    1.0836 C   0  0  0  0  0  0  0  0  0  0  0  0
    0.5509   -0.7528    1.4020 C   0  0  0  0  0  0  0  0  0  0  0  0
    1.2346   -0.1717    0.1752 C   0  0  2  0  0  0  0  0  0  0  0  0
    0.3593   -0.8124   -0.9098 C   0  0  0  0  0  0  0  0  0  0  0  0
    2.5590   -0.5517    0.0687 O   0  0  0  0  0  0  0  0  0  0  0  0
    3.6411    0.2532   -0.1176 C   0  0  0  0  0  0  0  0  0  0  0  0
    3.5528    1.6232   -0.2303 C   0  0  0  0  0  0  0  0  0  0  0  0
    4.6967    2.4073   -0.4213 C   0  0  0  0  0  0  0  0  0  0  0  0
    5.9319    1.8138   -0.4992 C   0  0  0  0  0  0  0  0  0  0  0  0
    5.9876    0.4453   -0.3832 C   0  0  0  0  0  0  0  0  0  0  0  0
    4.9005   -0.3618   -0.1962 C   0  0  0  0  0  0  0  0  0  0  0  0
    4.9791   -1.8476   -0.0722 C   0  0  0  0  0  0  0  0  0  0  0  0
    4.4508   -2.1479    1.1908 F   0  0  0  0  0  0  0  0  0  0  0  0
    4.1659   -2.4506   -0.9948 F   0  0  0  0  0  0  0  0  0  0  0  0
    6.2638   -2.2985   -0.0730 F   0  0  0  0  0  0  0  0  0  0  0  0
   -4.1660   -2.2393    1.4333 H   0  0  0  0  0  0  0  0  0  0  0  0
   -5.5384   -1.2736    0.6518 H   0  0  0  0  0  0  0  0  0  0  0  0
   -4.9920   -0.8451    2.2902 H   0  0  0  0  0  0  0  0  0  0  0  0
   -5.2723    0.9753    1.2781 H   0  0  0  0  0  0  0  0  0  0  0  0
   -3.6682    1.6115    1.7240 H   0  0  0  0  0  0  0  0  0  0  0  0
   -5.0368    2.3173   -0.5362 H   0  0  0  0  0  0  0  0  0  0  0  0
   -3.2105    2.3318   -0.5029 H   0  0  0  0  0  0  0  0  0  0  0  0
   -3.5890    0.8499   -2.2855 H   0  0  0  0  0  0  0  0  0  0  0  0
   -5.2011    0.2996   -1.6604 H   0  0  0  0  0  0  0  0  0  0  0  0
   -4.0755   -1.5030   -0.9216 H   0  0  0  0  0  0  0  0  0  0  0  0
   -1.5305   -1.3382    1.6176 H   0  0  0  0  0  0  0  0  0  0  0  0
   -1.1706    0.4695    1.4285 H   0  0  0  0  0  0  0  0  0  0  0  0
    0.8575   -0.2345    2.3295 H   0  0  0  0  0  0  0  0  0  0  0  0
    0.8144   -1.8363    1.4183 H   0  0  0  0  0  0  0  0  0  0  0  0
    1.0281    0.9108    0.1008 H   0  0  0  0  0  0  0  0  0  0  0  0
    0.6416   -1.8431   -1.1241 H   0  0  0  0  0  0  0  0  0  0  0  0
    0.3504   -0.2029   -1.8346 H   0  0  0  0  0  0  0  0  0  0  0  0
    2.5834    2.1243   -0.1722 H   0  0  0  0  0  0  0  0  0  0  0  0
    4.5585    3.4803   -0.5022 H   0  0  0  0  0  0  0  0  0  0  0  0
    6.8069    2.4365   -0.6474 H   0  0  0  0  0  0  0  0  0  0  0  0
    6.9661   -0.0276   -0.4448 H   0  0  0  0  0  0  0  0  0  0  0  0
  1  2  1  0
  2  3  1  0
  3  4  1  0
  4  5  1  0
  5  6  1  0
  6  7  1  0
  7  8  2  0
  7  9  1  0
  9 10  1  0
 10 11  1  0
 11 12  1  0
 12 13  1  0
 12 14  1  0
 14 15  1  0
 15 16  2  0
 16 17  1  0
 17 18  2  0
 18 19  1  0
 19 20  2  0
 20 21  1  0
 21 22  1  0
 21 23  1  0
 21 24  1  0
  6  2  1  0
 13  9  1  0
 20 15  1  0
  1 25  1  0
  1 26  1  0
  1 27  1  0
  3 28  1  0
  3 29  1  0
  4 30  1  0
  4 31  1  0
  5 32  1  0
  5 33  1  0
  6 34  1  1
 10 35  1  0
 10 36  1  0
 11 37  1  0
 11 38  1  0
 12 39  1  1
 13 40  1  0
 13 41  1  0
 16 42  1  0
 17 43  1  0
 18 44  1  0
 19 45  1  0
M  END
$$$$
[H]c1c([H])c(-c2c([H])c([H])c3c(c2[H])C(=O)N2C([H])([H])C([H])([H])N([H])C([H])([H])C32[H])c([H])c([H])c1F
     RDKit          3D

 36 39  0  0  0  0  0  0  0  0999 V2000
    7.3613    0.7041   -0.2419 F   0  0  0  0  0  0  0  0  0  0  0  0
    6.0073    0.4897   -0.2417 C   0  0  0  0  0  0  0  0  0  0  0  0
    5.3167    0.2927   -1.4184 C   0  0  0  0  0  0  0  0  0  0  0  0
    3.9509    0.0760   -1.4254 C   0  0  0  0  0  0  0  0  0  0  0  0
    3.2419    0.0515   -0.2469 C   0  0  0  0  0  0  0  0  0  0  0  0
    3.9020    0.2446    0.9421 C   0  0  0  0  0  0  0  0  0  0  0  0
    5.2857    0.4629    0.9326 C   0  0  0  0  0  0  0  0  0  0  0  0
    1.8007   -0.1781   -0.2535 C   0  0  0  0  0  0  0  0  0  0  0  0
    1.2031   -0.9793   -1.2114 C   0  0  0  0  0  0  0  0  0  0  0  0
   -0.1531   -1.1959   -1.2178 C   0  0  0  0  0  0  0  0  0  0  0  0
   -1.0008   -0.6129   -0.2499 C   0  0  0  0  0  0  0  0  0  0  0  0
   -2.4289   -0.6911   -0.0317 C   0  0  0  0  0  0  0  0  0  0  0  0
   -3.2835   -0.1573   -1.1682 C   0  0  0  0  0  0  0  0  0  0  0  0
   -4.6589   -0.3328   -0.7403 N   0  0  0  0  0  0  0  0  0  0  0  0
   -5.0261    0.4420    0.3996 C   0  0  0  0  0  0  0  0  0  0  0  0
   -4.0839    0.3384    1.5738 C   0  0  0  0  0  0  0  0  0  0  0  0
   -2.7202    0.1459    1.1000 N   0  0  0  0  0  0  0  0  0  0  0  0
   -1.4896    0.6646    1.5575 C   0  0  0  0  0  0  0  0  0  0  0  0
   -1.3270    1.4350    2.5603 O   0  0  0  0  0  0  0  0  0  0  0  0
   -0.4156    0.1826    0.7019 C   0  0  0  0  0  0  0  0  0  0  0  0
    0.9589    0.3814    0.6810 C   0  0  0  0  0  0  0  0  0  0  0  0
    5.8714    0.3104   -2.3630 H   0  0  0  0  0  0  0  0  0  0  0  0
    3.4097   -0.0783   -2.3424 H   0  0  0  0  0  0  0  0  0  0  0  0
    3.3562    0.2270    1.8674 H   0  0  0  0  0  0  0  0  0  0  0  0
    5.7997    0.6140    1.8707 H   0  0  0  0  0  0  0  0  0  0  0  0
    1.7979   -1.4526   -1.9775 H   0  0  0  0  0  0  0  0  0  0  0  0
   -0.6439   -1.8205   -1.9592 H   0  0  0  0  0  0  0  0  0  0  0  0
   -2.7774   -1.7405    0.1192 H   0  0  0  0  0  0  0  0  0  0  0  0
   -3.1698   -0.7938   -2.0866 H   0  0  0  0  0  0  0  0  0  0  0  0
   -3.0052    0.8827   -1.3358 H   0  0  0  0  0  0  0  0  0  0  0  0
   -4.7757   -1.3521   -0.4947 H   0  0  0  0  0  0  0  0  0  0  0  0
   -6.0366    0.1712    0.7601 H   0  0  0  0  0  0  0  0  0  0  0  0
   -5.1069    1.5126    0.0617 H   0  0  0  0  0  0  0  0  0  0  0  0
   -4.1942    1.2547    2.1796 H   0  0  0  0  0  0  0  0  0  0  0  0
   -4.3141   -0.5188    2.2356 H   0  0  0  0  0  0  0  0  0  0  0  0
    1.3483    1.0199    1.4629 H   0  0  0  0  0  0  0  0  0  0  0  0
  1  2  1  0
  2  3  2  0
  3  4  1  0
  4  5  2  0
  5  6  1  0
  6  7  2  0
  5  8  1  0
  8  9  2  0
  9 10  1  0
 10 11  2  0
 11 12  1  0
 12 13  1  0
 13 14  1  0
 14 15  1  0
 15 16  1  0
 16 17  1  0
 17 18  1  0
 18 19  2  0
 18 20  1  0
 20 21  2  0
  7  2  1  0
 21  8  1  0
 20 11  1  0
 17 12  1  0
  3 22  1  0
  4 23  1  0
  6 24  1  0
  7 25  1  0
  9 26  1  0
 10 27  1  0
 12 28  1  0
 13 29  1  0
 13 30  1  0
 14 31  1  0
 15 32  1  0
 15 33  1  0
 16 34  1  0
 16 35  1  0
 21 36  1  0
M  END
$$$$
[H]OC1=C([H])C([H])=C2O[C@]2([H])c2c([H])c(OC([H])([H])[H])c([H])c([H])c2N([H])C(=O)C2=C(C([H])([H])C3=C(C([H])([H])[H])C([H])(C([H])([H])O[H])C([H])([H])C(=O)C3(C([H])([H])[H])C([H])([H])[H])C2=C1[H]
     RDKit          3D

 64 68  0  0  0  0  0  0  0  0999 V2000
    5.4781    0.3281    2.7845 C   0  0  0  0  0  0  0  0  0  0  0  0
    4.9148    1.5513    2.3584 O   0  0  0  0  0  0  0  0  0  0  0  0
    4.3268    1.5969    1.1051 C   0  0  0  0  0  0  0  0  0  0  0  0
    3.7843    2.7884    0.7034 C   0  0  0  0  0  0  0  0  0  0  0  0
    3.2015    2.8371   -0.5240 C   0  0  0  0  0  0  0  0  0  0  0  0
    3.1120    1.7357   -1.4251 C   0  0  0  0  0  0  0  0  0  0  0  0
    2.3770    2.0346   -2.6022 N   0  0  0  0  0  0  0  0  0  0  0  0
    1.0435    1.4796   -2.9402 C   0  0  0  0  0  0  0  0  0  0  0  0
    0.5725    1.7933   -4.0145 O   0  0  0  0  0  0  0  0  0  0  0  0
    0.4731    0.5998   -1.8787 C   0  0  0  0  0  0  0  0  0  0  0  0
   -0.1586    0.3102   -0.7427 C   0  0  0  0  0  0  0  0  0  0  0  0
   -0.8713    0.6479    0.4956 C   0  0  0  0  0  0  0  0  0  0  0  0
   -2.3435    0.3402    0.4864 C   0  0  0  0  0  0  0  0  0  0  0  0
   -3.2053    1.3456    0.6507 C   0  0  0  0  0  0  0  0  0  0  0  0
   -2.6532    2.7502    0.8324 C   0  0  0  0  0  0  0  0  0  0  0  0
   -4.6813    1.2431    0.7032 C   0  0  0  0  0  0  0  0  0  0  0  0
   -5.1604    1.4163    2.1421 C   0  0  0  0  0  0  0  0  0  0  0  0
   -4.7902    2.6382    2.6348 O   0  0  0  0  0  0  0  0  0  0  0  0
   -5.2043   -0.1077    0.2450 C   0  0  0  0  0  0  0  0  0  0  0  0
   -4.2398   -1.1241    0.7838 C   0  0  0  0  0  0  0  0  0  0  0  0
   -4.6395   -1.9436    1.5780 O   0  0  0  0  0  0  0  0  0  0  0  0
   -2.8405   -1.0345    0.2826 C   0  0  0  0  0  0  0  0  0  0  0  0
   -2.0498   -2.0554    1.0649 C   0  0  0  0  0  0  0  0  0  0  0  0
   -2.9135   -1.3845   -1.1959 C   0  0  0  0  0  0  0  0  0  0  0  0
    0.5915   -0.6887   -1.6167 C   0  0  0  0  0  0  0  0  0  0  0  0
    0.8818   -1.8940   -2.0592 C   0  0  0  0  0  0  0  0  0  0  0  0
    0.9526   -3.1873   -1.4120 C   0  0  0  0  0  0  0  0  0  0  0  0
   -0.1455   -4.0396   -1.2493 O   0  0  0  0  0  0  0  0  0  0  0  0
    2.1630   -3.6257   -0.9425 C   0  0  0  0  0  0  0  0  0  0  0  0
    3.4792   -3.0985   -0.9461 C   0  0  0  0  0  0  0  0  0  0  0  0
    3.9660   -1.9512   -1.3197 C   0  0  0  0  0  0  0  0  0  0  0  0
    5.2058   -1.2371   -1.4273 O   0  0  0  0  0  0  0  0  0  0  0  0
    3.9495   -0.6729   -1.8062 C   0  0  2  0  0  0  0  0  0  0  0  0
    3.6750    0.5763   -0.9845 C   0  0  0  0  0  0  0  0  0  0  0  0
    4.2816    0.4936    0.2819 C   0  0  0  0  0  0  0  0  0  0  0  0
    4.6503   -0.3788    2.9279 H   0  0  0  0  0  0  0  0  0  0  0  0
    6.2023   -0.0724    2.0245 H   0  0  0  0  0  0  0  0  0  0  0  0
    6.0911    0.4775    3.7075 H   0  0  0  0  0  0  0  0  0  0  0  0
    3.8214    3.6815    1.3612 H   0  0  0  0  0  0  0  0  0  0  0  0
    2.8092    3.8306   -0.8302 H   0  0  0  0  0  0  0  0  0  0  0  0
    2.8088    2.7200   -3.2537 H   0  0  0  0  0  0  0  0  0  0  0  0
   -0.7337    1.7086    0.7683 H   0  0  0  0  0  0  0  0  0  0  0  0
   -0.3811    0.0925    1.3454 H   0  0  0  0  0  0  0  0  0  0  0  0
   -3.4680    3.4798    0.7987 H   0  0  0  0  0  0  0  0  0  0  0  0
   -1.9857    3.0161   -0.0271 H   0  0  0  0  0  0  0  0  0  0  0  0
   -2.0865    2.8542    1.7537 H   0  0  0  0  0  0  0  0  0  0  0  0
   -5.1540    2.0141    0.0832 H   0  0  0  0  0  0  0  0  0  0  0  0
   -4.7074    0.6019    2.7769 H   0  0  0  0  0  0  0  0  0  0  0  0
   -6.2441    1.3027    2.2264 H   0  0  0  0  0  0  0  0  0  0  0  0
   -4.2420    2.5652    3.4530 H   0  0  0  0  0  0  0  0  0  0  0  0
   -5.2784   -0.1822   -0.8429 H   0  0  0  0  0  0  0  0  0  0  0  0
   -6.2050   -0.2649    0.6741 H   0  0  0  0  0  0  0  0  0  0  0  0
   -0.9848   -1.8442    1.1300 H   0  0  0  0  0  0  0  0  0  0  0  0
   -2.4409   -2.1676    2.1059 H   0  0  0  0  0  0  0  0  0  0  0  0
   -2.1883   -3.0336    0.5464 H   0  0  0  0  0  0  0  0  0  0  0  0
   -2.3812   -2.3171   -1.4475 H   0  0  0  0  0  0  0  0  0  0  0  0
   -2.5325   -0.5716   -1.8430 H   0  0  0  0  0  0  0  0  0  0  0  0
   -3.9681   -1.5614   -1.5374 H   0  0  0  0  0  0  0  0  0  0  0  0
    0.9767   -2.0439   -3.1955 H   0  0  0  0  0  0  0  0  0  0  0  0
    0.0042   -5.0137   -1.5120 H   0  0  0  0  0  0  0  0  0  0  0  0
    2.0572   -4.6229   -0.4278 H   0  0  0  0  0  0  0  0  0  0  0  0
    4.2798   -3.8698   -0.5235 H   0  0  0  0  0  0  0  0  0  0  0  0
    4.0253   -0.4165   -2.9311 H   0  0  0  0  0  0  0  0  0  0  0  0
    4.7222   -0.4457    0.6426 H   0  0  0  0  0  0  0  0  0  0  0  0
  1  2  1  0
  2  3  1  0
  3  4  2  0
  4  5  1  0
  5  6  2  0
  6  7  1  0
  7  8  1  0
  8  9  2  0
  8 10  1  0
 10 11  2  0
 11 12  1  0
 12 13  1  0
 13 14  2  0
 14 15  1  0
 14 16  1  0
 16 17  1  0
 17 18  1  0
 16 19  1  0
 19 20  1  0
 20 21  2  0
 20 22  1  0
 22 23  1  0
 22 24  1  0
 10 25  1  0
 25 26  2  0
 26 27  1  0
 27 28  1  0
 27 29  2  0
 29 30  1  0
 30 31  2  0
 31 32  1  0
 32 33  1  0
 33 34  1  0
 34 35  2  0
 35  3  1  0
 34  6  1  0
 25 11  1  0
 33 31  1  0
 22 13  1  0
  1 36  1  0
  1 37  1  0
  1 38  1  0
  4 39  1  0
  5 40  1  0
  7 41  1  0
 12 42  1  0
 12 43  1  0
 15 44  1  0
 15 45  1  0
 15 46  1  0
 16 47  1  0
 17 48  1  0
 17 49  1  0
 18 50  1  0
 19 51  1  0
 19 52  1  0
 23 53  1  0
 23 54  1  0
 23 55  1  0
 24 56  1  0
 24 57  1  0
 24 58  1  0
 26 59  1  0
 28 60  1  0
 29 61  1  0
 30 62  1  0
 33 63  1  6
 35 64  1  0
M  END
$$$$
[H]c1nc(N([H])c2c([H])c(OC([H])([H])[H])c(OC([H])([H])[H])c(OC([H])([H])[H])c2[H])nc(N([H])c2nc3c(c([H])c2[H])OC(C([H])([H])[H])(C([H])([H])[H])C(=O)N3[H])c1F
     RDKit          3D

 57 60  0  0  0  0  0  0  0  0999 V2000
   -5.6364    2.1181   -1.8630 C   0  0  0  0  0  0  0  0  0  0  0  0
   -5.8443    0.7587   -1.5880 O   0  0  0  0  0  0  0  0  0  0  0  0
   -4.8072    0.0010   -1.0783 C   0  0  0  0  0  0  0  0  0  0  0  0
   -3.5618    0.6012   -0.8432 C   0  0  0  0  0  0  0  0  0  0  0  0
   -2.5031   -0.0703   -0.3477 C   0  0  0  0  0  0  0  0  0  0  0  0
   -1.2316    0.4626   -0.0655 N   0  0  0  0  0  0  0  0  0  0  0  0
   -0.9067    1.8244    0.0656 C   0  0  0  0  0  0  0  0  0  0  0  0
   -1.7494    2.8585   -0.0431 N   0  0  0  0  0  0  0  0  0  0  0  0
   -1.4116    4.1432    0.0863 C   0  0  0  0  0  0  0  0  0  0  0  0
   -0.1125    4.4539    0.3502 C   0  0  0  0  0  0  0  0  0  0  0  0
    0.3587    5.6995    0.5032 F   0  0  0  0  0  0  0  0  0  0  0  0
    0.8217    3.4140    0.4762 C   0  0  0  0  0  0  0  0  0  0  0  0
    2.1801    3.7060    0.7505 N   0  0  0  0  0  0  0  0  0  0  0  0
    3.1050    2.6399    0.8733 C   0  0  0  0  0  0  0  0  0  0  0  0
    4.4571    2.8965    1.1446 C   0  0  0  0  0  0  0  0  0  0  0  0
    5.3443    1.8517    1.2613 C   0  0  0  0  0  0  0  0  0  0  0  0
    4.9285    0.5481    1.1161 C   0  0  0  0  0  0  0  0  0  0  0  0
    5.7961   -0.5293    1.2273 O   0  0  0  0  0  0  0  0  0  0  0  0
    5.5066   -1.7939    0.6515 C   0  0  0  0  0  0  0  0  0  0  0  0
    6.2846   -2.8749    1.3459 C   0  0  0  0  0  0  0  0  0  0  0  0
    5.8127   -1.7705   -0.8228 C   0  0  0  0  0  0  0  0  0  0  0  0
    4.0556   -2.1122    0.8177 C   0  0  0  0  0  0  0  0  0  0  0  0
    3.6763   -3.3008    1.0572 O   0  0  0  0  0  0  0  0  0  0  0  0
    3.1427   -1.0383    0.6962 N   0  0  0  0  0  0  0  0  0  0  0  0
    3.5828    0.3027    0.8467 C   0  0  0  0  0  0  0  0  0  0  0  0
    2.7547    1.3550    0.7416 N   0  0  0  0  0  0  0  0  0  0  0  0
    0.3826    2.1601    0.3289 N   0  0  0  0  0  0  0  0  0  0  0  0
   -2.7045   -1.4372   -0.0691 C   0  0  0  0  0  0  0  0  0  0  0  0
   -3.9082   -2.0549   -0.2874 C   0  0  0  0  0  0  0  0  0  0  0  0
   -4.0666   -3.3859   -0.0045 O   0  0  0  0  0  0  0  0  0  0  0  0
   -2.9762   -4.1177    0.5153 C   0  0  0  0  0  0  0  0  0  0  0  0
   -4.9761   -1.3425   -0.7952 C   0  0  0  0  0  0  0  0  0  0  0  0
   -6.2188   -1.9257   -1.0338 O   0  0  0  0  0  0  0  0  0  0  0  0
   -7.1743   -1.9137    0.0186 C   0  0  0  0  0  0  0  0  0  0  0  0
   -4.7813    2.3111   -2.5387 H   0  0  0  0  0  0  0  0  0  0  0  0
   -5.4850    2.7232   -0.9417 H   0  0  0  0  0  0  0  0  0  0  0  0
   -6.5386    2.5082   -2.4098 H   0  0  0  0  0  0  0  0  0  0  0  0
   -3.4970    1.6360   -1.0973 H   0  0  0  0  0  0  0  0  0  0  0  0
   -0.4103   -0.2136    0.0641 H   0  0  0  0  0  0  0  0  0  0  0  0
   -2.1604    4.9024   -0.0184 H   0  0  0  0  0  0  0  0  0  0  0  0
    2.4712    4.6872    0.8556 H   0  0  0  0  0  0  0  0  0  0  0  0
    4.7318    3.9285    1.2492 H   0  0  0  0  0  0  0  0  0  0  0  0
    6.3943    2.0780    1.4734 H   0  0  0  0  0  0  0  0  0  0  0  0
    5.7812   -3.1588    2.2953 H   0  0  0  0  0  0  0  0  0  0  0  0
    7.3278   -2.5920    1.5737 H   0  0  0  0  0  0  0  0  0  0  0  0
    6.3119   -3.7970    0.7168 H   0  0  0  0  0  0  0  0  0  0  0  0
    5.5475   -2.7321   -1.2838 H   0  0  0  0  0  0  0  0  0  0  0  0
    5.2428   -0.9509   -1.3072 H   0  0  0  0  0  0  0  0  0  0  0  0
    6.8942   -1.5474   -0.9277 H   0  0  0  0  0  0  0  0  0  0  0  0
    2.1474   -1.2464    0.4955 H   0  0  0  0  0  0  0  0  0  0  0  0
   -1.8577   -2.0119    0.3366 H   0  0  0  0  0  0  0  0  0  0  0  0
   -2.2185   -4.1935   -0.2936 H   0  0  0  0  0  0  0  0  0  0  0  0
   -3.3828   -5.1246    0.7905 H   0  0  0  0  0  0  0  0  0  0  0  0
   -2.5554   -3.6060    1.4036 H   0  0  0  0  0  0  0  0  0  0  0  0
   -7.4919   -2.9486    0.2973 H   0  0  0  0  0  0  0  0  0  0  0  0
   -8.0902   -1.3564   -0.3279 H   0  0  0  0  0  0  0  0  0  0  0  0
   -6.7818   -1.4227    0.9319 H   0  0  0  0  0  0  0  0  0  0  0  0
  1  2  1  0
  2  3  1  0
  3  4  2  0
  4  5  1  0
  5  6  1  0
  6  7  1  0
  7  8  2  0
  8  9  1  0
  9 10  2  0
 10 11  1  0
 10 12  1  0
 12 13  1  0
 13 14  1  0
 14 15  2  0
 15 16  1  0
 16 17  2  0
 17 18  1  0
 18 19  1  0
 19 20  1  0
 19 21  1  0
 19 22  1  0
 22 23  2  0
 22 24  1  0
 24 25  1  0
 25 26  2  0
 12 27  2  0
  5 28  2  0
 28 29  1  0
 29 30  1  0
 30 31  1  0
 29 32  2  0
 32 33  1  0
 33 34  1  0
 32  3  1  0
 27  7  1  0
 26 14  1  0
 25 17  1  0
  1 35  1  0
  1 36  1  0
  1 37  1  0
  4 38  1  0
  6 39  1  0
  9 40  1  0
 13 41  1  0
 15 42  1  0
 16 43  1  0
 20 44  1  0
 20 45  1  0
 20 46  1  0
 21 47  1  0
 21 48  1  0
 21 49  1  0
 24 50  1  0
 28 51  1  0
 31 52  1  0
 31 53  1  0
 31 54  1  0
 34 55  1  0
 34 56  1  0
 34 57  1  0
M  END
$$$$
[H]O[C@]1([H])[C@@]([H])(c2c([H])c([H])c(OC([H])([H])[H])c([H])c2[H])O[C@@]([H])(c2c([H])c([H])c(Br)c([H])c2[H])[C@]1([H])O[H]
     RDKit          3D

 39 41  0  0  0  0  0  0  0  0999 V2000
    6.2111    0.9716   -1.2113 C   0  0  0  0  0  0  0  0  0  0  0  0
    5.6658   -0.2211   -0.7040 O   0  0  0  0  0  0  0  0  0  0  0  0
    4.3264   -0.2418   -0.2981 C   0  0  0  0  0  0  0  0  0  0  0  0
    3.5566    0.8956   -0.3968 C   0  0  0  0  0  0  0  0  0  0  0  0
    2.2501    0.9011   -0.0084 C   0  0  0  0  0  0  0  0  0  0  0  0
    1.6379   -0.2354    0.5026 C   0  0  0  0  0  0  0  0  0  0  0  0
    2.4095   -1.3662    0.5992 C   0  0  0  0  0  0  0  0  0  0  0  0
    3.7451   -1.3717    0.2020 C   0  0  0  0  0  0  0  0  0  0  0  0
    0.2438   -0.2683    0.9385 C   0  0  1  0  0  0  0  0  0  0  0  0
   -0.6078    0.4420    0.0776 O   0  0  0  0  0  0  0  0  0  0  0  0
   -1.8432   -0.0128    0.5801 C   0  0  2  0  0  0  0  0  0  0  0  0
   -1.7172   -1.4871    0.4341 C   0  0  2  0  0  0  0  0  0  0  0  0
   -2.4858   -2.1974    1.3551 O   0  0  0  0  0  0  0  0  0  0  0  0
   -0.2502   -1.7137    0.8298 C   0  0  2  0  0  0  0  0  0  0  0  0
   -0.1572   -2.2775    2.0893 O   0  0  0  0  0  0  0  0  0  0  0  0
   -2.9782    0.5973   -0.1106 C   0  0  0  0  0  0  0  0  0  0  0  0
   -4.0286   -0.1939   -0.5122 C   0  0  0  0  0  0  0  0  0  0  0  0
   -5.1368    0.3296   -1.1735 C   0  0  0  0  0  0  0  0  0  0  0  0
   -5.2142    1.6766   -1.4490 C   0  0  0  0  0  0  0  0  0  0  0  0
   -6.7346    2.4202   -2.3608 Br  0  0  0  0  0  0  0  0  0  0  0  0
   -4.1661    2.4798   -1.0508 C   0  0  0  0  0  0  0  0  0  0  0  0
   -3.0571    1.9455   -0.3871 C   0  0  0  0  0  0  0  0  0  0  0  0
    6.0437    1.8258   -0.5135 H   0  0  0  0  0  0  0  0  0  0  0  0
    7.3061    0.9000   -1.3712 H   0  0  0  0  0  0  0  0  0  0  0  0
    5.7803    1.2424   -2.2069 H   0  0  0  0  0  0  0  0  0  0  0  0
    4.0243    1.7843   -0.7933 H   0  0  0  0  0  0  0  0  0  0  0  0
    1.6378    1.7885   -0.0820 H   0  0  0  0  0  0  0  0  0  0  0  0
    2.0380   -2.3196    0.9916 H   0  0  0  0  0  0  0  0  0  0  0  0
    4.3342   -2.2762    0.2874 H   0  0  0  0  0  0  0  0  0  0  0  0
    0.1420    0.1175    1.9588 H   0  0  0  0  0  0  0  0  0  0  0  0
   -1.8131    0.2226    1.6657 H   0  0  0  0  0  0  0  0  0  0  0  0
   -1.9123   -1.8477   -0.5947 H   0  0  0  0  0  0  0  0  0  0  0  0
   -2.4461   -3.1469    1.0803 H   0  0  0  0  0  0  0  0  0  0  0  0
    0.2780   -2.2806    0.0448 H   0  0  0  0  0  0  0  0  0  0  0  0
   -0.6220   -1.6729    2.7149 H   0  0  0  0  0  0  0  0  0  0  0  0
   -4.0064   -1.2552   -0.3161 H   0  0  0  0  0  0  0  0  0  0  0  0
   -5.9688   -0.2838   -1.4938 H   0  0  0  0  0  0  0  0  0  0  0  0
   -4.2248    3.5455   -1.2675 H   0  0  0  0  0  0  0  0  0  0  0  0
   -2.2603    2.5840   -0.0892 H   0  0  0  0  0  0  0  0  0  0  0  0
  1  2  1  0
  2  3  1  0
  3  4  2  0
  4  5  1  0
  5  6  2  0
  6  7  1  0
  7  8  2  0
  6  9  1  0
  9 10  1  0
 10 11  1  0
 11 12  1  0
 12 13  1  0
 12 14  1  0
 14 15  1  0
 11 16  1  0
 16 17  2  0
 17 18  1  0
 18 19  2  0
 19 20  1  0
 19 21  1  0
 21 22  2  0
  8  3  1  0
 14  9  1  0
 22 16  1  0
  1 23  1  0
  1 24  1  0
  1 25  1  0
  4 26  1  0
  5 27  1  0
  7 28  1  0
  8 29  1  0
  9 30  1  1
 11 31  1  1
 12 32  1  6
 13 33  1  0
 14 34  1  6
 15 35  1  0
 17 36  1  0
 18 37  1  0
 21 38  1  0
 22 39  1  0
M  END
$$$$
[H]OC(=O)C(=O)N([H])[C@]12C(=O)C(=O)C([H])([H])[C@@]([H])(C([H])(C([H])(C([H])([H])[H])C([H])([H])[H])C1([H])[H])[C@@]([H])(OC([H])([H])[H])C([H])([H])C2([H])[H]
     RDKit          2D

 46 47  0  0  0  0  0  0  0  0999 V2000
    4.2976    0.3872    0.0000 C   0  0  0  0  0  0  0  0  0  0  0  0
    2.9013    0.9352    0.0000 O   0  0  0  0  0  0  0  0  0  0  0  0
    1.7286    0.0000    0.0000 C   0  0  0  0  0  0  0  0  0  0  0  0
    1.0777    1.3515    0.0000 C   0  0  0  0  0  0  0  0  0  0  0  0
   -0.3846    1.6852    0.0000 C   0  0  0  0  0  0  0  0  0  0  0  0
   -1.5574    0.7500    0.0000 C   0  0  0  0  0  0  0  0  0  0  0  0
   -1.5574   -0.7500    0.0000 C   0  0  0  0  0  0  0  0  0  0  0  0
   -0.3846   -1.6852    0.0000 C   0  0  0  0  0  0  0  0  0  0  0  0
    0.2662   -3.0367    0.0000 C   0  0  0  0  0  0  0  0  0  0  0  0
    0.9170   -4.3881    0.0000 C   0  0  0  0  0  0  0  0  0  0  0  0
   -1.0853   -3.6875    0.0000 C   0  0  0  0  0  0  0  0  0  0  0  0
    1.0777   -1.3515    0.0000 C   0  0  0  0  0  0  0  0  0  0  0  0
    0.2480   -1.1130    0.0000 C   0  0  0  0  0  0  0  0  0  0  0  0
   -0.6845   -0.8583    0.0000 C   0  0  0  0  0  0  0  0  0  0  0  0
   -2.4926   -3.1257    0.0000 O   0  0  0  0  0  0  0  0  0  0  0  0
   -1.1403   -0.0059    0.0000 C   0  0  0  0  0  0  0  0  0  0  0  0
   -2.4991   -0.4196    0.0000 O   0  0  0  0  0  0  0  0  0  0  0  0
   -2.9088    1.4008    0.0000 N   0  0  0  0  0  0  0  0  0  0  0  0
   -3.0209    2.8966    0.0000 C   0  0  0  0  0  0  0  0  0  0  0  0
   -1.7816    3.7416    0.0000 O   0  0  0  0  0  0  0  0  0  0  0  0
   -4.3724    3.5475    0.0000 C   0  0  0  0  0  0  0  0  0  0  0  0
   -5.6118    2.7025    0.0000 O   0  0  0  0  0  0  0  0  0  0  0  0
   -4.4845    5.0433    0.0000 O   0  0  0  0  0  0  0  0  0  0  0  0
    5.6939   -0.1608    0.0000 H   0  0  0  0  0  0  0  0  0  0  0  0
    4.8456    1.7835    0.0000 H   0  0  0  0  0  0  0  0  0  0  0  0
    3.9239   -1.0655    0.0000 H   0  0  0  0  0  0  0  0  0  0  0  0
    2.7786   -1.0712    0.0000 H   0  0  0  0  0  0  0  0  0  0  0  0
    1.2606    2.8403    0.0000 H   0  0  0  0  0  0  0  0  0  0  0  0
    2.4159    2.0292    0.0000 H   0  0  0  0  0  0  0  0  0  0  0  0
   -1.5574    2.6205    0.0000 H   0  0  0  0  0  0  0  0  0  0  0  0
    0.0966    3.1059    0.0000 H   0  0  0  0  0  0  0  0  0  0  0  0
   -2.2082   -2.1015    0.0000 H   0  0  0  0  0  0  0  0  0  0  0  0
   -2.3071   -0.4792    0.0000 H   0  0  0  0  0  0  0  0  0  0  0  0
   -1.7488   -2.3089    0.0000 H   0  0  0  0  0  0  0  0  0  0  0  0
    1.6869   -2.5555    0.0000 H   0  0  0  0  0  0  0  0  0  0  0  0
    1.5678   -5.7396    0.0000 H   0  0  0  0  0  0  0  0  0  0  0  0
    2.2685   -3.7373    0.0000 H   0  0  0  0  0  0  0  0  0  0  0  0
   -0.3450   -5.1989    0.0000 H   0  0  0  0  0  0  0  0  0  0  0  0
   -2.4367   -4.3383    0.0000 H   0  0  0  0  0  0  0  0  0  0  0  0
   -0.6040   -5.1082    0.0000 H   0  0  0  0  0  0  0  0  0  0  0  0
   -2.2945   -2.7999    0.0000 H   0  0  0  0  0  0  0  0  0  0  0  0
    2.1490   -2.4015    0.0000 H   0  0  0  0  0  0  0  0  0  0  0  0
    1.0777   -3.2219    0.0000 H   0  0  0  0  0  0  0  0  0  0  0  0
   -1.0535   -3.4405    0.0000 H   0  0  0  0  0  0  0  0  0  0  0  0
   -4.1482    0.5558    0.0000 H   0  0  0  0  0  0  0  0  0  0  0  0
   -6.9632    3.3533    0.0000 H   0  0  0  0  0  0  0  0  0  0  0  0
  1  2  1  0
  2  3  1  0
  3  4  1  0
  4  5  1  0
  5  6  1  0
  6  7  1  0
  7  8  1  0
  8  9  1  0
  9 10  1  0
  9 11  1  0
  8 12  1  0
 12 13  1  0
 13 14  1  0
 14 15  2  0
 14 16  1  0
 16 17  2  0
  6 18  1  6
 18 19  1  0
 19 20  2  0
 19 21  1  0
 21 22  1  0
 21 23  2  0
 12  3  1  0
 16  6  1  0
  1 24  1  0
  1 25  1  0
  1 26  1  0
  3 27  1  1
  4 28  1  0
  4 29  1  0
  5 30  1  0
  5 31  1  0
  7 32  1  0
  7 33  1  0
  8 34  1  0
  9 35  1  0
 10 36  1  0
 10 37  1  0
 10 38  1  0
 11 39  1  0
 11 40  1  0
 11 41  1  0
 12 42  1  1
 13 43  1  0
 13 44  1  0
 18 45  1  0
 22 46  1  0
M  END
$$$$
[H]c1nc(N([H])c2c([H])c(OC([H])([H])[H])c([H])c(-n3c([H])nc([H])c3[H])c2[H])nc(-c2c([H])nc([H])c([H])c2[H])c1[H]
     RDKit          3D

 42 45  0  0  0  0  0  0  0  0999 V2000
   -5.5209   -2.0056    2.3396 C   0  0  0  0  0  0  0  0  0  0  0  0
   -4.1341   -1.7448    2.4669 O   0  0  0  0  0  0  0  0  0  0  0  0
   -3.3476   -1.3078    1.4332 C   0  0  0  0  0  0  0  0  0  0  0  0
   -2.0167   -1.0812    1.6443 C   0  0  0  0  0  0  0  0  0  0  0  0
   -1.1339   -0.6339    0.6494 C   0  0  0  0  0  0  0  0  0  0  0  0
    0.1953   -0.4562    0.9583 N   0  0  0  0  0  0  0  0  0  0  0  0
    1.1765    0.3021    0.2633 C   0  0  0  0  0  0  0  0  0  0  0  0
    0.9595    1.0124   -0.8520 N   0  0  0  0  0  0  0  0  0  0  0  0
    1.9288    1.7075   -1.4621 C   0  0  0  0  0  0  0  0  0  0  0  0
    3.2341    1.7209   -0.9500 C   0  0  0  0  0  0  0  0  0  0  0  0
    3.4655    1.0033    0.1817 C   0  0  0  0  0  0  0  0  0  0  0  0
    2.4413    0.3333    0.7334 N   0  0  0  0  0  0  0  0  0  0  0  0
    4.8068    0.9503    0.8020 C   0  0  0  0  0  0  0  0  0  0  0  0
    5.8840    1.6120    0.2842 C   0  0  0  0  0  0  0  0  0  0  0  0
    7.1276    1.5068    0.9379 C   0  0  0  0  0  0  0  0  0  0  0  0
    7.2832    0.7556    2.0826 C   0  0  0  0  0  0  0  0  0  0  0  0
    6.2010    0.1215    2.5588 N   0  0  0  0  0  0  0  0  0  0  0  0
    4.9975    0.2088    1.9470 C   0  0  0  0  0  0  0  0  0  0  0  0
   -1.6928   -0.4322   -0.5767 C   0  0  0  0  0  0  0  0  0  0  0  0
   -3.0667   -0.6613   -0.8118 C   0  0  0  0  0  0  0  0  0  0  0  0
   -3.8794   -1.0927    0.1804 C   0  0  0  0  0  0  0  0  0  0  0  0
   -3.5472   -0.4152   -2.1406 N   0  0  0  0  0  0  0  0  0  0  0  0
   -4.5269    0.4237   -2.5180 C   0  0  0  0  0  0  0  0  0  0  0  0
   -4.6161    0.3064   -3.8888 C   0  0  0  0  0  0  0  0  0  0  0  0
   -3.7081   -0.5809   -4.2966 N   0  0  0  0  0  0  0  0  0  0  0  0
   -3.0488   -1.0261   -3.2204 C   0  0  0  0  0  0  0  0  0  0  0  0
   -5.6554   -2.9749    1.8141 H   0  0  0  0  0  0  0  0  0  0  0  0
   -6.0272   -2.0420    3.3222 H   0  0  0  0  0  0  0  0  0  0  0  0
   -5.9940   -1.2255    1.7109 H   0  0  0  0  0  0  0  0  0  0  0  0
   -1.5872   -1.2449    2.6245 H   0  0  0  0  0  0  0  0  0  0  0  0
    0.5541   -0.9519    1.8320 H   0  0  0  0  0  0  0  0  0  0  0  0
    1.7341    2.2812   -2.3705 H   0  0  0  0  0  0  0  0  0  0  0  0
    4.0073    2.2765   -1.4384 H   0  0  0  0  0  0  0  0  0  0  0  0
    5.7941    2.2021   -0.6018 H   0  0  0  0  0  0  0  0  0  0  0  0
    7.9743    2.0199    0.5408 H   0  0  0  0  0  0  0  0  0  0  0  0
    8.2547    0.6926    2.5655 H   0  0  0  0  0  0  0  0  0  0  0  0
    4.1625   -0.3220    2.3737 H   0  0  0  0  0  0  0  0  0  0  0  0
   -1.0881   -0.1016   -1.4066 H   0  0  0  0  0  0  0  0  0  0  0  0
   -4.9287   -1.2604   -0.0278 H   0  0  0  0  0  0  0  0  0  0  0  0
   -5.1122    1.0511   -1.8737 H   0  0  0  0  0  0  0  0  0  0  0  0
   -5.2941    0.8277   -4.5572 H   0  0  0  0  0  0  0  0  0  0  0  0
   -2.2559   -1.7544   -3.2541 H   0  0  0  0  0  0  0  0  0  0  0  0
  1  2  1  0
  2  3  1  0
  3  4  2  0
  4  5  1  0
  5  6  1  0
  6  7  1  0
  7  8  2  0
  8  9  1  0
  9 10  2  0
 10 11  1  0
 11 12  2  0
 11 13  1  0
 13 14  2  0
 14 15  1  0
 15 16  2  0
 16 17  1  0
 17 18  2  0
  5 19  2  0
 19 20  1  0
 20 21  2  0
 20 22  1  0
 22 23  1  0
 23 24  2  0
 24 25  1  0
 25 26  2  0
 21  3  1  0
 26 22  1  0
 12  7  1  0
 18 13  1  0
  1 27  1  0
  1 28  1  0
  1 29  1  0
  4 30  1  0
  6 31  1  0
  9 32  1  0
 10 33  1  0
 14 34  1  0
 15 35  1  0
 16 36  1  0
 18 37  1  0
 19 38  1  0
 21 39  1  0
 23 40  1  0
 24 41  1  0
 26 42  1  0
M  END
$$$$
[H]c1nnc(C(C#N)(C([H])([H])[H])C([H])([H])[H])c([H])c1C(=O)N([H])c1c([H])c([H])c(C([H])([H])[H])c(-c2c([H])nc(N(C([H])([H])[H])C([H])([H])[H])c(N3C([H])([H])C([H])([H])OC([H])([H])C3([H])[H])c2[H])c1[H]
     RDKit          3D

 67 70  0  0  0  0  0  0  0  0999 V2000
   -5.8679    2.6450    1.6033 C   0  0  0  0  0  0  0  0  0  0  0  0
   -4.5539    2.3101    2.0996 N   0  0  0  0  0  0  0  0  0  0  0  0
   -4.2211    2.6624    3.4581 C   0  0  0  0  0  0  0  0  0  0  0  0
   -3.6204    1.6462    1.2660 C   0  0  0  0  0  0  0  0  0  0  0  0
   -2.4934    2.3047    0.8607 N   0  0  0  0  0  0  0  0  0  0  0  0
   -1.5850    1.7430    0.0540 C   0  0  0  0  0  0  0  0  0  0  0  0
   -1.7263    0.4356   -0.4327 C   0  0  0  0  0  0  0  0  0  0  0  0
   -2.8443   -0.2444   -0.0398 C   0  0  0  0  0  0  0  0  0  0  0  0
   -3.7870    0.3594    0.8054 C   0  0  0  0  0  0  0  0  0  0  0  0
   -4.9420   -0.3714    1.1909 N   0  0  0  0  0  0  0  0  0  0  0  0
   -5.3036   -0.7318    2.5388 C   0  0  0  0  0  0  0  0  0  0  0  0
   -5.9318   -2.1322    2.4286 C   0  0  0  0  0  0  0  0  0  0  0  0
   -7.1515   -2.0970    1.7880 O   0  0  0  0  0  0  0  0  0  0  0  0
   -7.2444   -1.1215    0.8270 C   0  0  0  0  0  0  0  0  0  0  0  0
   -5.8925   -0.8372    0.1633 C   0  0  0  0  0  0  0  0  0  0  0  0
   -0.7155   -0.1102   -1.3128 C   0  0  0  0  0  0  0  0  0  0  0  0
    0.6229    0.0937   -0.9574 C   0  0  0  0  0  0  0  0  0  0  0  0
    1.6505   -0.3734   -1.7535 C   0  0  0  0  0  0  0  0  0  0  0  0
    3.0232   -0.1716   -1.3753 N   0  0  0  0  0  0  0  0  0  0  0  0
    3.9969    0.1836   -2.3662 C   0  0  0  0  0  0  0  0  0  0  0  0
    3.6310    0.3255   -3.5568 O   0  0  0  0  0  0  0  0  0  0  0  0
    5.4051    0.3925   -2.0695 C   0  0  0  0  0  0  0  0  0  0  0  0
    6.1375    1.1705   -2.9262 C   0  0  0  0  0  0  0  0  0  0  0  0
    7.4309    1.3791   -2.7120 N   0  0  0  0  0  0  0  0  0  0  0  0
    8.0314    0.8410   -1.6728 N   0  0  0  0  0  0  0  0  0  0  0  0
    7.4060    0.0689   -0.7831 C   0  0  0  0  0  0  0  0  0  0  0  0
    6.0460   -0.1592   -0.9945 C   0  0  0  0  0  0  0  0  0  0  0  0
    8.1766   -0.4876    0.3282 C   0  0  0  0  0  0  0  0  0  0  0  0
    7.8767    0.2482    1.5963 C   0  0  0  0  0  0  0  0  0  0  0  0
    7.8523   -1.9697    0.5254 C   0  0  0  0  0  0  0  0  0  0  0  0
    9.6341   -0.3999    0.0714 C   0  0  0  0  0  0  0  0  0  0  0  0
   10.7765   -0.3254   -0.1411 N   0  0  0  0  0  0  0  0  0  0  0  0
    1.3984   -1.0523   -2.9140 C   0  0  0  0  0  0  0  0  0  0  0  0
    0.0822   -1.2566   -3.2703 C   0  0  0  0  0  0  0  0  0  0  0  0
   -0.9586   -0.7818   -2.4629 C   0  0  0  0  0  0  0  0  0  0  0  0
   -2.3582   -1.0224   -2.9049 C   0  0  0  0  0  0  0  0  0  0  0  0
   -6.0155    2.3236    0.5492 H   0  0  0  0  0  0  0  0  0  0  0  0
   -6.0022    3.7663    1.5936 H   0  0  0  0  0  0  0  0  0  0  0  0
   -6.6776    2.2087    2.2151 H   0  0  0  0  0  0  0  0  0  0  0  0
   -3.7478    3.6811    3.4910 H   0  0  0  0  0  0  0  0  0  0  0  0
   -5.1466    2.6796    4.0853 H   0  0  0  0  0  0  0  0  0  0  0  0
   -3.4516    1.9727    3.8885 H   0  0  0  0  0  0  0  0  0  0  0  0
   -0.6862    2.2606   -0.2751 H   0  0  0  0  0  0  0  0  0  0  0  0
   -3.0575   -1.2441   -0.3347 H   0  0  0  0  0  0  0  0  0  0  0  0
   -4.4579   -0.8255    3.2283 H   0  0  0  0  0  0  0  0  0  0  0  0
   -6.1079   -0.1136    2.9806 H   0  0  0  0  0  0  0  0  0  0  0  0
   -6.0936   -2.4855    3.4668 H   0  0  0  0  0  0  0  0  0  0  0  0
   -5.2083   -2.8247    1.9419 H   0  0  0  0  0  0  0  0  0  0  0  0
   -7.7044   -0.1779    1.1937 H   0  0  0  0  0  0  0  0  0  0  0  0
   -7.9167   -1.4940    0.0154 H   0  0  0  0  0  0  0  0  0  0  0  0
   -6.0788   -0.0984   -0.6109 H   0  0  0  0  0  0  0  0  0  0  0  0
   -5.5783   -1.7755   -0.3011 H   0  0  0  0  0  0  0  0  0  0  0  0
    0.8424    0.6250   -0.0479 H   0  0  0  0  0  0  0  0  0  0  0  0
    3.2546   -0.2978   -0.3734 H   0  0  0  0  0  0  0  0  0  0  0  0
    5.6341    1.6042   -3.7776 H   0  0  0  0  0  0  0  0  0  0  0  0
    5.5145   -0.7708   -0.2974 H   0  0  0  0  0  0  0  0  0  0  0  0
    8.6106   -0.1294    2.3649 H   0  0  0  0  0  0  0  0  0  0  0  0
    6.8736    0.0539    1.9988 H   0  0  0  0  0  0  0  0  0  0  0  0
    8.0858    1.3374    1.4894 H   0  0  0  0  0  0  0  0  0  0  0  0
    7.8529   -2.4389   -0.5007 H   0  0  0  0  0  0  0  0  0  0  0  0
    6.8139   -2.0501    0.9087 H   0  0  0  0  0  0  0  0  0  0  0  0
    8.6036   -2.4633    1.1644 H   0  0  0  0  0  0  0  0  0  0  0  0
    2.1499   -1.4616   -3.5792 H   0  0  0  0  0  0  0  0  0  0  0  0
   -0.1513   -1.7869   -4.1824 H   0  0  0  0  0  0  0  0  0  0  0  0
   -2.3704   -1.1006   -4.0416 H   0  0  0  0  0  0  0  0  0  0  0  0
   -2.9878   -0.1614   -2.6589 H   0  0  0  0  0  0  0  0  0  0  0  0
   -2.7762   -1.9771   -2.5540 H   0  0  0  0  0  0  0  0  0  0  0  0
  1  2  1  0
  2  3  1  0
  2  4  1  0
  4  5  2  0
  5  6  1  0
  6  7  2  0
  7  8  1  0
  8  9  2  0
  9 10  1  0
 10 11  1  0
 11 12  1  0
 12 13  1  0
 13 14  1  0
 14 15  1  0
  7 16  1  0
 16 17  2  0
 17 18  1  0
 18 19  1  0
 19 20  1  0
 20 21  2  0
 20 22  1  0
 22 23  2  0
 23 24  1  0
 24 25  2  0
 25 26  1  0
 26 27  2  0
 26 28  1  0
 28 29  1  0
 28 30  1  0
 28 31  1  0
 31 32  3  0
 18 33  2  0
 33 34  1  0
 34 35  2  0
 35 36  1  0
  9  4  1  0
 15 10  1  0
 35 16  1  0
 27 22  1  0
  1 37  1  0
  1 38  1  0
  1 39  1  0
  3 40  1  0
  3 41  1  0
  3 42  1  0
  6 43  1  0
  8 44  1  0
 11 45  1  0
 11 46  1  0
 12 47  1  0
 12 48  1  0
 14 49  1  0
 14 50  1  0
 15 51  1  0
 15 52  1  0
 17 53  1  0
 19 54  1  0
 23 55  1  0
 27 56  1  0
 29 57  1  0
 29 58  1  0
 29 59  1  0
 30 60  1  0
 30 61  1  0
 30 62  1  0
 33 63  1  0
 34 64  1  0
 36 65  1  0
 36 66  1  0
 36 67  1  0
M  END
$$$$
[H]c1nc(N([H])c2c([H])c([H])c(OC([H])([H])c3nc([H])c([H])c([H])c3[H])c(Cl)c2[H])c2c(C([H])([H])N3C([H])([H])C([H])([H])N(C([H])([H])[H])C([H])([H])C3([H])[H])c([H])c([H])n2n1
     RDKit          3D

 59 63  0  0  0  0  0  0  0  0999 V2000
   -6.8404    1.9670    0.4395 C   0  0  0  0  0  0  0  0  0  0  0  0
   -5.5061    2.4503    0.0468 N   0  0  0  0  0  0  0  0  0  0  0  0
   -4.5992    2.3048    1.1714 C   0  0  0  0  0  0  0  0  0  0  0  0
   -4.2189    0.8031    1.3211 C   0  0  0  0  0  0  0  0  0  0  0  0
   -3.6083    0.3427    0.1979 N   0  0  0  0  0  0  0  0  0  0  0  0
   -3.3550   -0.8264   -0.3834 C   0  0  0  0  0  0  0  0  0  0  0  0
   -3.1185   -2.1471    0.1895 C   0  0  0  0  0  0  0  0  0  0  0  0
   -4.1127   -3.0627    0.6084 C   0  0  0  0  0  0  0  0  0  0  0  0
   -3.5426   -4.3276    0.6314 C   0  0  0  0  0  0  0  0  0  0  0  0
   -2.2813   -4.2363    0.2652 N   0  0  0  0  0  0  0  0  0  0  0  0
   -1.3010   -5.1180    0.2039 N   0  0  0  0  0  0  0  0  0  0  0  0
   -0.0194   -4.8260   -0.0983 C   0  0  0  0  0  0  0  0  0  0  0  0
    0.3004   -3.5075   -0.3473 N   0  0  0  0  0  0  0  0  0  0  0  0
   -0.6839   -2.6088   -0.2895 C   0  0  0  0  0  0  0  0  0  0  0  0
   -0.3628   -1.2387   -0.3927 N   0  0  0  0  0  0  0  0  0  0  0  0
    1.0608   -0.8406   -0.3480 C   0  0  0  0  0  0  0  0  0  0  0  0
    1.9609   -1.5532    0.3765 C   0  0  0  0  0  0  0  0  0  0  0  0
    3.2918   -1.1737    0.4634 C   0  0  0  0  0  0  0  0  0  0  0  0
    3.7182   -0.0607   -0.1805 C   0  0  0  0  0  0  0  0  0  0  0  0
    4.9653    0.3694   -0.1272 O   0  0  0  0  0  0  0  0  0  0  0  0
    6.1020   -0.0984    0.5129 C   0  0  0  0  0  0  0  0  0  0  0  0
    7.0693    1.0658    0.1484 C   0  0  0  0  0  0  0  0  0  0  0  0
    7.2217    2.0862    1.0450 C   0  0  0  0  0  0  0  0  0  0  0  0
    7.8754    3.2449    0.6124 C   0  0  0  0  0  0  0  0  0  0  0  0
    8.3403    3.3150   -0.7055 C   0  0  0  0  0  0  0  0  0  0  0  0
    8.1541    2.2617   -1.5396 C   0  0  0  0  0  0  0  0  0  0  0  0
    7.5259    1.1628   -1.0991 N   0  0  0  0  0  0  0  0  0  0  0  0
    2.7963    0.6833   -0.9226 C   0  0  0  0  0  0  0  0  0  0  0  0
    3.3981    2.1505   -1.7361 Cl  0  0  0  0  0  0  0  0  0  0  0  0
    1.4882    0.3125   -1.0236 C   0  0  0  0  0  0  0  0  0  0  0  0
   -2.0143   -2.9491    0.0085 C   0  0  0  0  0  0  0  0  0  0  0  0
   -3.6304    1.3576   -0.9223 C   0  0  0  0  0  0  0  0  0  0  0  0
   -5.0500    1.7688   -1.1172 C   0  0  0  0  0  0  0  0  0  0  0  0
   -6.6971    1.3823    1.3973 H   0  0  0  0  0  0  0  0  0  0  0  0
   -7.5084    2.8429    0.5989 H   0  0  0  0  0  0  0  0  0  0  0  0
   -7.2881    1.3125   -0.3110 H   0  0  0  0  0  0  0  0  0  0  0  0
   -5.0317    2.6692    2.0855 H   0  0  0  0  0  0  0  0  0  0  0  0
   -3.6834    2.8246    0.9750 H   0  0  0  0  0  0  0  0  0  0  0  0
   -4.9595    0.2404    1.8799 H   0  0  0  0  0  0  0  0  0  0  0  0
   -3.3659    0.9443    2.1259 H   0  0  0  0  0  0  0  0  0  0  0  0
   -2.7976   -0.7308   -1.3915 H   0  0  0  0  0  0  0  0  0  0  0  0
   -4.4580   -0.9985   -0.9665 H   0  0  0  0  0  0  0  0  0  0  0  0
   -5.1107   -2.8241    0.8553 H   0  0  0  0  0  0  0  0  0  0  0  0
   -4.0663   -5.2545    0.8864 H   0  0  0  0  0  0  0  0  0  0  0  0
    0.7821   -5.5138   -0.1539 H   0  0  0  0  0  0  0  0  0  0  0  0
   -0.9557   -0.4253   -0.4802 H   0  0  0  0  0  0  0  0  0  0  0  0
    1.6602   -2.4127    0.9671 H   0  0  0  0  0  0  0  0  0  0  0  0
    3.9944   -1.8036    1.0574 H   0  0  0  0  0  0  0  0  0  0  0  0
    6.6302   -0.9581    0.1768 H   0  0  0  0  0  0  0  0  0  0  0  0
    5.9950   -0.0804    1.6112 H   0  0  0  0  0  0  0  0  0  0  0  0
    6.8552    2.0347    2.0591 H   0  0  0  0  0  0  0  0  0  0  0  0
    8.0317    4.0910    1.2417 H   0  0  0  0  0  0  0  0  0  0  0  0
    8.8651    4.2148   -1.0996 H   0  0  0  0  0  0  0  0  0  0  0  0
    8.4789    2.2633   -2.5438 H   0  0  0  0  0  0  0  0  0  0  0  0
    0.7678    0.8480   -1.5821 H   0  0  0  0  0  0  0  0  0  0  0  0
   -3.3499    0.7964   -1.8379 H   0  0  0  0  0  0  0  0  0  0  0  0
   -2.9715    2.1823   -0.7007 H   0  0  0  0  0  0  0  0  0  0  0  0
   -5.6884    0.8785   -1.3133 H   0  0  0  0  0  0  0  0  0  0  0  0
   -5.1528    2.4054   -2.0043 H   0  0  0  0  0  0  0  0  0  0  0  0
  1  2  1  0
  2  3  1  0
  3  4  1  0
  4  5  1  0
  5  6  1  0
  6  7  1  0
  7  8  1  0
  8  9  2  0
  9 10  1  0
 10 11  1  0
 11 12  2  0
 12 13  1  0
 13 14  2  0
 14 15  1  0
 15 16  1  0
 16 17  2  0
 17 18  1  0
 18 19  2  0
 19 20  1  0
 20 21  1  0
 21 22  1  0
 22 23  2  0
 23 24  1  0
 24 25  2  0
 25 26  1  0
 26 27  2  0
 19 28  1  0
 28 29  1  0
 28 30  2  0
 14 31  1  0
  5 32  1  0
 32 33  1  0
 33  2  1  0
 31  7  2  0
 31 10  1  0
 30 16  1  0
 27 22  1  0
  1 34  1  0
  1 35  1  0
  1 36  1  0
  3 37  1  0
  3 38  1  0
  4 39  1  0
  4 40  1  0
  6 41  1  0
  6 42  1  0
  8 43  1  0
  9 44  1  0
 12 45  1  0
 15 46  1  0
 17 47  1  0
 18 48  1  0
 21 49  1  0
 21 50  1  0
 23 51  1  0
 24 52  1  0
 25 53  1  0
 26 54  1  0
 30 55  1  0
 32 56  1  0
 32 57  1  0
 33 58  1  0
 33 59  1  0
M  END
$$$$
[H]c1c([H])c(-c2c(N([H])[H])nc(N([H])[H])nc2C([H])([H])C([H])([H])[H])c([H])c(Cl)c1Cl
     RDKit          3D

 30 31  0  0  0  0  0  0  0  0999 V2000
   -2.4240    2.3953    0.2587 C   0  0  0  0  0  0  0  0  0  0  0  0
   -1.1202    1.6462    0.1936 C   0  0  0  0  0  0  0  0  0  0  0  0
   -1.2989    0.1928    0.0287 C   0  0  0  0  0  0  0  0  0  0  0  0
   -2.4784   -0.4280   -0.0570 N   0  0  0  0  0  0  0  0  0  0  0  0
   -2.5506   -1.7703   -0.2081 C   0  0  0  0  0  0  0  0  0  0  0  0
   -3.8144   -2.4168   -0.2977 N   0  0  0  0  0  0  0  0  0  0  0  0
   -1.4581   -2.5506   -0.2803 N   0  0  0  0  0  0  0  0  0  0  0  0
   -0.2359   -1.9560   -0.1969 C   0  0  0  0  0  0  0  0  0  0  0  0
    0.9474   -2.7291   -0.2671 N   0  0  0  0  0  0  0  0  0  0  0  0
   -0.1622   -0.5856   -0.0427 C   0  0  0  0  0  0  0  0  0  0  0  0
    1.1641    0.0114    0.0423 C   0  0  0  0  0  0  0  0  0  0  0  0
    1.6905    0.3211    1.2868 C   0  0  0  0  0  0  0  0  0  0  0  0
    2.9414    0.8853    1.3912 C   0  0  0  0  0  0  0  0  0  0  0  0
    3.6716    1.1421    0.2465 C   0  0  0  0  0  0  0  0  0  0  0  0
    5.2575    1.8562    0.3594 Cl  0  0  0  0  0  0  0  0  0  0  0  0
    3.1305    0.8268   -0.9809 C   0  0  0  0  0  0  0  0  0  0  0  0
    4.0818    1.1645   -2.4169 Cl  0  0  0  0  0  0  0  0  0  0  0  0
    1.8899    0.2663   -1.0989 C   0  0  0  0  0  0  0  0  0  0  0  0
   -3.1790    1.9255    0.8892 H   0  0  0  0  0  0  0  0  0  0  0  0
   -2.8333    2.5958   -0.7527 H   0  0  0  0  0  0  0  0  0  0  0  0
   -2.1853    3.4052    0.7013 H   0  0  0  0  0  0  0  0  0  0  0  0
   -0.5209    1.8191    1.1093 H   0  0  0  0  0  0  0  0  0  0  0  0
   -0.5547    2.0785   -0.6798 H   0  0  0  0  0  0  0  0  0  0  0  0
   -4.6113   -2.0808    0.2876 H   0  0  0  0  0  0  0  0  0  0  0  0
   -3.9959   -3.2267   -0.9295 H   0  0  0  0  0  0  0  0  0  0  0  0
    1.7202   -2.5760    0.4049 H   0  0  0  0  0  0  0  0  0  0  0  0
    1.0439   -3.4542   -0.9948 H   0  0  0  0  0  0  0  0  0  0  0  0
    1.0858    0.1045    2.1690 H   0  0  0  0  0  0  0  0  0  0  0  0
    3.3045    1.1067    2.3771 H   0  0  0  0  0  0  0  0  0  0  0  0
    1.4940    0.0308   -2.0765 H   0  0  0  0  0  0  0  0  0  0  0  0
  1  2  1  0
  2  3  1  0
  3  4  2  0
  4  5  1  0
  5  6  1  0
  5  7  2  0
  7  8  1  0
  8  9  1  0
  8 10  2  0
 10 11  1  0
 11 12  2  0
 12 13  1  0
 13 14  2  0
 14 15  1  0
 14 16  1  0
 16 17  1  0
 16 18  2  0
 10  3  1  0
 18 11  1  0
  1 19  1  0
  1 20  1  0
  1 21  1  0
  2 22  1  0
  2 23  1  0
  6 24  1  0
  6 25  1  0
  9 26  1  0
  9 27  1  0
 12 28  1  0
 13 29  1  0
 18 30  1  0
M  END
$$$$
[H]OC(=O)[C@@]([H])(N([H])[H])C([H])([H])c1nc(-c2c([H])c([H])c(OC(F)(F)F)c([H])c2[H])sc1[H]
     RDKit          3D

 33 34  0  0  0  0  0  0  0  0999 V2000
   -4.6221    0.4911   -0.8060 N   0  0  0  0  0  0  0  0  0  0  0  0
   -4.3542    0.0218    0.5208 C   0  0  1  0  0  0  0  0  0  0  0  0
   -2.9947    0.4109    0.9426 C   0  0  0  0  0  0  0  0  0  0  0  0
   -1.9634   -0.2160    0.0114 C   0  0  0  0  0  0  0  0  0  0  0  0
   -2.2812   -1.1124   -0.9766 C   0  0  0  0  0  0  0  0  0  0  0  0
   -0.7421   -1.4209   -1.6709 S   0  0  0  0  0  0  0  0  0  0  0  0
    0.1907   -0.3978   -0.6646 C   0  0  0  0  0  0  0  0  0  0  0  0
   -0.7081    0.1148    0.1324 N   0  0  0  0  0  0  0  0  0  0  0  0
    1.6608   -0.1623   -0.7035 C   0  0  0  0  0  0  0  0  0  0  0  0
    2.4362   -0.8073   -1.6328 C   0  0  0  0  0  0  0  0  0  0  0  0
    3.7985   -0.5203   -1.5877 C   0  0  0  0  0  0  0  0  0  0  0  0
    4.3462    0.3444   -0.6844 C   0  0  0  0  0  0  0  0  0  0  0  0
    5.7046    0.6021   -0.6731 O   0  0  0  0  0  0  0  0  0  0  0  0
    6.5377   -0.2163    0.1312 C   0  0  0  0  0  0  0  0  0  0  0  0
    7.8531    0.1428    0.0527 F   0  0  0  0  0  0  0  0  0  0  0  0
    6.3960   -1.5199   -0.2925 F   0  0  0  0  0  0  0  0  0  0  0  0
    6.1640   -0.1368    1.4637 F   0  0  0  0  0  0  0  0  0  0  0  0
    3.5046    0.9685    0.2345 C   0  0  0  0  0  0  0  0  0  0  0  0
    2.1430    0.7212    0.2363 C   0  0  0  0  0  0  0  0  0  0  0  0
   -5.3131    0.5774    1.5197 C   0  0  0  0  0  0  0  0  0  0  0  0
   -5.2141    0.2376    2.8612 O   0  0  0  0  0  0  0  0  0  0  0  0
   -6.2231    1.3565    1.1803 O   0  0  0  0  0  0  0  0  0  0  0  0
   -5.6187    0.4519   -1.0736 H   0  0  0  0  0  0  0  0  0  0  0  0
   -4.1535    1.3892   -1.0433 H   0  0  0  0  0  0  0  0  0  0  0  0
   -4.4232   -1.0953    0.5068 H   0  0  0  0  0  0  0  0  0  0  0  0
   -2.7543    0.1385    1.9914 H   0  0  0  0  0  0  0  0  0  0  0  0
   -2.8701    1.5299    0.8741 H   0  0  0  0  0  0  0  0  0  0  0  0
   -3.2621   -1.5425   -1.2590 H   0  0  0  0  0  0  0  0  0  0  0  0
    2.0015   -1.4849   -2.3395 H   0  0  0  0  0  0  0  0  0  0  0  0
    4.4434   -1.0034   -2.2977 H   0  0  0  0  0  0  0  0  0  0  0  0
    3.8784    1.6626    0.9739 H   0  0  0  0  0  0  0  0  0  0  0  0
    1.5077    1.2179    0.9601 H   0  0  0  0  0  0  0  0  0  0  0  0
   -5.0684   -0.7430    3.1122 H   0  0  0  0  0  0  0  0  0  0  0  0
  1  2  1  0
  2  3  1  0
  3  4  1  0
  4  5  2  0
  5  6  1  0
  6  7  1  0
  7  8  2  0
  7  9  1  0
  9 10  2  0
 10 11  1  0
 11 12  2  0
 12 13  1  0
 13 14  1  0
 14 15  1  0
 14 16  1  0
 14 17  1  0
 12 18  1  0
 18 19  2  0
  2 20  1  0
 20 21  1  0
 20 22  2  0
  8  4  1  0
 19  9  1  0
  1 23  1  0
  1 24  1  0
  2 25  1  6
  3 26  1  0
  3 27  1  0
  5 28  1  0
 10 29  1  0
 11 30  1  0
 18 31  1  0
 19 32  1  0
 21 33  1  0
M  END
$$$$
[H]c1c([H])c(N2C([H])([H])C([H])([H])N([H])C([H])([H])C2([H])[H])c([H])c([H])c1C(=O)N([H])C1([H])C([H])([H])c2c(c3c([H])c(C([H])([H])[H])c([H])c(C([H])([H])[H])c3n2C([H])([H])[H])C([H])([H])C1([H])[H]
     RDKit          3D

 63 67  0  0  0  0  0  0  0  0999 V2000
   -8.6168    1.3710    1.9111 C   0  0  0  0  0  0  0  0  0  0  0  0
   -7.5042    0.8073    1.1038 C   0  0  0  0  0  0  0  0  0  0  0  0
   -7.7384   -0.2246    0.2473 C   0  0  0  0  0  0  0  0  0  0  0  0
   -6.7399   -0.7999   -0.5387 C   0  0  0  0  0  0  0  0  0  0  0  0
   -7.0296   -1.9240   -1.4623 C   0  0  0  0  0  0  0  0  0  0  0  0
   -5.4534   -0.2942   -0.4393 C   0  0  0  0  0  0  0  0  0  0  0  0
   -4.2868   -0.6028   -1.0334 N   0  0  0  0  0  0  0  0  0  0  0  0
   -4.0639   -1.6356   -2.0152 C   0  0  0  0  0  0  0  0  0  0  0  0
   -3.3031    0.2146   -0.5731 C   0  0  0  0  0  0  0  0  0  0  0  0
   -1.8388    0.3048   -0.8913 C   0  0  0  0  0  0  0  0  0  0  0  0
   -1.1729    0.6360    0.4491 C   0  0  0  0  0  0  0  0  0  0  0  0
   -1.6123    1.9958    0.8774 C   0  0  0  0  0  0  0  0  0  0  0  0
   -3.0914    2.1267    1.0737 C   0  0  0  0  0  0  0  0  0  0  0  0
   -3.8234    1.0856    0.3459 C   0  0  0  0  0  0  0  0  0  0  0  0
   -5.1828    0.7616    0.4285 C   0  0  0  0  0  0  0  0  0  0  0  0
   -6.2131    1.2856    1.1776 C   0  0  0  0  0  0  0  0  0  0  0  0
    0.2575    0.6700    0.2117 N   0  0  0  0  0  0  0  0  0  0  0  0
    1.0789   -0.2556    0.8795 C   0  0  0  0  0  0  0  0  0  0  0  0
    0.5646   -1.0994    1.6716 O   0  0  0  0  0  0  0  0  0  0  0  0
    2.5296   -0.2755    0.6862 C   0  0  0  0  0  0  0  0  0  0  0  0
    3.1644    0.5804   -0.1809 C   0  0  0  0  0  0  0  0  0  0  0  0
    4.5301    0.5180   -0.3192 C   0  0  0  0  0  0  0  0  0  0  0  0
    5.3335   -0.3859    0.3859 C   0  0  0  0  0  0  0  0  0  0  0  0
    4.6566   -1.2264    1.2446 C   0  0  0  0  0  0  0  0  0  0  0  0
    3.2964   -1.1867    1.4029 C   0  0  0  0  0  0  0  0  0  0  0  0
    6.7387   -0.4063    0.1970 N   0  0  0  0  0  0  0  0  0  0  0  0
    7.3267    0.3892   -0.8519 C   0  0  0  0  0  0  0  0  0  0  0  0
    8.6967   -0.1955   -1.1541 C   0  0  0  0  0  0  0  0  0  0  0  0
    9.5320   -0.0862    0.0118 N   0  0  0  0  0  0  0  0  0  0  0  0
    8.9908   -0.7228    1.1684 C   0  0  0  0  0  0  0  0  0  0  0  0
    7.5792   -1.2034    1.0419 C   0  0  0  0  0  0  0  0  0  0  0  0
   -9.2405    0.5620    2.3309 H   0  0  0  0  0  0  0  0  0  0  0  0
   -9.2309    1.9981    1.2247 H   0  0  0  0  0  0  0  0  0  0  0  0
   -8.1578    1.9818    2.7175 H   0  0  0  0  0  0  0  0  0  0  0  0
   -8.7213   -0.6522    0.1349 H   0  0  0  0  0  0  0  0  0  0  0  0
   -8.1573   -1.9904   -1.5365 H   0  0  0  0  0  0  0  0  0  0  0  0
   -6.6931   -1.7607   -2.4899 H   0  0  0  0  0  0  0  0  0  0  0  0
   -6.7355   -2.9043   -1.0294 H   0  0  0  0  0  0  0  0  0  0  0  0
   -2.9558   -1.8086   -2.1515 H   0  0  0  0  0  0  0  0  0  0  0  0
   -4.4036   -1.3281   -3.0445 H   0  0  0  0  0  0  0  0  0  0  0  0
   -4.4564   -2.6078   -1.7015 H   0  0  0  0  0  0  0  0  0  0  0  0
   -1.7146    1.2036   -1.5301 H   0  0  0  0  0  0  0  0  0  0  0  0
   -1.4408   -0.6044   -1.3394 H   0  0  0  0  0  0  0  0  0  0  0  0
   -1.4773   -0.1377    1.1518 H   0  0  0  0  0  0  0  0  0  0  0  0
   -1.2382    2.7491    0.1395 H   0  0  0  0  0  0  0  0  0  0  0  0
   -1.1348    2.2180    1.8762 H   0  0  0  0  0  0  0  0  0  0  0  0
   -3.3672    2.0502    2.1461 H   0  0  0  0  0  0  0  0  0  0  0  0
   -3.4015    3.1419    0.7515 H   0  0  0  0  0  0  0  0  0  0  0  0
   -6.0198    2.1040    1.8553 H   0  0  0  0  0  0  0  0  0  0  0  0
    0.6118    1.3776   -0.4416 H   0  0  0  0  0  0  0  0  0  0  0  0
    2.5839    1.2894   -0.7412 H   0  0  0  0  0  0  0  0  0  0  0  0
    5.0491    1.1832   -0.9944 H   0  0  0  0  0  0  0  0  0  0  0  0
    5.2249   -1.9543    1.8196 H   0  0  0  0  0  0  0  0  0  0  0  0
    2.7711   -1.8576    2.0863 H   0  0  0  0  0  0  0  0  0  0  0  0
    6.7299    0.3780   -1.7903 H   0  0  0  0  0  0  0  0  0  0  0  0
    7.4249    1.4273   -0.4833 H   0  0  0  0  0  0  0  0  0  0  0  0
    8.5678   -1.2268   -1.5015 H   0  0  0  0  0  0  0  0  0  0  0  0
    9.1520    0.4265   -1.9472 H   0  0  0  0  0  0  0  0  0  0  0  0
   10.4610   -0.5006   -0.2173 H   0  0  0  0  0  0  0  0  0  0  0  0
    9.6661   -1.5316    1.5387 H   0  0  0  0  0  0  0  0  0  0  0  0
    8.9925    0.0451    1.9958 H   0  0  0  0  0  0  0  0  0  0  0  0
    7.0892   -1.2550    2.0398 H   0  0  0  0  0  0  0  0  0  0  0  0
    7.6174   -2.2374    0.6293 H   0  0  0  0  0  0  0  0  0  0  0  0
  1  2  1  0
  2  3  2  0
  3  4  1  0
  4  5  1  0
  4  6  2  0
  6  7  1  0
  7  8  1  0
  7  9  1  0
  9 10  1  0
 10 11  1  0
 11 12  1  0
 12 13  1  0
 13 14  1  0
 14 15  1  0
 15 16  2  0
 11 17  1  0
 17 18  1  0
 18 19  2  0
 18 20  1  0
 20 21  2  0
 21 22  1  0
 22 23  2  0
 23 24  1  0
 24 25  2  0
 23 26  1  0
 26 27  1  0
 27 28  1  0
 28 29  1  0
 29 30  1  0
 30 31  1  0
 16  2  1  0
 25 20  1  0
 31 26  1  0
 15  6  1  0
 14  9  2  0
  1 32  1  0
  1 33  1  0
  1 34  1  0
  3 35  1  0
  5 36  1  0
  5 37  1  0
  5 38  1  0
  8 39  1  0
  8 40  1  0
  8 41  1  0
 10 42  1  0
 10 43  1  0
 11 44  1  0
 12 45  1  0
 12 46  1  0
 13 47  1  0
 13 48  1  0
 16 49  1  0
 17 50  1  0
 21 51  1  0
 22 52  1  0
 24 53  1  0
 25 54  1  0
 27 55  1  0
 27 56  1  0
 28 57  1  0
 28 58  1  0
 29 59  1  0
 30 60  1  0
 30 61  1  0
 31 62  1  0
 31 63  1  0
M  END
$$$$
[H]c1nc([H])c([H])c(-c2c([H])c([H])c([H])c(C([H])([H])OC([H])(C([H])([H])[H])C([H])([H])C([H])(C([H])([H])[H])C([H])([H])[H])c2[H])c1[H].[Li+].[Na+]
     RDKit          3D

 45 44  0  0  0  0  0  0  0  0999 V2000
    0.0000    0.0000    0.0000 Na  0  0  0  0  0 15  0  0  0  0  0  0
    0.0000    0.0000    0.0000 Li  0  0  0  0  0 15  0  0  0  0  0  0
    1.8529    0.8095   -2.5454 C   0  0  0  0  0  0  0  0  0  0  0  0
    1.8799    0.4821   -1.0427 C   0  0  0  0  0  0  0  0  0  0  0  0
    3.2390   -0.1223   -0.7805 C   0  0  0  0  0  0  0  0  0  0  0  0
    3.4688   -0.5202    0.6459 C   0  0  0  0  0  0  0  0  0  0  0  0
    4.8729   -1.0990    0.7266 C   0  0  0  0  0  0  0  0  0  0  0  0
    2.5335   -1.6574    1.0634 C   0  0  0  0  0  0  0  0  0  0  0  0
    1.8150    1.6763   -0.3285 O   0  0  0  0  0  0  0  0  0  0  0  0
    0.7725    1.7719    0.5527 C   0  0  0  0  0  0  0  0  0  0  0  0
   -0.5550    1.6522   -0.1013 C   0  0  0  0  0  0  0  0  0  0  0  0
   -0.9240    2.4743   -1.1291 C   0  0  0  0  0  0  0  0  0  0  0  0
   -2.1696    2.3224   -1.6983 C   0  0  0  0  0  0  0  0  0  0  0  0
   -3.0411    1.3634   -1.2515 C   0  0  0  0  0  0  0  0  0  0  0  0
   -2.6580    0.5438   -0.2177 C   0  0  0  0  0  0  0  0  0  0  0  0
   -1.4283    0.6987    0.3390 C   0  0  0  0  0  0  0  0  0  0  0  0
   -3.5379   -0.5018    0.3152 C   0  0  0  0  0  0  0  0  0  0  0  0
   -4.4419   -1.1856   -0.4370 C   0  0  0  0  0  0  0  0  0  0  0  0
   -5.2425   -2.1545    0.1350 C   0  0  0  0  0  0  0  0  0  0  0  0
   -5.1683   -2.4656    1.4480 N   0  0  0  0  0  0  0  0  0  0  0  0
   -4.2823   -1.7989    2.1969 C   0  0  0  0  0  0  0  0  0  0  0  0
   -3.4593   -0.8185    1.6623 C   0  0  0  0  0  0  0  0  0  0  0  0
    0.8489    0.6023   -2.9661 H   0  0  0  0  0  0  0  0  0  0  0  0
    2.5807    0.1627   -3.0741 H   0  0  0  0  0  0  0  0  0  0  0  0
    2.1872    1.8573   -2.6975 H   0  0  0  0  0  0  0  0  0  0  0  0
    1.0918   -0.2236   -0.7970 H   0  0  0  0  0  0  0  0  0  0  0  0
    3.9909    0.6728   -1.0206 H   0  0  0  0  0  0  0  0  0  0  0  0
    3.4767   -0.9580   -1.4943 H   0  0  0  0  0  0  0  0  0  0  0  0
    3.3311    0.3656    1.2756 H   0  0  0  0  0  0  0  0  0  0  0  0
    5.5523   -0.4817    0.0765 H   0  0  0  0  0  0  0  0  0  0  0  0
    5.2823   -0.9525    1.7684 H   0  0  0  0  0  0  0  0  0  0  0  0
    4.9030   -2.1483    0.4286 H   0  0  0  0  0  0  0  0  0  0  0  0
    3.0683   -2.2758    1.8112 H   0  0  0  0  0  0  0  0  0  0  0  0
    2.2718   -2.2332    0.1579 H   0  0  0  0  0  0  0  0  0  0  0  0
    1.6314   -1.2074    1.5652 H   0  0  0  0  0  0  0  0  0  0  0  0
    0.8627    1.0980    1.4307 H   0  0  0  0  0  0  0  0  0  0  0  0
    0.8097    2.8095    0.9760 H   0  0  0  0  0  0  0  0  0  0  0  0
   -0.2809    3.2423   -1.5181 H   0  0  0  0  0  0  0  0  0  0  0  0
   -2.4842    2.9758   -2.5285 H   0  0  0  0  0  0  0  0  0  0  0  0
   -4.0056    1.2370   -1.6850 H   0  0  0  0  0  0  0  0  0  0  0  0
   -1.1329    0.0434    1.1575 H   0  0  0  0  0  0  0  0  0  0  0  0
   -4.5384   -0.9737   -1.4886 H   0  0  0  0  0  0  0  0  0  0  0  0
   -5.9647   -2.6940   -0.4879 H   0  0  0  0  0  0  0  0  0  0  0  0
   -4.2530   -2.0794    3.2545 H   0  0  0  0  0  0  0  0  0  0  0  0
   -2.7555   -0.3097    2.3304 H   0  0  0  0  0  0  0  0  0  0  0  0
  3  4  1  0
  4  5  1  0
  5  6  1  0
  6  7  1  0
  6  8  1  0
  4  9  1  0
  9 10  1  0
 10 11  1  0
 11 12  2  0
 12 13  1  0
 13 14  2  0
 14 15  1  0
 15 16  2  0
 15 17  1  0
 17 18  2  0
 18 19  1  0
 19 20  2  0
 20 21  1  0
 21 22  2  0
 16 11  1  0
 22 17  1  0
  3 23  1  0
  3 24  1  0
  3 25  1  0
  4 26  1  0
  5 27  1  0
  5 28  1  0
  6 29  1  0
  7 30  1  0
  7 31  1  0
  7 32  1  0
  8 33  1  0
  8 34  1  0
  8 35  1  0
 10 36  1  0
 10 37  1  0
 12 38  1  0
 13 39  1  0
 14 40  1  0
 16 41  1  0
 18 42  1  0
 19 43  1  0
 21 44  1  0
 22 45  1  0
M  CHG  2   1   1   2   1
M  END
$$$$
[H]c1nc(N([H])c2c([H])c([H])c(N3C([H])([H])C([H])([H])C([H])(N4C([H])([H])C([H])([H])N(C([H])([H])[H])C([H])([H])C4([H])[H])C([H])([H])C3([H])[H])c([H])c2OC([H])([H])[H])nc(N([H])c2c([H])c([H])c([H])c([H])c2S(=O)(=O)C([H])(C([H])([H])[H])C([H])([H])[H])c1F
     RDKit          3D

 82 86  0  0  0  0  0  0  0  0999 V2000
   -0.3063    2.3350   -2.9829 C   0  0  0  0  0  0  0  0  0  0  0  0
   -0.6870    1.5345   -1.9061 O   0  0  0  0  0  0  0  0  0  0  0  0
    0.1469    0.9955   -0.9491 C   0  0  0  0  0  0  0  0  0  0  0  0
    1.4910    1.1996   -0.9588 C   0  0  0  0  0  0  0  0  0  0  0  0
    2.3459    0.6675   -0.0071 C   0  0  0  0  0  0  0  0  0  0  0  0
    1.7761   -0.0920    0.9706 C   0  0  0  0  0  0  0  0  0  0  0  0
    0.3782   -0.3077    0.9858 C   0  0  0  0  0  0  0  0  0  0  0  0
   -0.4579    0.2118    0.0559 C   0  0  0  0  0  0  0  0  0  0  0  0
   -1.8514    0.0543    0.0634 N   0  0  0  0  0  0  0  0  0  0  0  0
   -2.5826   -0.8387    0.8452 C   0  0  0  0  0  0  0  0  0  0  0  0
   -2.0569   -1.6983    1.6961 N   0  0  0  0  0  0  0  0  0  0  0  0
   -2.8278   -2.5355    2.4065 C   0  0  0  0  0  0  0  0  0  0  0  0
   -4.1978   -2.5269    2.2729 C   0  0  0  0  0  0  0  0  0  0  0  0
   -4.9871   -3.3510    2.9679 F   0  0  0  0  0  0  0  0  0  0  0  0
   -4.7463   -1.6079    1.3658 C   0  0  0  0  0  0  0  0  0  0  0  0
   -6.1629   -1.5948    1.2068 N   0  0  0  0  0  0  0  0  0  0  0  0
   -6.9446   -0.7747    0.4063 C   0  0  0  0  0  0  0  0  0  0  0  0
   -6.4621    0.2732   -0.3309 C   0  0  0  0  0  0  0  0  0  0  0  0
   -7.2579    1.1020   -1.1134 C   0  0  0  0  0  0  0  0  0  0  0  0
   -8.5984    0.8824   -1.1699 C   0  0  0  0  0  0  0  0  0  0  0  0
   -9.1033   -0.1815   -0.4245 C   0  0  0  0  0  0  0  0  0  0  0  0
   -8.3405   -1.0059    0.3495 C   0  0  0  0  0  0  0  0  0  0  0  0
   -9.0572   -2.3155    1.2456 S   0  0  0  0  0  0  0  0  0  0  0  0
   -8.8846   -2.0892    2.7257 O   0  0  0  0  0  0  0  0  0  0  0  0
   -8.4523   -3.6372    0.8129 O   0  0  0  0  0  0  0  0  0  0  0  0
  -10.8251   -2.4362    1.0001 C   0  0  0  0  0  0  0  0  0  0  0  0
  -11.1927   -2.7251   -0.4183 C   0  0  0  0  0  0  0  0  0  0  0  0
  -11.4588   -1.2229    1.5998 C   0  0  0  0  0  0  0  0  0  0  0  0
   -3.9156   -0.8383    0.7234 N   0  0  0  0  0  0  0  0  0  0  0  0
    3.7709    0.8887   -0.0520 N   0  0  0  0  0  0  0  0  0  0  0  0
    4.5917    0.8141    1.1162 C   0  0  0  0  0  0  0  0  0  0  0  0
    5.8643    0.0417    0.9475 C   0  0  0  0  0  0  0  0  0  0  0  0
    6.5560    0.3396   -0.3600 C   0  0  0  0  0  0  0  0  0  0  0  0
    5.8471    1.4345   -1.1212 C   0  0  0  0  0  0  0  0  0  0  0  0
    4.3926    1.1814   -1.3161 C   0  0  0  0  0  0  0  0  0  0  0  0
    7.8837    0.7291   -0.0913 N   0  0  0  0  0  0  0  0  0  0  0  0
    8.7188   -0.2025    0.5495 C   0  0  0  0  0  0  0  0  0  0  0  0
   10.1143   -0.3042    0.0515 C   0  0  0  0  0  0  0  0  0  0  0  0
   10.6290    0.8802   -0.5554 N   0  0  0  0  0  0  0  0  0  0  0  0
   11.2947    1.7344    0.3787 C   0  0  0  0  0  0  0  0  0  0  0  0
    9.7021    1.5486   -1.4094 C   0  0  0  0  0  0  0  0  0  0  0  0
    8.4255    1.8875   -0.6197 C   0  0  0  0  0  0  0  0  0  0  0  0
    0.2465    3.2338   -2.6171 H   0  0  0  0  0  0  0  0  0  0  0  0
    0.2089    1.8220   -3.8032 H   0  0  0  0  0  0  0  0  0  0  0  0
   -1.2657    2.7411   -3.4217 H   0  0  0  0  0  0  0  0  0  0  0  0
    1.9575    1.8073   -1.7403 H   0  0  0  0  0  0  0  0  0  0  0  0
    2.3846   -0.5415    1.7503 H   0  0  0  0  0  0  0  0  0  0  0  0
    0.0469   -0.9165    1.8210 H   0  0  0  0  0  0  0  0  0  0  0  0
   -2.4035    0.7132   -0.6204 H   0  0  0  0  0  0  0  0  0  0  0  0
   -2.3413   -3.2212    3.0928 H   0  0  0  0  0  0  0  0  0  0  0  0
   -6.6935   -2.3160    1.7869 H   0  0  0  0  0  0  0  0  0  0  0  0
   -5.4061    0.5582   -0.3642 H   0  0  0  0  0  0  0  0  0  0  0  0
   -6.8492    1.9215   -1.6878 H   0  0  0  0  0  0  0  0  0  0  0  0
   -9.2521    1.5099   -1.7761 H   0  0  0  0  0  0  0  0  0  0  0  0
  -10.1903   -0.2916   -0.5185 H   0  0  0  0  0  0  0  0  0  0  0  0
  -11.1233   -3.3223    1.6450 H   0  0  0  0  0  0  0  0  0  0  0  0
  -12.0381   -2.1128   -0.7492 H   0  0  0  0  0  0  0  0  0  0  0  0
  -10.2922   -2.6171   -1.0663 H   0  0  0  0  0  0  0  0  0  0  0  0
  -11.4791   -3.8002   -0.5026 H   0  0  0  0  0  0  0  0  0  0  0  0
  -10.7157   -0.4855    1.9743 H   0  0  0  0  0  0  0  0  0  0  0  0
  -12.1451   -1.5203    2.4145 H   0  0  0  0  0  0  0  0  0  0  0  0
  -12.1033   -0.7479    0.8067 H   0  0  0  0  0  0  0  0  0  0  0  0
    4.0795    0.4867    2.0356 H   0  0  0  0  0  0  0  0  0  0  0  0
    4.9074    1.8805    1.3387 H   0  0  0  0  0  0  0  0  0  0  0  0
    5.6276   -1.0363    0.9737 H   0  0  0  0  0  0  0  0  0  0  0  0
    6.5299    0.2608    1.7987 H   0  0  0  0  0  0  0  0  0  0  0  0
    6.5477   -0.5641   -0.9901 H   0  0  0  0  0  0  0  0  0  0  0  0
    5.9603    2.4412   -0.6731 H   0  0  0  0  0  0  0  0  0  0  0  0
    6.3078    1.4737   -2.1310 H   0  0  0  0  0  0  0  0  0  0  0  0
    4.1668    0.4133   -2.0890 H   0  0  0  0  0  0  0  0  0  0  0  0
    3.9556    2.1402   -1.7222 H   0  0  0  0  0  0  0  0  0  0  0  0
    8.7806    0.0682    1.6428 H   0  0  0  0  0  0  0  0  0  0  0  0
    8.1963   -1.1966    0.5487 H   0  0  0  0  0  0  0  0  0  0  0  0
   10.1597   -1.1121   -0.7268 H   0  0  0  0  0  0  0  0  0  0  0  0
   10.8288   -0.6578    0.8487 H   0  0  0  0  0  0  0  0  0  0  0  0
   11.0206    1.5460    1.4354 H   0  0  0  0  0  0  0  0  0  0  0  0
   11.1782    2.8018    0.1077 H   0  0  0  0  0  0  0  0  0  0  0  0
   12.3969    1.5204    0.3048 H   0  0  0  0  0  0  0  0  0  0  0  0
    9.4852    1.0059   -2.3395 H   0  0  0  0  0  0  0  0  0  0  0  0
   10.1432    2.5374   -1.6889 H   0  0  0  0  0  0  0  0  0  0  0  0
    8.7879    2.6250    0.1623 H   0  0  0  0  0  0  0  0  0  0  0  0
    7.8229    2.5017   -1.3077 H   0  0  0  0  0  0  0  0  0  0  0  0
  1  2  1  0
  2  3  1  0
  3  4  2  0
  4  5  1  0
  5  6  2  0
  6  7  1  0
  7  8  2  0
  8  9  1  0
  9 10  1  0
 10 11  2  0
 11 12  1  0
 12 13  2  0
 13 14  1  0
 13 15  1  0
 15 16  1  0
 16 17  1  0
 17 18  2  0
 18 19  1  0
 19 20  2  0
 20 21  1  0
 21 22  2  0
 22 23  1  0
 23 24  2  0
 23 25  2  0
 23 26  1  0
 26 27  1  0
 26 28  1  0
 15 29  2  0
  5 30  1  0
 30 31  1  0
 31 32  1  0
 32 33  1  0
 33 34  1  0
 34 35  1  0
 33 36  1  0
 36 37  1  0
 37 38  1  0
 38 39  1  0
 39 40  1  0
 39 41  1  0
 41 42  1  0
  8  3  1  0
 29 10  1  0
 35 30  1  0
 42 36  1  0
 22 17  1  0
  1 43  1  0
  1 44  1  0
  1 45  1  0
  4 46  1  0
  6 47  1  0
  7 48  1  0
  9 49  1  0
 12 50  1  0
 16 51  1  0
 18 52  1  0
 19 53  1  0
 20 54  1  0
 21 55  1  0
 26 56  1  0
 27 57  1  0
 27 58  1  0
 27 59  1  0
 28 60  1  0
 28 61  1  0
 28 62  1  0
 31 63  1  0
 31 64  1  0
 32 65  1  0
 32 66  1  0
 33 67  1  0
 34 68  1  0
 34 69  1  0
 35 70  1  0
 35 71  1  0
 37 72  1  0
 37 73  1  0
 38 74  1  0
 38 75  1  0
 40 76  1  0
 40 77  1  0
 40 78  1  0
 41 79  1  0
 41 80  1  0
 42 81  1  0
 42 82  1  0
M  END
$$$$
[H]OC([H])([H])C([H])([H])N1C([H])([H])C([H])([H])C([H])(c2c([H])c([H])c(N([H])c3nc(N4C([H])([H])C([H])([H])C([H])([H])[C@@]([H])(N([H])C(=O)c5c([H])c([H])c(N6C([H])([H])C([H])([H])N(C([H])([H])[H])C([H])([H])C6([H])[H])c(C(F)(F)F)c5[H])C4([H])[H])c([H])nc3C(=O)N([H])[H])c([H])c2[H])C([H])([H])C1([H])[H]
     RDKit          3D

 97102  0  0  0  0  0  0  0  0999 V2000
  -11.8536   -1.4750    0.1851 C   0  0  0  0  0  0  0  0  0  0  0  0
  -10.9760   -1.1401    1.2669 N   0  0  0  0  0  0  0  0  0  0  0  0
  -10.4795    0.2018    1.2363 C   0  0  0  0  0  0  0  0  0  0  0  0
   -9.5105    0.4770    0.1097 C   0  0  0  0  0  0  0  0  0  0  0  0
   -8.5784   -0.5969   -0.0806 N   0  0  0  0  0  0  0  0  0  0  0  0
   -8.9282   -1.9793    0.1935 C   0  0  0  0  0  0  0  0  0  0  0  0
   -9.8859   -2.0744    1.3598 C   0  0  0  0  0  0  0  0  0  0  0  0
   -7.2747   -0.3216   -0.5718 C   0  0  0  0  0  0  0  0  0  0  0  0
   -7.0969   -0.3114   -1.9755 C   0  0  0  0  0  0  0  0  0  0  0  0
   -5.9027   -0.0212   -2.5652 C   0  0  0  0  0  0  0  0  0  0  0  0
   -4.7879    0.2821   -1.8120 C   0  0  0  0  0  0  0  0  0  0  0  0
   -4.9481    0.2735   -0.4523 C   0  0  0  0  0  0  0  0  0  0  0  0
   -6.1712   -0.0229    0.1777 C   0  0  0  0  0  0  0  0  0  0  0  0
   -6.2014   -0.0143    1.6529 C   0  0  0  0  0  0  0  0  0  0  0  0
   -7.0685    0.9107    2.1461 F   0  0  0  0  0  0  0  0  0  0  0  0
   -6.4122   -1.2636    2.2121 F   0  0  0  0  0  0  0  0  0  0  0  0
   -4.9342    0.3614    2.1352 F   0  0  0  0  0  0  0  0  0  0  0  0
   -3.5260    0.6283   -2.4565 C   0  0  0  0  0  0  0  0  0  0  0  0
   -3.5894    1.1322   -3.6134 O   0  0  0  0  0  0  0  0  0  0  0  0
   -2.2802    0.4078   -1.8034 N   0  0  0  0  0  0  0  0  0  0  0  0
   -1.0297    0.7723   -2.4451 C   0  0  2  0  0  0  0  0  0  0  0  0
   -0.1868   -0.3735   -2.8724 C   0  0  0  0  0  0  0  0  0  0  0  0
    0.4978   -1.1399   -1.7980 C   0  0  0  0  0  0  0  0  0  0  0  0
    1.2487   -0.2485   -0.8293 C   0  0  0  0  0  0  0  0  0  0  0  0
    0.5252    0.9690   -0.5641 N   0  0  0  0  0  0  0  0  0  0  0  0
   -0.2862    1.6585   -1.5119 C   0  0  0  0  0  0  0  0  0  0  0  0
    0.6491    1.5281    0.7558 C   0  0  0  0  0  0  0  0  0  0  0  0
   -0.4461    2.0067    1.4434 C   0  0  0  0  0  0  0  0  0  0  0  0
   -0.3039    2.5266    2.6635 N   0  0  0  0  0  0  0  0  0  0  0  0
    0.9271    2.6127    3.2917 C   0  0  0  0  0  0  0  0  0  0  0  0
    0.9866    3.1725    4.6039 C   0  0  0  0  0  0  0  0  0  0  0  0
   -0.2466    3.6357    5.1701 N   0  0  0  0  0  0  0  0  0  0  0  0
    1.9807    3.2995    5.2957 O   0  0  0  0  0  0  0  0  0  0  0  0
    1.9923    2.1479    2.6187 C   0  0  0  0  0  0  0  0  0  0  0  0
    3.3157    2.2104    3.0892 N   0  0  0  0  0  0  0  0  0  0  0  0
    4.4599    1.7200    2.3883 C   0  0  0  0  0  0  0  0  0  0  0  0
    4.4011    0.5748    1.6640 C   0  0  0  0  0  0  0  0  0  0  0  0
    5.5057    0.1294    0.9182 C   0  0  0  0  0  0  0  0  0  0  0  0
    6.6626    0.8369    0.9058 C   0  0  0  0  0  0  0  0  0  0  0  0
    6.7121    2.0113    1.6560 C   0  0  0  0  0  0  0  0  0  0  0  0
    5.6376    2.4449    2.3808 C   0  0  0  0  0  0  0  0  0  0  0  0
    7.8739    0.4672    0.1520 C   0  0  0  0  0  0  0  0  0  0  0  0
    8.7892   -0.4977    0.8420 C   0  0  0  0  0  0  0  0  0  0  0  0
    9.8202   -1.0862   -0.0724 C   0  0  0  0  0  0  0  0  0  0  0  0
    9.2343   -1.6546   -1.2704 N   0  0  0  0  0  0  0  0  0  0  0  0
    9.7372   -2.9424   -1.5763 C   0  0  0  0  0  0  0  0  0  0  0  0
    9.1406   -3.5312   -2.8228 C   0  0  0  0  0  0  0  0  0  0  0  0
    9.3847   -2.7225   -3.9468 O   0  0  0  0  0  0  0  0  0  0  0  0
    7.8052   -1.4931   -1.2842 C   0  0  0  0  0  0  0  0  0  0  0  0
    7.5428    0.0012   -1.2306 C   0  0  0  0  0  0  0  0  0  0  0  0
    1.8217    1.6218    1.3776 N   0  0  0  0  0  0  0  0  0  0  0  0
  -11.4925   -2.4007   -0.3311 H   0  0  0  0  0  0  0  0  0  0  0  0
  -11.8830   -0.6938   -0.6086 H   0  0  0  0  0  0  0  0  0  0  0  0
  -12.8996   -1.6650    0.5081 H   0  0  0  0  0  0  0  0  0  0  0  0
  -11.3013    0.9415    1.1387 H   0  0  0  0  0  0  0  0  0  0  0  0
   -9.9547    0.4011    2.1990 H   0  0  0  0  0  0  0  0  0  0  0  0
  -10.0932    0.6155   -0.8621 H   0  0  0  0  0  0  0  0  0  0  0  0
   -9.0492    1.4555    0.2712 H   0  0  0  0  0  0  0  0  0  0  0  0
   -8.0960   -2.6523    0.3591 H   0  0  0  0  0  0  0  0  0  0  0  0
   -9.4969   -2.3680   -0.6961 H   0  0  0  0  0  0  0  0  0  0  0  0
  -10.3382   -3.1075    1.3163 H   0  0  0  0  0  0  0  0  0  0  0  0
   -9.3738   -2.0370    2.3501 H   0  0  0  0  0  0  0  0  0  0  0  0
   -7.9712   -0.5507   -2.5756 H   0  0  0  0  0  0  0  0  0  0  0  0
   -5.7900   -0.0194   -3.6338 H   0  0  0  0  0  0  0  0  0  0  0  0
   -4.0698    0.5116    0.1613 H   0  0  0  0  0  0  0  0  0  0  0  0
   -2.3023   -0.0201   -0.8561 H   0  0  0  0  0  0  0  0  0  0  0  0
   -1.2843    1.3396   -3.3785 H   0  0  0  0  0  0  0  0  0  0  0  0
   -0.7598   -1.1223   -3.4916 H   0  0  0  0  0  0  0  0  0  0  0  0
    0.5930    0.0252   -3.5630 H   0  0  0  0  0  0  0  0  0  0  0  0
   -0.2373   -1.7467   -1.2056 H   0  0  0  0  0  0  0  0  0  0  0  0
    1.1815   -1.8777   -2.2827 H   0  0  0  0  0  0  0  0  0  0  0  0
    1.4893   -0.7975    0.1122 H   0  0  0  0  0  0  0  0  0  0  0  0
    2.2139    0.0136   -1.3004 H   0  0  0  0  0  0  0  0  0  0  0  0
    0.4104    2.3389   -2.0852 H   0  0  0  0  0  0  0  0  0  0  0  0
   -1.0116    2.3603   -1.0335 H   0  0  0  0  0  0  0  0  0  0  0  0
   -1.4118    1.9410    0.9531 H   0  0  0  0  0  0  0  0  0  0  0  0
   -0.7062    3.0145    5.8649 H   0  0  0  0  0  0  0  0  0  0  0  0
   -0.6926    4.5354    4.9227 H   0  0  0  0  0  0  0  0  0  0  0  0
    3.5880    2.6320    4.0143 H   0  0  0  0  0  0  0  0  0  0  0  0
    3.5161   -0.0870    1.6265 H   0  0  0  0  0  0  0  0  0  0  0  0
    5.4248   -0.7707    0.3603 H   0  0  0  0  0  0  0  0  0  0  0  0
    7.6273    2.6012    1.6694 H   0  0  0  0  0  0  0  0  0  0  0  0
    5.6791    3.3785    2.9759 H   0  0  0  0  0  0  0  0  0  0  0  0
    8.4817    1.4320    0.0376 H   0  0  0  0  0  0  0  0  0  0  0  0
    8.1916   -1.3090    1.2835 H   0  0  0  0  0  0  0  0  0  0  0  0
    9.2775    0.0461    1.6753 H   0  0  0  0  0  0  0  0  0  0  0  0
   10.4258   -1.8621    0.4095 H   0  0  0  0  0  0  0  0  0  0  0  0
   10.4976   -0.2781   -0.3957 H   0  0  0  0  0  0  0  0  0  0  0  0
    9.4985   -3.6324   -0.7372 H   0  0  0  0  0  0  0  0  0  0  0  0
   10.8366   -2.8923   -1.7387 H   0  0  0  0  0  0  0  0  0  0  0  0
    9.6429   -4.5060   -3.0841 H   0  0  0  0  0  0  0  0  0  0  0  0
    8.0569   -3.6709   -2.7494 H   0  0  0  0  0  0  0  0  0  0  0  0
   10.3453   -2.5200   -4.0128 H   0  0  0  0  0  0  0  0  0  0  0  0
    7.3993   -1.8930   -2.2106 H   0  0  0  0  0  0  0  0  0  0  0  0
    7.3154   -1.9556   -0.4281 H   0  0  0  0  0  0  0  0  0  0  0  0
    8.2735    0.5008   -1.9391 H   0  0  0  0  0  0  0  0  0  0  0  0
    6.5022    0.2393   -1.5470 H   0  0  0  0  0  0  0  0  0  0  0  0
  1  2  1  0
  2  3  1  0
  3  4  1  0
  4  5  1  0
  5  6  1  0
  6  7  1  0
  5  8  1  0
  8  9  2  0
  9 10  1  0
 10 11  2  0
 11 12  1  0
 12 13  2  0
 13 14  1  0
 14 15  1  0
 14 16  1  0
 14 17  1  0
 11 18  1  0
 18 19  2  0
 18 20  1  0
 20 21  1  0
 21 22  1  0
 22 23  1  0
 23 24  1  0
 24 25  1  0
 25 26  1  0
 25 27  1  0
 27 28  2  0
 28 29  1  0
 29 30  2  0
 30 31  1  0
 31 32  1  0
 31 33  2  0
 30 34  1  0
 34 35  1  0
 35 36  1  0
 36 37  2  0
 37 38  1  0
 38 39  2  0
 39 40  1  0
 40 41  2  0
 39 42  1  0
 42 43  1  0
 43 44  1  0
 44 45  1  0
 45 46  1  0
 46 47  1  0
 47 48  1  0
 45 49  1  0
 49 50  1  0
 34 51  2  0
  7  2  1  0
 13  8  1  0
 26 21  1  0
 51 27  1  0
 41 36  1  0
 50 42  1  0
  1 52  1  0
  1 53  1  0
  1 54  1  0
  3 55  1  0
  3 56  1  0
  4 57  1  0
  4 58  1  0
  6 59  1  0
  6 60  1  0
  7 61  1  0
  7 62  1  0
  9 63  1  0
 10 64  1  0
 12 65  1  0
 20 66  1  0
 21 67  1  6
 22 68  1  0
 22 69  1  0
 23 70  1  0
 23 71  1  0
 24 72  1  0
 24 73  1  0
 26 74  1  0
 26 75  1  0
 28 76  1  0
 32 77  1  0
 32 78  1  0
 35 79  1  0
 37 80  1  0
 38 81  1  0
 40 82  1  0
 41 83  1  0
 42 84  1  0
 43 85  1  0
 43 86  1  0
 44 87  1  0
 44 88  1  0
 46 89  1  0
 46 90  1  0
 47 91  1  0
 47 92  1  0
 48 93  1  0
 49 94  1  0
 49 95  1  0
 50 96  1  0
 50 97  1  0
M  END
$$$$
[H]c1nc(Oc2c([H])c([H])c(N([H])C(=O)N([H])c3c([H])c([H])c(C([H])([H])N4C([H])([H])C([H])([H])N(C([H])([H])C([H])([H])[H])C([H])([H])C4([H])[H])c(C(F)(F)F)c3[H])c([H])c2[H])c([H])c(N([H])C([H])([H])[H])n1
     RDKit          3D

 68 71  0  0  0  0  0  0  0  0999 V2000
  -10.2990   -0.3201   -0.2443 C   0  0  0  0  0  0  0  0  0  0  0  0
   -9.0487    0.5002   -0.4280 C   0  0  0  0  0  0  0  0  0  0  0  0
   -8.1793   -0.0359   -1.4572 N   0  0  0  0  0  0  0  0  0  0  0  0
   -7.0305    0.8062   -1.5517 C   0  0  0  0  0  0  0  0  0  0  0  0
   -5.7154    0.1130   -1.2911 C   0  0  0  0  0  0  0  0  0  0  0  0
   -5.7379   -0.8228   -0.2229 N   0  0  0  0  0  0  0  0  0  0  0  0
   -5.1553   -0.4373    1.0060 C   0  0  0  0  0  0  0  0  0  0  0  0
   -3.7153   -0.2169    1.0542 C   0  0  0  0  0  0  0  0  0  0  0  0
   -2.9459   -0.4458   -0.0457 C   0  0  0  0  0  0  0  0  0  0  0  0
   -1.5554   -0.2549    0.0222 C   0  0  0  0  0  0  0  0  0  0  0  0
   -0.9188    0.1543    1.1522 C   0  0  0  0  0  0  0  0  0  0  0  0
    0.4451    0.3547    1.3623 N   0  0  0  0  0  0  0  0  0  0  0  0
    1.4499   -0.2261    0.5465 C   0  0  0  0  0  0  0  0  0  0  0  0
    1.1958   -0.9699   -0.4220 O   0  0  0  0  0  0  0  0  0  0  0  0
    2.8063    0.0526    0.8476 N   0  0  0  0  0  0  0  0  0  0  0  0
    3.8841   -0.4730    0.1219 C   0  0  0  0  0  0  0  0  0  0  0  0
    5.0696    0.2695    0.1595 C   0  0  0  0  0  0  0  0  0  0  0  0
    6.1724   -0.1959   -0.5017 C   0  0  0  0  0  0  0  0  0  0  0  0
    6.1984   -1.3743   -1.2203 C   0  0  0  0  0  0  0  0  0  0  0  0
    7.3559   -1.8175   -1.8874 O   0  0  0  0  0  0  0  0  0  0  0  0
    8.4788   -0.9936   -1.7796 C   0  0  0  0  0  0  0  0  0  0  0  0
    9.3306   -1.0781   -0.6992 C   0  0  0  0  0  0  0  0  0  0  0  0
   10.4383   -0.2312   -0.6411 C   0  0  0  0  0  0  0  0  0  0  0  0
   11.3426   -0.2777    0.4449 N   0  0  0  0  0  0  0  0  0  0  0  0
   12.4721    0.6190    0.4560 C   0  0  0  0  0  0  0  0  0  0  0  0
   10.6148    0.6290   -1.6528 N   0  0  0  0  0  0  0  0  0  0  0  0
    9.7904    0.7181   -2.7086 C   0  0  0  0  0  0  0  0  0  0  0  0
    8.7293   -0.1014   -2.7527 N   0  0  0  0  0  0  0  0  0  0  0  0
    5.0337   -2.0940   -1.2508 C   0  0  0  0  0  0  0  0  0  0  0  0
    3.8935   -1.6380   -0.5818 C   0  0  0  0  0  0  0  0  0  0  0  0
   -1.7503    0.3770    2.2572 C   0  0  0  0  0  0  0  0  0  0  0  0
   -3.1090    0.2069    2.2445 C   0  0  0  0  0  0  0  0  0  0  0  0
   -3.9076    0.4692    3.4596 C   0  0  0  0  0  0  0  0  0  0  0  0
   -3.0267    0.8724    4.4765 F   0  0  0  0  0  0  0  0  0  0  0  0
   -4.5531   -0.6222    3.9660 F   0  0  0  0  0  0  0  0  0  0  0  0
   -4.7451    1.5847    3.3219 F   0  0  0  0  0  0  0  0  0  0  0  0
   -6.9874   -1.4884    0.0062 C   0  0  0  0  0  0  0  0  0  0  0  0
   -7.8513   -1.4181   -1.2341 C   0  0  0  0  0  0  0  0  0  0  0  0
  -10.0056   -1.2236    0.3376 H   0  0  0  0  0  0  0  0  0  0  0  0
  -11.0156    0.2828    0.3494 H   0  0  0  0  0  0  0  0  0  0  0  0
  -10.7451   -0.5533   -1.2099 H   0  0  0  0  0  0  0  0  0  0  0  0
   -9.3902    1.5064   -0.7967 H   0  0  0  0  0  0  0  0  0  0  0  0
   -8.5282    0.6942    0.5188 H   0  0  0  0  0  0  0  0  0  0  0  0
   -6.9427    1.2787   -2.5729 H   0  0  0  0  0  0  0  0  0  0  0  0
   -7.0852    1.6803   -0.8419 H   0  0  0  0  0  0  0  0  0  0  0  0
   -5.3787   -0.3639   -2.2424 H   0  0  0  0  0  0  0  0  0  0  0  0
   -4.9782    0.9378   -1.0987 H   0  0  0  0  0  0  0  0  0  0  0  0
   -5.3596   -1.2873    1.7313 H   0  0  0  0  0  0  0  0  0  0  0  0
   -5.7610    0.3966    1.4141 H   0  0  0  0  0  0  0  0  0  0  0  0
   -3.3300   -0.7898   -1.0118 H   0  0  0  0  0  0  0  0  0  0  0  0
   -0.9627   -0.4277   -0.8741 H   0  0  0  0  0  0  0  0  0  0  0  0
    0.7597    0.9698    2.1611 H   0  0  0  0  0  0  0  0  0  0  0  0
    3.0013    0.6928    1.6707 H   0  0  0  0  0  0  0  0  0  0  0  0
    5.0877    1.2125    0.7209 H   0  0  0  0  0  0  0  0  0  0  0  0
    7.0847    0.3965   -0.4601 H   0  0  0  0  0  0  0  0  0  0  0  0
    9.1416   -1.7902    0.0899 H   0  0  0  0  0  0  0  0  0  0  0  0
   11.2010   -0.9471    1.2284 H   0  0  0  0  0  0  0  0  0  0  0  0
   12.6067    1.1140   -0.5277 H   0  0  0  0  0  0  0  0  0  0  0  0
   13.4237    0.0623    0.6491 H   0  0  0  0  0  0  0  0  0  0  0  0
   12.3043    1.3858    1.2464 H   0  0  0  0  0  0  0  0  0  0  0  0
    9.9776    1.4417   -3.5159 H   0  0  0  0  0  0  0  0  0  0  0  0
    5.0003   -3.0327   -1.8043 H   0  0  0  0  0  0  0  0  0  0  0  0
    3.0130   -2.2945   -0.6480 H   0  0  0  0  0  0  0  0  0  0  0  0
   -1.3081    0.7006    3.1773 H   0  0  0  0  0  0  0  0  0  0  0  0
   -7.5417   -1.0573    0.8567 H   0  0  0  0  0  0  0  0  0  0  0  0
   -6.7530   -2.5420    0.2777 H   0  0  0  0  0  0  0  0  0  0  0  0
   -7.2335   -1.7544   -2.0856 H   0  0  0  0  0  0  0  0  0  0  0  0
   -8.7522   -2.0077   -1.0717 H   0  0  0  0  0  0  0  0  0  0  0  0
  1  2  1  0
  2  3  1  0
  3  4  1  0
  4  5  1  0
  5  6  1  0
  6  7  1  0
  7  8  1  0
  8  9  2  0
  9 10  1  0
 10 11  2  0
 11 12  1  0
 12 13  1  0
 13 14  2  0
 13 15  1  0
 15 16  1  0
 16 17  2  0
 17 18  1  0
 18 19  2  0
 19 20  1  0
 20 21  1  0
 21 22  2  0
 22 23  1  0
 23 24  1  0
 24 25  1  0
 23 26  2  0
 26 27  1  0
 27 28  2  0
 19 29  1  0
 29 30  2  0
 11 31  1  0
 31 32  2  0
 32 33  1  0
 33 34  1  0
 33 35  1  0
 33 36  1  0
  6 37  1  0
 37 38  1  0
 38  3  1  0
 32  8  1  0
 30 16  1  0
 28 21  1  0
  1 39  1  0
  1 40  1  0
  1 41  1  0
  2 42  1  0
  2 43  1  0
  4 44  1  0
  4 45  1  0
  5 46  1  0
  5 47  1  0
  7 48  1  0
  7 49  1  0
  9 50  1  0
 10 51  1  0
 12 52  1  0
 15 53  1  0
 17 54  1  0
 18 55  1  0
 22 56  1  0
 24 57  1  0
 25 58  1  0
 25 59  1  0
 25 60  1  0
 27 61  1  0
 29 62  1  0
 30 63  1  0
 31 64  1  0
 37 65  1  0
 37 66  1  0
 38 67  1  0
 38 68  1  0
M  END
$$$$
[H]OC([H])([H])c1c([H])c([H])c(-c2nc(C3([H])OC([H])([H])C([H])([H])N([H])C3([H])[H])c([H])nc2N([H])[H])c(F)c1[H]
     RDKit          3D

 39 41  0  0  0  0  0  0  0  0999 V2000
    1.0631   -2.6723    1.4519 N   0  0  0  0  0  0  0  0  0  0  0  0
    0.0739   -1.8506    0.8560 C   0  0  0  0  0  0  0  0  0  0  0  0
   -1.2331   -2.1743    0.9068 N   0  0  0  0  0  0  0  0  0  0  0  0
   -2.1882   -1.4138    0.3520 C   0  0  0  0  0  0  0  0  0  0  0  0
   -1.7728   -0.2478   -0.2957 C   0  0  0  0  0  0  0  0  0  0  0  0
   -0.4657    0.0620   -0.3383 N   0  0  0  0  0  0  0  0  0  0  0  0
    0.4983   -0.6911    0.2132 C   0  0  0  0  0  0  0  0  0  0  0  0
    1.9183   -0.3671    0.1707 C   0  0  0  0  0  0  0  0  0  0  0  0
    2.6937   -0.3018    1.3129 C   0  0  0  0  0  0  0  0  0  0  0  0
    4.0362    0.0048    1.2511 C   0  0  0  0  0  0  0  0  0  0  0  0
    4.6730    0.2623    0.0411 C   0  0  0  0  0  0  0  0  0  0  0  0
    6.1237    0.5841    0.0130 C   0  0  0  0  0  0  0  0  0  0  0  0
    6.4101    1.9171    0.2092 O   0  0  0  0  0  0  0  0  0  0  0  0
    3.9045    0.1990   -1.1010 C   0  0  0  0  0  0  0  0  0  0  0  0
    2.5605   -0.1090   -1.0282 C   0  0  0  0  0  0  0  0  0  0  0  0
    1.8210   -0.1668   -2.1622 F   0  0  0  0  0  0  0  0  0  0  0  0
   -2.7529    0.6639   -0.9434 C   0  0  0  0  0  0  0  0  0  0  0  0
   -3.2783    1.6761    0.0419 C   0  0  0  0  0  0  0  0  0  0  0  0
   -4.7044    1.9531   -0.1431 N   0  0  0  0  0  0  0  0  0  0  0  0
   -5.3389    0.6453   -0.0159 C   0  0  0  0  0  0  0  0  0  0  0  0
   -4.9285   -0.1708   -1.1908 C   0  0  0  0  0  0  0  0  0  0  0  0
   -3.6869    0.0214   -1.6923 O   0  0  0  0  0  0  0  0  0  0  0  0
    1.7714   -3.1215    0.8372 H   0  0  0  0  0  0  0  0  0  0  0  0
    1.1442   -2.8692    2.4656 H   0  0  0  0  0  0  0  0  0  0  0  0
   -3.2374   -1.6713    0.3914 H   0  0  0  0  0  0  0  0  0  0  0  0
    2.2391   -0.4974    2.2913 H   0  0  0  0  0  0  0  0  0  0  0  0
    4.6672    0.0629    2.1334 H   0  0  0  0  0  0  0  0  0  0  0  0
    6.5110    0.2364   -0.9867 H   0  0  0  0  0  0  0  0  0  0  0  0
    6.6366   -0.0832    0.7658 H   0  0  0  0  0  0  0  0  0  0  0  0
    5.6154    2.4517   -0.0060 H   0  0  0  0  0  0  0  0  0  0  0  0
    4.4088    0.4016   -2.0512 H   0  0  0  0  0  0  0  0  0  0  0  0
   -2.1510    1.2839   -1.6796 H   0  0  0  0  0  0  0  0  0  0  0  0
   -2.7335    2.6373    0.0229 H   0  0  0  0  0  0  0  0  0  0  0  0
   -3.1887    1.2525    1.0726 H   0  0  0  0  0  0  0  0  0  0  0  0
   -4.8303    2.2852   -1.1367 H   0  0  0  0  0  0  0  0  0  0  0  0
   -5.0049    0.2008    0.9231 H   0  0  0  0  0  0  0  0  0  0  0  0
   -6.4458    0.7528   -0.0083 H   0  0  0  0  0  0  0  0  0  0  0  0
   -5.6557    0.0911   -2.0189 H   0  0  0  0  0  0  0  0  0  0  0  0
   -5.1727   -1.2375   -0.9503 H   0  0  0  0  0  0  0  0  0  0  0  0
  1  2  1  0
  2  3  2  0
  3  4  1  0
  4  5  2  0
  5  6  1  0
  6  7  2  0
  7  8  1  0
  8  9  2  0
  9 10  1  0
 10 11  2  0
 11 12  1  0
 12 13  1  0
 11 14  1  0
 14 15  2  0
 15 16  1  0
  5 17  1  0
 17 18  1  0
 18 19  1  0
 19 20  1  0
 20 21  1  0
 21 22  1  0
  7  2  1  0
 15  8  1  0
 22 17  1  0
  1 23  1  0
  1 24  1  0
  4 25  1  0
  9 26  1  0
 10 27  1  0
 12 28  1  0
 12 29  1  0
 13 30  1  0
 14 31  1  0
 17 32  1  0
 18 33  1  0
 18 34  1  0
 19 35  1  0
 20 36  1  0
 20 37  1  0
 21 38  1  0
 21 39  1  0
M  END
$$$$
[H]c1nn(C([H])([H])[H])c([H])c1N([H])c1nc([H])c2c([H])c(-c3c(Cl)c([H])c([H])c([H])c3Cl)c(=O)n(C([H])([H])[H])c2n1
     RDKit          3D

 41 44  0  0  0  0  0  0  0  0999 V2000
   -7.0328   -1.6734    0.7735 C   0  0  0  0  0  0  0  0  0  0  0  0
   -6.2790   -0.4765    0.3582 N   0  0  0  0  0  0  0  0  0  0  0  0
   -4.9425   -0.3617    0.2528 C   0  0  0  0  0  0  0  0  0  0  0  0
   -4.6210    0.9047   -0.1619 C   0  0  0  0  0  0  0  0  0  0  0  0
   -3.3764    1.5256   -0.4217 N   0  0  0  0  0  0  0  0  0  0  0  0
   -2.1497    0.8386   -0.2700 C   0  0  0  0  0  0  0  0  0  0  0  0
   -1.9952   -0.4239    0.1181 N   0  0  0  0  0  0  0  0  0  0  0  0
   -0.7976   -1.0176    0.2420 C   0  0  0  0  0  0  0  0  0  0  0  0
    0.3796   -0.3339   -0.0339 C   0  0  0  0  0  0  0  0  0  0  0  0
    1.6253   -0.9110    0.0823 C   0  0  0  0  0  0  0  0  0  0  0  0
    2.7742   -0.1992   -0.2010 C   0  0  0  0  0  0  0  0  0  0  0  0
    4.1145   -0.7377   -0.1019 C   0  0  0  0  0  0  0  0  0  0  0  0
    4.8459   -0.6527    1.0793 C   0  0  0  0  0  0  0  0  0  0  0  0
    4.0534    0.1391    2.4296 Cl  0  0  0  0  0  0  0  0  0  0  0  0
    6.1251   -1.1635    1.1832 C   0  0  0  0  0  0  0  0  0  0  0  0
    6.7230   -1.7756    0.1206 C   0  0  0  0  0  0  0  0  0  0  0  0
    6.0198   -1.8745   -1.0666 C   0  0  0  0  0  0  0  0  0  0  0  0
    4.7403   -1.3609   -1.1623 C   0  0  0  0  0  0  0  0  0  0  0  0
    3.8748   -1.5007   -2.6771 Cl  0  0  0  0  0  0  0  0  0  0  0  0
    2.5963    1.1063   -0.6014 C   0  0  0  0  0  0  0  0  0  0  0  0
    3.6530    1.7720   -0.8654 O   0  0  0  0  0  0  0  0  0  0  0  0
    1.3757    1.6501   -0.7084 N   0  0  0  0  0  0  0  0  0  0  0  0
    1.2490    3.0214   -1.1321 C   0  0  0  0  0  0  0  0  0  0  0  0
    0.2310    0.9743   -0.4367 C   0  0  0  0  0  0  0  0  0  0  0  0
   -0.9720    1.4965   -0.5379 N   0  0  0  0  0  0  0  0  0  0  0  0
   -5.8568    1.5616   -0.3043 C   0  0  0  0  0  0  0  0  0  0  0  0
   -6.7890    0.6810    0.0208 N   0  0  0  0  0  0  0  0  0  0  0  0
   -8.0140   -1.3999    1.1809 H   0  0  0  0  0  0  0  0  0  0  0  0
   -7.0917   -2.3148   -0.1330 H   0  0  0  0  0  0  0  0  0  0  0  0
   -6.4183   -2.1848    1.5352 H   0  0  0  0  0  0  0  0  0  0  0  0
   -4.2609   -1.1771    0.4737 H   0  0  0  0  0  0  0  0  0  0  0  0
   -3.3502    2.5469   -0.7435 H   0  0  0  0  0  0  0  0  0  0  0  0
   -0.6916   -2.0467    0.5594 H   0  0  0  0  0  0  0  0  0  0  0  0
    1.7265   -1.9368    0.3989 H   0  0  0  0  0  0  0  0  0  0  0  0
    6.6036   -1.0405    2.1568 H   0  0  0  0  0  0  0  0  0  0  0  0
    7.7231   -2.1605    0.2447 H   0  0  0  0  0  0  0  0  0  0  0  0
    6.5140   -2.3702   -1.9142 H   0  0  0  0  0  0  0  0  0  0  0  0
    0.4245    3.1813   -1.8537 H   0  0  0  0  0  0  0  0  0  0  0  0
    1.0104    3.6930   -0.2617 H   0  0  0  0  0  0  0  0  0  0  0  0
    2.1948    3.4169   -1.5635 H   0  0  0  0  0  0  0  0  0  0  0  0
   -5.9392    2.5848   -0.6216 H   0  0  0  0  0  0  0  0  0  0  0  0
  1  2  1  0
  2  3  1  0
  3  4  2  0
  4  5  1  0
  5  6  1  0
  6  7  2  0
  7  8  1  0
  8  9  2  0
  9 10  1  0
 10 11  2  0
 11 12  1  0
 12 13  2  0
 13 14  1  0
 13 15  1  0
 15 16  2  0
 16 17  1  0
 17 18  2  0
 18 19  1  0
 11 20  1  0
 20 21  2  0
 20 22  1  0
 22 23  1  0
 22 24  1  0
 24 25  2  0
  4 26  1  0
 26 27  2  0
 27  2  1  0
 25  6  1  0
 24  9  1  0
 18 12  1  0
  1 28  1  0
  1 29  1  0
  1 30  1  0
  3 31  1  0
  5 32  1  0
  8 33  1  0
 10 34  1  0
 15 35  1  0
 16 36  1  0
 17 37  1  0
 23 38  1  0
 23 39  1  0
 23 40  1  0
 26 41  1  0
M  END
$$$$
[H]c1nc2c([H])c([H])c(N3C([H])([H])C([H])([H])N([H])C([H])([H])[C@@]3([H])F)nn2c1-c1c([H])c([H])c(C#N)c([H])c1[H]
     RDKit          3D

 39 42  0  0  0  0  0  0  0  0999 V2000
   -3.6716    0.1733    2.3482 F   0  0  0  0  0  0  0  0  0  0  0  0
   -3.7542    0.2212    0.9447 C   0  0  2  0  0  0  0  0  0  0  0  0
   -4.6940   -0.8947    0.5680 C   0  0  0  0  0  0  0  0  0  0  0  0
   -4.5640   -1.4283   -0.7312 N   0  0  0  0  0  0  0  0  0  0  0  0
   -3.3244   -1.1420   -1.3821 C   0  0  0  0  0  0  0  0  0  0  0  0
   -2.2174   -1.2042   -0.3189 C   0  0  0  0  0  0  0  0  0  0  0  0
   -2.4186   -0.0097    0.4674 N   0  0  0  0  0  0  0  0  0  0  0  0
   -1.3634    0.8761    0.7354 C   0  0  0  0  0  0  0  0  0  0  0  0
   -1.6293    2.0850    1.3658 C   0  0  0  0  0  0  0  0  0  0  0  0
   -0.6332    2.9882    1.6570 C   0  0  0  0  0  0  0  0  0  0  0  0
    0.6597    2.6476    1.2959 C   0  0  0  0  0  0  0  0  0  0  0  0
    1.8187    3.2990    1.4395 N   0  0  0  0  0  0  0  0  0  0  0  0
    2.7899    2.5428    0.9239 C   0  0  0  0  0  0  0  0  0  0  0  0
    2.2255    1.3495    0.4260 C   0  0  0  0  0  0  0  0  0  0  0  0
    3.0009    0.2927   -0.2070 C   0  0  0  0  0  0  0  0  0  0  0  0
    4.3742    0.3937   -0.3645 C   0  0  0  0  0  0  0  0  0  0  0  0
    5.1337   -0.6095   -0.9689 C   0  0  0  0  0  0  0  0  0  0  0  0
    4.5229   -1.7357   -1.4270 C   0  0  0  0  0  0  0  0  0  0  0  0
    3.1723   -1.8560   -1.2823 C   0  0  0  0  0  0  0  0  0  0  0  0
    2.4117   -0.8420   -0.6724 C   0  0  0  0  0  0  0  0  0  0  0  0
    5.3257   -2.7686   -2.0524 C   0  0  0  0  0  0  0  0  0  0  0  0
    5.9512   -3.6034   -2.5467 N   0  0  0  0  0  0  0  0  0  0  0  0
    0.9112    1.4512    0.6737 N   0  0  0  0  0  0  0  0  0  0  0  0
   -0.0847    0.6220    0.4187 N   0  0  0  0  0  0  0  0  0  0  0  0
   -4.1899    1.1644    0.6038 H   0  0  0  0  0  0  0  0  0  0  0  0
   -4.7022   -1.6987    1.3649 H   0  0  0  0  0  0  0  0  0  0  0  0
   -5.7377   -0.4656    0.6503 H   0  0  0  0  0  0  0  0  0  0  0  0
   -4.6656   -2.4811   -0.6681 H   0  0  0  0  0  0  0  0  0  0  0  0
   -3.3779   -0.1186   -1.8191 H   0  0  0  0  0  0  0  0  0  0  0  0
   -3.1003   -1.8315   -2.2112 H   0  0  0  0  0  0  0  0  0  0  0  0
   -2.4250   -2.1161    0.2717 H   0  0  0  0  0  0  0  0  0  0  0  0
   -1.2198   -1.2285   -0.8028 H   0  0  0  0  0  0  0  0  0  0  0  0
   -2.6654    2.2932    1.6188 H   0  0  0  0  0  0  0  0  0  0  0  0
   -0.8308    3.9251    2.1444 H   0  0  0  0  0  0  0  0  0  0  0  0
    3.8637    2.7608    0.8687 H   0  0  0  0  0  0  0  0  0  0  0  0
    4.8674    1.2728   -0.0094 H   0  0  0  0  0  0  0  0  0  0  0  0
    6.1971   -0.5231   -1.0869 H   0  0  0  0  0  0  0  0  0  0  0  0
    2.6950   -2.7596   -1.6518 H   0  0  0  0  0  0  0  0  0  0  0  0
    1.3486   -1.0417   -0.6099 H   0  0  0  0  0  0  0  0  0  0  0  0
  1  2  1  0
  2  3  1  0
  3  4  1  0
  4  5  1  0
  5  6  1  0
  6  7  1  0
  7  8  1  0
  8  9  1  0
  9 10  2  0
 10 11  1  0
 11 12  2  0
 12 13  1  0
 13 14  2  0
 14 15  1  0
 15 16  2  0
 16 17  1  0
 17 18  2  0
 18 19  1  0
 19 20  2  0
 18 21  1  0
 21 22  3  0
 14 23  1  0
 23 24  1  0
  7  2  1  0
 24  8  2  0
 23 11  1  0
 20 15  1  0
  2 25  1  1
  3 26  1  0
  3 27  1  0
  4 28  1  0
  5 29  1  0
  5 30  1  0
  6 31  1  0
  6 32  1  0
  9 33  1  0
 10 34  1  0
 13 35  1  0
 16 36  1  0
 17 37  1  0
 19 38  1  0
 20 39  1  0
M  END
$$$$
[H]c1nc(C([H])([H])[H])c([H])c([H])c1-c1nc(N([H])S(=O)(=O)C([H])([H])[H])sc1[H]
     RDKit          3D

 28 29  0  0  0  0  0  0  0  0999 V2000
    5.6837    0.3777    0.2850 C   0  0  0  0  0  0  0  0  0  0  0  0
    4.2072    0.1498    0.1512 C   0  0  0  0  0  0  0  0  0  0  0  0
    3.6852   -0.7468   -0.7558 C   0  0  0  0  0  0  0  0  0  0  0  0
    2.3047   -0.9442   -0.8643 C   0  0  0  0  0  0  0  0  0  0  0  0
    1.4657   -0.2333   -0.0548 C   0  0  0  0  0  0  0  0  0  0  0  0
    2.0257    0.6499    0.8355 C   0  0  0  0  0  0  0  0  0  0  0  0
    3.3475    0.8296    0.9294 N   0  0  0  0  0  0  0  0  0  0  0  0
   -0.0186   -0.4129   -0.1370 C   0  0  0  0  0  0  0  0  0  0  0  0
   -0.5560   -1.3027   -1.0360 C   0  0  0  0  0  0  0  0  0  0  0  0
   -2.2301   -1.1355   -0.7388 S   0  0  0  0  0  0  0  0  0  0  0  0
   -2.1443    0.0409    0.4949 C   0  0  0  0  0  0  0  0  0  0  0  0
   -3.2217    0.6679    1.2339 N   0  0  0  0  0  0  0  0  0  0  0  0
   -4.8208    0.2013    0.8577 S   0  0  0  0  0  0  0  0  0  0  0  0
   -5.1396    0.6157   -0.8453 C   0  0  0  0  0  0  0  0  0  0  0  0
   -5.0264   -1.2858    1.0885 O   0  0  0  0  0  0  0  0  0  0  0  0
   -5.8252    0.9073    1.6982 O   0  0  0  0  0  0  0  0  0  0  0  0
   -0.8487    0.2445    0.6159 N   0  0  0  0  0  0  0  0  0  0  0  0
    6.0561   -0.0107    1.2570 H   0  0  0  0  0  0  0  0  0  0  0  0
    6.2339    0.0189   -0.5838 H   0  0  0  0  0  0  0  0  0  0  0  0
    5.8077    1.4838    0.3307 H   0  0  0  0  0  0  0  0  0  0  0  0
    4.3409   -1.3119   -1.3985 H   0  0  0  0  0  0  0  0  0  0  0  0
    1.9485   -1.6483   -1.5805 H   0  0  0  0  0  0  0  0  0  0  0  0
    1.3822    1.2202    1.4827 H   0  0  0  0  0  0  0  0  0  0  0  0
   -0.0280   -1.9538   -1.7606 H   0  0  0  0  0  0  0  0  0  0  0  0
   -3.0444    1.3757    1.9673 H   0  0  0  0  0  0  0  0  0  0  0  0
   -5.8964   -0.0609   -1.2970 H   0  0  0  0  0  0  0  0  0  0  0  0
   -5.4753    1.6812   -0.8495 H   0  0  0  0  0  0  0  0  0  0  0  0
   -4.2136    0.5824   -1.4550 H   0  0  0  0  0  0  0  0  0  0  0  0
  1  2  1  0
  2  3  2  0
  3  4  1  0
  4  5  2  0
  5  6  1  0
  6  7  2  0
  5  8  1  0
  8  9  2  0
  9 10  1  0
 10 11  1  0
 11 12  1  0
 12 13  1  0
 13 14  1  0
 13 15  2  0
 13 16  2  0
 11 17  2  0
  7  2  1  0
 17  8  1  0
  1 18  1  0
  1 19  1  0
  1 20  1  0
  3 21  1  0
  4 22  1  0
  6 23  1  0
  9 24  1  0
 12 25  1  0
 14 26  1  0
 14 27  1  0
 14 28  1  0
M  END
$$$$
[H]c1c([H])c(N2C([H])([H])C([H])([H])C([H])(C([H])([H])OC([H])([H])[H])C2([H])[H])c([H])c([H])c1C(=O)SC([H])([H])F
     RDKit          3D

 37 38  0  0  0  0  0  0  0  0999 V2000
   -4.8857   -1.4788   -0.7688 C   0  0  0  0  0  0  0  0  0  0  0  0
   -5.1223   -0.1685   -0.4961 O   0  0  0  0  0  0  0  0  0  0  0  0
   -4.3150    0.5134    0.3123 C   0  0  0  0  0  0  0  0  0  0  0  0
   -2.8907    0.7004    0.0437 C   0  0  0  0  0  0  0  0  0  0  0  0
   -2.5197    1.3716   -1.2586 C   0  0  0  0  0  0  0  0  0  0  0  0
   -0.9966    1.3862   -1.1346 C   0  0  0  0  0  0  0  0  0  0  0  0
   -0.6767    0.2783   -0.2602 N   0  0  0  0  0  0  0  0  0  0  0  0
   -1.9323   -0.4143    0.1363 C   0  0  0  0  0  0  0  0  0  0  0  0
    0.6311   -0.0712    0.1402 C   0  0  0  0  0  0  0  0  0  0  0  0
    0.8062   -1.1519    0.9702 C   0  0  0  0  0  0  0  0  0  0  0  0
    2.0697   -1.5081    1.3712 C   0  0  0  0  0  0  0  0  0  0  0  0
    3.2213   -0.8242    0.9794 C   0  0  0  0  0  0  0  0  0  0  0  0
    3.0291    0.2455    0.1559 C   0  0  0  0  0  0  0  0  0  0  0  0
    1.7433    0.6217   -0.2625 C   0  0  0  0  0  0  0  0  0  0  0  0
    4.5311   -1.2406    1.4326 C   0  0  0  0  0  0  0  0  0  0  0  0
    4.4695   -2.2934    2.2278 O   0  0  0  0  0  0  0  0  0  0  0  0
    6.1151   -0.6208    1.1247 S   0  0  0  0  0  0  0  0  0  0  0  0
    6.3711    0.7613    0.0795 C   0  0  0  0  0  0  0  0  0  0  0  0
    7.7367    1.0912   -0.0248 F   0  0  0  0  0  0  0  0  0  0  0  0
   -5.7319   -1.9189   -1.4077 H   0  0  0  0  0  0  0  0  0  0  0  0
   -4.7357   -2.1381    0.0909 H   0  0  0  0  0  0  0  0  0  0  0  0
   -4.0258   -1.5781   -1.4997 H   0  0  0  0  0  0  0  0  0  0  0  0
   -4.7337    1.5714    0.5312 H   0  0  0  0  0  0  0  0  0  0  0  0
   -4.3608    0.0765    1.3849 H   0  0  0  0  0  0  0  0  0  0  0  0
   -2.5212    1.4845    0.8255 H   0  0  0  0  0  0  0  0  0  0  0  0
   -2.9324    2.3938   -1.3454 H   0  0  0  0  0  0  0  0  0  0  0  0
   -2.7986    0.7705   -2.1485 H   0  0  0  0  0  0  0  0  0  0  0  0
   -0.7350    2.3122   -0.5966 H   0  0  0  0  0  0  0  0  0  0  0  0
   -0.5114    1.2971   -2.1250 H   0  0  0  0  0  0  0  0  0  0  0  0
   -2.0543   -1.1780   -0.6082 H   0  0  0  0  0  0  0  0  0  0  0  0
   -1.8287   -0.7908    1.1759 H   0  0  0  0  0  0  0  0  0  0  0  0
   -0.0409   -1.7541    1.3326 H   0  0  0  0  0  0  0  0  0  0  0  0
    2.2062   -2.3674    2.0307 H   0  0  0  0  0  0  0  0  0  0  0  0
    3.8411    0.8370   -0.2011 H   0  0  0  0  0  0  0  0  0  0  0  0
    1.6497    1.4751   -0.9131 H   0  0  0  0  0  0  0  0  0  0  0  0
    5.9036    1.7286    0.4002 H   0  0  0  0  0  0  0  0  0  0  0  0
    6.0244    0.5810   -0.9653 H   0  0  0  0  0  0  0  0  0  0  0  0
  1  2  1  0
  2  3  1  0
  3  4  1  0
  4  5  1  0
  5  6  1  0
  6  7  1  0
  7  8  1  0
  7  9  1  0
  9 10  2  0
 10 11  1  0
 11 12  2  0
 12 13  1  0
 13 14  2  0
 12 15  1  0
 15 16  2  0
 15 17  1  0
 17 18  1  0
 18 19  1  0
  8  4  1  0
 14  9  1  0
  1 20  1  0
  1 21  1  0
  1 22  1  0
  3 23  1  0
  3 24  1  0
  4 25  1  0
  5 26  1  0
  5 27  1  0
  6 28  1  0
  6 29  1  0
  8 30  1  0
  8 31  1  0
 10 32  1  0
 11 33  1  0
 13 34  1  0
 14 35  1  0
 18 36  1  0
 18 37  1  0
M  END
$$$$
[H]c1c(C2([H])C([H])([H])C([H])([H])N(C([H])([H])C(=O)N(C([H])([H])[H])C([H])([H])[H])C([H])([H])C2([H])[H])c([H])c2c(C([H])(C([H])([H])[H])C([H])([H])[H])c(-c3c([H])c(C([H])([H])[H])c4nc(C(F)(F)F)nn4c3[H])n([H])c2c1[H]
     RDKit          3D

 71 75  0  0  0  0  0  0  0  0999 V2000
   -2.1051    2.5122    0.1540 C   0  0  0  0  0  0  0  0  0  0  0  0
   -2.8886    1.2742    0.4609 C   0  0  0  0  0  0  0  0  0  0  0  0
   -2.9071    1.0862    2.0261 C   0  0  0  0  0  0  0  0  0  0  0  0
   -2.3550    0.0309   -0.1095 C   0  0  0  0  0  0  0  0  0  0  0  0
   -3.0672   -1.1402   -0.4500 C   0  0  0  0  0  0  0  0  0  0  0  0
   -2.2096   -2.1012   -0.7384 N   0  0  0  0  0  0  0  0  0  0  0  0
   -0.9413   -1.6388   -0.6148 C   0  0  0  0  0  0  0  0  0  0  0  0
    0.2938   -2.2628   -0.7540 C   0  0  0  0  0  0  0  0  0  0  0  0
    1.4287   -1.5504   -0.4973 C   0  0  0  0  0  0  0  0  0  0  0  0
    1.4215   -0.2478   -0.1055 C   0  0  0  0  0  0  0  0  0  0  0  0
    0.1654    0.3556    0.0221 C   0  0  0  0  0  0  0  0  0  0  0  0
   -1.0118   -0.3308   -0.2254 C   0  0  0  0  0  0  0  0  0  0  0  0
    2.5827    0.5477    0.2710 C   0  0  0  0  0  0  0  0  0  0  0  0
    3.2522    1.3592   -0.7927 C   0  0  0  0  0  0  0  0  0  0  0  0
    4.4481    0.6525   -1.3073 C   0  0  0  0  0  0  0  0  0  0  0  0
    5.4870    0.3818   -0.3716 N   0  0  0  0  0  0  0  0  0  0  0  0
    6.3670    1.5549   -0.3206 C   0  0  0  0  0  0  0  0  0  0  0  0
    7.7302    1.2797    0.1388 C   0  0  0  0  0  0  0  0  0  0  0  0
    8.4344    2.3386    0.3766 O   0  0  0  0  0  0  0  0  0  0  0  0
    8.3747    0.0636    0.3484 N   0  0  0  0  0  0  0  0  0  0  0  0
    7.8760   -1.2291   -0.0412 C   0  0  0  0  0  0  0  0  0  0  0  0
    9.6856    0.0764    1.0407 C   0  0  0  0  0  0  0  0  0  0  0  0
    4.9583    0.2992    0.9960 C   0  0  0  0  0  0  0  0  0  0  0  0
    3.5750   -0.2602    1.0859 C   0  0  0  0  0  0  0  0  0  0  0  0
   -4.5348   -1.1124   -0.3392 C   0  0  0  0  0  0  0  0  0  0  0  0
   -5.2698   -1.9676    0.4391 C   0  0  0  0  0  0  0  0  0  0  0  0
   -6.6643   -1.8917    0.4575 C   0  0  0  0  0  0  0  0  0  0  0  0
   -7.4393   -2.7795    1.3304 C   0  0  0  0  0  0  0  0  0  0  0  0
   -7.3225   -0.9435   -0.3205 C   0  0  0  0  0  0  0  0  0  0  0  0
   -8.6446   -0.6301   -0.5103 N   0  0  0  0  0  0  0  0  0  0  0  0
   -8.7132    0.3878   -1.3834 C   0  0  0  0  0  0  0  0  0  0  0  0
   -7.4480    0.6808   -1.7120 N   0  0  0  0  0  0  0  0  0  0  0  0
   -6.6056   -0.1304   -1.0657 N   0  0  0  0  0  0  0  0  0  0  0  0
   -5.2536   -0.1845   -1.0976 C   0  0  0  0  0  0  0  0  0  0  0  0
   -9.9534    1.0846   -1.8857 C   0  0  0  0  0  0  0  0  0  0  0  0
  -10.0907    0.8137   -3.2103 F   0  0  0  0  0  0  0  0  0  0  0  0
   -9.6226    2.4420   -1.7862 F   0  0  0  0  0  0  0  0  0  0  0  0
  -11.0208    0.8035   -1.0990 F   0  0  0  0  0  0  0  0  0  0  0  0
   -1.6109    2.3911   -0.8266 H   0  0  0  0  0  0  0  0  0  0  0  0
   -1.4645    2.8712    0.9694 H   0  0  0  0  0  0  0  0  0  0  0  0
   -2.8806    3.3372   -0.0159 H   0  0  0  0  0  0  0  0  0  0  0  0
   -3.9353    1.4201    0.2368 H   0  0  0  0  0  0  0  0  0  0  0  0
   -3.9191    1.0185    2.4129 H   0  0  0  0  0  0  0  0  0  0  0  0
   -2.3887    1.9448    2.4609 H   0  0  0  0  0  0  0  0  0  0  0  0
   -2.3573    0.1253    2.2522 H   0  0  0  0  0  0  0  0  0  0  0  0
   -2.4822   -3.0849   -1.0218 H   0  0  0  0  0  0  0  0  0  0  0  0
    0.3070   -3.3015   -1.0683 H   0  0  0  0  0  0  0  0  0  0  0  0
    2.3750   -2.0625   -0.6233 H   0  0  0  0  0  0  0  0  0  0  0  0
    0.1369    1.3681    0.3385 H   0  0  0  0  0  0  0  0  0  0  0  0
    2.1929    1.3265    1.0071 H   0  0  0  0  0  0  0  0  0  0  0  0
    3.5993    2.3471   -0.3673 H   0  0  0  0  0  0  0  0  0  0  0  0
    2.5707    1.5618   -1.6418 H   0  0  0  0  0  0  0  0  0  0  0  0
    4.8610    1.3212   -2.1307 H   0  0  0  0  0  0  0  0  0  0  0  0
    4.1854   -0.2864   -1.8789 H   0  0  0  0  0  0  0  0  0  0  0  0
    6.3481    2.0886   -1.3058 H   0  0  0  0  0  0  0  0  0  0  0  0
    5.8941    2.2667    0.3862 H   0  0  0  0  0  0  0  0  0  0  0  0
    7.3083   -1.7660    0.6997 H   0  0  0  0  0  0  0  0  0  0  0  0
    7.3509   -1.1112   -1.0454 H   0  0  0  0  0  0  0  0  0  0  0  0
    8.7700   -1.8652   -0.3354 H   0  0  0  0  0  0  0  0  0  0  0  0
    9.8862   -0.9567    1.3619 H   0  0  0  0  0  0  0  0  0  0  0  0
   10.4646    0.5008    0.3716 H   0  0  0  0  0  0  0  0  0  0  0  0
    9.5017    0.6594    1.9587 H   0  0  0  0  0  0  0  0  0  0  0  0
    5.0013    1.3314    1.4614 H   0  0  0  0  0  0  0  0  0  0  0  0
    5.6345   -0.3083    1.6033 H   0  0  0  0  0  0  0  0  0  0  0  0
    3.5830   -1.3311    0.8573 H   0  0  0  0  0  0  0  0  0  0  0  0
    3.3191   -0.1997    2.1897 H   0  0  0  0  0  0  0  0  0  0  0  0
   -4.7391   -2.7294    1.0561 H   0  0  0  0  0  0  0  0  0  0  0  0
   -7.6441   -2.1990    2.2807 H   0  0  0  0  0  0  0  0  0  0  0  0
   -8.3602   -3.1793    0.9015 H   0  0  0  0  0  0  0  0  0  0  0  0
   -6.8044   -3.6270    1.6582 H   0  0  0  0  0  0  0  0  0  0  0  0
   -4.7154    0.5040   -1.7466 H   0  0  0  0  0  0  0  0  0  0  0  0
  1  2  1  0
  2  3  1  0
  2  4  1  0
  4  5  2  0
  5  6  1  0
  6  7  1  0
  7  8  2  0
  8  9  1  0
  9 10  2  0
 10 11  1  0
 11 12  2  0
 10 13  1  0
 13 14  1  0
 14 15  1  0
 15 16  1  0
 16 17  1  0
 17 18  1  0
 18 19  2  0
 18 20  1  0
 20 21  1  0
 20 22  1  0
 16 23  1  0
 23 24  1  0
  5 25  1  0
 25 26  1  0
 26 27  2  0
 27 28  1  0
 27 29  1  0
 29 30  2  0
 30 31  1  0
 31 32  2  0
 32 33  1  0
 33 34  1  0
 31 35  1  0
 35 36  1  0
 35 37  1  0
 35 38  1  0
 12  4  1  0
 24 13  1  0
 34 25  2  0
 12  7  1  0
 33 29  1  0
  1 39  1  0
  1 40  1  0
  1 41  1  0
  2 42  1  0
  3 43  1  0
  3 44  1  0
  3 45  1  0
  6 46  1  0
  8 47  1  0
  9 48  1  0
 11 49  1  0
 13 50  1  0
 14 51  1  0
 14 52  1  0
 15 53  1  0
 15 54  1  0
 17 55  1  0
 17 56  1  0
 21 57  1  0
 21 58  1  0
 21 59  1  0
 22 60  1  0
 22 61  1  0
 22 62  1  0
 23 63  1  0
 23 64  1  0
 24 65  1  0
 24 66  1  0
 26 67  1  0
 28 68  1  0
 28 69  1  0
 28 70  1  0
 34 71  1  0
M  END
$$$$
[H]c1c([H])c(C(=O)N([H])[H])c([H])c(-n2c([H])nc3c(N([H])[H])nc(N4C([H])([H])C([H])([H])C([H])([H])C4([H])C([H])(C([H])([H])[H])C([H])([H])[H])nc32)c1[H]
     RDKit          3D

 50 53  0  0  0  0  0  0  0  0999 V2000
   -3.8670    0.8909    1.2719 C   0  0  0  0  0  0  0  0  0  0  0  0
   -3.9907   -0.1208    0.1843 C   0  0  0  0  0  0  0  0  0  0  0  0
   -5.4638   -0.2980   -0.1599 C   0  0  0  0  0  0  0  0  0  0  0  0
   -3.1787    0.1598   -1.0382 C   0  0  0  0  0  0  0  0  0  0  0  0
   -3.4878    1.4352   -1.7304 C   0  0  0  0  0  0  0  0  0  0  0  0
   -2.5720    2.4354   -1.1182 C   0  0  0  0  0  0  0  0  0  0  0  0
   -1.3267    1.6329   -0.8180 C   0  0  0  0  0  0  0  0  0  0  0  0
   -1.7740    0.2762   -0.7070 N   0  0  0  0  0  0  0  0  0  0  0  0
   -0.9555   -0.8417   -0.3215 C   0  0  0  0  0  0  0  0  0  0  0  0
   -1.4238   -2.0855   -0.2498 N   0  0  0  0  0  0  0  0  0  0  0  0
   -0.7046   -3.1645    0.1039 C   0  0  0  0  0  0  0  0  0  0  0  0
   -1.2511   -4.4707    0.1651 N   0  0  0  0  0  0  0  0  0  0  0  0
    0.6170   -2.9854    0.4184 C   0  0  0  0  0  0  0  0  0  0  0  0
    1.6398   -3.7631    0.8040 N   0  0  0  0  0  0  0  0  0  0  0  0
    2.7456   -3.0349    0.9774 C   0  0  0  0  0  0  0  0  0  0  0  0
    2.4231   -1.7579    0.6957 N   0  0  0  0  0  0  0  0  0  0  0  0
    3.2788   -0.6142    0.7398 C   0  0  0  0  0  0  0  0  0  0  0  0
    3.5977   -0.0107    1.9388 C   0  0  0  0  0  0  0  0  0  0  0  0
    4.4280    1.0954    1.9571 C   0  0  0  0  0  0  0  0  0  0  0  0
    4.9698    1.6438    0.8141 C   0  0  0  0  0  0  0  0  0  0  0  0
    4.6508    1.0383   -0.3975 C   0  0  0  0  0  0  0  0  0  0  0  0
    3.8218   -0.0640   -0.4023 C   0  0  0  0  0  0  0  0  0  0  0  0
    5.1963    1.5769   -1.6389 C   0  0  0  0  0  0  0  0  0  0  0  0
    6.0406    2.6996   -1.6329 N   0  0  0  0  0  0  0  0  0  0  0  0
    4.8952    1.0144   -2.7220 O   0  0  0  0  0  0  0  0  0  0  0  0
    1.1093   -1.6961    0.3458 C   0  0  0  0  0  0  0  0  0  0  0  0
    0.3447   -0.6507   -0.0144 N   0  0  0  0  0  0  0  0  0  0  0  0
   -4.5326    1.7598    1.1791 H   0  0  0  0  0  0  0  0  0  0  0  0
   -2.8325    1.2214    1.4620 H   0  0  0  0  0  0  0  0  0  0  0  0
   -4.1859    0.3776    2.2277 H   0  0  0  0  0  0  0  0  0  0  0  0
   -3.6614   -1.0997    0.5920 H   0  0  0  0  0  0  0  0  0  0  0  0
   -5.8173    0.6636   -0.5576 H   0  0  0  0  0  0  0  0  0  0  0  0
   -5.9916   -0.6406    0.7437 H   0  0  0  0  0  0  0  0  0  0  0  0
   -5.5622   -1.0929   -0.9542 H   0  0  0  0  0  0  0  0  0  0  0  0
   -3.3070   -0.6977   -1.7301 H   0  0  0  0  0  0  0  0  0  0  0  0
   -3.1821    1.3157   -2.8118 H   0  0  0  0  0  0  0  0  0  0  0  0
   -4.5438    1.7228   -1.7486 H   0  0  0  0  0  0  0  0  0  0  0  0
   -2.9704    2.9341   -0.2095 H   0  0  0  0  0  0  0  0  0  0  0  0
   -2.3376    3.2889   -1.8206 H   0  0  0  0  0  0  0  0  0  0  0  0
   -0.8222    2.0052    0.0981 H   0  0  0  0  0  0  0  0  0  0  0  0
   -0.6222    1.7860   -1.6709 H   0  0  0  0  0  0  0  0  0  0  0  0
   -0.6400   -5.2950   -0.0562 H   0  0  0  0  0  0  0  0  0  0  0  0
   -2.2520   -4.5947    0.4290 H   0  0  0  0  0  0  0  0  0  0  0  0
    3.7458   -3.3709    1.2886 H   0  0  0  0  0  0  0  0  0  0  0  0
    3.1740   -0.4381    2.8418 H   0  0  0  0  0  0  0  0  0  0  0  0
    4.6740    1.5647    2.9064 H   0  0  0  0  0  0  0  0  0  0  0  0
    5.6181    2.5093    0.8410 H   0  0  0  0  0  0  0  0  0  0  0  0
    3.5548   -0.5599   -1.3431 H   0  0  0  0  0  0  0  0  0  0  0  0
    6.6759    2.9508   -0.8503 H   0  0  0  0  0  0  0  0  0  0  0  0
    6.0557    3.3489   -2.4577 H   0  0  0  0  0  0  0  0  0  0  0  0
  1  2  1  0
  2  3  1  0
  2  4  1  0
  4  5  1  0
  5  6  1  0
  6  7  1  0
  7  8  1  0
  8  9  1  0
  9 10  2  0
 10 11  1  0
 11 12  1  0
 11 13  2  0
 13 14  1  0
 14 15  2  0
 15 16  1  0
 16 17  1  0
 17 18  2  0
 18 19  1  0
 19 20  2  0
 20 21  1  0
 21 22  2  0
 21 23  1  0
 23 24  1  0
 23 25  2  0
 16 26  1  0
 26 27  2  0
  8  4  1  0
 27  9  1  0
 26 13  1  0
 22 17  1  0
  1 28  1  0
  1 29  1  0
  1 30  1  0
  2 31  1  0
  3 32  1  0
  3 33  1  0
  3 34  1  0
  4 35  1  0
  5 36  1  0
  5 37  1  0
  6 38  1  0
  6 39  1  0
  7 40  1  0
  7 41  1  0
 12 42  1  0
 12 43  1  0
 15 44  1  0
 18 45  1  0
 19 46  1  0
 20 47  1  0
 22 48  1  0
 24 49  1  0
 24 50  1  0
M  END
$$$$
[H]c1nc([H])c(-c2c([H])c3nc(N([H])C(=O)N([H])C([H])([H])C([H])([H])[H])sc3n(C([H])(C([H])([H])[H])C([H])([H])[H])c2=O)c([H])c1F
     RDKit          3D

 44 46  0  0  0  0  0  0  0  0999 V2000
    6.5896    1.0003   -1.0583 C   0  0  0  0  0  0  0  0  0  0  0  0
    6.6226    0.9606    0.4490 C   0  0  0  0  0  0  0  0  0  0  0  0
    5.6334    0.0154    0.9273 N   0  0  0  0  0  0  0  0  0  0  0  0
    4.2670    0.1926    0.6280 C   0  0  0  0  0  0  0  0  0  0  0  0
    3.9048    1.1689   -0.0530 O   0  0  0  0  0  0  0  0  0  0  0  0
    3.2943   -0.7562    1.1109 N   0  0  0  0  0  0  0  0  0  0  0  0
    1.9258   -0.5358    0.7834 C   0  0  0  0  0  0  0  0  0  0  0  0
    0.8757   -1.2389    1.0968 N   0  0  0  0  0  0  0  0  0  0  0  0
   -0.3085   -0.8781    0.7033 C   0  0  0  0  0  0  0  0  0  0  0  0
   -1.5228   -1.5365    0.9658 C   0  0  0  0  0  0  0  0  0  0  0  0
   -2.6953   -1.0137    0.4692 C   0  0  0  0  0  0  0  0  0  0  0  0
   -3.9881   -1.6756    0.7298 C   0  0  0  0  0  0  0  0  0  0  0  0
   -5.1012   -0.9995    1.1608 C   0  0  0  0  0  0  0  0  0  0  0  0
   -6.2804   -1.5900    1.3956 N   0  0  0  0  0  0  0  0  0  0  0  0
   -6.4263   -2.9048    1.2141 C   0  0  0  0  0  0  0  0  0  0  0  0
   -5.3440   -3.6397    0.7821 C   0  0  0  0  0  0  0  0  0  0  0  0
   -5.5338   -4.9872    0.6076 F   0  0  0  0  0  0  0  0  0  0  0  0
   -4.1398   -3.0374    0.5421 C   0  0  0  0  0  0  0  0  0  0  0  0
   -2.7494    0.1390   -0.2846 C   0  0  0  0  0  0  0  0  0  0  0  0
   -3.8049    0.6383   -0.7510 O   0  0  0  0  0  0  0  0  0  0  0  0
   -1.5763    0.7565   -0.5260 N   0  0  0  0  0  0  0  0  0  0  0  0
   -1.5338    1.9778   -1.3109 C   0  0  0  0  0  0  0  0  0  0  0  0
   -0.6771    1.8157   -2.5567 C   0  0  0  0  0  0  0  0  0  0  0  0
   -1.1123    3.1727   -0.5108 C   0  0  0  0  0  0  0  0  0  0  0  0
   -0.4173    0.2597   -0.0479 C   0  0  0  0  0  0  0  0  0  0  0  0
    1.2466    0.7377   -0.1327 S   0  0  0  0  0  0  0  0  0  0  0  0
    6.3542    2.0269   -1.3964 H   0  0  0  0  0  0  0  0  0  0  0  0
    7.5684    0.7400   -1.5188 H   0  0  0  0  0  0  0  0  0  0  0  0
    5.7717    0.3406   -1.4366 H   0  0  0  0  0  0  0  0  0  0  0  0
    6.3402    1.9522    0.8677 H   0  0  0  0  0  0  0  0  0  0  0  0
    7.6229    0.6697    0.8266 H   0  0  0  0  0  0  0  0  0  0  0  0
    5.9215   -0.8048    1.4972 H   0  0  0  0  0  0  0  0  0  0  0  0
    3.5966   -1.5616    1.6731 H   0  0  0  0  0  0  0  0  0  0  0  0
   -1.5598   -2.4489    1.5515 H   0  0  0  0  0  0  0  0  0  0  0  0
   -4.9777    0.0825    1.3136 H   0  0  0  0  0  0  0  0  0  0  0  0
   -7.3975   -3.4055    1.4050 H   0  0  0  0  0  0  0  0  0  0  0  0
   -3.2894   -3.6363    0.1990 H   0  0  0  0  0  0  0  0  0  0  0  0
   -2.5624    2.1804   -1.6751 H   0  0  0  0  0  0  0  0  0  0  0  0
    0.3837    2.0026   -2.3799 H   0  0  0  0  0  0  0  0  0  0  0  0
   -1.0675    2.5388   -3.3220 H   0  0  0  0  0  0  0  0  0  0  0  0
   -0.8527    0.7814   -2.9355 H   0  0  0  0  0  0  0  0  0  0  0  0
   -1.3996    4.0814   -1.1109 H   0  0  0  0  0  0  0  0  0  0  0  0
   -0.0196    3.2454   -0.3629 H   0  0  0  0  0  0  0  0  0  0  0  0
   -1.5815    3.1733    0.4707 H   0  0  0  0  0  0  0  0  0  0  0  0
  1  2  1  0
  2  3  1  0
  3  4  1  0
  4  5  2  0
  4  6  1  0
  6  7  1  0
  7  8  2  0
  8  9  1  0
  9 10  1  0
 10 11  2  0
 11 12  1  0
 12 13  2  0
 13 14  1  0
 14 15  2  0
 15 16  1  0
 16 17  1  0
 16 18  2  0
 11 19  1  0
 19 20  2  0
 19 21  1  0
 21 22  1  0
 22 23  1  0
 22 24  1  0
 21 25  1  0
 25 26  1  0
 26  7  1  0
 25  9  2  0
 18 12  1  0
  1 27  1  0
  1 28  1  0
  1 29  1  0
  2 30  1  0
  2 31  1  0
  3 32  1  0
  6 33  1  0
 10 34  1  0
 13 35  1  0
 15 36  1  0
 18 37  1  0
 22 38  1  0
 23 39  1  0
 23 40  1  0
 23 41  1  0
 24 42  1  0
 24 43  1  0
 24 44  1  0
M  END
$$$$
[H]c1nc(N([H])c2c([H])c([H])c(-c3c([H])c([H])c([H])c([H])c3[H])c([H])c2Cl)c2c([H])c([H])c(C(=O)N([H])[H])c(=O)n2n1
     RDKit          3D

 42 45  0  0  0  0  0  0  0  0999 V2000
   -7.7590    1.2521    0.8782 N   0  0  0  0  0  0  0  0  0  0  0  0
   -7.2217    0.0839    0.2839 C   0  0  0  0  0  0  0  0  0  0  0  0
   -8.0312   -0.7807   -0.1209 O   0  0  0  0  0  0  0  0  0  0  0  0
   -5.7804   -0.1236    0.1394 C   0  0  0  0  0  0  0  0  0  0  0  0
   -4.9176    0.8497    0.5957 C   0  0  0  0  0  0  0  0  0  0  0  0
   -3.5408    0.6697    0.4671 C   0  0  0  0  0  0  0  0  0  0  0  0
   -3.0759   -0.4788   -0.1139 C   0  0  0  0  0  0  0  0  0  0  0  0
   -1.6797   -0.6825   -0.2540 C   0  0  0  0  0  0  0  0  0  0  0  0
   -0.7857    0.2890    0.1981 N   0  0  0  0  0  0  0  0  0  0  0  0
    0.6215    0.1946    0.1148 C   0  0  0  0  0  0  0  0  0  0  0  0
    1.3503   -0.8410   -0.3990 C   0  0  0  0  0  0  0  0  0  0  0  0
    2.7539   -0.8267   -0.4284 C   0  0  0  0  0  0  0  0  0  0  0  0
    3.4628    0.2399    0.0630 C   0  0  0  0  0  0  0  0  0  0  0  0
    2.7217    1.2752    0.5768 C   0  0  0  0  0  0  0  0  0  0  0  0
    1.3547    1.2835    0.6161 C   0  0  0  0  0  0  0  0  0  0  0  0
    0.5355    2.6879    1.3078 Cl  0  0  0  0  0  0  0  0  0  0  0  0
    4.9234    0.2819    0.0466 C   0  0  0  0  0  0  0  0  0  0  0  0
    5.6658   -0.3266   -0.9454 C   0  0  0  0  0  0  0  0  0  0  0  0
    7.0440   -0.2729   -0.9391 C   0  0  0  0  0  0  0  0  0  0  0  0
    7.6716    0.4046    0.0835 C   0  0  0  0  0  0  0  0  0  0  0  0
    6.9769    1.0356    1.1081 C   0  0  0  0  0  0  0  0  0  0  0  0
    5.5967    0.9489    1.0501 C   0  0  0  0  0  0  0  0  0  0  0  0
   -1.3414   -1.8130   -0.8218 N   0  0  0  0  0  0  0  0  0  0  0  0
   -2.1899   -2.7374   -1.2543 C   0  0  0  0  0  0  0  0  0  0  0  0
   -3.5000   -2.5221   -1.1110 N   0  0  0  0  0  0  0  0  0  0  0  0
   -3.9539   -1.4133   -0.5506 N   0  0  0  0  0  0  0  0  0  0  0  0
   -5.2945   -1.2734   -0.4429 C   0  0  0  0  0  0  0  0  0  0  0  0
   -6.0939   -2.1602   -0.8585 O   0  0  0  0  0  0  0  0  0  0  0  0
   -8.0167    2.0919    0.3154 H   0  0  0  0  0  0  0  0  0  0  0  0
   -7.9265    1.3373    1.9089 H   0  0  0  0  0  0  0  0  0  0  0  0
   -5.2389    1.7620    1.0562 H   0  0  0  0  0  0  0  0  0  0  0  0
   -2.8712    1.4259    0.8221 H   0  0  0  0  0  0  0  0  0  0  0  0
   -1.1207    1.1834    0.6456 H   0  0  0  0  0  0  0  0  0  0  0  0
    0.8749   -1.7293   -0.8103 H   0  0  0  0  0  0  0  0  0  0  0  0
    3.2765   -1.6737   -0.8468 H   0  0  0  0  0  0  0  0  0  0  0  0
    3.2834    2.1247    0.9681 H   0  0  0  0  0  0  0  0  0  0  0  0
    5.1319   -0.8459   -1.7258 H   0  0  0  0  0  0  0  0  0  0  0  0
    7.6351   -0.7548   -1.7253 H   0  0  0  0  0  0  0  0  0  0  0  0
    8.7498    0.4750    0.1332 H   0  0  0  0  0  0  0  0  0  0  0  0
    7.4893    1.5687    1.9119 H   0  0  0  0  0  0  0  0  0  0  0  0
    5.0034    1.4227    1.8231 H   0  0  0  0  0  0  0  0  0  0  0  0
   -1.7835   -3.6321   -1.7076 H   0  0  0  0  0  0  0  0  0  0  0  0
  1  2  1  0
  2  3  2  0
  2  4  1  0
  4  5  2  0
  5  6  1  0
  6  7  2  0
  7  8  1  0
  8  9  1  0
  9 10  1  0
 10 11  2  0
 11 12  1  0
 12 13  2  0
 13 14  1  0
 14 15  2  0
 15 16  1  0
 13 17  1  0
 17 18  2  0
 18 19  1  0
 19 20  2  0
 20 21  1  0
 21 22  2  0
  8 23  2  0
 23 24  1  0
 24 25  2  0
 25 26  1  0
 26 27  1  0
 27 28  2  0
 27  4  1  0
 26  7  1  0
 15 10  1  0
 22 17  1  0
  1 29  1  0
  1 30  1  0
  5 31  1  0
  6 32  1  0
  9 33  1  0
 11 34  1  0
 12 35  1  0
 14 36  1  0
 18 37  1  0
 19 38  1  0
 20 39  1  0
 21 40  1  0
 22 41  1  0
 24 42  1  0
M  END
$$$$
[H]c1c([H])c(C([H])(N2C([H])([H])C([H])([H])N(C([H])([H])C(=O)N([H])[H])C([H])([H])C2([H])[H])C([H])([H])OC([H])([H])c2c([H])c(C(F)(F)F)c([H])c(C(F)(F)F)c2[H])c([H])c(Cl)c1Cl
     RDKit          3D

 59 61  0  0  0  0  0  0  0  0999 V2000
    6.4873   -2.7543    1.3012 N   0  0  0  0  0  0  0  0  0  0  0  0
    5.3210   -2.0947    0.7965 C   0  0  0  0  0  0  0  0  0  0  0  0
    4.5084   -1.7227    1.6781 O   0  0  0  0  0  0  0  0  0  0  0  0
    5.1556   -1.9049   -0.6344 C   0  0  0  0  0  0  0  0  0  0  0  0
    4.0118   -1.1661   -1.0624 N   0  0  0  0  0  0  0  0  0  0  0  0
    4.0525    0.2354   -0.7892 C   0  0  0  0  0  0  0  0  0  0  0  0
    2.9635    0.7954    0.0507 C   0  0  0  0  0  0  0  0  0  0  0  0
    1.6405    0.2981   -0.2570 N   0  0  0  0  0  0  0  0  0  0  0  0
    1.6687   -0.7465   -1.2544 C   0  0  0  0  0  0  0  0  0  0  0  0
    2.7376   -1.7703   -0.8799 C   0  0  0  0  0  0  0  0  0  0  0  0
    0.8746    1.3895   -0.8085 C   0  0  0  0  0  0  0  0  0  0  0  0
   -0.4746    1.0456   -1.3161 C   0  0  0  0  0  0  0  0  0  0  0  0
   -1.3289    0.4367   -0.3918 O   0  0  0  0  0  0  0  0  0  0  0  0
   -2.5354    0.2838   -1.0882 C   0  0  0  0  0  0  0  0  0  0  0  0
   -3.5533   -0.4993   -0.3914 C   0  0  0  0  0  0  0  0  0  0  0  0
   -4.5814    0.0287    0.3503 C   0  0  0  0  0  0  0  0  0  0  0  0
   -5.5412   -0.7530    0.9670 C   0  0  0  0  0  0  0  0  0  0  0  0
   -5.4700   -2.1208    0.8403 C   0  0  0  0  0  0  0  0  0  0  0  0
   -4.4491   -2.6984    0.1041 C   0  0  0  0  0  0  0  0  0  0  0  0
   -3.5344   -1.8953   -0.4839 C   0  0  0  0  0  0  0  0  0  0  0  0
   -4.3965   -4.1942   -0.0126 C   0  0  0  0  0  0  0  0  0  0  0  0
   -3.2026   -4.6838    0.4638 F   0  0  0  0  0  0  0  0  0  0  0  0
   -4.5797   -4.5555   -1.3407 F   0  0  0  0  0  0  0  0  0  0  0  0
   -5.4263   -4.7407    0.6943 F   0  0  0  0  0  0  0  0  0  0  0  0
   -6.6791   -0.1959    1.7616 C   0  0  0  0  0  0  0  0  0  0  0  0
   -6.7078    1.1672    1.6115 F   0  0  0  0  0  0  0  0  0  0  0  0
   -7.8860   -0.7569    1.3359 F   0  0  0  0  0  0  0  0  0  0  0  0
   -6.5093   -0.5578    3.0753 F   0  0  0  0  0  0  0  0  0  0  0  0
    0.8176    2.6100   -0.0250 C   0  0  0  0  0  0  0  0  0  0  0  0
    0.5150    2.6123    1.3067 C   0  0  0  0  0  0  0  0  0  0  0  0
    0.4369    3.7761    2.0453 C   0  0  0  0  0  0  0  0  0  0  0  0
    0.6683    5.0018    1.4664 C   0  0  0  0  0  0  0  0  0  0  0  0
    0.5769    6.5170    2.3725 Cl  0  0  0  0  0  0  0  0  0  0  0  0
    0.9800    5.0256    0.1116 C   0  0  0  0  0  0  0  0  0  0  0  0
    1.2687    6.5996   -0.6275 Cl  0  0  0  0  0  0  0  0  0  0  0  0
    1.0517    3.8554   -0.6117 C   0  0  0  0  0  0  0  0  0  0  0  0
    6.6509   -3.7752    1.3022 H   0  0  0  0  0  0  0  0  0  0  0  0
    7.2478   -2.1285    1.7088 H   0  0  0  0  0  0  0  0  0  0  0  0
    6.0421   -1.3933   -1.1104 H   0  0  0  0  0  0  0  0  0  0  0  0
    5.0991   -2.8990   -1.1713 H   0  0  0  0  0  0  0  0  0  0  0  0
    3.9936    0.7572   -1.8006 H   0  0  0  0  0  0  0  0  0  0  0  0
    5.0247    0.5984   -0.3775 H   0  0  0  0  0  0  0  0  0  0  0  0
    3.1953    0.6756    1.1196 H   0  0  0  0  0  0  0  0  0  0  0  0
    3.0112    1.9184   -0.1007 H   0  0  0  0  0  0  0  0  0  0  0  0
    0.6589   -1.1920   -1.2975 H   0  0  0  0  0  0  0  0  0  0  0  0
    1.9513   -0.2866   -2.2424 H   0  0  0  0  0  0  0  0  0  0  0  0
    2.6702   -2.6386   -1.5760 H   0  0  0  0  0  0  0  0  0  0  0  0
    2.5569   -2.1340    0.1366 H   0  0  0  0  0  0  0  0  0  0  0  0
    1.4769    1.6758   -1.7489 H   0  0  0  0  0  0  0  0  0  0  0  0
   -1.0198    1.9697   -1.6577 H   0  0  0  0  0  0  0  0  0  0  0  0
   -0.4701    0.3611   -2.1940 H   0  0  0  0  0  0  0  0  0  0  0  0
   -2.8949    1.3618   -1.2078 H   0  0  0  0  0  0  0  0  0  0  0  0
   -2.2854   -0.0582   -2.1139 H   0  0  0  0  0  0  0  0  0  0  0  0
   -4.6653    1.1038    0.4740 H   0  0  0  0  0  0  0  0  0  0  0  0
   -6.2100   -2.7861    1.3048 H   0  0  0  0  0  0  0  0  0  0  0  0
   -2.7393   -2.3181   -1.0629 H   0  0  0  0  0  0  0  0  0  0  0  0
    0.3283    1.6648    1.8210 H   0  0  0  0  0  0  0  0  0  0  0  0
    0.1916    3.7542    3.0916 H   0  0  0  0  0  0  0  0  0  0  0  0
    1.3050    3.9016   -1.6551 H   0  0  0  0  0  0  0  0  0  0  0  0
  1  2  1  0
  2  3  2  0
  2  4  1  0
  4  5  1  0
  5  6  1  0
  6  7  1  0
  7  8  1  0
  8  9  1  0
  9 10  1  0
  8 11  1  0
 11 12  1  0
 12 13  1  0
 13 14  1  0
 14 15  1  0
 15 16  2  0
 16 17  1  0
 17 18  2  0
 18 19  1  0
 19 20  2  0
 19 21  1  0
 21 22  1  0
 21 23  1  0
 21 24  1  0
 17 25  1  0
 25 26  1  0
 25 27  1  0
 25 28  1  0
 11 29  1  0
 29 30  2  0
 30 31  1  0
 31 32  2  0
 32 33  1  0
 32 34  1  0
 34 35  1  0
 34 36  2  0
 10  5  1  0
 20 15  1  0
 36 29  1  0
  1 37  1  0
  1 38  1  0
  4 39  1  0
  4 40  1  0
  6 41  1  0
  6 42  1  0
  7 43  1  0
  7 44  1  0
  9 45  1  0
  9 46  1  0
 10 47  1  0
 10 48  1  0
 11 49  1  0
 12 50  1  0
 12 51  1  0
 14 52  1  0
 14 53  1  0
 16 54  1  0
 18 55  1  0
 20 56  1  0
 30 57  1  0
 31 58  1  0
 36 59  1  0
M  END
$$$$
[H]OC(=O)C([H])([H])C([H])([H])C(=O)N(c1c([H])c([H])c(-c2c([H])c([H])c([H])c([H])c2[H])c([H])c1[H])C([H])([H])C1([H])C([H])([H])C([H])([H])C([H])([H])C([H])([H])C1([H])[H]
     RDKit          3D

 54 56  0  0  0  0  0  0  0  0999 V2000
   -4.1560    4.5064   -1.1295 O   0  0  0  0  0  0  0  0  0  0  0  0
   -3.0429    4.9871   -1.8104 C   0  0  0  0  0  0  0  0  0  0  0  0
   -3.2046    6.0345   -2.4871 O   0  0  0  0  0  0  0  0  0  0  0  0
   -1.7462    4.2864   -1.7284 C   0  0  0  0  0  0  0  0  0  0  0  0
   -1.9027    3.0766   -0.8302 C   0  0  0  0  0  0  0  0  0  0  0  0
   -0.6566    2.3135   -0.6938 C   0  0  0  0  0  0  0  0  0  0  0  0
    0.3457    2.6640   -1.3975 O   0  0  0  0  0  0  0  0  0  0  0  0
   -0.4816    1.1998    0.1743 N   0  0  0  0  0  0  0  0  0  0  0  0
   -1.6036    0.8131    0.9683 C   0  0  0  0  0  0  0  0  0  0  0  0
   -2.5305   -0.1957    0.3599 C   0  0  0  0  0  0  0  0  0  0  0  0
   -3.6723   -0.4832    1.3151 C   0  0  0  0  0  0  0  0  0  0  0  0
   -4.6034   -1.5354    0.7849 C   0  0  0  0  0  0  0  0  0  0  0  0
   -3.9546   -2.4070   -0.2635 C   0  0  0  0  0  0  0  0  0  0  0  0
   -2.5554   -2.7167    0.2187 C   0  0  0  0  0  0  0  0  0  0  0  0
   -1.7435   -1.4446    0.0455 C   0  0  0  0  0  0  0  0  0  0  0  0
    0.7984    0.5459    0.2087 C   0  0  0  0  0  0  0  0  0  0  0  0
    1.4971    0.4331    1.3918 C   0  0  0  0  0  0  0  0  0  0  0  0
    2.7430   -0.1939    1.4470 C   0  0  0  0  0  0  0  0  0  0  0  0
    3.3055   -0.7170    0.3140 C   0  0  0  0  0  0  0  0  0  0  0  0
    2.6231   -0.6171   -0.8920 C   0  0  0  0  0  0  0  0  0  0  0  0
    1.3922    0.0065   -0.9263 C   0  0  0  0  0  0  0  0  0  0  0  0
    4.6160   -1.3796    0.3706 C   0  0  0  0  0  0  0  0  0  0  0  0
    5.4654   -1.3373   -0.7140 C   0  0  0  0  0  0  0  0  0  0  0  0
    6.7040   -1.9561   -0.6829 C   0  0  0  0  0  0  0  0  0  0  0  0
    7.0864   -2.6301    0.4712 C   0  0  0  0  0  0  0  0  0  0  0  0
    6.2674   -2.6955    1.5756 C   0  0  0  0  0  0  0  0  0  0  0  0
    5.0451   -2.0607    1.4875 C   0  0  0  0  0  0  0  0  0  0  0  0
   -4.9002    4.0602   -1.6523 H   0  0  0  0  0  0  0  0  0  0  0  0
   -1.0328    4.9986   -1.2183 H   0  0  0  0  0  0  0  0  0  0  0  0
   -1.3111    4.0411   -2.7088 H   0  0  0  0  0  0  0  0  0  0  0  0
   -2.6502    2.4273   -1.3743 H   0  0  0  0  0  0  0  0  0  0  0  0
   -2.3802    3.4007    0.0893 H   0  0  0  0  0  0  0  0  0  0  0  0
   -2.2180    1.6910    1.2715 H   0  0  0  0  0  0  0  0  0  0  0  0
   -1.1735    0.4427    1.9481 H   0  0  0  0  0  0  0  0  0  0  0  0
   -2.9817    0.2349   -0.5451 H   0  0  0  0  0  0  0  0  0  0  0  0
   -4.2585    0.4528    1.4140 H   0  0  0  0  0  0  0  0  0  0  0  0
   -3.2664   -0.7269    2.3156 H   0  0  0  0  0  0  0  0  0  0  0  0
   -4.9157   -2.1904    1.6209 H   0  0  0  0  0  0  0  0  0  0  0  0
   -5.5290   -1.1254    0.3332 H   0  0  0  0  0  0  0  0  0  0  0  0
   -3.8531   -1.8115   -1.1960 H   0  0  0  0  0  0  0  0  0  0  0  0
   -4.5398   -3.3111   -0.4363 H   0  0  0  0  0  0  0  0  0  0  0  0
   -2.0703   -3.4928   -0.4214 H   0  0  0  0  0  0  0  0  0  0  0  0
   -2.5377   -3.0932    1.2559 H   0  0  0  0  0  0  0  0  0  0  0  0
   -0.8262   -1.5205    0.6700 H   0  0  0  0  0  0  0  0  0  0  0  0
   -1.4081   -1.4098   -1.0098 H   0  0  0  0  0  0  0  0  0  0  0  0
    1.0751    0.8355    2.2894 H   0  0  0  0  0  0  0  0  0  0  0  0
    3.2483   -0.2530    2.4151 H   0  0  0  0  0  0  0  0  0  0  0  0
    3.0725   -1.0352   -1.8021 H   0  0  0  0  0  0  0  0  0  0  0  0
    0.8776    0.0730   -1.8788 H   0  0  0  0  0  0  0  0  0  0  0  0
    5.1558   -0.8075   -1.6106 H   0  0  0  0  0  0  0  0  0  0  0  0
    7.3823   -1.9390   -1.5103 H   0  0  0  0  0  0  0  0  0  0  0  0
    8.0514   -3.1178    0.5083 H   0  0  0  0  0  0  0  0  0  0  0  0
    6.5803   -3.2298    2.4804 H   0  0  0  0  0  0  0  0  0  0  0  0
    4.3737   -2.0909    2.3365 H   0  0  0  0  0  0  0  0  0  0  0  0
  1  2  1  0
  2  3  2  0
  2  4  1  0
  4  5  1  0
  5  6  1  0
  6  7  2  0
  6  8  1  0
  8  9  1  0
  9 10  1  0
 10 11  1  0
 11 12  1  0
 12 13  1  0
 13 14  1  0
 14 15  1  0
  8 16  1  0
 16 17  2  0
 17 18  1  0
 18 19  2  0
 19 20  1  0
 20 21  2  0
 19 22  1  0
 22 23  2  0
 23 24  1  0
 24 25  2  0
 25 26  1  0
 26 27  2  0
 15 10  1  0
 21 16  1  0
 27 22  1  0
  1 28  1  0
  4 29  1  0
  4 30  1  0
  5 31  1  0
  5 32  1  0
  9 33  1  0
  9 34  1  0
 10 35  1  0
 11 36  1  0
 11 37  1  0
 12 38  1  0
 12 39  1  0
 13 40  1  0
 13 41  1  0
 14 42  1  0
 14 43  1  0
 15 44  1  0
 15 45  1  0
 17 46  1  0
 18 47  1  0
 20 48  1  0
 21 49  1  0
 23 50  1  0
 24 51  1  0
 25 52  1  0
 26 53  1  0
 27 54  1  0
M  END
$$$$
[H]c1c([H])c([H])c(-c2c(C([H])([H])[H])nc([C@@]3([H])N(C(=O)C([H])([H])C4([H])C([H])([H])C([H])([H])C([H])([H])C4([H])[H])C([H])([H])[C@]([H])(OC([H])([H])C([H])([H])OC([H])([H])[H])C3([H])[H])n2[H])c([H])c1[H]
     RDKit          3D

 63 66  0  0  0  0  0  0  0  0999 V2000
   -1.6023    4.8429    1.7256 C   0  0  0  0  0  0  0  0  0  0  0  0
   -0.5070    5.4509    1.2738 O   0  0  0  0  0  0  0  0  0  0  0  0
    0.3937    4.8711    0.4604 C   0  0  0  0  0  0  0  0  0  0  0  0
   -0.0554    4.3760   -0.8725 C   0  0  0  0  0  0  0  0  0  0  0  0
   -0.9825    3.3925   -0.9302 O   0  0  0  0  0  0  0  0  0  0  0  0
   -0.6115    2.1513   -0.4636 C   0  0  2  0  0  0  0  0  0  0  0  0
   -0.4040    1.1874   -1.6535 C   0  0  0  0  0  0  0  0  0  0  0  0
   -0.4777   -0.1740   -0.9864 C   0  0  2  0  0  0  0  0  0  0  0  0
   -1.5459    0.0148    0.0084 N   0  0  0  0  0  0  0  0  0  0  0  0
   -1.5589    1.4060    0.3829 C   0  0  0  0  0  0  0  0  0  0  0  0
   -2.3975   -0.9810    0.4819 C   0  0  0  0  0  0  0  0  0  0  0  0
   -3.2775   -0.6869    1.3617 O   0  0  0  0  0  0  0  0  0  0  0  0
   -2.3921   -2.3948    0.0580 C   0  0  0  0  0  0  0  0  0  0  0  0
   -3.4110   -2.6407   -1.0190 C   0  0  0  0  0  0  0  0  0  0  0  0
   -4.8212   -2.3421   -0.6330 C   0  0  0  0  0  0  0  0  0  0  0  0
   -5.1718   -3.4931    0.3034 C   0  0  0  0  0  0  0  0  0  0  0  0
   -4.2662   -4.6340   -0.1060 C   0  0  0  0  0  0  0  0  0  0  0  0
   -3.5253   -4.1381   -1.3274 C   0  0  0  0  0  0  0  0  0  0  0  0
    0.8099   -0.4610   -0.3184 C   0  0  0  0  0  0  0  0  0  0  0  0
    0.9716   -1.2237    0.7452 N   0  0  0  0  0  0  0  0  0  0  0  0
    2.2987   -1.2463    1.0429 C   0  0  0  0  0  0  0  0  0  0  0  0
    2.8160   -2.0112    2.2104 C   0  0  0  0  0  0  0  0  0  0  0  0
    2.9831   -0.4839    0.1485 C   0  0  0  0  0  0  0  0  0  0  0  0
    2.0103   -0.0086   -0.6892 N   0  0  0  0  0  0  0  0  0  0  0  0
    4.3947   -0.1713    0.0418 C   0  0  0  0  0  0  0  0  0  0  0  0
    4.8195    0.7790   -0.8982 C   0  0  0  0  0  0  0  0  0  0  0  0
    6.1437    1.1042   -1.0635 C   0  0  0  0  0  0  0  0  0  0  0  0
    7.1462    0.5238   -0.3219 C   0  0  0  0  0  0  0  0  0  0  0  0
    6.7543   -0.4078    0.6026 C   0  0  0  0  0  0  0  0  0  0  0  0
    5.3988   -0.7428    0.7738 C   0  0  0  0  0  0  0  0  0  0  0  0
   -2.3189    4.4886    0.9514 H   0  0  0  0  0  0  0  0  0  0  0  0
   -2.1921    5.5770    2.3501 H   0  0  0  0  0  0  0  0  0  0  0  0
   -1.4362    3.9869    2.4218 H   0  0  0  0  0  0  0  0  0  0  0  0
    1.1706    5.6791    0.2220 H   0  0  0  0  0  0  0  0  0  0  0  0
    1.0398    4.1052    0.9880 H   0  0  0  0  0  0  0  0  0  0  0  0
    0.8572    3.9911   -1.4122 H   0  0  0  0  0  0  0  0  0  0  0  0
   -0.4262    5.3006   -1.4206 H   0  0  0  0  0  0  0  0  0  0  0  0
    0.3994    2.2226   -0.0224 H   0  0  0  0  0  0  0  0  0  0  0  0
    0.5550    1.4141   -2.1121 H   0  0  0  0  0  0  0  0  0  0  0  0
   -1.1877    1.2800   -2.4021 H   0  0  0  0  0  0  0  0  0  0  0  0
   -0.6989   -0.9410   -1.7242 H   0  0  0  0  0  0  0  0  0  0  0  0
   -1.4240    1.5552    1.4743 H   0  0  0  0  0  0  0  0  0  0  0  0
   -2.5914    1.8130    0.1627 H   0  0  0  0  0  0  0  0  0  0  0  0
   -1.4144   -2.7861   -0.2491 H   0  0  0  0  0  0  0  0  0  0  0  0
   -2.6948   -3.0490    0.9291 H   0  0  0  0  0  0  0  0  0  0  0  0
   -3.0900   -2.0960   -1.9421 H   0  0  0  0  0  0  0  0  0  0  0  0
   -5.0212   -1.3746   -0.1907 H   0  0  0  0  0  0  0  0  0  0  0  0
   -5.4326   -2.4407   -1.5792 H   0  0  0  0  0  0  0  0  0  0  0  0
   -6.2491   -3.7143    0.1164 H   0  0  0  0  0  0  0  0  0  0  0  0
   -5.0146   -3.1561    1.3348 H   0  0  0  0  0  0  0  0  0  0  0  0
   -3.5308   -4.8854    0.6765 H   0  0  0  0  0  0  0  0  0  0  0  0
   -4.8809   -5.5313   -0.3344 H   0  0  0  0  0  0  0  0  0  0  0  0
   -2.5244   -4.5986   -1.4321 H   0  0  0  0  0  0  0  0  0  0  0  0
   -4.1419   -4.2188   -2.2324 H   0  0  0  0  0  0  0  0  0  0  0  0
    1.9506   -2.3778    2.8314 H   0  0  0  0  0  0  0  0  0  0  0  0
    3.3861   -2.8884    1.8973 H   0  0  0  0  0  0  0  0  0  0  0  0
    3.3728   -1.3556    2.9106 H   0  0  0  0  0  0  0  0  0  0  0  0
    2.2253    0.6125   -1.4950 H   0  0  0  0  0  0  0  0  0  0  0  0
    4.0548    1.2548   -1.4939 H   0  0  0  0  0  0  0  0  0  0  0  0
    6.4500    1.8428   -1.7963 H   0  0  0  0  0  0  0  0  0  0  0  0
    8.1755    0.8037   -0.4790 H   0  0  0  0  0  0  0  0  0  0  0  0
    7.5054   -0.8904    1.2077 H   0  0  0  0  0  0  0  0  0  0  0  0
    5.1947   -1.4815    1.5051 H   0  0  0  0  0  0  0  0  0  0  0  0
  1  2  1  0
  2  3  1  0
  3  4  1  0
  4  5  1  0
  5  6  1  0
  6  7  1  0
  7  8  1  0
  8  9  1  0
  9 10  1  0
  9 11  1  0
 11 12  2  0
 11 13  1  0
 13 14  1  0
 14 15  1  0
 15 16  1  0
 16 17  1  0
 17 18  1  0
  8 19  1  0
 19 20  2  0
 20 21  1  0
 21 22  1  0
 21 23  2  0
 23 24  1  0
 23 25  1  0
 25 26  2  0
 26 27  1  0
 27 28  2  0
 28 29  1  0
 29 30  2  0
 10  6  1  0
 18 14  1  0
 24 19  1  0
 30 25  1  0
  1 31  1  0
  1 32  1  0
  1 33  1  0
  3 34  1  0
  3 35  1  0
  4 36  1  0
  4 37  1  0
  6 38  1  1
  7 39  1  0
  7 40  1  0
  8 41  1  6
 10 42  1  0
 10 43  1  0
 13 44  1  0
 13 45  1  0
 14 46  1  0
 15 47  1  0
 15 48  1  0
 16 49  1  0
 16 50  1  0
 17 51  1  0
 17 52  1  0
 18 53  1  0
 18 54  1  0
 22 55  1  0
 22 56  1  0
 22 57  1  0
 24 58  1  0
 26 59  1  0
 27 60  1  0
 28 61  1  0
 29 62  1  0
 30 63  1  0
M  END
$$$$
[H]c1nc(C(=O)OC([H])([H])[H])sc1-c1c([H])oc2nc(N([H])c3c([H])c([H])c(F)c(N([H])C(=O)c4c([H])c([H])c(N([H])[H])c([H])c4[H])c3[H])nc([H])c12
     RDKit          3D

 53 57  0  0  0  0  0  0  0  0999 V2000
   12.0858    1.9942    2.2511 C   0  0  0  0  0  0  0  0  0  0  0  0
   10.7283    1.7700    1.9168 O   0  0  0  0  0  0  0  0  0  0  0  0
   10.2474    0.5517    1.4971 C   0  0  0  0  0  0  0  0  0  0  0  0
   10.9802   -0.4335    1.3850 O   0  0  0  0  0  0  0  0  0  0  0  0
    8.8026    0.4634    1.1811 C   0  0  0  0  0  0  0  0  0  0  0  0
    7.8944    1.4178    1.2495 N   0  0  0  0  0  0  0  0  0  0  0  0
    6.6592    1.1587    0.9308 C   0  0  0  0  0  0  0  0  0  0  0  0
    6.3315   -0.0922    0.5336 C   0  0  0  0  0  0  0  0  0  0  0  0
    7.8851   -0.8647    0.6441 S   0  0  0  0  0  0  0  0  0  0  0  0
    5.0962   -0.7510    0.1087 C   0  0  0  0  0  0  0  0  0  0  0  0
    5.0175   -2.0977   -0.2676 C   0  0  0  0  0  0  0  0  0  0  0  0
    3.7824   -2.3712   -0.5884 O   0  0  0  0  0  0  0  0  0  0  0  0
    3.0110   -1.3124   -0.4595 C   0  0  0  0  0  0  0  0  0  0  0  0
    1.7107   -1.0657   -0.6540 N   0  0  0  0  0  0  0  0  0  0  0  0
    1.0925    0.0985   -0.4661 C   0  0  0  0  0  0  0  0  0  0  0  0
   -0.2844    0.3418   -0.6761 N   0  0  0  0  0  0  0  0  0  0  0  0
   -1.2798   -0.5534   -1.1277 C   0  0  0  0  0  0  0  0  0  0  0  0
   -0.9914   -1.7054   -1.8042 C   0  0  0  0  0  0  0  0  0  0  0  0
   -2.0197   -2.5510   -2.1952 C   0  0  0  0  0  0  0  0  0  0  0  0
   -3.3156   -2.2207   -1.8988 C   0  0  0  0  0  0  0  0  0  0  0  0
   -4.3158   -3.0634   -2.2907 F   0  0  0  0  0  0  0  0  0  0  0  0
   -3.6391   -1.0415   -1.2047 C   0  0  0  0  0  0  0  0  0  0  0  0
   -5.0143   -0.8096   -0.9574 N   0  0  0  0  0  0  0  0  0  0  0  0
   -5.5707    0.2787   -0.2963 C   0  0  0  0  0  0  0  0  0  0  0  0
   -4.9195    1.2297    0.1876 O   0  0  0  0  0  0  0  0  0  0  0  0
   -7.0441    0.3684   -0.1233 C   0  0  0  0  0  0  0  0  0  0  0  0
   -7.9003   -0.3552   -0.9142 C   0  0  0  0  0  0  0  0  0  0  0  0
   -9.2629   -0.2495   -0.7117 C   0  0  0  0  0  0  0  0  0  0  0  0
   -9.7184    0.5801    0.2790 C   0  0  0  0  0  0  0  0  0  0  0  0
  -11.1328    0.6931    0.4932 N   0  0  0  0  0  0  0  0  0  0  0  0
   -8.8785    1.3145    1.0831 C   0  0  0  0  0  0  0  0  0  0  0  0
   -7.5294    1.1996    0.8707 C   0  0  0  0  0  0  0  0  0  0  0  0
   -2.6052   -0.2438   -0.8408 C   0  0  0  0  0  0  0  0  0  0  0  0
    1.8986    1.1169   -0.0319 N   0  0  0  0  0  0  0  0  0  0  0  0
    3.2021    0.9279    0.1787 C   0  0  0  0  0  0  0  0  0  0  0  0
    3.8288   -0.2829   -0.0200 C   0  0  0  0  0  0  0  0  0  0  0  0
   12.3031    1.4071    3.1668 H   0  0  0  0  0  0  0  0  0  0  0  0
   12.6976    1.6181    1.4045 H   0  0  0  0  0  0  0  0  0  0  0  0
   12.2307    3.0676    2.3948 H   0  0  0  0  0  0  0  0  0  0  0  0
    5.9058    1.9772    0.9943 H   0  0  0  0  0  0  0  0  0  0  0  0
    5.8755   -2.7742   -0.2768 H   0  0  0  0  0  0  0  0  0  0  0  0
   -0.5992    1.3303   -0.4695 H   0  0  0  0  0  0  0  0  0  0  0  0
    0.0287   -2.0155   -2.0830 H   0  0  0  0  0  0  0  0  0  0  0  0
   -1.7925   -3.4697   -2.7338 H   0  0  0  0  0  0  0  0  0  0  0  0
   -5.6991   -1.5523   -1.3124 H   0  0  0  0  0  0  0  0  0  0  0  0
   -7.5628   -1.0045   -1.6951 H   0  0  0  0  0  0  0  0  0  0  0  0
   -9.9372   -0.8244   -1.3402 H   0  0  0  0  0  0  0  0  0  0  0  0
  -11.5589    1.6131    0.3332 H   0  0  0  0  0  0  0  0  0  0  0  0
  -11.6262   -0.1729    0.7973 H   0  0  0  0  0  0  0  0  0  0  0  0
   -9.2623    1.9484    1.8421 H   0  0  0  0  0  0  0  0  0  0  0  0
   -6.8668    1.7687    1.4932 H   0  0  0  0  0  0  0  0  0  0  0  0
   -2.8093    0.6832   -0.2981 H   0  0  0  0  0  0  0  0  0  0  0  0
    3.8408    1.7283    0.5212 H   0  0  0  0  0  0  0  0  0  0  0  0
  1  2  1  0
  2  3  1  0
  3  4  2  0
  3  5  1  0
  5  6  2  0
  6  7  1  0
  7  8  2  0
  8  9  1  0
  8 10  1  0
 10 11  2  0
 11 12  1  0
 12 13  1  0
 13 14  2  0
 14 15  1  0
 15 16  1  0
 16 17  1  0
 17 18  2  0
 18 19  1  0
 19 20  2  0
 20 21  1  0
 20 22  1  0
 22 23  1  0
 23 24  1  0
 24 25  2  0
 24 26  1  0
 26 27  2  0
 27 28  1  0
 28 29  2  0
 29 30  1  0
 29 31  1  0
 31 32  2  0
 22 33  2  0
 15 34  2  0
 34 35  1  0
 35 36  2  0
  9  5  1  0
 36 10  1  0
 36 13  1  0
 33 17  1  0
 32 26  1  0
  1 37  1  0
  1 38  1  0
  1 39  1  0
  7 40  1  0
 11 41  1  0
 16 42  1  0
 18 43  1  0
 19 44  1  0
 23 45  1  0
 27 46  1  0
 28 47  1  0
 30 48  1  0
 30 49  1  0
 31 50  1  0
 32 51  1  0
 33 52  1  0
 35 53  1  0
M  END
$$$$
[H]Oc1c([H])c([H])c(-c2c(C(=O)c3c([H])c(O[H])c([H])c([H])c3O[H])c3c([H])c([H])c(C#N)c([H])c3n2[H])c([H])c1[H]
     RDKit          3D

 42 45  0  0  0  0  0  0  0  0999 V2000
   -4.6009   -1.5893   -2.8111 O   0  0  0  0  0  0  0  0  0  0  0  0
   -4.0004   -1.3305   -1.5900 C   0  0  0  0  0  0  0  0  0  0  0  0
   -4.8233   -1.5556   -0.4819 C   0  0  0  0  0  0  0  0  0  0  0  0
   -4.2871   -1.3588    0.7501 C   0  0  0  0  0  0  0  0  0  0  0  0
   -2.9876   -0.9531    0.8917 C   0  0  0  0  0  0  0  0  0  0  0  0
   -2.4344   -0.7402    2.1617 O   0  0  0  0  0  0  0  0  0  0  0  0
   -2.1270   -0.7187   -0.2095 C   0  0  0  0  0  0  0  0  0  0  0  0
   -0.7005   -0.6676    0.0635 C   0  0  0  0  0  0  0  0  0  0  0  0
   -0.2985   -1.8905    0.3513 O   0  0  0  0  0  0  0  0  0  0  0  0
    0.2502    0.3884    0.0938 C   0  0  0  0  0  0  0  0  0  0  0  0
    1.6206    0.2056    0.2725 C   0  0  0  0  0  0  0  0  0  0  0  0
    2.1343    1.4836    0.3495 N   0  0  0  0  0  0  0  0  0  0  0  0
    1.1650    2.3888    0.2406 C   0  0  0  0  0  0  0  0  0  0  0  0
    1.1832    3.7778    0.3024 C   0  0  0  0  0  0  0  0  0  0  0  0
    0.0066    4.5009    0.1987 C   0  0  0  0  0  0  0  0  0  0  0  0
   -1.2116    3.8530    0.0265 C   0  0  0  0  0  0  0  0  0  0  0  0
   -1.2408    2.4445   -0.0416 C   0  0  0  0  0  0  0  0  0  0  0  0
   -0.0421    1.7527    0.0721 C   0  0  0  0  0  0  0  0  0  0  0  0
   -0.0364    5.9490    0.3370 C   0  0  0  0  0  0  0  0  0  0  0  0
   -0.0296    7.1134    0.4237 N   0  0  0  0  0  0  0  0  0  0  0  0
    2.4925   -0.9661    0.2856 C   0  0  0  0  0  0  0  0  0  0  0  0
    3.6119   -0.8969   -0.5831 C   0  0  0  0  0  0  0  0  0  0  0  0
    4.5440   -1.8748   -0.6848 C   0  0  0  0  0  0  0  0  0  0  0  0
    4.3929   -3.0021    0.0995 C   0  0  0  0  0  0  0  0  0  0  0  0
    5.3669   -4.0281   -0.0094 O   0  0  0  0  0  0  0  0  0  0  0  0
    3.3485   -3.1133    0.9396 C   0  0  0  0  0  0  0  0  0  0  0  0
    2.4131   -2.0955    1.0273 C   0  0  0  0  0  0  0  0  0  0  0  0
   -2.7048   -0.9245   -1.4471 C   0  0  0  0  0  0  0  0  0  0  0  0
   -5.0792   -0.7599   -3.3129 H   0  0  0  0  0  0  0  0  0  0  0  0
   -5.8458   -1.8738   -0.6557 H   0  0  0  0  0  0  0  0  0  0  0  0
   -4.9613   -1.5432    1.5971 H   0  0  0  0  0  0  0  0  0  0  0  0
   -3.0642   -0.8586    2.9336 H   0  0  0  0  0  0  0  0  0  0  0  0
    3.1534    1.6738    0.4805 H   0  0  0  0  0  0  0  0  0  0  0  0
    2.1306    4.2964    0.4430 H   0  0  0  0  0  0  0  0  0  0  0  0
   -2.1298    4.3757   -0.0676 H   0  0  0  0  0  0  0  0  0  0  0  0
   -2.1465    1.9092   -0.1762 H   0  0  0  0  0  0  0  0  0  0  0  0
    3.7191    0.0074   -1.2093 H   0  0  0  0  0  0  0  0  0  0  0  0
    5.3702   -1.7547   -1.3848 H   0  0  0  0  0  0  0  0  0  0  0  0
    5.1036   -4.7314   -0.7108 H   0  0  0  0  0  0  0  0  0  0  0  0
    3.1756   -3.9695    1.5740 H   0  0  0  0  0  0  0  0  0  0  0  0
    1.6120   -2.1748    1.7850 H   0  0  0  0  0  0  0  0  0  0  0  0
   -2.0423   -0.7487   -2.3247 H   0  0  0  0  0  0  0  0  0  0  0  0
  1  2  1  0
  2  3  2  0
  3  4  1  0
  4  5  2  0
  5  6  1  0
  5  7  1  0
  7  8  1  0
  8  9  2  0
  8 10  1  0
 10 11  2  0
 11 12  1  0
 12 13  1  0
 13 14  2  0
 14 15  1  0
 15 16  2  0
 16 17  1  0
 17 18  2  0
 15 19  1  0
 19 20  3  0
 11 21  1  0
 21 22  2  0
 22 23  1  0
 23 24  2  0
 24 25  1  0
 24 26  1  0
 26 27  2  0
  7 28  2  0
 28  2  1  0
 18 10  1  0
 27 21  1  0
 18 13  1  0
  1 29  1  0
  3 30  1  0
  4 31  1  0
  6 32  1  0
 12 33  1  0
 14 34  1  0
 16 35  1  0
 17 36  1  0
 22 37  1  0
 23 38  1  0
 25 39  1  0
 26 40  1  0
 27 41  1  0
 28 42  1  0
M  END
$$$$
[H]c1nc(C#Cc2c([H])c(O[C@@]([H])(C([H])([H])[H])C([H])([H])OC([H])([H])[H])c([H])c(C(=O)N([H])c3nn(C([H])([H])[H])c([H])c3[H])c2[H])sc1[H]
     RDKit          3D

 48 50  0  0  0  0  0  0  0  0999 V2000
    0.6078    6.1240    0.1484 C   0  0  0  0  0  0  0  0  0  0  0  0
   -0.7506    6.2200    0.0416 O   0  0  0  0  0  0  0  0  0  0  0  0
   -1.4813    5.0849    0.2323 C   0  0  0  0  0  0  0  0  0  0  0  0
   -1.1591    3.9972   -0.7380 C   0  0  2  0  0  0  0  0  0  0  0  0
   -1.5208    4.5437   -2.1282 C   0  0  0  0  0  0  0  0  0  0  0  0
   -1.8995    2.8390   -0.5669 O   0  0  0  0  0  0  0  0  0  0  0  0
   -1.4429    1.5531   -0.3692 C   0  0  0  0  0  0  0  0  0  0  0  0
   -2.3608    0.5189   -0.2180 C   0  0  0  0  0  0  0  0  0  0  0  0
   -1.9801   -0.7868   -0.0178 C   0  0  0  0  0  0  0  0  0  0  0  0
   -0.6090   -1.0951    0.0372 C   0  0  0  0  0  0  0  0  0  0  0  0
    0.3156   -0.0920   -0.1093 C   0  0  0  0  0  0  0  0  0  0  0  0
   -0.1179    1.1973   -0.3073 C   0  0  0  0  0  0  0  0  0  0  0  0
    1.7434   -0.4364   -0.0454 C   0  0  0  0  0  0  0  0  0  0  0  0
    2.5262    0.5303   -0.2991 O   0  0  0  0  0  0  0  0  0  0  0  0
    2.2254   -1.6928    0.2612 N   0  0  0  0  0  0  0  0  0  0  0  0
    3.5961   -2.0179    0.3210 C   0  0  0  0  0  0  0  0  0  0  0  0
    4.6827   -1.2196    0.1039 C   0  0  0  0  0  0  0  0  0  0  0  0
    5.8169   -2.0158    0.2857 C   0  0  0  0  0  0  0  0  0  0  0  0
    5.4131   -3.2519    0.6017 N   0  0  0  0  0  0  0  0  0  0  0  0
    6.3267   -4.3525    0.8632 C   0  0  0  0  0  0  0  0  0  0  0  0
    4.1141   -3.2427    0.6198 N   0  0  0  0  0  0  0  0  0  0  0  0
   -2.9370   -1.8527    0.1381 C   0  0  0  0  0  0  0  0  0  0  0  0
   -3.7515   -2.7327    0.2579 C   0  0  0  0  0  0  0  0  0  0  0  0
   -4.7560   -3.7794    0.4001 C   0  0  0  0  0  0  0  0  0  0  0  0
   -4.5560   -5.0639    0.6467 N   0  0  0  0  0  0  0  0  0  0  0  0
   -5.5656   -5.8670    0.7438 C   0  0  0  0  0  0  0  0  0  0  0  0
   -6.8213   -5.3365    0.5828 C   0  0  0  0  0  0  0  0  0  0  0  0
   -6.4565   -3.6873    0.2974 S   0  0  0  0  0  0  0  0  0  0  0  0
    1.1042    5.4379   -0.5610 H   0  0  0  0  0  0  0  0  0  0  0  0
    1.0162    7.1452   -0.1118 H   0  0  0  0  0  0  0  0  0  0  0  0
    0.9580    5.8268    1.1607 H   0  0  0  0  0  0  0  0  0  0  0  0
   -1.3232    4.7620    1.2998 H   0  0  0  0  0  0  0  0  0  0  0  0
   -2.5604    5.3754    0.1685 H   0  0  0  0  0  0  0  0  0  0  0  0
   -0.0660    3.8204   -0.7044 H   0  0  0  0  0  0  0  0  0  0  0  0
   -0.6163    4.9991   -2.5643 H   0  0  0  0  0  0  0  0  0  0  0  0
   -2.3790    5.2424   -2.0532 H   0  0  0  0  0  0  0  0  0  0  0  0
   -1.8479    3.7122   -2.7950 H   0  0  0  0  0  0  0  0  0  0  0  0
   -3.4007    0.7784   -0.2636 H   0  0  0  0  0  0  0  0  0  0  0  0
   -0.3760   -2.1348    0.1948 H   0  0  0  0  0  0  0  0  0  0  0  0
    0.6301    1.9570   -0.4179 H   0  0  0  0  0  0  0  0  0  0  0  0
    1.5522   -2.4652    0.4649 H   0  0  0  0  0  0  0  0  0  0  0  0
    4.7385   -0.1936   -0.1540 H   0  0  0  0  0  0  0  0  0  0  0  0
    6.8284   -1.6544    0.1792 H   0  0  0  0  0  0  0  0  0  0  0  0
    6.8101   -4.1782    1.8434 H   0  0  0  0  0  0  0  0  0  0  0  0
    7.1465   -4.3554    0.1096 H   0  0  0  0  0  0  0  0  0  0  0  0
    5.8065   -5.3411    0.8386 H   0  0  0  0  0  0  0  0  0  0  0  0
   -5.4332   -6.9528    0.9504 H   0  0  0  0  0  0  0  0  0  0  0  0
   -7.7897   -5.8670    0.6317 H   0  0  0  0  0  0  0  0  0  0  0  0
  1  2  1  0
  2  3  1  0
  3  4  1  0
  4  5  1  0
  4  6  1  0
  6  7  1  0
  7  8  2  0
  8  9  1  0
  9 10  2  0
 10 11  1  0
 11 12  2  0
 11 13  1  0
 13 14  2  0
 13 15  1  0
 15 16  1  0
 16 17  1  0
 17 18  2  0
 18 19  1  0
 19 20  1  0
 19 21  1  0
  9 22  1  0
 22 23  3  0
 23 24  1  0
 24 25  2  0
 25 26  1  0
 26 27  2  0
 27 28  1  0
 12  7  1  0
 21 16  2  0
 28 24  1  0
  1 29  1  0
  1 30  1  0
  1 31  1  0
  3 32  1  0
  3 33  1  0
  4 34  1  6
  5 35  1  0
  5 36  1  0
  5 37  1  0
  8 38  1  0
 10 39  1  0
 12 40  1  0
 15 41  1  0
 17 42  1  0
 18 43  1  0
 20 44  1  0
 20 45  1  0
 20 46  1  0
 26 47  1  0
 27 48  1  0
M  END
$$$$
[H]C1=C(c2nsnc2OC([H])([H])c2c([H])c([H])c([H])c3c2C([H])([H])C([H])([H])N([H])C([H])([H])C3([H])[H])C([H])([H])N(c2c([H])c([H])c([H])c([H])c2[H])C([H])([H])C1([H])[H]
     RDKit          3D

 56 60  0  0  0  0  0  0  0  0999 V2000
    2.1705    0.6642   -0.7398 C   0  0  0  0  0  0  0  0  0  0  0  0
    0.8083    0.3255   -0.8455 O   0  0  0  0  0  0  0  0  0  0  0  0
   -0.1205    1.2114   -1.4576 C   0  0  0  0  0  0  0  0  0  0  0  0
    0.3765    2.3684   -1.9176 N   0  0  0  0  0  0  0  0  0  0  0  0
   -0.9377    3.1676   -2.5640 S   0  0  0  0  0  0  0  0  0  0  0  0
   -2.1035    2.0215   -2.2417 N   0  0  0  0  0  0  0  0  0  0  0  0
   -1.4529    1.0162   -1.6274 C   0  0  0  0  0  0  0  0  0  0  0  0
   -2.2649   -0.1680   -1.2187 C   0  0  0  0  0  0  0  0  0  0  0  0
   -1.8104   -1.2193   -0.6262 C   0  0  0  0  0  0  0  0  0  0  0  0
   -2.8190   -2.3025   -0.3038 C   0  0  0  0  0  0  0  0  0  0  0  0
   -3.8678   -1.5690    0.5447 C   0  0  0  0  0  0  0  0  0  0  0  0
   -4.4765   -0.5835   -0.3629 N   0  0  0  0  0  0  0  0  0  0  0  0
   -3.7444   -0.1531   -1.5195 C   0  0  0  0  0  0  0  0  0  0  0  0
   -5.7615   -0.1041   -0.0429 C   0  0  0  0  0  0  0  0  0  0  0  0
   -6.4842    0.6933   -0.8987 C   0  0  0  0  0  0  0  0  0  0  0  0
   -7.7485    1.1642   -0.5654 C   0  0  0  0  0  0  0  0  0  0  0  0
   -8.3026    0.8298    0.6515 C   0  0  0  0  0  0  0  0  0  0  0  0
   -7.6050    0.0412    1.5146 C   0  0  0  0  0  0  0  0  0  0  0  0
   -6.3508   -0.4141    1.1609 C   0  0  0  0  0  0  0  0  0  0  0  0
    2.9208   -0.3921   -0.0796 C   0  0  0  0  0  0  0  0  0  0  0  0
    2.3909   -1.5747    0.4143 C   0  0  0  0  0  0  0  0  0  0  0  0
    3.1402   -2.5422    1.0436 C   0  0  0  0  0  0  0  0  0  0  0  0
    4.4961   -2.3513    1.2060 C   0  0  0  0  0  0  0  0  0  0  0  0
    5.0584   -1.1923    0.7301 C   0  0  0  0  0  0  0  0  0  0  0  0
    6.5302   -1.1947    1.0172 C   0  0  0  0  0  0  0  0  0  0  0  0
    7.0620    0.2235    1.0792 C   0  0  0  0  0  0  0  0  0  0  0  0
    6.0309    1.0476    1.6790 N   0  0  0  0  0  0  0  0  0  0  0  0
    5.4661    1.8747    0.6415 C   0  0  0  0  0  0  0  0  0  0  0  0
    4.7945    1.0091   -0.4393 C   0  0  0  0  0  0  0  0  0  0  0  0
    4.2826   -0.2355    0.1007 C   0  0  0  0  0  0  0  0  0  0  0  0
    2.3104    1.6737   -0.2883 H   0  0  0  0  0  0  0  0  0  0  0  0
    2.5291    0.7725   -1.7944 H   0  0  0  0  0  0  0  0  0  0  0  0
   -0.7911   -1.3195   -0.3802 H   0  0  0  0  0  0  0  0  0  0  0  0
   -3.3358   -2.6059   -1.2339 H   0  0  0  0  0  0  0  0  0  0  0  0
   -2.3361   -3.1139    0.2429 H   0  0  0  0  0  0  0  0  0  0  0  0
   -4.6330   -2.2920    0.9003 H   0  0  0  0  0  0  0  0  0  0  0  0
   -3.3665   -1.0724    1.3762 H   0  0  0  0  0  0  0  0  0  0  0  0
   -3.8710   -0.8442   -2.3780 H   0  0  0  0  0  0  0  0  0  0  0  0
   -4.0554    0.8846   -1.7932 H   0  0  0  0  0  0  0  0  0  0  0  0
   -6.0584    0.9516   -1.8430 H   0  0  0  0  0  0  0  0  0  0  0  0
   -8.2445    1.7812   -1.2908 H   0  0  0  0  0  0  0  0  0  0  0  0
   -9.3014    1.2220    0.8748 H   0  0  0  0  0  0  0  0  0  0  0  0
   -8.0719   -0.2008    2.4613 H   0  0  0  0  0  0  0  0  0  0  0  0
   -5.8607   -1.0354    1.9044 H   0  0  0  0  0  0  0  0  0  0  0  0
    1.3455   -1.7542    0.3060 H   0  0  0  0  0  0  0  0  0  0  0  0
    2.6447   -3.4487    1.4050 H   0  0  0  0  0  0  0  0  0  0  0  0
    5.0932   -3.1060    1.6994 H   0  0  0  0  0  0  0  0  0  0  0  0
    7.0087   -1.7756    0.2063 H   0  0  0  0  0  0  0  0  0  0  0  0
    6.7283   -1.7096    1.9799 H   0  0  0  0  0  0  0  0  0  0  0  0
    7.3293    0.5302    0.0560 H   0  0  0  0  0  0  0  0  0  0  0  0
    7.9880    0.2311    1.6984 H   0  0  0  0  0  0  0  0  0  0  0  0
    6.3999    1.6622    2.4104 H   0  0  0  0  0  0  0  0  0  0  0  0
    4.7495    2.6107    1.0591 H   0  0  0  0  0  0  0  0  0  0  0  0
    6.3016    2.4636    0.1982 H   0  0  0  0  0  0  0  0  0  0  0  0
    5.6687    0.7213   -1.1115 H   0  0  0  0  0  0  0  0  0  0  0  0
    4.1510    1.6586   -0.9978 H   0  0  0  0  0  0  0  0  0  0  0  0
  1  2  1  0
  2  3  1  0
  3  4  2  0
  4  5  1  0
  5  6  1  0
  6  7  2  0
  7  8  1  0
  8  9  2  0
  9 10  1  0
 10 11  1  0
 11 12  1  0
 12 13  1  0
 12 14  1  0
 14 15  2  0
 15 16  1  0
 16 17  2  0
 17 18  1  0
 18 19  2  0
  1 20  1  0
 20 21  2  0
 21 22  1  0
 22 23  2  0
 23 24  1  0
 24 25  1  0
 25 26  1  0
 26 27  1  0
 27 28  1  0
 28 29  1  0
 29 30  1  0
  7  3  1  0
 13  8  1  0
 19 14  1  0
 30 20  1  0
 30 24  2  0
  1 31  1  0
  1 32  1  0
  9 33  1  0
 10 34  1  0
 10 35  1  0
 11 36  1  0
 11 37  1  0
 13 38  1  0
 13 39  1  0
 15 40  1  0
 16 41  1  0
 17 42  1  0
 18 43  1  0
 19 44  1  0
 21 45  1  0
 22 46  1  0
 23 47  1  0
 25 48  1  0
 25 49  1  0
 26 50  1  0
 26 51  1  0
 27 52  1  0
 28 53  1  0
 28 54  1  0
 29 55  1  0
 29 56  1  0
M  END
$$$$
[H]c1nc(N([H])c2c([H])c(C([H])([H])[H])c(F)c(C([H])([H])[H])c2[H])nc([C@]2([H])N3C([H])([H])C([H])([H])C([H])(C([H])([H])C3([H])[H])[C@]2([H])C([H])([H])[H])n1
     RDKit          3D

 49 52  0  0  0  0  0  0  0  0999 V2000
   -2.3793    0.3493   -1.5334 C   0  0  0  0  0  0  0  0  0  0  0  0
   -3.1039    0.7195   -0.2916 C   0  0  1  0  0  0  0  0  0  0  0  0
   -4.6293    0.5820   -0.4691 C   0  0  0  0  0  0  0  0  0  0  0  0
   -5.2104    0.6618    0.9252 C   0  0  0  0  0  0  0  0  0  0  0  0
   -4.9180   -0.6338    1.6760 C   0  0  0  0  0  0  0  0  0  0  0  0
   -3.6680   -1.1626    1.0915 N   0  0  0  0  0  0  0  0  0  0  0  0
   -4.0935   -1.7859   -0.1458 C   0  0  0  0  0  0  0  0  0  0  0  0
   -4.8925   -0.8358   -0.9734 C   0  0  0  0  0  0  0  0  0  0  0  0
   -2.7842   -0.0509    0.9386 C   0  0  1  0  0  0  0  0  0  0  0  0
   -1.3645   -0.3750    1.1334 C   0  0  0  0  0  0  0  0  0  0  0  0
   -0.9438   -1.1947    2.0957 N   0  0  0  0  0  0  0  0  0  0  0  0
    0.3913   -1.4429    2.2324 C   0  0  0  0  0  0  0  0  0  0  0  0
    1.2742   -0.8627    1.3999 N   0  0  0  0  0  0  0  0  0  0  0  0
    0.8783   -0.0404    0.4312 C   0  0  0  0  0  0  0  0  0  0  0  0
    1.7697    0.5851   -0.4583 N   0  0  0  0  0  0  0  0  0  0  0  0
    3.1659    0.5031   -0.5149 C   0  0  0  0  0  0  0  0  0  0  0  0
    3.7726    0.8564   -1.7291 C   0  0  0  0  0  0  0  0  0  0  0  0
    5.1191    0.8191   -1.8435 C   0  0  0  0  0  0  0  0  0  0  0  0
    5.7161    1.2073   -3.1657 C   0  0  0  0  0  0  0  0  0  0  0  0
    5.9002    0.4430   -0.7961 C   0  0  0  0  0  0  0  0  0  0  0  0
    7.2423    0.4198   -0.9547 F   0  0  0  0  0  0  0  0  0  0  0  0
    5.3212    0.0930    0.4042 C   0  0  0  0  0  0  0  0  0  0  0  0
    6.1908   -0.3162    1.5402 C   0  0  0  0  0  0  0  0  0  0  0  0
    3.9288    0.1196    0.5608 C   0  0  0  0  0  0  0  0  0  0  0  0
   -0.4506    0.1785    0.3301 N   0  0  0  0  0  0  0  0  0  0  0  0
   -3.0564    0.3736   -2.4448 H   0  0  0  0  0  0  0  0  0  0  0  0
   -1.9234   -0.6447   -1.5683 H   0  0  0  0  0  0  0  0  0  0  0  0
   -1.5661    1.0840   -1.7983 H   0  0  0  0  0  0  0  0  0  0  0  0
   -2.9188    1.8171   -0.1115 H   0  0  0  0  0  0  0  0  0  0  0  0
   -5.0265    1.3374   -1.1447 H   0  0  0  0  0  0  0  0  0  0  0  0
   -4.8336    1.5496    1.4671 H   0  0  0  0  0  0  0  0  0  0  0  0
   -6.3033    0.8143    0.8046 H   0  0  0  0  0  0  0  0  0  0  0  0
   -4.6615   -0.3836    2.7245 H   0  0  0  0  0  0  0  0  0  0  0  0
   -5.7389   -1.3628    1.5878 H   0  0  0  0  0  0  0  0  0  0  0  0
   -4.8171   -2.5988    0.1826 H   0  0  0  0  0  0  0  0  0  0  0  0
   -3.3054   -2.3392   -0.6738 H   0  0  0  0  0  0  0  0  0  0  0  0
   -4.6899   -0.9157   -2.0602 H   0  0  0  0  0  0  0  0  0  0  0  0
   -5.9828   -0.9920   -0.8525 H   0  0  0  0  0  0  0  0  0  0  0  0
   -3.0333    0.6517    1.8048 H   0  0  0  0  0  0  0  0  0  0  0  0
    0.7771   -2.0998    2.9974 H   0  0  0  0  0  0  0  0  0  0  0  0
    1.2974    1.2176   -1.1862 H   0  0  0  0  0  0  0  0  0  0  0  0
    3.1407    1.1595   -2.5770 H   0  0  0  0  0  0  0  0  0  0  0  0
    5.0409    1.9028   -3.6802 H   0  0  0  0  0  0  0  0  0  0  0  0
    6.6901    1.6787   -2.9361 H   0  0  0  0  0  0  0  0  0  0  0  0
    5.8694    0.2956   -3.7831 H   0  0  0  0  0  0  0  0  0  0  0  0
    5.8388    0.1628    2.4850 H   0  0  0  0  0  0  0  0  0  0  0  0
    6.1801   -1.4263    1.6422 H   0  0  0  0  0  0  0  0  0  0  0  0
    7.2199    0.0345    1.3747 H   0  0  0  0  0  0  0  0  0  0  0  0
    3.5701   -0.1527    1.5206 H   0  0  0  0  0  0  0  0  0  0  0  0
  1  2  1  0
  2  3  1  0
  3  4  1  0
  4  5  1  0
  5  6  1  0
  6  7  1  0
  7  8  1  0
  6  9  1  0
  9 10  1  0
 10 11  2  0
 11 12  1  0
 12 13  2  0
 13 14  1  0
 14 15  1  0
 15 16  1  0
 16 17  2  0
 17 18  1  0
 18 19  1  0
 18 20  2  0
 20 21  1  0
 20 22  1  0
 22 23  1  0
 22 24  2  0
 14 25  2  0
  9  2  1  0
 25 10  1  0
  8  3  1  0
 24 16  1  0
  1 26  1  0
  1 27  1  0
  1 28  1  0
  2 29  1  1
  3 30  1  0
  4 31  1  0
  4 32  1  0
  5 33  1  0
  5 34  1  0
  7 35  1  0
  7 36  1  0
  8 37  1  0
  8 38  1  0
  9 39  1  1
 12 40  1  0
 15 41  1  0
 17 42  1  0
 19 43  1  0
 19 44  1  0
 19 45  1  0
 23 46  1  0
 23 47  1  0
 23 48  1  0
 24 49  1  0
M  END
$$$$
[H]c1nc([H])c2c(-c3nc4c([H])c([H])c(N5C([H])([H])C([H])([H])N(C([H])([H])C([H])([H])[H])C([H])([H])C5([H])[H])c([H])c4n3[H])c(C([H])([H])[H])n([H])c2c1[H]
     RDKit          3D

 51 55  0  0  0  0  0  0  0  0999 V2000
    7.3652   -0.0027    0.3342 C   0  0  0  0  0  0  0  0  0  0  0  0
    6.7388    0.8509   -0.7205 C   0  0  0  0  0  0  0  0  0  0  0  0
    5.3191    0.9017   -0.7258 N   0  0  0  0  0  0  0  0  0  0  0  0
    4.7204    1.5605    0.3902 C   0  0  0  0  0  0  0  0  0  0  0  0
    3.9176    0.5335    1.1715 C   0  0  0  0  0  0  0  0  0  0  0  0
    2.8253    0.1309    0.3399 N   0  0  0  0  0  0  0  0  0  0  0  0
    3.2270   -0.3427   -0.9999 C   0  0  0  0  0  0  0  0  0  0  0  0
    4.7417   -0.3606   -1.0494 C   0  0  0  0  0  0  0  0  0  0  0  0
    1.4636    0.1596    0.7142 C   0  0  0  0  0  0  0  0  0  0  0  0
    1.1077    0.5022    1.9855 C   0  0  0  0  0  0  0  0  0  0  0  0
   -0.2413    0.5233    2.3179 C   0  0  0  0  0  0  0  0  0  0  0  0
   -1.1873    0.1975    1.3567 C   0  0  0  0  0  0  0  0  0  0  0  0
   -2.5065    0.1376    1.3987 N   0  0  0  0  0  0  0  0  0  0  0  0
   -3.0411   -0.2253    0.2290 C   0  0  0  0  0  0  0  0  0  0  0  0
   -1.9856   -0.4004   -0.5872 N   0  0  0  0  0  0  0  0  0  0  0  0
   -0.8224   -0.1477    0.0755 C   0  0  0  0  0  0  0  0  0  0  0  0
    0.5135   -0.1675   -0.2507 C   0  0  0  0  0  0  0  0  0  0  0  0
   -4.4660   -0.3895   -0.0546 C   0  0  0  0  0  0  0  0  0  0  0  0
   -5.0519   -0.7748   -1.2282 C   0  0  0  0  0  0  0  0  0  0  0  0
   -4.3958   -1.1296   -2.5246 C   0  0  0  0  0  0  0  0  0  0  0  0
   -6.3860   -0.7982   -1.0637 N   0  0  0  0  0  0  0  0  0  0  0  0
   -6.6953   -0.4367    0.1945 C   0  0  0  0  0  0  0  0  0  0  0  0
   -7.9161   -0.3053    0.8554 C   0  0  0  0  0  0  0  0  0  0  0  0
   -7.9000    0.0912    2.1711 C   0  0  0  0  0  0  0  0  0  0  0  0
   -6.7394    0.3432    2.7960 N   0  0  0  0  0  0  0  0  0  0  0  0
   -5.5601    0.2216    2.1762 C   0  0  0  0  0  0  0  0  0  0  0  0
   -5.4976   -0.1754    0.8454 C   0  0  0  0  0  0  0  0  0  0  0  0
    7.6208    0.6071    1.2523 H   0  0  0  0  0  0  0  0  0  0  0  0
    6.8193   -0.9130    0.5941 H   0  0  0  0  0  0  0  0  0  0  0  0
    8.3804   -0.3413   -0.0316 H   0  0  0  0  0  0  0  0  0  0  0  0
    7.1199    1.9058   -0.5661 H   0  0  0  0  0  0  0  0  0  0  0  0
    7.1297    0.5082   -1.7111 H   0  0  0  0  0  0  0  0  0  0  0  0
    5.3952    2.1479    1.0143 H   0  0  0  0  0  0  0  0  0  0  0  0
    3.9619    2.2885   -0.0275 H   0  0  0  0  0  0  0  0  0  0  0  0
    4.5762   -0.3775    1.2725 H   0  0  0  0  0  0  0  0  0  0  0  0
    3.6938    0.8459    2.1808 H   0  0  0  0  0  0  0  0  0  0  0  0
    2.7818    0.2525   -1.7948 H   0  0  0  0  0  0  0  0  0  0  0  0
    2.9018   -1.4179   -1.0076 H   0  0  0  0  0  0  0  0  0  0  0  0
    5.1279   -1.2244   -0.4867 H   0  0  0  0  0  0  0  0  0  0  0  0
    4.9910   -0.5770   -2.1324 H   0  0  0  0  0  0  0  0  0  0  0  0
    1.8223    0.7676    2.7836 H   0  0  0  0  0  0  0  0  0  0  0  0
   -0.5387    0.7942    3.3274 H   0  0  0  0  0  0  0  0  0  0  0  0
   -1.9796   -0.6801   -1.5722 H   0  0  0  0  0  0  0  0  0  0  0  0
    0.8137   -0.4395   -1.2626 H   0  0  0  0  0  0  0  0  0  0  0  0
   -5.1689   -1.4069   -3.2820 H   0  0  0  0  0  0  0  0  0  0  0  0
   -3.8699   -0.2620   -2.9563 H   0  0  0  0  0  0  0  0  0  0  0  0
   -3.7439   -2.0371   -2.4034 H   0  0  0  0  0  0  0  0  0  0  0  0
   -7.1060   -1.0512   -1.7733 H   0  0  0  0  0  0  0  0  0  0  0  0
   -8.8115   -0.5179    0.3153 H   0  0  0  0  0  0  0  0  0  0  0  0
   -8.8451    0.1961    2.6958 H   0  0  0  0  0  0  0  0  0  0  0  0
   -4.6198    0.4346    2.7094 H   0  0  0  0  0  0  0  0  0  0  0  0
  1  2  1  0
  2  3  1  0
  3  4  1  0
  4  5  1  0
  5  6  1  0
  6  7  1  0
  7  8  1  0
  6  9  1  0
  9 10  2  0
 10 11  1  0
 11 12  2  0
 12 13  1  0
 13 14  2  0
 14 15  1  0
 15 16  1  0
 16 17  2  0
 14 18  1  0
 18 19  2  0
 19 20  1  0
 19 21  1  0
 21 22  1  0
 22 23  2  0
 23 24  1  0
 24 25  2  0
 25 26  1  0
 26 27  2  0
  8  3  1  0
 17  9  1  0
 27 18  1  0
 16 12  1  0
 27 22  1  0
  1 28  1  0
  1 29  1  0
  1 30  1  0
  2 31  1  0
  2 32  1  0
  4 33  1  0
  4 34  1  0
  5 35  1  0
  5 36  1  0
  7 37  1  0
  7 38  1  0
  8 39  1  0
  8 40  1  0
 10 41  1  0
 11 42  1  0
 15 43  1  0
 17 44  1  0
 20 45  1  0
 20 46  1  0
 20 47  1  0
 21 48  1  0
 23 49  1  0
 24 50  1  0
 26 51  1  0
M  END
$$$$
[H]OC1([H])C(=O)C([H])([H])[C@]1([H])N([H])C(=O)C([H])([H])N1C([H])([H])C([H])(N([H])c2c([H])c([H])c([H])c([H])c2[H])C2([H])C([H])([H])C12[H]
     RDKit          3D

 44 47  0  0  0  0  0  0  0  0999 V2000
    4.8178    1.3912   -2.4311 O   0  0  0  0  0  0  0  0  0  0  0  0
    4.9075    1.8812   -1.1406 C   0  0  0  0  0  0  0  0  0  0  0  0
    6.2270    1.7238   -0.4791 C   0  0  0  0  0  0  0  0  0  0  0  0
    7.2831    2.2942   -0.4845 O   0  0  0  0  0  0  0  0  0  0  0  0
    5.7307    0.5065    0.2524 C   0  0  0  0  0  0  0  0  0  0  0  0
    4.3265    0.9655   -0.0686 C   0  0  2  0  0  0  0  0  0  0  0  0
    3.4920   -0.0158   -0.7246 N   0  0  0  0  0  0  0  0  0  0  0  0
    2.1215   -0.0862   -0.3259 C   0  0  0  0  0  0  0  0  0  0  0  0
    1.6615    0.6796    0.5640 O   0  0  0  0  0  0  0  0  0  0  0  0
    1.2437   -1.0839   -0.9830 C   0  0  0  0  0  0  0  0  0  0  0  0
   -0.0625   -1.0036   -0.4499 N   0  0  0  0  0  0  0  0  0  0  0  0
   -0.2609   -1.4341    0.8917 C   0  0  0  0  0  0  0  0  0  0  0  0
   -1.7851   -1.2788    0.9986 C   0  0  0  0  0  0  0  0  0  0  0  0
   -2.2376   -1.9462   -0.2645 C   0  0  0  0  0  0  0  0  0  0  0  0
   -1.4470   -3.0107   -0.9238 C   0  0  0  0  0  0  0  0  0  0  0  0
   -1.0841   -1.6156   -1.2441 C   0  0  0  0  0  0  0  0  0  0  0  0
   -2.0727    0.1330    0.8690 N   0  0  0  0  0  0  0  0  0  0  0  0
   -3.3930    0.6543    0.9846 C   0  0  0  0  0  0  0  0  0  0  0  0
   -3.5880    1.9903    0.7545 C   0  0  0  0  0  0  0  0  0  0  0  0
   -4.8611    2.4989    0.8706 C   0  0  0  0  0  0  0  0  0  0  0  0
   -5.9082    1.6392    1.2178 C   0  0  0  0  0  0  0  0  0  0  0  0
   -5.6757    0.3072    1.4409 C   0  0  0  0  0  0  0  0  0  0  0  0
   -4.3978   -0.2148    1.3269 C   0  0  0  0  0  0  0  0  0  0  0  0
    4.0656    1.8054   -2.9039 H   0  0  0  0  0  0  0  0  0  0  0  0
    4.4791    2.9180   -1.1071 H   0  0  0  0  0  0  0  0  0  0  0  0
    5.9296    0.5133    1.3432 H   0  0  0  0  0  0  0  0  0  0  0  0
    5.9588   -0.4398   -0.2731 H   0  0  0  0  0  0  0  0  0  0  0  0
    3.8122    1.5416    0.7007 H   0  0  0  0  0  0  0  0  0  0  0  0
    3.8352   -0.6628   -1.4599 H   0  0  0  0  0  0  0  0  0  0  0  0
    1.6869   -2.1042   -0.9602 H   0  0  0  0  0  0  0  0  0  0  0  0
    1.1742   -0.8394   -2.0797 H   0  0  0  0  0  0  0  0  0  0  0  0
    0.1577   -0.8300    1.6882 H   0  0  0  0  0  0  0  0  0  0  0  0
    0.0239   -2.4947    1.0679 H   0  0  0  0  0  0  0  0  0  0  0  0
   -2.1850   -1.7170    1.9174 H   0  0  0  0  0  0  0  0  0  0  0  0
   -3.2229   -1.6643   -0.6316 H   0  0  0  0  0  0  0  0  0  0  0  0
   -2.0103   -3.5395   -1.7479 H   0  0  0  0  0  0  0  0  0  0  0  0
   -0.7920   -3.6900   -0.3767 H   0  0  0  0  0  0  0  0  0  0  0  0
   -1.3657   -1.1443   -2.2040 H   0  0  0  0  0  0  0  0  0  0  0  0
   -1.2819    0.7822    0.6857 H   0  0  0  0  0  0  0  0  0  0  0  0
   -2.7351    2.6246    0.4846 H   0  0  0  0  0  0  0  0  0  0  0  0
   -5.0250    3.5500    0.6917 H   0  0  0  0  0  0  0  0  0  0  0  0
   -6.8921    2.0543    1.3030 H   0  0  0  0  0  0  0  0  0  0  0  0
   -6.4625   -0.3793    1.7096 H   0  0  0  0  0  0  0  0  0  0  0  0
   -4.1882   -1.2593    1.5011 H   0  0  0  0  0  0  0  0  0  0  0  0
  1  2  1  0
  2  3  1  0
  3  4  2  0
  3  5  1  0
  5  6  1  0
  6  7  1  0
  7  8  1  0
  8  9  2  0
  8 10  1  0
 10 11  1  0
 11 12  1  0
 12 13  1  0
 13 14  1  0
 14 15  1  0
 15 16  1  0
 13 17  1  0
 17 18  1  0
 18 19  2  0
 19 20  1  0
 20 21  2  0
 21 22  1  0
 22 23  2  0
  6  2  1  0
 16 11  1  0
 23 18  1  0
 16 14  1  0
  1 24  1  0
  2 25  1  0
  5 26  1  0
  5 27  1  0
  6 28  1  1
  7 29  1  0
 10 30  1  0
 10 31  1  0
 12 32  1  0
 12 33  1  0
 13 34  1  0
 14 35  1  0
 15 36  1  0
 15 37  1  0
 16 38  1  0
 17 39  1  0
 19 40  1  0
 20 41  1  0
 21 42  1  0
 22 43  1  0
 23 44  1  0
M  END
$$$$
[H]OC1(C(F)(F)F)c2c([H])c([H])c([H])c([H])c2-c2c(-c3c([H])c(-c4c([H])nn(C([H])([H])[H])c4[H])n(C([H])([H])C(=O)OC([H])([H])[H])c3[H])c([H])c(F)c([H])c21
     RDKit          3D

 54 58  0  0  0  0  0  0  0  0999 V2000
    4.3611   -2.4254   -3.5412 C   0  0  0  0  0  0  0  0  0  0  0  0
    3.5267   -2.5117   -2.3881 O   0  0  0  0  0  0  0  0  0  0  0  0
    3.8831   -1.7950   -1.2194 C   0  0  0  0  0  0  0  0  0  0  0  0
    4.9179   -1.1282   -1.2817 O   0  0  0  0  0  0  0  0  0  0  0  0
    3.0567   -1.8523   -0.0094 C   0  0  0  0  0  0  0  0  0  0  0  0
    1.9960   -0.8644   -0.1187 N   0  0  0  0  0  0  0  0  0  0  0  0
    0.7947   -1.1637   -0.7602 C   0  0  0  0  0  0  0  0  0  0  0  0
   -0.0186   -0.0656   -0.7390 C   0  0  0  0  0  0  0  0  0  0  0  0
    0.7141    0.8892   -0.0772 C   0  0  0  0  0  0  0  0  0  0  0  0
    1.9685    0.3882    0.3084 C   0  0  0  0  0  0  0  0  0  0  0  0
    2.9470    1.1956    1.0547 C   0  0  0  0  0  0  0  0  0  0  0  0
    2.7388    2.5163    1.4596 C   0  0  0  0  0  0  0  0  0  0  0  0
    3.8301    2.9010    2.0986 N   0  0  0  0  0  0  0  0  0  0  0  0
    4.7202    1.9666    2.1478 N   0  0  0  0  0  0  0  0  0  0  0  0
    6.0301    2.0046    2.7545 C   0  0  0  0  0  0  0  0  0  0  0  0
    4.1921    0.8936    1.5032 C   0  0  0  0  0  0  0  0  0  0  0  0
   -1.3289    0.1410   -1.3347 C   0  0  0  0  0  0  0  0  0  0  0  0
   -1.3863    0.4072   -2.7143 C   0  0  0  0  0  0  0  0  0  0  0  0
   -2.5379    0.6933   -3.3882 C   0  0  0  0  0  0  0  0  0  0  0  0
   -2.5392    0.9450   -4.7358 F   0  0  0  0  0  0  0  0  0  0  0  0
   -3.6904    0.7159   -2.6536 C   0  0  0  0  0  0  0  0  0  0  0  0
   -3.7170    0.4592   -1.2730 C   0  0  0  0  0  0  0  0  0  0  0  0
   -2.5094    0.1719   -0.6407 C   0  0  0  0  0  0  0  0  0  0  0  0
   -2.8009   -0.0847    0.7871 C   0  0  0  0  0  0  0  0  0  0  0  0
   -1.9666   -0.4359    1.8371 C   0  0  0  0  0  0  0  0  0  0  0  0
   -2.4916   -0.6496    3.1211 C   0  0  0  0  0  0  0  0  0  0  0  0
   -3.8450   -0.5037    3.3095 C   0  0  0  0  0  0  0  0  0  0  0  0
   -4.6563   -0.1561    2.2562 C   0  0  0  0  0  0  0  0  0  0  0  0
   -4.1580    0.0608    0.9749 C   0  0  0  0  0  0  0  0  0  0  0  0
   -4.7910    0.4255   -0.2996 C   0  0  0  0  0  0  0  0  0  0  0  0
   -5.3392    1.7055   -0.1150 O   0  0  0  0  0  0  0  0  0  0  0  0
   -5.9291   -0.4960   -0.6646 C   0  0  0  0  0  0  0  0  0  0  0  0
   -6.4633   -0.0769   -1.8540 F   0  0  0  0  0  0  0  0  0  0  0  0
   -5.5855   -1.8163   -0.6573 F   0  0  0  0  0  0  0  0  0  0  0  0
   -6.9383   -0.2734    0.2838 F   0  0  0  0  0  0  0  0  0  0  0  0
    5.4177   -2.2229   -3.2607 H   0  0  0  0  0  0  0  0  0  0  0  0
    4.2466   -3.3747   -4.0890 H   0  0  0  0  0  0  0  0  0  0  0  0
    4.0561   -1.5953   -4.1995 H   0  0  0  0  0  0  0  0  0  0  0  0
    2.5143   -2.8617    0.0320 H   0  0  0  0  0  0  0  0  0  0  0  0
    3.6029   -1.8326    0.9300 H   0  0  0  0  0  0  0  0  0  0  0  0
    0.5763   -2.1279   -1.1969 H   0  0  0  0  0  0  0  0  0  0  0  0
    0.3757    1.8966    0.1241 H   0  0  0  0  0  0  0  0  0  0  0  0
    1.8339    3.0758    1.2623 H   0  0  0  0  0  0  0  0  0  0  0  0
    6.6856    1.3228    2.1752 H   0  0  0  0  0  0  0  0  0  0  0  0
    6.4956    3.0078    2.7014 H   0  0  0  0  0  0  0  0  0  0  0  0
    5.9437    1.6995    3.8164 H   0  0  0  0  0  0  0  0  0  0  0  0
    4.7381   -0.0473    1.3833 H   0  0  0  0  0  0  0  0  0  0  0  0
   -0.4638    0.3802   -3.2566 H   0  0  0  0  0  0  0  0  0  0  0  0
   -4.6332    0.9384   -3.1123 H   0  0  0  0  0  0  0  0  0  0  0  0
   -0.9149   -0.5918    1.7825 H   0  0  0  0  0  0  0  0  0  0  0  0
   -1.8639   -0.9230    3.9563 H   0  0  0  0  0  0  0  0  0  0  0  0
   -4.2554   -0.6672    4.2971 H   0  0  0  0  0  0  0  0  0  0  0  0
   -5.7082   -0.0418    2.4053 H   0  0  0  0  0  0  0  0  0  0  0  0
   -5.6317    1.7838    0.8184 H   0  0  0  0  0  0  0  0  0  0  0  0
  1  2  1  0
  2  3  1  0
  3  4  2  0
  3  5  1  0
  5  6  1  0
  6  7  1  0
  7  8  2  0
  8  9  1  0
  9 10  2  0
 10 11  1  0
 11 12  1  0
 12 13  2  0
 13 14  1  0
 14 15  1  0
 14 16  1  0
  8 17  1  0
 17 18  2  0
 18 19  1  0
 19 20  1  0
 19 21  2  0
 21 22  1  0
 22 23  2  0
 23 24  1  0
 24 25  2  0
 25 26  1  0
 26 27  2  0
 27 28  1  0
 28 29  2  0
 29 30  1  0
 30 31  1  0
 30 32  1  0
 32 33  1  0
 32 34  1  0
 32 35  1  0
 10  6  1  0
 16 11  2  0
 23 17  1  0
 29 24  1  0
 30 22  1  0
  1 36  1  0
  1 37  1  0
  1 38  1  0
  5 39  1  0
  5 40  1  0
  7 41  1  0
  9 42  1  0
 12 43  1  0
 15 44  1  0
 15 45  1  0
 15 46  1  0
 16 47  1  0
 18 48  1  0
 21 49  1  0
 25 50  1  0
 26 51  1  0
 27 52  1  0
 28 53  1  0
 31 54  1  0
M  END
$$$$
[H]c1nc([H])c(-c2c([H])c([H])c([H])c([H])c2[H])c(N([H])c2c([H])c([H])c3c(c([H])c([H])n3[H])c2C([H])([H])[H])c1C#N
     RDKit          3D

 41 44  0  0  0  0  0  0  0  0999 V2000
    1.7632   -0.7927    2.1899 C   0  0  0  0  0  0  0  0  0  0  0  0
    1.8684   -0.1933    0.8139 C   0  0  0  0  0  0  0  0  0  0  0  0
    0.9205   -0.4896   -0.1295 C   0  0  0  0  0  0  0  0  0  0  0  0
   -0.1412   -1.3361    0.1595 N   0  0  0  0  0  0  0  0  0  0  0  0
   -1.1765   -1.7259   -0.6965 C   0  0  0  0  0  0  0  0  0  0  0  0
   -1.0337   -2.8860   -1.4361 C   0  0  0  0  0  0  0  0  0  0  0  0
   -2.0350   -3.2800   -2.2971 C   0  0  0  0  0  0  0  0  0  0  0  0
   -3.1524   -2.5463   -2.4258 N   0  0  0  0  0  0  0  0  0  0  0  0
   -3.3360   -1.4269   -1.7386 C   0  0  0  0  0  0  0  0  0  0  0  0
   -2.3280   -1.0038   -0.8531 C   0  0  0  0  0  0  0  0  0  0  0  0
   -2.5212    0.2174   -0.0950 C   0  0  0  0  0  0  0  0  0  0  0  0
   -2.9152    1.3806   -0.7566 C   0  0  0  0  0  0  0  0  0  0  0  0
   -3.1267    2.5701   -0.0953 C   0  0  0  0  0  0  0  0  0  0  0  0
   -2.9546    2.6601    1.2693 C   0  0  0  0  0  0  0  0  0  0  0  0
   -2.5673    1.5309    1.9464 C   0  0  0  0  0  0  0  0  0  0  0  0
   -2.3551    0.3264    1.2650 C   0  0  0  0  0  0  0  0  0  0  0  0
    0.1593   -3.6641   -1.2950 C   0  0  0  0  0  0  0  0  0  0  0  0
    1.1167   -4.2931   -1.1617 N   0  0  0  0  0  0  0  0  0  0  0  0
    1.0467    0.0734   -1.3726 C   0  0  0  0  0  0  0  0  0  0  0  0
    2.1018    0.9240   -1.6844 C   0  0  0  0  0  0  0  0  0  0  0  0
    3.0518    1.2144   -0.7220 C   0  0  0  0  0  0  0  0  0  0  0  0
    4.1465    2.0024   -0.7981 N   0  0  0  0  0  0  0  0  0  0  0  0
    4.7424    1.9459    0.4294 C   0  0  0  0  0  0  0  0  0  0  0  0
    4.0098    1.1244    1.2494 C   0  0  0  0  0  0  0  0  0  0  0  0
    2.9364    0.6508    0.5423 C   0  0  0  0  0  0  0  0  0  0  0  0
    1.6643   -1.8878    2.0416 H   0  0  0  0  0  0  0  0  0  0  0  0
    0.9103   -0.3492    2.7415 H   0  0  0  0  0  0  0  0  0  0  0  0
    2.7181   -0.6394    2.7321 H   0  0  0  0  0  0  0  0  0  0  0  0
   -0.1649   -1.7447    1.1468 H   0  0  0  0  0  0  0  0  0  0  0  0
   -1.9666   -4.1862   -2.8999 H   0  0  0  0  0  0  0  0  0  0  0  0
   -4.2170   -0.8052   -1.8095 H   0  0  0  0  0  0  0  0  0  0  0  0
   -3.0475    1.3008   -1.8249 H   0  0  0  0  0  0  0  0  0  0  0  0
   -3.4346    3.4793   -0.6127 H   0  0  0  0  0  0  0  0  0  0  0  0
   -3.1279    3.6164    1.7769 H   0  0  0  0  0  0  0  0  0  0  0  0
   -2.4299    1.5944    3.0211 H   0  0  0  0  0  0  0  0  0  0  0  0
   -2.0582   -0.5425    1.8352 H   0  0  0  0  0  0  0  0  0  0  0  0
    0.3167   -0.1433   -2.1289 H   0  0  0  0  0  0  0  0  0  0  0  0
    2.2241    1.3788   -2.6517 H   0  0  0  0  0  0  0  0  0  0  0  0
    4.5029    2.5585   -1.6061 H   0  0  0  0  0  0  0  0  0  0  0  0
    5.6552    2.4961    0.6453 H   0  0  0  0  0  0  0  0  0  0  0  0
    4.2344    0.8908    2.2673 H   0  0  0  0  0  0  0  0  0  0  0  0
  1  2  1  0
  2  3  2  0
  3  4  1  0
  4  5  1  0
  5  6  2  0
  6  7  1  0
  7  8  2  0
  8  9  1  0
  9 10  2  0
 10 11  1  0
 11 12  2  0
 12 13  1  0
 13 14  2  0
 14 15  1  0
 15 16  2  0
  6 17  1  0
 17 18  3  0
  3 19  1  0
 19 20  2  0
 20 21  1  0
 21 22  1  0
 22 23  1  0
 23 24  2  0
 24 25  1  0
 25  2  1  0
 10  5  1  0
 16 11  1  0
 25 21  2  0
  1 26  1  0
  1 27  1  0
  1 28  1  0
  4 29  1  0
  7 30  1  0
  9 31  1  0
 12 32  1  0
 13 33  1  0
 14 34  1  0
 15 35  1  0
 16 36  1  0
 19 37  1  0
 20 38  1  0
 22 39  1  0
 23 40  1  0
 24 41  1  0
M  END
$$$$
[H]/C(C(=O)N(c1c(Cl)c([H])c2nc(N([H])c3c([H])c([H])c([H])c(Cl)c3C([H])([H])[H])c3c([H])nc([H])n3c2c1[H])C([H])([H])[H])=C(/[H])C([H])([H])N(C([H])([H])[H])C([H])([H])[H]
     RDKit          3D

 57 60  0  0  0  0  0  0  0  0999 V2000
    7.9987    0.9751   -1.5804 C   0  0  0  0  0  0  0  0  0  0  0  0
    7.9931    0.4103   -0.2433 N   0  0  0  0  0  0  0  0  0  0  0  0
    7.5761    1.3905    0.7459 C   0  0  0  0  0  0  0  0  0  0  0  0
    7.1795   -0.7899   -0.1771 C   0  0  0  0  0  0  0  0  0  0  0  0
    5.7451   -0.4951   -0.3533 C   0  0  0  0  0  0  0  0  0  0  0  0
    4.8655   -0.7796    0.5644 C   0  0  0  0  0  0  0  0  0  0  0  0
    3.4460   -0.4954    0.4067 C   0  0  0  0  0  0  0  0  0  0  0  0
    3.0928    0.0551   -0.6893 O   0  0  0  0  0  0  0  0  0  0  0  0
    2.4823   -0.8002    1.3957 N   0  0  0  0  0  0  0  0  0  0  0  0
    2.9041   -1.4241    2.6230 C   0  0  0  0  0  0  0  0  0  0  0  0
    1.1181   -0.4953    1.1833 C   0  0  0  0  0  0  0  0  0  0  0  0
    0.3677   -1.1572    0.2078 C   0  0  0  0  0  0  0  0  0  0  0  0
   -0.9477   -0.9008   -0.0397 C   0  0  0  0  0  0  0  0  0  0  0  0
   -1.6016    0.0588    0.6965 C   0  0  0  0  0  0  0  0  0  0  0  0
   -0.8918    0.7436    1.6800 C   0  0  0  0  0  0  0  0  0  0  0  0
    0.4391    0.4624    1.9076 C   0  0  0  0  0  0  0  0  0  0  0  0
    1.2783    1.3612    3.1612 Cl  0  0  0  0  0  0  0  0  0  0  0  0
   -2.8750    0.2835    0.4297 N   0  0  0  0  0  0  0  0  0  0  0  0
   -3.6124   -0.3322   -0.4963 C   0  0  0  0  0  0  0  0  0  0  0  0
   -4.9684   -0.0936   -0.7877 N   0  0  0  0  0  0  0  0  0  0  0  0
   -5.8568    0.8102   -0.1993 C   0  0  0  0  0  0  0  0  0  0  0  0
   -5.5757    1.6661    0.8383 C   0  0  0  0  0  0  0  0  0  0  0  0
   -6.5423    2.5247    1.3496 C   0  0  0  0  0  0  0  0  0  0  0  0
   -7.8224    2.5628    0.8473 C   0  0  0  0  0  0  0  0  0  0  0  0
   -8.1301    1.7169   -0.1911 C   0  0  0  0  0  0  0  0  0  0  0  0
   -9.7609    1.7322   -0.8681 Cl  0  0  0  0  0  0  0  0  0  0  0  0
   -7.1659    0.8727   -0.6878 C   0  0  0  0  0  0  0  0  0  0  0  0
   -7.5373   -0.0388   -1.8262 C   0  0  0  0  0  0  0  0  0  0  0  0
   -2.9244   -1.3089   -1.2364 C   0  0  0  0  0  0  0  0  0  0  0  0
   -3.3487   -2.1379   -2.2589 C   0  0  0  0  0  0  0  0  0  0  0  0
   -2.3080   -2.8862   -2.6245 N   0  0  0  0  0  0  0  0  0  0  0  0
   -1.2558   -2.5489   -1.8636 C   0  0  0  0  0  0  0  0  0  0  0  0
   -1.6383   -1.5632   -0.9953 N   0  0  0  0  0  0  0  0  0  0  0  0
    7.1833    1.7034   -1.7295 H   0  0  0  0  0  0  0  0  0  0  0  0
    7.9981    0.1635   -2.3179 H   0  0  0  0  0  0  0  0  0  0  0  0
    8.9475    1.5394   -1.7053 H   0  0  0  0  0  0  0  0  0  0  0  0
    7.1791    0.8394    1.6027 H   0  0  0  0  0  0  0  0  0  0  0  0
    6.8531    2.1146    0.3035 H   0  0  0  0  0  0  0  0  0  0  0  0
    8.4663    1.9829    1.0413 H   0  0  0  0  0  0  0  0  0  0  0  0
    7.5205   -1.4441   -1.0176 H   0  0  0  0  0  0  0  0  0  0  0  0
    7.3986   -1.3005    0.7628 H   0  0  0  0  0  0  0  0  0  0  0  0
    5.4199   -0.0212   -1.2909 H   0  0  0  0  0  0  0  0  0  0  0  0
    5.2006   -1.2495    1.4912 H   0  0  0  0  0  0  0  0  0  0  0  0
    3.7515   -0.9124    3.1043 H   0  0  0  0  0  0  0  0  0  0  0  0
    2.0298   -1.5354    3.3216 H   0  0  0  0  0  0  0  0  0  0  0  0
    3.2280   -2.4673    2.3850 H   0  0  0  0  0  0  0  0  0  0  0  0
    0.8741   -1.9105   -0.3732 H   0  0  0  0  0  0  0  0  0  0  0  0
   -1.4058    1.4971    2.2598 H   0  0  0  0  0  0  0  0  0  0  0  0
   -5.3760   -0.6935   -1.5744 H   0  0  0  0  0  0  0  0  0  0  0  0
   -4.5951    1.6886    1.2813 H   0  0  0  0  0  0  0  0  0  0  0  0
   -6.3244    3.2010    2.1685 H   0  0  0  0  0  0  0  0  0  0  0  0
   -8.5604    3.2348    1.2558 H   0  0  0  0  0  0  0  0  0  0  0  0
   -6.8527    0.2130   -2.6661 H   0  0  0  0  0  0  0  0  0  0  0  0
   -7.4591   -1.0945   -1.5142 H   0  0  0  0  0  0  0  0  0  0  0  0
   -8.5870    0.1359   -2.1360 H   0  0  0  0  0  0  0  0  0  0  0  0
   -4.3642   -2.1223   -2.6405 H   0  0  0  0  0  0  0  0  0  0  0  0
   -0.2488   -2.9411   -1.8738 H   0  0  0  0  0  0  0  0  0  0  0  0
  1  2  1  0
  2  3  1  0
  2  4  1  0
  4  5  1  0
  5  6  2  0
  6  7  1  0
  7  8  2  0
  7  9  1  0
  9 10  1  0
  9 11  1  0
 11 12  2  0
 12 13  1  0
 13 14  2  0
 14 15  1  0
 15 16  2  0
 16 17  1  0
 14 18  1  0
 18 19  2  0
 19 20  1  0
 20 21  1  0
 21 22  2  0
 22 23  1  0
 23 24  2  0
 24 25  1  0
 25 26  1  0
 25 27  2  0
 27 28  1  0
 19 29  1  0
 29 30  2  0
 30 31  1  0
 31 32  2  0
 32 33  1  0
 16 11  1  0
 27 21  1  0
 33 29  1  0
 33 13  1  0
  1 34  1  0
  1 35  1  0
  1 36  1  0
  3 37  1  0
  3 38  1  0
  3 39  1  0
  4 40  1  0
  4 41  1  0
  5 42  1  0
  6 43  1  0
 10 44  1  0
 10 45  1  0
 10 46  1  0
 12 47  1  0
 15 48  1  0
 20 49  1  0
 22 50  1  0
 23 51  1  0
 24 52  1  0
 28 53  1  0
 28 54  1  0
 28 55  1  0
 30 56  1  0
 32 57  1  0
M  END
$$$$
[H]OC(=O)c1c([H])c([H])c2c(c1[H])c([H])c([H])n2S(=O)(=O)c1c([H])nc(-c2c([H])c([H])c([H])c([H])c2C(=O)OC([H])([H])[H])c([H])c1[H]
     RDKit          3D

 47 50  0  0  0  0  0  0  0  0999 V2000
   -3.1943    1.5942   -2.2921 C   0  0  0  0  0  0  0  0  0  0  0  0
   -3.1109    0.5492   -1.3256 O   0  0  0  0  0  0  0  0  0  0  0  0
   -4.0300   -0.4398   -1.1871 C   0  0  0  0  0  0  0  0  0  0  0  0
   -5.0011   -0.3177   -2.0459 O   0  0  0  0  0  0  0  0  0  0  0  0
   -4.1179   -1.5677   -0.2945 C   0  0  0  0  0  0  0  0  0  0  0  0
   -5.1230   -2.5433   -0.5809 C   0  0  0  0  0  0  0  0  0  0  0  0
   -5.2413   -3.7024    0.1184 C   0  0  0  0  0  0  0  0  0  0  0  0
   -4.3601   -3.9486    1.1432 C   0  0  0  0  0  0  0  0  0  0  0  0
   -3.3955   -3.0401    1.4413 C   0  0  0  0  0  0  0  0  0  0  0  0
   -3.2558   -1.8143    0.7182 C   0  0  0  0  0  0  0  0  0  0  0  0
   -2.1788   -0.9422    1.1467 C   0  0  0  0  0  0  0  0  0  0  0  0
   -0.9912   -1.5222    1.6574 C   0  0  0  0  0  0  0  0  0  0  0  0
    0.0751   -0.7603    2.0742 C   0  0  0  0  0  0  0  0  0  0  0  0
    0.0602    0.6094    2.0227 C   0  0  0  0  0  0  0  0  0  0  0  0
   -1.1159    1.1564    1.5165 C   0  0  0  0  0  0  0  0  0  0  0  0
   -2.1391    0.3782    1.1182 N   0  0  0  0  0  0  0  0  0  0  0  0
    1.3761    1.6346    2.5347 S   0  0  0  0  0  0  0  0  0  0  0  0
    2.2150    0.9473    3.5898 O   0  0  0  0  0  0  0  0  0  0  0  0
    0.7942    2.8471    3.2360 O   0  0  0  0  0  0  0  0  0  0  0  0
    2.3088    2.1536    1.2156 N   0  0  0  0  0  0  0  0  0  0  0  0
    2.4192    3.4415    0.8331 C   0  0  0  0  0  0  0  0  0  0  0  0
    3.2115    3.5545   -0.2852 C   0  0  0  0  0  0  0  0  0  0  0  0
    3.5928    2.2745   -0.5845 C   0  0  0  0  0  0  0  0  0  0  0  0
    4.4104    1.8153   -1.6230 C   0  0  0  0  0  0  0  0  0  0  0  0
    4.6698    0.4685   -1.7264 C   0  0  0  0  0  0  0  0  0  0  0  0
    4.1105   -0.3578   -0.8007 C   0  0  0  0  0  0  0  0  0  0  0  0
    3.2993    0.0814    0.2324 C   0  0  0  0  0  0  0  0  0  0  0  0
    3.0301    1.4346    0.3461 C   0  0  0  0  0  0  0  0  0  0  0  0
    5.5211   -0.0275   -2.8048 C   0  0  0  0  0  0  0  0  0  0  0  0
    5.8120   -1.3630   -2.9538 O   0  0  0  0  0  0  0  0  0  0  0  0
    6.0151    0.7735   -3.6358 O   0  0  0  0  0  0  0  0  0  0  0  0
   -2.5706    1.3384   -3.1704 H   0  0  0  0  0  0  0  0  0  0  0  0
   -4.2388    1.7159   -2.6627 H   0  0  0  0  0  0  0  0  0  0  0  0
   -2.8866    2.5578   -1.8708 H   0  0  0  0  0  0  0  0  0  0  0  0
   -5.8118   -2.3239   -1.4001 H   0  0  0  0  0  0  0  0  0  0  0  0
   -6.0236   -4.4384   -0.1214 H   0  0  0  0  0  0  0  0  0  0  0  0
   -4.4551   -4.8739    1.6983 H   0  0  0  0  0  0  0  0  0  0  0  0
   -2.6917   -3.1950    2.2544 H   0  0  0  0  0  0  0  0  0  0  0  0
   -0.9540   -2.5928    1.6924 H   0  0  0  0  0  0  0  0  0  0  0  0
    0.9849   -1.2210    2.4667 H   0  0  0  0  0  0  0  0  0  0  0  0
   -1.1638    2.2447    1.4602 H   0  0  0  0  0  0  0  0  0  0  0  0
    1.9476    4.3060    1.3327 H   0  0  0  0  0  0  0  0  0  0  0  0
    3.5015    4.4373   -0.8453 H   0  0  0  0  0  0  0  0  0  0  0  0
    4.8443    2.4939   -2.3477 H   0  0  0  0  0  0  0  0  0  0  0  0
    4.3108   -1.4176   -0.8760 H   0  0  0  0  0  0  0  0  0  0  0  0
    2.8839   -0.5807    0.9500 H   0  0  0  0  0  0  0  0  0  0  0  0
    6.6568   -1.8179   -2.6385 H   0  0  0  0  0  0  0  0  0  0  0  0
  1  2  1  0
  2  3  1  0
  3  4  2  0
  3  5  1  0
  5  6  2  0
  6  7  1  0
  7  8  2  0
  8  9  1  0
  9 10  2  0
 10 11  1  0
 11 12  2  0
 12 13  1  0
 13 14  2  0
 14 15  1  0
 15 16  2  0
 14 17  1  0
 17 18  2  0
 17 19  2  0
 17 20  1  0
 20 21  1  0
 21 22  2  0
 22 23  1  0
 23 24  2  0
 24 25  1  0
 25 26  2  0
 26 27  1  0
 27 28  2  0
 25 29  1  0
 29 30  1  0
 29 31  2  0
 10  5  1  0
 16 11  1  0
 28 20  1  0
 28 23  1  0
  1 32  1  0
  1 33  1  0
  1 34  1  0
  6 35  1  0
  7 36  1  0
  8 37  1  0
  9 38  1  0
 12 39  1  0
 13 40  1  0
 15 41  1  0
 21 42  1  0
 22 43  1  0
 24 44  1  0
 26 45  1  0
 27 46  1  0
 30 47  1  0
M  END
$$$$
[H]c1c(OS(=O)(=O)C(F)(F)F)c([H])c2c(C([H])([H])C([H])([H])N([H])[H])c([H])n([H])c2c1[H]
     RDKit          3D

 31 32  0  0  0  0  0  0  0  0999 V2000
   -1.6868    1.5186    1.3831 N   0  0  0  0  0  0  0  0  0  0  0  0
   -2.9843    1.2871    0.8171 C   0  0  0  0  0  0  0  0  0  0  0  0
   -2.8602    0.6822   -0.5511 C   0  0  0  0  0  0  0  0  0  0  0  0
   -2.1467   -0.6055   -0.5779 C   0  0  0  0  0  0  0  0  0  0  0  0
   -2.7682   -1.8612   -0.4848 C   0  0  0  0  0  0  0  0  0  0  0  0
   -1.8286   -2.7931   -0.4874 N   0  0  0  0  0  0  0  0  0  0  0  0
   -0.5982   -2.2385   -0.5783 C   0  0  0  0  0  0  0  0  0  0  0  0
    0.6766   -2.7904   -0.6300 C   0  0  0  0  0  0  0  0  0  0  0  0
    1.7503   -1.9369   -0.7426 C   0  0  0  0  0  0  0  0  0  0  0  0
    1.5659   -0.5838   -0.8028 C   0  0  0  0  0  0  0  0  0  0  0  0
    2.6623    0.2815   -0.9194 O   0  0  0  0  0  0  0  0  0  0  0  0
    3.4034    0.8519    0.4943 S   0  0  0  0  0  0  0  0  0  0  0  0
    2.3569    0.9037    1.5703 O   0  0  0  0  0  0  0  0  0  0  0  0
    4.4841   -0.1080    0.9326 O   0  0  0  0  0  0  0  0  0  0  0  0
    4.1200    2.4627    0.2677 C   0  0  0  0  0  0  0  0  0  0  0  0
    4.7018    2.8533    1.4594 F   0  0  0  0  0  0  0  0  0  0  0  0
    3.1666    3.3666   -0.1183 F   0  0  0  0  0  0  0  0  0  0  0  0
    5.1559    2.3541   -0.6529 F   0  0  0  0  0  0  0  0  0  0  0  0
    0.3185   -0.0235   -0.7530 C   0  0  0  0  0  0  0  0  0  0  0  0
   -0.7927   -0.8543   -0.6371 C   0  0  0  0  0  0  0  0  0  0  0  0
   -1.7062    2.4794    1.8366 H   0  0  0  0  0  0  0  0  0  0  0  0
   -1.5724    0.8557    2.2070 H   0  0  0  0  0  0  0  0  0  0  0  0
   -3.5336    2.2751    0.7176 H   0  0  0  0  0  0  0  0  0  0  0  0
   -3.6138    0.6313    1.4944 H   0  0  0  0  0  0  0  0  0  0  0  0
   -3.8683    0.5284   -0.9919 H   0  0  0  0  0  0  0  0  0  0  0  0
   -2.3331    1.3988   -1.2103 H   0  0  0  0  0  0  0  0  0  0  0  0
   -3.8384   -1.9658   -0.4253 H   0  0  0  0  0  0  0  0  0  0  0  0
   -1.9426   -3.8474   -0.4293 H   0  0  0  0  0  0  0  0  0  0  0  0
    0.7992   -3.8558   -0.5815 H   0  0  0  0  0  0  0  0  0  0  0  0
    2.7644   -2.3022   -0.7873 H   0  0  0  0  0  0  0  0  0  0  0  0
    0.1484    1.0363   -0.8190 H   0  0  0  0  0  0  0  0  0  0  0  0
  1  2  1  0
  2  3  1  0
  3  4  1  0
  4  5  2  0
  5  6  1  0
  6  7  1  0
  7  8  2  0
  8  9  1  0
  9 10  2  0
 10 11  1  0
 11 12  1  0
 12 13  2  0
 12 14  2  0
 12 15  1  0
 15 16  1  0
 15 17  1  0
 15 18  1  0
 10 19  1  0
 19 20  2  0
 20  4  1  0
 20  7  1  0
  1 21  1  0
  1 22  1  0
  2 23  1  0
  2 24  1  0
  3 25  1  0
  3 26  1  0
  5 27  1  0
  6 28  1  0
  8 29  1  0
  9 30  1  0
 19 31  1  0
M  END
$$$$
[H]c1c(OC([H])([H])[H])c(OC([H])([H])[H])c(OC([H])([H])[H])c([H])c1N(C([H])([H])[H])C([H])([H])c1nc2c(N([H])[H])nc(N([H])[H])nc2c([H])c1[H]
     RDKit          3D

 49 51  0  0  0  0  0  0  0  0999 V2000
   -5.4611   -1.7153    0.3233 C   0  0  0  0  0  0  0  0  0  0  0  0
   -4.9676   -0.5566   -0.3094 O   0  0  0  0  0  0  0  0  0  0  0  0
   -3.6248   -0.3880   -0.5946 C   0  0  0  0  0  0  0  0  0  0  0  0
   -2.6825   -1.3586   -0.2702 C   0  0  0  0  0  0  0  0  0  0  0  0
   -1.3403   -1.2083   -0.5466 C   0  0  0  0  0  0  0  0  0  0  0  0
   -0.9479   -0.0254   -1.1756 C   0  0  0  0  0  0  0  0  0  0  0  0
   -1.8446    0.9656   -1.5167 C   0  0  0  0  0  0  0  0  0  0  0  0
   -1.4459    2.1177   -2.1319 O   0  0  0  0  0  0  0  0  0  0  0  0
   -0.1168    2.4374   -2.4729 C   0  0  0  0  0  0  0  0  0  0  0  0
   -3.1762    0.7679   -1.2196 C   0  0  0  0  0  0  0  0  0  0  0  0
   -4.0529    1.7883   -1.5781 O   0  0  0  0  0  0  0  0  0  0  0  0
   -4.6190    1.6845   -2.8876 C   0  0  0  0  0  0  0  0  0  0  0  0
   -0.3957   -2.2183   -0.2310 N   0  0  0  0  0  0  0  0  0  0  0  0
   -0.9022   -3.4656    0.3253 C   0  0  0  0  0  0  0  0  0  0  0  0
    1.0121   -2.1011   -0.4069 C   0  0  0  0  0  0  0  0  0  0  0  0
    1.6527   -1.0673    0.4548 C   0  0  0  0  0  0  0  0  0  0  0  0
    1.0063   -0.4692    1.5163 C   0  0  0  0  0  0  0  0  0  0  0  0
    1.6498    0.4939    2.2968 C   0  0  0  0  0  0  0  0  0  0  0  0
    2.9572    0.8741    2.0235 C   0  0  0  0  0  0  0  0  0  0  0  0
    3.6195    1.7927    2.7411 N   0  0  0  0  0  0  0  0  0  0  0  0
    4.8935    2.1580    2.4689 C   0  0  0  0  0  0  0  0  0  0  0  0
    5.5889    3.1352    3.2337 N   0  0  0  0  0  0  0  0  0  0  0  0
    5.5058    1.5533    1.4181 N   0  0  0  0  0  0  0  0  0  0  0  0
    4.8775    0.6274    0.6731 C   0  0  0  0  0  0  0  0  0  0  0  0
    5.5131   -0.0089   -0.4262 N   0  0  0  0  0  0  0  0  0  0  0  0
    3.5677    0.2500    0.9507 C   0  0  0  0  0  0  0  0  0  0  0  0
    2.9200   -0.6675    0.2266 N   0  0  0  0  0  0  0  0  0  0  0  0
   -5.4532   -2.6062   -0.3528 H   0  0  0  0  0  0  0  0  0  0  0  0
   -4.8328   -2.0246    1.1992 H   0  0  0  0  0  0  0  0  0  0  0  0
   -6.4793   -1.5493    0.7233 H   0  0  0  0  0  0  0  0  0  0  0  0
   -2.9956   -2.2780    0.2207 H   0  0  0  0  0  0  0  0  0  0  0  0
    0.0836    0.1016   -1.4021 H   0  0  0  0  0  0  0  0  0  0  0  0
    0.0849    1.8785   -3.4281 H   0  0  0  0  0  0  0  0  0  0  0  0
    0.5778    2.0357   -1.7192 H   0  0  0  0  0  0  0  0  0  0  0  0
    0.0337    3.4963   -2.6991 H   0  0  0  0  0  0  0  0  0  0  0  0
   -4.0244    1.0365   -3.5497 H   0  0  0  0  0  0  0  0  0  0  0  0
   -4.6038    2.7149   -3.3080 H   0  0  0  0  0  0  0  0  0  0  0  0
   -5.6948    1.3888   -2.8428 H   0  0  0  0  0  0  0  0  0  0  0  0
   -1.7818   -3.8100   -0.2949 H   0  0  0  0  0  0  0  0  0  0  0  0
   -1.1608   -3.3329    1.3847 H   0  0  0  0  0  0  0  0  0  0  0  0
   -0.1104   -4.2725    0.2948 H   0  0  0  0  0  0  0  0  0  0  0  0
    1.2870   -1.8442   -1.4742 H   0  0  0  0  0  0  0  0  0  0  0  0
    1.5534   -3.0544   -0.2139 H   0  0  0  0  0  0  0  0  0  0  0  0
   -0.0227   -0.7526    1.7498 H   0  0  0  0  0  0  0  0  0  0  0  0
    1.1746    0.9804    3.1330 H   0  0  0  0  0  0  0  0  0  0  0  0
    6.1863    2.8288    4.0278 H   0  0  0  0  0  0  0  0  0  0  0  0
    5.5063    4.1497    3.0071 H   0  0  0  0  0  0  0  0  0  0  0  0
    6.3129   -0.6392   -0.2856 H   0  0  0  0  0  0  0  0  0  0  0  0
    5.1726    0.1569   -1.3968 H   0  0  0  0  0  0  0  0  0  0  0  0
  1  2  1  0
  2  3  1  0
  3  4  2  0
  4  5  1  0
  5  6  2  0
  6  7  1  0
  7  8  1  0
  8  9  1  0
  7 10  2  0
 10 11  1  0
 11 12  1  0
  5 13  1  0
 13 14  1  0
 13 15  1  0
 15 16  1  0
 16 17  2  0
 17 18  1  0
 18 19  2  0
 19 20  1  0
 20 21  2  0
 21 22  1  0
 21 23  1  0
 23 24  2  0
 24 25  1  0
 24 26  1  0
 26 27  2  0
 10  3  1  0
 27 16  1  0
 26 19  1  0
  1 28  1  0
  1 29  1  0
  1 30  1  0
  4 31  1  0
  6 32  1  0
  9 33  1  0
  9 34  1  0
  9 35  1  0
 12 36  1  0
 12 37  1  0
 12 38  1  0
 14 39  1  0
 14 40  1  0
 14 41  1  0
 15 42  1  0
 15 43  1  0
 17 44  1  0
 18 45  1  0
 22 46  1  0
 22 47  1  0
 25 48  1  0
 25 49  1  0
M  END
$$$$
[H]OC(=O)[C@@]([H])(N([H])C(=O)[C@@]([H])(N([H])C(=O)C1([H])N(C(=O)C([H])([H])C([H])([H])C([H])([H])C([H])([H])C([H])([H])C([H])([H])C([H])([H])C([H])([H])C([H])([H])C([H])([H])C(=O)N([H])O[H])C([H])([H])c2c([H])c([H])c([H])c([H])c2C1([H])[H])C([H])([H])OC(=O)N([H])[H])C([H])([H])c1c([H])n([H])c2c([H])c([H])c([H])c([H])c12
     RDKit          3D

100103  0  0  0  0  0  0  0  0999 V2000
   12.5820    4.0875   -0.7632 O   0  0  0  0  0  0  0  0  0  0  0  0
   11.9776    3.1136   -1.4998 N   0  0  0  0  0  0  0  0  0  0  0  0
   10.7294    2.5590   -1.1206 C   0  0  0  0  0  0  0  0  0  0  0  0
   10.1810    2.9868   -0.0793 O   0  0  0  0  0  0  0  0  0  0  0  0
   10.1303    1.4992   -1.9715 C   0  0  0  0  0  0  0  0  0  0  0  0
    8.7959    1.0403   -1.4086 C   0  0  0  0  0  0  0  0  0  0  0  0
    8.2312   -0.0358   -2.2998 C   0  0  0  0  0  0  0  0  0  0  0  0
    6.8944   -0.5419   -1.8125 C   0  0  0  0  0  0  0  0  0  0  0  0
    7.0767   -1.0948   -0.4417 C   0  0  0  0  0  0  0  0  0  0  0  0
    5.7571   -1.6395    0.1548 C   0  0  0  0  0  0  0  0  0  0  0  0
    5.2122   -2.7364   -0.6822 C   0  0  0  0  0  0  0  0  0  0  0  0
    3.9965   -3.3655   -0.1808 C   0  0  0  0  0  0  0  0  0  0  0  0
    2.7122   -2.7082   -0.0250 C   0  0  0  0  0  0  0  0  0  0  0  0
    2.5278   -1.5405    0.8589 C   0  0  0  0  0  0  0  0  0  0  0  0
    1.0637   -1.1526    0.8837 C   0  0  0  0  0  0  0  0  0  0  0  0
    0.2891   -1.8899    0.2595 O   0  0  0  0  0  0  0  0  0  0  0  0
    0.6404   -0.0239    1.5796 N   0  0  0  0  0  0  0  0  0  0  0  0
    1.7169    0.7277    2.3028 C   0  0  0  0  0  0  0  0  0  0  0  0
    1.1992    0.9943    3.6983 C   0  0  0  0  0  0  0  0  0  0  0  0
    2.0706    1.5698    4.6064 C   0  0  0  0  0  0  0  0  0  0  0  0
    1.7074    1.8532    5.9020 C   0  0  0  0  0  0  0  0  0  0  0  0
    0.4257    1.5484    6.2989 C   0  0  0  0  0  0  0  0  0  0  0  0
   -0.4602    0.9667    5.3853 C   0  0  0  0  0  0  0  0  0  0  0  0
   -0.0791    0.6907    4.0946 C   0  0  0  0  0  0  0  0  0  0  0  0
   -1.0705    0.0713    3.1678 C   0  0  0  0  0  0  0  0  0  0  0  0
   -0.6357    0.5463    1.7719 C   0  0  0  0  0  0  0  0  0  0  0  0
   -1.6523    0.4697    0.7456 C   0  0  0  0  0  0  0  0  0  0  0  0
   -1.4678    0.0192   -0.4196 O   0  0  0  0  0  0  0  0  0  0  0  0
   -2.9497    0.9259    1.0473 N   0  0  0  0  0  0  0  0  0  0  0  0
   -4.1165    0.9483    0.2228 C   0  0  1  0  0  0  0  0  0  0  0  0
   -4.1093    1.9064   -0.9162 C   0  0  0  0  0  0  0  0  0  0  0  0
   -3.1205    1.7115   -1.8856 O   0  0  0  0  0  0  0  0  0  0  0  0
   -3.0744    2.5702   -2.9619 C   0  0  0  0  0  0  0  0  0  0  0  0
   -2.1182    2.4653   -4.0033 N   0  0  0  0  0  0  0  0  0  0  0  0
   -3.9365    3.5046   -3.0220 O   0  0  0  0  0  0  0  0  0  0  0  0
   -4.4405   -0.4130   -0.2845 C   0  0  0  0  0  0  0  0  0  0  0  0
   -3.7561   -1.4092    0.0286 O   0  0  0  0  0  0  0  0  0  0  0  0
   -5.5700   -0.5539   -1.1503 N   0  0  0  0  0  0  0  0  0  0  0  0
   -5.9762   -1.8112   -1.7074 C   0  0  1  0  0  0  0  0  0  0  0  0
   -7.2244   -2.3204   -1.0536 C   0  0  0  0  0  0  0  0  0  0  0  0
   -8.3991   -1.4485   -1.1381 C   0  0  0  0  0  0  0  0  0  0  0  0
   -9.3758   -1.4600   -2.1142 C   0  0  0  0  0  0  0  0  0  0  0  0
  -10.2337   -0.4801   -1.8413 N   0  0  0  0  0  0  0  0  0  0  0  0
   -9.8504    0.1642   -0.7256 C   0  0  0  0  0  0  0  0  0  0  0  0
  -10.4479    1.2353   -0.0647 C   0  0  0  0  0  0  0  0  0  0  0  0
   -9.8804    1.7269    1.0880 C   0  0  0  0  0  0  0  0  0  0  0  0
   -8.7355    1.1593    1.5739 C   0  0  0  0  0  0  0  0  0  0  0  0
   -8.1405    0.0860    0.9067 C   0  0  0  0  0  0  0  0  0  0  0  0
   -8.6877   -0.4220   -0.2473 C   0  0  0  0  0  0  0  0  0  0  0  0
   -6.2147   -1.6753   -3.1761 C   0  0  0  0  0  0  0  0  0  0  0  0
   -6.6291   -2.7644   -3.9331 O   0  0  0  0  0  0  0  0  0  0  0  0
   -6.0427   -0.5653   -3.7517 O   0  0  0  0  0  0  0  0  0  0  0  0
   13.3861    3.6816   -0.3357 H   0  0  0  0  0  0  0  0  0  0  0  0
   12.4970    2.8059   -2.3609 H   0  0  0  0  0  0  0  0  0  0  0  0
    9.9452    1.9014   -2.9752 H   0  0  0  0  0  0  0  0  0  0  0  0
   10.7909    0.6339   -2.0144 H   0  0  0  0  0  0  0  0  0  0  0  0
    8.0634    1.8702   -1.3510 H   0  0  0  0  0  0  0  0  0  0  0  0
    8.9985    0.6944   -0.3932 H   0  0  0  0  0  0  0  0  0  0  0  0
    8.9375   -0.9010   -2.2445 H   0  0  0  0  0  0  0  0  0  0  0  0
    8.1036    0.3211   -3.3409 H   0  0  0  0  0  0  0  0  0  0  0  0
    6.6018   -1.3761   -2.4884 H   0  0  0  0  0  0  0  0  0  0  0  0
    6.1219    0.2590   -1.8029 H   0  0  0  0  0  0  0  0  0  0  0  0
    7.3544   -0.2780    0.2660 H   0  0  0  0  0  0  0  0  0  0  0  0
    7.8536   -1.8787   -0.4124 H   0  0  0  0  0  0  0  0  0  0  0  0
    5.1025   -0.7754    0.1498 H   0  0  0  0  0  0  0  0  0  0  0  0
    6.0334   -1.9880    1.1704 H   0  0  0  0  0  0  0  0  0  0  0  0
    6.0320   -3.5087   -0.8942 H   0  0  0  0  0  0  0  0  0  0  0  0
    4.9965   -2.3718   -1.7453 H   0  0  0  0  0  0  0  0  0  0  0  0
    4.3070   -3.9355    0.7682 H   0  0  0  0  0  0  0  0  0  0  0  0
    3.8171   -4.2800   -0.8766 H   0  0  0  0  0  0  0  0  0  0  0  0
    2.2610   -2.5295   -1.0536 H   0  0  0  0  0  0  0  0  0  0  0  0
    1.9856   -3.5046    0.3796 H   0  0  0  0  0  0  0  0  0  0  0  0
    3.0251   -0.5979    0.5213 H   0  0  0  0  0  0  0  0  0  0  0  0
    2.8978   -1.7638    1.8698 H   0  0  0  0  0  0  0  0  0  0  0  0
    1.8377    1.6580    1.7217 H   0  0  0  0  0  0  0  0  0  0  0  0
    2.6526    0.1907    2.3214 H   0  0  0  0  0  0  0  0  0  0  0  0
    3.0830    1.8162    4.3118 H   0  0  0  0  0  0  0  0  0  0  0  0
    2.4018    2.3080    6.6148 H   0  0  0  0  0  0  0  0  0  0  0  0
    0.1176    1.7619    7.3138 H   0  0  0  0  0  0  0  0  0  0  0  0
   -1.4548    0.7298    5.6902 H   0  0  0  0  0  0  0  0  0  0  0  0
   -2.0910    0.3284    3.3922 H   0  0  0  0  0  0  0  0  0  0  0  0
   -0.9825   -1.0459    3.2187 H   0  0  0  0  0  0  0  0  0  0  0  0
   -0.4650    1.6773    1.9663 H   0  0  0  0  0  0  0  0  0  0  0  0
   -3.0799    1.3262    2.0351 H   0  0  0  0  0  0  0  0  0  0  0  0
   -5.0127    1.2481    0.8829 H   0  0  0  0  0  0  0  0  0  0  0  0
   -3.9422    2.9744   -0.5511 H   0  0  0  0  0  0  0  0  0  0  0  0
   -5.1259    1.9695   -1.3582 H   0  0  0  0  0  0  0  0  0  0  0  0
   -2.4440    2.3076   -4.9738 H   0  0  0  0  0  0  0  0  0  0  0  0
   -1.1082    2.5435   -3.8105 H   0  0  0  0  0  0  0  0  0  0  0  0
   -6.1315    0.2729   -1.4090 H   0  0  0  0  0  0  0  0  0  0  0  0
   -5.1883   -2.6027   -1.5429 H   0  0  0  0  0  0  0  0  0  0  0  0
   -7.0216   -2.5967    0.0145 H   0  0  0  0  0  0  0  0  0  0  0  0
   -7.5159   -3.2901   -1.5403 H   0  0  0  0  0  0  0  0  0  0  0  0
   -9.4245   -2.1366   -2.9349 H   0  0  0  0  0  0  0  0  0  0  0  0
  -11.1081   -0.2099   -2.3948 H   0  0  0  0  0  0  0  0  0  0  0  0
  -11.3629    1.6781   -0.4644 H   0  0  0  0  0  0  0  0  0  0  0  0
  -10.3575    2.5704    1.6018 H   0  0  0  0  0  0  0  0  0  0  0  0
   -8.2627    1.5091    2.4661 H   0  0  0  0  0  0  0  0  0  0  0  0
   -7.2451   -0.3677    1.2957 H   0  0  0  0  0  0  0  0  0  0  0  0
   -7.4023   -2.7081   -4.5993 H   0  0  0  0  0  0  0  0  0  0  0  0
  1  2  1  0
  2  3  1  0
  3  4  2  0
  3  5  1  0
  5  6  1  0
  6  7  1  0
  7  8  1  0
  8  9  1  0
  9 10  1  0
 10 11  1  0
 11 12  1  0
 12 13  1  0
 13 14  1  0
 14 15  1  0
 15 16  2  0
 15 17  1  0
 17 18  1  0
 18 19  1  0
 19 20  2  0
 20 21  1  0
 21 22  2  0
 22 23  1  0
 23 24  2  0
 24 25  1  0
 25 26  1  0
 26 27  1  0
 27 28  2  0
 27 29  1  0
 29 30  1  0
 30 31  1  0
 31 32  1  0
 32 33  1  0
 33 34  1  0
 33 35  2  0
 30 36  1  0
 36 37  2  0
 36 38  1  0
 38 39  1  0
 39 40  1  0
 40 41  1  0
 41 42  2  0
 42 43  1  0
 43 44  1  0
 44 45  2  0
 45 46  1  0
 46 47  2  0
 47 48  1  0
 48 49  2  0
 39 50  1  0
 50 51  1  0
 50 52  2  0
 26 17  1  0
 49 41  1  0
 24 19  1  0
 49 44  1  0
  1 53  1  0
  2 54  1  0
  5 55  1  0
  5 56  1  0
  6 57  1  0
  6 58  1  0
  7 59  1  0
  7 60  1  0
  8 61  1  0
  8 62  1  0
  9 63  1  0
  9 64  1  0
 10 65  1  0
 10 66  1  0
 11 67  1  0
 11 68  1  0
 12 69  1  0
 12 70  1  0
 13 71  1  0
 13 72  1  0
 14 73  1  0
 14 74  1  0
 18 75  1  0
 18 76  1  0
 20 77  1  0
 21 78  1  0
 22 79  1  0
 23 80  1  0
 25 81  1  0
 25 82  1  0
 26 83  1  0
 29 84  1  0
 30 85  1  1
 31 86  1  0
 31 87  1  0
 34 88  1  0
 34 89  1  0
 38 90  1  0
 39 91  1  6
 40 92  1  0
 40 93  1  0
 42 94  1  0
 43 95  1  0
 45 96  1  0
 46 97  1  0
 47 98  1  0
 48 99  1  0
 51100  1  0
M  END
$$$$
[H]c1nn(-c2c([H])c([H])c(Oc3c([H])c([H])c([H])c(F)c3F)c([H])c2F)c(N([H])[H])c1C(=O)c1c([H])c2c([H])c(C(=O)N3C([H])([H])C4(C([H])([H])OC4([H])[H])C3([H])[H])c([H])c([H])c2n1[H]
     RDKit          3D

 64 70  0  0  0  0  0  0  0  0999 V2000
    3.1832   -1.9202    1.4986 N   0  0  0  0  0  0  0  0  0  0  0  0
    2.6175   -1.0751    0.5243 C   0  0  0  0  0  0  0  0  0  0  0  0
    1.2571   -0.7565    0.4857 C   0  0  0  0  0  0  0  0  0  0  0  0
    1.1195    0.0776   -0.5894 C   0  0  0  0  0  0  0  0  0  0  0  0
    2.3429    0.2290   -1.1409 N   0  0  0  0  0  0  0  0  0  0  0  0
    3.2304   -0.4569   -0.4776 N   0  0  0  0  0  0  0  0  0  0  0  0
    4.6254   -0.5496   -0.7606 C   0  0  0  0  0  0  0  0  0  0  0  0
    5.0818   -1.3383   -1.8090 C   0  0  0  0  0  0  0  0  0  0  0  0
    6.4202   -1.4422   -2.1017 C   0  0  0  0  0  0  0  0  0  0  0  0
    7.3806   -0.7530   -1.3497 C   0  0  0  0  0  0  0  0  0  0  0  0
    8.6883   -0.9212   -1.7187 O   0  0  0  0  0  0  0  0  0  0  0  0
    9.7803   -0.2586   -1.1942 C   0  0  0  0  0  0  0  0  0  0  0  0
   10.7785   -0.9600   -0.5531 C   0  0  0  0  0  0  0  0  0  0  0  0
   11.8675   -0.3073   -0.0306 C   0  0  0  0  0  0  0  0  0  0  0  0
   12.0029    1.0623   -0.1268 C   0  0  0  0  0  0  0  0  0  0  0  0
   10.9970    1.7582   -0.7719 C   0  0  0  0  0  0  0  0  0  0  0  0
   11.0997    3.1231   -0.8859 F   0  0  0  0  0  0  0  0  0  0  0  0
    9.8988    1.1167   -1.3008 C   0  0  0  0  0  0  0  0  0  0  0  0
    8.9181    1.8348   -1.9472 F   0  0  0  0  0  0  0  0  0  0  0  0
    6.9213    0.0205   -0.3192 C   0  0  0  0  0  0  0  0  0  0  0  0
    5.5567    0.1254   -0.0224 C   0  0  0  0  0  0  0  0  0  0  0  0
    5.1654    0.9013    1.0032 F   0  0  0  0  0  0  0  0  0  0  0  0
    0.2391   -1.1988    1.3951 C   0  0  0  0  0  0  0  0  0  0  0  0
    0.5583   -1.9254    2.3695 O   0  0  0  0  0  0  0  0  0  0  0  0
   -1.1509   -0.8448    1.2438 C   0  0  0  0  0  0  0  0  0  0  0  0
   -1.8433   -0.7684    0.0663 C   0  0  0  0  0  0  0  0  0  0  0  0
   -3.1578   -0.3872    0.3551 C   0  0  0  0  0  0  0  0  0  0  0  0
   -4.2566   -0.1674   -0.4482 C   0  0  0  0  0  0  0  0  0  0  0  0
   -5.4970    0.2138    0.0804 C   0  0  0  0  0  0  0  0  0  0  0  0
   -5.5262    0.3489    1.4469 C   0  0  0  0  0  0  0  0  0  0  0  0
   -4.4204    0.1287    2.2634 C   0  0  0  0  0  0  0  0  0  0  0  0
   -3.2055   -0.2473    1.7196 C   0  0  0  0  0  0  0  0  0  0  0  0
   -2.0109   -0.5184    2.2650 N   0  0  0  0  0  0  0  0  0  0  0  0
   -6.6218    0.4481   -0.8030 C   0  0  0  0  0  0  0  0  0  0  0  0
   -6.3655    0.3430   -2.0586 O   0  0  0  0  0  0  0  0  0  0  0  0
   -7.9323    0.7712   -0.4138 N   0  0  0  0  0  0  0  0  0  0  0  0
   -9.1276    1.0425   -1.2427 C   0  0  0  0  0  0  0  0  0  0  0  0
   -9.9498    0.8141   -0.0595 C   0  0  0  0  0  0  0  0  0  0  0  0
  -11.1501    1.5996    0.2449 C   0  0  0  0  0  0  0  0  0  0  0  0
  -11.8817    0.3861    0.2736 O   0  0  0  0  0  0  0  0  0  0  0  0
  -10.7453   -0.4318    0.0681 C   0  0  0  0  0  0  0  0  0  0  0  0
   -8.7271    0.9689    0.7733 C   0  0  0  0  0  0  0  0  0  0  0  0
    3.6555   -2.8062    1.2672 H   0  0  0  0  0  0  0  0  0  0  0  0
    3.1331   -1.6542    2.5175 H   0  0  0  0  0  0  0  0  0  0  0  0
    0.2312    0.5519   -0.9556 H   0  0  0  0  0  0  0  0  0  0  0  0
    4.3106   -1.8636   -2.3785 H   0  0  0  0  0  0  0  0  0  0  0  0
    6.7393   -2.0709   -2.9317 H   0  0  0  0  0  0  0  0  0  0  0  0
   10.6754   -2.0583   -0.4730 H   0  0  0  0  0  0  0  0  0  0  0  0
   12.6419   -0.8994    0.4723 H   0  0  0  0  0  0  0  0  0  0  0  0
   12.8697    1.5838    0.2881 H   0  0  0  0  0  0  0  0  0  0  0  0
    7.6068    0.5571    0.2860 H   0  0  0  0  0  0  0  0  0  0  0  0
   -1.5298   -0.9582   -0.9483 H   0  0  0  0  0  0  0  0  0  0  0  0
   -4.1587   -0.2930   -1.5184 H   0  0  0  0  0  0  0  0  0  0  0  0
   -6.4350    0.6458    1.9409 H   0  0  0  0  0  0  0  0  0  0  0  0
   -4.4914    0.2477    3.3367 H   0  0  0  0  0  0  0  0  0  0  0  0
   -1.7193   -0.5029    3.2683 H   0  0  0  0  0  0  0  0  0  0  0  0
   -9.1205    2.0659   -1.6723 H   0  0  0  0  0  0  0  0  0  0  0  0
   -9.2141    0.2252   -1.9874 H   0  0  0  0  0  0  0  0  0  0  0  0
  -11.2142    2.0653    1.2561 H   0  0  0  0  0  0  0  0  0  0  0  0
  -11.5294    2.3271   -0.4995 H   0  0  0  0  0  0  0  0  0  0  0  0
  -10.8181   -0.9841   -0.9096 H   0  0  0  0  0  0  0  0  0  0  0  0
  -10.5516   -1.0680    0.9439 H   0  0  0  0  0  0  0  0  0  0  0  0
   -8.6005    1.9105    1.3061 H   0  0  0  0  0  0  0  0  0  0  0  0
   -8.6415    0.0571    1.4397 H   0  0  0  0  0  0  0  0  0  0  0  0
  1  2  1  0
  2  3  2  0
  3  4  1  0
  4  5  2  0
  5  6  1  0
  6  7  1  0
  7  8  2  0
  8  9  1  0
  9 10  2  0
 10 11  1  0
 11 12  1  0
 12 13  2  0
 13 14  1  0
 14 15  2  0
 15 16  1  0
 16 17  1  0
 16 18  2  0
 18 19  1  0
 10 20  1  0
 20 21  2  0
 21 22  1  0
  3 23  1  0
 23 24  2  0
 23 25  1  0
 25 26  2  0
 26 27  1  0
 27 28  2  0
 28 29  1  0
 29 30  2  0
 30 31  1  0
 31 32  2  0
 32 33  1  0
 29 34  1  0
 34 35  2  0
 34 36  1  0
 36 37  1  0
 37 38  1  0
 38 39  1  0
 39 40  1  0
 40 41  1  0
 38 42  1  0
  6  2  1  0
 21  7  1  0
 33 25  1  0
 42 36  1  0
 18 12  1  0
 32 27  1  0
 41 38  1  0
  1 43  1  0
  1 44  1  0
  4 45  1  0
  8 46  1  0
  9 47  1  0
 13 48  1  0
 14 49  1  0
 15 50  1  0
 20 51  1  0
 26 52  1  0
 28 53  1  0
 30 54  1  0
 31 55  1  0
 33 56  1  0
 37 57  1  0
 37 58  1  0
 39 59  1  0
 39 60  1  0
 41 61  1  0
 41 62  1  0
 42 63  1  0
 42 64  1  0
M  END
$$$$
[H]c1nnn(C2([H])C([H])([H])C([H])([H])C([H])([H])C([H])([H])C2([H])[H])c1[H]
     RDKit          3D

 24 25  0  0  0  0  0  0  0  0999 V2000
   -2.3976   -0.4176   -0.2938 C   0  0  0  0  0  0  0  0  0  0  0  0
   -1.9640    0.9919    0.0313 C   0  0  0  0  0  0  0  0  0  0  0  0
   -0.5593    1.2232   -0.5322 C   0  0  0  0  0  0  0  0  0  0  0  0
    0.2391   -0.0705   -0.3968 C   0  0  0  0  0  0  0  0  0  0  0  0
   -0.2443   -0.7626    0.8379 C   0  0  0  0  0  0  0  0  0  0  0  0
   -1.5772   -1.4251    0.4627 C   0  0  0  0  0  0  0  0  0  0  0  0
    1.6493    0.2074   -0.3908 N   0  0  0  0  0  0  0  0  0  0  0  0
    2.6131   -0.3148    0.3827 C   0  0  0  0  0  0  0  0  0  0  0  0
    3.7939    0.2657    0.0120 C   0  0  0  0  0  0  0  0  0  0  0  0
    3.4849    1.1235   -0.9818 N   0  0  0  0  0  0  0  0  0  0  0  0
    2.1943    1.0982   -1.2347 N   0  0  0  0  0  0  0  0  0  0  0  0
   -3.4824   -0.5133   -0.0170 H   0  0  0  0  0  0  0  0  0  0  0  0
   -2.3474   -0.5440   -1.3837 H   0  0  0  0  0  0  0  0  0  0  0  0
   -2.0098    1.1936    1.1132 H   0  0  0  0  0  0  0  0  0  0  0  0
   -2.6306    1.7138   -0.4648 H   0  0  0  0  0  0  0  0  0  0  0  0
   -0.5829    1.5524   -1.5698 H   0  0  0  0  0  0  0  0  0  0  0  0
   -0.0792    1.9513    0.1634 H   0  0  0  0  0  0  0  0  0  0  0  0
    0.0381   -0.7514   -1.2602 H   0  0  0  0  0  0  0  0  0  0  0  0
   -0.4121    0.0172    1.6257 H   0  0  0  0  0  0  0  0  0  0  0  0
    0.4474   -1.4902    1.2645 H   0  0  0  0  0  0  0  0  0  0  0  0
   -2.0652   -1.8404    1.3431 H   0  0  0  0  0  0  0  0  0  0  0  0
   -1.2906   -2.2198   -0.2887 H   0  0  0  0  0  0  0  0  0  0  0  0
    2.4368   -1.0557    1.1447 H   0  0  0  0  0  0  0  0  0  0  0  0
    4.7458    0.0673    0.4331 H   0  0  0  0  0  0  0  0  0  0  0  0
  1  2  1  0
  2  3  1  0
  3  4  1  0
  4  5  1  0
  5  6  1  0
  4  7  1  0
  7  8  1  0
  8  9  2  0
  9 10  1  0
 10 11  2  0
  6  1  1  0
 11  7  1  0
  1 12  1  0
  1 13  1  0
  2 14  1  0
  2 15  1  0
  3 16  1  0
  3 17  1  0
  4 18  1  0
  5 19  1  0
  5 20  1  0
  6 21  1  0
  6 22  1  0
  8 23  1  0
  9 24  1  0
M  END
$$$$
[H]c1c([H])c(C([H])([H])[C@@]([H])(C(=O)O[C@@]2([H])C([H])([H])N(C(=O)[C@]3([H])C([H])([H])C([H])([H])[C@@]3([H])C([H])([H])[H])[C@]([H])(C(=O)N([H])[C@]([H])(C(=O)N([H])C([H])([H])C([H])([H])C([H])([H])N([H])[H])C([H])([H])C([H])([H])SC([H])([H])[H])C2([H])[H])N([H])C(=O)OC(C([H])([H])[H])(C([H])([H])[H])C([H])([H])[H])c([H])c([H])c1F
     RDKit          3D

 97 99  0  0  0  0  0  0  0  0999 V2000
   -6.4556   -3.7852    1.1713 C   0  0  0  0  0  0  0  0  0  0  0  0
   -6.9681   -2.1782    1.8527 S   0  0  0  0  0  0  0  0  0  0  0  0
   -5.6822   -0.9286    1.5640 C   0  0  0  0  0  0  0  0  0  0  0  0
   -5.5869   -0.6985    0.0809 C   0  0  0  0  0  0  0  0  0  0  0  0
   -4.5188    0.3457   -0.2553 C   0  0  2  0  0  0  0  0  0  0  0  0
   -3.2262   -0.0978    0.2192 N   0  0  0  0  0  0  0  0  0  0  0  0
   -2.2211   -0.6110   -0.6094 C   0  0  0  0  0  0  0  0  0  0  0  0
   -2.4562   -0.6904   -1.8475 O   0  0  0  0  0  0  0  0  0  0  0  0
   -0.9131   -1.0559   -0.0531 C   0  0  2  0  0  0  0  0  0  0  0  0
   -0.1104    0.1230    0.3654 C   0  0  0  0  0  0  0  0  0  0  0  0
    0.9591    0.2519   -0.7145 C   0  0  2  0  0  0  0  0  0  0  0  0
    0.5377   -0.6604   -1.8171 C   0  0  0  0  0  0  0  0  0  0  0  0
   -0.2064   -1.7144   -1.1311 N   0  0  0  0  0  0  0  0  0  0  0  0
   -0.1957   -3.0709   -1.5013 C   0  0  0  0  0  0  0  0  0  0  0  0
    0.4941   -3.4392   -2.4804 O   0  0  0  0  0  0  0  0  0  0  0  0
   -0.9812   -4.1095   -0.7710 C   0  0  2  0  0  0  0  0  0  0  0  0
   -0.6294   -4.2952    0.6787 C   0  0  0  0  0  0  0  0  0  0  0  0
   -0.3125   -5.7341    0.4101 C   0  0  0  0  0  0  0  0  0  0  0  0
   -0.4722   -5.4895   -1.0624 C   0  0  1  0  0  0  0  0  0  0  0  0
   -1.4672   -6.3993   -1.7518 C   0  0  0  0  0  0  0  0  0  0  0  0
    2.2317   -0.0467   -0.2079 O   0  0  0  0  0  0  0  0  0  0  0  0
    3.1816    0.9191   -0.0833 C   0  0  0  0  0  0  0  0  0  0  0  0
    2.8284    2.0987   -0.4399 O   0  0  0  0  0  0  0  0  0  0  0  0
    4.5305    0.7449    0.4083 C   0  0  2  0  0  0  0  0  0  0  0  0
    4.8717   -0.4010    1.2815 C   0  0  0  0  0  0  0  0  0  0  0  0
    4.6630   -1.7169    0.6667 C   0  0  0  0  0  0  0  0  0  0  0  0
    3.5737   -2.5061    0.9004 C   0  0  0  0  0  0  0  0  0  0  0  0
    3.3922   -3.7486    0.2885 C   0  0  0  0  0  0  0  0  0  0  0  0
    4.3239   -4.2430   -0.5961 C   0  0  0  0  0  0  0  0  0  0  0  0
    4.1575   -5.4443   -1.1948 F   0  0  0  0  0  0  0  0  0  0  0  0
    5.4321   -3.4596   -0.8444 C   0  0  0  0  0  0  0  0  0  0  0  0
    5.6009   -2.2385   -0.2366 C   0  0  0  0  0  0  0  0  0  0  0  0
    5.0155    2.0182    0.9729 N   0  0  0  0  0  0  0  0  0  0  0  0
    6.1205    2.7209    0.4331 C   0  0  0  0  0  0  0  0  0  0  0  0
    6.7436    2.2678   -0.5738 O   0  0  0  0  0  0  0  0  0  0  0  0
    6.5810    3.9030    0.9457 O   0  0  0  0  0  0  0  0  0  0  0  0
    7.6403    4.6843    0.5248 C   0  0  0  0  0  0  0  0  0  0  0  0
    7.5366    5.1907   -0.8864 C   0  0  0  0  0  0  0  0  0  0  0  0
    8.9084    3.8600    0.6253 C   0  0  0  0  0  0  0  0  0  0  0  0
    7.8462    5.8880    1.4314 C   0  0  0  0  0  0  0  0  0  0  0  0
   -4.9418    1.6549    0.2389 C   0  0  0  0  0  0  0  0  0  0  0  0
   -4.2548    2.3557    1.0374 O   0  0  0  0  0  0  0  0  0  0  0  0
   -6.1841    2.1760   -0.1914 N   0  0  0  0  0  0  0  0  0  0  0  0
   -6.6205    3.4641    0.2903 C   0  0  0  0  0  0  0  0  0  0  0  0
   -7.9602    3.7994   -0.2994 C   0  0  0  0  0  0  0  0  0  0  0  0
   -8.3790    5.1672    0.2426 C   0  0  0  0  0  0  0  0  0  0  0  0
   -9.6561    5.4691   -0.3299 N   0  0  0  0  0  0  0  0  0  0  0  0
   -6.6677   -4.6187    1.8561 H   0  0  0  0  0  0  0  0  0  0  0  0
   -5.3665   -3.7592    0.9342 H   0  0  0  0  0  0  0  0  0  0  0  0
   -6.9785   -3.9627    0.2206 H   0  0  0  0  0  0  0  0  0  0  0  0
   -4.7336   -1.3425    1.9806 H   0  0  0  0  0  0  0  0  0  0  0  0
   -5.9428   -0.0250    2.1188 H   0  0  0  0  0  0  0  0  0  0  0  0
   -5.3656   -1.6662   -0.4005 H   0  0  0  0  0  0  0  0  0  0  0  0
   -6.5533   -0.2755   -0.2531 H   0  0  0  0  0  0  0  0  0  0  0  0
   -4.4868    0.3620   -1.3615 H   0  0  0  0  0  0  0  0  0  0  0  0
   -3.0565   -0.0209    1.2391 H   0  0  0  0  0  0  0  0  0  0  0  0
   -1.0858   -1.7295    0.8213 H   0  0  0  0  0  0  0  0  0  0  0  0
    0.3363    0.0728    1.3634 H   0  0  0  0  0  0  0  0  0  0  0  0
   -0.7325    1.0617    0.3403 H   0  0  0  0  0  0  0  0  0  0  0  0
    0.9598    1.3036   -1.0614 H   0  0  0  0  0  0  0  0  0  0  0  0
    1.3891   -1.0639   -2.4039 H   0  0  0  0  0  0  0  0  0  0  0  0
   -0.1577   -0.2000   -2.5515 H   0  0  0  0  0  0  0  0  0  0  0  0
   -2.0865   -3.9848   -0.8794 H   0  0  0  0  0  0  0  0  0  0  0  0
    0.3047   -3.7506    0.9973 H   0  0  0  0  0  0  0  0  0  0  0  0
   -1.4757   -4.1214    1.3851 H   0  0  0  0  0  0  0  0  0  0  0  0
    0.6987   -6.0717    0.7268 H   0  0  0  0  0  0  0  0  0  0  0  0
   -1.1248   -6.3949    0.8187 H   0  0  0  0  0  0  0  0  0  0  0  0
    0.5253   -5.4667   -1.5540 H   0  0  0  0  0  0  0  0  0  0  0  0
   -1.3490   -7.4446   -1.4487 H   0  0  0  0  0  0  0  0  0  0  0  0
   -2.4830   -5.9980   -1.5319 H   0  0  0  0  0  0  0  0  0  0  0  0
   -1.2761   -6.3275   -2.8412 H   0  0  0  0  0  0  0  0  0  0  0  0
    5.1817    0.6289   -0.5539 H   0  0  0  0  0  0  0  0  0  0  0  0
    5.9147   -0.3432    1.6837 H   0  0  0  0  0  0  0  0  0  0  0  0
    4.1430   -0.3620    2.1551 H   0  0  0  0  0  0  0  0  0  0  0  0
    2.8124   -2.1549    1.6072 H   0  0  0  0  0  0  0  0  0  0  0  0
    2.5156   -4.3407    0.5084 H   0  0  0  0  0  0  0  0  0  0  0  0
    6.1451   -3.8709   -1.5426 H   0  0  0  0  0  0  0  0  0  0  0  0
    6.4773   -1.6310   -0.4397 H   0  0  0  0  0  0  0  0  0  0  0  0
    4.4776    2.3533    1.7938 H   0  0  0  0  0  0  0  0  0  0  0  0
    6.5919    5.7221   -1.0986 H   0  0  0  0  0  0  0  0  0  0  0  0
    8.3473    5.9730   -0.9885 H   0  0  0  0  0  0  0  0  0  0  0  0
    7.8016    4.4150   -1.6214 H   0  0  0  0  0  0  0  0  0  0  0  0
    8.9736    3.2845   -0.3210 H   0  0  0  0  0  0  0  0  0  0  0  0
    9.8135    4.5007    0.6618 H   0  0  0  0  0  0  0  0  0  0  0  0
    8.8680    3.1268    1.4447 H   0  0  0  0  0  0  0  0  0  0  0  0
    8.8308    6.3302    1.2277 H   0  0  0  0  0  0  0  0  0  0  0  0
    7.0585    6.6339    1.2529 H   0  0  0  0  0  0  0  0  0  0  0  0
    7.8237    5.5311    2.4911 H   0  0  0  0  0  0  0  0  0  0  0  0
   -6.7901    1.6374   -0.8587 H   0  0  0  0  0  0  0  0  0  0  0  0
   -6.7205    3.4126    1.4021 H   0  0  0  0  0  0  0  0  0  0  0  0
   -5.9052    4.2585    0.0306 H   0  0  0  0  0  0  0  0  0  0  0  0
   -8.6804    3.0418    0.0291 H   0  0  0  0  0  0  0  0  0  0  0  0
   -7.8390    3.8744   -1.4005 H   0  0  0  0  0  0  0  0  0  0  0  0
   -7.6416    5.9202   -0.0758 H   0  0  0  0  0  0  0  0  0  0  0  0
   -8.4330    5.1159    1.3529 H   0  0  0  0  0  0  0  0  0  0  0  0
   -9.5303    6.1365   -1.1129 H   0  0  0  0  0  0  0  0  0  0  0  0
  -10.2980    5.8904    0.3869 H   0  0  0  0  0  0  0  0  0  0  0  0
  1  2  1  0
  2  3  1  0
  3  4  1  0
  4  5  1  0
  5  6  1  0
  6  7  1  0
  7  8  2  0
  7  9  1  0
  9 10  1  0
 10 11  1  0
 11 12  1  0
 12 13  1  0
 13 14  1  0
 14 15  2  0
 14 16  1  0
 16 17  1  0
 17 18  1  0
 18 19  1  0
 19 20  1  0
 11 21  1  0
 21 22  1  0
 22 23  2  0
 22 24  1  0
 24 25  1  0
 25 26  1  0
 26 27  2  0
 27 28  1  0
 28 29  2  0
 29 30  1  0
 29 31  1  0
 31 32  2  0
 24 33  1  0
 33 34  1  0
 34 35  2  0
 34 36  1  0
 36 37  1  0
 37 38  1  0
 37 39  1  0
 37 40  1  0
  5 41  1  0
 41 42  2  0
 41 43  1  0
 43 44  1  0
 44 45  1  0
 45 46  1  0
 46 47  1  0
 13  9  1  0
 19 16  1  0
 32 26  1  0
  1 48  1  0
  1 49  1  0
  1 50  1  0
  3 51  1  0
  3 52  1  0
  4 53  1  0
  4 54  1  0
  5 55  1  6
  6 56  1  0
  9 57  1  1
 10 58  1  0
 10 59  1  0
 11 60  1  6
 12 61  1  0
 12 62  1  0
 16 63  1  1
 17 64  1  0
 17 65  1  0
 18 66  1  0
 18 67  1  0
 19 68  1  6
 20 69  1  0
 20 70  1  0
 20 71  1  0
 24 72  1  6
 25 73  1  0
 25 74  1  0
 27 75  1  0
 28 76  1  0
 31 77  1  0
 32 78  1  0
 33 79  1  0
 38 80  1  0
 38 81  1  0
 38 82  1  0
 39 83  1  0
 39 84  1  0
 39 85  1  0
 40 86  1  0
 40 87  1  0
 40 88  1  0
 43 89  1  0
 44 90  1  0
 44 91  1  0
 45 92  1  0
 45 93  1  0
 46 94  1  0
 46 95  1  0
 47 96  1  0
 47 97  1  0
M  END
$$$$
[H]OC(=O)[C@@]([H])(N([H])[H])[C@]([H])(OC([H])([H])c1nc(C2([H])C([H])([H])C([H])([H])C([H])([H])C([H])([H])C2([H])[H])sc1[H])C(=O)N([H])c1c([H])c([H])c(F)c([H])c1[H]
     RDKit          3D

 53 55  0  0  0  0  0  0  0  0999 V2000
   -0.7718   -2.2707    3.1290 N   0  0  0  0  0  0  0  0  0  0  0  0
   -1.6572   -2.1856    1.9351 C   0  0  1  0  0  0  0  0  0  0  0  0
   -1.2728   -0.9155    1.1801 C   0  0  2  0  0  0  0  0  0  0  0  0
   -1.4455    0.1792    2.0598 O   0  0  0  0  0  0  0  0  0  0  0  0
   -0.3129    0.8304    2.4055 C   0  0  0  0  0  0  0  0  0  0  0  0
    0.3767    1.4448    1.1994 C   0  0  0  0  0  0  0  0  0  0  0  0
   -0.0647    2.6131    0.6122 C   0  0  0  0  0  0  0  0  0  0  0  0
    1.0677    2.8239   -0.6427 S   0  0  0  0  0  0  0  0  0  0  0  0
    2.0256    1.4429   -0.3620 C   0  0  0  0  0  0  0  0  0  0  0  0
    1.4333    0.8899    0.6754 N   0  0  0  0  0  0  0  0  0  0  0  0
    3.2504    0.9243   -1.0759 C   0  0  0  0  0  0  0  0  0  0  0  0
    4.3457    0.8969   -0.0097 C   0  0  0  0  0  0  0  0  0  0  0  0
    5.6654    0.8890   -0.7481 C   0  0  0  0  0  0  0  0  0  0  0  0
    5.5402   -0.1379   -1.8578 C   0  0  0  0  0  0  0  0  0  0  0  0
    4.4317   -1.1473   -1.5533 C   0  0  0  0  0  0  0  0  0  0  0  0
    3.0666   -0.4732   -1.5666 C   0  0  0  0  0  0  0  0  0  0  0  0
   -2.1494   -0.6613   -0.0034 C   0  0  0  0  0  0  0  0  0  0  0  0
   -2.0247   -1.4409   -0.9582 O   0  0  0  0  0  0  0  0  0  0  0  0
   -3.0523    0.3953   -0.0192 N   0  0  0  0  0  0  0  0  0  0  0  0
   -3.9475    0.7989   -1.0046 C   0  0  0  0  0  0  0  0  0  0  0  0
   -4.7205    1.9555   -0.8482 C   0  0  0  0  0  0  0  0  0  0  0  0
   -5.6143    2.3817   -1.7923 C   0  0  0  0  0  0  0  0  0  0  0  0
   -5.7870    1.6640   -2.9624 C   0  0  0  0  0  0  0  0  0  0  0  0
   -6.6591    2.0589   -3.9096 F   0  0  0  0  0  0  0  0  0  0  0  0
   -5.0389    0.5408   -3.1183 C   0  0  0  0  0  0  0  0  0  0  0  0
   -4.1358    0.1110   -2.1631 C   0  0  0  0  0  0  0  0  0  0  0  0
   -1.4414   -3.4310    1.1968 C   0  0  0  0  0  0  0  0  0  0  0  0
   -0.3415   -4.2430    1.4922 O   0  0  0  0  0  0  0  0  0  0  0  0
   -2.1828   -3.8798    0.2668 O   0  0  0  0  0  0  0  0  0  0  0  0
   -1.2787   -1.9291    3.9763 H   0  0  0  0  0  0  0  0  0  0  0  0
   -0.4576   -3.2320    3.2996 H   0  0  0  0  0  0  0  0  0  0  0  0
   -2.6815   -2.1435    2.3281 H   0  0  0  0  0  0  0  0  0  0  0  0
   -0.2117   -0.9961    0.9563 H   0  0  0  0  0  0  0  0  0  0  0  0
    0.3675    0.1520    2.9571 H   0  0  0  0  0  0  0  0  0  0  0  0
   -0.5609    1.6842    3.0825 H   0  0  0  0  0  0  0  0  0  0  0  0
   -0.9367    3.2210    0.9159 H   0  0  0  0  0  0  0  0  0  0  0  0
    3.5040    1.6156   -1.9113 H   0  0  0  0  0  0  0  0  0  0  0  0
    4.1762   -0.0089    0.5879 H   0  0  0  0  0  0  0  0  0  0  0  0
    4.2075    1.7894    0.6243 H   0  0  0  0  0  0  0  0  0  0  0  0
    5.7740    1.9114   -1.2060 H   0  0  0  0  0  0  0  0  0  0  0  0
    6.4817    0.6765   -0.0498 H   0  0  0  0  0  0  0  0  0  0  0  0
    5.3728    0.3691   -2.8291 H   0  0  0  0  0  0  0  0  0  0  0  0
    6.4839   -0.7202   -1.8563 H   0  0  0  0  0  0  0  0  0  0  0  0
    4.5022   -1.9229   -2.3477 H   0  0  0  0  0  0  0  0  0  0  0  0
    4.6709   -1.6091   -0.5890 H   0  0  0  0  0  0  0  0  0  0  0  0
    2.4454   -1.0568   -0.8256 H   0  0  0  0  0  0  0  0  0  0  0  0
    2.5608   -0.5623   -2.5352 H   0  0  0  0  0  0  0  0  0  0  0  0
   -3.0558    0.9929    0.8782 H   0  0  0  0  0  0  0  0  0  0  0  0
   -4.5778    2.5143    0.0759 H   0  0  0  0  0  0  0  0  0  0  0  0
   -6.1910    3.2731   -1.6403 H   0  0  0  0  0  0  0  0  0  0  0  0
   -5.1682   -0.0349   -4.0421 H   0  0  0  0  0  0  0  0  0  0  0  0
   -3.6106   -0.7901   -2.4039 H   0  0  0  0  0  0  0  0  0  0  0  0
   -0.3996   -5.2478    1.4680 H   0  0  0  0  0  0  0  0  0  0  0  0
  1  2  1  0
  2  3  1  0
  3  4  1  0
  4  5  1  0
  5  6  1  0
  6  7  2  0
  7  8  1  0
  8  9  1  0
  9 10  2  0
  9 11  1  0
 11 12  1  0
 12 13  1  0
 13 14  1  0
 14 15  1  0
 15 16  1  0
  3 17  1  0
 17 18  2  0
 17 19  1  0
 19 20  1  0
 20 21  2  0
 21 22  1  0
 22 23  2  0
 23 24  1  0
 23 25  1  0
 25 26  2  0
  2 27  1  0
 27 28  1  0
 27 29  2  0
 10  6  1  0
 16 11  1  0
 26 20  1  0
  1 30  1  0
  1 31  1  0
  2 32  1  1
  3 33  1  6
  5 34  1  0
  5 35  1  0
  7 36  1  0
 11 37  1  0
 12 38  1  0
 12 39  1  0
 13 40  1  0
 13 41  1  0
 14 42  1  0
 14 43  1  0
 15 44  1  0
 15 45  1  0
 16 46  1  0
 16 47  1  0
 19 48  1  0
 21 49  1  0
 22 50  1  0
 25 51  1  0
 26 52  1  0
 28 53  1  0
M  END
$$$$
[H]c1c([H])c([H])c(C([H])([H])[C@@]([H])(C(=O)N([H])[C@]([H])(C(=O)N([H])[H])C([H])([H])c2c([H])n([H])c3c([H])c([H])c([H])c([H])c23)N([H])C(=O)C([H])(N([H])C(=O)C2([H])C([H])([H])N(C(=O)C3([H])N([H])C([H])([H])C([H])([H])C3([H])[H])C([H])([H])C([H])([H])C2([H])[H])[C@]([H])(C(=O)N([H])[C@]([H])(c2c([H])c([H])c([H])c([H])c2[H])[C@@]([H])(C([H])([H])[H])S(=O)(=O)C([H])([H])[H])C([H])([H])[H])c([H])c1[H]
     RDKit          2D

121126  0  0  0  0  0  0  0  0999 V2000
    6.7204    9.1985    0.0000 C   0  0  0  0  0  0  0  0  0  0  0  0
    8.1470    8.7350    0.0000 C   0  0  0  0  0  0  0  0  0  0  0  0
    7.6835    7.3084    0.0000 C   0  0  0  0  0  0  0  0  0  0  0  0
    9.1101    6.8449    0.0000 N   0  0  0  0  0  0  0  0  0  0  0  0
   10.2248    7.8485    0.0000 C   0  0  0  0  0  0  0  0  0  0  0  0
   10.0941    9.3428    0.0000 O   0  0  0  0  0  0  0  0  0  0  0  0
   11.6514    7.3850    0.0000 C   0  0  0  0  0  0  0  0  0  0  0  0
   11.8602    8.8704    0.0000 C   0  0  0  0  0  0  0  0  0  0  0  0
   13.2509    9.4323    0.0000 C   0  0  0  0  0  0  0  0  0  0  0  0
   14.4329    8.5088    0.0000 C   0  0  0  0  0  0  0  0  0  0  0  0
   14.2242    7.0234    0.0000 N   0  0  0  0  0  0  0  0  0  0  0  0
   12.8334    6.4615    0.0000 C   0  0  0  0  0  0  0  0  0  0  0  0
   15.4062    6.0999    0.0000 C   0  0  0  0  0  0  0  0  0  0  0  0
   16.7970    6.6619    0.0000 O   0  0  0  0  0  0  0  0  0  0  0  0
   15.1974    4.6145    0.0000 C   0  0  0  0  0  0  0  0  0  0  0  0
   14.6844    3.2050    0.0000 C   0  0  0  0  0  0  0  0  0  0  0  0
   15.8664    2.2815    0.0000 C   0  0  0  0  0  0  0  0  0  0  0  0
   17.1100    3.1203    0.0000 C   0  0  0  0  0  0  0  0  0  0  0  0
   16.6965    4.5622    0.0000 N   0  0  0  0  0  0  0  0  0  0  0  0
    7.2200    5.8818    0.0000 C   0  0  0  0  0  0  0  0  0  0  0  0
    8.0803    4.6530    0.0000 O   0  0  0  0  0  0  0  0  0  0  0  0
    5.7528    5.5699    0.0000 N   0  0  0  0  0  0  0  0  0  0  0  0
    5.2892    4.1433    0.0000 C   0  0  0  0  0  0  0  0  0  0  0  0
    6.7158    3.6798    0.0000 C   0  0  0  0  0  0  0  0  0  0  0  0
    8.1424    3.2163    0.0000 C   0  0  0  0  0  0  0  0  0  0  0  0
    8.4543    1.7491    0.0000 C   0  0  0  0  0  0  0  0  0  0  0  0
    9.8809    1.2855    0.0000 C   0  0  0  0  0  0  0  0  0  0  0  0
   10.9956    2.2892    0.0000 C   0  0  0  0  0  0  0  0  0  0  0  0
   10.6837    3.7565    0.0000 C   0  0  0  0  0  0  0  0  0  0  0  0
    9.2571    4.2200    0.0000 C   0  0  0  0  0  0  0  0  0  0  0  0
    3.8627    4.6069    0.0000 C   0  0  0  0  0  0  0  0  0  0  0  0
    3.7674    5.6962    0.0000 O   0  0  0  0  0  0  0  0  0  0  0  0
    2.7479    3.6032    0.0000 N   0  0  0  0  0  0  0  0  0  0  0  0
    1.3213    4.0667    0.0000 C   0  0  0  0  0  0  0  0  0  0  0  0
    0.8578    2.6401    0.0000 C   0  0  0  0  0  0  0  0  0  0  0  0
    0.3943    1.2135    0.0000 C   0  0  0  0  0  0  0  0  0  0  0  0
    1.2760    0.0000    0.0000 C   0  0  0  0  0  0  0  0  0  0  0  0
    0.3943   -1.2135    0.0000 N   0  0  0  0  0  0  0  0  0  0  0  0
   -1.0323   -0.7500    0.0000 C   0  0  0  0  0  0  0  0  0  0  0  0
   -2.3313   -1.5000    0.0000 C   0  0  0  0  0  0  0  0  0  0  0  0
   -3.6304   -0.7500    0.0000 C   0  0  0  0  0  0  0  0  0  0  0  0
   -3.6304    0.7500    0.0000 C   0  0  0  0  0  0  0  0  0  0  0  0
   -2.3313    1.5000    0.0000 C   0  0  0  0  0  0  0  0  0  0  0  0
   -1.0323    0.7500    0.0000 C   0  0  0  0  0  0  0  0  0  0  0  0
    1.7849    5.4933    0.0000 C   0  0  0  0  0  0  0  0  0  0  0  0
    0.7812    6.6080    0.0000 N   0  0  0  0  0  0  0  0  0  0  0  0
    2.8188    5.8493    0.0000 O   0  0  0  0  0  0  0  0  0  0  0  0
    9.5736    8.2714    0.0000 C   0  0  0  0  0  0  0  0  0  0  0  0
    9.7394    7.4917    0.0000 O   0  0  0  0  0  0  0  0  0  0  0  0
   10.6883    9.2751    0.0000 N   0  0  0  0  0  0  0  0  0  0  0  0
   12.1149    8.8116    0.0000 C   0  0  0  0  0  0  0  0  0  0  0  0
   12.5784   10.2382    0.0000 C   0  0  0  0  0  0  0  0  0  0  0  0
   13.0420   11.6648    0.0000 C   0  0  0  0  0  0  0  0  0  0  0  0
   14.0050    9.7747    0.0000 S   0  0  0  0  0  0  0  0  0  0  0  0
   15.4316    9.3111    0.0000 C   0  0  0  0  0  0  0  0  0  0  0  0
   14.8000   11.0467    0.0000 O   0  0  0  0  0  0  0  0  0  0  0  0
   13.7189    8.3022    0.0000 O   0  0  0  0  0  0  0  0  0  0  0  0
   11.6514    7.3850    0.0000 C   0  0  0  0  0  0  0  0  0  0  0  0
   10.1842    7.0732    0.0000 C   0  0  0  0  0  0  0  0  0  0  0  0
    9.7206    5.6466    0.0000 C   0  0  0  0  0  0  0  0  0  0  0  0
   10.7243    4.5319    0.0000 C   0  0  0  0  0  0  0  0  0  0  0  0
   12.1916    4.8437    0.0000 C   0  0  0  0  0  0  0  0  0  0  0  0
   12.6551    6.2703    0.0000 C   0  0  0  0  0  0  0  0  0  0  0  0
    5.2939    9.6620    0.0000 H   0  0  0  0  0  0  0  0  0  0  0  0
    7.1840   10.6251    0.0000 H   0  0  0  0  0  0  0  0  0  0  0  0
    6.0865    7.8390    0.0000 H   0  0  0  0  0  0  0  0  0  0  0  0
    8.6106   10.1615    0.0000 H   0  0  0  0  0  0  0  0  0  0  0  0
    6.2111    7.5946    0.0000 H   0  0  0  0  0  0  0  0  0  0  0  0
    8.8753    5.3633    0.0000 H   0  0  0  0  0  0  0  0  0  0  0  0
   10.9472    6.0606    0.0000 H   0  0  0  0  0  0  0  0  0  0  0  0
   11.3718   10.2887    0.0000 H   0  0  0  0  0  0  0  0  0  0  0  0
   10.4419    9.3589    0.0000 H   0  0  0  0  0  0  0  0  0  0  0  0
   14.5754   10.1365    0.0000 H   0  0  0  0  0  0  0  0  0  0  0  0
   12.7875   10.8589    0.0000 H   0  0  0  0  0  0  0  0  0  0  0  0
   15.7924    7.8749    0.0000 H   0  0  0  0  0  0  0  0  0  0  0  0
   15.4367    9.6235    0.0000 H   0  0  0  0  0  0  0  0  0  0  0  0
   11.6047    5.6012    0.0000 H   0  0  0  0  0  0  0  0  0  0  0  0
   13.4673    5.1021    0.0000 H   0  0  0  0  0  0  0  0  0  0  0  0
   13.7086    4.7973    0.0000 H   0  0  0  0  0  0  0  0  0  0  0  0
   13.2661    3.6933    0.0000 H   0  0  0  0  0  0  0  0  0  0  0  0
   13.8895    1.9329    0.0000 H   0  0  0  0  0  0  0  0  0  0  0  0
   14.8244    1.2025    0.0000 H   0  0  0  0  0  0  0  0  0  0  0  0
   16.8306    1.1324    0.0000 H   0  0  0  0  0  0  0  0  0  0  0  0
   17.8142    1.7959    0.0000 H   0  0  0  0  0  0  0  0  0  0  0  0
   18.5008    3.6822    0.0000 H   0  0  0  0  0  0  0  0  0  0  0  0
   17.6200    5.7442    0.0000 H   0  0  0  0  0  0  0  0  0  0  0  0
    4.7491    6.6846    0.0000 H   0  0  0  0  0  0  0  0  0  0  0  0
    4.8257    2.7168    0.0000 H   0  0  0  0  0  0  0  0  0  0  0  0
    7.5108    4.9518    0.0000 H   0  0  0  0  0  0  0  0  0  0  0  0
    6.2523    2.2532    0.0000 H   0  0  0  0  0  0  0  0  0  0  0  0
    7.3396    0.7454    0.0000 H   0  0  0  0  0  0  0  0  0  0  0  0
   10.1927   -0.1817    0.0000 H   0  0  0  0  0  0  0  0  0  0  0  0
   12.4222    1.8257    0.0000 H   0  0  0  0  0  0  0  0  0  0  0  0
   12.0841    4.2939    0.0000 H   0  0  0  0  0  0  0  0  0  0  0  0
    8.2928    5.3689    0.0000 H   0  0  0  0  0  0  0  0  0  0  0  0
    3.2363    2.1849    0.0000 H   0  0  0  0  0  0  0  0  0  0  0  0
   -0.1052    4.5302    0.0000 H   0  0  0  0  0  0  0  0  0  0  0  0
    2.2173    2.0061    0.0000 H   0  0  0  0  0  0  0  0  0  0  0  0
   -0.5688    3.1036    0.0000 H   0  0  0  0  0  0  0  0  0  0  0  0
    2.7760    0.0000    0.0000 H   0  0  0  0  0  0  0  0  0  0  0  0
    0.8578   -2.6401    0.0000 H   0  0  0  0  0  0  0  0  0  0  0  0
   -2.3313   -3.0000    0.0000 H   0  0  0  0  0  0  0  0  0  0  0  0
   -4.9294   -1.5000    0.0000 H   0  0  0  0  0  0  0  0  0  0  0  0
   -4.9294    1.5000    0.0000 H   0  0  0  0  0  0  0  0  0  0  0  0
   -2.3313    3.0000    0.0000 H   0  0  0  0  0  0  0  0  0  0  0  0
    1.2447    8.0346    0.0000 H   0  0  0  0  0  0  0  0  0  0  0  0
   -0.6860    6.2961    0.0000 H   0  0  0  0  0  0  0  0  0  0  0  0
   10.1999   10.6934    0.0000 H   0  0  0  0  0  0  0  0  0  0  0  0
   13.4744    8.1776    0.0000 H   0  0  0  0  0  0  0  0  0  0  0  0
   11.3064   11.0331    0.0000 H   0  0  0  0  0  0  0  0  0  0  0  0
   13.5055   13.0914    0.0000 H   0  0  0  0  0  0  0  0  0  0  0  0
   11.6154   12.1283    0.0000 H   0  0  0  0  0  0  0  0  0  0  0  0
   14.5383   11.5602    0.0000 H   0  0  0  0  0  0  0  0  0  0  0  0
   16.8582    8.8476    0.0000 H   0  0  0  0  0  0  0  0  0  0  0  0
   15.8951   10.7377    0.0000 H   0  0  0  0  0  0  0  0  0  0  0  0
   15.1454    7.8387    0.0000 H   0  0  0  0  0  0  0  0  0  0  0  0
    8.9406    7.9119    0.0000 H   0  0  0  0  0  0  0  0  0  0  0  0
    8.2534    5.3347    0.0000 H   0  0  0  0  0  0  0  0  0  0  0  0
   10.6198    3.0355    0.0000 H   0  0  0  0  0  0  0  0  0  0  0  0
   13.0519    3.6150    0.0000 H   0  0  0  0  0  0  0  0  0  0  0  0
   14.1542    6.2179    0.0000 H   0  0  0  0  0  0  0  0  0  0  0  0
  1  2  1  0
  2  3  1  0
  3  4  1  0
  4  5  1  0
  5  6  2  0
  5  7  1  0
  7  8  1  0
  8  9  1  0
  9 10  1  0
 10 11  1  0
 11 12  1  0
 11 13  1  0
 13 14  2  0
 13 15  1  0
 15 16  1  0
 16 17  1  0
 17 18  1  0
 18 19  1  0
  3 20  1  0
 20 21  2  0
 20 22  1  0
 22 23  1  0
 23 24  1  0
 24 25  1  0
 25 26  2  0
 26 27  1  0
 27 28  2  0
 28 29  1  0
 29 30  2  0
 23 31  1  0
 31 32  2  0
 31 33  1  0
 33 34  1  0
 34 35  1  0
 35 36  1  0
 36 37  2  0
 37 38  1  0
 38 39  1  0
 39 40  2  0
 40 41  1  0
 41 42  2  0
 42 43  1  0
 43 44  2  0
 34 45  1  0
 45 46  1  0
 45 47  2  0
  2 48  1  0
 48 49  2  0
 48 50  1  0
 50 51  1  0
 51 52  1  0
 52 53  1  0
 52 54  1  0
 54 55  1  0
 54 56  2  0
 54 57  2  0
 51 58  1  0
 58 59  2  0
 59 60  1  0
 60 61  2  0
 61 62  1  0
 62 63  2  0
 12  7  1  0
 19 15  1  0
 30 25  1  0
 44 36  1  0
 63 58  1  0
 44 39  1  0
  1 64  1  0
  1 65  1  0
  1 66  1  0
  2 67  1  6
  3 68  1  0
  4 69  1  0
  7 70  1  0
  8 71  1  0
  8 72  1  0
  9 73  1  0
  9 74  1  0
 10 75  1  0
 10 76  1  0
 12 77  1  0
 12 78  1  0
 15 79  1  0
 16 80  1  0
 16 81  1  0
 17 82  1  0
 17 83  1  0
 18 84  1  0
 18 85  1  0
 19 86  1  0
 22 87  1  0
 23 88  1  6
 24 89  1  0
 24 90  1  0
 26 91  1  0
 27 92  1  0
 28 93  1  0
 29 94  1  0
 30 95  1  0
 33 96  1  0
 34 97  1  6
 35 98  1  0
 35 99  1  0
 37100  1  0
 38101  1  0
 40102  1  0
 41103  1  0
 42104  1  0
 43105  1  0
 46106  1  0
 46107  1  0
 50108  1  0
 51109  1  6
 52110  1  6
 53111  1  0
 53112  1  0
 53113  1  0
 55114  1  0
 55115  1  0
 55116  1  0
 59117  1  0
 60118  1  0
 61119  1  0
 62120  1  0
 63121  1  0
M  END
$$$$
