[H]c1c([H])c(C(=O)N([H])[C@]2([H])C([H])([H])[C@]3([H])C([H])([H])N(S(=O)(=O)c4c([H])c([H])c(OC([H])([H])[H])c([H])c4[H])C([H])([H])[C@]32[H])c([H])c(C(F)(F)F)c1[H]
     RDKit          3D

 52 55  0  0  0  0  0  0  0  0999 V2000
   -7.3247    3.2365   -0.2484 C   0  0  0  0  0  0  0  0  0  0  0  0
   -7.3766    1.9172   -0.7272 O   0  0  0  0  0  0  0  0  0  0  0  0
   -6.3811    1.0136   -0.4117 C   0  0  0  0  0  0  0  0  0  0  0  0
   -6.4666   -0.2944   -0.9198 C   0  0  0  0  0  0  0  0  0  0  0  0
   -5.5211   -1.2561   -0.6593 C   0  0  0  0  0  0  0  0  0  0  0  0
   -4.4226   -0.9469    0.1407 C   0  0  0  0  0  0  0  0  0  0  0  0
   -4.3081    0.3040    0.6487 C   0  0  0  0  0  0  0  0  0  0  0  0
   -5.2838    1.2731    0.3714 C   0  0  0  0  0  0  0  0  0  0  0  0
   -3.2514   -2.1878    0.4144 S   0  0  0  0  0  0  0  0  0  0  0  0
   -2.7746   -2.0338    1.8511 O   0  0  0  0  0  0  0  0  0  0  0  0
   -3.8790   -3.5589    0.3504 O   0  0  0  0  0  0  0  0  0  0  0  0
   -1.9681   -2.0304   -0.6823 N   0  0  0  0  0  0  0  0  0  0  0  0
   -1.2911   -0.7625   -0.4748 C   0  0  0  0  0  0  0  0  0  0  0  0
    0.1008   -1.1044   -0.8018 C   0  0  1  0  0  0  0  0  0  0  0  0
    1.2986   -0.8562   -0.0564 C   0  0  1  0  0  0  0  0  0  0  0  0
    1.5264   -2.3987   -0.3218 C   0  0  0  0  0  0  0  0  0  0  0  0
    0.1213   -2.4168    0.0484 C   0  0  2  0  0  0  0  0  0  0  0  0
   -0.9682   -3.0704   -0.6240 C   0  0  0  0  0  0  0  0  0  0  0  0
    2.4123   -0.1116   -0.5372 N   0  0  0  0  0  0  0  0  0  0  0  0
    3.3428    0.3679    0.4219 C   0  0  0  0  0  0  0  0  0  0  0  0
    3.1720    0.1366    1.6756 O   0  0  0  0  0  0  0  0  0  0  0  0
    4.5314    1.1273    0.1102 C   0  0  0  0  0  0  0  0  0  0  0  0
    4.4977    2.4952    0.1758 C   0  0  0  0  0  0  0  0  0  0  0  0
    5.6755    3.1556   -0.1109 C   0  0  0  0  0  0  0  0  0  0  0  0
    6.8158    2.4769   -0.4427 C   0  0  0  0  0  0  0  0  0  0  0  0
    6.8416    1.1147   -0.5057 C   0  0  0  0  0  0  0  0  0  0  0  0
    5.6721    0.4213   -0.2231 C   0  0  0  0  0  0  0  0  0  0  0  0
    8.0658    0.3425   -0.8609 C   0  0  0  0  0  0  0  0  0  0  0  0
    7.6710   -0.9026   -1.2760 F   0  0  0  0  0  0  0  0  0  0  0  0
    8.8229    0.9979   -1.8307 F   0  0  0  0  0  0  0  0  0  0  0  0
    8.8047    0.1654    0.2977 F   0  0  0  0  0  0  0  0  0  0  0  0
   -7.8871    3.3655    0.7147 H   0  0  0  0  0  0  0  0  0  0  0  0
   -6.3052    3.6288   -0.0735 H   0  0  0  0  0  0  0  0  0  0  0  0
   -7.7681    3.9562   -0.9958 H   0  0  0  0  0  0  0  0  0  0  0  0
   -7.3123   -0.5339   -1.5355 H   0  0  0  0  0  0  0  0  0  0  0  0
   -5.6447   -2.2642   -1.0793 H   0  0  0  0  0  0  0  0  0  0  0  0
   -3.4844    0.6039    1.2756 H   0  0  0  0  0  0  0  0  0  0  0  0
   -5.1622    2.2633    0.7972 H   0  0  0  0  0  0  0  0  0  0  0  0
   -1.4378   -0.3614    0.5473 H   0  0  0  0  0  0  0  0  0  0  0  0
   -1.6973   -0.0531   -1.2192 H   0  0  0  0  0  0  0  0  0  0  0  0
    0.2327   -1.3145   -1.8715 H   0  0  0  0  0  0  0  0  0  0  0  0
    1.1508   -0.8284    1.0643 H   0  0  0  0  0  0  0  0  0  0  0  0
    1.7989   -2.4743   -1.3749 H   0  0  0  0  0  0  0  0  0  0  0  0
    2.2334   -2.8080    0.4057 H   0  0  0  0  0  0  0  0  0  0  0  0
   -0.0871   -2.1202    1.0817 H   0  0  0  0  0  0  0  0  0  0  0  0
   -1.3718   -3.9033    0.0199 H   0  0  0  0  0  0  0  0  0  0  0  0
   -0.7334   -3.4877   -1.6225 H   0  0  0  0  0  0  0  0  0  0  0  0
    2.5368    0.0751   -1.5392 H   0  0  0  0  0  0  0  0  0  0  0  0
    3.6317    3.0501    0.4248 H   0  0  0  0  0  0  0  0  0  0  0  0
    5.7289    4.2391   -0.0767 H   0  0  0  0  0  0  0  0  0  0  0  0
    7.7365    3.0136   -0.6608 H   0  0  0  0  0  0  0  0  0  0  0  0
    5.6861   -0.6608   -0.2690 H   0  0  0  0  0  0  0  0  0  0  0  0
  1  2  1  0
  2  3  1  0
  3  4  2  0
  4  5  1  0
  5  6  2  0
  6  7  1  0
  7  8  2  0
  6  9  1  0
  9 10  2  0
  9 11  2  0
  9 12  1  0
 12 13  1  0
 13 14  1  0
 14 15  1  0
 15 16  1  0
 16 17  1  0
 17 18  1  0
 15 19  1  0
 19 20  1  0
 20 21  2  0
 20 22  1  0
 22 23  2  0
 23 24  1  0
 24 25  2  0
 25 26  1  0
 26 27  2  0
 26 28  1  0
 28 29  1  0
 28 30  1  0
 28 31  1  0
  8  3  1  0
 18 12  1  0
 27 22  1  0
 17 14  1  0
  1 32  1  0
  1 33  1  0
  1 34  1  0
  4 35  1  0
  5 36  1  0
  7 37  1  0
  8 38  1  0
 13 39  1  0
 13 40  1  0
 14 41  1  6
 15 42  1  1
 16 43  1  0
 16 44  1  0
 17 45  1  1
 18 46  1  0
 18 47  1  0
 19 48  1  0
 23 49  1  0
 24 50  1  0
 25 51  1  0
 27 52  1  0
M  END
$$$$
[H]c1c([H])c(S(=O)(=O)N2C([H])([H])[C@@]3([H])[C@]([H])(c4c([H])n([H])c5c([H])c([H])c([H])c([H])c45)C([H])([H])[C@@]23[H])c([H])c([H])c1OC([H])([H])[H]
     RDKit          3D

 46 50  0  0  0  0  0  0  0  0999 V2000
    7.6563    1.6925    0.3911 C   0  0  0  0  0  0  0  0  0  0  0  0
    7.0897    1.1137   -0.7666 O   0  0  0  0  0  0  0  0  0  0  0  0
    5.8801    0.4112   -0.6559 C   0  0  0  0  0  0  0  0  0  0  0  0
    5.2410    0.2778    0.5486 C   0  0  0  0  0  0  0  0  0  0  0  0
    4.0351   -0.4284    0.6351 C   0  0  0  0  0  0  0  0  0  0  0  0
    3.4691   -1.0010   -0.4829 C   0  0  0  0  0  0  0  0  0  0  0  0
    4.1158   -0.8606   -1.6768 C   0  0  0  0  0  0  0  0  0  0  0  0
    5.3208   -0.1597   -1.7874 C   0  0  0  0  0  0  0  0  0  0  0  0
    1.9808   -1.8767   -0.3497 S   0  0  0  0  0  0  0  0  0  0  0  0
    1.9243   -2.4572    1.0536 O   0  0  0  0  0  0  0  0  0  0  0  0
    1.9754   -3.0708   -1.2733 O   0  0  0  0  0  0  0  0  0  0  0  0
    0.5784   -0.9126   -0.5931 N   0  0  0  0  0  0  0  0  0  0  0  0
    0.4992    0.1364    0.4054 C   0  0  0  0  0  0  0  0  0  0  0  0
   -0.8448   -0.3670    0.7876 C   0  0  1  0  0  0  0  0  0  0  0  0
   -1.9803    0.0327   -0.0816 C   0  0  1  0  0  0  0  0  0  0  0  0
   -1.8802   -1.2966   -0.7718 C   0  0  0  0  0  0  0  0  0  0  0  0
   -0.5991   -1.5805   -0.0713 C   0  0  1  0  0  0  0  0  0  0  0  0
   -3.2555    0.3307    0.6007 C   0  0  0  0  0  0  0  0  0  0  0  0
   -3.4634    0.4239    1.9602 C   0  0  0  0  0  0  0  0  0  0  0  0
   -4.7778    0.7202    2.1876 N   0  0  0  0  0  0  0  0  0  0  0  0
   -5.4254    0.8210    1.0142 C   0  0  0  0  0  0  0  0  0  0  0  0
   -6.7309    1.0924    0.6818 C   0  0  0  0  0  0  0  0  0  0  0  0
   -7.1076    1.1254   -0.6433 C   0  0  0  0  0  0  0  0  0  0  0  0
   -6.1901    0.8888   -1.6494 C   0  0  0  0  0  0  0  0  0  0  0  0
   -4.8900    0.6197   -1.2909 C   0  0  0  0  0  0  0  0  0  0  0  0
   -4.4799    0.5791    0.0237 C   0  0  0  0  0  0  0  0  0  0  0  0
    7.8276    0.8522    1.1211 H   0  0  0  0  0  0  0  0  0  0  0  0
    8.5868    2.2123    0.1506 H   0  0  0  0  0  0  0  0  0  0  0  0
    6.8974    2.3885    0.8069 H   0  0  0  0  0  0  0  0  0  0  0  0
    5.7032    0.7344    1.4129 H   0  0  0  0  0  0  0  0  0  0  0  0
    3.5639   -0.5112    1.5972 H   0  0  0  0  0  0  0  0  0  0  0  0
    3.6696   -1.3110   -2.5565 H   0  0  0  0  0  0  0  0  0  0  0  0
    5.8047   -0.0686   -2.7486 H   0  0  0  0  0  0  0  0  0  0  0  0
    1.2383    0.0783    1.2126 H   0  0  0  0  0  0  0  0  0  0  0  0
    0.4259    1.1654   -0.0286 H   0  0  0  0  0  0  0  0  0  0  0  0
   -1.0450   -0.5527    1.8449 H   0  0  0  0  0  0  0  0  0  0  0  0
   -1.6402    0.8373   -0.7919 H   0  0  0  0  0  0  0  0  0  0  0  0
   -1.7718   -1.2327   -1.8816 H   0  0  0  0  0  0  0  0  0  0  0  0
   -2.6733   -1.9934   -0.4305 H   0  0  0  0  0  0  0  0  0  0  0  0
   -0.4592   -2.5277    0.4310 H   0  0  0  0  0  0  0  0  0  0  0  0
   -2.7675    0.2998    2.7704 H   0  0  0  0  0  0  0  0  0  0  0  0
   -5.2347    0.8540    3.1327 H   0  0  0  0  0  0  0  0  0  0  0  0
   -7.4861    1.2837    1.4231 H   0  0  0  0  0  0  0  0  0  0  0  0
   -8.1416    1.3388   -0.9445 H   0  0  0  0  0  0  0  0  0  0  0  0
   -6.5129    0.9200   -2.6784 H   0  0  0  0  0  0  0  0  0  0  0  0
   -4.1260    0.4259   -2.0386 H   0  0  0  0  0  0  0  0  0  0  0  0
  1  2  1  0
  2  3  1  0
  3  4  2  0
  4  5  1  0
  5  6  2  0
  6  7  1  0
  7  8  2  0
  6  9  1  0
  9 10  2  0
  9 11  2  0
  9 12  1  0
 12 13  1  0
 13 14  1  0
 14 15  1  0
 15 16  1  0
 16 17  1  0
 15 18  1  0
 18 19  2  0
 19 20  1  0
 20 21  1  0
 21 22  2  0
 22 23  1  0
 23 24  2  0
 24 25  1  0
 25 26  2  0
  8  3  1  0
 17 12  1  0
 26 18  1  0
 17 14  1  0
 26 21  1  0
  1 27  1  0
  1 28  1  0
  1 29  1  0
  4 30  1  0
  5 31  1  0
  7 32  1  0
  8 33  1  0
 13 34  1  0
 13 35  1  0
 14 36  1  1
 15 37  1  6
 16 38  1  0
 16 39  1  0
 17 40  1  1
 19 41  1  0
 20 42  1  0
 22 43  1  0
 23 44  1  0
 24 45  1  0
 25 46  1  0
M  END
$$$$
[H]c1c([H])c(S(=O)(=O)N2C([H])([H])[C@@]3([H])[C@]([H])(c4c([H])n([H])c5c([H])c([H])c(C(C([H])([H])[H])(C([H])([H])[H])C([H])([H])[H])c([H])c45)C([H])([H])[C@@]23[H])c([H])c([H])c1OC([H])([H])[H]
     RDKit          3D

 58 62  0  0  0  0  0  0  0  0999 V2000
    7.4390   -4.3143    0.8033 C   0  0  0  0  0  0  0  0  0  0  0  0
    7.6540   -3.1063    0.0480 O   0  0  0  0  0  0  0  0  0  0  0  0
    6.7112   -2.1029    0.2113 C   0  0  0  0  0  0  0  0  0  0  0  0
    5.6401   -2.2487    1.1142 C   0  0  0  0  0  0  0  0  0  0  0  0
    4.6976   -1.2541    1.2735 C   0  0  0  0  0  0  0  0  0  0  0  0
    4.7779   -0.0521    0.5281 C   0  0  0  0  0  0  0  0  0  0  0  0
    5.8188    0.0859   -0.3507 C   0  0  0  0  0  0  0  0  0  0  0  0
    6.7400   -0.9361   -0.4724 C   0  0  0  0  0  0  0  0  0  0  0  0
    3.5570    1.1841    0.7330 S   0  0  0  0  0  0  0  0  0  0  0  0
    4.2832    2.4987    0.7432 O   0  0  0  0  0  0  0  0  0  0  0  0
    3.0259    1.0372    2.1631 O   0  0  0  0  0  0  0  0  0  0  0  0
    2.3847    0.9900   -0.3664 N   0  0  0  0  0  0  0  0  0  0  0  0
    1.5057   -0.0895   -0.5518 C   0  0  0  0  0  0  0  0  0  0  0  0
    0.6284    0.8937   -1.3620 C   0  0  1  0  0  0  0  0  0  0  0  0
   -0.3371    1.6151   -0.4973 C   0  0  1  0  0  0  0  0  0  0  0  0
    0.6732    2.8077   -0.6157 C   0  0  0  0  0  0  0  0  0  0  0  0
    1.7082    1.8979   -1.1581 C   0  0  1  0  0  0  0  0  0  0  0  0
   -1.5827    2.0640   -1.1457 C   0  0  0  0  0  0  0  0  0  0  0  0
   -1.7406    3.0426   -2.0774 C   0  0  0  0  0  0  0  0  0  0  0  0
   -3.0648    3.2494   -2.2551 N   0  0  0  0  0  0  0  0  0  0  0  0
   -3.7945    2.4177   -1.4599 C   0  0  0  0  0  0  0  0  0  0  0  0
   -5.1530    2.1436   -1.3323 C   0  0  0  0  0  0  0  0  0  0  0  0
   -5.5641    1.0890   -0.4961 C   0  0  0  0  0  0  0  0  0  0  0  0
   -4.6088    0.3570    0.1852 C   0  0  0  0  0  0  0  0  0  0  0  0
   -3.2560    0.6543    0.0449 C   0  0  0  0  0  0  0  0  0  0  0  0
   -2.8448    1.6919   -0.7801 C   0  0  0  0  0  0  0  0  0  0  0  0
   -4.9590   -0.8516    0.9635 C   0  0  0  0  0  0  0  0  0  0  0  0
   -6.4235   -1.2353    0.7273 C   0  0  0  0  0  0  0  0  0  0  0  0
   -4.1729   -2.0600    0.3856 C   0  0  0  0  0  0  0  0  0  0  0  0
   -4.7327   -0.7639    2.4413 C   0  0  0  0  0  0  0  0  0  0  0  0
    8.1085   -5.1315    0.5501 H   0  0  0  0  0  0  0  0  0  0  0  0
    7.3995   -4.0125    1.8654 H   0  0  0  0  0  0  0  0  0  0  0  0
    6.3779   -4.6490    0.5417 H   0  0  0  0  0  0  0  0  0  0  0  0
    5.6105   -3.1757    1.6733 H   0  0  0  0  0  0  0  0  0  0  0  0
    3.8812   -1.4020    1.9547 H   0  0  0  0  0  0  0  0  0  0  0  0
    5.8926    1.0147   -0.9250 H   0  0  0  0  0  0  0  0  0  0  0  0
    7.5490   -0.7690   -1.2095 H   0  0  0  0  0  0  0  0  0  0  0  0
    1.7466   -0.9641   -1.1317 H   0  0  0  0  0  0  0  0  0  0  0  0
    0.9379   -0.3943    0.3870 H   0  0  0  0  0  0  0  0  0  0  0  0
    0.3620    0.5919   -2.3591 H   0  0  0  0  0  0  0  0  0  0  0  0
   -0.3444    1.3615    0.5710 H   0  0  0  0  0  0  0  0  0  0  0  0
    0.3480    3.4989   -1.4169 H   0  0  0  0  0  0  0  0  0  0  0  0
    0.8369    3.3688    0.2908 H   0  0  0  0  0  0  0  0  0  0  0  0
    2.2215    2.2002   -2.1012 H   0  0  0  0  0  0  0  0  0  0  0  0
   -1.0282    3.6223   -2.6424 H   0  0  0  0  0  0  0  0  0  0  0  0
   -3.5056    3.9416   -2.8978 H   0  0  0  0  0  0  0  0  0  0  0  0
   -5.8332    2.7259   -1.8760 H   0  0  0  0  0  0  0  0  0  0  0  0
   -6.6126    0.8474   -0.3696 H   0  0  0  0  0  0  0  0  0  0  0  0
   -2.5704    0.0736    0.5910 H   0  0  0  0  0  0  0  0  0  0  0  0
   -7.1147   -0.7707    1.4376 H   0  0  0  0  0  0  0  0  0  0  0  0
   -6.5028   -2.3381    0.8739 H   0  0  0  0  0  0  0  0  0  0  0  0
   -6.6873   -1.0582   -0.3541 H   0  0  0  0  0  0  0  0  0  0  0  0
   -3.1607   -2.1135    0.7705 H   0  0  0  0  0  0  0  0  0  0  0  0
   -4.0796   -1.9048   -0.7317 H   0  0  0  0  0  0  0  0  0  0  0  0
   -4.7800   -2.9542    0.5161 H   0  0  0  0  0  0  0  0  0  0  0  0
   -5.4977   -1.4568    2.9268 H   0  0  0  0  0  0  0  0  0  0  0  0
   -4.8632    0.2877    2.8011 H   0  0  0  0  0  0  0  0  0  0  0  0
   -3.7020   -1.1452    2.6624 H   0  0  0  0  0  0  0  0  0  0  0  0
  1  2  1  0
  2  3  1  0
  3  4  2  0
  4  5  1  0
  5  6  2  0
  6  7  1  0
  7  8  2  0
  6  9  1  0
  9 10  2  0
  9 11  2  0
  9 12  1  0
 12 13  1  0
 13 14  1  0
 14 15  1  0
 15 16  1  0
 16 17  1  0
 15 18  1  0
 18 19  2  0
 19 20  1  0
 20 21  1  0
 21 22  2  0
 22 23  1  0
 23 24  2  0
 24 25  1  0
 25 26  2  0
 24 27  1  0
 27 28  1  0
 27 29  1  0
 27 30  1  0
  8  3  1  0
 17 12  1  0
 26 18  1  0
 17 14  1  0
 26 21  1  0
  1 31  1  0
  1 32  1  0
  1 33  1  0
  4 34  1  0
  5 35  1  0
  7 36  1  0
  8 37  1  0
 13 38  1  0
 13 39  1  0
 14 40  1  6
 15 41  1  1
 16 42  1  0
 16 43  1  0
 17 44  1  6
 19 45  1  0
 20 46  1  0
 22 47  1  0
 23 48  1  0
 25 49  1  0
 28 50  1  0
 28 51  1  0
 28 52  1  0
 29 53  1  0
 29 54  1  0
 29 55  1  0
 30 56  1  0
 30 57  1  0
 30 58  1  0
M  END
$$$$
[H]c1c([H])c(C(F)(F)F)c([H])c([C@]2([H])C([H])([H])[C@@]3([H])N(S(=O)(=O)c4c([H])c([H])c(OC([H])([H])[H])c([H])c4[H])C([H])([H])[C@@]23[H])c1[H]
     RDKit          3D

 45 48  0  0  0  0  0  0  0  0999 V2000
   -8.1418   -0.6771    0.1850 C   0  0  0  0  0  0  0  0  0  0  0  0
   -7.2907    0.4248   -0.1072 O   0  0  0  0  0  0  0  0  0  0  0  0
   -5.9207    0.2377    0.1720 C   0  0  0  0  0  0  0  0  0  0  0  0
   -5.4184   -0.9207    0.6898 C   0  0  0  0  0  0  0  0  0  0  0  0
   -4.0586   -1.0483    0.9250 C   0  0  0  0  0  0  0  0  0  0  0  0
   -3.1670   -0.0436    0.6613 C   0  0  0  0  0  0  0  0  0  0  0  0
   -3.6916    1.1125    0.1505 C   0  0  0  0  0  0  0  0  0  0  0  0
   -5.0384    1.2590   -0.0991 C   0  0  0  0  0  0  0  0  0  0  0  0
   -1.4864   -0.3640    0.9378 S   0  0  0  0  0  0  0  0  0  0  0  0
   -1.1459    0.2746    2.2797 O   0  0  0  0  0  0  0  0  0  0  0  0
   -1.3638   -1.8545    1.2650 O   0  0  0  0  0  0  0  0  0  0  0  0
   -0.4680   -0.0620   -0.3115 N   0  0  0  0  0  0  0  0  0  0  0  0
   -0.1854    1.1789   -0.8971 C   0  0  0  0  0  0  0  0  0  0  0  0
    1.1463    0.6228   -1.3434 C   0  0  1  0  0  0  0  0  0  0  0  0
    2.3416    1.0811   -0.6666 C   0  0  1  0  0  0  0  0  0  0  0  0
    1.7080    0.5351    0.6666 C   0  0  0  0  0  0  0  0  0  0  0  0
    0.8945   -0.3699   -0.2277 C   0  0  1  0  0  0  0  0  0  0  0  0
    3.6022    0.2903   -0.8591 C   0  0  0  0  0  0  0  0  0  0  0  0
    3.6757   -0.8530   -1.6142 C   0  0  0  0  0  0  0  0  0  0  0  0
    4.8598   -1.6145   -1.6467 C   0  0  0  0  0  0  0  0  0  0  0  0
    5.9671   -1.2343   -0.9240 C   0  0  0  0  0  0  0  0  0  0  0  0
    5.8610   -0.0831   -0.1808 C   0  0  0  0  0  0  0  0  0  0  0  0
    4.6951    0.6991   -0.1297 C   0  0  0  0  0  0  0  0  0  0  0  0
    7.0253    0.3544    0.6234 C   0  0  0  0  0  0  0  0  0  0  0  0
    8.1618    0.3460   -0.1390 F   0  0  0  0  0  0  0  0  0  0  0  0
    7.1544   -0.4851    1.6798 F   0  0  0  0  0  0  0  0  0  0  0  0
    6.8079    1.6561    1.1238 F   0  0  0  0  0  0  0  0  0  0  0  0
   -7.7676   -1.6265   -0.2577 H   0  0  0  0  0  0  0  0  0  0  0  0
   -8.2227   -0.8030    1.2862 H   0  0  0  0  0  0  0  0  0  0  0  0
   -9.1471   -0.4679   -0.2177 H   0  0  0  0  0  0  0  0  0  0  0  0
   -6.1299   -1.6990    0.9040 H   0  0  0  0  0  0  0  0  0  0  0  0
   -3.7460   -2.0086    1.3268 H   0  0  0  0  0  0  0  0  0  0  0  0
   -3.0051    1.9007   -0.0620 H   0  0  0  0  0  0  0  0  0  0  0  0
   -5.4336    2.1746   -0.5138 H   0  0  0  0  0  0  0  0  0  0  0  0
   -0.1201    2.0758   -0.2564 H   0  0  0  0  0  0  0  0  0  0  0  0
   -0.7437    1.4786   -1.8342 H   0  0  0  0  0  0  0  0  0  0  0  0
    1.1812    0.2408   -2.3725 H   0  0  0  0  0  0  0  0  0  0  0  0
    2.5714    2.1431   -0.5754 H   0  0  0  0  0  0  0  0  0  0  0  0
    1.2014    1.3673    1.1376 H   0  0  0  0  0  0  0  0  0  0  0  0
    2.4197   -0.0068    1.2852 H   0  0  0  0  0  0  0  0  0  0  0  0
    1.2588   -1.3738   -0.3565 H   0  0  0  0  0  0  0  0  0  0  0  0
    2.7904   -1.1272   -2.1579 H   0  0  0  0  0  0  0  0  0  0  0  0
    4.8776   -2.5045   -2.2623 H   0  0  0  0  0  0  0  0  0  0  0  0
    6.8533   -1.8269   -0.9415 H   0  0  0  0  0  0  0  0  0  0  0  0
    4.6378    1.6010    0.4571 H   0  0  0  0  0  0  0  0  0  0  0  0
  1  2  1  0
  2  3  1  0
  3  4  2  0
  4  5  1  0
  5  6  2  0
  6  7  1  0
  7  8  2  0
  6  9  1  0
  9 10  2  0
  9 11  2  0
  9 12  1  0
 12 13  1  0
 13 14  1  0
 14 15  1  0
 15 16  1  0
 16 17  1  0
 15 18  1  0
 18 19  2  0
 19 20  1  0
 20 21  2  0
 21 22  1  0
 22 23  2  0
 22 24  1  0
 24 25  1  0
 24 26  1  0
 24 27  1  0
  8  3  1  0
 17 12  1  0
 23 18  1  0
 17 14  1  0
  1 28  1  0
  1 29  1  0
  1 30  1  0
  4 31  1  0
  5 32  1  0
  7 33  1  0
  8 34  1  0
 13 35  1  0
 13 36  1  0
 14 37  1  6
 15 38  1  1
 16 39  1  0
 16 40  1  0
 17 41  1  6
 19 42  1  0
 20 43  1  0
 21 44  1  0
 23 45  1  0
M  END
$$$$
[H]c1c([H])c(S(=O)(=O)N2C([H])([H])[C@@]3([H])[C@]([H])(c4c([H])n([H])c5c([H])c([H])c(C(F)(F)F)c([H])c45)C([H])([H])[C@@]23[H])c([H])c([H])c1OC([H])([H])[H]
     RDKit          3D

 49 53  0  0  0  0  0  0  0  0999 V2000
    8.7270   -1.0306    0.5449 C   0  0  0  0  0  0  0  0  0  0  0  0
    7.8425   -0.0548    0.0501 O   0  0  0  0  0  0  0  0  0  0  0  0
    6.4629   -0.2433   -0.0295 C   0  0  0  0  0  0  0  0  0  0  0  0
    5.7100    0.7772   -0.5588 C   0  0  0  0  0  0  0  0  0  0  0  0
    4.3413    0.6171   -0.6494 C   0  0  0  0  0  0  0  0  0  0  0  0
    3.6829   -0.5173   -0.2334 C   0  0  0  0  0  0  0  0  0  0  0  0
    4.4714   -1.5534    0.3087 C   0  0  0  0  0  0  0  0  0  0  0  0
    5.8201   -1.3883    0.3911 C   0  0  0  0  0  0  0  0  0  0  0  0
    2.0070   -0.8621   -0.4582 S   0  0  0  0  0  0  0  0  0  0  0  0
    1.6251   -1.9168    0.6048 O   0  0  0  0  0  0  0  0  0  0  0  0
    1.7821   -1.5817   -1.8217 O   0  0  0  0  0  0  0  0  0  0  0  0
    0.9139    0.3947   -0.3518 N   0  0  0  0  0  0  0  0  0  0  0  0
    0.6651    1.2023    0.7675 C   0  0  0  0  0  0  0  0  0  0  0  0
   -0.7874    0.8278    0.8765 C   0  0  1  0  0  0  0  0  0  0  0  0
   -1.7513    1.5079    0.0755 C   0  0  1  0  0  0  0  0  0  0  0  0
   -1.3551    0.7980   -1.1448 C   0  0  0  0  0  0  0  0  0  0  0  0
   -0.4668   -0.0643   -0.2866 C   0  0  1  0  0  0  0  0  0  0  0  0
   -3.1450    1.6504    0.3727 C   0  0  0  0  0  0  0  0  0  0  0  0
   -3.7692    2.8261    0.7747 C   0  0  0  0  0  0  0  0  0  0  0  0
   -5.1237    2.6508    0.7686 N   0  0  0  0  0  0  0  0  0  0  0  0
   -5.4344    1.4269    0.3889 C   0  0  0  0  0  0  0  0  0  0  0  0
   -6.6296    0.7230    0.2582 C   0  0  0  0  0  0  0  0  0  0  0  0
   -6.6414   -0.6228   -0.1159 C   0  0  0  0  0  0  0  0  0  0  0  0
   -5.4281   -1.2306   -0.3485 C   0  0  0  0  0  0  0  0  0  0  0  0
   -4.2182   -0.5296   -0.2178 C   0  0  0  0  0  0  0  0  0  0  0  0
   -4.2159    0.7931    0.1417 C   0  0  0  0  0  0  0  0  0  0  0  0
   -5.2786   -2.6674   -0.6862 C   0  0  0  0  0  0  0  0  0  0  0  0
   -5.1830   -3.3286    0.5674 F   0  0  0  0  0  0  0  0  0  0  0  0
   -6.4183   -3.1583   -1.2737 F   0  0  0  0  0  0  0  0  0  0  0  0
   -4.1475   -2.9446   -1.4286 F   0  0  0  0  0  0  0  0  0  0  0  0
    8.9952   -1.6871   -0.3252 H   0  0  0  0  0  0  0  0  0  0  0  0
    8.2850   -1.6634    1.3346 H   0  0  0  0  0  0  0  0  0  0  0  0
    9.6903   -0.6269    0.9143 H   0  0  0  0  0  0  0  0  0  0  0  0
    6.1650    1.6952   -0.8980 H   0  0  0  0  0  0  0  0  0  0  0  0
    3.7208    1.4234   -1.0624 H   0  0  0  0  0  0  0  0  0  0  0  0
    4.0210   -2.4786    0.6517 H   0  0  0  0  0  0  0  0  0  0  0  0
    6.4354   -2.1787    0.8063 H   0  0  0  0  0  0  0  0  0  0  0  0
    0.8158    2.2929    0.4894 H   0  0  0  0  0  0  0  0  0  0  0  0
    1.2986    1.0011    1.6660 H   0  0  0  0  0  0  0  0  0  0  0  0
   -0.9886    0.3619    1.8339 H   0  0  0  0  0  0  0  0  0  0  0  0
   -1.3230    2.6071   -0.0496 H   0  0  0  0  0  0  0  0  0  0  0  0
   -0.7272    1.3739   -1.8800 H   0  0  0  0  0  0  0  0  0  0  0  0
   -2.1032    0.2474   -1.7515 H   0  0  0  0  0  0  0  0  0  0  0  0
   -0.6859   -1.1124   -0.2371 H   0  0  0  0  0  0  0  0  0  0  0  0
   -3.3372    3.7732    1.0766 H   0  0  0  0  0  0  0  0  0  0  0  0
   -5.8299    3.4091    1.0268 H   0  0  0  0  0  0  0  0  0  0  0  0
   -7.5743    1.2373    0.4348 H   0  0  0  0  0  0  0  0  0  0  0  0
   -7.5941   -1.1348   -0.2114 H   0  0  0  0  0  0  0  0  0  0  0  0
   -3.3214   -1.0414   -0.3902 H   0  0  0  0  0  0  0  0  0  0  0  0
  1  2  1  0
  2  3  1  0
  3  4  2  0
  4  5  1  0
  5  6  2  0
  6  7  1  0
  7  8  2  0
  6  9  1  0
  9 10  2  0
  9 11  2  0
  9 12  1  0
 12 13  1  0
 13 14  1  0
 14 15  1  0
 15 16  1  0
 16 17  1  0
 15 18  1  0
 18 19  2  0
 19 20  1  0
 20 21  1  0
 21 22  2  0
 22 23  1  0
 23 24  2  0
 24 25  1  0
 25 26  2  0
 24 27  1  0
 27 28  1  0
 27 29  1  0
 27 30  1  0
  8  3  1  0
 17 12  1  0
 26 18  1  0
 17 14  1  0
 26 21  1  0
  1 31  1  0
  1 32  1  0
  1 33  1  0
  4 34  1  0
  5 35  1  0
  7 36  1  0
  8 37  1  0
 13 38  1  0
 13 39  1  0
 14 40  1  1
 15 41  1  6
 16 42  1  0
 16 43  1  0
 17 44  1  1
 19 45  1  0
 20 46  1  0
 22 47  1  0
 23 48  1  0
 25 49  1  0
M  END
$$$$
[H]c1c([H])c([H])c(-c2c([H])c([H])c([H])c(C(=O)N([H])[C@]3([H])C([H])([H])[C@@]4([H])C([H])([H])N(S(=O)(=O)c5c([H])c([H])c(OC([H])([H])[H])c([H])c5[H])[C@]([H])(C([H])([H])C4([H])[H])C3([H])[H])c2[H])c([H])c1[H]
     RDKit          3D

 65 69  0  0  0  0  0  0  0  0999 V2000
    9.3115    2.8597   -1.3181 C   0  0  0  0  0  0  0  0  0  0  0  0
    9.0451    1.8054   -0.4431 O   0  0  0  0  0  0  0  0  0  0  0  0
    7.7758    1.5629    0.0615 C   0  0  0  0  0  0  0  0  0  0  0  0
    7.5976    0.4970    0.9230 C   0  0  0  0  0  0  0  0  0  0  0  0
    6.3449    0.2670    1.4139 C   0  0  0  0  0  0  0  0  0  0  0  0
    5.2506    1.0539    1.0855 C   0  0  0  0  0  0  0  0  0  0  0  0
    5.4139    2.1069    0.2376 C   0  0  0  0  0  0  0  0  0  0  0  0
    6.6891    2.3627   -0.2786 C   0  0  0  0  0  0  0  0  0  0  0  0
    3.6911    0.6409    1.7913 S   0  0  0  0  0  0  0  0  0  0  0  0
    2.8989    1.9388    1.8037 O   0  0  0  0  0  0  0  0  0  0  0  0
    3.8111    0.1800    3.1916 O   0  0  0  0  0  0  0  0  0  0  0  0
    2.9165   -0.4332    0.7525 N   0  0  0  0  0  0  0  0  0  0  0  0
    2.6302    0.0543   -0.5507 C   0  0  0  0  0  0  0  0  0  0  0  0
    1.9860   -1.1003   -1.3109 C   0  0  1  0  0  0  0  0  0  0  0  0
    2.5842   -2.4181   -0.7941 C   0  0  0  0  0  0  0  0  0  0  0  0
    2.0463   -2.6396    0.6041 C   0  0  0  0  0  0  0  0  0  0  0  0
    1.9421   -1.3024    1.3070 C   0  0  2  0  0  0  0  0  0  0  0  0
    0.5485   -0.7788    1.3317 C   0  0  0  0  0  0  0  0  0  0  0  0
   -0.0987   -0.5575    0.0266 C   0  0  1  0  0  0  0  0  0  0  0  0
    0.5206   -1.1920   -1.1545 C   0  0  0  0  0  0  0  0  0  0  0  0
   -1.4651   -1.1076    0.1209 N   0  0  0  0  0  0  0  0  0  0  0  0
   -2.6064   -0.3283   -0.0207 C   0  0  0  0  0  0  0  0  0  0  0  0
   -2.4742    0.9026   -0.2384 O   0  0  0  0  0  0  0  0  0  0  0  0
   -3.9567   -0.8676    0.0707 C   0  0  0  0  0  0  0  0  0  0  0  0
   -4.1986   -2.2066    0.2654 C   0  0  0  0  0  0  0  0  0  0  0  0
   -5.4942   -2.6842    0.3478 C   0  0  0  0  0  0  0  0  0  0  0  0
   -6.5500   -1.8102    0.2336 C   0  0  0  0  0  0  0  0  0  0  0  0
   -6.3476   -0.4794    0.0406 C   0  0  0  0  0  0  0  0  0  0  0  0
   -5.0639   -0.0109   -0.0404 C   0  0  0  0  0  0  0  0  0  0  0  0
   -7.4852    0.4417   -0.0793 C   0  0  0  0  0  0  0  0  0  0  0  0
   -8.6607    0.1988    0.6021 C   0  0  0  0  0  0  0  0  0  0  0  0
   -9.7523    1.0589    0.5025 C   0  0  0  0  0  0  0  0  0  0  0  0
   -9.6856    2.1914   -0.2908 C   0  0  0  0  0  0  0  0  0  0  0  0
   -8.5071    2.4193   -0.9634 C   0  0  0  0  0  0  0  0  0  0  0  0
   -7.4152    1.5661   -0.8685 C   0  0  0  0  0  0  0  0  0  0  0  0
   10.3862    2.8131   -1.6069 H   0  0  0  0  0  0  0  0  0  0  0  0
    9.1016    3.8369   -0.8799 H   0  0  0  0  0  0  0  0  0  0  0  0
    8.6498    2.7641   -2.2170 H   0  0  0  0  0  0  0  0  0  0  0  0
    8.4405   -0.1175    1.1826 H   0  0  0  0  0  0  0  0  0  0  0  0
    6.2128   -0.5844    2.0996 H   0  0  0  0  0  0  0  0  0  0  0  0
    4.5613    2.7399   -0.0336 H   0  0  0  0  0  0  0  0  0  0  0  0
    6.8004    3.1944   -0.9442 H   0  0  0  0  0  0  0  0  0  0  0  0
    2.0360    0.9706   -0.5913 H   0  0  0  0  0  0  0  0  0  0  0  0
    3.6155    0.2903   -1.0452 H   0  0  0  0  0  0  0  0  0  0  0  0
    2.2871   -1.0208   -2.3664 H   0  0  0  0  0  0  0  0  0  0  0  0
    2.1639   -3.2191   -1.4329 H   0  0  0  0  0  0  0  0  0  0  0  0
    3.6922   -2.3787   -0.8099 H   0  0  0  0  0  0  0  0  0  0  0  0
    2.7747   -3.3001    1.1232 H   0  0  0  0  0  0  0  0  0  0  0  0
    1.0679   -3.1564    0.5971 H   0  0  0  0  0  0  0  0  0  0  0  0
    2.2349   -1.5024    2.3752 H   0  0  0  0  0  0  0  0  0  0  0  0
   -0.0447   -1.4662    2.0046 H   0  0  0  0  0  0  0  0  0  0  0  0
    0.5738    0.1891    1.9050 H   0  0  0  0  0  0  0  0  0  0  0  0
   -0.2356    0.5324   -0.1727 H   0  0  0  0  0  0  0  0  0  0  0  0
    0.0497   -0.7334   -2.0733 H   0  0  0  0  0  0  0  0  0  0  0  0
    0.1781   -2.2638   -1.1949 H   0  0  0  0  0  0  0  0  0  0  0  0
   -1.4980   -2.1323    0.3033 H   0  0  0  0  0  0  0  0  0  0  0  0
   -3.3438   -2.8924    0.3542 H   0  0  0  0  0  0  0  0  0  0  0  0
   -5.6528   -3.7528    0.5027 H   0  0  0  0  0  0  0  0  0  0  0  0
   -7.5781   -2.1892    0.2987 H   0  0  0  0  0  0  0  0  0  0  0  0
   -4.8628    1.0582   -0.1957 H   0  0  0  0  0  0  0  0  0  0  0  0
   -8.7244   -0.6868    1.2273 H   0  0  0  0  0  0  0  0  0  0  0  0
  -10.6664    0.8623    1.0378 H   0  0  0  0  0  0  0  0  0  0  0  0
  -10.5282    2.8772   -0.3825 H   0  0  0  0  0  0  0  0  0  0  0  0
   -8.4430    3.3143   -1.5954 H   0  0  0  0  0  0  0  0  0  0  0  0
   -6.4911    1.7622   -1.4076 H   0  0  0  0  0  0  0  0  0  0  0  0
  1  2  1  0
  2  3  1  0
  3  4  2  0
  4  5  1  0
  5  6  2  0
  6  7  1  0
  7  8  2  0
  6  9  1  0
  9 10  2  0
  9 11  2  0
  9 12  1  0
 12 13  1  0
 13 14  1  0
 14 15  1  0
 15 16  1  0
 16 17  1  0
 17 18  1  0
 18 19  1  0
 19 20  1  0
 19 21  1  0
 21 22  1  0
 22 23  2  0
 22 24  1  0
 24 25  2  0
 25 26  1  0
 26 27  2  0
 27 28  1  0
 28 29  2  0
 28 30  1  0
 30 31  2  0
 31 32  1  0
 32 33  2  0
 33 34  1  0
 34 35  2  0
  8  3  1  0
 17 12  1  0
 29 24  1  0
 35 30  1  0
 20 14  1  0
  1 36  1  0
  1 37  1  0
  1 38  1  0
  4 39  1  0
  5 40  1  0
  7 41  1  0
  8 42  1  0
 13 43  1  0
 13 44  1  0
 14 45  1  6
 15 46  1  0
 15 47  1  0
 16 48  1  0
 16 49  1  0
 17 50  1  1
 18 51  1  0
 18 52  1  0
 19 53  1  6
 20 54  1  0
 20 55  1  0
 21 56  1  0
 25 57  1  0
 26 58  1  0
 27 59  1  0
 29 60  1  0
 31 61  1  0
 32 62  1  0
 33 63  1  0
 34 64  1  0
 35 65  1  0
M  END
$$$$
[H]c1c([H])c(S(=O)(=O)N2C([H])([H])[C@@]3([H])C([H])([H])[C@@]([H])(N([H])C(=O)c4c([H])n([H])c5c([H])c([H])c([H])c([H])c45)[C@]3([H])C2([H])[H])c([H])c([H])c1OC([H])([H])[H]
     RDKit          3D

 53 57  0  0  0  0  0  0  0  0999 V2000
    9.1326   -0.8354   -1.4510 C   0  0  0  0  0  0  0  0  0  0  0  0
    7.9108   -1.4699   -1.6605 O   0  0  0  0  0  0  0  0  0  0  0  0
    6.6528   -1.0474   -1.2928 C   0  0  0  0  0  0  0  0  0  0  0  0
    6.4470    0.1693   -0.5951 C   0  0  0  0  0  0  0  0  0  0  0  0
    5.1853    0.5596   -0.2524 C   0  0  0  0  0  0  0  0  0  0  0  0
    4.0472   -0.1614   -0.5374 C   0  0  0  0  0  0  0  0  0  0  0  0
    4.2414   -1.3290   -1.2042 C   0  0  0  0  0  0  0  0  0  0  0  0
    5.5199   -1.7707   -1.5791 C   0  0  0  0  0  0  0  0  0  0  0  0
    2.4786    0.4639   -0.0772 S   0  0  0  0  0  0  0  0  0  0  0  0
    1.5024    0.0810   -1.1532 O   0  0  0  0  0  0  0  0  0  0  0  0
    2.6072    1.9824   -0.1922 O   0  0  0  0  0  0  0  0  0  0  0  0
    1.9659   -0.0294    1.4707 N   0  0  0  0  0  0  0  0  0  0  0  0
    0.7533   -0.8591    1.2729 C   0  0  0  0  0  0  0  0  0  0  0  0
   -0.2576    0.1957    1.3168 C   0  0  1  0  0  0  0  0  0  0  0  0
   -1.5488    0.2197    1.9349 C   0  0  1  0  0  0  0  0  0  0  0  0
   -1.0003    1.5344    2.6008 C   0  0  0  0  0  0  0  0  0  0  0  0
    0.2188    0.7785    2.6817 C   0  0  2  0  0  0  0  0  0  0  0  0
    1.5337    1.1788    2.1738 C   0  0  0  0  0  0  0  0  0  0  0  0
   -2.6786    0.5203    1.1082 N   0  0  0  0  0  0  0  0  0  0  0  0
   -4.0158    0.2527    1.6042 C   0  0  0  0  0  0  0  0  0  0  0  0
   -4.0936   -0.2306    2.7533 O   0  0  0  0  0  0  0  0  0  0  0  0
   -5.1564    0.5685    0.7688 C   0  0  0  0  0  0  0  0  0  0  0  0
   -5.9653    1.7169    0.8044 C   0  0  0  0  0  0  0  0  0  0  0  0
   -6.8512    1.6507   -0.1849 N   0  0  0  0  0  0  0  0  0  0  0  0
   -6.6841    0.4942   -0.9038 C   0  0  0  0  0  0  0  0  0  0  0  0
   -7.3429   -0.0396   -1.9732 C   0  0  0  0  0  0  0  0  0  0  0  0
   -6.9516   -1.2742   -2.4647 C   0  0  0  0  0  0  0  0  0  0  0  0
   -5.8910   -1.9637   -1.8711 C   0  0  0  0  0  0  0  0  0  0  0  0
   -5.2589   -1.4116   -0.8188 C   0  0  0  0  0  0  0  0  0  0  0  0
   -5.6125   -0.1691   -0.2793 C   0  0  0  0  0  0  0  0  0  0  0  0
    9.7580   -1.4606   -0.7711 H   0  0  0  0  0  0  0  0  0  0  0  0
    9.7127   -0.7997   -2.4348 H   0  0  0  0  0  0  0  0  0  0  0  0
    9.0940    0.2013   -1.0917 H   0  0  0  0  0  0  0  0  0  0  0  0
    7.3348    0.7343   -0.3690 H   0  0  0  0  0  0  0  0  0  0  0  0
    5.0201    1.5028    0.2902 H   0  0  0  0  0  0  0  0  0  0  0  0
    3.3666   -1.9355   -1.4541 H   0  0  0  0  0  0  0  0  0  0  0  0
    5.6176   -2.6980   -2.1135 H   0  0  0  0  0  0  0  0  0  0  0  0
    0.7573   -1.3756    0.3201 H   0  0  0  0  0  0  0  0  0  0  0  0
    0.6182   -1.5979    2.0714 H   0  0  0  0  0  0  0  0  0  0  0  0
   -0.1431    0.9392    0.5008 H   0  0  0  0  0  0  0  0  0  0  0  0
   -1.8131   -0.4272    2.7902 H   0  0  0  0  0  0  0  0  0  0  0  0
   -1.0469    2.3379    1.8624 H   0  0  0  0  0  0  0  0  0  0  0  0
   -1.5533    1.8109    3.5087 H   0  0  0  0  0  0  0  0  0  0  0  0
    0.2461   -0.0349    3.4051 H   0  0  0  0  0  0  0  0  0  0  0  0
    1.5240    2.0544    1.4925 H   0  0  0  0  0  0  0  0  0  0  0  0
    2.2400    1.3575    2.9957 H   0  0  0  0  0  0  0  0  0  0  0  0
   -2.6165    0.9348    0.1462 H   0  0  0  0  0  0  0  0  0  0  0  0
   -5.8267    2.4694    1.5472 H   0  0  0  0  0  0  0  0  0  0  0  0
   -7.5966    2.3557   -0.4389 H   0  0  0  0  0  0  0  0  0  0  0  0
   -8.1471    0.4736   -2.4449 H   0  0  0  0  0  0  0  0  0  0  0  0
   -7.4355   -1.7548   -3.3091 H   0  0  0  0  0  0  0  0  0  0  0  0
   -5.5780   -2.9370   -2.2532 H   0  0  0  0  0  0  0  0  0  0  0  0
   -4.4209   -1.9257   -0.3324 H   0  0  0  0  0  0  0  0  0  0  0  0
  1  2  1  0
  2  3  1  0
  3  4  2  0
  4  5  1  0
  5  6  2  0
  6  7  1  0
  7  8  2  0
  6  9  1  0
  9 10  2  0
  9 11  2  0
  9 12  1  0
 12 13  1  0
 13 14  1  0
 14 15  1  0
 15 16  1  0
 16 17  1  0
 17 18  1  0
 15 19  1  0
 19 20  1  0
 20 21  2  0
 20 22  1  0
 22 23  2  0
 23 24  1  0
 24 25  1  0
 25 26  2  0
 26 27  1  0
 27 28  2  0
 28 29  1  0
 29 30  2  0
  8  3  1  0
 18 12  1  0
 30 22  1  0
 17 14  1  0
 30 25  1  0
  1 31  1  0
  1 32  1  0
  1 33  1  0
  4 34  1  0
  5 35  1  0
  7 36  1  0
  8 37  1  0
 13 38  1  0
 13 39  1  0
 14 40  1  6
 15 41  1  1
 16 42  1  0
 16 43  1  0
 17 44  1  1
 18 45  1  0
 18 46  1  0
 19 47  1  0
 23 48  1  0
 24 49  1  0
 26 50  1  0
 27 51  1  0
 28 52  1  0
 29 53  1  0
M  END
$$$$
[H]c1c([H])c([H])c(-c2c([H])c([H])c(C(=O)N([H])[C@]3([H])C([H])([H])[C@@]4([H])C([H])([H])N(S(=O)(=O)c5c([H])c([H])c(OC([H])([H])[H])c([H])c5[H])[C@]([H])(C([H])([H])C4([H])[H])C3([H])[H])c([H])c2[H])c([H])c1[H]
     RDKit          3D

 65 69  0  0  0  0  0  0  0  0999 V2000
   10.1972    0.7005    0.0214 C   0  0  0  0  0  0  0  0  0  0  0  0
    9.2899    0.2678   -0.9448 O   0  0  0  0  0  0  0  0  0  0  0  0
    7.9270    0.5661   -0.9289 C   0  0  0  0  0  0  0  0  0  0  0  0
    7.1254    0.0849   -1.9354 C   0  0  0  0  0  0  0  0  0  0  0  0
    5.7713    0.3443   -1.9770 C   0  0  0  0  0  0  0  0  0  0  0  0
    5.1623    1.1062   -0.9975 C   0  0  0  0  0  0  0  0  0  0  0  0
    5.9675    1.5894    0.0134 C   0  0  0  0  0  0  0  0  0  0  0  0
    7.3374    1.3276    0.0563 C   0  0  0  0  0  0  0  0  0  0  0  0
    3.4335    1.4394   -1.0489 S   0  0  0  0  0  0  0  0  0  0  0  0
    3.0462    1.3898   -2.5207 O   0  0  0  0  0  0  0  0  0  0  0  0
    3.1991    2.8219   -0.5822 O   0  0  0  0  0  0  0  0  0  0  0  0
    2.6157    0.2396   -0.2291 N   0  0  0  0  0  0  0  0  0  0  0  0
    2.7077   -1.0756   -0.6875 C   0  0  0  0  0  0  0  0  0  0  0  0
    1.9783   -2.0250    0.2148 C   0  0  1  0  0  0  0  0  0  0  0  0
    2.5467   -1.9408    1.6072 C   0  0  0  0  0  0  0  0  0  0  0  0
    2.7956   -0.5122    2.0062 C   0  0  0  0  0  0  0  0  0  0  0  0
    2.1442    0.4786    1.0746 C   0  0  2  0  0  0  0  0  0  0  0  0
    0.6475    0.4021    1.2304 C   0  0  0  0  0  0  0  0  0  0  0  0
    0.0095   -0.4400    0.1475 C   0  0  1  0  0  0  0  0  0  0  0  0
    0.4924   -1.8453    0.2564 C   0  0  0  0  0  0  0  0  0  0  0  0
   -1.4261   -0.4583    0.3989 N   0  0  0  0  0  0  0  0  0  0  0  0
   -2.3288    0.0876   -0.5446 C   0  0  0  0  0  0  0  0  0  0  0  0
   -1.8739    0.5930   -1.6085 O   0  0  0  0  0  0  0  0  0  0  0  0
   -3.7701    0.0975   -0.3513 C   0  0  0  0  0  0  0  0  0  0  0  0
   -4.3898   -0.4908    0.7325 C   0  0  0  0  0  0  0  0  0  0  0  0
   -5.7755   -0.4570    0.8791 C   0  0  0  0  0  0  0  0  0  0  0  0
   -6.5860    0.1625   -0.0471 C   0  0  0  0  0  0  0  0  0  0  0  0
   -5.9779    0.7524   -1.1317 C   0  0  0  0  0  0  0  0  0  0  0  0
   -4.6165    0.7179   -1.2734 C   0  0  0  0  0  0  0  0  0  0  0  0
   -8.0329    0.1768    0.1365 C   0  0  0  0  0  0  0  0  0  0  0  0
   -8.6701   -0.8809    0.7662 C   0  0  0  0  0  0  0  0  0  0  0  0
  -10.0379   -0.8900    0.9516 C   0  0  0  0  0  0  0  0  0  0  0  0
  -10.8292    0.1611    0.5141 C   0  0  0  0  0  0  0  0  0  0  0  0
  -10.2055    1.2098   -0.1092 C   0  0  0  0  0  0  0  0  0  0  0  0
   -8.8269    1.2195   -0.2963 C   0  0  0  0  0  0  0  0  0  0  0  0
   11.0612   -0.0239   -0.0042 H   0  0  0  0  0  0  0  0  0  0  0  0
    9.7874    0.7527    1.0388 H   0  0  0  0  0  0  0  0  0  0  0  0
   10.6347    1.7042   -0.2015 H   0  0  0  0  0  0  0  0  0  0  0  0
    7.5791   -0.5206   -2.7232 H   0  0  0  0  0  0  0  0  0  0  0  0
    5.1322   -0.0329   -2.7695 H   0  0  0  0  0  0  0  0  0  0  0  0
    5.5374    2.1847    0.7937 H   0  0  0  0  0  0  0  0  0  0  0  0
    7.9579    1.7095    0.8503 H   0  0  0  0  0  0  0  0  0  0  0  0
    2.4502   -1.2270   -1.7636 H   0  0  0  0  0  0  0  0  0  0  0  0
    3.7930   -1.3941   -0.6363 H   0  0  0  0  0  0  0  0  0  0  0  0
    2.2110   -3.0745   -0.1757 H   0  0  0  0  0  0  0  0  0  0  0  0
    3.5310   -2.4891    1.6080 H   0  0  0  0  0  0  0  0  0  0  0  0
    1.8390   -2.4437    2.3211 H   0  0  0  0  0  0  0  0  0  0  0  0
    3.9080   -0.3089    2.0184 H   0  0  0  0  0  0  0  0  0  0  0  0
    2.4695   -0.3208    3.0631 H   0  0  0  0  0  0  0  0  0  0  0  0
    2.4523    1.4905    1.3963 H   0  0  0  0  0  0  0  0  0  0  0  0
    0.4380   -0.0623    2.2137 H   0  0  0  0  0  0  0  0  0  0  0  0
    0.1855    1.3984    1.2097 H   0  0  0  0  0  0  0  0  0  0  0  0
    0.1661    0.0265   -0.8246 H   0  0  0  0  0  0  0  0  0  0  0  0
    0.0470   -2.4990   -0.5208 H   0  0  0  0  0  0  0  0  0  0  0  0
    0.0882   -2.2476    1.2319 H   0  0  0  0  0  0  0  0  0  0  0  0
   -1.7919   -0.8816    1.2913 H   0  0  0  0  0  0  0  0  0  0  0  0
   -3.8033   -0.9908    1.4893 H   0  0  0  0  0  0  0  0  0  0  0  0
   -6.2496   -0.9265    1.7411 H   0  0  0  0  0  0  0  0  0  0  0  0
   -6.6332    1.2377   -1.8540 H   0  0  0  0  0  0  0  0  0  0  0  0
   -4.1484    1.1841   -2.1290 H   0  0  0  0  0  0  0  0  0  0  0  0
   -8.0488   -1.6996    1.1063 H   0  0  0  0  0  0  0  0  0  0  0  0
  -10.5479   -1.7187    1.4462 H   0  0  0  0  0  0  0  0  0  0  0  0
  -11.9031    0.1593    0.6568 H   0  0  0  0  0  0  0  0  0  0  0  0
  -10.8284    2.0452   -0.4575 H   0  0  0  0  0  0  0  0  0  0  0  0
   -8.3616    2.0483   -0.7852 H   0  0  0  0  0  0  0  0  0  0  0  0
  1  2  1  0
  2  3  1  0
  3  4  2  0
  4  5  1  0
  5  6  2  0
  6  7  1  0
  7  8  2  0
  6  9  1  0
  9 10  2  0
  9 11  2  0
  9 12  1  0
 12 13  1  0
 13 14  1  0
 14 15  1  0
 15 16  1  0
 16 17  1  0
 17 18  1  0
 18 19  1  0
 19 20  1  0
 19 21  1  0
 21 22  1  0
 22 23  2  0
 22 24  1  0
 24 25  2  0
 25 26  1  0
 26 27  2  0
 27 28  1  0
 28 29  2  0
 27 30  1  0
 30 31  2  0
 31 32  1  0
 32 33  2  0
 33 34  1  0
 34 35  2  0
  8  3  1  0
 17 12  1  0
 29 24  1  0
 35 30  1  0
 20 14  1  0
  1 36  1  0
  1 37  1  0
  1 38  1  0
  4 39  1  0
  5 40  1  0
  7 41  1  0
  8 42  1  0
 13 43  1  0
 13 44  1  0
 14 45  1  6
 15 46  1  0
 15 47  1  0
 16 48  1  0
 16 49  1  0
 17 50  1  1
 18 51  1  0
 18 52  1  0
 19 53  1  6
 20 54  1  0
 20 55  1  0
 21 56  1  0
 25 57  1  0
 26 58  1  0
 28 59  1  0
 29 60  1  0
 31 61  1  0
 32 62  1  0
 33 63  1  0
 34 64  1  0
 35 65  1  0
M  END
$$$$
[H]c1c([H])c(S(=O)(=O)N2C([H])([H])[C@@]3([H])[C@]([H])(c4c([H])n([H])c5c([H])c([H])c(C(=O)N([H])[H])c([H])c45)C([H])([H])[C@@]23[H])c([H])c([H])c1OC([H])([H])[H]
     RDKit          3D

 50 54  0  0  0  0  0  0  0  0999 V2000
    7.8139    1.2275    0.2344 C   0  0  0  0  0  0  0  0  0  0  0  0
    7.0139    0.4745    1.1077 O   0  0  0  0  0  0  0  0  0  0  0  0
    5.9032   -0.2548    0.6394 C   0  0  0  0  0  0  0  0  0  0  0  0
    5.5491   -0.2672   -0.6800 C   0  0  0  0  0  0  0  0  0  0  0  0
    4.4532   -0.9910   -1.1196 C   0  0  0  0  0  0  0  0  0  0  0  0
    3.6856   -1.7217   -0.2379 C   0  0  0  0  0  0  0  0  0  0  0  0
    4.0581   -1.6970    1.0884 C   0  0  0  0  0  0  0  0  0  0  0  0
    5.1538   -0.9750    1.5364 C   0  0  0  0  0  0  0  0  0  0  0  0
    2.3169   -2.6349   -0.7377 S   0  0  0  0  0  0  0  0  0  0  0  0
    2.1923   -3.8652    0.1501 O   0  0  0  0  0  0  0  0  0  0  0  0
    2.5788   -3.1652   -2.1309 O   0  0  0  0  0  0  0  0  0  0  0  0
    0.8449   -1.8192   -0.7248 N   0  0  0  0  0  0  0  0  0  0  0  0
    0.8066   -0.6697   -1.6235 C   0  0  0  0  0  0  0  0  0  0  0  0
    0.1392    0.1015   -0.5153 C   0  0  1  0  0  0  0  0  0  0  0  0
   -1.3149   -0.1574   -0.3510 C   0  0  1  0  0  0  0  0  0  0  0  0
   -0.9914   -1.0800    0.8009 C   0  0  0  0  0  0  0  0  0  0  0  0
    0.4677   -1.0554    0.3991 C   0  0  1  0  0  0  0  0  0  0  0  0
   -2.0796    1.0481   -0.0070 C   0  0  0  0  0  0  0  0  0  0  0  0
   -1.6588    2.3378    0.1764 C   0  0  0  0  0  0  0  0  0  0  0  0
   -2.6941    3.1352    0.4827 N   0  0  0  0  0  0  0  0  0  0  0  0
   -3.8094    2.3926    0.5072 C   0  0  0  0  0  0  0  0  0  0  0  0
   -5.1425    2.6755    0.7598 C   0  0  0  0  0  0  0  0  0  0  0  0
   -6.0619    1.6573    0.7024 C   0  0  0  0  0  0  0  0  0  0  0  0
   -5.7510    0.3577    0.4082 C   0  0  0  0  0  0  0  0  0  0  0  0
   -4.4181    0.0701    0.1548 C   0  0  0  0  0  0  0  0  0  0  0  0
   -3.4594    1.0861    0.2058 C   0  0  0  0  0  0  0  0  0  0  0  0
   -6.7416   -0.7076    0.3524 C   0  0  0  0  0  0  0  0  0  0  0  0
   -8.1028   -0.4464    0.6060 N   0  0  0  0  0  0  0  0  0  0  0  0
   -6.4032   -1.8858    0.0764 O   0  0  0  0  0  0  0  0  0  0  0  0
    8.0421    0.6462   -0.6833 H   0  0  0  0  0  0  0  0  0  0  0  0
    7.2659    2.1393   -0.0630 H   0  0  0  0  0  0  0  0  0  0  0  0
    8.7690    1.4741    0.7649 H   0  0  0  0  0  0  0  0  0  0  0  0
    6.1578    0.3144   -1.3900 H   0  0  0  0  0  0  0  0  0  0  0  0
    4.2300   -0.9554   -2.1824 H   0  0  0  0  0  0  0  0  0  0  0  0
    3.5031   -2.2460    1.8354 H   0  0  0  0  0  0  0  0  0  0  0  0
    5.4572   -0.9473    2.5761 H   0  0  0  0  0  0  0  0  0  0  0  0
    1.7713   -0.2586   -1.9181 H   0  0  0  0  0  0  0  0  0  0  0  0
    0.0816   -0.8842   -2.4398 H   0  0  0  0  0  0  0  0  0  0  0  0
    0.5531    1.0650   -0.2500 H   0  0  0  0  0  0  0  0  0  0  0  0
   -1.7132   -0.6971   -1.2459 H   0  0  0  0  0  0  0  0  0  0  0  0
   -1.1593   -0.6672    1.8024 H   0  0  0  0  0  0  0  0  0  0  0  0
   -1.4132   -2.0869    0.6178 H   0  0  0  0  0  0  0  0  0  0  0  0
    1.1859   -0.8606    1.1902 H   0  0  0  0  0  0  0  0  0  0  0  0
   -0.6370    2.6791    0.0892 H   0  0  0  0  0  0  0  0  0  0  0  0
   -2.6602    4.1468    0.6707 H   0  0  0  0  0  0  0  0  0  0  0  0
   -5.3910    3.7018    0.9926 H   0  0  0  0  0  0  0  0  0  0  0  0
   -7.0991    1.8864    0.9006 H   0  0  0  0  0  0  0  0  0  0  0  0
   -4.0900   -0.9186   -0.0827 H   0  0  0  0  0  0  0  0  0  0  0  0
   -8.7587   -0.2964   -0.1753 H   0  0  0  0  0  0  0  0  0  0  0  0
   -8.4439   -0.4052    1.5781 H   0  0  0  0  0  0  0  0  0  0  0  0
  1  2  1  0
  2  3  1  0
  3  4  2  0
  4  5  1  0
  5  6  2  0
  6  7  1  0
  7  8  2  0
  6  9  1  0
  9 10  2  0
  9 11  2  0
  9 12  1  0
 12 13  1  0
 13 14  1  0
 14 15  1  0
 15 16  1  0
 16 17  1  0
 15 18  1  0
 18 19  2  0
 19 20  1  0
 20 21  1  0
 21 22  2  0
 22 23  1  0
 23 24  2  0
 24 25  1  0
 25 26  2  0
 24 27  1  0
 27 28  1  0
 27 29  2  0
  8  3  1  0
 17 12  1  0
 26 18  1  0
 17 14  1  0
 26 21  1  0
  1 30  1  0
  1 31  1  0
  1 32  1  0
  4 33  1  0
  5 34  1  0
  7 35  1  0
  8 36  1  0
 13 37  1  0
 13 38  1  0
 14 39  1  1
 15 40  1  6
 16 41  1  0
 16 42  1  0
 17 43  1  1
 19 44  1  0
 20 45  1  0
 22 46  1  0
 23 47  1  0
 25 48  1  0
 28 49  1  0
 28 50  1  0
M  END
$$$$
[H]c1c([H])c(C(=O)N([H])[C@]2([H])C([H])([H])[C@@]3([H])C([H])([H])N(S(=O)(=O)c4c([H])c([H])c(OC([H])([H])[H])c([H])c4[H])[C@]([H])(C([H])([H])C3([H])[H])C2([H])[H])c([H])c([H])c1Cl
     RDKit          3D

 55 58  0  0  0  0  0  0  0  0999 V2000
    8.0904   -1.5645    0.0020 C   0  0  0  0  0  0  0  0  0  0  0  0
    7.3458   -1.0134    1.0704 O   0  0  0  0  0  0  0  0  0  0  0  0
    6.1510   -0.3348    0.8431 C   0  0  0  0  0  0  0  0  0  0  0  0
    5.4154    0.2077    1.8748 C   0  0  0  0  0  0  0  0  0  0  0  0
    4.2332    0.8747    1.6082 C   0  0  0  0  0  0  0  0  0  0  0  0
    3.7385    1.0298    0.3311 C   0  0  0  0  0  0  0  0  0  0  0  0
    4.4960    0.4756   -0.6906 C   0  0  0  0  0  0  0  0  0  0  0  0
    5.6831   -0.1953   -0.4336 C   0  0  0  0  0  0  0  0  0  0  0  0
    2.2782    1.8434   -0.0873 S   0  0  0  0  0  0  0  0  0  0  0  0
    2.5248    2.6226   -1.3633 O   0  0  0  0  0  0  0  0  0  0  0  0
    2.0517    2.9188    0.9725 O   0  0  0  0  0  0  0  0  0  0  0  0
    0.8883    0.9208   -0.2095 N   0  0  0  0  0  0  0  0  0  0  0  0
    1.0053   -0.0690   -1.2266 C   0  0  0  0  0  0  0  0  0  0  0  0
    0.0909   -1.2525   -1.0164 C   0  0  1  0  0  0  0  0  0  0  0  0
    0.2444   -1.8714    0.3406 C   0  0  0  0  0  0  0  0  0  0  0  0
    0.6498   -0.8888    1.4178 C   0  0  0  0  0  0  0  0  0  0  0  0
    0.2534    0.5068    0.9914 C   0  0  2  0  0  0  0  0  0  0  0  0
   -1.2646    0.5296    0.8540 C   0  0  0  0  0  0  0  0  0  0  0  0
   -1.6647    0.4671   -0.6024 C   0  0  1  0  0  0  0  0  0  0  0  0
   -1.3294   -0.8054   -1.2897 C   0  0  0  0  0  0  0  0  0  0  0  0
   -3.0653    0.7501   -0.7303 N   0  0  0  0  0  0  0  0  0  0  0  0
   -4.0764   -0.0400   -0.1313 C   0  0  0  0  0  0  0  0  0  0  0  0
   -3.7567   -1.0589    0.5588 O   0  0  0  0  0  0  0  0  0  0  0  0
   -5.5075    0.2644   -0.2696 C   0  0  0  0  0  0  0  0  0  0  0  0
   -6.0072    1.2540   -1.0559 C   0  0  0  0  0  0  0  0  0  0  0  0
   -7.3860    1.4653   -1.1180 C   0  0  0  0  0  0  0  0  0  0  0  0
   -8.2815    0.7199   -0.4202 C   0  0  0  0  0  0  0  0  0  0  0  0
   -9.9994    1.0313   -0.5379 Cl  0  0  0  0  0  0  0  0  0  0  0  0
   -7.7738   -0.2909    0.3830 C   0  0  0  0  0  0  0  0  0  0  0  0
   -6.4180   -0.4959    0.4419 C   0  0  0  0  0  0  0  0  0  0  0  0
    9.0383   -1.9922    0.3416 H   0  0  0  0  0  0  0  0  0  0  0  0
    7.5191   -2.3888   -0.5044 H   0  0  0  0  0  0  0  0  0  0  0  0
    8.2415   -0.7296   -0.7296 H   0  0  0  0  0  0  0  0  0  0  0  0
    5.8033    0.0868    2.8801 H   0  0  0  0  0  0  0  0  0  0  0  0
    3.6564    1.3000    2.4153 H   0  0  0  0  0  0  0  0  0  0  0  0
    4.1733    0.5567   -1.7135 H   0  0  0  0  0  0  0  0  0  0  0  0
    6.2737   -0.6299   -1.2518 H   0  0  0  0  0  0  0  0  0  0  0  0
    2.0383   -0.4767   -1.3562 H   0  0  0  0  0  0  0  0  0  0  0  0
    0.7424    0.3699   -2.2197 H   0  0  0  0  0  0  0  0  0  0  0  0
    0.3499   -2.0069   -1.7880 H   0  0  0  0  0  0  0  0  0  0  0  0
    0.9255   -2.7391    0.2955 H   0  0  0  0  0  0  0  0  0  0  0  0
   -0.7623   -2.2647    0.6440 H   0  0  0  0  0  0  0  0  0  0  0  0
    0.1267   -1.0877    2.3878 H   0  0  0  0  0  0  0  0  0  0  0  0
    1.7282   -0.9909    1.6136 H   0  0  0  0  0  0  0  0  0  0  0  0
    0.5115    1.1960    1.8100 H   0  0  0  0  0  0  0  0  0  0  0  0
   -1.6536   -0.3492    1.3819 H   0  0  0  0  0  0  0  0  0  0  0  0
   -1.6909    1.4494    1.2769 H   0  0  0  0  0  0  0  0  0  0  0  0
   -1.1463    1.3543   -1.1049 H   0  0  0  0  0  0  0  0  0  0  0  0
   -1.3759   -0.6065   -2.3921 H   0  0  0  0  0  0  0  0  0  0  0  0
   -2.0444   -1.5949   -1.0784 H   0  0  0  0  0  0  0  0  0  0  0  0
   -3.4106    1.5818   -1.2909 H   0  0  0  0  0  0  0  0  0  0  0  0
   -5.3327    1.8708   -1.6295 H   0  0  0  0  0  0  0  0  0  0  0  0
   -7.7450    2.2650   -1.7572 H   0  0  0  0  0  0  0  0  0  0  0  0
   -8.5021   -0.8776    0.9342 H   0  0  0  0  0  0  0  0  0  0  0  0
   -6.0739   -1.2970    1.0835 H   0  0  0  0  0  0  0  0  0  0  0  0
  1  2  1  0
  2  3  1  0
  3  4  2  0
  4  5  1  0
  5  6  2  0
  6  7  1  0
  7  8  2  0
  6  9  1  0
  9 10  2  0
  9 11  2  0
  9 12  1  0
 12 13  1  0
 13 14  1  0
 14 15  1  0
 15 16  1  0
 16 17  1  0
 17 18  1  0
 18 19  1  0
 19 20  1  0
 19 21  1  0
 21 22  1  0
 22 23  2  0
 22 24  1  0
 24 25  2  0
 25 26  1  0
 26 27  2  0
 27 28  1  0
 27 29  1  0
 29 30  2  0
  8  3  1  0
 17 12  1  0
 30 24  1  0
 20 14  1  0
  1 31  1  0
  1 32  1  0
  1 33  1  0
  4 34  1  0
  5 35  1  0
  7 36  1  0
  8 37  1  0
 13 38  1  0
 13 39  1  0
 14 40  1  6
 15 41  1  0
 15 42  1  0
 16 43  1  0
 16 44  1  0
 17 45  1  1
 18 46  1  0
 18 47  1  0
 19 48  1  6
 20 49  1  0
 20 50  1  0
 21 51  1  0
 25 52  1  0
 26 53  1  0
 29 54  1  0
 30 55  1  0
M  END
$$$$
[H]c1c([H])c(C(=O)N([H])[C@]2([H])C([H])([H])[C@@]3([H])C([H])([H])N(S(=O)(=O)c4c([H])c([H])c(OC([H])([H])[H])c([H])c4[H])[C@]([H])(C([H])([H])C3([H])[H])C2([H])[H])c([H])c([H])c1F
     RDKit          3D

 55 58  0  0  0  0  0  0  0  0999 V2000
    7.5857    2.5660   -0.8231 C   0  0  0  0  0  0  0  0  0  0  0  0
    6.7944    2.6697    0.3402 O   0  0  0  0  0  0  0  0  0  0  0  0
    5.7915    1.7443    0.5632 C   0  0  0  0  0  0  0  0  0  0  0  0
    4.9854    1.7999    1.6890 C   0  0  0  0  0  0  0  0  0  0  0  0
    3.9915    0.8592    1.8820 C   0  0  0  0  0  0  0  0  0  0  0  0
    3.7687   -0.1529    0.9765 C   0  0  0  0  0  0  0  0  0  0  0  0
    4.5787   -0.1929   -0.1359 C   0  0  0  0  0  0  0  0  0  0  0  0
    5.5803    0.7366   -0.3522 C   0  0  0  0  0  0  0  0  0  0  0  0
    2.5328   -1.3638    1.1682 S   0  0  0  0  0  0  0  0  0  0  0  0
    3.0392   -2.6182    0.4822 O   0  0  0  0  0  0  0  0  0  0  0  0
    2.4082   -1.6233    2.6570 O   0  0  0  0  0  0  0  0  0  0  0  0
    1.0434   -0.9146    0.4788 N   0  0  0  0  0  0  0  0  0  0  0  0
    1.1579   -0.7160   -0.9242 C   0  0  0  0  0  0  0  0  0  0  0  0
    0.0295   -1.3050   -1.7347 C   0  0  1  0  0  0  0  0  0  0  0  0
   -0.2410   -2.7374   -1.4077 C   0  0  0  0  0  0  0  0  0  0  0  0
   -0.0164   -3.0830    0.0476 C   0  0  0  0  0  0  0  0  0  0  0  0
    0.0233   -1.8435    0.8900 C   0  0  2  0  0  0  0  0  0  0  0  0
   -1.3545   -1.2060    0.8848 C   0  0  0  0  0  0  0  0  0  0  0  0
   -1.4268   -0.0740   -0.1151 C   0  0  1  0  0  0  0  0  0  0  0  0
   -1.2402   -0.5074   -1.5258 C   0  0  0  0  0  0  0  0  0  0  0  0
   -2.7042    0.5831    0.0252 N   0  0  0  0  0  0  0  0  0  0  0  0
   -3.9683   -0.0076   -0.1387 C   0  0  0  0  0  0  0  0  0  0  0  0
   -4.0560   -1.2183   -0.4390 O   0  0  0  0  0  0  0  0  0  0  0  0
   -5.1957    0.7413    0.0288 C   0  0  0  0  0  0  0  0  0  0  0  0
   -5.2737    2.0710    0.3706 C   0  0  0  0  0  0  0  0  0  0  0  0
   -6.4938    2.7251    0.5134 C   0  0  0  0  0  0  0  0  0  0  0  0
   -7.6665    2.0578    0.3160 C   0  0  0  0  0  0  0  0  0  0  0  0
   -8.8479    2.7268    0.4635 F   0  0  0  0  0  0  0  0  0  0  0  0
   -7.6368    0.7346   -0.0251 C   0  0  0  0  0  0  0  0  0  0  0  0
   -6.4325    0.1090   -0.1609 C   0  0  0  0  0  0  0  0  0  0  0  0
    6.8813    2.6272   -1.6964 H   0  0  0  0  0  0  0  0  0  0  0  0
    8.3425    3.3592   -0.8810 H   0  0  0  0  0  0  0  0  0  0  0  0
    8.0530    1.5507   -0.8489 H   0  0  0  0  0  0  0  0  0  0  0  0
    5.1793    2.6015    2.3833 H   0  0  0  0  0  0  0  0  0  0  0  0
    3.3655    0.8978    2.7509 H   0  0  0  0  0  0  0  0  0  0  0  0
    4.4695   -0.9546   -0.8931 H   0  0  0  0  0  0  0  0  0  0  0  0
    6.2190    0.7091   -1.2247 H   0  0  0  0  0  0  0  0  0  0  0  0
    1.1350    0.3947   -1.1215 H   0  0  0  0  0  0  0  0  0  0  0  0
    2.1173   -1.0834   -1.3303 H   0  0  0  0  0  0  0  0  0  0  0  0
    0.3411   -1.2495   -2.8059 H   0  0  0  0  0  0  0  0  0  0  0  0
   -1.3119   -2.9422   -1.6271 H   0  0  0  0  0  0  0  0  0  0  0  0
    0.3261   -3.4433   -2.0805 H   0  0  0  0  0  0  0  0  0  0  0  0
   -0.8700   -3.7057    0.4475 H   0  0  0  0  0  0  0  0  0  0  0  0
    0.8759   -3.7271    0.1522 H   0  0  0  0  0  0  0  0  0  0  0  0
    0.2368   -2.1411    1.9336 H   0  0  0  0  0  0  0  0  0  0  0  0
   -2.0626   -2.0016    0.6061 H   0  0  0  0  0  0  0  0  0  0  0  0
   -1.6442   -0.7953    1.8662 H   0  0  0  0  0  0  0  0  0  0  0  0
   -0.6370    0.6578    0.2047 H   0  0  0  0  0  0  0  0  0  0  0  0
   -1.1179    0.4229   -2.1419 H   0  0  0  0  0  0  0  0  0  0  0  0
   -2.1168   -1.0259   -1.9157 H   0  0  0  0  0  0  0  0  0  0  0  0
   -2.6797    1.6231    0.2780 H   0  0  0  0  0  0  0  0  0  0  0  0
   -4.3645    2.6198    0.5320 H   0  0  0  0  0  0  0  0  0  0  0  0
   -6.4872    3.7689    0.7831 H   0  0  0  0  0  0  0  0  0  0  0  0
   -8.5744    0.2145   -0.1794 H   0  0  0  0  0  0  0  0  0  0  0  0
   -6.4323   -0.9380   -0.4313 H   0  0  0  0  0  0  0  0  0  0  0  0
  1  2  1  0
  2  3  1  0
  3  4  2  0
  4  5  1  0
  5  6  2  0
  6  7  1  0
  7  8  2  0
  6  9  1  0
  9 10  2  0
  9 11  2  0
  9 12  1  0
 12 13  1  0
 13 14  1  0
 14 15  1  0
 15 16  1  0
 16 17  1  0
 17 18  1  0
 18 19  1  0
 19 20  1  0
 19 21  1  0
 21 22  1  0
 22 23  2  0
 22 24  1  0
 24 25  2  0
 25 26  1  0
 26 27  2  0
 27 28  1  0
 27 29  1  0
 29 30  2  0
  8  3  1  0
 17 12  1  0
 30 24  1  0
 20 14  1  0
  1 31  1  0
  1 32  1  0
  1 33  1  0
  4 34  1  0
  5 35  1  0
  7 36  1  0
  8 37  1  0
 13 38  1  0
 13 39  1  0
 14 40  1  6
 15 41  1  0
 15 42  1  0
 16 43  1  0
 16 44  1  0
 17 45  1  1
 18 46  1  0
 18 47  1  0
 19 48  1  1
 20 49  1  0
 20 50  1  0
 21 51  1  0
 25 52  1  0
 26 53  1  0
 29 54  1  0
 30 55  1  0
M  END
$$$$
[H]c1c([H])c([H])c(-c2c([H])c([H])c3c(c2[H])c([C@]2([H])C([H])([H])[C@@]4([H])N(S(=O)(=O)c5c([H])c([H])c(OC([H])([H])[H])c([H])c5[H])C([H])([H])[C@@]24[H])c([H])n3[H])c([H])c1[H]
     RDKit          3D

 56 61  0  0  0  0  0  0  0  0999 V2000
    9.5462    0.1924   -0.3587 C   0  0  0  0  0  0  0  0  0  0  0  0
    8.5922   -0.7526   -0.6113 O   0  0  0  0  0  0  0  0  0  0  0  0
    7.3065   -0.7872   -0.1639 C   0  0  0  0  0  0  0  0  0  0  0  0
    6.4832   -1.8617   -0.5897 C   0  0  0  0  0  0  0  0  0  0  0  0
    5.1838   -1.9387   -0.1620 C   0  0  0  0  0  0  0  0  0  0  0  0
    4.6257   -0.9707    0.7038 C   0  0  0  0  0  0  0  0  0  0  0  0
    5.4021    0.0357    1.1009 C   0  0  0  0  0  0  0  0  0  0  0  0
    6.7261    0.1342    0.6763 C   0  0  0  0  0  0  0  0  0  0  0  0
    2.9555   -1.1579    1.0979 S   0  0  0  0  0  0  0  0  0  0  0  0
    2.7846   -1.0054    2.5935 O   0  0  0  0  0  0  0  0  0  0  0  0
    2.4990   -2.5974    0.8112 O   0  0  0  0  0  0  0  0  0  0  0  0
    1.8939   -0.1336    0.3087 N   0  0  0  0  0  0  0  0  0  0  0  0
    1.8785    1.2804    0.4568 C   0  0  0  0  0  0  0  0  0  0  0  0
    0.4155    1.2212    0.6748 C   0  0  1  0  0  0  0  0  0  0  0  0
   -0.5468    1.2726   -0.4497 C   0  0  1  0  0  0  0  0  0  0  0  0
   -0.3042   -0.0763   -0.8724 C   0  0  0  0  0  0  0  0  0  0  0  0
    0.5134   -0.3031    0.3987 C   0  0  1  0  0  0  0  0  0  0  0  0
   -1.7832    1.9830   -0.2347 C   0  0  0  0  0  0  0  0  0  0  0  0
   -1.8069    3.4010   -0.1743 C   0  0  0  0  0  0  0  0  0  0  0  0
   -3.0572    3.8164   -0.1993 N   0  0  0  0  0  0  0  0  0  0  0  0
   -3.8703    2.7537   -0.2656 C   0  0  0  0  0  0  0  0  0  0  0  0
   -5.2604    2.6830   -0.2216 C   0  0  0  0  0  0  0  0  0  0  0  0
   -5.8481    1.4479   -0.1880 C   0  0  0  0  0  0  0  0  0  0  0  0
   -5.0583    0.2878   -0.2001 C   0  0  0  0  0  0  0  0  0  0  0  0
   -3.6917    0.3946   -0.2509 C   0  0  0  0  0  0  0  0  0  0  0  0
   -3.0966    1.6338   -0.2869 C   0  0  0  0  0  0  0  0  0  0  0  0
   -5.6618   -1.0173   -0.0273 C   0  0  0  0  0  0  0  0  0  0  0  0
   -6.8170   -1.1112    0.7617 C   0  0  0  0  0  0  0  0  0  0  0  0
   -7.3914   -2.3265    1.0423 C   0  0  0  0  0  0  0  0  0  0  0  0
   -6.8370   -3.5023    0.5465 C   0  0  0  0  0  0  0  0  0  0  0  0
   -5.7127   -3.4147   -0.2270 C   0  0  0  0  0  0  0  0  0  0  0  0
   -5.1465   -2.1689   -0.4978 C   0  0  0  0  0  0  0  0  0  0  0  0
    9.9442    0.2032    0.6543 H   0  0  0  0  0  0  0  0  0  0  0  0
    9.0877    1.2097   -0.5604 H   0  0  0  0  0  0  0  0  0  0  0  0
   10.4431    0.0867   -1.0438 H   0  0  0  0  0  0  0  0  0  0  0  0
    6.9483   -2.5926   -1.2450 H   0  0  0  0  0  0  0  0  0  0  0  0
    4.5727   -2.7677   -0.5109 H   0  0  0  0  0  0  0  0  0  0  0  0
    5.0684    0.8364    1.7681 H   0  0  0  0  0  0  0  0  0  0  0  0
    7.3449    0.9628    1.0306 H   0  0  0  0  0  0  0  0  0  0  0  0
    2.4295    1.6620    1.3591 H   0  0  0  0  0  0  0  0  0  0  0  0
    2.1594    1.8818   -0.4547 H   0  0  0  0  0  0  0  0  0  0  0  0
   -0.0005    1.4254    1.6882 H   0  0  0  0  0  0  0  0  0  0  0  0
    0.0660    1.9519   -1.2651 H   0  0  0  0  0  0  0  0  0  0  0  0
    0.4639   -0.2219   -1.7313 H   0  0  0  0  0  0  0  0  0  0  0  0
   -1.0379   -0.8523   -1.0174 H   0  0  0  0  0  0  0  0  0  0  0  0
    0.0454   -0.9312    1.1696 H   0  0  0  0  0  0  0  0  0  0  0  0
   -0.9378    4.0476   -0.1139 H   0  0  0  0  0  0  0  0  0  0  0  0
   -3.3666    4.8327   -0.1722 H   0  0  0  0  0  0  0  0  0  0  0  0
   -5.8561    3.5720   -0.2240 H   0  0  0  0  0  0  0  0  0  0  0  0
   -6.9023    1.3454   -0.1529 H   0  0  0  0  0  0  0  0  0  0  0  0
   -3.0615   -0.4720   -0.2542 H   0  0  0  0  0  0  0  0  0  0  0  0
   -7.2350   -0.2244    1.1491 H   0  0  0  0  0  0  0  0  0  0  0  0
   -8.2785   -2.4061    1.6517 H   0  0  0  0  0  0  0  0  0  0  0  0
   -7.2943   -4.4679    0.7853 H   0  0  0  0  0  0  0  0  0  0  0  0
   -5.2782   -4.3216   -0.6177 H   0  0  0  0  0  0  0  0  0  0  0  0
   -4.2411   -2.1721   -1.1232 H   0  0  0  0  0  0  0  0  0  0  0  0
  1  2  1  0
  2  3  1  0
  3  4  2  0
  4  5  1  0
  5  6  2  0
  6  7  1  0
  7  8  2  0
  6  9  1  0
  9 10  2  0
  9 11  2  0
  9 12  1  0
 12 13  1  0
 13 14  1  0
 14 15  1  0
 15 16  1  0
 16 17  1  0
 15 18  1  0
 18 19  2  0
 19 20  1  0
 20 21  1  0
 21 22  2  0
 22 23  1  0
 23 24  2  0
 24 25  1  0
 25 26  2  0
 24 27  1  0
 27 28  2  0
 28 29  1  0
 29 30  2  0
 30 31  1  0
 31 32  2  0
  8  3  1  0
 17 12  1  0
 26 18  1  0
 32 27  1  0
 17 14  1  0
 26 21  1  0
  1 33  1  0
  1 34  1  0
  1 35  1  0
  4 36  1  0
  5 37  1  0
  7 38  1  0
  8 39  1  0
 13 40  1  0
 13 41  1  0
 14 42  1  1
 15 43  1  6
 16 44  1  0
 16 45  1  0
 17 46  1  1
 19 47  1  0
 20 48  1  0
 22 49  1  0
 23 50  1  0
 25 51  1  0
 28 52  1  0
 29 53  1  0
 30 54  1  0
 31 55  1  0
 32 56  1  0
M  END
$$$$
[H]c1c([H])c([H])c(-c2c([H])c([H])c(C(=O)N([H])[C@]3([H])C([H])([H])[C@]4([H])C([H])([H])N(S(=O)(=O)c5c([H])c([H])c(OC([H])([H])[H])c([H])c5[H])C([H])([H])[C@]43[H])c([H])c2[H])c([H])c1[H]
     RDKit          3D

 59 63  0  0  0  0  0  0  0  0999 V2000
    8.9324    1.0546    2.0240 C   0  0  0  0  0  0  0  0  0  0  0  0
    8.1880   -0.1421    1.9069 O   0  0  0  0  0  0  0  0  0  0  0  0
    7.3341   -0.3122    0.8245 C   0  0  0  0  0  0  0  0  0  0  0  0
    6.6097   -1.4828    0.7152 C   0  0  0  0  0  0  0  0  0  0  0  0
    5.7645   -1.6429   -0.3628 C   0  0  0  0  0  0  0  0  0  0  0  0
    5.6082   -0.6848   -1.3406 C   0  0  0  0  0  0  0  0  0  0  0  0
    6.3421    0.4722   -1.2070 C   0  0  0  0  0  0  0  0  0  0  0  0
    7.2069    0.6618   -0.1244 C   0  0  0  0  0  0  0  0  0  0  0  0
    4.5505   -0.9058   -2.6784 S   0  0  0  0  0  0  0  0  0  0  0  0
    5.1551   -0.1889   -3.8696 O   0  0  0  0  0  0  0  0  0  0  0  0
    4.5503   -2.3761   -3.0586 O   0  0  0  0  0  0  0  0  0  0  0  0
    2.9829   -0.4034   -2.5041 N   0  0  0  0  0  0  0  0  0  0  0  0
    2.2177   -1.0775   -1.4391 C   0  0  0  0  0  0  0  0  0  0  0  0
    1.1294   -0.1172   -1.3275 C   0  0  1  0  0  0  0  0  0  0  0  0
    0.4397    0.3575   -0.1617 C   0  0  1  0  0  0  0  0  0  0  0  0
    0.8513    1.7550   -0.7050 C   0  0  0  0  0  0  0  0  0  0  0  0
    2.0921    1.0801   -1.0164 C   0  0  2  0  0  0  0  0  0  0  0  0
    2.8039    1.0382   -2.2784 C   0  0  0  0  0  0  0  0  0  0  0  0
   -1.0079    0.2696   -0.1758 N   0  0  0  0  0  0  0  0  0  0  0  0
   -1.7653   -0.0334    0.9747 C   0  0  0  0  0  0  0  0  0  0  0  0
   -1.1682   -0.2364    2.0577 O   0  0  0  0  0  0  0  0  0  0  0  0
   -3.2081   -0.1174    0.9444 C   0  0  0  0  0  0  0  0  0  0  0  0
   -3.9177   -0.4406    2.1061 C   0  0  0  0  0  0  0  0  0  0  0  0
   -5.2922   -0.5285    2.1093 C   0  0  0  0  0  0  0  0  0  0  0  0
   -6.0247   -0.3021    0.9699 C   0  0  0  0  0  0  0  0  0  0  0  0
   -5.3531    0.0176   -0.1872 C   0  0  0  0  0  0  0  0  0  0  0  0
   -3.9770    0.1009   -0.1706 C   0  0  0  0  0  0  0  0  0  0  0  0
   -7.4923   -0.3957    0.9695 C   0  0  0  0  0  0  0  0  0  0  0  0
   -8.1870   -0.7979   -0.1530 C   0  0  0  0  0  0  0  0  0  0  0  0
   -9.5671   -0.8900   -0.1666 C   0  0  0  0  0  0  0  0  0  0  0  0
  -10.3002   -0.5774    0.9590 C   0  0  0  0  0  0  0  0  0  0  0  0
   -9.6059   -0.1766    2.0773 C   0  0  0  0  0  0  0  0  0  0  0  0
   -8.2277   -0.0831    2.0962 C   0  0  0  0  0  0  0  0  0  0  0  0
    8.3060    1.9240    2.2381 H   0  0  0  0  0  0  0  0  0  0  0  0
    9.6568    0.9598    2.8635 H   0  0  0  0  0  0  0  0  0  0  0  0
    9.4728    1.2807    1.0702 H   0  0  0  0  0  0  0  0  0  0  0  0
    6.7459   -2.2223    1.4925 H   0  0  0  0  0  0  0  0  0  0  0  0
    5.2062   -2.5643   -0.4316 H   0  0  0  0  0  0  0  0  0  0  0  0
    6.2704    1.2497   -1.9226 H   0  0  0  0  0  0  0  0  0  0  0  0
    7.7666    1.5810   -0.0515 H   0  0  0  0  0  0  0  0  0  0  0  0
    2.8163   -1.0853   -0.4907 H   0  0  0  0  0  0  0  0  0  0  0  0
    1.9358   -2.0819   -1.7585 H   0  0  0  0  0  0  0  0  0  0  0  0
    0.6066    0.1420   -2.2836 H   0  0  0  0  0  0  0  0  0  0  0  0
    0.9159    0.1749    0.8119 H   0  0  0  0  0  0  0  0  0  0  0  0
    0.2221    1.9904   -1.5789 H   0  0  0  0  0  0  0  0  0  0  0  0
    0.9263    2.5167    0.0719 H   0  0  0  0  0  0  0  0  0  0  0  0
    2.6787    0.8166   -0.1006 H   0  0  0  0  0  0  0  0  0  0  0  0
    3.7969    1.5606   -2.2350 H   0  0  0  0  0  0  0  0  0  0  0  0
    2.2443    1.4976   -3.0914 H   0  0  0  0  0  0  0  0  0  0  0  0
   -1.4908    0.4397   -1.0787 H   0  0  0  0  0  0  0  0  0  0  0  0
   -3.4015   -0.6320    3.0448 H   0  0  0  0  0  0  0  0  0  0  0  0
   -5.8423   -0.7814    3.0200 H   0  0  0  0  0  0  0  0  0  0  0  0
   -5.9055    0.1983   -1.0889 H   0  0  0  0  0  0  0  0  0  0  0  0
   -3.4979    0.3544   -1.1009 H   0  0  0  0  0  0  0  0  0  0  0  0
   -7.6786   -1.0562   -1.0618 H   0  0  0  0  0  0  0  0  0  0  0  0
  -10.1240   -1.2072   -1.0501 H   0  0  0  0  0  0  0  0  0  0  0  0
  -11.3942   -0.6442    0.9675 H   0  0  0  0  0  0  0  0  0  0  0  0
  -10.2061    0.0668    2.9593 H   0  0  0  0  0  0  0  0  0  0  0  0
   -7.6912    0.2323    2.9772 H   0  0  0  0  0  0  0  0  0  0  0  0
  1  2  1  0
  2  3  1  0
  3  4  2  0
  4  5  1  0
  5  6  2  0
  6  7  1  0
  7  8  2  0
  6  9  1  0
  9 10  2  0
  9 11  2  0
  9 12  1  0
 12 13  1  0
 13 14  1  0
 14 15  1  0
 15 16  1  0
 16 17  1  0
 17 18  1  0
 15 19  1  0
 19 20  1  0
 20 21  2  0
 20 22  1  0
 22 23  2  0
 23 24  1  0
 24 25  2  0
 25 26  1  0
 26 27  2  0
 25 28  1  0
 28 29  2  0
 29 30  1  0
 30 31  2  0
 31 32  1  0
 32 33  2  0
  8  3  1  0
 18 12  1  0
 27 22  1  0
 33 28  1  0
 17 14  1  0
  1 34  1  0
  1 35  1  0
  1 36  1  0
  4 37  1  0
  5 38  1  0
  7 39  1  0
  8 40  1  0
 13 41  1  0
 13 42  1  0
 14 43  1  6
 15 44  1  1
 16 45  1  0
 16 46  1  0
 17 47  1  1
 18 48  1  0
 18 49  1  0
 19 50  1  0
 23 51  1  0
 24 52  1  0
 26 53  1  0
 27 54  1  0
 29 55  1  0
 30 56  1  0
 31 57  1  0
 32 58  1  0
 33 59  1  0
M  END
$$$$
[H]c1c([H])c([H])c(-c2c([H])c([H])c([H])c(C(=O)N([H])[C@]3([H])C([H])([H])[C@]4([H])C([H])([H])N(S(=O)(=O)c5c([H])c([H])c(OC([H])([H])[H])c([H])c5[H])C([H])([H])[C@]43[H])c2[H])c([H])c1[H]
     RDKit          3D

 59 63  0  0  0  0  0  0  0  0999 V2000
    8.6895    0.8944    1.2372 C   0  0  0  0  0  0  0  0  0  0  0  0
    8.0013   -0.3008    0.9472 O   0  0  0  0  0  0  0  0  0  0  0  0
    6.9757   -0.2547    0.0053 C   0  0  0  0  0  0  0  0  0  0  0  0
    6.2619   -1.3913   -0.3244 C   0  0  0  0  0  0  0  0  0  0  0  0
    5.2631   -1.3104   -1.2523 C   0  0  0  0  0  0  0  0  0  0  0  0
    4.9125   -0.1414   -1.8963 C   0  0  0  0  0  0  0  0  0  0  0  0
    5.6388    0.9799   -1.5509 C   0  0  0  0  0  0  0  0  0  0  0  0
    6.6517    0.9276   -0.6183 C   0  0  0  0  0  0  0  0  0  0  0  0
    3.6403   -0.1308   -3.0547 S   0  0  0  0  0  0  0  0  0  0  0  0
    3.9696    0.8901   -4.1094 O   0  0  0  0  0  0  0  0  0  0  0  0
    3.6217   -1.4696   -3.7597 O   0  0  0  0  0  0  0  0  0  0  0  0
    2.1031    0.1758   -2.4739 N   0  0  0  0  0  0  0  0  0  0  0  0
    1.6194   -0.8202   -1.4981 C   0  0  0  0  0  0  0  0  0  0  0  0
    0.5943   -0.0152   -0.8568 C   0  0  1  0  0  0  0  0  0  0  0  0
    0.2151    0.0740    0.5222 C   0  0  1  0  0  0  0  0  0  0  0  0
    0.4495    1.5965    0.3039 C   0  0  0  0  0  0  0  0  0  0  0  0
    1.5887    1.1304   -0.4605 C   0  0  2  0  0  0  0  0  0  0  0  0
    1.9508    1.4858   -1.8208 C   0  0  0  0  0  0  0  0  0  0  0  0
   -1.1972   -0.1130    0.8112 N   0  0  0  0  0  0  0  0  0  0  0  0
   -1.6640   -0.7403    1.9841 C   0  0  0  0  0  0  0  0  0  0  0  0
   -0.8589   -1.1786    2.8597 O   0  0  0  0  0  0  0  0  0  0  0  0
   -3.0885   -0.8988    2.2161 C   0  0  0  0  0  0  0  0  0  0  0  0
   -3.5192   -1.4088    3.4405 C   0  0  0  0  0  0  0  0  0  0  0  0
   -4.8495   -1.5860    3.7213 C   0  0  0  0  0  0  0  0  0  0  0  0
   -5.7948   -1.2516    2.7680 C   0  0  0  0  0  0  0  0  0  0  0  0
   -5.4168   -0.7460    1.5478 C   0  0  0  0  0  0  0  0  0  0  0  0
   -4.0592   -0.5841    1.3089 C   0  0  0  0  0  0  0  0  0  0  0  0
   -6.4087   -0.3937    0.5435 C   0  0  0  0  0  0  0  0  0  0  0  0
   -7.5934   -1.0946    0.4563 C   0  0  0  0  0  0  0  0  0  0  0  0
   -8.5519   -0.7820   -0.4858 C   0  0  0  0  0  0  0  0  0  0  0  0
   -8.3344    0.2518   -1.3663 C   0  0  0  0  0  0  0  0  0  0  0  0
   -7.1598    0.9684   -1.3012 C   0  0  0  0  0  0  0  0  0  0  0  0
   -6.2121    0.6405   -0.3511 C   0  0  0  0  0  0  0  0  0  0  0  0
    8.0309    1.6750    1.6520 H   0  0  0  0  0  0  0  0  0  0  0  0
    9.4497    0.6569    2.0104 H   0  0  0  0  0  0  0  0  0  0  0  0
    9.1662    1.3270    0.3296 H   0  0  0  0  0  0  0  0  0  0  0  0
    6.5466   -2.3101    0.1899 H   0  0  0  0  0  0  0  0  0  0  0  0
    4.7087   -2.2156   -1.5022 H   0  0  0  0  0  0  0  0  0  0  0  0
    5.4128    1.9480   -2.0258 H   0  0  0  0  0  0  0  0  0  0  0  0
    7.2037    1.8213   -0.3674 H   0  0  0  0  0  0  0  0  0  0  0  0
    2.4513   -1.1168   -0.8155 H   0  0  0  0  0  0  0  0  0  0  0  0
    1.2290   -1.6863   -2.0744 H   0  0  0  0  0  0  0  0  0  0  0  0
   -0.1626    0.3623   -1.5741 H   0  0  0  0  0  0  0  0  0  0  0  0
    0.9139   -0.3030    1.2771 H   0  0  0  0  0  0  0  0  0  0  0  0
   -0.3464    2.0487   -0.3144 H   0  0  0  0  0  0  0  0  0  0  0  0
    0.6131    2.0430    1.3005 H   0  0  0  0  0  0  0  0  0  0  0  0
    2.3596    0.6406    0.1713 H   0  0  0  0  0  0  0  0  0  0  0  0
    2.8690    2.0917   -1.9400 H   0  0  0  0  0  0  0  0  0  0  0  0
    1.1403    2.0121   -2.3268 H   0  0  0  0  0  0  0  0  0  0  0  0
   -1.8659    0.2402    0.1096 H   0  0  0  0  0  0  0  0  0  0  0  0
   -2.7547   -1.6614    4.1683 H   0  0  0  0  0  0  0  0  0  0  0  0
   -5.1061   -1.9842    4.6869 H   0  0  0  0  0  0  0  0  0  0  0  0
   -6.8383   -1.4069    3.0289 H   0  0  0  0  0  0  0  0  0  0  0  0
   -3.7779   -0.1842    0.3373 H   0  0  0  0  0  0  0  0  0  0  0  0
   -7.7794   -1.8977    1.1290 H   0  0  0  0  0  0  0  0  0  0  0  0
   -9.4893   -1.3535   -0.5382 H   0  0  0  0  0  0  0  0  0  0  0  0
   -9.1084    0.4797   -2.1027 H   0  0  0  0  0  0  0  0  0  0  0  0
   -7.0174    1.7734   -2.0049 H   0  0  0  0  0  0  0  0  0  0  0  0
   -5.2869    1.2022   -0.2970 H   0  0  0  0  0  0  0  0  0  0  0  0
  1  2  1  0
  2  3  1  0
  3  4  2  0
  4  5  1  0
  5  6  2  0
  6  7  1  0
  7  8  2  0
  6  9  1  0
  9 10  2  0
  9 11  2  0
  9 12  1  0
 12 13  1  0
 13 14  1  0
 14 15  1  0
 15 16  1  0
 16 17  1  0
 17 18  1  0
 15 19  1  0
 19 20  1  0
 20 21  2  0
 20 22  1  0
 22 23  2  0
 23 24  1  0
 24 25  2  0
 25 26  1  0
 26 27  2  0
 26 28  1  0
 28 29  2  0
 29 30  1  0
 30 31  2  0
 31 32  1  0
 32 33  2  0
  8  3  1  0
 18 12  1  0
 27 22  1  0
 33 28  1  0
 17 14  1  0
  1 34  1  0
  1 35  1  0
  1 36  1  0
  4 37  1  0
  5 38  1  0
  7 39  1  0
  8 40  1  0
 13 41  1  0
 13 42  1  0
 14 43  1  6
 15 44  1  1
 16 45  1  0
 16 46  1  0
 17 47  1  1
 18 48  1  0
 18 49  1  0
 19 50  1  0
 23 51  1  0
 24 52  1  0
 25 53  1  0
 27 54  1  0
 29 55  1  0
 30 56  1  0
 31 57  1  0
 32 58  1  0
 33 59  1  0
M  END
$$$$
[H]c1c([H])c(C(=O)N([H])[C@]2([H])C([H])([H])[C@]3([H])C([H])([H])N(S(=O)(=O)c4c([H])c([H])c(OC([H])([H])[H])c([H])c4[H])C([H])([H])[C@]32[H])c([H])c([H])c1F
     RDKit          3D

 49 52  0  0  0  0  0  0  0  0999 V2000
   -3.5226    2.7857   -3.1922 C   0  0  0  0  0  0  0  0  0  0  0  0
   -3.9858    1.5294   -2.7407 O   0  0  0  0  0  0  0  0  0  0  0  0
   -3.7534    1.1800   -1.4220 C   0  0  0  0  0  0  0  0  0  0  0  0
   -4.2046   -0.0495   -0.9692 C   0  0  0  0  0  0  0  0  0  0  0  0
   -3.9985   -0.4415    0.3312 C   0  0  0  0  0  0  0  0  0  0  0  0
   -3.3366    0.3594    1.2533 C   0  0  0  0  0  0  0  0  0  0  0  0
   -2.8864    1.5846    0.8039 C   0  0  0  0  0  0  0  0  0  0  0  0
   -3.0997    1.9647   -0.5020 C   0  0  0  0  0  0  0  0  0  0  0  0
   -3.0972   -0.1624    2.9051 S   0  0  0  0  0  0  0  0  0  0  0  0
   -3.0862    1.1152    3.7363 O   0  0  0  0  0  0  0  0  0  0  0  0
   -4.2445   -1.0086    3.3808 O   0  0  0  0  0  0  0  0  0  0  0  0
   -1.6077   -0.9396    3.0419 N   0  0  0  0  0  0  0  0  0  0  0  0
   -0.4441   -0.1336    2.7285 C   0  0  0  0  0  0  0  0  0  0  0  0
    0.0455   -0.7281    1.5014 C   0  0  1  0  0  0  0  0  0  0  0  0
    1.3670   -1.1810    1.1505 C   0  0  1  0  0  0  0  0  0  0  0  0
    0.6098   -2.4878    0.7615 C   0  0  0  0  0  0  0  0  0  0  0  0
   -0.1112   -2.2153    1.9795 C   0  0  2  0  0  0  0  0  0  0  0  0
   -1.5662   -2.1030    2.1785 C   0  0  0  0  0  0  0  0  0  0  0  0
    2.0127   -0.6704   -0.0291 N   0  0  0  0  0  0  0  0  0  0  0  0
    3.4302   -0.5889   -0.0340 C   0  0  0  0  0  0  0  0  0  0  0  0
    4.1104   -0.9553    0.9670 O   0  0  0  0  0  0  0  0  0  0  0  0
    4.1868   -0.0816   -1.1850 C   0  0  0  0  0  0  0  0  0  0  0  0
    3.5300    0.4660   -2.2667 C   0  0  0  0  0  0  0  0  0  0  0  0
    4.2410    0.9459   -3.3566 C   0  0  0  0  0  0  0  0  0  0  0  0
    5.6090    0.8621   -3.3308 C   0  0  0  0  0  0  0  0  0  0  0  0
    6.3420    1.3245   -4.3861 F   0  0  0  0  0  0  0  0  0  0  0  0
    6.3086    0.3233   -2.2727 C   0  0  0  0  0  0  0  0  0  0  0  0
    5.5682   -0.1415   -1.2112 C   0  0  0  0  0  0  0  0  0  0  0  0
   -3.7510    3.6013   -2.4801 H   0  0  0  0  0  0  0  0  0  0  0  0
   -3.9435    3.0496   -4.1872 H   0  0  0  0  0  0  0  0  0  0  0  0
   -2.4013    2.7199   -3.2612 H   0  0  0  0  0  0  0  0  0  0  0  0
   -4.7312   -0.7231   -1.6447 H   0  0  0  0  0  0  0  0  0  0  0  0
   -4.3527   -1.4091    0.6920 H   0  0  0  0  0  0  0  0  0  0  0  0
   -2.3729    2.2251    1.4921 H   0  0  0  0  0  0  0  0  0  0  0  0
   -2.7442    2.9282   -0.8540 H   0  0  0  0  0  0  0  0  0  0  0  0
   -0.7058    0.9544    2.6523 H   0  0  0  0  0  0  0  0  0  0  0  0
    0.3292   -0.1936    3.5210 H   0  0  0  0  0  0  0  0  0  0  0  0
   -0.6210   -0.5763    0.6264 H   0  0  0  0  0  0  0  0  0  0  0  0
    2.0493   -1.4415    1.9737 H   0  0  0  0  0  0  0  0  0  0  0  0
    0.0326   -2.3241   -0.1642 H   0  0  0  0  0  0  0  0  0  0  0  0
    1.2974   -3.3442    0.6918 H   0  0  0  0  0  0  0  0  0  0  0  0
    0.4525   -2.2869    2.9245 H   0  0  0  0  0  0  0  0  0  0  0  0
   -2.0958   -2.0091    1.2387 H   0  0  0  0  0  0  0  0  0  0  0  0
   -1.9786   -2.9602    2.7552 H   0  0  0  0  0  0  0  0  0  0  0  0
    1.4295   -0.3812   -0.8314 H   0  0  0  0  0  0  0  0  0  0  0  0
    2.4510    0.5441   -2.3124 H   0  0  0  0  0  0  0  0  0  0  0  0
    3.7545    1.3843   -4.2267 H   0  0  0  0  0  0  0  0  0  0  0  0
    7.4010    0.2653   -2.2716 H   0  0  0  0  0  0  0  0  0  0  0  0
    6.0845   -0.5756   -0.3535 H   0  0  0  0  0  0  0  0  0  0  0  0
  1  2  1  0
  2  3  1  0
  3  4  2  0
  4  5  1  0
  5  6  2  0
  6  7  1  0
  7  8  2  0
  6  9  1  0
  9 10  2  0
  9 11  2  0
  9 12  1  0
 12 13  1  0
 13 14  1  0
 14 15  1  0
 15 16  1  0
 16 17  1  0
 17 18  1  0
 15 19  1  0
 19 20  1  0
 20 21  2  0
 20 22  1  0
 22 23  2  0
 23 24  1  0
 24 25  2  0
 25 26  1  0
 25 27  1  0
 27 28  2  0
  8  3  1  0
 18 12  1  0
 28 22  1  0
 17 14  1  0
  1 29  1  0
  1 30  1  0
  1 31  1  0
  4 32  1  0
  5 33  1  0
  7 34  1  0
  8 35  1  0
 13 36  1  0
 13 37  1  0
 14 38  1  6
 15 39  1  1
 16 40  1  0
 16 41  1  0
 17 42  1  1
 18 43  1  0
 18 44  1  0
 19 45  1  0
 23 46  1  0
 24 47  1  0
 27 48  1  0
 28 49  1  0
M  END
$$$$
[H]c1c([H])c(S(=O)(=O)N2C([H])([H])[C@@]3([H])[C@]([H])(c4c([H])n([H])c5c([H])c([H])c(C#N)c([H])c45)C([H])([H])[C@@]23[H])c([H])c([H])c1OC([H])([H])[H]
     RDKit          3D

 47 51  0  0  0  0  0  0  0  0999 V2000
   -8.0571    1.8197    0.4496 C   0  0  0  0  0  0  0  0  0  0  0  0
   -7.5454    0.6358   -0.0820 O   0  0  0  0  0  0  0  0  0  0  0  0
   -6.2589    0.1967   -0.1144 C   0  0  0  0  0  0  0  0  0  0  0  0
   -6.0174   -1.0310   -0.7158 C   0  0  0  0  0  0  0  0  0  0  0  0
   -4.7340   -1.5271   -0.7832 C   0  0  0  0  0  0  0  0  0  0  0  0
   -3.6500   -0.8431   -0.2677 C   0  0  0  0  0  0  0  0  0  0  0  0
   -3.8881    0.3532    0.3158 C   0  0  0  0  0  0  0  0  0  0  0  0
   -5.1566    0.8772    0.4006 C   0  0  0  0  0  0  0  0  0  0  0  0
   -2.0632   -1.5969   -0.4387 S   0  0  0  0  0  0  0  0  0  0  0  0
   -2.1450   -2.2059   -1.8727 O   0  0  0  0  0  0  0  0  0  0  0  0
   -2.0729   -2.7863    0.4637 O   0  0  0  0  0  0  0  0  0  0  0  0
   -0.8003   -0.5766   -0.4163 N   0  0  0  0  0  0  0  0  0  0  0  0
   -0.3781    0.2790    0.6269 C   0  0  0  0  0  0  0  0  0  0  0  0
    0.9715    0.2993   -0.0688 C   0  0  1  0  0  0  0  0  0  0  0  0
    2.0847   -0.2888    0.6878 C   0  0  1  0  0  0  0  0  0  0  0  0
    1.2801   -1.6501    0.5766 C   0  0  0  0  0  0  0  0  0  0  0  0
    0.5278   -1.0288   -0.5792 C   0  0  1  0  0  0  0  0  0  0  0  0
    3.3294   -0.4849   -0.0884 C   0  0  0  0  0  0  0  0  0  0  0  0
    3.5803   -1.4370   -1.0195 C   0  0  0  0  0  0  0  0  0  0  0  0
    4.8813   -1.3634   -1.3916 N   0  0  0  0  0  0  0  0  0  0  0  0
    5.4940   -0.3795   -0.7290 C   0  0  0  0  0  0  0  0  0  0  0  0
    6.7495    0.1993   -0.7655 C   0  0  0  0  0  0  0  0  0  0  0  0
    7.0173    1.3270    0.0171 C   0  0  0  0  0  0  0  0  0  0  0  0
    6.0298    1.8584    0.8221 C   0  0  0  0  0  0  0  0  0  0  0  0
    4.7761    1.2924    0.8707 C   0  0  0  0  0  0  0  0  0  0  0  0
    4.5373    0.1777    0.0877 C   0  0  0  0  0  0  0  0  0  0  0  0
    6.2163    3.0686    1.5930 C   0  0  0  0  0  0  0  0  0  0  0  0
    6.3430    4.0537    2.2223 N   0  0  0  0  0  0  0  0  0  0  0  0
   -9.1739    1.7778    0.3672 H   0  0  0  0  0  0  0  0  0  0  0  0
   -7.7748    1.9941    1.5034 H   0  0  0  0  0  0  0  0  0  0  0  0
   -7.7809    2.6812   -0.2266 H   0  0  0  0  0  0  0  0  0  0  0  0
   -6.8653   -1.5955   -1.1345 H   0  0  0  0  0  0  0  0  0  0  0  0
   -4.6138   -2.5080   -1.2667 H   0  0  0  0  0  0  0  0  0  0  0  0
   -3.0368    0.8968    0.7207 H   0  0  0  0  0  0  0  0  0  0  0  0
   -5.3258    1.8160    0.8639 H   0  0  0  0  0  0  0  0  0  0  0  0
   -0.3398   -0.1545    1.6272 H   0  0  0  0  0  0  0  0  0  0  0  0
   -0.7841    1.3278    0.6508 H   0  0  0  0  0  0  0  0  0  0  0  0
    1.1608    1.1221   -0.7789 H   0  0  0  0  0  0  0  0  0  0  0  0
    2.2106    0.0022    1.7335 H   0  0  0  0  0  0  0  0  0  0  0  0
    1.9165   -2.4896    0.2736 H   0  0  0  0  0  0  0  0  0  0  0  0
    0.7540   -1.8169    1.5097 H   0  0  0  0  0  0  0  0  0  0  0  0
    0.8404   -1.3565   -1.5755 H   0  0  0  0  0  0  0  0  0  0  0  0
    2.9348   -2.2119   -1.4721 H   0  0  0  0  0  0  0  0  0  0  0  0
    5.3558   -1.9729   -2.0926 H   0  0  0  0  0  0  0  0  0  0  0  0
    7.4906   -0.2382   -1.4011 H   0  0  0  0  0  0  0  0  0  0  0  0
    7.9777    1.7965   -0.0005 H   0  0  0  0  0  0  0  0  0  0  0  0
    4.0024    1.6910    1.4889 H   0  0  0  0  0  0  0  0  0  0  0  0
  1  2  1  0
  2  3  1  0
  3  4  2  0
  4  5  1  0
  5  6  2  0
  6  7  1  0
  7  8  2  0
  6  9  1  0
  9 10  2  0
  9 11  2  0
  9 12  1  0
 12 13  1  0
 13 14  1  0
 14 15  1  0
 15 16  1  0
 16 17  1  0
 15 18  1  0
 18 19  2  0
 19 20  1  0
 20 21  1  0
 21 22  2  0
 22 23  1  0
 23 24  2  0
 24 25  1  0
 25 26  2  0
 24 27  1  0
 27 28  3  0
  8  3  1  0
 17 12  1  0
 26 18  1  0
 17 14  1  0
 26 21  1  0
  1 29  1  0
  1 30  1  0
  1 31  1  0
  4 32  1  0
  5 33  1  0
  7 34  1  0
  8 35  1  0
 13 36  1  0
 13 37  1  0
 14 38  1  6
 15 39  1  1
 16 40  1  0
 16 41  1  0
 17 42  1  6
 19 43  1  0
 20 44  1  0
 22 45  1  0
 23 46  1  0
 25 47  1  0
M  END
$$$$
[H]c1c([H])c(C(=O)N([H])[C@]2([H])C([H])([H])[C@]3([H])C([H])([H])N(S(=O)(=O)c4c([H])c([H])c(OC([H])([H])[H])c([H])c4[H])C([H])([H])[C@]32[H])c([H])c([H])c1Cl
     RDKit          3D

 49 52  0  0  0  0  0  0  0  0999 V2000
   -4.4691    2.1279   -3.2622 C   0  0  0  0  0  0  0  0  0  0  0  0
   -3.7130    2.7919   -2.2657 O   0  0  0  0  0  0  0  0  0  0  0  0
   -3.5451    2.1263   -1.0573 C   0  0  0  0  0  0  0  0  0  0  0  0
   -4.0747    0.8776   -0.8024 C   0  0  0  0  0  0  0  0  0  0  0  0
   -3.8979    0.2315    0.4032 C   0  0  0  0  0  0  0  0  0  0  0  0
   -3.1728    0.8178    1.4181 C   0  0  0  0  0  0  0  0  0  0  0  0
   -2.6356    2.0645    1.1842 C   0  0  0  0  0  0  0  0  0  0  0  0
   -2.8238    2.6937   -0.0280 C   0  0  0  0  0  0  0  0  0  0  0  0
   -2.9578   -0.0143    2.9504 S   0  0  0  0  0  0  0  0  0  0  0  0
   -2.9552    0.9804    4.0446 O   0  0  0  0  0  0  0  0  0  0  0  0
   -4.1423   -0.9645    3.0825 O   0  0  0  0  0  0  0  0  0  0  0  0
   -1.5728   -0.9626    2.8484 N   0  0  0  0  0  0  0  0  0  0  0  0
   -0.3287   -0.2475    2.6132 C   0  0  0  0  0  0  0  0  0  0  0  0
    0.1400   -0.8212    1.3663 C   0  0  1  0  0  0  0  0  0  0  0  0
    1.4144   -1.4020    1.0387 C   0  0  1  0  0  0  0  0  0  0  0  0
    0.5414   -2.5874    0.5339 C   0  0  0  0  0  0  0  0  0  0  0  0
   -0.2285   -2.3064    1.7064 C   0  0  2  0  0  0  0  0  0  0  0  0
   -1.6451   -2.0284    1.8580 C   0  0  0  0  0  0  0  0  0  0  0  0
    2.1401   -0.8888   -0.0871 N   0  0  0  0  0  0  0  0  0  0  0  0
    3.5429   -0.7834   -0.0045 C   0  0  0  0  0  0  0  0  0  0  0  0
    4.1722   -1.1344    1.0434 O   0  0  0  0  0  0  0  0  0  0  0  0
    4.2948   -0.2683   -1.1262 C   0  0  0  0  0  0  0  0  0  0  0  0
    3.7005    0.3508   -2.1914 C   0  0  0  0  0  0  0  0  0  0  0  0
    4.4650    0.8241   -3.2496 C   0  0  0  0  0  0  0  0  0  0  0  0
    5.8187    0.6664   -3.2186 C   0  0  0  0  0  0  0  0  0  0  0  0
    6.8017    1.2510   -4.5323 Cl  0  0  0  0  0  0  0  0  0  0  0  0
    6.4415    0.0412   -2.1469 C   0  0  0  0  0  0  0  0  0  0  0  0
    5.6804   -0.4246   -1.1039 C   0  0  0  0  0  0  0  0  0  0  0  0
   -4.0227    1.1520   -3.5543 H   0  0  0  0  0  0  0  0  0  0  0  0
   -5.4917    1.8818   -2.8797 H   0  0  0  0  0  0  0  0  0  0  0  0
   -4.6329    2.7710   -4.1480 H   0  0  0  0  0  0  0  0  0  0  0  0
   -4.6456    0.4221   -1.6093 H   0  0  0  0  0  0  0  0  0  0  0  0
   -4.3418   -0.7633    0.5535 H   0  0  0  0  0  0  0  0  0  0  0  0
   -2.0578    2.5563    1.9682 H   0  0  0  0  0  0  0  0  0  0  0  0
   -2.3992    3.6864   -0.2221 H   0  0  0  0  0  0  0  0  0  0  0  0
   -0.4797    0.8456    2.5057 H   0  0  0  0  0  0  0  0  0  0  0  0
    0.3400   -0.4623    3.4742 H   0  0  0  0  0  0  0  0  0  0  0  0
   -0.4719   -0.5421    0.4900 H   0  0  0  0  0  0  0  0  0  0  0  0
    2.0410   -1.6891    1.9040 H   0  0  0  0  0  0  0  0  0  0  0  0
    0.1554   -2.4428   -0.4672 H   0  0  0  0  0  0  0  0  0  0  0  0
    1.1820   -3.4854    0.5961 H   0  0  0  0  0  0  0  0  0  0  0  0
    0.2506   -2.6247    2.6513 H   0  0  0  0  0  0  0  0  0  0  0  0
   -2.2691   -2.8622    2.2276 H   0  0  0  0  0  0  0  0  0  0  0  0
   -2.0517   -1.6291    0.8959 H   0  0  0  0  0  0  0  0  0  0  0  0
    1.6332   -0.6098   -0.9328 H   0  0  0  0  0  0  0  0  0  0  0  0
    2.6316    0.4842   -2.2252 H   0  0  0  0  0  0  0  0  0  0  0  0
    3.9645    1.3012   -4.0623 H   0  0  0  0  0  0  0  0  0  0  0  0
    7.5287   -0.0837   -2.1252 H   0  0  0  0  0  0  0  0  0  0  0  0
    6.1458   -0.9173   -0.2537 H   0  0  0  0  0  0  0  0  0  0  0  0
  1  2  1  0
  2  3  1  0
  3  4  2  0
  4  5  1  0
  5  6  2  0
  6  7  1  0
  7  8  2  0
  6  9  1  0
  9 10  2  0
  9 11  2  0
  9 12  1  0
 12 13  1  0
 13 14  1  0
 14 15  1  0
 15 16  1  0
 16 17  1  0
 17 18  1  0
 15 19  1  0
 19 20  1  0
 20 21  2  0
 20 22  1  0
 22 23  2  0
 23 24  1  0
 24 25  2  0
 25 26  1  0
 25 27  1  0
 27 28  2  0
  8  3  1  0
 18 12  1  0
 28 22  1  0
 17 14  1  0
  1 29  1  0
  1 30  1  0
  1 31  1  0
  4 32  1  0
  5 33  1  0
  7 34  1  0
  8 35  1  0
 13 36  1  0
 13 37  1  0
 14 38  1  6
 15 39  1  1
 16 40  1  0
 16 41  1  0
 17 42  1  1
 18 43  1  0
 18 44  1  0
 19 45  1  0
 23 46  1  0
 24 47  1  0
 27 48  1  0
 28 49  1  0
M  END
$$$$
[H]c1c([H])c(S(=O)(=O)N2C([H])([H])[C@@]3([H])C([H])([H])C([H])([H])[C@]2([H])C([H])([H])[C@]([H])(N([H])C(=O)c2c([H])c([H])c([H])c4c([H])c([H])c([H])c([H])c24)C3([H])[H])c([H])c([H])c1OC([H])([H])[H]
     RDKit          3D

 61 65  0  0  0  0  0  0  0  0999 V2000
    9.2793   -0.0521    0.7682 C   0  0  0  0  0  0  0  0  0  0  0  0
    8.5011    0.7870   -0.0606 O   0  0  0  0  0  0  0  0  0  0  0  0
    7.1385    0.8532    0.1517 C   0  0  0  0  0  0  0  0  0  0  0  0
    6.5194    0.1304    1.1469 C   0  0  0  0  0  0  0  0  0  0  0  0
    5.1438    0.2098    1.3436 C   0  0  0  0  0  0  0  0  0  0  0  0
    4.3719    1.0173    0.5421 C   0  0  0  0  0  0  0  0  0  0  0  0
    4.9786    1.7403   -0.4505 C   0  0  0  0  0  0  0  0  0  0  0  0
    6.3438    1.6628   -0.6474 C   0  0  0  0  0  0  0  0  0  0  0  0
    2.6595    1.0790    0.8007 S   0  0  0  0  0  0  0  0  0  0  0  0
    2.3606    0.7509    2.2588 O   0  0  0  0  0  0  0  0  0  0  0  0
    2.2351    2.5369    0.6587 O   0  0  0  0  0  0  0  0  0  0  0  0
    1.7146    0.1353   -0.1585 N   0  0  0  0  0  0  0  0  0  0  0  0
    1.7272    0.3668   -1.5713 C   0  0  0  0  0  0  0  0  0  0  0  0
    0.2948   -0.0437   -1.9855 C   0  0  1  0  0  0  0  0  0  0  0  0
    0.1484   -1.5319   -1.9127 C   0  0  0  0  0  0  0  0  0  0  0  0
    1.1694   -2.0514   -0.9150 C   0  0  0  0  0  0  0  0  0  0  0  0
    1.1418   -1.0639    0.2677 C   0  0  2  0  0  0  0  0  0  0  0  0
   -0.3122   -0.9823    0.6523 C   0  0  0  0  0  0  0  0  0  0  0  0
   -1.0016    0.2613    0.1835 C   0  0  1  0  0  0  0  0  0  0  0  0
   -0.6223    0.7567   -1.1449 C   0  0  0  0  0  0  0  0  0  0  0  0
   -2.4360   -0.0694    0.1530 N   0  0  0  0  0  0  0  0  0  0  0  0
   -3.3222    0.2338    1.1896 C   0  0  0  0  0  0  0  0  0  0  0  0
   -2.8219    0.8162    2.2136 O   0  0  0  0  0  0  0  0  0  0  0  0
   -4.7238   -0.0934    1.1368 C   0  0  0  0  0  0  0  0  0  0  0  0
   -5.2715   -0.7864    2.2389 C   0  0  0  0  0  0  0  0  0  0  0  0
   -6.5729   -1.2327    2.2458 C   0  0  0  0  0  0  0  0  0  0  0  0
   -7.3706   -1.0017    1.1550 C   0  0  0  0  0  0  0  0  0  0  0  0
   -6.8620   -0.3222    0.0610 C   0  0  0  0  0  0  0  0  0  0  0  0
   -7.7268   -0.0963   -0.9791 C   0  0  0  0  0  0  0  0  0  0  0  0
   -7.2589    0.6159   -2.0749 C   0  0  0  0  0  0  0  0  0  0  0  0
   -5.9671    1.0713   -2.0965 C   0  0  0  0  0  0  0  0  0  0  0  0
   -5.0970    0.8379   -1.0429 C   0  0  0  0  0  0  0  0  0  0  0  0
   -5.5383    0.1222    0.0751 C   0  0  0  0  0  0  0  0  0  0  0  0
   10.3218   -0.1836    0.3964 H   0  0  0  0  0  0  0  0  0  0  0  0
    8.7586   -1.0450    0.7746 H   0  0  0  0  0  0  0  0  0  0  0  0
    9.2178    0.3425    1.7988 H   0  0  0  0  0  0  0  0  0  0  0  0
    7.1330   -0.4978    1.7724 H   0  0  0  0  0  0  0  0  0  0  0  0
    4.7328   -0.3920    2.1519 H   0  0  0  0  0  0  0  0  0  0  0  0
    4.4103    2.4015   -1.1215 H   0  0  0  0  0  0  0  0  0  0  0  0
    6.7727    2.2656   -1.4613 H   0  0  0  0  0  0  0  0  0  0  0  0
    2.4769   -0.2172   -2.1181 H   0  0  0  0  0  0  0  0  0  0  0  0
    1.7739    1.4501   -1.7570 H   0  0  0  0  0  0  0  0  0  0  0  0
    0.1931    0.2725   -3.0401 H   0  0  0  0  0  0  0  0  0  0  0  0
   -0.8677   -1.7976   -1.6561 H   0  0  0  0  0  0  0  0  0  0  0  0
    0.3411   -1.9781   -2.9326 H   0  0  0  0  0  0  0  0  0  0  0  0
    2.1664   -2.1763   -1.3312 H   0  0  0  0  0  0  0  0  0  0  0  0
    0.7503   -3.0190   -0.5397 H   0  0  0  0  0  0  0  0  0  0  0  0
    1.7372   -1.5617    1.0692 H   0  0  0  0  0  0  0  0  0  0  0  0
   -0.8560   -1.9018    0.3568 H   0  0  0  0  0  0  0  0  0  0  0  0
   -0.3510   -0.9942    1.7682 H   0  0  0  0  0  0  0  0  0  0  0  0
   -0.9155    0.9980    1.0142 H   0  0  0  0  0  0  0  0  0  0  0  0
   -1.5149    1.0190   -1.7885 H   0  0  0  0  0  0  0  0  0  0  0  0
   -0.1383    1.7695   -0.9940 H   0  0  0  0  0  0  0  0  0  0  0  0
   -2.7082   -0.5767   -0.7362 H   0  0  0  0  0  0  0  0  0  0  0  0
   -4.6167   -0.9476    3.0740 H   0  0  0  0  0  0  0  0  0  0  0  0
   -6.9347   -1.7508    3.1027 H   0  0  0  0  0  0  0  0  0  0  0  0
   -8.3996   -1.3610    1.1704 H   0  0  0  0  0  0  0  0  0  0  0  0
   -8.7388   -0.4591   -0.9429 H   0  0  0  0  0  0  0  0  0  0  0  0
   -7.8965    0.8149   -2.9121 H   0  0  0  0  0  0  0  0  0  0  0  0
   -5.5690    1.6423   -2.9422 H   0  0  0  0  0  0  0  0  0  0  0  0
   -4.1018    1.2255   -1.0665 H   0  0  0  0  0  0  0  0  0  0  0  0
  1  2  1  0
  2  3  1  0
  3  4  2  0
  4  5  1  0
  5  6  2  0
  6  7  1  0
  7  8  2  0
  6  9  1  0
  9 10  2  0
  9 11  2  0
  9 12  1  0
 12 13  1  0
 13 14  1  0
 14 15  1  0
 15 16  1  0
 16 17  1  0
 17 18  1  0
 18 19  1  0
 19 20  1  0
 19 21  1  0
 21 22  1  0
 22 23  2  0
 22 24  1  0
 24 25  2  0
 25 26  1  0
 26 27  2  0
 27 28  1  0
 28 29  2  0
 29 30  1  0
 30 31  2  0
 31 32  1  0
 32 33  2  0
  8  3  1  0
 17 12  1  0
 33 24  1  0
 20 14  1  0
 33 28  1  0
  1 34  1  0
  1 35  1  0
  1 36  1  0
  4 37  1  0
  5 38  1  0
  7 39  1  0
  8 40  1  0
 13 41  1  0
 13 42  1  0
 14 43  1  6
 15 44  1  0
 15 45  1  0
 16 46  1  0
 16 47  1  0
 17 48  1  1
 18 49  1  0
 18 50  1  0
 19 51  1  1
 20 52  1  0
 20 53  1  0
 21 54  1  0
 25 55  1  0
 26 56  1  0
 27 57  1  0
 29 58  1  0
 30 59  1  0
 31 60  1  0
 32 61  1  0
M  END
$$$$
[H]c1c([H])c([H])c(C(=O)N([H])[C@]2([H])C([H])([H])[C@@]3([H])C([H])([H])N(S(=O)(=O)c4c([H])c([H])c(OC([H])([H])[H])c([H])c4[H])[C@]([H])(C([H])([H])C3([H])[H])C2([H])[H])c([H])c1[H]
     RDKit          3D

 55 58  0  0  0  0  0  0  0  0999 V2000
    7.5005    1.9862    1.4905 C   0  0  0  0  0  0  0  0  0  0  0  0
    7.1107    0.6559    1.2796 O   0  0  0  0  0  0  0  0  0  0  0  0
    6.0332    0.2856    0.4963 C   0  0  0  0  0  0  0  0  0  0  0  0
    5.7335   -1.0500    0.3529 C   0  0  0  0  0  0  0  0  0  0  0  0
    4.6727   -1.4965   -0.4133 C   0  0  0  0  0  0  0  0  0  0  0  0
    3.8788   -0.5585   -1.0636 C   0  0  0  0  0  0  0  0  0  0  0  0
    4.1543    0.7832   -0.9387 C   0  0  0  0  0  0  0  0  0  0  0  0
    5.2255    1.2019   -0.1630 C   0  0  0  0  0  0  0  0  0  0  0  0
    2.5221   -1.0535   -2.0503 S   0  0  0  0  0  0  0  0  0  0  0  0
    2.9120   -2.4043   -2.6390 O   0  0  0  0  0  0  0  0  0  0  0  0
    2.4650   -0.1111   -3.2166 O   0  0  0  0  0  0  0  0  0  0  0  0
    1.0727   -1.1960   -1.2426 N   0  0  0  0  0  0  0  0  0  0  0  0
    0.9353   -2.1202   -0.1959 C   0  0  0  0  0  0  0  0  0  0  0  0
   -0.1202   -1.6067    0.7646 C   0  0  1  0  0  0  0  0  0  0  0  0
    0.0130   -0.1401    1.0255 C   0  0  0  0  0  0  0  0  0  0  0  0
    0.0905    0.6881   -0.2156 C   0  0  0  0  0  0  0  0  0  0  0  0
    0.0687   -0.2165   -1.4231 C   0  0  2  0  0  0  0  0  0  0  0  0
   -1.2713   -0.7235   -1.7901 C   0  0  0  0  0  0  0  0  0  0  0  0
   -2.1347   -1.2890   -0.7404 C   0  0  1  0  0  0  0  0  0  0  0  0
   -1.4562   -2.0743    0.3184 C   0  0  0  0  0  0  0  0  0  0  0  0
   -3.0805   -0.3064   -0.2248 N   0  0  0  0  0  0  0  0  0  0  0  0
   -4.4757   -0.3816   -0.3919 C   0  0  0  0  0  0  0  0  0  0  0  0
   -4.9247   -1.3689   -1.0316 O   0  0  0  0  0  0  0  0  0  0  0  0
   -5.4586    0.5615    0.0966 C   0  0  0  0  0  0  0  0  0  0  0  0
   -6.8128    0.4147   -0.1110 C   0  0  0  0  0  0  0  0  0  0  0  0
   -7.6733    1.3663    0.3933 C   0  0  0  0  0  0  0  0  0  0  0  0
   -7.2310    2.4645    1.1005 C   0  0  0  0  0  0  0  0  0  0  0  0
   -5.8811    2.6216    1.3139 C   0  0  0  0  0  0  0  0  0  0  0  0
   -5.0261    1.6601    0.8031 C   0  0  0  0  0  0  0  0  0  0  0  0
    8.4259    1.9997    2.0907 H   0  0  0  0  0  0  0  0  0  0  0  0
    7.7313    2.4849    0.5266 H   0  0  0  0  0  0  0  0  0  0  0  0
    6.7297    2.5671    2.0425 H   0  0  0  0  0  0  0  0  0  0  0  0
    6.3342   -1.7884    0.8466 H   0  0  0  0  0  0  0  0  0  0  0  0
    4.4374   -2.5518   -0.5255 H   0  0  0  0  0  0  0  0  0  0  0  0
    3.5145    1.4812   -1.4593 H   0  0  0  0  0  0  0  0  0  0  0  0
    5.4456    2.2575   -0.0623 H   0  0  0  0  0  0  0  0  0  0  0  0
    0.6602   -3.1406   -0.5045 H   0  0  0  0  0  0  0  0  0  0  0  0
    1.8993   -2.1476    0.3881 H   0  0  0  0  0  0  0  0  0  0  0  0
    0.0976   -2.1250    1.7450 H   0  0  0  0  0  0  0  0  0  0  0  0
   -0.7961    0.1695    1.7109 H   0  0  0  0  0  0  0  0  0  0  0  0
    0.9502   -0.0334    1.6539 H   0  0  0  0  0  0  0  0  0  0  0  0
   -0.6037    1.5310   -0.2716 H   0  0  0  0  0  0  0  0  0  0  0  0
    1.1153    1.1687   -0.2284 H   0  0  0  0  0  0  0  0  0  0  0  0
    0.4109    0.4391   -2.2815 H   0  0  0  0  0  0  0  0  0  0  0  0
   -1.8386    0.1205   -2.2841 H   0  0  0  0  0  0  0  0  0  0  0  0
   -1.1406   -1.4702   -2.6142 H   0  0  0  0  0  0  0  0  0  0  0  0
   -2.8167   -2.0351   -1.2696 H   0  0  0  0  0  0  0  0  0  0  0  0
   -1.2938   -3.1202   -0.0894 H   0  0  0  0  0  0  0  0  0  0  0  0
   -2.1460   -2.2456    1.1736 H   0  0  0  0  0  0  0  0  0  0  0  0
   -2.6770    0.4913    0.2942 H   0  0  0  0  0  0  0  0  0  0  0  0
   -7.1352   -0.4455   -0.6628 H   0  0  0  0  0  0  0  0  0  0  0  0
   -8.7329    1.2764    0.2462 H   0  0  0  0  0  0  0  0  0  0  0  0
   -7.9328    3.2080    1.4919 H   0  0  0  0  0  0  0  0  0  0  0  0
   -5.5120    3.4763    1.8665 H   0  0  0  0  0  0  0  0  0  0  0  0
   -3.9690    1.8397    1.0047 H   0  0  0  0  0  0  0  0  0  0  0  0
  1  2  1  0
  2  3  1  0
  3  4  2  0
  4  5  1  0
  5  6  2  0
  6  7  1  0
  7  8  2  0
  6  9  1  0
  9 10  2  0
  9 11  2  0
  9 12  1  0
 12 13  1  0
 13 14  1  0
 14 15  1  0
 15 16  1  0
 16 17  1  0
 17 18  1  0
 18 19  1  0
 19 20  1  0
 19 21  1  0
 21 22  1  0
 22 23  2  0
 22 24  1  0
 24 25  2  0
 25 26  1  0
 26 27  2  0
 27 28  1  0
 28 29  2  0
  8  3  1  0
 17 12  1  0
 29 24  1  0
 20 14  1  0
  1 30  1  0
  1 31  1  0
  1 32  1  0
  4 33  1  0
  5 34  1  0
  7 35  1  0
  8 36  1  0
 13 37  1  0
 13 38  1  0
 14 39  1  1
 15 40  1  0
 15 41  1  0
 16 42  1  0
 16 43  1  0
 17 44  1  6
 18 45  1  0
 18 46  1  0
 19 47  1  6
 20 48  1  0
 20 49  1  0
 21 50  1  0
 25 51  1  0
 26 52  1  0
 27 53  1  0
 28 54  1  0
 29 55  1  0
M  END
$$$$
[H]c1c([H])c(S(=O)(=O)N2C([H])([H])[C@@]3([H])C([H])([H])[C@@]([H])(N([H])C(=O)c4c([H])c([H])c([H])c5c([H])c([H])c([H])c([H])c45)[C@]3([H])C2([H])[H])c([H])c([H])c1OC([H])([H])[H]
     RDKit          3D

 55 59  0  0  0  0  0  0  0  0999 V2000
    6.9744   -3.8854   -2.1658 C   0  0  0  0  0  0  0  0  0  0  0  0
    6.2341   -3.5748   -1.0135 O   0  0  0  0  0  0  0  0  0  0  0  0
    5.6842   -2.3076   -0.8917 C   0  0  0  0  0  0  0  0  0  0  0  0
    5.8568   -1.3638   -1.8768 C   0  0  0  0  0  0  0  0  0  0  0  0
    5.3180   -0.0941   -1.7796 C   0  0  0  0  0  0  0  0  0  0  0  0
    4.5785    0.2818   -0.6812 C   0  0  0  0  0  0  0  0  0  0  0  0
    4.3959   -0.6630    0.3236 C   0  0  0  0  0  0  0  0  0  0  0  0
    4.9363   -1.9294    0.2215 C   0  0  0  0  0  0  0  0  0  0  0  0
    3.8698    1.8797   -0.5177 S   0  0  0  0  0  0  0  0  0  0  0  0
    3.7898    2.2288    0.9329 O   0  0  0  0  0  0  0  0  0  0  0  0
    4.6869    2.8616   -1.2834 O   0  0  0  0  0  0  0  0  0  0  0  0
    2.3060    1.8090   -1.1931 N   0  0  0  0  0  0  0  0  0  0  0  0
    1.4544    0.8430   -0.4692 C   0  0  0  0  0  0  0  0  0  0  0  0
    0.1602    1.4709   -0.6094 C   0  0  1  0  0  0  0  0  0  0  0  0
   -0.8470    1.6620    0.4413 C   0  0  1  0  0  0  0  0  0  0  0  0
   -0.8028    3.1108   -0.0447 C   0  0  0  0  0  0  0  0  0  0  0  0
    0.6407    2.8657   -0.0712 C   0  0  2  0  0  0  0  0  0  0  0  0
    1.5891    3.0876   -1.1374 C   0  0  0  0  0  0  0  0  0  0  0  0
   -2.0738    0.9482    0.1531 N   0  0  0  0  0  0  0  0  0  0  0  0
   -2.6605    0.0438    1.0813 C   0  0  0  0  0  0  0  0  0  0  0  0
   -2.0916   -0.1329    2.1690 O   0  0  0  0  0  0  0  0  0  0  0  0
   -3.9138   -0.6256    0.6741 C   0  0  0  0  0  0  0  0  0  0  0  0
   -3.9315   -1.3569   -0.5088 C   0  0  0  0  0  0  0  0  0  0  0  0
   -5.0735   -1.9770   -0.8934 C   0  0  0  0  0  0  0  0  0  0  0  0
   -6.2018   -1.8862   -0.1262 C   0  0  0  0  0  0  0  0  0  0  0  0
   -6.1949   -1.1506    1.0694 C   0  0  0  0  0  0  0  0  0  0  0  0
   -7.3445   -1.0816    1.8185 C   0  0  0  0  0  0  0  0  0  0  0  0
   -7.3929   -0.3713    3.0079 C   0  0  0  0  0  0  0  0  0  0  0  0
   -6.2271    0.2539    3.3858 C   0  0  0  0  0  0  0  0  0  0  0  0
   -5.0469    0.2134    2.6665 C   0  0  0  0  0  0  0  0  0  0  0  0
   -5.0249   -0.5093    1.4726 C   0  0  0  0  0  0  0  0  0  0  0  0
    6.4508   -3.6135   -3.1150 H   0  0  0  0  0  0  0  0  0  0  0  0
    7.9166   -3.3036   -2.1468 H   0  0  0  0  0  0  0  0  0  0  0  0
    7.2503   -4.9573   -2.2228 H   0  0  0  0  0  0  0  0  0  0  0  0
    6.4340   -1.6117   -2.7644 H   0  0  0  0  0  0  0  0  0  0  0  0
    5.4774    0.6226   -2.5794 H   0  0  0  0  0  0  0  0  0  0  0  0
    3.8073   -0.3902    1.2158 H   0  0  0  0  0  0  0  0  0  0  0  0
    4.8139   -2.6970    0.9901 H   0  0  0  0  0  0  0  0  0  0  0  0
    1.7937    0.9003    0.6040 H   0  0  0  0  0  0  0  0  0  0  0  0
    1.5968   -0.1707   -0.8759 H   0  0  0  0  0  0  0  0  0  0  0  0
   -0.2145    1.5851   -1.6237 H   0  0  0  0  0  0  0  0  0  0  0  0
   -0.5058    1.5366    1.4740 H   0  0  0  0  0  0  0  0  0  0  0  0
   -1.2484    3.2554   -1.0459 H   0  0  0  0  0  0  0  0  0  0  0  0
   -1.1046    3.8724    0.6929 H   0  0  0  0  0  0  0  0  0  0  0  0
    1.0726    2.7190    0.9419 H   0  0  0  0  0  0  0  0  0  0  0  0
    1.0903    3.3017   -2.1045 H   0  0  0  0  0  0  0  0  0  0  0  0
    2.3674    3.8665   -0.9281 H   0  0  0  0  0  0  0  0  0  0  0  0
   -2.5029    1.1291   -0.7678 H   0  0  0  0  0  0  0  0  0  0  0  0
   -3.0266   -1.4238   -1.1160 H   0  0  0  0  0  0  0  0  0  0  0  0
   -5.0473   -2.5359   -1.8264 H   0  0  0  0  0  0  0  0  0  0  0  0
   -7.1206   -2.3744   -0.4199 H   0  0  0  0  0  0  0  0  0  0  0  0
   -8.2444   -1.5800    1.5033 H   0  0  0  0  0  0  0  0  0  0  0  0
   -8.3112   -0.3251    3.5936 H   0  0  0  0  0  0  0  0  0  0  0  0
   -6.2391    0.8205    4.3219 H   0  0  0  0  0  0  0  0  0  0  0  0
   -4.1534    0.7234    2.9955 H   0  0  0  0  0  0  0  0  0  0  0  0
  1  2  1  0
  2  3  1  0
  3  4  2  0
  4  5  1  0
  5  6  2  0
  6  7  1  0
  7  8  2  0
  6  9  1  0
  9 10  2  0
  9 11  2  0
  9 12  1  0
 12 13  1  0
 13 14  1  0
 14 15  1  0
 15 16  1  0
 16 17  1  0
 17 18  1  0
 15 19  1  0
 19 20  1  0
 20 21  2  0
 20 22  1  0
 22 23  2  0
 23 24  1  0
 24 25  2  0
 25 26  1  0
 26 27  2  0
 27 28  1  0
 28 29  2  0
 29 30  1  0
 30 31  2  0
  8  3  1  0
 18 12  1  0
 31 22  1  0
 17 14  1  0
 31 26  1  0
  1 32  1  0
  1 33  1  0
  1 34  1  0
  4 35  1  0
  5 36  1  0
  7 37  1  0
  8 38  1  0
 13 39  1  0
 13 40  1  0
 14 41  1  6
 15 42  1  1
 16 43  1  0
 16 44  1  0
 17 45  1  1
 18 46  1  0
 18 47  1  0
 19 48  1  0
 23 49  1  0
 24 50  1  0
 25 51  1  0
 27 52  1  0
 28 53  1  0
 29 54  1  0
 30 55  1  0
M  END
$$$$
